data_functionalizedCrystal
_audit_creation_method	'MofGen! by Chris Wilmer'
_symmetry_space_group_name_H-M	'P1'
_symmetry_Int_Tables_number	1
_symmetry_cell_setting	triclinic
loop_
_symmetry_equiv_pos_as_xyz
  x,y,z
_cell_length_a	15.995350
_cell_length_b	15.995350
_cell_length_c	14.472310
_cell_angle_alpha	90.001162
_cell_angle_beta	89.990621
_cell_angle_gamma	83.492375
loop_
_atom_site_label
_atom_site_type_symbol
_atom_site_fract_x
_atom_site_fract_y
_atom_site_fract_z
O1	O	1.110997	0.107921	-0.076758
O2	O	1.610997	0.607921	0.423242
O3	O	0.867221	0.121248	-0.076776
O4	O	1.367221	0.621248	0.423224
O5	O	0.995773	-0.007303	-0.076766
O6	O	1.495773	0.492697	0.423234
O7	O	0.982445	0.236472	-0.076769
O8	O	1.482445	0.736472	0.423231
O9	O	0.995740	-0.007296	0.076916
O10	O	1.495740	0.492704	0.576916
O11	O	0.867188	0.121256	0.076906
O12	O	1.367188	0.621256	0.576906
O13	O	1.110963	0.107928	0.076924
O14	O	1.610963	0.607928	0.576924
Cu15	Cu	0.989073	0.114593	0.090947
Cu16	Cu	1.489073	0.614593	0.590947
Cu17	Cu	0.989112	0.114584	-0.090800
Cu18	Cu	1.489112	0.614584	0.409200
O19	O	0.982412	0.236480	0.076913
O20	O	1.482412	0.736480	0.576913
C21	C	0.836010	0.120701	0.000062
C22	C	1.336010	0.620701	0.500062
C23	C	0.743060	0.119049	0.000055
C24	C	1.243060	0.619049	0.500055
C25	C	0.405312	0.113117	0.000074
C26	C	0.905312	0.613117	0.500074
C27	C	0.452746	0.021565	0.000418
C28	C	0.952746	0.521565	0.500418
C29	C	0.549436	0.023217	0.000065
C30	C	1.049436	0.523217	0.500065
C31	C	0.572873	0.116060	0.000065
C32	C	1.072873	0.616060	0.500065
C33	C	0.531804	0.161212	-0.087692
C34	C	1.031804	0.661212	0.412308
C35	C	0.435169	0.158912	-0.087759
C36	C	0.935169	0.658912	0.412241
C37	C	0.434792	0.160812	0.087007
C38	C	0.934792	0.660812	0.587007
C39	C	0.531737	0.160790	0.088160
C40	C	1.031737	0.660790	0.588160
C41	C	0.667570	0.117727	0.000057
C42	C	1.167570	0.617727	0.500057
C43	C	0.310614	0.111452	0.000076
C44	C	0.810614	0.611452	0.500076
C45	C	0.995205	-0.038494	0.000073
C46	C	1.495205	0.461506	0.500073
C47	C	0.993553	-0.131444	0.000068
C48	C	1.493553	0.368556	0.500068
C49	C	0.987621	-0.469192	0.000071
C50	C	1.487621	0.030808	0.500071
C51	C	0.896069	-0.421758	-0.000281
C52	C	1.396069	0.078242	0.499719
C53	C	0.897721	-0.325068	0.000066
C54	C	1.397721	0.174932	0.500066
C55	C	0.990564	-0.301631	0.000069
C56	C	1.490564	0.198369	0.500069
C57	C	1.035701	-0.342705	0.087831
C58	C	1.535701	0.157295	0.587831
C59	C	1.033401	-0.439340	0.087904
C60	C	1.533401	0.060660	0.587904
C61	C	1.035330	-0.439707	-0.086861
C62	C	1.535330	0.060293	0.413139
C63	C	1.035309	-0.342762	-0.088021
C64	C	1.535309	0.157238	0.411979
C65	C	0.992231	-0.206934	0.000071
C66	C	1.492231	0.293066	0.500071
C67	C	0.985956	-0.563890	0.000075
C68	C	1.485956	-0.063890	0.500075
C69	C	1.142175	0.108476	0.000083
C70	C	1.642175	0.608476	0.500083
C71	C	1.235125	0.110127	0.000084
C72	C	1.735125	0.610127	0.500084
C73	C	0.982980	0.267671	0.000072
C74	C	1.482980	0.767671	0.500072
C75	C	0.984631	0.360621	0.000071
C76	C	1.484631	0.860621	0.500071
N77	N	0.989051	0.114598	0.218778
N78	N	1.489051	0.614598	0.718778
N79	N	0.989140	0.114572	-0.218631
N80	N	1.489140	0.614572	0.281369
C81	C	0.989111	0.114581	0.592869
C82	C	1.489111	0.614581	1.092869
C83	C	0.920095	0.183135	0.553698
C84	C	1.420095	0.683135	1.053698
C85	C	0.920254	0.183385	0.446610
C86	C	1.420254	0.683385	0.946610
C87	C	0.989081	0.114590	0.407278
C88	C	1.489081	0.614590	0.907278
C89	C	1.076445	0.133671	0.446122
C90	C	1.576445	0.633671	0.946122
C91	C	1.076057	0.134159	0.553243
C92	C	1.576057	0.634159	1.053243
C93	C	0.971542	0.026741	0.553398
C94	C	1.471542	0.526741	1.053398
C95	C	0.969538	0.027327	0.446270
C96	C	1.469538	0.527327	0.946270
C97	C	0.989069	0.114593	0.302390
C98	C	1.489069	0.614593	0.802390
C99	C	0.989128	0.114579	0.697757
C100	C	1.489128	0.614579	1.197757
H101	H	0.560193	0.129845	-0.153002
H102	H	1.060193	0.629845	0.346998
O103	O	1.038157	-0.040868	0.586991
O104	O	1.538157	0.459132	1.086991
H105	H	1.071765	-0.071753	0.526781
H106	H	1.571765	0.428247	1.026781
O107	O	0.991660	-0.306601	-0.174026
O108	O	1.491660	0.193399	0.325974
H109	H	0.967655	-0.357938	-0.214240
H110	H	1.467655	0.142062	0.285760
O111	O	0.884411	0.008135	0.412648
O112	O	1.384411	0.508135	0.912648
H113	H	0.842842	0.000943	0.472866
H114	H	1.342842	0.500943	0.972866
O115	O	1.124744	-0.481771	-0.087655
O116	O	1.624744	0.018229	0.412345
H117	H	1.124316	-0.551072	-0.090298
H118	H	1.624316	-0.051072	0.409702
O119	O	0.850379	-0.288154	0.083542
O120	O	1.350379	0.211846	0.583542
H121	H	0.796854	-0.242637	0.060615
H122	H	1.296854	0.257363	0.560615
O123	O	0.587085	-0.023785	0.083397
O124	O	1.087085	0.476215	0.583397
H125	H	0.536236	-0.047908	0.124309
H126	H	1.036236	0.452092	0.624309
O127	O	0.392713	0.250221	0.087797
O128	O	0.892713	0.750221	0.587797
H129	H	0.441438	0.294372	0.085534
H130	H	0.941438	0.794372	0.585534
O131	O	1.126049	-0.323990	0.092176
O132	O	1.626049	0.176010	0.592176
H133	H	1.139770	-0.285119	0.031687
H134	H	1.639770	0.214881	0.531687
O135	O	0.428195	-0.026913	0.083779
O136	O	0.928195	0.473087	0.583779
H137	H	0.381918	0.013721	0.125855
H138	H	0.881918	0.513721	0.625855
O139	O	0.847611	-0.446309	-0.083645
O140	O	1.347611	0.053691	0.416355
H141	H	0.783275	-0.412039	-0.082336
H142	H	1.283275	0.087961	0.417664
O143	O	0.850705	-0.287410	-0.083253
O144	O	1.350705	0.212590	0.416747
H145	H	0.826579	-0.338256	-0.124156
H146	H	1.326579	0.161744	0.375844
H147	H	1.016541	-0.026079	0.419500
H148	H	1.516541	0.473921	0.919500
H149	H	0.931159	0.247952	0.580608
H150	H	1.431159	0.747952	1.080608
H151	H	0.855314	0.172016	0.420349
H152	H	1.355314	0.672016	0.920349
H153	H	0.433166	-0.014865	-0.062168
H154	H	0.933166	0.485135	0.437832
H155	H	0.577308	-0.012521	-0.062951
H156	H	1.077308	0.487479	0.437049
O157	O	0.567902	0.117131	0.174158
O158	O	1.067902	0.617131	0.674158
H159	H	0.554801	0.050459	0.173449
H160	H	1.054801	0.550459	0.673449
O161	O	0.410927	0.115273	-0.174640
O162	O	0.910927	0.615273	0.325360
H163	H	0.468200	0.096005	-0.216210
H164	H	0.968200	0.596005	0.283790
H165	H	1.000459	-0.457639	0.153505
H166	H	1.500459	0.042361	0.653505
H167	H	0.854945	0.171953	0.579481
H168	H	1.354945	0.671953	1.079481
H169	H	0.931473	0.248569	0.420976
H170	H	1.431473	0.748569	0.920976
H171	H	1.129029	0.085068	0.420643
H172	H	1.629029	0.585068	0.920643
O173	O	1.096564	0.219011	0.586340
O174	O	1.596564	0.719011	1.086340
H175	H	1.106659	0.259313	0.525834
H176	H	1.606659	0.759313	1.025834
H177	H	1.129018	0.086196	0.579154
H178	H	1.629018	0.586196	1.079154
O179	O	0.392442	0.247940	-0.093053
O180	O	0.892442	0.747940	0.406947
H181	H	0.440830	0.292444	-0.095562
H182	H	0.940830	0.792444	0.404438
O183	O	0.550516	0.251561	-0.092032
O184	O	1.050516	0.751561	0.407968
H185	H	0.589382	0.265273	-0.031544
H186	H	1.089382	0.765273	0.468456
O187	O	1.097448	0.217564	0.410593
O188	O	1.597448	0.717564	0.910593
H189	H	1.045804	0.245797	0.365281
H190	H	1.545804	0.745797	0.865281
H191	H	0.909219	0.008392	0.580461
H192	H	1.409219	0.508392	1.080461
H193	H	1.100617	-0.471588	0.091888
H194	H	1.600617	0.028412	0.591888
O195	O	0.407582	0.121161	0.175116
O196	O	0.907582	0.621161	0.675116
H197	H	0.366127	0.168403	0.215108
H198	H	0.866127	0.668403	0.715108
O199	O	0.552092	0.250471	0.095190
O200	O	1.052092	0.750471	0.595190
H201	H	0.527760	0.286103	0.033164
H202	H	1.027760	0.786103	0.533164
O203	O	1.124995	-0.322418	-0.095041
O204	O	1.624995	0.177582	0.404959
H205	H	1.168388	-0.381704	-0.094178
H206	H	1.668388	0.118296	0.405822
H207	H	0.859626	-0.441349	0.062299
H208	H	1.359626	0.058651	0.562299
O209	O	0.994146	-0.305108	0.174342
O210	O	1.494146	0.194892	0.674342
H211	H	0.927060	-0.316789	0.175208
H212	H	1.427060	0.183211	0.675208
O213	O	0.995702	-0.466907	-0.174978
O214	O	1.495702	0.033093	0.325022
H215	H	0.941553	-0.501748	-0.157792
H216	H	1.441553	-0.001748	0.342208
