data_functionalizedCrystal
_audit_creation_method	'MofGen! by Chris Wilmer'
_symmetry_space_group_name_H-M	'P1'
_symmetry_Int_Tables_number	1
_symmetry_cell_setting	triclinic
loop_
_symmetry_equiv_pos_as_xyz
  x,y,z
_cell_length_a	10.654550
_cell_length_b	22.610064
_cell_length_c	23.532409
_cell_angle_alpha	90.007112
_cell_angle_beta	96.332769
_cell_angle_gamma	90.011830
loop_
_atom_site_label
_atom_site_type_symbol
_atom_site_fract_x
_atom_site_fract_y
_atom_site_fract_z
O1	O	1.665317	0.049229	-0.079977
O2	O	1.299597	0.049219	-0.087597
O3	O	1.493484	0.049225	-0.000927
O4	O	1.471431	0.049223	-0.166647
O5	O	1.493450	-0.049144	-0.000940
O6	O	1.299563	-0.049150	-0.087610
O7	O	1.665283	-0.049141	-0.079990
Zn8	Zn	1.482418	-0.064764	-0.083802
Zn9	Zn	1.482463	0.064842	-0.083785
O10	O	1.471396	-0.049147	-0.166660
C11	C	1.252800	0.000033	-0.087044
C12	C	1.113410	0.000029	-0.085370
N13	N	1.482396	-0.153216	-0.083813
C14	C	1.032308	0.000037	-0.136400
C15	C	0.901337	0.000048	-0.134824
C16	C	0.932583	0.000044	-0.031183
C17	C	1.063551	0.000030	-0.032760
C18	C	1.082167	0.000037	-0.189010
C19	C	1.001064	0.000045	-0.240044
C20	C	0.870093	0.000056	-0.238468
C21	C	0.820225	0.000057	-0.185857
C22	C	1.568320	-0.561855	-0.045414
C23	C	1.568326	-0.623775	-0.045410
O24	O	1.641328	-0.655791	-0.012769
N25	N	1.482462	-0.654753	-0.083773
C26	C	1.396577	-0.623809	-0.122140
O27	O	1.323543	-0.655844	-0.154771
C28	C	1.396566	-0.561890	-0.122141
C29	C	1.482444	-0.530915	-0.083778
C30	C	1.654190	-0.530880	-0.007054
C31	C	1.654185	-0.468964	-0.007059
C32	C	1.568309	-0.438024	-0.045424
C33	C	1.482439	-0.468999	-0.083783
C34	C	1.310676	-0.530946	-0.160504
C35	C	1.310671	-0.469023	-0.160501
C36	C	1.396550	-0.438048	-0.122139
C37	C	1.396558	-0.376143	-0.122153
N38	N	1.482422	-0.345165	-0.083789
C39	C	1.568298	-0.376105	-0.045425
C40	C	1.396606	-0.753842	-0.122134
C41	C	1.396623	-0.815760	-0.122137
C42	C	1.568370	-0.815722	-0.045406
C43	C	1.568359	-0.753803	-0.045406
C44	C	1.482470	-0.722864	-0.083771
C45	C	1.568281	-0.246078	-0.045438
C46	C	1.568272	-0.184156	-0.045448
C47	C	1.396520	-0.184200	-0.122177
C48	C	1.396533	-0.246116	-0.122169
C49	C	1.482419	-0.277053	-0.083795
O50	O	1.323590	-0.344087	-0.154775
O51	O	1.641309	-0.344062	-0.012794
C52	C	1.712080	0.000047	-0.080543
C53	C	1.851471	0.000054	-0.082217
C54	C	1.492905	0.000042	0.020286
C55	C	1.491215	0.000046	0.083514
N56	N	1.482494	0.153294	-0.083770
C57	C	1.471975	0.000038	-0.187873
C58	C	1.473665	0.000038	-0.251101
C59	C	1.484048	0.053669	0.356813
C60	C	1.485617	0.053670	0.297402
O61	O	1.486489	0.099270	0.266678
N62	N	1.486375	0.000048	0.267688
C63	C	1.485577	-0.053578	0.297388
O64	O	1.486367	-0.099188	0.266659
C65	C	1.484017	-0.053578	0.356798
C66	C	1.483246	0.000048	0.386508
C67	C	1.483279	0.107290	0.386523
C68	C	1.481707	0.107290	0.445929
C69	C	1.480905	0.053669	0.475625
C70	C	1.481675	0.000048	0.445915
C71	C	1.483227	-0.107202	0.386498
C72	C	1.481668	-0.107197	0.445912
C73	C	1.480897	-0.053572	0.475622
C74	C	1.479301	-0.053574	0.535017
N75	N	1.478543	0.000048	0.564731
C76	C	1.479345	0.053669	0.535035
C77	C	1.488855	-0.053575	0.172624
C78	C	1.490406	-0.053576	0.113214
C79	C	1.490449	0.053672	0.113233
C80	C	1.488889	0.053672	0.172642
C81	C	1.488097	0.000047	0.202338
C82	C	1.476044	0.053664	0.659792
C83	C	1.474467	0.053659	0.719203
C84	C	1.474431	-0.053588	0.719180
C85	C	1.476001	-0.053584	0.659774
C86	C	1.476812	0.000047	0.630082
O87	O	1.478434	-0.099152	0.565779
O88	O	1.478572	0.099271	0.565772
H89	H	1.188808	0.000031	-0.190300
H90	H	1.041676	0.000039	-0.282878
H91	H	1.129587	0.000025	0.008793
C92	C	1.488251	0.111853	0.204976
C93	C	1.595389	0.114995	0.245062
C94	C	1.594835	0.168583	0.274857
H95	H	1.489011	0.143832	0.178841
H96	H	1.414443	0.114090	0.224140
H97	H	1.669178	0.112764	0.225899
H98	H	1.594652	0.083029	0.271209
H99	H	1.521027	0.170819	0.294021
H100	H	1.595592	0.200557	0.248718
H101	H	1.667520	0.170719	0.302063
H102	H	1.638293	-0.840925	-0.014166
C103	C	1.476558	-0.111782	0.627461
C104	C	1.369396	-0.114915	0.587387
C105	C	1.369866	-0.168520	0.557617
H106	H	1.550324	-0.114066	0.608283
H107	H	1.475780	-0.143739	0.653629
H108	H	1.370186	-0.082966	0.561223
H109	H	1.295613	-0.112641	0.606549
H110	H	1.369088	-0.200478	0.583786
H111	H	1.443637	-0.170799	0.538443
H112	H	1.297153	-0.170655	0.530428
C113	C	1.217363	-0.564640	-0.202062
C114	C	1.140900	-0.600199	-0.171399
C115	C	1.054928	-0.631250	-0.209664
H116	H	1.166100	-0.537403	-0.224919
H117	H	1.262184	-0.588829	-0.225957
H118	H	1.096082	-0.576013	-0.147514
H119	H	1.192128	-0.627447	-0.148544
H120	H	1.099748	-0.655439	-0.233559
H121	H	1.003673	-0.604009	-0.232520
H122	H	1.003045	-0.655385	-0.188866
C123	C	1.491045	0.111860	0.080917
C124	C	1.383873	0.114961	0.040849
C125	C	1.384346	0.168554	0.011070
H126	H	1.490276	0.143834	0.107064
H127	H	1.564831	0.114132	0.061739
H128	H	1.310106	0.112695	0.060026
H129	H	1.384620	0.083000	0.014691
H130	H	1.458132	0.170825	-0.008107
H131	H	1.383581	0.200523	0.037221
H132	H	1.311638	0.170662	-0.016122
H133	H	1.724111	-0.443747	0.024180
H134	H	1.491010	-0.097243	0.089028
H135	H	1.481024	-0.150867	0.470086
C136	C	0.782245	0.000092	-0.293936
C137	C	0.853948	0.000103	-0.340344
C138	C	0.773069	0.000148	-0.391451
H139	H	0.730445	-0.034197	-0.295564
H140	H	0.730554	0.034415	-0.295500
H141	H	0.905618	-0.034215	-0.338780
H142	H	0.905746	0.034390	-0.338735
H143	H	0.721377	0.034470	-0.393015
H144	H	0.721272	-0.034142	-0.393073
H145	H	0.821707	0.000161	-0.422945
H146	H	1.638208	-0.158938	-0.014209
C147	C	1.747240	-0.564496	0.034668
C148	C	1.680821	-0.600038	0.069830
C149	C	1.766509	-0.631003	0.108275
H150	H	1.799298	-0.588693	0.014030
H151	H	1.798353	-0.537190	0.057543
H152	H	1.629730	-0.627341	0.046958
H153	H	1.628768	-0.575857	0.090480
H154	H	1.817622	-0.603697	0.131150
H155	H	1.818562	-0.655196	0.087632
H156	H	1.721456	-0.655118	0.132140
C157	C	1.303591	-0.849417	-0.163858
C158	C	1.370036	-0.884953	-0.199012
C159	C	1.284369	-0.915958	-0.237456
H160	H	1.251541	-0.873622	-0.143219
H161	H	1.252469	-0.822136	-0.186738
H162	H	1.421137	-0.912232	-0.176134
H163	H	1.422081	-0.860764	-0.219664
H164	H	1.233247	-0.888677	-0.260336
H165	H	1.232324	-0.940159	-0.216812
H166	H	1.329439	-0.940069	-0.261316
H167	H	1.483868	-0.150870	0.362318
C168	C	0.878199	0.000083	0.025877
C169	C	0.746144	0.000114	0.016335
C170	C	0.696005	0.000160	0.068885
H171	H	0.905906	-0.034213	0.046951
H172	H	0.906045	0.034398	0.046919
H173	H	0.718309	-0.034198	-0.004698
H174	H	0.718402	0.034407	-0.004731
H175	H	0.723851	0.034475	0.089928
H176	H	0.723721	-0.034137	0.089956
H177	H	0.606401	0.000187	0.062419
C178	C	1.661667	-0.279554	-0.003750
C179	C	1.736878	-0.239164	0.029829
C180	C	1.822932	-0.269980	0.068231
H181	H	1.616951	-0.303710	0.020205
H182	H	1.713759	-0.303694	-0.024438
H183	H	1.684793	-0.215034	0.050515
H184	H	1.781622	-0.215006	0.005889
H185	H	1.875024	-0.294120	0.047543
H186	H	1.778205	-0.294135	0.092182
H187	H	1.873980	-0.242580	0.091015
H188	H	1.326616	-0.271336	-0.153413
H189	H	1.473773	-0.097246	0.743369
C190	C	1.661648	-0.720282	-0.003689
C191	C	1.736831	-0.760639	0.029915
C192	C	1.822773	-0.729786	0.068359
H193	H	1.713780	-0.696120	-0.024326
H194	H	1.616805	-0.696146	0.020242
H195	H	1.781671	-0.784766	0.005988
H196	H	1.684734	-0.784803	0.050565
H197	H	1.777931	-0.705649	0.092290
H198	H	1.874896	-0.705624	0.047717
H199	H	1.873787	-0.757163	0.091167
C200	C	1.303306	-0.720361	-0.163861
C201	C	1.228145	-0.760749	-0.197465
C202	C	1.142196	-0.729931	-0.235913
H203	H	1.251160	-0.696207	-0.143226
H204	H	1.348143	-0.696218	-0.187791
H205	H	1.183312	-0.784882	-0.173538
H206	H	1.280257	-0.784904	-0.218111
H207	H	1.187032	-0.705789	-0.259843
H208	H	1.090058	-0.705779	-0.215274
H209	H	1.091196	-0.757330	-0.258721
H210	H	1.488200	-0.097246	0.196797
H211	H	1.240727	-0.443836	-0.191742
C212	C	1.303483	-0.150523	-0.163855
C213	C	1.369924	-0.114959	-0.198989
C214	C	1.284253	-0.083920	-0.237381
H215	H	1.252296	-0.177767	-0.186758
H216	H	1.251497	-0.126339	-0.143157
H217	H	1.421888	-0.139142	-0.219685
H218	H	1.421106	-0.087705	-0.176102
H219	H	1.232267	-0.059736	-0.216683
H220	H	1.233071	-0.111168	-0.260280
H221	H	1.329320	-0.059783	-0.261220
H222	H	0.713579	0.000056	-0.184578
H223	H	1.476705	0.097336	0.635624
C224	C	1.480989	0.165575	0.478085
C225	C	1.482080	0.212528	0.439356
C226	C	1.481457	0.266231	0.468954
H227	H	1.407175	0.167905	0.497224
H228	H	1.553660	0.167829	0.505291
H229	H	1.409416	0.210275	0.412160
H230	H	1.555888	0.210218	0.420215
H231	H	1.554128	0.268485	0.496160
H232	H	1.407642	0.268555	0.488093
H233	H	1.482209	0.298095	0.442682
C234	C	1.483862	0.165482	0.354219
C235	C	1.376683	0.168588	0.314156
C236	C	1.377136	0.222191	0.284392
H237	H	1.483091	0.197447	0.380375
H238	H	1.557643	0.167765	0.335039
H239	H	1.302921	0.166311	0.333335
H240	H	1.377432	0.136635	0.287988
H241	H	1.450917	0.224474	0.265212
H242	H	1.376368	0.254152	0.310553
H243	H	1.304423	0.224303	0.257203
H244	H	1.473835	0.097329	0.743390
