data_functionalizedCrystal
_audit_creation_method	'MofGen! by Chris Wilmer'
_symmetry_space_group_name_H-M	'P1'
_symmetry_Int_Tables_number	1
_symmetry_cell_setting	triclinic
loop_
_symmetry_equiv_pos_as_xyz
  x,y,z
_cell_length_a	16.992694
_cell_length_b	16.776229
_cell_length_c	17.699092
_cell_angle_alpha	89.998992
_cell_angle_beta	86.977295
_cell_angle_gamma	90.001719
loop_
_atom_site_label
_atom_site_type_symbol
_atom_site_fract_x
_atom_site_fract_y
_atom_site_fract_z
O1	O	1.040094	0.066184	0.160462
O2	O	1.540094	0.566184	0.660462
O3	O	0.811812	0.066207	0.158702
O4	O	1.311812	0.566207	0.658702
O5	O	0.932399	0.066193	0.049795
O6	O	1.432399	0.566193	0.549795
O7	O	0.919507	0.066198	0.269370
O8	O	1.419507	0.566198	0.769370
O9	O	0.932382	-0.066384	0.049800
O10	O	1.432382	0.433616	0.549800
O11	O	0.811795	-0.066369	0.158707
O12	O	1.311795	0.433631	0.658707
O13	O	1.040077	-0.066393	0.160468
O14	O	1.540077	0.433607	0.660468
Zn15	Zn	0.925933	-0.087431	0.159588
Zn16	Zn	1.425933	0.412569	0.659588
Zn17	Zn	0.925956	0.087245	0.159581
Zn18	Zn	1.425956	0.587245	0.659581
O19	O	0.919489	-0.066379	0.269375
O20	O	1.419489	0.433621	0.769375
C21	C	0.782595	-0.000078	0.156440
C22	C	1.282595	0.499922	0.656440
C23	C	0.695563	-0.000069	0.149683
C24	C	1.195563	0.499931	0.649683
N25	N	0.925923	-0.206642	0.159593
N26	N	1.425923	0.293358	0.659593
C27	C	0.979375	-0.751813	0.111366
C28	C	1.479375	-0.251813	0.611366
C29	C	0.979371	-0.668361	0.111371
C30	C	1.479371	-0.168361	0.611371
C31	C	0.925960	-0.626641	0.159578
C32	C	1.425960	-0.126641	0.659578
C33	C	0.872555	-0.668378	0.207789
C34	C	1.372555	-0.168378	0.707789
C35	C	0.872563	-0.751829	0.207787
C36	C	1.372563	-0.251829	0.707787
C37	C	0.872522	-0.331831	0.207798
C38	C	1.372522	0.168169	0.707798
C39	C	0.872516	-0.248375	0.207794
C40	C	1.372516	0.251625	0.707794
C41	C	0.979329	-0.248363	0.111382
C42	C	1.479329	0.251637	0.611382
C43	C	0.979337	-0.331813	0.111380
C44	C	1.479337	0.168187	0.611380
C45	C	0.925935	-0.373543	0.159593
C46	C	1.425935	0.126457	0.659593
C47	C	0.925941	-0.464032	0.159588
C48	C	1.425941	0.035968	0.659588
C49	C	0.925950	-0.536154	0.159580
C50	C	1.425950	-0.036154	0.659580
C51	C	0.645201	-0.000068	0.214880
C52	C	1.145201	0.499932	0.714880
C53	C	0.563426	-0.000079	0.208527
C54	C	1.063426	0.499921	0.708527
C55	C	0.532016	-0.000086	0.136975
C56	C	1.032016	0.499914	0.636975
C57	C	0.582385	-0.000089	0.071772
C58	C	1.082385	0.499911	0.571772
C59	C	0.664158	-0.000083	0.078127
C60	C	1.164158	0.499917	0.578127
C61	C	0.288467	-0.000108	0.110639
C62	C	0.788467	0.499892	0.610639
C63	C	0.206688	-0.000111	0.104289
C64	C	0.706688	0.499889	0.604289
C65	C	0.187735	-0.000103	0.241044
C66	C	0.687735	0.499897	0.741044
C67	C	0.269510	-0.000092	0.247392
C68	C	0.769510	0.499908	0.747392
C69	C	0.319872	-0.000100	0.182190
C70	C	0.819872	0.499900	0.682190
N71	N	0.448429	-0.000095	0.130479
N72	N	0.948429	0.499905	0.630479
N73	N	0.403457	-0.000097	0.188687
N74	N	0.903457	0.499903	0.688687
C75	C	1.069294	-0.000106	0.162730
C76	C	1.569294	0.499894	0.662730
C77	C	1.156325	-0.000110	0.169487
C78	C	1.656325	0.499890	0.669487
C79	C	0.931927	-0.000094	0.021572
C80	C	1.431927	0.499906	0.521572
C81	C	0.930538	-0.000090	-0.062533
C82	C	1.430538	0.499910	0.437467
N83	N	0.925972	0.206456	0.159571
N84	N	1.425972	0.706456	0.659571
C85	C	0.929897	0.072178	-0.102043
C86	C	1.429897	0.572178	0.397957
C87	C	0.928587	0.072179	-0.181068
C88	C	1.428587	0.572179	0.318932
C89	C	0.927923	-0.000089	-0.220581
C90	C	1.427923	0.499911	0.279419
C91	C	0.928562	-0.072363	-0.181064
C92	C	1.428562	0.427637	0.318936
C93	C	0.929867	-0.072363	-0.102041
C94	C	1.429867	0.427637	0.397959
C95	C	0.923300	-0.072364	-0.499757
C96	C	1.423300	0.427636	0.000243
C97	C	0.921997	-0.072358	-0.578786
C98	C	1.421997	0.427642	-0.078786
C99	C	0.922019	0.072179	-0.578784
C100	C	1.422019	0.572179	-0.078784
C101	C	0.923324	0.072179	-0.499761
C102	C	1.423324	0.572179	0.000239
C103	C	0.923959	-0.000095	-0.460251
C104	C	1.423959	0.499905	0.039749
C105	C	0.925378	-0.000095	-0.374563
C106	C	1.425378	0.499905	0.125437
C107	C	0.926510	-0.000090	-0.306267
C108	C	1.426510	0.499910	0.193733
C109	C	0.919961	-0.000090	0.297598
C110	C	1.419961	0.499910	0.797598
C111	C	0.921350	-0.000089	0.381702
C112	C	1.421350	0.499911	0.881702
H113	H	1.022855	-0.634383	0.072120
H114	H	1.522855	-0.134383	0.572120
H115	H	0.146722	-0.000098	0.294128
H116	H	0.646722	0.499902	0.794128
O117	O	0.921206	-0.142586	-0.617123
O118	O	1.421206	0.357414	-0.117123
C119	C	0.853648	-0.186543	-0.593334
C120	C	1.353648	0.313457	-0.093334
H121	H	0.806578	-0.144246	-0.568491
H122	H	1.306578	0.355754	-0.068491
H123	H	0.829999	-0.219318	-0.643804
H124	H	1.329999	0.280682	-0.143804
H125	H	0.869737	-0.231610	-0.548473
H126	H	1.369737	0.268390	-0.048473
O127	O	0.514469	-0.000212	0.271835
O128	O	1.014469	0.499788	0.771835
C129	C	0.466588	-0.068866	0.272254
C130	C	0.966588	0.431134	0.772254
H131	H	0.496611	-0.116864	0.235378
H132	H	0.996611	0.383136	0.735378
H133	H	0.457273	-0.091902	0.332661
H134	H	0.957273	0.408098	0.832661
H135	H	0.407161	-0.053350	0.249063
H136	H	0.907161	0.446650	0.749063
H137	H	0.928068	0.131027	-0.213234
H138	H	1.428068	0.631027	0.286766
H139	H	0.829079	-0.785806	0.247041
H140	H	1.329079	-0.285806	0.747041
H141	H	0.670768	-0.000063	0.273145
H142	H	1.170768	0.499937	0.773145
H143	H	0.923868	0.131027	-0.467593
H144	H	1.423868	0.631027	0.032407
H145	H	0.930378	-0.131212	-0.069871
H146	H	1.430378	0.368788	0.430129
O147	O	0.921250	0.142364	-0.617195
O148	O	1.421250	0.642364	-0.117195
C149	C	0.852628	0.146681	-0.658450
C150	C	1.352628	0.646681	-0.158450
H151	H	0.805578	0.105676	-0.631507
H152	H	1.305578	0.605676	-0.131507
H153	H	0.829837	0.210602	-0.657853
H154	H	1.329837	0.710602	-0.157853
H155	H	0.866978	0.127258	-0.719349
H156	H	1.366978	0.627258	-0.219349
H157	H	0.829039	-0.365801	0.247053
H158	H	1.329039	0.134199	0.747053
O159	O	0.820701	-0.627731	0.254546
O160	O	1.320701	-0.127731	0.754546
C161	C	0.832154	-0.545126	0.244224
C162	C	1.332154	-0.045126	0.744224
H163	H	0.861571	-0.533723	0.185845
H164	H	1.361571	-0.033723	0.685845
H165	H	0.772764	-0.513420	0.249018
H166	H	1.272764	-0.013420	0.749018
H167	H	0.871388	-0.521438	0.289460
H168	H	1.371388	-0.021438	0.789460
O169	O	0.923789	-0.142550	-0.461348
O170	O	1.423789	0.357450	0.038652
C171	C	0.856681	-0.146879	-0.411159
C172	C	1.356681	0.353121	0.088841
H173	H	0.808848	-0.105862	-0.431842
H174	H	1.308848	0.394138	0.068158
H175	H	0.833911	-0.210798	-0.408776
H176	H	1.333911	0.289202	0.091224
H177	H	0.873017	-0.127478	-0.352274
H178	H	1.373017	0.372522	0.147726
O179	O	0.712971	-0.000045	0.014717
O180	O	1.212971	0.499955	0.514717
C181	C	0.667715	-0.000069	-0.049800
C182	C	1.167715	0.499931	0.450200
H183	H	0.606645	0.025027	-0.034286
H184	H	1.106645	0.525027	0.465714
H185	H	0.697971	0.038421	-0.095787
H186	H	1.197971	0.538421	0.404213
H187	H	0.661935	-0.063674	-0.071497
H188	H	1.161935	0.436326	0.428503
H189	H	0.930441	0.131027	-0.069878
H190	H	1.430441	0.631027	0.430122
H191	H	0.928017	-0.131205	-0.213242
H192	H	1.428017	0.368795	0.286758
H193	H	0.181117	-0.000115	0.046020
H194	H	0.681117	0.499885	0.546020
O195	O	0.299889	-0.000126	0.316956
O196	O	0.799889	0.499874	0.816956
C197	C	0.237901	-0.000108	0.373141
C198	C	0.737901	0.499892	0.873141
H199	H	0.182389	-0.025212	0.348569
H200	H	0.682389	0.474788	0.848569
H201	H	0.254901	-0.038596	0.422800
H202	H	0.754901	0.461404	0.922800
H203	H	0.226289	0.063495	0.393486
H204	H	0.726289	0.563495	0.893486
O205	O	0.337270	-0.000076	0.047227
O206	O	0.837270	0.499924	0.547227
C207	C	0.292008	-0.000101	-0.017286
C208	C	0.792008	0.499899	0.482714
H209	H	0.230940	0.025000	-0.001768
H210	H	0.730940	0.525000	0.498232
H211	H	0.322262	0.038386	-0.063277
H212	H	0.822262	0.538386	0.436723
H213	H	0.286221	-0.063706	-0.038980
H214	H	0.786221	0.436294	0.461020
O215	O	0.551745	-0.000061	0.002324
O216	O	1.051745	0.499939	0.502324
C217	C	0.468770	-0.000083	0.010694
C218	C	0.968770	0.499917	0.510694
H219	H	0.449455	0.025019	0.068588
H220	H	0.949455	0.525019	0.568588
H221	H	0.443746	0.038404	-0.035391
H222	H	0.943746	0.538404	0.464609
H223	H	0.446014	-0.063688	0.005654
H224	H	0.946014	0.436312	0.505654
O225	O	1.031297	-0.372215	0.064529
O226	O	1.531297	0.127785	0.564529
C227	C	1.078420	-0.317486	0.021969
C228	C	1.578420	0.182514	0.521969
H229	H	1.079239	-0.257999	0.053050
H230	H	1.579239	0.242001	0.553050
H231	H	1.141052	-0.341590	0.014249
H232	H	1.641052	0.158410	0.514249
H233	H	1.053074	-0.308614	-0.035805
H234	H	1.553074	0.191386	0.464195
H235	H	0.829021	-0.214408	0.247053
H236	H	1.329021	0.285592	0.747053
O237	O	1.031223	-0.792250	0.064430
O238	O	1.531223	-0.292250	0.564430
C239	C	1.018606	-0.771870	-0.011263
C240	C	1.518606	-0.271870	0.488737
H241	H	0.988383	-0.711282	-0.013011
H242	H	1.488383	-0.211282	0.486989
H243	H	1.077605	-0.769008	-0.044937
H244	H	1.577605	-0.269008	0.455063
H245	H	0.979629	-0.818839	-0.037049
H246	H	1.479629	-0.318839	0.462951
O247	O	1.031152	-0.207702	0.064593
O248	O	1.531152	0.292298	0.564593
C249	C	1.019669	-0.125100	0.074900
C250	C	1.519669	0.374900	0.574900
H251	H	0.990297	-0.113694	0.133295
H252	H	1.490297	0.386306	0.633295
H253	H	1.079043	-0.093363	0.070049
H254	H	1.579043	0.406637	0.570049
H255	H	0.980384	-0.101448	0.029690
H256	H	1.480384	0.398552	0.529690
