data_functionalizedCrystal
_audit_creation_method	'MofGen! by Chris Wilmer'
_symmetry_space_group_name_H-M	'P1'
_symmetry_Int_Tables_number	1
_symmetry_cell_setting	triclinic
loop_
_symmetry_equiv_pos_as_xyz
  x,y,z
_cell_length_a	17.699083
_cell_length_b	17.699083
_cell_length_c	16.176319
_cell_angle_alpha	89.992304
_cell_angle_beta	89.998611
_cell_angle_gamma	83.283015
loop_
_atom_site_label
_atom_site_type_symbol
_atom_site_fract_x
_atom_site_fract_y
_atom_site_fract_z
O1	O	1.004079	0.095713	-0.068632
O2	O	1.504079	0.595713	0.431368
O3	O	0.783700	0.108166	-0.068660
O4	O	1.283700	0.608166	0.431340
O5	O	0.900116	-0.008250	-0.068638
O6	O	1.400116	0.491750	0.431362
O7	O	0.887663	0.212129	-0.068654
O8	O	1.387663	0.712129	0.431346
O9	O	0.900100	-0.008257	0.068855
O10	O	1.400100	0.491743	0.568855
O11	O	0.783684	0.108158	0.068834
O12	O	1.283684	0.608158	0.568834
O13	O	1.004063	0.095706	0.068861
O14	O	1.504063	0.595706	0.568861
Cu15	Cu	0.893872	0.101931	0.081401
Cu16	Cu	1.393872	0.601931	0.581401
Cu17	Cu	0.893891	0.101940	-0.081200
Cu18	Cu	1.393891	0.601940	0.418800
O19	O	0.887647	0.212121	0.068839
O20	O	1.387647	0.712121	0.568839
C21	C	0.755495	0.107716	0.000084
C22	C	1.255495	0.607716	0.500084
C23	C	0.671477	0.106377	0.000073
C24	C	1.171477	0.606377	0.500073
C25	C	0.899662	-0.036451	0.000109
C26	C	1.399662	0.463549	0.500109
C27	C	0.898323	-0.120469	0.000109
C28	C	1.398323	0.379531	0.500109
C29	C	0.622856	0.174710	0.000069
C30	C	1.122856	0.674710	0.500069
C31	C	0.543913	0.173448	0.000079
C32	C	1.043913	0.673448	0.500079
C33	C	0.513592	0.103852	0.000089
C34	C	1.013592	0.603852	0.500089
C35	C	0.562219	0.035513	0.000096
C36	C	1.062219	0.535513	0.500096
C37	C	0.641161	0.036776	0.000091
C38	C	1.141161	0.536776	0.500091
C39	C	0.243856	0.030418	0.000117
C40	C	0.743856	0.530418	0.500117
C41	C	0.164908	0.029160	0.000120
C42	C	0.664908	0.529160	0.500120
C43	C	0.146608	0.167090	0.000105
C44	C	0.646608	0.667090	0.500105
C45	C	0.225550	0.168353	0.000100
C46	C	0.725550	0.668353	0.500100
C47	C	0.274170	0.100015	0.000112
C48	C	0.774170	0.600015	0.500112
C49	C	0.359769	0.101384	0.000102
C50	C	0.859769	0.601384	0.500102
C51	C	0.427995	0.102481	0.000093
C52	C	0.927995	0.602481	0.500093
C53	C	0.966656	-0.169090	0.000119
C54	C	1.466656	0.330910	0.500119
C55	C	0.965394	-0.248033	0.000111
C56	C	1.465394	0.251967	0.500111
C57	C	0.895798	-0.278354	0.000100
C58	C	1.395798	0.221646	0.500100
C59	C	0.827459	-0.229727	0.000088
C60	C	1.327459	0.270273	0.500088
C61	C	0.828722	-0.150785	0.000089
C62	C	1.328722	0.349215	0.500089
C63	C	0.822364	-0.548090	0.000080
C64	C	1.322364	-0.048090	0.500080
C65	C	0.821106	-0.627038	0.000081
C66	C	1.321106	-0.127038	0.500081
C67	C	0.959036	-0.645338	0.000102
C68	C	1.459036	-0.145338	0.500102
C69	C	0.960299	-0.566396	0.000104
C70	C	1.460299	-0.066396	0.500104
C71	C	0.891961	-0.517776	0.000087
C72	C	1.391961	-0.017776	0.500087
C73	C	0.893330	-0.432177	0.000094
C74	C	1.393330	0.067823	0.500094
C75	C	0.894427	-0.363951	0.000099
C76	C	1.394427	0.136049	0.500099
C77	C	1.032268	0.096156	0.000116
C78	C	1.532268	0.596156	0.500116
C79	C	1.116286	0.097494	0.000121
C80	C	1.616286	0.597494	0.500121
C81	C	0.888102	0.240322	0.000091
C82	C	1.388102	0.740322	0.500091
C83	C	0.889440	0.324340	0.000085
C84	C	1.389440	0.824340	0.500085
N85	N	0.893864	0.101925	0.195767
N86	N	1.393864	0.601925	0.695767
N87	N	0.893905	0.101941	-0.195565
N88	N	1.393905	0.601941	0.304435
C89	C	0.945429	0.050397	0.239040
C90	C	1.445429	0.550397	0.739040
C91	C	0.945432	0.050396	0.325588
C92	C	1.445432	0.550396	0.825588
C93	C	0.893875	0.101927	0.368859
C94	C	1.393875	0.601927	0.868859
C95	C	0.842305	0.153457	0.325579
C96	C	1.342305	0.653457	0.825579
C97	C	0.842299	0.153454	0.239034
C98	C	1.342299	0.653454	0.739034
C99	C	0.842331	0.153472	0.674608
C100	C	1.342331	0.653472	1.174608
C101	C	0.842344	0.153473	0.761159
C102	C	1.342344	0.653473	1.261159
C103	C	0.945465	0.050414	0.761161
C104	C	1.445465	0.550414	1.261161
C105	C	0.945458	0.050410	0.674616
C106	C	1.445458	0.550410	1.174616
C107	C	0.893886	0.101937	0.631344
C108	C	1.393886	0.601937	1.131344
C109	C	0.893882	0.101937	0.537499
C110	C	1.393882	0.601937	1.037499
C111	C	0.893883	0.101932	0.462702
C112	C	1.393883	0.601932	0.962702
H113	H	0.504328	0.229092	0.000075
H114	H	1.004328	0.729092	0.500075
C115	C	0.234240	0.286316	-0.070592
C116	C	0.734240	0.786316	0.429408
C117	C	0.258871	0.244859	0.000088
C118	C	0.758871	0.744859	0.500088
H119	H	0.254805	0.333551	-0.070593
H120	H	0.754805	0.833551	0.429407
H121	H	0.250942	0.258190	-0.118528
H122	H	0.750942	0.758190	0.381472
H123	H	0.180265	0.295333	-0.070580
H124	H	0.680265	0.795333	0.429420
H125	H	0.312845	0.235837	0.000074
H126	H	0.812845	0.735837	0.500074
H127	H	0.242173	0.272991	0.048037
H128	H	0.742173	0.772991	0.548037
H129	H	0.140225	-0.027517	0.000128
H130	H	0.640225	0.472483	0.500128
C131	C	0.588244	-0.100702	0.000112
C132	C	1.088244	0.399298	0.500112
C133	C	0.528894	-0.040990	0.000106
C134	C	1.028894	0.459010	0.500106
H135	H	0.567670	-0.147933	0.000121
H136	H	1.067670	0.352067	0.500121
H137	H	0.618652	-0.097338	-0.047832
H138	H	1.118652	0.402662	0.452168
H139	H	0.618654	-0.097338	0.048062
H140	H	1.118654	0.402662	0.548062
H141	H	0.498487	-0.044351	-0.047847
H142	H	0.998487	0.455649	0.452153
H143	H	0.498473	-0.044356	0.048056
H144	H	0.998473	0.455644	0.548056
C145	C	0.017468	0.226411	0.000117
C146	C	0.517468	0.726411	0.500117
C147	C	0.093162	0.242211	0.000104
C148	C	0.593162	0.742211	0.500104
H149	H	-0.015524	0.272788	0.000119
H150	H	0.484476	0.772788	0.500119
H151	H	0.008290	0.197874	-0.047822
H152	H	0.508290	0.697874	0.452178
H153	H	0.008301	0.197867	0.048072
H154	H	0.508301	0.697867	0.548072
H155	H	0.102330	0.270751	-0.047855
H156	H	0.602330	0.770751	0.452145
H157	H	0.102343	0.270760	0.048048
H158	H	0.602343	0.770760	0.548048
C159	C	1.047386	-0.051455	0.316897
C160	C	1.547386	0.448545	0.816897
C161	C	1.002125	-0.006233	0.373154
C162	C	1.502125	0.493767	0.873154
H163	H	1.082392	-0.086411	0.346264
H164	H	1.582392	0.413589	0.846264
H165	H	1.015938	-0.078651	0.283156
H166	H	1.515938	0.421349	0.783156
H167	H	1.074534	-0.019969	0.283126
H168	H	1.574534	0.480031	0.783126
H169	H	0.974973	-0.037719	0.406921
H170	H	1.474973	0.462281	0.906921
H171	H	1.033577	0.020965	0.406909
H172	H	1.533577	0.520965	0.906909
H173	H	0.647537	0.231384	0.000060
H174	H	1.147537	0.731384	0.500060
H175	H	0.800323	0.195413	0.360816
H176	H	1.300323	0.695413	0.860816
H177	H	0.987444	0.008451	0.639387
H178	H	1.487444	0.508451	1.139387
H179	H	0.283434	-0.025228	0.000127
H180	H	0.783434	0.474772	0.500127
H181	H	0.680748	-0.018868	0.000095
H182	H	1.180748	0.481132	0.500095
H183	H	0.766718	-0.508512	0.000067
H184	H	1.266718	-0.008512	0.500067
C185	C	0.764276	-0.342611	0.000086
C186	C	1.264276	0.157389	0.500086
C187	C	0.750956	-0.263053	0.000079
C188	C	1.250956	0.236947	0.500079
H189	H	0.717044	-0.363182	0.000087
H190	H	1.217044	0.136818	0.500087
H191	H	0.792405	-0.359300	-0.047855
H192	H	1.292405	0.140700	0.452145
H193	H	0.792402	-0.359305	0.048039
H194	H	1.292402	0.140695	0.548039
H195	H	0.722835	-0.246359	-0.047879
H196	H	1.222835	0.253641	0.452121
H197	H	0.722815	-0.246357	0.048024
H198	H	1.222815	0.253643	0.548024
H199	H	1.021038	-0.287618	0.000121
H200	H	1.521038	0.212382	0.500121
C201	C	0.797646	0.284555	0.647961
C202	C	1.297646	0.784555	1.147961
C203	C	0.785651	0.210119	0.627054
C204	C	1.285651	0.710119	1.127054
H205	H	0.762655	0.319528	0.618597
H206	H	1.262655	0.819528	1.118597
H207	H	0.790276	0.291920	0.705691
H208	H	1.290276	0.791920	1.205691
H209	H	0.848141	0.292699	0.633759
H210	H	1.348141	0.792699	1.133759
H211	H	0.735157	0.201973	0.641261
H212	H	1.235157	0.701973	1.141261
H213	H	0.793014	0.202750	0.569311
H214	H	1.293014	0.702750	1.069311
C215	C	1.102871	-0.195117	0.000125
C216	C	1.602871	0.304883	0.500125
C217	C	1.043160	-0.135765	0.000125
C218	C	1.543160	0.364235	0.500125
H219	H	1.150102	-0.174543	0.000121
H220	H	1.650102	0.325457	0.500121
H221	H	1.099508	-0.225529	0.048070
H222	H	1.599508	0.274471	0.548070
H223	H	1.099505	-0.225522	-0.047824
H224	H	1.599505	0.274478	0.452176
H225	H	1.046523	-0.105363	0.048078
H226	H	1.546523	0.394637	0.548078
H227	H	1.046526	-0.105340	-0.047824
H228	H	1.546526	0.394660	0.452176
H229	H	1.016971	-0.541714	0.000117
H230	H	1.516971	-0.041714	0.500117
H231	H	0.764429	-0.651721	0.000074
H232	H	1.264429	-0.151721	0.500074
H233	H	0.800309	0.195412	0.203801
H234	H	1.300309	0.695412	0.703801
H235	H	0.987456	0.008455	0.796403
H236	H	1.487456	0.508455	1.296403
H237	H	0.987416	0.008438	0.203814
H238	H	1.487416	0.508438	0.703814
C239	C	1.095509	-0.655497	0.000128
C240	C	1.595509	-0.155497	0.500128
C241	C	1.034158	-0.698783	0.000111
C242	C	1.534158	-0.198783	0.500111
H243	H	1.141884	-0.688492	0.000140
H244	H	1.641884	-0.188492	0.500140
H245	H	1.093139	-0.624321	-0.047815
H246	H	1.593139	-0.124321	0.452185
H247	H	1.093118	-0.624331	0.048080
H248	H	1.593118	-0.124331	0.548080
H249	H	1.036546	-0.729945	-0.047844
H250	H	1.536546	-0.229945	0.452156
H251	H	1.036529	-0.729972	0.048059
H252	H	1.536529	-0.229972	0.548059
C253	C	0.750133	-0.051385	-0.070604
C254	C	1.250133	0.448615	0.429396
C255	C	0.753608	-0.097337	0.000079
C256	C	1.253608	0.402663	0.500079
H257	H	0.703756	-0.018393	-0.070615
H258	H	1.203756	0.481607	0.429385
H259	H	0.791758	-0.022033	-0.070591
H260	H	1.291758	0.477967	0.429409
H261	H	0.752515	-0.082566	-0.118544
H262	H	1.252515	0.417434	0.381456
H263	H	0.751231	-0.066156	0.048019
H264	H	1.251231	0.433844	0.548019
H265	H	0.711972	-0.126691	0.000073
H266	H	1.211972	0.373309	0.500073
C267	C	0.711236	0.198066	0.787830
C268	C	1.211236	0.698066	1.287830
C269	C	0.785662	0.210112	0.808728
C270	C	1.285662	0.710112	1.308728
H271	H	0.676247	0.233029	0.817202
H272	H	1.176247	0.733029	1.317202
H273	H	0.703852	0.205444	0.730101
H274	H	1.203852	0.705444	1.230101
H275	H	0.703133	0.147558	0.802027
H276	H	1.203133	0.647558	1.302027
H277	H	0.793767	0.260619	0.794525
H278	H	1.293767	0.760619	1.294525
H279	H	0.793049	0.202741	0.866469
H280	H	1.293049	0.702741	1.366469
