data_functionalizedCrystal
_audit_creation_method	'MofGen! by Chris Wilmer'
_symmetry_space_group_name_H-M	'P1'
_symmetry_Int_Tables_number	1
_symmetry_cell_setting	triclinic
loop_
_symmetry_equiv_pos_as_xyz
  x,y,z
_cell_length_a	17.639617
_cell_length_b	17.641079
_cell_length_c	18.215399
_cell_angle_alpha	101.189158
_cell_angle_beta	78.758603
_cell_angle_gamma	92.179552
loop_
_atom_site_label
_atom_site_type_symbol
_atom_site_fract_x
_atom_site_fract_y
_atom_site_fract_z
Zn1	Zn	1.222257	-0.067942	-0.659377
Zn2	Zn	1.722257	0.432058	-0.159377
Zn3	Zn	1.247831	-0.194928	-0.565063
Zn4	Zn	1.747831	0.305072	-0.065063
Zn5	Zn	1.095248	-0.093598	-0.517211
Zn6	Zn	1.595248	0.406402	-0.017211
Zn7	Zn	1.120867	-0.220505	-0.668969
Zn8	Zn	1.620867	0.279495	-0.168969
O9	O	1.171551	-0.144243	-0.602655
O10	O	1.671551	0.355757	-0.102655
O11	O	1.331938	-0.063346	-0.662877
O12	O	1.831938	0.436654	-0.162877
O13	O	1.227571	-0.181520	-0.455733
O14	O	1.727571	0.318480	0.044267
O15	O	1.090672	0.016062	-0.512029
O16	O	1.590672	0.516062	-0.012029
O17	O	1.350726	-0.156642	-0.593585
O18	O	1.850726	0.343358	-0.093585
O19	O	1.183985	0.034911	-0.616478
O20	O	1.683985	0.534911	-0.116478
O21	O	1.115469	-0.107072	-0.420577
O22	O	1.615469	0.392928	0.079423
O23	O	0.992358	-0.131873	-0.521330
O24	O	1.492358	0.368127	-0.021330
O25	O	1.134336	-0.200234	-0.770678
O26	O	1.634336	0.299766	-0.270678
O27	O	1.011180	-0.225112	-0.632826
O28	O	1.511180	0.274888	-0.132826
O29	O	1.208827	-0.088146	-0.763631
O30	O	1.708827	0.411854	-0.263631
O31	O	1.252413	-0.304577	-0.602887
O32	O	1.752413	0.195423	-0.102887
O33	O	1.159134	-0.323368	-0.679226
O34	O	1.659134	0.176632	-0.179226
C35	C	0.974210	-0.184053	-0.572927
C36	C	1.474210	0.315947	-0.072927
C37	C	0.889791	-0.201101	-0.560231
C38	C	1.389791	0.298899	-0.060231
C39	C	1.211349	-0.341519	-0.647309
C40	C	1.711349	0.158481	-0.147309
C41	C	1.228444	-0.425901	-0.666447
C42	C	1.728444	0.074099	-0.166447
C43	C	1.301065	-0.534966	-0.747816
C44	C	1.801065	-0.034966	-0.247816
C45	C	1.284996	-0.455677	-0.729826
C46	C	1.784996	0.044323	-0.229826
C47	C	1.187937	-0.475408	-0.621035
C48	C	1.687937	0.024592	-0.121035
C49	C	1.203995	-0.554700	-0.639018
C50	C	1.703995	-0.054700	-0.139018
C51	C	1.260560	-0.584472	-0.702408
C52	C	1.760560	-0.084472	-0.202408
C53	C	1.163490	-0.604207	-0.593611
C54	C	1.663490	-0.104207	-0.093611
C55	C	1.179550	-0.683491	-0.611590
C56	C	1.679550	-0.183491	-0.111590
C57	C	1.236115	-0.713269	-0.674976
C58	C	1.736115	-0.213269	-0.174976
C59	C	1.276621	-0.663757	-0.720388
C60	C	1.776621	-0.163757	-0.220388
C61	C	1.106929	-0.574433	-0.530217
C62	C	1.606929	-0.074433	-0.030217
C63	C	1.066424	-0.623939	-0.484810
C64	C	1.566424	-0.123939	0.015190
C65	C	1.082480	-0.703226	-0.502792
C66	C	1.582480	-0.203226	-0.002792
C67	C	1.139045	-0.733004	-0.566179
C68	C	1.639045	-0.233004	-0.066179
C69	C	1.041975	-0.752739	-0.457381
C70	C	1.541975	-0.252739	0.042619
C71	C	1.058035	-0.832023	-0.475360
C72	C	1.558035	-0.332023	0.024640
C73	C	1.155105	-0.812288	-0.584158
C74	C	1.655105	-0.312288	-0.084158
C75	C	0.563288	-0.014708	-0.699284
C76	C	1.063288	0.485292	-0.199284
C77	C	0.483967	-0.030747	-0.687343
C78	C	0.983967	0.469253	-0.187343
C79	C	0.503521	-0.127736	-0.615018
C80	C	1.003521	0.372264	-0.115018
C81	C	0.582846	-0.111708	-0.626955
C82	C	1.082846	0.388292	-0.126955
C83	C	0.612722	-0.055193	-0.669088
C84	C	1.112722	0.444807	-0.169088
C85	C	0.632280	-0.152192	-0.596759
C86	C	1.132280	0.347808	-0.096759
C87	C	0.711598	-0.136162	-0.608693
C88	C	1.211598	0.363838	-0.108693
C89	C	0.741480	-0.079648	-0.650822
C90	C	1.241480	0.420352	-0.150822
C91	C	0.692040	-0.039163	-0.681022
C92	C	1.192040	0.460837	-0.181022
C93	C	0.602401	-0.208703	-0.554622
C94	C	1.102401	0.291297	-0.054622
C95	C	0.651836	-0.249187	-0.524426
C96	C	1.151836	0.250813	-0.024426
C97	C	0.731156	-0.233162	-0.536364
C98	C	1.231156	0.266838	-0.036364
C99	C	0.761038	-0.176647	-0.578493
C100	C	1.261038	0.323353	-0.078493
C101	C	0.780596	-0.273647	-0.506165
C102	C	1.280596	0.226353	-0.006165
C103	C	0.859914	-0.257617	-0.518098
C104	C	1.359914	0.242383	-0.018098
C105	C	0.840356	-0.160617	-0.590427
C106	C	1.340356	0.339383	-0.090427
C107	C	1.369662	-0.104279	-0.632499
C108	C	1.869662	0.395721	-0.132499
C109	C	1.454085	-0.087249	-0.645217
C110	C	1.954085	0.412751	-0.145217
C111	C	1.171586	-0.144182	-0.794603
C112	C	1.671586	0.355818	-0.294603
C113	C	1.171602	-0.144155	-0.876400
C114	C	1.671602	0.355845	-0.376400
C115	C	1.131618	0.053808	-0.557846
C116	C	1.631618	0.553808	-0.057846
C117	C	1.114601	0.138205	-0.538751
C118	C	1.614601	0.638205	-0.038751
C119	C	1.210397	-0.085742	-1.060918
C120	C	1.710397	0.414258	-0.560918
C121	C	1.210402	-0.085718	-1.137773
C122	C	1.710402	0.414282	-0.637773
C123	C	1.132836	-0.202440	-1.145101
C124	C	1.632836	0.297560	-0.645101
C125	C	1.132827	-0.202460	-1.068246
C126	C	1.632827	0.297540	-0.568246
C127	C	1.171612	-0.144112	-1.026157
C128	C	1.671612	0.355888	-0.526157
C129	C	1.171626	-0.144067	-1.179867
C130	C	1.671626	0.355933	-0.679867
C131	C	1.171630	-0.144042	-1.263197
C132	C	1.671630	0.355958	-0.763197
C133	C	1.171607	-0.144136	-0.942822
C134	C	1.671607	0.355864	-0.442822
C135	C	1.171548	-0.144241	-0.411448
C136	C	1.671548	0.355759	0.088552
C137	C	1.171636	-0.144024	-0.329625
C138	C	1.671636	0.355976	0.170375
H139	H	1.201152	-0.836533	-0.635789
H140	H	1.701152	-0.336533	-0.135789
H141	H	1.141882	-0.451158	-0.569420
H142	H	1.641882	0.048842	-0.069420
H143	H	0.806066	-0.066595	-0.660534
H144	H	1.306066	0.433405	-0.160534
C145	C	0.724909	0.023003	-0.727375
C146	C	1.224909	0.523003	-0.227375
N147	N	0.749667	0.069825	-0.762286
N148	N	1.249667	0.569825	-0.262286
C149	C	1.013476	-0.886484	-0.425412
C150	C	1.513476	-0.386484	0.074588
N151	N	0.979913	-0.927504	-0.387788
N152	N	1.479913	-0.427504	0.112212
C153	C	1.089264	-0.487216	-0.510441
C154	C	1.589264	0.012784	-0.010441
N155	N	1.075959	-0.421525	-0.495547
N156	N	1.575959	0.078475	0.004453
C157	C	0.618962	-0.311353	-0.478082
C158	C	1.118962	0.188647	0.021918
N159	N	0.594203	-0.358180	-0.443177
N160	N	1.094203	0.141820	0.056823
C161	C	1.090156	-0.266673	-1.030006
C162	C	1.590156	0.233327	-0.530006
N163	N	1.058015	-0.315034	-1.001203
N164	N	1.558015	0.184966	-0.501203
C165	C	1.253070	-0.021508	-1.176006
C166	C	1.753070	0.478492	-0.676006
N167	N	1.285210	0.026857	-1.204803
N168	N	1.785210	0.526857	-0.704803
H169	H	1.101261	-0.249947	-1.179380
H170	H	1.601261	0.250053	-0.679380
H171	H	1.020370	-0.599689	-0.433195
H172	H	1.520370	-0.099689	0.066805
H173	H	0.864683	-0.114600	-0.624739
H174	H	1.364683	0.385400	-0.124739
C175	C	1.363285	-0.567720	-0.817553
C176	C	1.863285	-0.067720	-0.317553
N177	N	1.410147	-0.592391	-0.870077
N178	N	1.910147	-0.092391	-0.370077
H179	H	0.443717	0.002228	-0.711931
H180	H	0.943717	0.502228	-0.211931
C181	C	1.253781	-0.800486	-0.694755
C182	C	1.753781	-0.300486	-0.194755
N183	N	1.267085	-0.866177	-0.709653
N184	N	1.767085	-0.366177	-0.209653
C185	C	0.470647	-0.189902	-0.568673
C186	C	0.970647	0.310098	-0.068673
N187	N	0.445887	-0.236728	-0.533769
N188	N	0.945887	0.263272	-0.033769
H189	H	0.900165	-0.290583	-0.493510
H190	H	1.400165	0.209417	0.006490
C191	C	1.253054	-0.021552	-1.014620
C192	C	1.753054	0.478448	-0.514620
N193	N	1.285181	0.026801	-0.979750
N194	N	1.785181	0.526801	-0.479750
H195	H	1.322667	-0.688001	-0.772019
H196	H	1.822667	-0.188001	-0.272019
C197	C	0.747719	-0.335807	-0.459814
C198	C	1.247719	0.164193	0.040186
N199	N	0.722957	-0.382627	-0.424903
N200	N	1.222957	0.117373	0.075097
H201	H	1.317985	-0.415371	-0.766807
H202	H	1.817985	0.084629	-0.266807
C203	C	0.979758	-0.719977	-0.387651
C204	C	1.479758	-0.219977	0.112349
N205	N	0.932894	-0.695302	-0.335130
N206	N	1.432894	-0.195302	0.164870
H207	H	0.587615	0.031309	-0.733596
H208	H	1.087615	0.531309	-0.233596
H209	H	0.537812	-0.221736	-0.544887
H210	H	1.037812	0.278264	-0.044887
