data_functionalizedCrystal
_audit_creation_method	'MofGen! by Chris Wilmer'
_symmetry_space_group_name_H-M	'P1'
_symmetry_Int_Tables_number	1
_symmetry_cell_setting	triclinic
loop_
_symmetry_equiv_pos_as_xyz
  x,y,z
_cell_length_a	18.215407
_cell_length_b	13.032721
_cell_length_c	18.215407
_cell_angle_alpha	82.830864
_cell_angle_beta	90.010236
_cell_angle_gamma	97.205008
loop_
_atom_site_label
_atom_site_type_symbol
_atom_site_fract_x
_atom_site_fract_y
_atom_site_fract_z
Zn1	Zn	1.087789	-0.416218	0.453336
Zn2	Zn	1.072097	-0.590939	0.345894
Zn3	Zn	0.964743	-0.416204	0.330282
Zn4	Zn	0.949067	-0.590929	0.468918
O5	O	1.018424	-0.503573	0.399608
O6	O	1.188691	-0.439405	0.439096
O7	O	1.057849	-0.567759	0.240839
O8	O	0.994194	-0.269961	0.333551
O9	O	1.177162	-0.567772	0.360159
O10	O	1.084595	-0.269971	0.423958
O11	O	0.978977	-0.439382	0.229369
O12	O	0.859681	-0.439372	0.348660
O13	O	0.967475	-0.567755	0.569835
O14	O	0.848163	-0.567741	0.450515
O15	O	1.069394	-0.439395	0.558387
O16	O	1.042648	-0.737183	0.375268
O17	O	0.952259	-0.737175	0.465654
C18	C	0.827219	-0.503555	0.399585
C19	C	0.745419	-0.503572	0.399595
C20	C	0.994070	-0.775098	0.423862
C21	C	0.983718	-0.891258	0.434263
C22	C	0.551238	-0.570519	0.452581
C23	C	0.474379	-0.570523	0.452591
C24	C	0.486361	-0.436645	0.346652
C25	C	0.563219	-0.436637	0.346646
C26	C	0.595655	-0.503580	0.399610
C27	C	0.441938	-0.503591	0.399625
C28	C	0.358604	-0.503594	0.399635
C29	C	0.678994	-0.503576	0.399601
C30	C	1.023866	-0.943015	0.394212
C31	C	1.013168	-1.063072	0.404961
C32	C	1.210375	-0.503591	0.399631
C33	C	1.292173	-0.503599	0.399641
C34	C	1.018436	-0.503575	0.591561
C35	C	1.018442	-0.503577	0.673360
C36	C	1.042893	-0.230987	0.375274
C37	C	1.053321	-0.114827	0.364905
C38	C	1.071495	-0.436751	0.855595
C39	C	1.071491	-0.436750	0.932453
C40	C	0.965363	-0.570418	0.944364
C41	C	0.965364	-0.570412	0.867506
C42	C	1.018435	-0.503580	0.823123
C43	C	1.018429	-0.503585	0.976840
C44	C	1.018424	-0.503585	1.060174
C45	C	1.018439	-0.503579	0.739784
C46	C	1.018410	-0.503592	1.208403
C47	C	1.018422	-0.503589	1.126604
H48	H	0.577645	-0.625026	0.495710
C49	C	0.956028	-1.123277	0.462037
N50	N	0.912990	-1.168624	0.505025
C51	C	0.906989	-0.643930	0.831786
N52	N	0.863020	-0.699299	0.804880
H53	H	1.095618	-1.070261	0.322659
C54	C	1.129868	-0.363224	0.806776
N55	N	1.173834	-0.307839	0.770007
H56	H	0.459942	-0.382144	0.303529
C57	C	1.081001	-0.882807	0.337137
N58	N	1.124035	-0.837459	0.294146
C59	C	0.612081	-0.362995	0.288371
N60	N	0.648883	-0.307529	0.244480
C61	C	0.926582	-0.951467	0.491336
N62	N	0.883544	-0.996814	0.534324
C63	C	0.906988	-0.643927	0.993191
N64	N	0.863018	-0.699295	1.029967
C65	C	1.129863	-0.363235	0.968168
N66	N	1.173832	-0.307860	0.995067
H67	H	0.438217	-0.625030	0.495726
