data_functionalizedCrystal
_audit_creation_method	'MofGen! by Chris Wilmer'
_symmetry_space_group_name_H-M	'P1'
_symmetry_Int_Tables_number	1
_symmetry_cell_setting	triclinic
loop_
_symmetry_equiv_pos_as_xyz
  x,y,z
_cell_length_a	18.760487
_cell_length_b	20.875641
_cell_length_c	20.875641
_cell_angle_alpha	60.089808
_cell_angle_beta	90.036576
_cell_angle_gamma	62.461161
loop_
_atom_site_label
_atom_site_type_symbol
_atom_site_fract_x
_atom_site_fract_y
_atom_site_fract_z
Zr1	Zr	0.719298	0.694374	-0.105387
O2	O	0.614840	0.820611	-0.208707
O3	O	0.747411	0.563120	-0.070441
O4	O	0.757909	0.687144	-0.203907
O5	O	0.600509	0.704040	0.026317
O6	O	0.875209	0.687148	-0.203845
O7	O	0.604343	0.696587	-0.075241
O8	O	0.856432	0.465293	0.034902
O9	O	0.619286	0.925896	-0.212431
O10	O	0.851664	0.618969	-0.059445
O11	O	0.761262	0.624528	0.016299
O12	O	0.773621	0.770550	-0.140840
O13	O	0.683219	0.776109	-0.065096
Zr14	Zr	0.900263	0.706268	0.056684
Zr15	Zr	0.906379	0.694381	-0.105288
Zr16	Zr	0.713182	0.706261	0.056585
Zr17	Zr	0.726389	0.862292	-0.111326
Zr18	Zr	0.893173	0.538351	0.062623
O19	O	0.872150	0.837523	0.021738
O20	O	0.880845	0.820621	-0.208565
O21	O	0.606145	0.837513	0.021596
O22	O	1.004721	0.580032	0.160004
O23	O	1.013416	0.563130	-0.070299
O24	O	0.738716	0.580022	0.159862
O25	O	1.019052	0.696603	-0.075020
O26	O	0.861652	0.713499	0.155204
O27	O	0.744352	0.713494	0.155142
O28	O	1.015218	0.704056	0.026537
O29	O	0.767991	0.925902	-0.212352
O30	O	0.851571	0.474741	0.163648
O31	O	1.000275	0.474747	0.163728
O32	O	1.005136	0.465298	0.034982
O33	O	0.614425	0.935345	-0.083685
O34	O	0.763129	0.935350	-0.083606
O35	O	0.845940	0.630093	0.092137
O36	O	0.936342	0.624534	0.016393
O37	O	0.858299	0.776115	-0.065003
O38	O	0.767898	0.781674	0.010742
C39	C	0.800911	0.490282	-0.016923
C40	C	0.797901	0.418996	-0.014402
C41	C	0.843673	0.382604	-0.052755
C42	C	0.840847	0.315620	-0.050379
C43	C	0.792243	0.285032	-0.009654
C44	C	0.746469	0.321427	0.028705
C45	C	0.749301	0.388406	0.026332
C46	C	0.778718	0.085021	0.001685
C47	C	0.775888	0.018038	0.004052
C48	C	0.870267	0.012234	-0.075031
C49	C	0.873090	0.079219	-0.077403
C50	C	0.827320	0.115604	-0.039041
N51	N	0.789350	0.216565	-0.007226
N52	N	0.830218	0.184066	-0.041465
C53	C	0.575771	0.700313	-0.024476
C54	C	0.496350	0.700310	-0.024519
C55	C	0.119785	0.779458	-0.066708
C56	C	0.201267	0.621205	0.018270
C57	C	0.275892	0.621199	0.018206
C58	C	0.272465	0.700323	-0.024318
C59	C	0.194415	0.779454	-0.066776
C60	C	0.353947	0.542069	0.060657
C61	C	0.428578	0.542059	0.060593
C62	C	0.425152	0.621185	0.018074
C63	C	0.347096	0.700319	-0.024386
C64	C	0.343669	0.779444	-0.066909
C65	C	0.265613	0.858580	-0.109364
C66	C	0.190989	0.858580	-0.109295
C67	C	0.499776	0.621185	0.018005
C68	C	0.418300	0.779440	-0.066977
C69	C	1.043790	0.700330	-0.024227
C70	C	1.123211	0.700333	-0.024185
C71	C	0.817430	0.685452	-0.226954
C72	C	0.820026	0.680406	-0.295715
C73	C	0.818650	0.910361	-0.031780
C74	C	0.821660	0.981647	-0.034301
C75	C	0.780510	0.757157	-0.370507
C76	C	0.782960	0.752410	-0.435112
C77	C	0.824923	0.670912	-0.424925
C78	C	0.864444	0.594155	-0.350125
C79	C	0.861998	0.598903	-0.285521
C80	C	0.836610	0.648228	-0.613585
C81	C	0.839051	0.643486	-0.678196
C82	C	0.757568	0.801742	-0.763179
C83	C	0.755122	0.806482	-0.698570
C84	C	0.794647	0.729726	-0.623776
N85	N	0.827426	0.666058	-0.490961
N86	N	0.792148	0.734580	-0.557742
C87	C	0.802131	0.715190	0.178251
C88	C	0.799535	0.720237	0.247012
C89	C	1.034921	0.490291	-0.016798
C90	C	1.111331	0.419008	-0.014235
C91	C	0.793262	0.505151	0.185679
C92	C	0.787655	0.438911	0.256961
C93	C	1.027271	0.505159	0.185804
C94	C	1.101086	0.438923	0.257128
C95	C	0.592290	0.895483	-0.234507
C96	C	0.518476	0.961719	-0.305832
C97	C	0.584640	0.910352	-0.031905
C98	C	0.508230	0.981635	-0.034468
C99	C	0.826299	0.895492	-0.234382
C100	C	0.831906	0.961731	-0.305665
C101	C	1.103014	0.382627	-0.052624
C102	C	1.174803	0.315658	-0.050231
C103	C	1.254910	0.285066	-0.009444
C104	C	1.263226	0.321454	0.028947
C105	C	1.191437	0.388426	0.026549
C106	C	0.829223	0.410711	0.330030
C107	C	0.823952	0.348482	0.397013
C108	C	0.777118	0.314450	0.390927
C109	C	0.735545	0.342657	0.317851
C110	C	0.740811	0.404889	0.250869
C111	C	1.182946	0.404916	0.251086
C112	C	1.252310	0.342689	0.318096
C113	C	1.239812	0.314466	0.391149
C114	C	1.157943	0.348479	0.397190
C115	C	1.088581	0.410710	0.330180
C116	C	0.436615	0.995735	-0.299789
C117	C	0.367252	1.057982	-0.366800
C118	C	0.379751	1.086209	-0.439854
C119	C	0.461619	1.052192	-0.445895
C120	C	0.530981	0.989950	-0.378884
C121	C	0.516548	1.018022	0.003914
C122	C	0.444760	1.085009	0.001503
C123	C	0.364654	1.115602	-0.039287
C124	C	0.356337	1.079212	-0.077675
C125	C	0.428125	1.012231	-0.075267
C126	C	0.878748	0.995743	-0.299553
C127	C	0.884032	1.057974	-0.366524
C128	C	0.842469	1.086195	-0.439606
C129	C	0.795625	1.052177	-0.445716
C130	C	0.790347	0.989943	-0.378745
H131	H	0.712026	0.418038	0.057562
F132	F	1.017765	0.415175	-0.096041
F133	F	0.751389	1.082227	-0.523501
H134	H	0.706899	0.296514	0.061868
F135	F	0.879076	0.446916	0.336525
H136	H	0.746334	0.823522	-0.378811
H137	H	1.193139	0.427886	0.191608
F138	F	0.696569	0.434892	0.173106
H139	H	0.581768	0.993118	0.037135
F140	F	0.423294	0.965703	-0.222047
F141	F	0.618102	0.953749	-0.385327
H142	H	1.318966	0.315001	0.313164
H143	H	0.894177	0.536404	-0.224622
F144	F	0.305921	1.152454	-0.511166
H145	H	0.300597	1.085669	-0.361867
H146	H	0.772836	0.263777	0.445474
F147	F	0.868206	0.318471	0.474778
F148	F	0.474908	1.082240	-0.523650
F149	F	1.313642	0.248233	0.462462
F150	F	0.107916	0.942794	-0.154475
F151	F	0.848093	1.152433	-0.510876
H152	H	1.328458	0.296536	0.062155
H153	H	1.147779	0.325490	0.456679
H154	H	1.168015	0.286039	-0.081493
H155	H	0.421340	0.982606	-0.106521
F156	F	0.715507	0.883425	-0.842781
F157	F	1.331307	0.213786	-0.006897
H158	H	0.291105	1.104132	-0.110885
F159	F	0.414644	0.863658	-0.112232
F160	F	0.453628	1.123724	0.042364
F161	F	1.200303	0.427134	0.067416
H162	H	0.750784	0.814909	-0.496009
H163	H	0.752200	0.962257	-0.383732
H164	H	0.912594	0.972775	-0.240053
H165	H	0.922175	1.085666	-0.361534
H166	H	0.883248	0.407507	-0.085922
F167	F	0.036715	0.863676	-0.111885
H168	H	0.907532	-0.017398	-0.106262
H169	H	0.736304	-0.006862	0.037215
F170	F	0.710428	0.893224	-0.709420
H171	H	0.697412	0.314940	0.312906
F172	F	1.001459	0.446892	0.336624
F173	F	0.288257	1.186890	-0.041842
F174	F	0.261977	0.942787	-0.154620
H175	H	0.492127	0.477623	0.095161
F176	F	0.204909	0.537000	0.063519
H177	H	0.878119	0.285989	-0.081609
H178	H	0.741452	0.114635	0.032925
F179	F	0.357587	0.457865	0.105906
F180	F	0.924817	0.111771	-0.120753
F181	F	0.883716	0.556740	-0.667348
H182	H	0.563325	0.556755	0.052578
H183	H	0.868795	0.585727	-0.552693
H184	H	0.898615	0.527797	-0.341835
