data_functionalizedCrystal
_audit_creation_method	'MofGen! by Chris Wilmer'
_symmetry_space_group_name_H-M	'P1'
_symmetry_Int_Tables_number	1
_symmetry_cell_setting	triclinic
loop_
_symmetry_equiv_pos_as_xyz
  x,y,z
_cell_length_a	19.121102
_cell_length_b	19.121725
_cell_length_c	19.120904
_cell_angle_alpha	94.952502
_cell_angle_beta	90.088173
_cell_angle_gamma	85.251956
loop_
_atom_site_label
_atom_site_type_symbol
_atom_site_fract_x
_atom_site_fract_y
_atom_site_fract_z
Zn1	Zn	1.068879	-0.344788	-0.457366
Zn2	Zn	1.568879	0.155212	0.042634
Zn3	Zn	1.078400	-0.457852	-0.345148
Zn4	Zn	1.578400	0.042148	0.154852
Zn5	Zn	0.956239	-0.334763	-0.334705
Zn6	Zn	1.456239	0.165237	0.165295
Zn7	Zn	0.956192	-0.457378	-0.457329
Zn8	Zn	1.456192	0.042622	0.042671
O9	O	1.014927	-0.398695	-0.398637
O10	O	1.514927	0.101305	0.101363
O11	O	1.168426	-0.364180	-0.446866
O12	O	1.668426	0.135820	0.053134
O13	O	1.066200	-0.437527	-0.245480
O14	O	1.566200	0.062473	0.254520
O15	O	0.967216	-0.237460	-0.346621
O16	O	1.467216	0.262540	0.153379
O17	O	1.175421	-0.447248	-0.364420
O18	O	1.675421	0.052752	0.135580
O19	O	1.049972	-0.244826	-0.436740
O20	O	1.549972	0.255174	0.063260
O21	O	0.976449	-0.347094	-0.237808
O22	O	1.476449	0.152906	0.262192
O23	O	0.857949	-0.346634	-0.346586
O24	O	1.357949	0.153366	0.153414
O25	O	0.967136	-0.446440	-0.555616
O26	O	1.467136	0.053560	-0.055616
O27	O	0.857914	-0.436719	-0.436677
O28	O	1.357914	0.063281	0.063323
O29	O	1.049926	-0.363721	-0.555644
O30	O	1.549926	0.136279	-0.055644
O31	O	1.066154	-0.556422	-0.364384
O32	O	1.566154	-0.056422	0.135616
O33	O	0.976368	-0.556074	-0.446803
O34	O	1.476368	-0.056074	0.053197
C35	C	0.832448	-0.390538	-0.390494
C36	C	1.332448	0.109462	0.109506
C37	C	0.754382	-0.387066	-0.387028
C38	C	1.254382	0.112934	0.112972
C39	C	0.717712	-0.432402	-0.432238
C40	C	1.217712	0.067598	0.067762
C41	C	0.644361	-0.429130	-0.428985
C42	C	1.144361	0.070870	0.071015
C43	C	0.607680	-0.380525	-0.380517
C44	C	1.107680	0.119475	0.119483
C45	C	0.644355	-0.335184	-0.335305
C46	C	1.144355	0.164816	0.164695
C47	C	0.717705	-0.338453	-0.338563
C48	C	1.217705	0.161547	0.161437
C49	C	0.386210	-0.368303	-0.368341
C50	C	0.886210	0.131697	0.131659
C51	C	0.312855	-0.365039	-0.365085
C52	C	0.812855	0.134961	0.134915
C53	C	0.312866	-0.458985	-0.458766
C54	C	0.812866	0.041015	0.041234
C55	C	0.386218	-0.462252	-0.462017
C56	C	0.886218	0.037748	0.037983
C57	C	0.422886	-0.416908	-0.416807
C58	C	0.922886	0.083092	0.083193
C59	C	0.532703	-0.377182	-0.377189
C60	C	1.032703	0.122818	0.122811
C61	C	0.497861	-0.420249	-0.420140
C62	C	0.997861	0.079751	0.079860
C63	C	1.022307	-0.581823	-0.406739
C64	C	1.522307	-0.081823	0.093261
C65	C	1.025528	-0.660170	-0.410231
C66	C	1.525528	-0.160170	0.089769
C67	C	0.983996	-0.693206	-0.364925
C68	C	1.483996	-0.193206	0.135075
C69	C	0.987029	-0.766822	-0.368210
C70	C	1.487029	-0.266822	0.131790
C71	C	1.031590	-0.807400	-0.416805
C72	C	1.531590	-0.307400	0.083195
C73	C	1.073126	-0.774359	-0.462113
C74	C	1.573126	-0.274359	0.037887
C75	C	1.070096	-0.700745	-0.458825
C76	C	1.570096	-0.200745	0.041175
C77	C	1.042895	-1.029856	-0.429080
C78	C	1.542895	-0.529856	0.070920
C79	C	1.045920	-1.103475	-0.432367
C80	C	1.545920	-0.603475	0.067633
C81	C	0.959823	-1.095933	-0.338462
C82	C	1.459823	-0.595933	0.161538
C83	C	0.956794	-1.022317	-0.335181
C84	C	1.456794	-0.522317	0.164819
C85	C	0.998333	-0.989283	-0.380487
C86	C	1.498333	-0.489283	0.119513
C87	C	1.034690	-0.882647	-0.420165
C88	C	1.534690	-0.382647	0.079835
C89	C	0.995237	-0.914037	-0.377122
C90	C	1.495237	-0.414037	0.122878
C91	C	1.198120	-0.406885	-0.406812
C92	C	1.698120	0.093115	0.093188
C93	C	1.276186	-0.410375	-0.410295
C94	C	1.776186	0.089625	0.089705
C95	C	1.007463	-0.406146	-0.581826
C96	C	1.507463	0.093854	-0.081826
C97	C	1.004283	-0.409321	-0.659890
C98	C	1.504283	0.090679	-0.159890
C99	C	1.007537	-0.214854	-0.390520
C100	C	1.507537	0.285146	0.109480
C101	C	1.004388	-0.136511	-0.387061
C102	C	1.504388	0.363489	0.112939
C103	C	1.045891	-0.367747	-0.696580
C104	C	1.545891	0.132253	-0.196580
C105	C	1.042893	-0.370728	-0.769929
C106	C	1.542893	0.129272	-0.269929
C107	C	0.998291	-0.415286	-0.806588
C108	C	1.498291	0.084714	-0.306588
C109	C	0.956679	-0.456861	-0.769892
C110	C	1.456679	0.043139	-0.269892
C111	C	0.959673	-0.453877	-0.696544
C112	C	1.459673	0.046123	-0.196544
C113	C	0.987091	-0.426448	-1.028050
C114	C	1.487091	0.073552	-0.528050
C115	C	0.984102	-0.429431	-1.101404
C116	C	1.484102	0.070569	-0.601404
C117	C	1.070316	-0.343296	-1.101436
C118	C	1.570316	0.156704	-0.601436
C119	C	1.073309	-0.340318	-1.028086
C120	C	1.573309	0.159682	-0.528086
C121	C	1.031694	-0.381891	-0.991397
C122	C	1.531694	0.118109	-0.491397
C123	C	0.995228	-0.418335	-0.881562
C124	C	1.495228	0.081665	-0.381562
C125	C	1.034754	-0.378838	-0.916424
C126	C	1.534754	0.121162	-0.416424
C127	C	1.022401	-0.391225	-0.216160
C128	C	1.522401	0.108775	0.283840
C129	C	1.025710	-0.387857	-0.138094
C130	C	1.525710	0.112143	0.361906
H131	H	0.527729	-0.459820	-0.459605
H132	H	1.027729	0.040180	0.040395
Br133	Br	0.263099	-0.520522	-0.520116
Br134	Br	0.763099	-0.020522	-0.020116
Br135	Br	0.482917	-0.311217	-0.311415
Br136	Br	0.982917	0.188783	0.188585
Br137	Br	1.133608	-0.829429	-0.528060
Br138	Br	1.633608	-0.329429	-0.028060
H139	H	0.947707	-0.660172	-0.325356
H140	H	1.447707	-0.160172	0.174644
Br141	Br	1.095273	-0.318358	-0.866672
Br142	Br	1.595273	0.181642	-0.366672
H143	H	0.920509	-0.989280	-0.295611
H144	H	1.420509	-0.489280	0.204389
H145	H	1.070970	-0.915694	-0.459733
H146	H	1.570970	-0.415694	0.040267
Br147	Br	0.435994	-0.528222	-0.527793
Br148	Br	0.935994	-0.028222	-0.027793
H149	H	0.747572	-0.471984	-0.471704
H150	H	1.247572	0.028016	0.028296
Br151	Br	1.126468	-0.655910	-0.520310
Br152	Br	1.626468	-0.155910	-0.020310
Br153	Br	0.767471	-0.276919	-0.277208
Br154	Br	1.267471	0.223081	0.222792
H155	H	1.109631	-0.304036	-0.998244
H156	H	1.609631	0.195964	-0.498244
Br157	Br	1.126789	-0.286878	-1.151231
Br158	Br	1.626789	0.213122	-0.651231
H159	H	0.282992	-0.325451	-0.325621
H160	H	0.782992	0.174549	0.174379
Br161	Br	0.930664	-0.811654	-0.306718
Br162	Br	1.430664	-0.311654	0.193282
H163	H	0.947779	-0.465717	-1.131249
H164	H	1.447779	0.034283	-0.631249
Br165	Br	1.106431	-0.307278	-0.646837
Br166	Br	1.606431	0.192722	-0.146837
Br167	Br	0.594597	-0.490659	-0.490346
Br168	Br	1.094597	0.009341	0.009654
H169	H	0.958958	-0.880996	-0.337554
H170	H	1.458958	-0.380996	0.162446
H171	H	0.926005	-1.122837	-0.301576
H172	H	1.426005	-0.622837	0.198424
Br173	Br	0.594575	-0.269213	-0.269533
Br174	Br	1.094575	0.230787	0.230467
H175	H	0.416057	-0.331386	-0.331523
H176	H	0.916057	0.168614	0.168477
Br177	Br	1.106405	-1.158547	-0.498317
Br178	Br	1.606405	-0.658547	0.001683
H179	H	1.076716	-1.002966	-0.465972
H180	H	1.576716	-0.502966	0.034028
Br181	Br	0.930612	-0.482867	-0.978267
Br182	Br	1.430612	0.017133	-0.478267
H183	H	1.076777	-0.336875	-0.799799
H184	H	1.576777	0.163125	-0.299799
Br185	Br	0.896142	-0.517330	-0.819641
Br186	Br	1.396142	-0.017330	-0.319641
Br187	Br	0.903198	-0.510296	-0.646749
Br188	Br	1.403198	-0.010296	-0.146749
H189	H	0.958916	-0.454618	-0.911418
H190	H	1.458916	0.045382	-0.411418
