data_functionalizedCrystal
_audit_creation_method	'MofGen! by Chris Wilmer'
_symmetry_space_group_name_H-M	'P1'
_symmetry_Int_Tables_number	1
_symmetry_cell_setting	triclinic
loop_
_symmetry_equiv_pos_as_xyz
  x,y,z
_cell_length_a	19.077105
_cell_length_b	18.050589
_cell_length_c	19.076919
_cell_angle_alpha	92.275255
_cell_angle_beta	90.076224
_cell_angle_gamma	87.724731
loop_
_atom_site_label
_atom_site_type_symbol
_atom_site_fract_x
_atom_site_fract_y
_atom_site_fract_z
Zn1	Zn	1.058247	-0.359281	-0.440438
Zn2	Zn	1.391580	-0.025948	-0.107105
Zn3	Zn	1.724914	0.307386	0.226228
Zn4	Zn	1.062879	-0.478689	-0.322938
Zn5	Zn	1.396213	-0.145356	0.010395
Zn6	Zn	1.729546	0.187977	0.343728
Zn7	Zn	0.945466	-0.349333	-0.318231
Zn8	Zn	1.278799	-0.015999	0.015102
Zn9	Zn	1.612132	0.317334	0.348435
Zn10	Zn	0.940701	-0.478241	-0.435691
Zn11	Zn	1.274034	-0.144908	-0.102358
Zn12	Zn	1.607368	0.188425	0.230976
O13	O	1.001823	-0.416386	-0.379325
O14	O	1.335157	-0.083053	-0.045991
O15	O	1.668490	0.250281	0.287342
O16	O	1.157193	-0.379472	-0.428809
O17	O	1.490526	-0.046139	-0.095475
O18	O	1.823860	0.287195	0.237858
O19	O	1.051237	-0.457554	-0.223983
O20	O	1.384570	-0.124220	0.109351
O21	O	1.717903	0.209113	0.442684
O22	O	0.960482	-0.246731	-0.334459
O23	O	1.293815	0.086603	-0.001126
O24	O	1.627148	0.419936	0.332208
O25	O	1.160596	-0.467201	-0.342482
O26	O	1.493930	-0.133867	-0.009149
O27	O	1.827263	0.199466	0.324185
O28	O	1.043342	-0.254040	-0.424244
O29	O	1.376675	0.079293	-0.090911
O30	O	1.710008	0.412627	0.242422
O31	O	0.964973	-0.362516	-0.220524
O32	O	1.298307	-0.029183	0.112809
O33	O	1.631640	0.304151	0.446143
O34	O	0.846502	-0.362082	-0.329856
O35	O	1.179835	-0.028748	0.003478
O36	O	1.513169	0.304585	0.336811
O37	O	0.952361	-0.466437	-0.534652
O38	O	1.285695	-0.133104	-0.201319
O39	O	1.619028	0.200229	0.132014
O40	O	0.843002	-0.456790	-0.416153
O41	O	1.176335	-0.123457	-0.082820
O42	O	1.509668	0.209876	0.250514
O43	O	1.038722	-0.379038	-0.538140
O44	O	1.372055	-0.045704	-0.204807
O45	O	1.705388	0.287629	0.128526
O46	O	1.046617	-0.582551	-0.337879
O47	O	1.379950	-0.249218	-0.004545
O48	O	1.713283	0.084115	0.328788
O49	O	0.956853	-0.582222	-0.420717
O50	O	1.290186	-0.248889	-0.087384
O51	O	1.623520	0.084444	0.245949
C52	C	0.819256	-0.408308	-0.371979
C53	C	1.152589	-0.074975	-0.038645
C54	C	1.485922	0.258358	0.294688
C55	C	0.741152	-0.404871	-0.368853
C56	C	1.074485	-0.071538	-0.035519
C57	C	1.407818	0.261795	0.297814
C58	C	0.702657	-0.452635	-0.412244
C59	C	1.035990	-0.119302	-0.078911
C60	C	1.369324	0.214032	0.254423
C61	C	0.629270	-0.449396	-0.409310
C62	C	0.962603	-0.116063	-0.075977
C63	C	1.295937	0.217271	0.257357
C64	C	0.594379	-0.398396	-0.362981
C65	C	0.927712	-0.065063	-0.029648
C66	C	1.261046	0.268271	0.303685
C67	C	0.632879	-0.350627	-0.319588
C68	C	0.966212	-0.017294	0.013745
C69	C	1.299545	0.316040	0.347078
C70	C	0.706264	-0.353863	-0.322526
C71	C	1.039598	-0.020530	0.010807
C72	C	1.372931	0.312803	0.344141
C73	C	0.375093	-0.383419	-0.349388
C74	C	0.708426	-0.050086	-0.016054
C75	C	1.041759	0.283248	0.317279
C76	C	0.301702	-0.380188	-0.346452
C77	C	0.635035	-0.046855	-0.013118
C78	C	0.968368	0.286479	0.320215
C79	C	0.298098	-0.478956	-0.436175
C80	C	0.631431	-0.145623	-0.102841
C81	C	0.964765	0.187710	0.230492
C82	C	0.371485	-0.482191	-0.439105
C83	C	0.704818	-0.148858	-0.105772
C84	C	1.038152	0.184476	0.227561
C85	C	0.409979	-0.434419	-0.395715
C86	C	0.743312	-0.101086	-0.062382
C87	C	1.076645	0.232247	0.270951
N88	N	0.519366	-0.395085	-0.359980
N89	N	0.852699	-0.061752	-0.026646
N90	N	1.186032	0.271581	0.306687
N91	N	0.484990	-0.437727	-0.398721
N92	N	0.818324	-0.104394	-0.065387
N93	N	1.151657	0.228940	0.267946
C94	C	1.001739	-0.609334	-0.379310
C95	C	1.335072	-0.276001	-0.045976
C96	C	1.668406	0.057333	0.287357
C97	C	1.001766	-0.691882	-0.379329
C98	C	1.335100	-0.358548	-0.045996
C99	C	1.668433	-0.025215	0.287337
C100	C	0.952999	-0.891182	-0.424363
C101	C	1.286333	-0.557848	-0.091029
C102	C	1.619666	-0.224515	0.242304
C103	C	0.938449	-0.937256	-0.359556
C104	C	1.271783	-0.603922	-0.026222
C105	C	1.605116	-0.270589	0.307111
C106	C	1.001835	-0.843016	-0.379341
C107	C	1.335168	-0.509682	-0.046008
C108	C	1.668502	-0.176349	0.287325
C109	C	1.016419	-0.944025	-0.444157
C110	C	1.349752	-0.610692	-0.110824
C111	C	1.683086	-0.277358	0.222510
C112	C	1.001900	-0.989004	-0.379358
C113	C	1.335233	-0.655671	-0.046025
C114	C	1.668566	-0.322337	0.287308
C115	C	0.987253	-0.887999	-0.314499
C116	C	1.320586	-0.554666	0.018834
C117	C	1.653919	-0.221333	0.352168
C118	C	1.065250	-0.894768	-0.399145
C119	C	1.398584	-0.561434	-0.065811
C120	C	1.731917	-0.228101	0.267522
C121	C	1.050726	-0.940818	-0.334295
C122	C	1.384060	-0.607485	-0.000961
C123	C	1.717393	-0.274152	0.332372
C124	C	1.001796	-0.758915	-0.379332
C125	C	1.335129	-0.425582	-0.045999
C126	C	1.668462	-0.092249	0.287334
C127	C	1.001939	-1.073102	-0.379360
C128	C	1.335272	-0.739769	-0.046027
C129	C	1.668606	-0.406436	0.287306
C130	C	1.185104	-0.424496	-0.386700
C131	C	1.518437	-0.091163	-0.053367
C132	C	1.851771	0.242171	0.279967
C133	C	1.263207	-0.427952	-0.389843
C134	C	1.596540	-0.094618	-0.056509
C135	C	1.929874	0.238715	0.276824
C136	C	0.994493	-0.423797	-0.562605
C137	C	1.327827	-0.090464	-0.229272
C138	C	1.661160	0.242869	0.104061
C139	C	0.991370	-0.426955	-0.640709
C140	C	1.324703	-0.093622	-0.307375
C141	C	1.658036	0.239711	0.025958
C142	C	1.001926	-0.222686	-0.379356
C143	C	1.335260	0.110647	-0.046023
C144	C	1.668593	0.443980	0.287311
C145	C	1.001970	-0.140143	-0.379369
C146	C	1.335304	0.193191	-0.046036
C147	C	1.668637	0.526524	0.287297
C148	C	1.034863	-0.382937	-0.679219
C149	C	1.368197	-0.049603	-0.345885
C150	C	1.701530	0.283730	-0.012552
C151	C	1.031920	-0.385901	-0.752605
C152	C	1.365253	-0.052568	-0.419271
C153	C	1.698587	0.280766	-0.085938
C154	C	0.985486	-0.432888	-0.787479
C155	C	1.318819	-0.099555	-0.454146
C156	C	1.652153	0.233778	-0.120813
C157	C	0.941988	-0.476908	-0.748964
C158	C	1.275321	-0.143575	-0.415631
C159	C	1.608654	0.189758	-0.082297
C160	C	0.944928	-0.473940	-0.675579
C161	C	1.278261	-0.140606	-0.342246
C162	C	1.611595	0.192727	-0.008913
C163	C	0.971867	-0.446642	-1.006761
C164	C	1.305200	-0.113309	-0.673428
C165	C	1.638534	0.220024	-0.340095
C166	C	0.968931	-0.449609	-1.080151
C167	C	1.302265	-0.116276	-0.746818
C168	C	1.635598	0.217057	-0.413485
C169	C	1.058863	-0.358601	-1.083787
C170	C	1.392196	-0.025267	-0.750454
C171	C	1.725530	0.308066	-0.417120
C172	C	1.061802	-0.355639	-1.010401
C173	C	1.395136	-0.022306	-0.677067
C174	C	1.728469	0.311027	-0.343734
C175	C	1.018301	-0.399657	-0.971892
C176	C	1.351635	-0.066323	-0.638558
C177	C	1.684968	0.267010	-0.305225
N178	N	0.982478	-0.435921	-0.862492
N179	N	1.315811	-0.102588	-0.529158
N180	N	1.649144	0.230746	-0.195825
N181	N	1.021307	-0.396619	-0.896881
N182	N	1.354640	-0.063286	-0.563547
N183	N	1.687973	0.270047	-0.230214
C184	C	1.009165	-0.408952	-0.196759
C185	C	1.342498	-0.075619	0.136574
C186	C	1.675832	0.257715	0.469908
C187	C	1.012425	-0.405591	-0.118661
C188	C	1.345758	-0.072257	0.214672
C189	C	1.679092	0.261076	0.548005
H190	H	0.273296	-0.338649	-0.308729
H191	H	0.606629	-0.005316	0.024604
H192	H	0.939962	0.328017	0.357937
H193	H	0.406425	-0.344525	-0.314051
H194	H	0.739759	-0.011192	0.019282
H195	H	1.073092	0.322141	0.352616
Br196	Br	0.878965	-0.540673	-0.796293
Br197	Br	1.212298	-0.207339	-0.462960
Br198	Br	1.545631	0.125994	-0.129626
H199	H	0.731060	-0.494167	-0.449968
H200	H	1.064393	-0.160834	-0.116634
H201	H	1.397726	0.172500	0.216699
H202	H	1.028729	-0.968523	-0.498964
H203	H	1.362062	-0.635190	-0.165631
H204	H	1.695396	-0.301856	0.167703
H205	H	1.092055	-0.962470	-0.296183
H206	H	1.425388	-0.629137	0.037150
H207	H	1.758721	-0.295804	0.370483
H208	H	0.604465	-0.309099	-0.281869
H209	H	0.937798	0.024234	0.051464
H210	H	1.271131	0.357568	0.384797
Br211	Br	1.154563	-0.863441	-0.427087
Br212	Br	1.487897	-0.530108	-0.093754
Br213	Br	1.821230	-0.196775	0.239579
Br214	Br	0.758508	-0.289034	-0.263640
Br215	Br	1.091842	0.044299	0.069694
Br216	Br	1.425175	0.377632	0.403027
Br217	Br	1.090982	-0.326195	-0.804867
Br218	Br	1.424316	0.007139	-0.471534
Br219	Br	1.757649	0.340472	-0.138201
H220	H	0.911645	-0.869387	-0.462377
H221	H	1.244978	-0.536054	-0.129044
H222	H	1.578311	-0.202721	0.204290
Br223	Br	0.849112	-0.968552	-0.331640
Br224	Br	1.182446	-0.635219	0.001694
Br225	Br	1.515779	-0.301885	0.335027
Br226	Br	0.966635	-0.847318	-0.223119
Br227	Br	1.299969	-0.513985	0.110214
Br228	Br	1.633302	-0.180651	0.443548
Br229	Br	1.097890	-0.319171	-0.631896
Br230	Br	1.431223	0.014162	-0.298563
Br231	Br	1.764556	0.347495	0.034770
Br232	Br	1.124825	-0.291871	-0.963076
Br233	Br	1.458158	0.041462	-0.629743
Br234	Br	1.791491	0.374795	-0.296409
Br235	Br	1.117895	-0.298865	-1.136053
Br236	Br	1.451229	0.034469	-0.802719
Br237	Br	1.784562	0.367802	-0.469386
H238	H	0.931117	-0.487874	-1.108544
H239	H	1.264450	-0.154540	-0.775211
H240	H	1.597784	0.178793	-0.441877
H241	H	0.909504	-0.509777	-0.644225
H242	H	1.242837	-0.176443	-0.310891
H243	H	1.576170	0.156890	0.022442
Br244	Br	0.912828	-0.506379	-0.954508
Br245	Br	1.246162	-0.173046	-0.621175
Br246	Br	1.579495	0.160288	-0.287841
H247	H	0.399888	-0.523722	-0.476830
H248	H	0.733222	-0.190389	-0.143497
H249	H	1.066555	0.142945	0.189837
Br250	Br	0.577029	-0.514219	-0.468203
Br251	Br	0.910363	-0.180886	-0.134869
Br252	Br	1.243696	0.152447	0.198464
H253	H	0.266749	-0.517848	-0.471502
H254	H	0.600082	-0.184515	-0.138168
H255	H	0.933415	0.148819	0.195165
