data_functionalizedCrystal
_audit_creation_method	'MofGen! by Chris Wilmer'
_symmetry_space_group_name_H-M	'P1'
_symmetry_Int_Tables_number	1
_symmetry_cell_setting	triclinic
loop_
_symmetry_equiv_pos_as_xyz
  x,y,z
_cell_length_a	14.853567
_cell_length_b	19.188930
_cell_length_c	13.330367
_cell_angle_alpha	89.990231
_cell_angle_beta	89.995418
_cell_angle_gamma	83.389856
loop_
_atom_site_label
_atom_site_type_symbol
_atom_site_fract_x
_atom_site_fract_y
_atom_site_fract_z
O1	O	1.195862	0.091155	-0.083366
O2	O	1.695862	0.591155	0.416634
O3	O	0.933342	0.102014	-0.083385
O4	O	1.433342	0.602014	0.416615
O5	O	1.072178	-0.005046	-0.083355
O6	O	1.572178	0.494954	0.416645
O7	O	1.057026	0.198215	-0.083395
O8	O	1.557026	0.698215	0.416605
O9	O	1.072158	-0.005048	0.083492
O10	O	1.572158	0.494952	0.583492
O11	O	0.933322	0.102011	0.083462
O12	O	1.433322	0.602011	0.583462
O13	O	1.195842	0.091153	0.083481
O14	O	1.695842	0.591153	0.583481
Cu15	Cu	1.064580	0.096582	0.098706
Cu16	Cu	1.564580	0.596582	0.598706
Cu17	Cu	1.064604	0.096585	-0.098610
Cu18	Cu	1.564604	0.596585	0.401390
O19	O	1.057006	0.198212	0.083452
O20	O	1.557006	0.698212	0.583452
C21	C	0.899746	0.101521	0.000037
C22	C	1.399746	0.601521	0.500037
C23	C	0.799671	0.100046	0.000031
C24	C	1.299671	0.600046	0.500031
C25	C	1.071677	-0.031060	0.000071
C26	C	1.571677	0.468940	0.500071
C27	C	1.070204	-0.108569	0.000080
C28	C	1.570204	0.391431	0.500080
C29	C	0.387525	0.030218	0.000067
C30	C	0.887525	0.530218	0.500067
C31	C	0.365537	0.157407	0.000041
C32	C	0.865537	0.657407	0.500041
C33	C	0.459563	0.158794	0.000037
C34	C	0.959563	0.658794	0.500037
C35	C	0.517574	0.095891	0.000047
C36	C	1.017574	0.595891	0.500047
C37	C	0.481560	0.031602	0.000060
C38	C	0.981560	0.531602	0.500060
C39	C	0.495585	0.223081	0.000014
C40	C	0.995585	0.723081	0.500014
C41	C	0.589616	0.224470	0.000009
C42	C	1.089616	0.724470	0.500009
C43	C	0.647629	0.161567	0.000026
C44	C	1.147629	0.661567	0.500026
C45	C	0.611610	0.097276	0.000041
C46	C	1.111610	0.597276	0.500041
C47	C	0.669621	0.034373	0.000050
C48	C	1.169621	0.534373	0.500050
C49	C	0.633603	-0.029919	0.000072
C50	C	1.133603	0.470081	0.500072
C51	C	0.539574	-0.031301	0.000077
C52	C	1.039574	0.468699	0.500077
C53	C	0.741659	0.162949	0.000021
C54	C	1.241659	0.662949	0.500021
C55	C	0.763656	0.035757	0.000044
C56	C	1.263656	0.535757	0.500044
C57	C	1.151668	-0.153221	0.000090
C58	C	1.651668	0.346779	0.500090
C59	C	1.150285	-0.226050	0.000074
C60	C	1.650285	0.273950	0.500074
C61	C	1.067432	-0.254223	0.000068
C62	C	1.567432	0.245777	0.500068
C63	C	0.985957	-0.209561	0.000051
C64	C	1.485957	0.290439	0.500051
C65	C	0.987343	-0.136734	0.000057
C66	C	1.487343	0.363266	0.500057
N67	N	1.004094	-0.362440	0.056844
N68	N	1.504094	0.137560	0.556844
N69	N	1.002783	-0.431623	0.056841
N70	N	1.502783	0.068377	0.556841
C71	C	1.063251	-0.473645	0.000047
C72	C	1.563251	0.026355	0.500047
N73	N	1.125093	-0.443873	-0.056730
N74	N	1.625093	0.056127	0.443270
N75	N	1.126407	-0.374684	-0.056722
N76	N	1.626407	0.125316	0.443278
C77	C	1.065920	-0.333190	0.000060
C78	C	1.565920	0.166810	0.500060
C79	C	1.143220	-0.597267	0.000039
C80	C	1.643220	-0.097267	0.500039
C81	C	1.141833	-0.670096	0.000016
C82	C	1.641833	-0.170096	0.500016
C83	C	0.977503	-0.653606	0.000003
C84	C	1.477503	-0.153606	0.500003
C85	C	0.978893	-0.580778	0.000016
C86	C	1.478893	-0.080778	0.500016
C87	C	1.061754	-0.552613	0.000038
C88	C	1.561754	-0.052613	0.500038
C89	C	1.229438	0.091646	0.000057
C90	C	1.729438	0.591646	0.500057
C91	C	1.329513	0.093120	0.000057
C92	C	1.829513	0.593120	0.500057
C93	C	1.057507	0.224226	0.000023
C94	C	1.557507	0.724226	0.500023
C95	C	1.058980	0.301736	0.000008
C96	C	1.558980	0.801736	0.500008
N97	N	1.064570	0.096579	0.237488
N98	N	1.564570	0.596579	0.737488
N99	N	1.064621	0.096582	-0.237391
N100	N	1.564621	0.596582	0.262609
C101	C	1.003125	0.143972	0.710098
C102	C	1.503125	0.643972	1.210098
C103	C	1.126107	0.049192	0.710092
C104	C	1.626107	0.549192	1.210092
C105	C	1.126097	0.049190	0.605073
C106	C	1.626097	0.549190	1.105073
C107	C	1.064601	0.096580	0.552562
C108	C	1.564601	0.596580	1.052562
C109	C	1.003115	0.143973	0.605070
C110	C	1.503115	0.643973	1.105070
C111	C	1.187588	0.001803	0.552558
C112	C	1.687588	0.501803	1.052558
C113	C	1.187581	0.001799	0.447533
C114	C	1.687581	0.501799	0.947533
C115	C	1.126080	0.049187	0.395020
C116	C	1.626080	0.549187	0.895020
C117	C	1.064590	0.096581	0.447534
C118	C	1.564590	0.596581	0.947534
C119	C	1.003094	0.143971	0.395023
C120	C	1.503094	0.643971	0.895023
C121	C	0.941600	0.191363	0.447535
C122	C	1.441600	0.691363	0.947535
C123	C	0.941613	0.191361	0.552557
C124	C	1.441613	0.691361	1.052557
C125	C	1.126066	0.049189	0.289999
C126	C	1.626066	0.549189	0.789999
C127	C	1.003084	0.143972	0.289995
C128	C	1.503084	0.643972	0.789995
H129	H	0.810884	-0.015466	0.000056
H130	H	1.310884	0.484534	0.500056
H131	H	0.953055	0.182556	0.752855
H132	H	1.453055	0.682556	1.252855
H133	H	0.680849	-0.081134	0.000073
H134	H	1.180849	0.418866	0.500073
C135	C	1.193749	-0.002934	0.767857
C136	C	1.693749	0.497066	1.267857
N137	N	1.244698	-0.042200	0.811371
N138	N	1.744698	0.457800	1.311371
C139	C	0.886364	-0.684591	-0.000007
C140	C	1.386364	-0.184591	0.499993
N141	N	0.817715	-0.707933	-0.000018
N142	N	1.317715	-0.207933	0.499982
H143	H	1.237661	-0.036778	0.595316
H144	H	1.737661	0.463222	1.095316
C145	C	0.894819	-0.240552	0.000051
C146	C	1.394819	0.259448	0.500051
N147	N	0.826171	-0.263895	0.000051
N148	N	1.326171	0.236105	0.500051
C149	C	1.255218	-0.050337	0.389780
C150	C	1.755218	0.449663	0.889780
N151	N	1.306160	-0.089609	0.346279
N152	N	1.806160	0.410391	0.846279
H153	H	0.921003	-0.100377	0.000049
H154	H	1.421003	0.399623	0.500049
H155	H	1.176138	0.010607	0.247248
H156	H	1.676138	0.510607	0.747248
H157	H	0.618933	0.276821	-0.000009
H158	H	1.118933	0.776821	0.499991
H159	H	0.891548	0.229945	0.595318
H160	H	1.391548	0.729945	1.095318
H161	H	0.318299	0.208620	0.000024
H162	H	0.818299	0.708620	0.500024
C163	C	1.242818	-0.122245	0.000106
C164	C	1.742818	0.377755	0.500106
N165	N	1.311473	-0.098912	0.000116
N166	N	1.811473	0.401088	0.500116
H167	H	1.210691	-0.574334	0.000052
H168	H	1.710691	-0.074334	0.500052
H169	H	1.208174	-0.706452	0.000019
H170	H	1.708174	-0.206452	0.500019
C171	C	0.889274	-0.531658	0.000010
C172	C	1.389274	-0.031658	0.500010
N173	N	0.821769	-0.494661	0.000001
N174	N	1.321769	0.005339	0.500001
C175	C	0.873957	0.243491	0.389759
C176	C	1.373957	0.743491	0.889759
N177	N	0.823009	0.282753	0.346238
N178	N	1.323009	0.782753	0.846238
C179	C	0.499946	-0.102016	0.000093
C180	C	0.999946	0.397984	0.500093
N181	N	0.470095	-0.155278	0.000101
N182	N	0.970095	0.344722	0.500101
C183	C	0.431767	0.292269	0.000004
C184	C	0.931767	0.792269	0.500004
N185	N	0.383695	0.344384	0.000001
N186	N	0.883695	0.844384	0.500001
C187	C	1.239905	-0.275176	0.000092
C188	C	1.739905	0.224824	0.500092
N189	N	1.307408	-0.312176	0.000109
N190	N	1.807408	0.187824	0.500109
C191	C	0.935454	0.196124	0.232241
C192	C	1.435454	0.696124	0.732241
N193	N	0.884525	0.235413	0.188742
N194	N	1.384525	0.735413	0.688742
H195	H	0.358195	-0.022127	0.000088
H196	H	0.858195	0.477873	0.500088
H197	H	0.770981	0.215294	0.000005
H198	H	1.270981	0.715294	0.500005
