data_functionalizedCrystal
_audit_creation_method	'MofGen! by Chris Wilmer'
_symmetry_space_group_name_H-M	'P1'
_symmetry_Int_Tables_number	1
_symmetry_cell_setting	triclinic
loop_
_symmetry_equiv_pos_as_xyz
  x,y,z
_cell_length_a	13.032721
_cell_length_b	13.033299
_cell_length_c	13.033109
_cell_angle_alpha	89.116825
_cell_angle_beta	105.143326
_cell_angle_gamma	90.864526
loop_
_atom_site_label
_atom_site_type_symbol
_atom_site_fract_x
_atom_site_fract_y
_atom_site_fract_z
Zn1	Zn	-0.676068	-1.572144	-0.476638
Zn2	Zn	-0.342735	-1.238811	-0.143305
Zn3	Zn	-0.009402	-0.905477	0.190028
Zn4	Zn	-0.826826	-1.533740	-0.325920
Zn5	Zn	-0.493493	-1.200407	0.007414
Zn6	Zn	-0.160159	-0.867074	0.340747
Zn7	Zn	-0.632282	-1.383126	-0.320404
Zn8	Zn	-0.298948	-1.049792	0.012930
Zn9	Zn	0.034385	-0.716459	0.346263
Zn10	Zn	-0.832346	-1.383091	-0.520483
Zn11	Zn	-0.499012	-1.049757	-0.187150
Zn12	Zn	-0.165679	-0.716424	0.146183
O13	O	-0.741880	-1.468025	-0.410861
O14	O	-0.408547	-1.134692	-0.077528
O15	O	-0.075214	-0.801359	0.255805
O16	O	-0.712081	-1.709202	-0.440604
O17	O	-0.378748	-1.375868	-0.107271
O18	O	-0.045415	-1.042535	0.226062
O19	O	-0.780385	-1.497704	-0.178378
O20	O	-0.447051	-1.164370	0.154956
O21	O	-0.113718	-0.831037	0.488289
O22	O	-0.491270	-1.424286	-0.320471
O23	O	-0.157937	-1.090953	0.012863
O24	O	0.175397	-0.757619	0.346196
O25	O	-0.822842	-1.680987	-0.329872
O26	O	-0.489509	-1.347654	0.003461
O27	O	-0.156176	-1.014320	0.336795
O28	O	-0.523440	-1.563157	-0.435256
O29	O	-0.190106	-1.229823	-0.101922
O30	O	0.143227	-0.896490	0.231411
O31	O	-0.637454	-1.387048	-0.174325
O32	O	-0.304120	-1.053714	0.159008
O33	O	0.029213	-0.720381	0.492342
O34	O	-0.642806	-1.240969	-0.362985
O35	O	-0.309473	-0.907635	-0.029652
O36	O	0.023861	-0.574302	0.303681
O37	O	-0.832250	-1.424226	-0.661477
O38	O	-0.498917	-1.090893	-0.328144
O39	O	-0.165583	-0.757560	0.005189
O40	O	-0.789792	-1.240943	-0.509983
O41	O	-0.456459	-0.907610	-0.176650
O42	O	-0.123125	-0.574276	0.156684
O43	O	-0.717433	-1.563123	-0.629265
O44	O	-0.384100	-1.229790	-0.295931
O45	O	-0.050767	-0.896456	0.037402
O46	O	-0.974378	-1.497670	-0.372387
O47	O	-0.641045	-1.164337	-0.039053
O48	O	-0.307712	-0.831003	0.294280
O49	O	-0.978434	-1.386988	-0.515332
O50	O	-0.645100	-1.053655	-0.181998
O51	O	-0.311767	-0.720322	0.151335
C52	C	-0.712147	-1.204097	-0.440644
C53	C	-0.378814	-0.870764	-0.107311
C54	C	-0.045481	-0.537431	0.226023
C55	C	-0.699456	-1.091188	-0.453414
C56	C	-0.366123	-0.757855	-0.120080
C57	C	-0.032790	-0.424521	0.213253
C58	C	-0.748488	-1.026889	-0.404206
C59	C	-0.415154	-0.693556	-0.070873
C60	C	-0.081821	-0.360223	0.262461
C61	C	-0.735372	-0.910191	-0.417403
C62	C	-0.402039	-0.576858	-0.084070
C63	C	-0.068705	-0.243525	0.249264
C64	C	-1.014481	-1.438188	-0.449235
C65	C	-0.681148	-1.104855	-0.115902
C66	C	-0.347814	-0.771521	0.217431
C67	C	-1.131116	-1.425520	-0.465676
C68	C	-0.797783	-1.092187	-0.132343
C69	C	-0.464450	-0.758854	0.200990
C70	C	-1.181088	-1.474696	-0.402322
C71	C	-0.847754	-1.141362	-0.068988
C72	C	-0.514421	-0.808029	0.264345
C73	C	-1.301636	-1.461604	-0.419313
C74	C	-0.968303	-1.128271	-0.085979
C75	C	-0.634969	-0.794938	0.247354
C76	C	-0.468222	-1.498009	-0.372357
C77	C	-0.134888	-1.164676	-0.039024
C78	C	0.198445	-0.831342	0.294310
C79	C	-0.351605	-1.510786	-0.355949
C80	C	-0.018271	-1.177453	-0.022616
C81	C	0.315062	-0.844120	0.310718
C82	C	-0.780342	-1.497955	-0.684502
C83	C	-0.447008	-1.164621	-0.351168
C84	C	-0.113675	-0.831288	-0.017835
C85	C	-0.796732	-1.510709	-0.801111
C86	C	-0.463398	-1.177375	-0.467778
C87	C	-0.130065	-0.844042	-0.134444
C88	C	-0.771720	-0.732984	-0.380954
C89	C	-0.438387	-0.399650	-0.047621
C90	C	-0.105054	-0.066317	0.285712
C91	C	-0.784410	-0.845894	-0.368188
C92	C	-0.451077	-0.512560	-0.034855
C93	C	-0.117744	-0.179227	0.298478
C94	C	-0.733319	-1.461644	-0.851094
C95	C	-0.399986	-1.128311	-0.517760
C96	C	-0.066653	-0.794978	-0.184427
C97	C	-0.750257	-1.474825	-0.971616
C98	C	-0.416924	-1.141492	-0.638282
C99	C	-0.083591	-0.808158	-0.304949
C100	C	-0.703500	-1.438279	-0.138268
C101	C	-0.370166	-1.104946	0.195065
C102	C	-0.036833	-0.771612	0.528399
C103	C	-0.686836	-1.425754	-0.021596
C104	C	-0.353503	-1.092421	0.311738
C105	C	-0.020170	-0.759087	0.645071
H106	H	-0.647773	-1.059841	-0.505316
H107	H	-0.314439	-0.726508	-0.171983
H108	H	0.018894	-0.393175	0.161350
H109	H	-1.177580	-1.373732	-0.532500
H110	H	-0.844247	-1.040399	-0.199166
H111	H	-0.510914	-0.707065	0.134167
Br112	Br	-1.103660	-1.561035	-0.290955
Br113	Br	-0.770326	-1.227701	0.042378
Br114	Br	-0.436993	-0.894368	0.375711
Br115	Br	-1.274183	-1.597128	-0.244575
Br116	Br	-0.940849	-1.263794	0.088758
Br117	Br	-0.607516	-0.930461	0.422091
H118	H	-0.817092	-1.526591	-1.018045
H119	H	-0.483759	-1.193258	-0.684712
H120	H	-0.150426	-0.859925	-0.351379
H121	H	-0.836111	-0.877234	-0.316295
H122	H	-0.502778	-0.543901	0.017038
H123	H	-0.169445	-0.210567	0.350371
Br124	Br	-0.834650	-1.079124	-0.317711
Br125	Br	-0.501317	-0.745791	0.015623
Br126	Br	-0.167984	-0.412457	0.348956
Br127	Br	-0.649225	-0.857962	-0.503922
Br128	Br	-0.315892	-0.524628	-0.170588
Br129	Br	0.017441	-0.191295	0.162745
Br130	Br	-1.379065	-1.375282	-0.530700
Br131	Br	-1.045732	-1.041948	-0.197367
Br132	Br	-0.712398	-0.708615	0.135966
Br133	Br	-0.575467	-1.339436	-0.944229
Br134	Br	-0.242134	-1.006102	-0.610896
Br135	Br	0.091199	-0.672769	-0.277562
H136	H	-0.666494	-1.409876	-0.804661
H137	H	-0.333161	-1.076543	-0.471328
H138	H	0.000173	-0.743209	-0.137995
H139	H	-0.863562	-1.562471	-0.847545
H140	H	-0.530228	-1.229138	-0.514211
H141	H	-0.196895	-0.895804	-0.180878
