data_functionalizedCrystal
_audit_creation_method	'MofGen! by Chris Wilmer'
_symmetry_space_group_name_H-M	'P1'
_symmetry_Int_Tables_number	1
_symmetry_cell_setting	triclinic
loop_
_symmetry_equiv_pos_as_xyz
  x,y,z
_cell_length_a	14.519709
_cell_length_b	17.699083
_cell_length_c	16.776229
_cell_angle_alpha	89.999799
_cell_angle_beta	90.001522
_cell_angle_gamma	96.518421
loop_
_atom_site_label
_atom_site_type_symbol
_atom_site_fract_x
_atom_site_fract_y
_atom_site_fract_z
O1	O	-1.223449	0.099215	-0.066173
O2	O	-0.723449	0.599215	0.433827
O3	O	-0.954923	0.110899	-0.066196
O4	O	-0.454923	0.610899	0.433804
O5	O	-1.096772	-0.005110	-0.066191
O6	O	-0.596772	0.494890	0.433809
O7	O	-1.081599	0.215225	-0.066177
O8	O	-0.581599	0.715225	0.433823
O9	O	-1.096754	-0.005117	0.066385
O10	O	-0.596754	0.494883	0.566385
O11	O	-0.954904	0.110892	0.066381
O12	O	-0.454904	0.610892	0.566381
O13	O	-1.223430	0.099208	0.066404
O14	O	-0.723430	0.599208	0.566404
Zn15	Zn	-1.089164	0.105049	0.087442
Zn16	Zn	-0.589164	0.605049	0.587442
Zn17	Zn	-1.089189	0.105058	-0.087234
Zn18	Zn	-0.589189	0.605058	0.412766
O19	O	-1.081580	0.215218	0.066400
O20	O	-0.581580	0.715218	0.566400
C21	C	-1.096219	-0.033312	0.000093
C22	C	-0.596219	0.466688	0.500093
C23	C	-1.094588	-0.117335	0.000082
C24	C	-0.594588	0.382665	0.500082
C25	C	-0.920556	0.110351	0.000089
C26	C	-0.420556	0.610351	0.500089
C27	C	-0.818181	0.108719	0.000080
C28	C	-0.318181	0.608719	0.500080
C29	C	-1.257797	0.099756	0.000117
C30	C	-0.757797	0.599756	0.500117
C31	C	-1.360171	0.101388	0.000121
C32	C	-0.860171	0.601388	0.500121
C33	C	-0.443311	0.102712	0.000116
C34	C	0.056689	0.602712	0.500116
C35	C	-0.547612	0.104380	0.000106
C36	C	-0.047612	0.604380	0.500106
C37	C	-0.630743	0.105716	0.000097
C38	C	-0.130743	0.605716	0.500097
C39	C	-0.735050	0.107384	0.000089
C40	C	-0.235050	0.607384	0.500089
C41	C	-1.082134	0.243420	0.000113
C42	C	-0.582134	0.743420	0.500113
C43	C	-1.083765	0.327442	0.000119
C44	C	-0.583765	0.827442	0.500119
N45	N	-1.089154	0.105042	0.206653
N46	N	-0.589154	0.605042	0.706653
C47	C	-1.000502	0.375825	0.000112
C48	C	-0.500502	0.875825	0.500112
C49	C	-1.002040	0.454773	0.000103
C50	C	-0.502040	0.954773	0.500103
C51	C	-1.086842	0.485336	0.000106
C52	C	-0.586842	0.985336	0.500106
C53	C	-1.170111	0.436948	0.000111
C54	C	-0.670111	0.936948	0.500111
C55	C	-1.168572	0.358001	0.000115
C56	C	-0.668572	0.858001	0.500115
C57	C	-1.176319	0.755328	0.000096
C58	C	-0.676319	1.255328	0.500096
C59	C	-1.177852	0.834281	0.000095
C60	C	-0.677852	1.334281	0.500095
C61	C	-1.009787	0.852100	0.000084
C62	C	-0.509787	1.352100	0.500084
C63	C	-1.008248	0.773154	0.000088
C64	C	-0.508248	1.273154	0.500088
C65	C	-1.091517	0.724772	0.000088
C66	C	-0.591517	1.224772	0.500088
C67	C	-1.089848	0.639168	0.000097
C68	C	-0.589848	1.139168	0.500097
C69	C	-1.088511	0.570939	0.000104
C70	C	-0.588511	1.070939	0.500104
N71	N	-1.089206	0.105059	-0.206445
N72	N	-0.589206	0.605059	0.293555
C73	C	-1.151984	0.053694	0.248372
C74	C	-0.651984	0.553694	0.748372
C75	C	-1.151989	0.053694	0.331824
C76	C	-0.651989	0.553694	0.831824
C77	C	-1.089168	0.105045	0.373556
C78	C	-0.589168	0.605045	0.873556
C79	C	-1.026331	0.156395	0.331831
C80	C	-0.526331	0.656395	0.831831
C81	C	-1.026322	0.156392	0.248380
C82	C	-0.526322	0.656392	0.748380
C83	C	-1.026364	0.156410	0.668378
C84	C	-0.526364	0.656410	1.168378
C85	C	-1.026380	0.156411	0.751835
C86	C	-0.526380	0.656411	1.251835
C87	C	-1.152031	0.053712	0.751822
C88	C	-0.652031	0.553712	1.251822
C89	C	-1.152022	0.053709	0.668371
C90	C	-0.652022	0.553709	1.168371
C91	C	-1.089183	0.105056	0.626654
C92	C	-0.589183	0.605056	1.126654
C93	C	-1.089177	0.105055	0.536165
C94	C	-0.589177	0.605055	1.036165
C95	C	-1.089177	0.105050	0.464043
C96	C	-0.589177	0.605050	0.964043
H97	H	-0.931446	0.350947	0.000118
H98	H	-0.431446	0.850947	0.500118
H99	H	-1.244122	0.715945	0.000101
H100	H	-0.744122	1.215945	0.500101
C101	C	-0.914967	0.739537	0.000080
C102	C	-0.414967	1.239537	0.500080
H103	H	-0.865597	0.779660	0.000066
H104	H	-0.365597	1.279660	0.500066
H105	H	-0.910863	0.709111	0.046311
H106	H	-0.410863	1.209111	0.546311
H107	H	-0.910885	0.709111	-0.046159
H108	H	-0.410885	1.209111	0.453841
H109	H	-0.934239	0.494163	0.000095
H110	H	-0.434239	0.994163	0.500095
C111	C	-0.957200	0.212860	0.377730
C112	C	-0.457200	0.712860	0.877730
H113	H	-0.919765	0.243429	0.340929
H114	H	-0.419765	0.743429	0.840929
H115	H	-0.990274	0.244438	0.410291
H116	H	-0.490274	0.744438	0.910291
H117	H	-0.918887	0.185536	0.410276
H118	H	-0.418887	0.685536	0.910276
H119	H	-0.975220	0.198229	0.785811
H120	H	-0.475220	0.698229	1.285811
H121	H	-1.203144	0.011881	0.214400
H122	H	-0.703144	0.511881	0.714400
H123	H	-0.975158	0.198203	0.214413
H124	H	-0.475158	0.698203	0.714413
H125	H	-1.246912	0.859162	0.000097
H126	H	-0.746912	1.359162	0.500097
C127	C	-0.957252	0.212896	0.622499
C128	C	-0.457252	0.712896	1.122499
H129	H	-0.919849	0.243484	0.659307
H130	H	-0.419849	0.743484	1.159307
H131	H	-0.918920	0.185601	0.589951
H132	H	-0.418920	0.685601	1.089951
H133	H	-0.990354	0.244465	0.589941
H134	H	-0.490354	0.744465	1.089941
C135	C	-1.263391	0.470565	0.000117
C136	C	-0.763391	0.970565	0.500117
H137	H	-1.252384	0.524513	0.000122
H138	H	-0.752384	1.024513	0.500122
H139	H	-1.297676	0.453965	-0.046112
H140	H	-0.797676	0.953965	0.453888
H141	H	-1.297657	0.453966	0.046359
H142	H	-0.797657	0.953966	0.546359
H143	H	-1.203180	0.011896	0.634396
H144	H	-0.703180	0.511896	1.134396
C145	C	-0.918192	0.905322	0.000071
C146	C	-0.418192	1.405322	0.500071
H147	H	-0.931249	0.956717	0.000060
H148	H	-0.431249	1.456717	0.500060
H149	H	-0.883405	0.896049	0.046301
H150	H	-0.383405	1.396049	0.546301
H151	H	-0.883421	0.896039	-0.046169
H152	H	-0.383421	1.396039	0.453831
H153	H	-1.203150	0.011882	0.365791
H154	H	-0.703150	0.511882	0.865791
C155	C	-1.260161	0.304780	0.000125
C156	C	-0.760161	0.804780	0.500125
H157	H	-1.310887	0.334288	0.000134
H158	H	-0.810887	0.834288	0.500134
H159	H	-1.263060	0.273611	-0.046106
H160	H	-0.763060	0.773611	0.453894
H161	H	-1.263048	0.273616	0.046365
H162	H	-0.763048	0.773616	0.546365
H163	H	-1.203196	0.011900	0.785797
H164	H	-0.703196	0.511900	1.285797
