data_functionalizedCrystal
_audit_creation_method	'MofGen! by Chris Wilmer'
_symmetry_space_group_name_H-M	'P1'
_symmetry_Int_Tables_number	1
_symmetry_cell_setting	triclinic
loop_
_symmetry_equiv_pos_as_xyz
  x,y,z
_cell_length_a	16.625548
_cell_length_b	18.101395
_cell_length_c	16.625539
_cell_angle_alpha	89.974216
_cell_angle_beta	89.982945
_cell_angle_gamma	90.032172
loop_
_atom_site_label
_atom_site_type_symbol
_atom_site_fract_x
_atom_site_fract_y
_atom_site_fract_z
Zn1	Zn	1.232604	-0.294821	-0.455913
Zn2	Zn	1.732604	0.205179	0.044087
Zn3	Zn	1.232495	-0.418666	-0.321082
Zn4	Zn	1.732495	0.081334	0.178918
Zn5	Zn	1.097774	-0.294845	-0.321094
Zn6	Zn	1.597774	0.205155	0.178906
Zn7	Zn	1.097716	-0.418627	-0.455872
Zn8	Zn	1.597716	0.081373	0.044128
O9	O	1.165147	-0.356740	-0.388490
O10	O	1.665147	0.143260	0.111510
O11	O	1.345422	-0.311255	-0.438040
O12	O	1.845422	0.188745	0.061960
O13	O	1.214603	-0.402267	-0.208251
O14	O	1.714603	0.097733	0.291749
O15	O	1.115730	-0.191209	-0.339000
O16	O	1.615730	0.308791	0.161000
O17	O	1.345342	-0.402244	-0.338980
O18	O	1.845342	0.097756	0.161020
O19	O	1.214789	-0.191191	-0.438051
O20	O	1.714789	0.308809	0.061949
O21	O	1.115624	-0.311296	-0.208260
O22	O	1.615624	0.188704	0.291740
O23	O	0.984934	-0.311259	-0.338960
O24	O	1.484934	0.188741	0.161040
O25	O	1.115630	-0.402178	-0.568710
O26	O	1.615630	0.097822	-0.068710
O27	O	0.984891	-0.402201	-0.437981
O28	O	1.484891	0.097799	0.062019
O29	O	1.214732	-0.311218	-0.568740
O30	O	1.714732	0.188782	-0.068740
O31	O	1.214547	-0.522294	-0.338940
O32	O	1.714547	-0.022294	0.161060
O33	O	1.115525	-0.522265	-0.437969
O34	O	1.615525	-0.022265	0.062031
C35	C	0.955657	-0.356729	-0.388467
C36	C	1.455657	0.143271	0.111533
C37	C	0.866035	-0.356742	-0.388477
C38	C	1.366035	0.143258	0.111523
C39	C	0.537860	-0.356747	-0.388511
C40	C	1.037860	0.143253	0.111489
C41	C	0.629168	-0.356744	-0.388499
C42	C	1.129168	0.143256	0.111501
C43	C	0.701945	-0.356745	-0.388494
C44	C	1.201945	0.143255	0.111506
C45	C	0.793259	-0.356741	-0.388483
C46	C	1.293259	0.143259	0.111517
C47	C	1.165040	-0.549150	-0.388466
C48	C	1.665040	-0.049150	0.111534
C49	C	1.165067	-0.631464	-0.388483
C50	C	1.665067	-0.131464	0.111517
C51	C	1.165244	-0.930555	-0.388527
C52	C	1.665244	-0.430555	0.111473
C53	C	1.103087	-0.899243	-0.450988
C54	C	1.603087	-0.399243	0.049012
C55	C	1.102791	-0.813625	-0.450793
C56	C	1.602791	-0.313625	0.049207
C57	C	1.165156	-0.782173	-0.388506
C58	C	1.665156	-0.282173	0.111494
C59	C	1.142154	-0.813322	-0.303528
C60	C	1.642154	-0.313322	0.196472
C61	C	1.141754	-0.898968	-0.303901
C62	C	1.641754	-0.398968	0.196099
C63	C	1.250539	-0.898898	-0.410295
C64	C	1.750539	-0.398898	0.089705
C65	C	1.250038	-0.813247	-0.412159
C66	C	1.750038	-0.313247	0.087841
C67	C	1.165108	-0.698313	-0.388489
C68	C	1.665108	-0.198313	0.111511
C69	C	1.165290	-1.014415	-0.388538
C70	C	1.665290	-0.514415	0.111462
C71	C	1.375456	-0.356751	-0.388513
C72	C	1.875456	0.143249	0.111487
C73	C	1.465077	-0.356756	-0.388523
C74	C	1.965077	0.143244	0.111477
C75	C	1.165187	-0.356691	-0.598799
C76	C	1.665187	0.143309	-0.098799
C77	C	1.165204	-0.356670	-0.688420
C78	C	1.665204	0.143330	-0.188420
C79	C	1.165278	-0.163578	-0.388531
C80	C	1.665278	0.336422	0.111469
C81	C	1.165333	-0.081264	-0.388549
C82	C	1.665333	0.418736	0.111451
C83	C	1.165217	-0.356654	-0.761203
C84	C	1.665217	0.143346	-0.261203
C85	C	1.165236	-0.356626	-0.852511
C86	C	1.665236	0.143374	-0.352511
C87	C	1.165255	-0.356600	-0.925288
C88	C	1.665255	0.143400	-0.425288
C89	C	1.165275	-0.356573	-1.016602
C90	C	1.665275	0.143427	-0.516602
C91	C	1.165154	-0.356735	-0.178999
C92	C	1.665154	0.143265	0.321001
C93	C	1.165294	-0.356547	-0.089378
C94	C	1.665294	0.143453	0.410622
H95	H	1.117182	-0.792562	-0.513803
H96	H	1.617182	-0.292562	-0.013803
N97	N	1.121948	-0.926464	-0.534725
N98	N	1.621948	-0.426464	-0.034725
H99	H	1.170966	-0.959359	-0.532988
H100	H	1.670966	-0.459359	-0.032988
H101	H	1.074600	-0.955358	-0.556154
H102	H	1.574600	-0.455358	-0.056154
H103	H	1.298798	-0.791833	-0.369981
H104	H	1.798798	-0.291833	0.130019
N105	N	1.199104	-0.926427	-0.240151
N106	N	1.699104	-0.426427	0.259849
H107	H	1.255095	-0.907720	-0.252094
H108	H	1.755095	-0.407720	0.247906
H109	H	1.181286	-0.907729	-0.185768
H110	H	1.681286	-0.407729	0.314232
N111	N	1.200231	-0.786343	-0.240195
N112	N	1.700231	-0.286343	0.259805
H113	H	1.242111	-0.753589	-0.266041
H114	H	1.742111	-0.253589	0.233959
H115	H	1.169930	-0.757358	-0.198068
H116	H	1.669930	-0.257358	0.301932
N117	N	1.060441	-0.785000	-0.278655
N118	N	1.560441	-0.285000	0.221345
H119	H	1.038206	-0.752000	-0.322303
H120	H	1.538206	-0.252000	0.177697
H121	H	1.022876	-0.828133	-0.269922
H122	H	1.522876	-0.328133	0.230078
N123	N	1.019847	-0.927832	-0.432135
N124	N	1.519847	-0.427832	0.067865
H125	H	1.022225	-0.960978	-0.383310
H126	H	1.522225	-0.460978	0.116690
H127	H	0.982831	-0.884826	-0.420935
H128	H	1.482831	-0.384826	0.079065
N129	N	1.311889	-0.925719	-0.350044
N130	N	1.811889	-0.425719	0.149956
H131	H	1.337236	-0.881943	-0.322185
H132	H	1.837236	-0.381943	0.177815
H133	H	1.284556	-0.958227	-0.308892
H134	H	1.784556	-0.458227	0.191108
H135	H	1.079403	-0.919011	-0.285461
H136	H	1.579403	-0.419011	0.214539
H137	H	1.039568	-0.793203	-0.436373
H138	H	1.539568	-0.293203	0.063627
N139	N	1.278326	-0.927439	-0.490975
N140	N	1.778326	-0.427439	0.009025
H141	H	1.235899	-0.961185	-0.514233
H142	H	1.735899	-0.461185	-0.014233
H143	H	1.287506	-0.884453	-0.528628
H144	H	1.787506	-0.384453	-0.028628
N145	N	1.273023	-0.786278	-0.494997
N146	N	1.773023	-0.286278	0.005003
H147	H	1.228645	-0.754064	-0.517117
H148	H	1.728645	-0.254064	-0.017117
H149	H	1.324453	-0.756732	-0.491534
H150	H	1.824453	-0.256732	0.008466
