data_functionalizedCrystal
_audit_creation_method	'MofGen! by Chris Wilmer'
_symmetry_space_group_name_H-M	'P1'
_symmetry_Int_Tables_number	1
_symmetry_cell_setting	triclinic
loop_
_symmetry_equiv_pos_as_xyz
  x,y,z
_cell_length_a	16.625548
_cell_length_b	12.594516
_cell_length_c	16.625539
_cell_angle_alpha	90.025003
_cell_angle_beta	90.020568
_cell_angle_gamma	90.012884
loop_
_atom_site_label
_atom_site_type_symbol
_atom_site_fract_x
_atom_site_fract_y
_atom_site_fract_z
Zn1	Zn	1.232740	-0.423710	0.455928
Zn2	Zn	1.566073	-0.090377	0.789261
Zn3	Zn	1.899407	0.242957	1.122595
Zn4	Zn	1.232668	-0.601711	0.321103
Zn5	Zn	1.566002	-0.268378	0.654436
Zn6	Zn	1.899335	0.064956	0.987770
Zn7	Zn	1.097902	-0.423750	0.321108
Zn8	Zn	1.431235	-0.090417	0.654442
Zn9	Zn	1.764569	0.242916	0.987775
Zn10	Zn	1.097897	-0.601650	0.455893
Zn11	Zn	1.431231	-0.268317	0.789226
Zn12	Zn	1.764564	0.065017	1.122559
O13	O	1.165302	-0.512705	0.388508
O14	O	1.498635	-0.179372	0.721841
O15	O	1.831969	0.153961	1.055175
O16	O	1.345563	-0.447331	0.438055
O17	O	1.678896	-0.113997	0.771389
O18	O	2.012230	0.219336	1.104722
O19	O	1.214763	-0.578147	0.208271
O20	O	1.548097	-0.244813	0.541604
O21	O	1.881430	0.088520	0.874938
O22	O	1.115820	-0.274799	0.339010
O23	O	1.449154	0.058534	0.672343
O24	O	1.782487	0.391867	1.005676
O25	O	1.345510	-0.578107	0.339000
O26	O	1.678844	-0.244774	0.672333
O27	O	2.012177	0.088559	1.005667
O28	O	1.214885	-0.274769	0.438061
O29	O	1.548219	0.058564	0.771394
O30	O	1.881552	0.391897	1.104727
O31	O	1.115751	-0.447400	0.208275
O32	O	1.449084	-0.114066	0.541609
O33	O	1.782418	0.219267	0.874942
O34	O	0.985069	-0.447341	0.338975
O35	O	1.318402	-0.114007	0.672309
O36	O	1.651736	0.219326	1.005642
O37	O	1.115813	-0.578003	0.568730
O38	O	1.449146	-0.244670	0.902063
O39	O	1.782479	0.088663	1.235397
O40	O	0.985066	-0.578043	0.438001
O41	O	1.318399	-0.244709	0.771334
O42	O	1.651732	0.088624	1.104668
O43	O	1.214881	-0.447271	0.568756
O44	O	1.548214	-0.113938	0.902089
O45	O	1.881548	0.219395	1.235422
O46	O	1.214759	-0.750649	0.338966
O47	O	1.548092	-0.417315	0.672299
O48	O	1.881426	-0.083982	1.005633
O49	O	1.115743	-0.750604	0.437996
O50	O	1.449077	-0.417271	0.771329
O51	O	1.782410	-0.083937	1.104662
C52	C	0.955811	-0.512690	0.388485
C53	C	1.289144	-0.179357	0.721819
C54	C	1.622478	0.153977	1.055152
C55	C	0.866190	-0.512709	0.388495
C56	C	1.199523	-0.179376	0.721828
C57	C	1.532857	0.153957	1.055162
C58	C	0.538014	-0.512716	0.388529
C59	C	0.871348	-0.179383	0.721863
C60	C	1.204681	0.153950	1.055196
C61	C	0.629323	-0.512711	0.388517
C62	C	0.962656	-0.179378	0.721851
C63	C	1.295990	0.153955	1.055184
C64	C	0.702099	-0.512713	0.388512
C65	C	1.035433	-0.179380	0.721845
C66	C	1.368766	0.153953	1.055178
C67	C	0.793414	-0.512707	0.388501
C68	C	1.126747	-0.179374	0.721834
C69	C	1.460080	0.153959	1.055167
C70	C	1.165265	-0.789246	0.388494
C71	C	1.498598	-0.455913	0.721827
C72	C	1.831931	-0.122580	1.055161
C73	C	1.165322	-0.907552	0.388515
C74	C	1.498656	-0.574218	0.721848
C75	C	1.831989	-0.240885	1.055182
C76	C	1.219240	-0.976791	0.334710
C77	C	1.552573	-0.643457	0.668044
C78	C	1.885906	-0.310124	1.001377
C79	C	1.238943	-1.047491	0.408305
C80	C	1.572276	-0.714158	0.741638
C81	C	1.905610	-0.380825	1.074971
C82	C	1.145720	-1.047650	0.314967
C83	C	1.479053	-0.714316	0.648301
C84	C	1.812386	-0.380983	0.981634
C85	C	1.185064	-0.976694	0.462148
C86	C	1.518397	-0.643361	0.795481
C87	C	1.851730	-0.310028	1.128815
C88	C	1.091806	-0.976846	0.368761
C89	C	1.425139	-0.643513	0.702094
C90	C	1.758473	-0.310180	1.035428
C91	C	1.111482	-1.047515	0.442406
C92	C	1.444815	-0.714182	0.775740
C93	C	1.778148	-0.380849	1.109073
C94	C	1.375611	-0.512721	0.388531
C95	C	1.708944	-0.179388	0.721864
C96	C	2.042278	0.153945	1.055198
C97	C	1.465232	-0.512728	0.388541
C98	C	1.798565	-0.179395	0.721874
C99	C	2.131899	0.153938	1.055208
C100	C	1.165354	-0.512626	0.598817
C101	C	1.498688	-0.179293	0.932150
C102	C	1.832021	0.154041	1.265484
C103	C	1.165377	-0.512592	0.688438
C104	C	1.498710	-0.179259	1.021771
C105	C	1.832043	0.154074	1.355105
C106	C	1.165361	-0.235085	0.388540
C107	C	1.498695	0.098249	0.721873
C108	C	1.832028	0.431582	1.055206
C109	C	1.165387	-0.116779	0.388553
C110	C	1.498720	0.216554	0.721887
C111	C	1.832053	0.549888	1.055220
C112	C	1.165296	-0.512708	0.179017
C113	C	1.498630	-0.179374	0.512350
C114	C	1.831963	0.153959	0.845684
C115	C	1.165430	-0.512441	0.089396
C116	C	1.498763	-0.179108	0.422730
C117	C	1.832097	0.154225	0.756063
C118	C	1.165414	-0.512473	1.016614
C119	C	1.498747	-0.179140	1.349947
C120	C	1.832081	0.154194	1.683281
C121	C	1.165401	-0.512510	0.925305
C122	C	1.498735	-0.179176	1.258639
C123	C	1.832068	0.154157	1.591972
C124	C	1.165396	-0.512534	0.852529
C125	C	1.498729	-0.179200	1.185862
C126	C	1.832062	0.154133	1.519196
C127	C	1.165382	-0.512568	0.761215
C128	C	1.498716	-0.179235	1.094548
C129	C	1.832049	0.154098	1.427881
H130	H	1.264843	-0.945736	0.289250
H131	H	1.598176	-0.612402	0.622584
H132	H	1.931510	-0.279069	0.955917
H133	H	1.065913	-1.078374	0.487976
H134	H	1.399247	-0.745040	0.821309
H135	H	1.732580	-0.411707	1.154643
H136	H	1.029625	-0.945789	0.352009
H137	H	1.362958	-0.612456	0.685343
H138	H	1.696292	-0.279123	1.018676
H139	H	1.301142	-1.078526	0.425034
H140	H	1.634475	-0.745192	0.758368
H141	H	1.967809	-0.411859	1.091701
N142	N	1.205988	-0.937754	0.540214
N143	N	1.539322	-0.604421	0.873547
N144	N	1.872655	-0.271088	1.206881
N145	N	1.209366	-0.839998	0.552788
N146	N	1.542699	-0.506664	0.886122
N147	N	1.876032	-0.173331	1.219455
H148	H	1.224147	-0.812492	0.607920
H149	H	1.557481	-0.479159	0.941254
H150	H	1.890814	-0.145826	1.274587
N151	N	1.124894	-1.086743	0.236918
N152	N	1.458227	-0.753410	0.570252
N153	N	1.791561	-0.420077	0.903585
N154	N	1.167710	-1.064087	0.177568
N155	N	1.501043	-0.730753	0.510901
N156	N	1.834377	-0.397420	0.844235
H157	H	1.153008	-1.091693	0.122444
H158	H	1.486341	-0.758360	0.455777
H159	H	1.819675	-0.425026	0.789110
