data_functionalizedCrystal
_audit_creation_method	'MofGen! by Chris Wilmer'
_symmetry_space_group_name_H-M	'P1'
_symmetry_Int_Tables_number	1
_symmetry_cell_setting	triclinic
loop_
_symmetry_equiv_pos_as_xyz
  x,y,z
_cell_length_a	14.908979
_cell_length_b	14.908520
_cell_length_c	14.908858
_cell_angle_alpha	89.778004
_cell_angle_beta	96.752724
_cell_angle_gamma	96.420994
loop_
_atom_site_label
_atom_site_type_symbol
_atom_site_fract_x
_atom_site_fract_y
_atom_site_fract_z
Zn1	Zn	1.338575	-0.255990	-0.447712
Zn2	Zn	1.337457	-0.415104	-0.306093
Zn3	Zn	1.194931	-0.272496	-0.306098
Zn4	Zn	1.177438	-0.415051	-0.466125
O5	O	1.262100	-0.339660	-0.381507
O6	O	1.465511	-0.270211	-0.421218
O7	O	1.325404	-0.403117	-0.179854
O8	O	1.221774	-0.144056	-0.317180
O9	O	1.464689	-0.387112	-0.317171
O10	O	1.327309	-0.131929	-0.421223
O11	O	1.220690	-0.298343	-0.179858
O12	O	1.065526	-0.298291	-0.335034
O13	O	1.191960	-0.387021	-0.589922
O14	O	1.052674	-0.403026	-0.452605
O15	O	1.310347	-0.270159	-0.576394
O16	O	1.308441	-0.541347	-0.335025
O17	O	1.190876	-0.541308	-0.452600
C18	C	1.026148	-0.352445	-0.395819
C19	C	0.925205	-0.357934	-0.401964
C20	C	1.247663	-0.574060	-0.395828
C21	C	1.241568	-0.674331	-0.401980
C22	C	0.776262	-0.420295	-0.471740
C23	C	0.871107	-0.415137	-0.465974
C24	C	0.884451	-0.305888	-0.343715
C25	C	0.789606	-0.311046	-0.349481
C26	C	0.735515	-0.368251	-0.413497
C27	C	0.640668	-0.373404	-0.419267
C28	C	0.654013	-0.264160	-0.297004
C29	C	0.748858	-0.259002	-0.291238
C30	C	1.352650	-0.862720	-0.291195
C31	C	1.346927	-0.956934	-0.296972
C32	C	1.224402	-0.956974	-0.419315
C33	C	1.230126	-0.862760	-0.413538
C34	C	1.294251	-0.815636	-0.349475
C35	C	1.299969	-0.721422	-0.343694
C36	C	1.177450	-0.721463	-0.466040
C37	C	1.171727	-0.815677	-0.471818
C38	C	1.498973	-0.326826	-0.367140
C39	C	1.599914	-0.321357	-0.361017
C40	C	1.249327	-0.326743	-0.616806
C41	C	1.243884	-0.321239	-0.717076
C42	C	1.276617	-0.104342	-0.367148
C43	C	1.282804	-0.004064	-0.361029
C44	C	1.181699	-0.258932	-0.858403
C45	C	1.186810	-0.264102	-0.764191
C46	C	1.295852	-0.373206	-0.764180
C47	C	1.290741	-0.368036	-0.858393
C48	C	1.233662	-0.310898	-0.905501
C49	C	1.228546	-0.305732	-0.999716
C50	C	1.337592	-0.414831	-0.999704
C51	C	1.342703	-0.420001	-0.905491
C52	C	1.274880	-0.352459	-0.147117
C53	C	1.280515	-0.357700	-0.046821
H54	H	0.596628	-0.419979	-0.471395
O55	O	1.369142	-0.670598	-0.274608
H56	H	1.415720	-0.622898	-0.309600
O57	O	1.155253	-1.007812	-0.488412
H58	H	1.115608	-0.959246	-0.527976
O59	O	1.357415	-0.434822	-0.713357
H60	H	1.392697	-0.470087	-0.761932
H61	H	1.389178	-0.466519	-0.867122
O62	O	1.409908	-1.007722	-0.234110
H63	H	1.455452	-0.959123	-0.188591
H64	H	0.732220	-0.466865	-0.523872
H65	H	1.119520	-0.854057	-0.523978
O66	O	1.166999	-0.244098	-1.050535
H67	H	1.095747	-0.264409	-1.037723
O68	O	1.421819	-0.811881	-0.222117
H69	H	1.386319	-0.773729	-0.176015
H70	H	0.792912	-0.212431	-0.239116
O71	O	1.114458	-0.670683	-0.528909
H72	H	1.129212	-0.597252	-0.514135
H73	H	1.135220	-0.212412	-0.896760
O74	O	0.915061	-0.471263	-0.528798
H75	H	0.861511	-0.511899	-0.574283
H76	H	1.144499	-0.221785	-0.725847
O77	O	0.942798	-0.244196	-0.274670
H78	H	1.015594	-0.249355	-0.280450
O79	O	1.393647	-0.470883	-1.050499
H80	H	1.380509	-0.457687	-1.123926
O81	O	0.610068	-0.208026	-0.234172
H82	H	0.535028	-0.221226	-0.248929
