data_functionalizedCrystal
_audit_creation_method	'MofGen! by Chris Wilmer'
_symmetry_space_group_name_H-M	'P1'
_symmetry_Int_Tables_number	1
_symmetry_cell_setting	triclinic
loop_
_symmetry_equiv_pos_as_xyz
  x,y,z
_cell_length_a	10.540539
_cell_length_b	14.044220
_cell_length_c	12.503572
_cell_angle_alpha	86.156832
_cell_angle_beta	93.551804
_cell_angle_gamma	88.857185
loop_
_atom_site_label
_atom_site_type_symbol
_atom_site_fract_x
_atom_site_fract_y
_atom_site_fract_z
O1	O	-1.706103	-0.128248	-0.089273
O2	O	-1.337964	-0.140843	-0.089286
O3	O	-1.516507	0.003476	-0.089269
O4	O	-1.527560	-0.272567	-0.089290
O5	O	-1.503082	-0.007396	0.089372
O6	O	-1.324539	-0.151715	0.089355
O7	O	-1.692677	-0.139120	0.089368
Cu8	Cu	-1.507382	-0.146410	0.105673
Cu9	Cu	-1.523259	-0.133553	-0.105591
O10	O	-1.514135	-0.283439	0.089351
C11	C	-1.283853	-0.145334	0.000033
C12	C	-1.142620	-0.142508	0.000028
C13	C	-1.504957	0.033387	0.000052
C14	C	-1.490527	0.138711	0.000052
C15	C	-1.746789	-0.134629	0.000047
C16	C	-1.888023	-0.137454	0.000045
C17	C	-0.948213	-0.034244	0.000453
C18	C	-1.095152	-0.037084	0.000039
C19	C	-1.093743	-0.187034	-0.101985
C20	C	-0.946840	-0.183432	-0.102059
C21	C	-0.931301	-0.197940	0.101089
C22	C	-1.078281	-0.198992	0.102426
C23	C	-1.525685	-0.313350	0.000028
C24	C	-1.540116	-0.418673	0.000020
N25	N	-1.496224	-0.155452	0.254264
C26	C	-1.464147	0.331552	0.000036
C27	C	-1.566490	0.388492	0.000036
C28	C	-1.551812	0.495795	0.000027
C29	C	-1.478823	0.224238	0.000045
N30	N	-1.534427	-0.124503	-0.254182
C31	C	-1.479811	-0.168762	0.473377
C32	C	-1.550836	-0.111196	0.526711
C33	C	-1.541703	-0.118602	0.648634
C34	C	-1.488942	-0.161358	0.351444
H35	H	-0.909919	0.002952	0.073612
H36	H	-1.365513	0.363389	0.000030
N37	N	-1.697156	0.346328	0.000047
H38	H	-1.689259	0.274538	0.000054
H39	H	-1.739821	0.364145	0.066275
N40	N	-1.390204	-0.241419	0.534177
H41	H	-1.344075	-0.278812	0.481599
H42	H	-1.326405	-0.207573	0.580848
N43	N	-0.912033	-0.127601	-0.203048
H44	H	-0.816450	-0.124703	-0.204105
H45	H	-0.947027	-0.160042	-0.267885
N46	N	-1.138986	0.009892	0.096905
H47	H	-1.062810	0.032637	0.140258
H48	H	-1.197322	0.066118	0.072465
N49	N	-0.909860	0.026574	-0.095881
H50	H	-0.853667	-0.012441	-0.139788
H51	H	-0.988456	0.049514	-0.141368
H52	H	-1.138338	0.007575	-0.073209
H53	H	-0.906885	-0.258969	-0.106695
H54	H	-1.124208	-0.264224	-0.105786
H55	H	-1.138473	-0.147171	-0.177899
N56	N	-1.640469	-0.038545	0.465915
H57	H	-1.634376	-0.043484	0.386173
H58	H	-1.730409	-0.051213	0.485500
H59	H	-1.109825	-0.166521	0.177895
N60	N	-0.877258	-0.158985	0.203519
H61	H	-0.824164	-0.101728	0.185456
H62	H	-0.949116	-0.139356	0.247780
H63	H	-1.109815	-0.276228	0.108579
H64	H	-0.891721	-0.274129	0.101772
