data_functionalizedCrystal
_audit_creation_method	'MofGen! by Chris Wilmer'
_symmetry_space_group_name_H-M	'P1'
_symmetry_Int_Tables_number	1
_symmetry_cell_setting	triclinic
loop_
_symmetry_equiv_pos_as_xyz
  x,y,z
_cell_length_a	14.908571
_cell_length_b	12.759400
_cell_length_c	14.908308
_cell_angle_alpha	86.730859
_cell_angle_beta	89.824947
_cell_angle_gamma	86.710990
loop_
_atom_site_label
_atom_site_type_symbol
_atom_site_fract_x
_atom_site_fract_y
_atom_site_fract_z
Zn1	Zn	1.345342	-0.548282	0.587598
Zn2	Zn	1.353936	-0.714462	0.437243
Zn3	Zn	1.203655	-0.528102	0.428595
Zn4	Zn	1.194964	-0.713214	0.578895
O5	O	1.274474	-0.626015	0.508083
O6	O	1.472309	-0.579294	0.574915
O7	O	1.341235	-0.681818	0.310271
O8	O	1.222491	-0.383762	0.449711
O9	O	1.478623	-0.701385	0.464450
O10	O	1.326587	-0.398588	0.566529
O11	O	1.230825	-0.544900	0.303918
O12	O	1.076676	-0.543690	0.441272
O13	O	1.207677	-0.699258	0.705874
O14	O	1.070290	-0.679690	0.551696
O15	O	1.318160	-0.578083	0.712269
O16	O	1.332807	-0.861313	0.456011
O17	O	1.216011	-0.860396	0.560082
C18	C	1.040857	-0.609366	0.494601
C19	C	0.940914	-0.602270	0.488855
C20	C	0.746517	-0.730752	0.592888
C21	C	0.652611	-0.724088	0.587492
C22	C	0.659193	-0.582274	0.472673
C23	C	0.753099	-0.588938	0.478069
C24	C	0.796758	-0.663180	0.538177
C25	C	0.890666	-0.669848	0.543568
C26	C	0.897246	-0.528030	0.428754
C27	C	0.803340	-0.521366	0.423358
C28	C	1.274422	-0.898977	0.508061
C29	C	1.274480	-1.015760	0.508087
C30	C	1.335356	-1.071073	0.453964
C31	C	1.335410	-1.180802	0.453995
C32	C	1.213704	-1.179896	0.562273
C33	C	1.213655	-1.070169	0.562246
C34	C	1.396181	-1.016664	0.399805
C35	C	1.457061	-1.071977	0.345677
C36	C	1.457115	-1.181707	0.345708
C37	C	1.396289	-1.236123	0.399867
C38	C	1.509003	-0.642730	0.521618
C39	C	1.608946	-0.649853	0.527386
C40	C	1.260990	-0.640783	0.742609
C41	C	1.255244	-0.647076	0.842550
C42	C	1.274550	-0.351990	0.508126
C43	C	1.274582	-0.235216	0.508144
C44	C	1.287957	-0.611233	0.274473
C45	C	1.293878	-0.604656	0.174542
C46	C	1.359489	-0.532697	1.037009
C47	C	1.354093	-0.538607	1.130913
C48	C	1.239052	-0.664798	1.124262
C49	C	1.244448	-0.658888	1.030358
C50	C	1.304670	-0.592837	0.986735
C51	C	1.310070	-0.586934	0.892830
C52	C	1.195025	-0.713119	0.886181
C53	C	1.189629	-0.719028	0.980085
H54	H	0.767781	-0.460918	0.374422
N55	N	1.147987	-1.010511	0.620617
H56	H	1.108432	-0.959775	0.581627
H57	H	1.182140	-0.970220	0.664404
N58	N	0.951434	-0.455149	0.369733
H59	H	1.017549	-0.470637	0.382267
H60	H	0.934222	-0.379861	0.382888
N61	N	1.522771	-1.241365	0.287326
H62	H	1.513576	-1.319133	0.295560
H63	H	1.586163	-1.227571	0.305065
N64	N	1.396341	-1.354475	0.399912
H65	H	1.457068	-1.386273	0.420056
H66	H	1.383383	-1.375813	0.337260
N67	N	0.937760	-0.749916	0.608398
H68	H	0.978812	-0.799001	0.574027
H69	H	0.891625	-0.791633	0.642225
N70	N	1.396132	-0.898314	0.399767
H71	H	1.409055	-0.876890	0.462404
H72	H	1.335391	-0.866600	0.379589
N73	N	1.375023	-0.515702	0.845776
H74	H	1.408930	-0.478499	0.891877
H75	H	1.340672	-0.462026	0.804708
N76	N	0.793614	-0.810833	0.657705
H77	H	0.747536	-0.852633	0.691543
H78	H	0.830195	-0.773534	0.701618
H79	H	1.398731	-0.489632	1.171842
N80	N	1.522673	-1.013294	0.287276
H81	H	1.513403	-0.935388	0.295467
H82	H	1.512433	-1.027485	0.222248
H83	H	1.164181	-1.224210	0.606365
H84	H	1.190022	-0.718573	1.159796
H85	H	1.408528	-0.478921	1.001491
N86	N	0.598424	-0.796980	0.646493
H87	H	0.532310	-0.781496	0.633956
H88	H	0.611161	-0.785953	0.711678
H89	H	1.140596	-0.772803	1.015615
H90	H	1.150389	-0.762092	0.845238
H91	H	0.623630	-0.521823	0.423741
