data_functionalizedCrystal
_audit_creation_method	'MofGen! by Chris Wilmer'
_symmetry_space_group_name_H-M	'P1'
_symmetry_Int_Tables_number	1
_symmetry_cell_setting	triclinic
loop_
_symmetry_equiv_pos_as_xyz
  x,y,z
_cell_length_a	17.038278
_cell_length_b	17.038272
_cell_length_c	13.448316
_cell_angle_alpha	89.993314
_cell_angle_beta	89.993302
_cell_angle_gamma	91.111028
loop_
_atom_site_label
_atom_site_type_symbol
_atom_site_fract_x
_atom_site_fract_y
_atom_site_fract_z
O1	O	1.048756	0.170529	-0.082702
O2	O	1.548756	0.670529	0.417298
O3	O	0.820945	0.167823	-0.082702
O4	O	1.320945	0.667823	0.417298
O5	O	0.933497	0.055270	-0.082694
O6	O	1.433497	0.555270	0.417306
O7	O	0.936205	0.283082	-0.082710
O8	O	1.436205	0.783082	0.417290
O9	O	0.933481	0.055262	0.082690
O10	O	1.433481	0.555262	0.582690
O11	O	0.820929	0.167815	0.082682
O12	O	1.320929	0.667815	0.582682
O13	O	1.048741	0.170521	0.082682
O14	O	1.548741	0.670521	0.582682
Cu15	Cu	0.934834	0.169167	0.097783
Cu16	Cu	1.434834	0.669167	0.597783
Cu17	Cu	0.934852	0.169177	-0.097803
Cu18	Cu	1.434852	0.669177	0.402197
O19	O	0.936189	0.283074	0.082674
O20	O	1.436189	0.783074	0.582674
C21	C	0.791645	0.165356	-0.000010
C22	C	1.291645	0.665356	0.499990
C23	C	0.704361	0.158009	-0.000010
C24	C	1.204361	0.658009	0.499990
C25	C	0.210935	0.112872	-0.000010
C26	C	0.710935	0.612872	0.499990
C27	C	0.292947	0.119781	-0.000005
C28	C	0.792947	0.619781	0.499995
C29	C	0.329347	0.194155	-0.000015
C30	C	0.829347	0.694155	0.499985
C31	C	0.283730	0.261623	-0.000020
C32	C	0.783730	0.761623	0.499980
C33	C	0.201720	0.254713	-0.000018
C34	C	0.701720	0.754713	0.499982
C35	C	0.576734	0.218567	-0.000013
C36	C	1.076734	0.718567	0.499987
C37	C	0.658751	0.225473	-0.000018
C38	C	1.158751	0.725473	0.499982
C39	C	0.667962	0.083630	-0.000001
C40	C	1.167962	0.583630	0.499999
C41	C	0.585949	0.076726	-0.000006
C42	C	1.085949	0.576726	0.499994
C43	C	0.540340	0.144194	-0.000006
C44	C	1.040340	0.644194	0.499994
C45	C	0.413176	0.201219	-0.000012
C46	C	0.913176	0.701219	0.499988
C47	C	0.456513	0.137129	-0.000001
C48	C	0.956513	0.637129	0.499999
C49	C	0.931026	0.025974	-0.000002
C50	C	1.431026	0.525974	0.499998
C51	C	0.923678	-0.061310	-0.000002
C52	C	1.423678	0.438690	0.499998
C53	C	0.991142	-0.106920	-0.000001
C54	C	1.491142	0.393080	0.499999
C55	C	0.984233	-0.188932	-0.000011
C56	C	1.484233	0.311068	0.499989
C57	C	0.909859	-0.225332	-0.000014
C58	C	1.409859	0.274668	0.499986
C59	C	0.842391	-0.179716	-0.000018
C60	C	1.342391	0.320284	0.499982
C61	C	0.849300	-0.097706	-0.000016
C62	C	1.349300	0.402294	0.499984
C63	C	0.885449	-0.472720	-0.000028
C64	C	1.385449	0.027280	0.499972
C65	C	0.878544	-0.554736	-0.000027
C66	C	1.378544	-0.054736	0.499973
C67	C	1.020387	-0.563946	-0.000021
C68	C	1.520387	-0.063946	0.499979
C69	C	1.027290	-0.481934	-0.000013
C70	C	1.527290	0.018066	0.499987
C71	C	0.959821	-0.436325	-0.000022
C72	C	1.459821	0.063675	0.499978
C73	C	0.902796	-0.309161	-0.000021
C74	C	1.402796	0.190839	0.499979
C75	C	0.966886	-0.352497	-0.000023
C76	C	1.466886	0.147503	0.499977
C77	C	1.078041	0.172988	-0.000012
C78	C	1.578041	0.672988	0.499988
C79	C	1.165325	0.180335	-0.000019
C80	C	1.665325	0.680335	0.499981
C81	C	0.938660	0.312370	-0.000020
C82	C	1.438660	0.812370	0.499980
C83	C	0.946008	0.399654	-0.000026
C84	C	1.446008	0.899654	0.499974
N85	N	0.934826	0.169160	0.235347
N86	N	1.434826	0.669160	0.735347
N87	N	0.934865	0.169178	-0.235367
N88	N	1.434865	0.669178	0.264633
C89	C	0.984682	0.119345	0.287391
C90	C	1.484682	0.619345	0.787391
C91	C	0.984687	0.119344	0.391494
C92	C	1.484687	0.619344	0.891494
C93	C	0.934840	0.169164	0.443552
C94	C	1.434840	0.669164	0.943552
C95	C	0.884978	0.218981	0.391501
C96	C	1.384978	0.718981	0.891501
C97	C	0.884970	0.218977	0.287399
C98	C	1.384970	0.718977	0.787399
C99	C	0.885000	0.218988	0.608481
C100	C	1.385000	0.718988	1.108481
C101	C	0.885009	0.218994	0.712589
C102	C	1.385009	0.718994	1.212589
C103	C	0.984718	0.119355	0.712576
C104	C	1.484718	0.619355	1.212576
C105	C	0.984709	0.119351	0.608474
C106	C	1.484709	0.619351	1.108474
C107	C	0.934849	0.169170	0.556430
C108	C	1.434849	0.669170	1.056430
H109	H	0.181305	0.052309	-0.000009
H110	H	0.681305	0.552309	0.499991
O111	O	0.830594	-0.344614	-0.000147
O112	O	1.330594	0.155386	0.499853
C113	C	0.822358	-0.391751	-0.085816
C114	C	1.322358	0.108249	0.414184
H115	H	0.882901	-0.408023	-0.114378
H116	H	1.382901	0.091977	0.385622
H117	H	0.787492	-0.447479	-0.066552
H118	H	1.287492	0.052521	0.433448
H119	H	0.790019	-0.357868	-0.145789
H120	H	1.290019	0.142132	0.354211
O121	O	1.063346	-0.071473	-0.000131
O122	O	1.563346	0.428527	0.499869
C123	C	1.071601	-0.024317	-0.085796
C124	C	1.571601	0.475683	0.414204
H125	H	1.011064	-0.008027	-0.114350
H126	H	1.511064	0.491973	0.385650
H127	H	1.106474	0.031400	-0.066532
H128	H	1.606474	0.531400	0.433468
H129	H	1.103940	-0.058191	-0.145776
H130	H	1.603940	0.441809	0.354224
O131	O	1.039147	-0.317177	-0.000197
O132	O	1.539147	0.182823	0.499803
C133	C	1.080626	-0.340022	-0.085834
C134	C	1.580626	0.159978	0.414166
H135	H	1.037242	-0.359872	-0.145705
H136	H	1.537242	0.140128	0.354295
H137	H	1.117336	-0.288172	-0.114583
H138	H	1.617336	0.211828	0.385417
H139	H	1.120840	-0.390495	-0.066465
H140	H	1.620840	0.109505	0.433535
H141	H	0.817978	-0.584370	-0.000014
H142	H	1.317978	-0.084370	0.499986
O143	O	1.085841	-0.608367	-0.000065
O144	O	1.585841	-0.108367	0.499935
C145	C	1.063800	-0.688558	-0.000043
C146	C	1.563800	-0.188558	0.499957
H147	H	1.001909	-0.695797	-0.031352
H148	H	1.501909	-0.195797	0.468648
H149	H	1.106471	-0.722661	-0.048062
H150	H	1.606471	-0.222661	0.451938
H151	H	1.065196	-0.712058	0.079298
H152	H	1.565196	-0.212058	0.579298
H153	H	0.830511	-0.435595	-0.000035
H154	H	1.330511	0.064405	0.499965
H155	H	1.025315	0.078791	0.754956
H156	H	1.525315	0.578791	1.254956
O157	O	0.770187	-0.215164	-0.000155
O158	O	1.270187	0.284836	0.499845
C159	C	0.761949	-0.262304	-0.085820
C160	C	1.261949	0.237696	0.414180
H161	H	0.822492	-0.278586	-0.114376
H162	H	1.322492	0.221414	0.385624
H163	H	0.727074	-0.318026	-0.066556
H164	H	1.227074	0.181974	0.433444
H165	H	0.729619	-0.228419	-0.145799
H166	H	1.229619	0.271581	0.354201
H167	H	0.794364	-0.060571	-0.000017
H168	H	1.294364	0.439429	0.499983
O169	O	0.337136	0.054167	-0.000041
O170	O	0.837136	0.554167	0.499959
C171	C	0.287423	-0.012958	-0.000012
C172	C	0.787423	0.487042	0.499988
H173	H	0.227617	0.002909	-0.031330
H174	H	0.727617	0.502909	0.468670
H175	H	0.314347	-0.060562	-0.048019
H176	H	0.814347	0.439438	0.451981
H177	H	0.280105	-0.035500	0.079333
H178	H	0.780105	0.464500	0.579333
H179	H	1.039169	-0.226064	-0.000008
H180	H	1.539169	0.273936	0.499992
H181	H	0.556319	0.016163	0.000002
H182	H	1.056319	0.516163	0.500002
H183	H	0.164585	0.309649	-0.000021
H184	H	0.664585	0.809649	0.499979
H185	H	1.087852	-0.452303	-0.000010
H186	H	1.587852	0.047697	0.499990
H187	H	1.025277	0.078779	0.245013
H188	H	1.525277	0.578779	0.745013
O189	O	0.836478	0.267398	0.441912
O190	O	1.336478	0.767398	0.941912
C191	C	0.792484	0.311377	0.373649
C192	C	1.292484	0.811377	0.873649
H193	H	0.789454	0.279117	0.299450
H194	H	1.289454	0.779117	0.799450
H195	H	0.730565	0.319147	0.403742
H196	H	1.230565	0.819147	0.903742
H197	H	0.821854	0.371430	0.362558
H198	H	1.321854	0.871430	0.862558
H199	H	1.025283	0.078780	0.433868
H200	H	1.525283	0.578780	0.933868
H201	H	0.705105	0.028701	-0.000000
H202	H	1.205105	0.528701	0.500000
O203	O	1.033156	0.070884	0.558058
O204	O	1.533156	0.570884	1.058058
C205	C	1.077179	0.026927	0.626313
C206	C	1.577179	0.526927	1.126313
H207	H	1.044933	0.023879	0.700532
H208	H	1.544933	0.523879	1.200532
H209	H	1.084989	-0.034987	0.596241
H210	H	1.584989	0.465013	1.096241
H211	H	1.137213	0.056342	0.637359
H212	H	1.637213	0.556342	1.137359
O213	O	0.836503	0.267400	0.763006
O214	O	1.336503	0.767400	1.263006
C215	C	0.792497	0.311375	0.694751
C216	C	1.292497	0.811375	1.194751
H217	H	0.789474	0.279121	0.620546
H218	H	1.289474	0.779121	1.120546
H219	H	0.730577	0.319128	0.724846
H220	H	1.230577	0.819128	1.224846
H221	H	0.821854	0.371435	0.683667
H222	H	1.321854	0.871435	1.183667
O223	O	0.836652	0.267410	0.236731
O224	O	1.336652	0.767410	0.736731
C225	C	0.881923	0.318692	0.176508
C226	C	1.381923	0.818692	0.676508
H227	H	0.941295	0.291537	0.160902
H228	H	1.441295	0.791537	0.660902
H229	H	0.849963	0.328912	0.103310
H230	H	1.349963	0.828912	0.603310
H231	H	0.891117	0.377095	0.216611
H232	H	1.391117	0.877095	0.716611
H233	H	0.313374	0.322180	-0.000021
H234	H	0.813374	0.822180	0.499979
H235	H	0.688384	0.286039	-0.000011
H236	H	1.188384	0.786039	0.499989
H237	H	0.844396	0.259553	0.566110
H238	H	1.344396	0.759553	1.066110
O239	O	0.532553	0.284184	-0.000063
O240	O	1.032553	0.784184	0.499937
C241	C	0.582270	0.351306	-0.000051
C242	C	1.082270	0.851306	0.499949
H243	H	0.642081	0.335437	-0.031364
H244	H	1.142081	0.835437	0.468636
H245	H	0.555358	0.398913	-0.048071
H246	H	1.055358	0.898913	0.451929
H247	H	0.589573	0.373846	0.079288
H248	H	1.089573	0.873846	0.579288
H249	H	0.426872	0.076575	-0.000004
H250	H	0.926872	0.576575	0.499996
H251	H	0.442822	0.261775	-0.000023
H252	H	0.942822	0.761775	0.499977
