data_functionalizedCrystal
_audit_creation_method	'MofGen! by Chris Wilmer'
_symmetry_space_group_name_H-M	'P1'
_symmetry_Int_Tables_number	1
_symmetry_cell_setting	triclinic
loop_
_symmetry_equiv_pos_as_xyz
  x,y,z
_cell_length_a	29.839131
_cell_length_b	16.959455
_cell_length_c	16.959447
_cell_angle_alpha	90.017850
_cell_angle_beta	89.966004
_cell_angle_gamma	89.963810
loop_
_atom_site_label
_atom_site_type_symbol
_atom_site_fract_x
_atom_site_fract_y
_atom_site_fract_z
Zn1	Zn	-0.178907	-1.208287	-0.446908
Zn2	Zn	-0.254040	-1.208154	-0.314721
Zn3	Zn	-0.178918	-1.076109	-0.314743
Zn4	Zn	-0.254004	-1.076031	-0.446858
O5	O	-0.216467	-1.142145	-0.380808
O6	O	-0.188884	-1.318880	-0.429385
O7	O	-0.244095	-1.190615	-0.204113
O8	O	-0.116050	-1.093731	-0.332306
O9	O	-0.244084	-1.318783	-0.332268
O10	O	-0.116041	-1.190842	-0.429406
O11	O	-0.188903	-1.093603	-0.204130
O12	O	-0.188868	-0.965488	-0.332257
O13	O	-0.244022	-1.093598	-0.557475
O14	O	-0.244033	-0.965430	-0.429321
O15	O	-0.188849	-1.190766	-0.557512
O16	O	-0.316902	-1.190539	-0.332219
O17	O	-0.316876	-1.093469	-0.429299
C18	C	-0.216448	-0.936779	-0.380786
C19	C	-0.216451	-0.848922	-0.380796
C20	C	-0.333190	-1.142003	-0.380768
C21	C	-0.383124	-1.142014	-0.380778
C22	C	-0.187705	-0.477452	-0.330361
C23	C	-0.245238	-0.477441	-0.431278
C24	C	-0.245233	-0.559987	-0.431274
C25	C	-0.216464	-0.601269	-0.380813
C26	C	-0.187700	-0.560006	-0.330355
C27	C	-0.274000	-0.601257	-0.481726
C28	C	-0.273997	-0.683808	-0.481724
C29	C	-0.245225	-0.725092	-0.431265
C30	C	-0.216460	-0.683823	-0.380806
C31	C	-0.187691	-0.725105	-0.330344
C32	C	-0.158923	-0.683838	-0.279888
C33	C	-0.158929	-0.601290	-0.279897
C34	C	-0.245219	-0.807640	-0.431257
C35	C	-0.187686	-0.807659	-0.330338
C36	C	-0.692769	-1.192782	-0.330332
C37	C	-0.880442	-1.192879	-0.330362
O38	O	-0.904708	-1.235931	-0.287441
N39	N	-0.903909	-1.142309	-0.380867
C40	C	-0.880455	-1.091715	-0.431371
O41	O	-0.904722	-1.048710	-0.474335
C42	C	-0.692783	-1.091622	-0.431344
C43	C	-0.669318	-1.142190	-0.380830
C44	C	-0.669304	-1.243346	-0.279823
C45	C	-0.622389	-1.243318	-0.279813
C46	C	-0.598938	-1.192726	-0.330311
C47	C	-0.622403	-1.142162	-0.380820
C48	C	-0.669330	-1.041032	-0.481852
C49	C	-0.622409	-1.041014	-0.481842
C50	C	-0.598944	-1.091582	-0.431328
C51	C	-0.552037	-1.091541	-0.431309
N52	N	-0.528570	-1.142112	-0.380804
C53	C	-0.552020	-1.192704	-0.330305
C54	C	-0.978986	-1.091766	-0.431381
C55	C	-1.025904	-1.091788	-0.431387
C56	C	-1.025887	-1.192954	-0.330379
C57	C	-0.978968	-1.192927	-0.330370
C58	C	-0.955519	-1.142336	-0.380876
C59	C	-0.453494	-1.192641	-0.330287
C60	C	-0.406575	-1.192606	-0.330279
C61	C	-0.406596	-1.091444	-0.431290
C62	C	-0.453511	-1.091475	-0.431295
C63	C	-0.476959	-1.142080	-0.380791
O64	O	-0.527742	-1.048519	-0.474214
O65	O	-0.527745	-1.235715	-0.287360
C66	C	-0.739684	-1.192810	-0.330342
C67	C	-0.763149	-1.142245	-0.380851
C68	C	-0.739699	-1.091653	-0.431350
C69	C	-0.810067	-1.142268	-0.380857
C70	C	-0.833518	-1.192860	-0.330358
C71	C	-0.810050	-1.243430	-0.279853
C72	C	-0.763135	-1.243402	-0.279843
C73	C	-0.763166	-1.041083	-0.481854
C74	C	-0.810081	-1.041114	-0.481860
C75	C	-0.833532	-1.091707	-0.431361
C76	C	-0.099289	-1.142310	-0.380864
C77	C	-0.049354	-1.142380	-0.380888
C78	C	-0.216430	-1.142188	-0.586976
C79	C	-0.216414	-1.142206	-0.674833
C80	C	-0.216481	-0.348313	-0.380825
C81	C	-0.216474	-0.436170	-0.380823
C82	C	-0.187631	-1.091765	-1.046323
C83	C	-0.245103	-1.192785	-1.046294
C84	C	-0.245113	-1.192772	-0.963748
C85	C	-0.216382	-1.142253	-0.922486
C86	C	-0.187641	-1.091748	-0.963770
C87	C	-0.273857	-1.243270	-0.922458
C88	C	-0.273869	-1.243258	-0.839907
C89	C	-0.245136	-1.192742	-0.798643
C90	C	-0.216393	-1.142236	-0.839932
C91	C	-0.187662	-1.091718	-0.798670
C92	C	-0.158917	-1.041215	-0.839958
C93	C	-0.158908	-1.041233	-0.922506
C94	C	-0.245145	-1.192724	-0.716095
C95	C	-0.187673	-1.091701	-0.716116
C96	C	-0.216472	-1.142149	-0.175441
C97	C	-0.216361	-1.142284	-0.087585
H98	H	-0.135501	-0.717461	-0.238799
C99	C	-0.953437	-1.247880	-0.275658
C100	C	-0.926452	-1.298495	-0.320452
C101	C	-0.902925	-1.349124	-0.270077
H102	H	-0.974076	-1.278085	-0.245567
H103	H	-0.935137	-1.217680	-0.241198
H104	H	-0.944751	-1.328692	-0.354897
H105	H	-0.905805	-1.268312	-0.350541
H106	H	-0.884624	-1.318924	-0.235617
H107	H	-0.923567	-1.379324	-0.239988
H108	H	-0.884610	-1.383468	-0.300461
H109	H	-1.045005	-1.050603	-0.472513
C110	C	-0.156498	-1.036837	-1.091186
C111	C	-0.181923	-0.986134	-1.138544
C112	C	-0.153259	-0.935517	-1.179875
H113	H	-0.136912	-1.067016	-1.123466
H114	H	-0.139398	-1.006702	-1.054812
H115	H	-0.199015	-1.016266	-1.174914
H116	H	-0.201507	-0.955938	-1.106283
H117	H	-0.136159	-0.905382	-1.143501
H118	H	-0.133675	-0.965703	-1.212151
H119	H	-0.170506	-0.901105	-1.212006
H120	H	-0.268497	-1.233909	-1.079894
H121	H	-0.297425	-0.567639	-0.522803
H122	H	-0.603319	-0.999818	-0.522973
H123	H	-0.268643	-0.841236	-0.472335
H124	H	-0.387495	-1.050249	-0.472403
C125	C	-0.694717	-0.986101	-0.536787
C126	C	-0.664129	-0.941816	-0.581021
C127	C	-0.687498	-0.891211	-0.631648
H128	H	-0.713052	-0.951611	-0.506621
H129	H	-0.712979	-1.016310	-0.571303
H130	H	-0.645875	-0.911609	-0.546510
H131	H	-0.645793	-0.976285	-0.611204
H132	H	-0.705760	-0.921420	-0.666163
H133	H	-0.705832	-0.856727	-0.601475
H134	H	-0.666747	-0.861163	-0.661672
C135	C	-0.381076	-1.247381	-0.275336
C136	C	-0.354195	-1.202643	-0.224610
C137	C	-0.330705	-1.253073	-0.173982
H138	H	-0.362705	-1.281809	-0.305507
H139	H	-0.401750	-1.277503	-0.245219
H140	H	-0.333522	-1.172535	-0.254724
H141	H	-0.372554	-1.168217	-0.194422
H142	H	-0.351380	-1.283194	-0.143865
H143	H	-0.312337	-1.287498	-0.204159
H144	H	-0.312467	-1.222725	-0.139553
C145	C	-0.305006	-1.298074	-0.967398
C146	C	-0.298836	-1.287291	-1.048527
C147	C	-0.327522	-1.337767	-1.089954
H148	H	-0.335208	-1.286499	-0.953943
H149	H	-0.298441	-1.351210	-0.953930
H150	H	-0.305404	-1.234166	-1.061989
H151	H	-0.268640	-1.298871	-1.062005
H152	H	-0.320957	-1.390904	-1.076486
H153	H	-0.357722	-1.326189	-1.076492
H154	H	-0.323337	-1.330463	-1.145004
C155	C	-0.127779	-0.986306	-0.967377
C156	C	-0.153208	-0.935605	-1.014728
C157	C	-0.124549	-0.884989	-1.056070
H158	H	-0.108196	-1.016486	-0.999662
H159	H	-0.110675	-0.956169	-0.931009
H160	H	-0.170304	-0.965738	-1.051092
H161	H	-0.172790	-0.905408	-0.982462
H162	H	-0.107445	-0.854852	-1.019702
H163	H	-0.104968	-0.915175	-1.088351
H164	H	-0.141799	-0.850578	-1.088197
H165	H	-0.829183	-0.999929	-0.522993
H166	H	-0.472617	-1.050301	-0.472430
H167	H	-0.744033	-1.284579	-0.238711
C168	C	-0.127743	-0.556343	-0.225155
C169	C	-0.133914	-0.475215	-0.235950
C170	C	-0.105197	-0.433783	-0.185532
H171	H	-0.097548	-0.569810	-0.236777
H172	H	-0.134280	-0.569795	-0.172004
H173	H	-0.127374	-0.461769	-0.289089
H174	H	-0.164102	-0.461725	-0.224323
H175	H	-0.111733	-0.447235	-0.132381
H176	H	-0.075003	-0.447256	-0.197158
H177	H	-0.109382	-0.378733	-0.192844
C178	C	-0.276279	-1.247594	-0.671170
C179	C	-0.250856	-1.298276	-0.623787
C180	C	-0.279524	-1.348830	-0.582385
H181	H	-0.293400	-1.277754	-0.707478
H182	H	-0.295846	-1.217343	-0.638905
H183	H	-0.231297	-1.328525	-0.656049
H184	H	-0.233737	-1.268138	-0.587464
H185	H	-0.299091	-1.318578	-0.550120
H186	H	-0.296643	-1.378984	-0.618699
H187	H	-0.262279	-1.383219	-0.550226
C188	C	-0.305243	-0.728466	-0.536593
C189	C	-0.330431	-0.674643	-0.580799
C190	C	-0.359214	-0.715753	-0.631362
H191	H	-0.324835	-0.760644	-0.506383
H192	H	-0.288089	-0.760677	-0.571130
H193	H	-0.347584	-0.642445	-0.546267
H194	H	-0.310851	-0.642462	-0.611025
H195	H	-0.342059	-0.747965	-0.665899
H196	H	-0.378802	-0.747931	-0.601146
H197	H	-0.376304	-0.679241	-0.661367
H198	H	-0.297275	-1.284379	-0.806297
H199	H	-0.744076	-0.999886	-0.522978
H200	H	-0.164256	-0.841265	-0.289250
C201	C	-0.478967	-1.247691	-0.275591
C202	C	-0.505843	-1.298364	-0.320399
C203	C	-0.529308	-1.349095	-0.270040
H204	H	-0.497339	-1.217593	-0.241101
H205	H	-0.458277	-1.277842	-0.245532
H206	H	-0.526530	-1.268216	-0.350444
H207	H	-0.487482	-1.328479	-0.354886
H208	H	-0.508618	-1.379246	-0.239982
H209	H	-0.547677	-1.318991	-0.235553
H210	H	-0.547543	-1.383487	-0.300435
C211	C	-0.276543	-0.432670	-0.485973
C212	C	-0.320982	-0.452687	-0.468616
C213	C	-0.349833	-0.411451	-0.518985
H214	H	-0.270059	-0.446195	-0.539126
H215	H	-0.272459	-0.377588	-0.478748
H216	H	-0.325065	-0.507756	-0.475847
H217	H	-0.327480	-0.439159	-0.415471
H218	H	-0.345748	-0.356369	-0.511760
H219	H	-0.343344	-0.424979	-0.572136
H220	H	-0.379987	-0.425020	-0.507211
C221	C	-0.596997	-1.298318	-0.224948
C222	C	-0.627584	-1.342642	-0.180749
C223	C	-0.604214	-1.393330	-0.130208
H224	H	-0.578721	-1.268192	-0.190401
H225	H	-0.578677	-1.332774	-0.255199
H226	H	-0.645897	-1.308190	-0.150501
H227	H	-0.645862	-1.372784	-0.215276
H228	H	-0.585893	-1.427786	-0.160459
H229	H	-0.585938	-1.363197	-0.095666
H230	H	-0.624963	-1.423414	-0.100219
H231	H	-0.688392	-1.284549	-0.238700
C232	C	-1.051434	-1.247911	-0.275694
C233	C	-1.097544	-1.237139	-0.286556
C234	C	-1.121093	-1.287785	-0.236234
H235	H	-1.043845	-1.236484	-0.222519
H236	H	-1.043724	-1.301007	-0.287377
H237	H	-1.105250	-1.184056	-0.274868
H238	H	-1.105146	-1.248572	-0.339721
H239	H	-1.113383	-1.340880	-0.247917
H240	H	-1.113501	-1.276353	-0.183063
H241	H	-1.152381	-1.280488	-0.243602
C242	C	-0.953611	-1.036740	-0.486244
C243	C	-0.984210	-0.992447	-0.530451
C244	C	-0.960854	-0.941737	-0.580987
H245	H	-0.935277	-1.066849	-0.520786
H246	H	-0.935349	-1.002265	-0.455989
H247	H	-1.002465	-1.026917	-0.560704
H248	H	-1.002545	-0.962322	-0.495930
H249	H	-0.942592	-0.907263	-0.550732
H250	H	-0.942521	-0.971853	-0.615524
H251	H	-0.981612	-0.911673	-0.610983
H252	H	-0.829152	-1.284622	-0.238733
C253	C	-0.127742	-0.986452	-0.795011
C254	C	-0.133901	-0.997262	-0.713883
C255	C	-0.105188	-0.946837	-0.672452
H256	H	-0.134279	-0.933304	-0.808435
H257	H	-0.097546	-0.998075	-0.808507
H258	H	-0.164091	-0.985634	-0.700393
H259	H	-0.127361	-1.050400	-0.700437
H260	H	-0.074991	-0.958460	-0.685948
H261	H	-0.111728	-0.893692	-0.685881
H262	H	-0.109360	-0.954170	-0.617402
H263	H	-0.164274	-1.050566	-0.682527
H264	H	-0.164281	-0.443849	-0.289284
