data_functionalizedCrystal
_audit_creation_method	'MofGen! by Chris Wilmer'
_symmetry_space_group_name_H-M	'P1'
_symmetry_Int_Tables_number	1
_symmetry_cell_setting	triclinic
loop_
_symmetry_equiv_pos_as_xyz
  x,y,z
_cell_length_a	31.640172
_cell_length_b	31.640172
_cell_length_c	14.560438
_cell_angle_alpha	90.004997
_cell_angle_beta	59.998293
_cell_angle_gamma	60.004780
loop_
_atom_site_label
_atom_site_type_symbol
_atom_site_fract_x
_atom_site_fract_y
_atom_site_fract_z
Zr1	Zr	0.462536	0.407244	-0.120397
O2	O	0.550712	0.339765	-0.267063
O3	O	0.374366	0.427922	-0.075437
O4	O	0.462534	0.427932	-0.267039
O5	O	0.462543	0.339757	0.075680
O6	O	0.462526	0.497489	-0.267019
O7	O	0.462544	0.339755	-0.075461
O8	O	0.304809	0.497471	0.075722
O9	O	0.620260	0.339774	-0.267061
O10	O	0.410623	0.488660	-0.056246
O11	O	0.410628	0.436752	0.056534
O12	O	0.514435	0.436764	-0.169053
O13	O	0.514441	0.384855	-0.056273
Zr14	Zr	0.462520	0.518182	0.120687
Zr15	Zr	0.462522	0.518180	-0.120365
Zr16	Zr	0.462534	0.407247	0.120655
Zr17	Zr	0.573456	0.407259	-0.120394
Zr18	Zr	0.351600	0.518167	0.120685
O19	O	0.550690	0.497505	0.075728
O20	O	0.550692	0.497501	-0.267017
O21	O	0.550710	0.339769	0.075682
O22	O	0.374344	0.585662	0.267353
O23	O	0.374346	0.585658	-0.075392
O24	O	0.374363	0.427926	0.267308
O25	O	0.462513	0.585670	-0.075390
O26	O	0.462521	0.497495	0.267330
O27	O	0.462530	0.427938	0.267310
O28	O	0.462512	0.585671	0.075751
O29	O	0.620249	0.427953	-0.267036
O30	O	0.304807	0.497473	0.267326
O31	O	0.304796	0.585652	0.267352
O32	O	0.304798	0.585650	0.075747
O33	O	0.620258	0.339777	-0.075457
O34	O	0.620247	0.427955	-0.075431
O35	O	0.410621	0.488663	0.169344
O36	O	0.410615	0.540571	0.056564
O37	O	0.514428	0.488674	-0.056243
O38	O	0.514433	0.436766	0.056536
C39	C	0.323784	0.462694	0.000142
C40	C	0.276695	0.462688	0.000141
C41	C	0.462545	0.323950	0.000105
C42	C	0.462551	0.276855	0.000091
C43	C	0.462530	0.462710	-0.301374
C44	C	0.462531	0.462708	-0.403707
C45	C	-0.015350	0.489819	-0.058714
C46	C	-0.192346	0.489830	-0.058714
O47	O	-0.215253	0.512893	-0.108740
N48	N	-0.214472	0.462734	0.000154
C49	C	-0.192349	0.435636	0.059032
O50	O	-0.215234	0.412593	0.109112
C51	C	-0.015357	0.435628	0.059037
C52	C	0.006771	0.462722	0.000156
C53	C	0.006778	0.516911	-0.117589
C54	C	0.051026	0.516906	-0.117594
C55	C	0.073147	0.489809	-0.058723
C56	C	0.051020	0.462717	0.000152
C57	C	0.006762	0.408534	0.117920
C58	C	0.051012	0.408535	0.117919
C59	C	0.073140	0.435629	0.059038
C60	C	0.117389	0.435614	0.059017
N61	N	0.139515	0.462711	0.000150
C62	C	0.117394	0.489808	-0.058721
C63	C	-0.285271	0.435640	0.059023
C64	C	-0.329518	0.435641	0.059020
C65	C	-0.329513	0.489837	-0.058724
C66	C	-0.285262	0.489832	-0.058727
C67	C	-0.263145	0.462737	0.000155
C68	C	0.210320	0.489794	-0.058726
C69	C	0.254574	0.489785	-0.058730
C70	C	0.254562	0.435592	0.059019
C71	C	0.210314	0.435599	0.059017
C72	C	0.188193	0.462704	0.000143
O73	O	0.140319	0.412568	0.109028
O74	O	0.140278	0.512856	-0.108773
C75	C	-0.059598	0.489824	-0.058710
C76	C	-0.081726	0.462732	0.000165
C77	C	-0.059605	0.435635	0.059036
C78	C	-0.125973	0.462733	0.000163
C79	C	-0.148094	0.489831	-0.058708
C80	C	-0.125968	0.516927	-0.117575
C81	C	-0.081719	0.516922	-0.117580
C82	C	-0.081731	0.408539	0.117903
C83	C	-0.125980	0.408546	0.117902
C84	C	-0.148100	0.435643	0.059032
C85	C	0.601272	0.462732	0.000149
C86	C	0.648361	0.462739	0.000150
C87	C	0.408333	0.011938	0.059052
C88	C	0.408323	-0.165047	0.059074
O89	O	0.362237	-0.164894	0.109194
N90	N	0.462511	-0.214266	0.000189
C91	C	0.516707	-0.219238	-0.058701
O92	O	0.562797	-0.265163	-0.108777
C93	C	0.516716	-0.042254	-0.058716
C94	C	0.462524	0.006965	0.000165
C95	C	0.354145	0.061155	0.117929
C96	C	0.354149	0.105398	0.117917
C97	C	0.408339	0.100425	0.059030
C98	C	0.462527	0.051209	0.000153
C99	C	0.570911	-0.047226	-0.117598
C100	C	0.570908	-0.002975	-0.117594
C101	C	0.516716	0.046244	-0.058714
C102	C	0.516721	0.090479	-0.058745
N103	N	0.462533	0.139698	0.000140
C104	C	0.408342	0.144671	0.059028
C105	C	0.516698	-0.312156	-0.058690
C106	C	0.516695	-0.356402	-0.058689
C107	C	0.408311	-0.302207	0.059089
C108	C	0.408314	-0.257961	0.059079
C109	C	0.462509	-0.262936	0.000195
C110	C	0.408352	0.237583	0.058999
C111	C	0.408360	0.281828	0.058979
C112	C	0.516744	0.227630	-0.058793
C113	C	0.516736	0.183389	-0.058778
C114	C	0.462536	0.188369	0.000127
O115	O	0.562783	0.090365	-0.108829
O116	O	0.362258	0.190600	0.109117
C117	C	0.408330	-0.032305	0.059063
C118	C	0.462518	-0.081522	0.000187
C119	C	0.516709	-0.086495	-0.058701
C120	C	0.462516	-0.125768	0.000189
C121	C	0.408325	-0.120794	0.059076
C122	C	0.354136	-0.071575	0.117962
C123	C	0.354139	-0.027332	0.117951
C124	C	0.570897	-0.135714	-0.117586
C125	C	0.570890	-0.179955	-0.117571
C126	C	0.516699	-0.174982	-0.058684
C127	C	0.462510	0.601477	0.000185
C128	C	0.462504	0.648572	0.000199
C129	C	0.516719	0.435619	-0.510668
C130	C	0.516716	0.435626	-0.606816
C131	C	0.408333	0.489810	-0.489031
C132	C	0.408336	0.489807	-0.392884
C133	C	0.462526	0.462717	0.301665
C134	C	0.462525	0.462718	0.403998
C135	C	0.323766	0.601457	0.000182
C136	C	0.276672	0.648546	0.000195
C137	C	0.323781	0.462698	0.301661
C138	C	0.276692	0.462692	0.403993
C139	C	0.323764	0.601461	0.301702
C140	C	0.276669	0.648551	0.404047
C141	C	0.601292	0.323965	-0.301411
C142	C	0.648387	0.276876	-0.403756
C143	C	0.601290	0.323969	0.000109
C144	C	0.648384	0.276880	0.000096
C145	C	0.601274	0.462729	-0.301371
C146	C	0.648364	0.462734	-0.403703
C147	C	0.254559	0.643562	-0.058695
C148	C	0.210315	0.687803	-0.058706
C149	C	0.188181	0.737026	0.000180
C150	C	0.210298	0.742009	0.059072
C151	C	0.254544	0.697769	0.059075
C152	C	0.254574	0.489787	0.510945
C153	C	0.210335	0.489780	0.607106
C154	C	0.188211	0.462681	0.596312
C155	C	0.210333	0.435583	0.489349
C156	C	0.254575	0.435588	0.393191
C157	C	0.254549	0.697765	0.393240
C158	C	0.210304	0.742015	0.489395
C159	C	0.188177	0.737050	0.596356
C160	C	0.210300	0.687830	0.607161
C161	C	0.254547	0.643581	0.511007
C162	C	0.670512	0.227662	-0.392949
C163	C	0.714771	0.183412	-0.489104
C164	C	0.736901	0.188377	-0.596066
C165	C	0.714774	0.237596	-0.606871
C166	C	0.670519	0.281845	-0.510717
C167	C	0.670501	0.281864	0.058976
C168	C	0.714757	0.237624	0.058960
C169	C	0.736893	0.188400	0.000070
C170	C	0.714774	0.183417	-0.058817
C171	C	0.670522	0.227657	-0.058807
C172	C	0.670474	0.489838	-0.392873
C173	C	0.714713	0.489853	-0.489016
C174	C	0.736845	0.462761	-0.595986
C175	C	0.714731	0.435656	-0.606813
C176	C	0.670489	0.435644	-0.510672
H177	H	0.272591	0.511847	-0.106681
N178	N	0.278424	0.590475	-0.122211
H179	H	0.322841	0.570911	-0.181460
H180	H	0.270680	0.570953	-0.068135
N181	N	-0.353379	0.519069	-0.122212
H182	H	-0.319625	0.504863	-0.204585
H183	H	-0.384775	0.514949	-0.113185
N184	N	0.140488	0.462688	0.700038
H185	H	0.103769	0.478107	0.700095
H186	H	0.155935	0.425983	0.700031
N187	N	0.186467	0.682422	-0.122228
H188	H	0.207202	0.644525	-0.159519
H189	H	0.142050	0.699597	-0.068171
H190	H	0.772870	0.462774	-0.674262
N191	N	0.186479	0.519010	0.722463
H192	H	0.207205	0.536181	0.714700
H193	H	0.142060	0.546245	0.764933
N194	N	0.575172	0.406399	-0.522347
H195	H	0.577585	0.431250	-0.485070
H196	H	0.577562	0.379128	-0.485111
N197	N	0.140459	0.784740	0.000169
H198	H	0.129812	0.774109	-0.046074
H199	H	0.103770	0.806016	0.079945
N200	N	0.738569	0.519081	-0.477331
H201	H	0.730862	0.546354	-0.514573
H202	H	0.717829	0.536203	-0.394956
H203	H	0.732804	0.143334	-0.106763
H204	H	0.152148	0.773084	0.674642
N205	N	0.646632	0.334952	0.122496
H206	H	0.667366	0.331388	0.159784
H207	H	0.654329	0.354491	0.068436
H208	H	0.560865	0.223589	-0.106741
N209	N	0.738604	0.406436	-0.722192
H210	H	0.769988	0.410558	-0.781444
H211	H	0.756940	0.368544	-0.731116
H212	H	0.272559	0.701817	0.306155
N213	N	0.186461	0.406364	0.477715
H214	H	0.220213	0.368460	0.435234
H215	H	0.155068	0.410520	0.554903
H216	H	0.192270	0.782093	0.107014
H217	H	0.652516	0.223592	-0.106751
N218	N	0.278416	0.406372	0.277839
H219	H	0.309799	0.410484	0.218551
H220	H	0.296742	0.368481	0.268922
N221	N	0.349907	0.334914	0.122501
H222	H	0.358128	0.362192	0.113562
H223	H	0.326242	0.339007	0.091592
N224	N	0.186469	0.519020	-0.122239
H225	H	0.142054	0.546290	-0.068242
H226	H	0.207250	0.536145	-0.159536
H227	H	0.364207	0.511869	-0.305786
H228	H	0.652496	0.223609	-0.305864
H229	H	0.364209	0.511872	-0.480232
N230	N	0.295686	-0.066215	0.181466
H231	H	0.303914	-0.101715	0.172529
H232	H	0.272019	-0.046647	0.263810
H233	H	0.272551	0.603511	0.519823
H234	H	0.652506	0.321916	-0.519530
N235	N	0.575162	0.406423	-0.722182
H236	H	0.609492	0.389261	-0.714443
H237	H	0.577535	0.379183	-0.764676
N238	N	0.186431	0.682479	0.722530
H239	H	0.155043	0.717981	0.781794
H240	H	0.168103	0.662915	0.731437
H241	H	0.272542	0.701834	0.107037
H242	H	-0.267269	0.413575	0.106975
N243	N	0.575144	-0.409486	-0.122196
H244	H	0.577565	-0.429057	-0.181450
H245	H	0.609438	-0.405874	-0.159423
N246	N	0.646599	0.519067	-0.277502
H247	H	0.654301	0.494221	-0.234983
H248	H	0.667329	0.536240	-0.285336
H249	H	0.732759	0.241691	0.106917
H250	H	0.652492	0.413571	-0.519505
H251	H	0.069039	0.538970	-0.165535
N252	N	0.738629	0.130330	-0.477436
H253	H	0.717887	0.133903	-0.395084
H254	H	0.730937	0.110784	-0.514775
N255	N	-0.353378	0.406415	0.122517
H256	H	-0.332649	0.389252	0.159812
H257	H	-0.397795	0.431294	0.181717
H258	H	0.272583	0.511854	0.519755
N259	N	0.738642	0.242949	-0.722237
H260	H	0.783057	0.225802	-0.764755
H261	H	0.730904	0.225796	-0.764658
N262	N	0.186447	0.795097	0.477726
H263	H	0.207176	0.791524	0.395375
H264	H	0.142029	0.814634	0.515063
H265	H	0.772935	0.152342	-0.674351
H266	H	-0.011231	0.538979	-0.165527
N267	N	0.784622	0.140686	0.000065
H268	H	0.795270	0.151317	0.046307
H269	H	0.769194	0.119405	0.033545
H270	H	-0.267248	0.511895	-0.106672
H271	H	0.069017	0.386469	0.165867
N272	N	-0.017106	0.379319	0.181448
H273	H	0.016648	0.341415	0.150572
H274	H	-0.035467	0.393582	0.263797
N275	N	0.186447	0.406373	0.122505
H276	H	0.220202	0.368469	0.091607
H277	H	0.168084	0.420622	0.204861
N278	N	0.278425	0.406367	0.122513
H279	H	0.309812	0.410480	0.113576
H280	H	0.244631	0.420597	0.204856
H281	H	-0.063706	0.538984	-0.165526
H282	H	-0.143984	0.538989	-0.165515
N283	N	-0.149847	0.379324	0.181418
H284	H	-0.116094	0.341420	0.150535
H285	H	-0.168209	0.393582	0.263769
N286	N	-0.057877	0.379305	0.181398
H287	H	-0.013462	0.352037	0.127389
H288	H	-0.065614	0.404182	0.240662
N289	N	0.349895	0.242958	0.122531
H290	H	0.315572	0.280853	0.159821
H291	H	0.347531	0.225778	0.068474
H292	H	0.310014	0.065213	0.165888
N293	N	0.295698	0.158481	0.181421
H294	H	0.261373	0.154910	0.218722
H295	H	0.293332	0.178026	0.240616
N296	N	0.349865	-0.204877	0.122582
H297	H	0.315538	-0.208446	0.159881
H298	H	0.347500	-0.185334	0.181780
H299	H	0.364187	-0.298164	0.107030
H300	H	0.310010	0.012741	0.165900
H301	H	0.560832	-0.316216	-0.106649
H302	H	0.615040	-0.087296	-0.165543
H303	H	0.560864	0.143312	-0.106737
N304	N	0.629362	-0.008343	-0.181104
H305	H	0.663688	-0.046237	-0.218400
H306	H	0.631728	0.008829	-0.240305
H307	H	0.615023	-0.220030	-0.165530
N308	N	0.629349	-0.141083	-0.181114
H309	H	0.663672	-0.178978	-0.218415
H310	H	0.631708	-0.123911	-0.240312
