data_functionalizedCrystal
_audit_creation_method	'MofGen! by Chris Wilmer'
_symmetry_space_group_name_H-M	'P1'
_symmetry_Int_Tables_number	1
_symmetry_cell_setting	triclinic
loop_
_symmetry_equiv_pos_as_xyz
  x,y,z
_cell_length_a	14.519709
_cell_length_b	11.026607
_cell_length_c	10.065875
_cell_angle_alpha	100.731764
_cell_angle_beta	81.242070
_cell_angle_gamma	96.133081
loop_
_atom_site_label
_atom_site_type_symbol
_atom_site_fract_x
_atom_site_fract_y
_atom_site_fract_z
O1	O	1.260605	0.141346	-0.113307
O2	O	1.593938	0.474680	0.220027
O3	O	1.927272	0.808013	0.553360
O4	O	0.995219	0.160080	-0.113348
O5	O	1.328553	0.493413	0.219986
O6	O	1.661886	0.826746	0.553319
O7	O	1.105917	-0.025988	-0.113326
O8	O	1.439250	0.307346	0.220008
O9	O	1.772583	0.640679	0.553341
O10	O	1.149907	0.327413	-0.113329
O11	O	1.483241	0.660747	0.220005
O12	O	1.816574	0.994080	0.553338
O13	O	1.084832	0.009635	0.113659
O14	O	1.418165	0.342969	0.446992
O15	O	1.751499	0.676302	0.780326
O16	O	0.974135	0.195703	0.113637
O17	O	1.307468	0.529036	0.446970
O18	O	1.640801	0.862369	0.780304
O19	O	1.239520	0.176969	0.113678
O20	O	1.572853	0.510303	0.447011
O21	O	1.906187	0.843636	0.780344
Zn22	Zn	1.103480	0.191992	0.149696
Zn23	Zn	1.436813	0.525325	0.483029
Zn24	Zn	1.770146	0.858659	0.816363
Zn25	Zn	1.131260	0.145057	-0.149366
Zn26	Zn	1.464593	0.478390	0.183967
Zn27	Zn	1.797926	0.811724	0.517301
O28	O	1.128823	0.363037	0.113656
O29	O	1.462156	0.696370	0.446989
O30	O	1.795489	1.029703	0.780322
C31	C	1.087259	-0.053405	0.000164
C32	C	1.420592	0.279928	0.333497
C33	C	1.753926	0.613262	0.666830
C34	C	1.063067	-0.188173	0.000155
C35	C	1.396401	0.145160	0.333488
C36	C	1.729734	0.478494	0.666822
C37	C	0.950174	0.177017	0.000139
C38	C	1.283507	0.510350	0.333473
C39	C	1.616840	0.843684	0.666806
C40	C	0.847363	0.174397	0.000123
C41	C	1.180696	0.507731	0.333457
C42	C	1.514029	0.841064	0.666790
C43	C	1.129866	-0.261832	0.000163
C44	C	1.463199	0.071501	0.333497
C45	C	1.796533	0.404834	0.666830
C46	C	1.104865	-0.401122	0.000155
C47	C	1.438198	-0.067789	0.333488
C48	C	1.771531	0.265544	0.666821
C49	C	0.470874	0.164772	0.000186
C50	C	0.804207	0.498106	0.333519
C51	C	1.137540	0.831439	0.666852
C52	C	0.575624	0.167445	0.000168
C53	C	0.908957	0.500778	0.333501
C54	C	1.242291	0.834112	0.666835
C55	C	0.659115	0.169584	0.000153
C56	C	0.992448	0.502918	0.333487
C57	C	1.325782	0.836251	0.666820
C58	C	0.763872	0.172258	0.000138
C59	C	1.097205	0.505592	0.333471
C60	C	1.430539	0.838925	0.666805
C61	C	1.284566	0.160032	0.000188
C62	C	1.617899	0.493365	0.333521
C63	C	1.951233	0.826698	0.666854
C64	C	1.387378	0.162650	0.000195
C65	C	1.720711	0.495983	0.333528
C66	C	2.054044	0.829316	0.666861
C67	C	1.147480	0.390453	0.000163
C68	C	1.480814	0.723787	0.333497
C69	C	1.814147	1.057120	0.666830
C70	C	1.171673	0.525220	0.000163
C71	C	1.505006	0.858553	0.333496
C72	C	1.838340	1.191887	0.666830
N73	N	1.084527	0.224023	0.353798
N74	N	1.417860	0.557356	0.687131
N75	N	1.751194	0.890690	1.020465
N76	N	1.150218	0.113016	-0.353468
N77	N	1.483551	0.446350	-0.020134
N78	N	1.816885	0.779683	0.313199
C79	C	1.124658	0.156194	0.421585
C80	C	1.457992	0.489527	0.754918
C81	C	1.791325	0.822861	1.088251
C82	C	1.110081	0.180855	0.578749
C83	C	1.443414	0.514189	0.912082
C84	C	1.776747	0.847522	1.245416
H85	H	1.205564	-0.221773	0.000184
H86	H	1.538897	0.111560	0.333517
H87	H	1.872230	0.444893	0.666850
H88	H	1.039372	0.300348	0.412115
H89	H	1.372706	0.633681	0.745448
H90	H	1.706039	0.967014	1.078782
Br91	Br	1.199631	0.028665	0.324398
Br92	Br	1.532964	0.361998	0.657732
Br93	Br	1.866298	0.695332	0.991065
Br94	Br	1.225742	-0.013929	0.549355
Br95	Br	1.559075	0.319404	0.882688
Br96	Br	1.892409	0.652738	1.216022
H97	H	1.247386	-0.434746	0.000072
H98	H	1.580719	-0.101413	0.333405
H99	H	1.914053	0.231921	0.666739
H100	H	1.029162	-0.441175	0.000134
H101	H	1.362495	-0.107842	0.333467
H102	H	1.695829	0.225491	0.666801
H103	H	0.987370	-0.228232	0.000135
H104	H	1.320703	0.105102	0.333468
H105	H	1.654037	0.438435	0.666801
H106	H	1.064923	0.257185	0.637061
H107	H	1.398257	0.590518	0.970394
H108	H	1.731590	0.923851	1.303728
