data_functionalizedCrystal
_audit_creation_method	'MofGen! by Chris Wilmer'
_symmetry_space_group_name_H-M	'P1'
_symmetry_Int_Tables_number	1
_symmetry_cell_setting	triclinic
loop_
_symmetry_equiv_pos_as_xyz
  x,y,z
_cell_length_a	16.625548
_cell_length_b	13.897448
_cell_length_c	16.625548
_cell_angle_alpha	89.991335
_cell_angle_beta	90.004750
_cell_angle_gamma	89.981240
loop_
_atom_site_label
_atom_site_type_symbol
_atom_site_fract_x
_atom_site_fract_y
_atom_site_fract_z
Zn1	Zn	1.232581	0.384165	0.455913
Zn2	Zn	1.732581	0.884165	0.955913
Zn3	Zn	1.232533	0.545425	0.321082
Zn4	Zn	1.732533	1.045425	0.821082
Zn5	Zn	1.097780	0.384149	0.321094
Zn6	Zn	1.597780	0.884149	0.821094
Zn7	Zn	1.097725	0.545423	0.455872
Zn8	Zn	1.597725	1.045423	0.955872
O9	O	1.165155	0.464791	0.388490
O10	O	1.665155	0.964791	0.888490
O11	O	1.345407	0.405565	0.438040
O12	O	1.845407	0.905565	0.938040
O13	O	1.214661	0.524026	0.208252
O14	O	1.714661	1.024026	0.708252
O15	O	1.115705	0.249170	0.339000
O16	O	1.615705	0.749170	0.839000
O17	O	1.345372	0.524042	0.338980
O18	O	1.845372	1.024042	0.838980
O19	O	1.214743	0.249182	0.438051
O20	O	1.714743	0.749182	0.938051
O21	O	1.115659	0.405537	0.208260
O22	O	1.615659	0.905537	0.708260
O23	O	0.984941	0.405535	0.338960
O24	O	1.484941	0.905535	0.838960
O25	O	1.115611	0.524038	0.568710
O26	O	1.615611	1.024038	1.068710
O27	O	0.984900	0.524022	0.437981
O28	O	1.484900	1.024022	0.937981
O29	O	1.214689	0.405563	0.568740
O30	O	1.714689	0.905563	1.068740
O31	O	1.214607	0.680407	0.338940
O32	O	1.714607	1.180407	0.838940
O33	O	1.115564	0.680405	0.437970
O34	O	1.615564	1.180405	0.937970
C35	C	1.165096	0.715405	0.388467
C36	C	1.665096	1.215405	0.888467
C37	C	1.165145	0.822619	0.388484
C38	C	1.665145	1.322619	0.888484
C39	C	0.955664	0.464777	0.388468
C40	C	1.455664	0.964777	0.888468
C41	C	0.866043	0.464794	0.388477
C42	C	1.366043	0.964794	0.888477
C43	C	1.165149	0.464802	0.598799
C44	C	1.665149	0.964802	1.098799
C45	C	1.165147	0.464807	0.688420
C46	C	1.665147	0.964807	1.188420
C47	C	0.537867	0.464801	0.388512
C48	C	1.037867	0.964801	0.888512
C49	C	0.629176	0.464796	0.388500
C50	C	1.129176	0.964796	0.888500
C51	C	0.701952	0.464798	0.388494
C52	C	1.201952	0.964798	0.888494
C53	C	0.793266	0.464793	0.388483
C54	C	1.293266	0.964793	0.888483
C55	C	1.375464	0.464805	0.388514
C56	C	1.875464	0.964805	0.888514
C57	C	1.465085	0.464812	0.388523
C58	C	1.965085	0.964812	0.888523
C59	C	1.165236	0.213198	0.388532
C60	C	1.665236	0.713198	0.888532
C61	C	1.165270	0.105984	0.388549
C62	C	1.665270	0.605984	0.888549
C63	C	1.165229	1.018914	0.388535
C64	C	1.665229	1.518914	0.888535
C65	C	1.165180	0.909682	0.388509
C66	C	1.665180	1.409682	0.888509
C67	C	1.165144	0.464811	0.761203
C68	C	1.665144	0.964811	1.261203
C69	C	1.165143	0.464808	0.852511
C70	C	1.665143	0.964808	1.352511
C71	C	1.165147	0.464800	0.925288
C72	C	1.665147	0.964800	1.425288
C73	C	1.165147	0.464797	1.016602
C74	C	1.665147	0.964797	1.516602
C75	C	1.165153	0.464799	1.179000
C76	C	1.665153	0.964799	1.679000
C77	C	1.165151	0.464789	1.089378
C78	C	1.665151	0.964789	1.589378
