data_functionalizedCrystal
_audit_creation_method	'MofGen! by Chris Wilmer'
_symmetry_space_group_name_H-M	'P1'
_symmetry_Int_Tables_number	1
_symmetry_cell_setting	triclinic
loop_
_symmetry_equiv_pos_as_xyz
  x,y,z
_cell_length_a	15.297475
_cell_length_b	18.050589
_cell_length_c	18.050583
_cell_angle_alpha	90.028091
_cell_angle_beta	99.683815
_cell_angle_gamma	80.331321
loop_
_atom_site_label
_atom_site_type_symbol
_atom_site_fract_x
_atom_site_fract_y
_atom_site_fract_z
Zn1	Zn	1.379151	-0.492398	0.616082
Zn2	Zn	1.379034	-0.616586	0.491885
Zn3	Zn	1.228291	-0.470908	0.470451
Zn4	Zn	1.228237	-0.595019	0.594587
O5	O	1.303678	-0.543728	0.543251
O6	O	1.505380	-0.526891	0.617574
O7	O	1.359011	-0.597293	0.385113
O8	O	1.248375	-0.369844	0.489795
O9	O	1.505294	-0.618131	0.526327
O10	O	1.359211	-0.385633	0.596790
O11	O	1.248261	-0.490264	0.369366
O12	O	1.102039	-0.469352	0.468951
O13	O	1.248282	-0.581375	0.701367
O14	O	1.101999	-0.560537	0.560153
O15	O	1.359158	-0.505979	0.717159
O16	O	1.358959	-0.717639	0.505483
O17	O	1.248168	-0.701795	0.580938
C18	C	1.069285	-0.510273	0.509894
C19	C	0.969011	-0.495978	0.495642
C20	C	1.303569	-0.736664	0.543223
C21	C	1.303605	-0.819215	0.543248
C22	C	0.686371	-0.645897	0.645119
C23	C	0.780584	-0.659333	0.658508
C24	C	0.827695	-0.618495	0.617793
C25	C	0.780585	-0.564220	0.563686
C26	C	0.686363	-0.550787	0.550291
C27	C	0.827687	-0.523385	0.522965
C28	C	0.780576	-0.469110	0.468858
C29	C	0.686364	-0.455679	0.455467
C30	C	0.639252	-0.496516	0.496182
C31	C	0.921909	-0.536818	0.536360
C32	C	0.921901	-0.441708	0.441532
C33	C	0.827688	-0.428272	0.428143
C34	C	1.243417	-1.010085	0.584271
C35	C	1.221427	-1.056393	0.513377
C36	C	1.303694	-0.970358	0.543270
C37	C	1.325728	-1.071138	0.614179
C38	C	1.303778	-1.116355	0.543298
C39	C	1.281661	-1.015573	0.472334
C40	C	1.386000	-1.030319	0.573187
C41	C	1.364042	-1.076609	0.502250
C42	C	1.303643	-0.886253	0.543255
C43	C	1.303829	-1.200459	0.543305
C44	C	1.538986	-0.577314	0.576739
C45	C	1.639261	-0.591626	0.591009
C46	C	1.303727	-0.543668	0.736964
C47	C	1.303748	-0.543643	0.819513
C48	C	1.303812	-0.350041	0.543299
C49	C	1.303869	-0.267503	0.543319
C50	C	1.303681	-0.543741	0.350300
C51	C	1.303835	-0.543582	0.267776
C52	C	1.364099	-0.502601	1.076934
C53	C	1.386113	-0.573505	1.030656
C54	C	1.303806	-0.543604	1.116641
C55	C	1.281806	-0.472729	1.015840
C56	C	1.303780	-0.543620	0.970653
C57	C	1.325863	-0.614550	1.071457
C58	C	1.221518	-0.513723	1.056639
C59	C	1.243501	-0.584670	1.010379
C60	C	1.303824	-0.543594	1.200742
C61	C	1.303762	-0.543637	0.886553
H62	H	0.904407	-0.629437	0.628698
H63	H	0.562537	-0.485578	0.485285
H64	H	0.818934	-0.703525	0.702560
H65	H	1.263210	-0.412785	0.991514
H66	H	1.415052	-1.105404	0.467540
O67	O	1.138471	-0.483620	1.070654
C68	C	0.980736	-0.492011	1.051364
C69	C	1.074730	-0.526179	1.035413
H70	H	0.929179	-0.526415	1.022894
H71	H	0.962010	-0.431554	1.028445
H72	H	0.981450	-0.492797	1.114616
H73	H	1.074088	-0.525447	0.972173
H74	H	1.093419	-0.586619	1.058384
O75	O	1.182669	-0.626043	0.975881
C76	C	1.113897	-0.672087	0.858819
C77	C	1.182798	-0.625194	0.897792
H78	H	1.113992	-0.671429	0.795680
H79	H	1.043938	-0.647130	0.870006
H80	H	1.132798	-0.732469	0.881935
H81	H	1.163981	-0.564804	0.874699
H82	H	1.252738	-0.650212	0.886608
O83	O	0.640748	-0.685645	0.684713
C84	C	0.650683	-0.781351	0.780227
C85	C	0.702464	-0.736402	0.735420
H86	H	0.700558	-0.822387	0.821245
H87	H	0.606560	-0.813902	0.739833
H88	H	0.606586	-0.740994	0.812812
H89	H	0.746610	-0.776706	0.702832
H90	H	0.746530	-0.703841	0.775852
H91	H	0.648009	-0.411492	0.411402
O92	O	0.781781	-0.375605	0.375585
C93	C	0.636627	-0.312736	0.312962
C94	C	0.688504	-0.372413	0.372493
H95	H	0.561205	-0.310125	0.310454
H96	H	0.655046	-0.328331	0.255658
H97	H	0.655236	-0.255529	0.328742
H98	H	0.669923	-0.429642	0.356784
H99	H	0.670082	-0.356754	0.429782
O100	O	0.967625	-0.589448	0.589020
C101	C	0.996446	-0.629792	0.719381
C102	C	0.944634	-0.570123	0.659817
H103	H	0.977863	-0.614197	0.776631
H104	H	1.071889	-0.632380	0.722030
H105	H	0.977898	-0.687009	0.703561
H106	H	0.963107	-0.512874	0.675594
H107	H	0.869204	-0.567601	0.657179
O108	O	1.468942	-1.016195	0.603508
C109	C	1.585925	-1.028534	0.712530
C110	C	1.491978	-1.044563	0.678280
H111	H	1.604587	-1.051476	0.772983
H112	H	1.585267	-0.965289	0.711767
H113	H	1.637504	-1.057019	0.678170
H114	H	1.440346	-1.016126	0.712612
H115	H	1.492710	-1.107819	0.679031
H116	H	1.192367	-0.981148	0.618874
O117	O	0.967794	-0.402077	0.402067
C118	C	1.112940	-0.380654	0.380644
C119	C	1.061072	-0.425569	0.425401
H120	H	1.188364	-0.399642	0.399482
H121	H	1.094517	-0.318143	0.391169
H122	H	1.094328	-0.390961	0.318101
H123	H	1.079656	-0.415325	0.487958
H124	H	1.079499	-0.488065	0.414813
H125	H	1.262978	-0.991351	0.412350
O126	O	1.138381	-1.070481	0.483312
C127	C	0.980908	-1.052275	0.492481
C128	C	1.074911	-1.036284	0.526610
H129	H	0.929564	-1.024623	0.527463
H130	H	0.981857	-1.115563	0.492303
H131	H	0.961702	-1.028434	0.432367
H132	H	1.094174	-1.060079	0.586736
H133	H	1.073912	-0.972991	0.526730
H134	H	1.344331	-1.095438	0.674135
H135	H	1.455690	-0.598787	1.018854
H136	H	1.415137	-0.467977	1.105884
H137	H	1.344560	-0.674521	1.095704
