data_functionalizedCrystal
_audit_creation_method	'MofGen! by Chris Wilmer'
_symmetry_space_group_name_H-M	'P1'
_symmetry_Int_Tables_number	1
_symmetry_cell_setting	triclinic
loop_
_symmetry_equiv_pos_as_xyz
  x,y,z
_cell_length_a	14.044191
_cell_length_b	14.044220
_cell_length_c	13.101039
_cell_angle_alpha	93.667477
_cell_angle_beta	86.337551
_cell_angle_gamma	93.190327
loop_
_atom_site_label
_atom_site_type_symbol
_atom_site_fract_x
_atom_site_fract_y
_atom_site_fract_z
O1	O	1.281976	0.225377	-0.085169
O2	O	1.531976	0.475377	0.164831
O3	O	1.781976	0.725377	0.414831
O4	O	2.031976	0.975377	0.664831
O5	O	1.005305	0.217064	-0.085182
O6	O	1.255305	0.467064	0.164818
O7	O	1.505305	0.717064	0.414818
O8	O	1.755305	0.967064	0.664818
O9	O	1.139487	0.082885	-0.085166
O10	O	1.389487	0.332885	0.164834
O11	O	1.639487	0.582885	0.414834
O12	O	1.889487	0.832885	0.664834
O13	O	1.147794	0.359556	-0.085186
O14	O	1.397794	0.609556	0.164814
O15	O	1.647794	0.859556	0.414814
O16	O	1.897794	1.109556	0.664814
O17	O	1.129861	0.092530	0.085263
O18	O	1.379861	0.342530	0.335263
O19	O	1.629861	0.592530	0.585263
O20	O	1.879861	0.842530	0.835263
O21	O	0.995679	0.226708	0.085247
O22	O	1.245679	0.476708	0.335247
O23	O	1.495679	0.726708	0.585247
O24	O	1.745679	0.976708	0.835247
O25	O	1.272350	0.235022	0.085259
O26	O	1.522350	0.485022	0.335259
O27	O	1.772350	0.735022	0.585259
O28	O	2.022350	0.985022	0.835259
Zn29	Zn	1.132486	0.232396	0.112312
Zn30	Zn	1.382486	0.482396	0.362312
Zn31	Zn	1.632486	0.732396	0.612312
Zn32	Zn	1.882486	0.982396	0.862312
Zn33	Zn	1.145169	0.219689	-0.112235
Zn34	Zn	1.395169	0.469689	0.137765
Zn35	Zn	1.645169	0.719689	0.387765
Zn36	Zn	1.895169	0.969689	0.637765
O37	O	1.138168	0.369200	0.085243
O38	O	1.388168	0.619200	0.335243
O39	O	1.638168	0.869200	0.585243
O40	O	1.888168	1.119200	0.835243
C41	C	0.964870	0.218250	0.000031
C42	C	1.214870	0.468250	0.250031
C43	C	1.464870	0.718250	0.500031
C44	C	1.714870	0.968250	0.750031
C45	C	0.858727	0.207402	0.000026
C46	C	1.108727	0.457402	0.250026
C47	C	1.358727	0.707402	0.500026
C48	C	1.608727	0.957402	0.750026
C49	C	0.613268	0.264503	0.000032
C50	C	0.863268	0.514503	0.250032
C51	C	1.113268	0.764503	0.500032
C52	C	1.363268	1.014503	0.750032
C53	C	0.664393	0.187587	0.000036
C54	C	0.914393	0.437587	0.250036
C55	C	1.164393	0.687587	0.500036
C56	C	1.414393	0.937587	0.750036
C57	C	0.772531	0.198615	0.000031
C58	C	1.022531	0.448615	0.250031
C59	C	1.272531	0.698615	0.500031
C60	C	1.522531	0.948615	0.750031
C61	C	0.505121	0.253476	0.000038
C62	C	0.755121	0.503476	0.250038
C63	C	1.005121	0.753476	0.500038
C64	C	1.255121	1.003476	0.750038
C65	C	1.131038	0.052086	0.000049
C66	C	1.381038	0.302086	0.250049
C67	C	1.631038	0.552086	0.500049
C68	C	1.881038	0.802086	0.750049
C69	C	1.120194	-0.054057	0.000050
C70	C	1.370194	0.195943	0.250050
C71	C	1.620194	0.445943	0.500050
C72	C	1.870194	0.695943	0.750050
C73	C	1.100368	-0.248396	0.000034
C74	C	1.350368	0.001604	0.250034
C75	C	1.600368	0.251604	0.500034
C76	C	1.850368	0.501604	0.750034
C77	C	1.177283	-0.299524	0.000034
C78	C	1.427283	-0.049524	0.250034
C79	C	1.677283	0.200476	0.500034
C80	C	1.927283	0.450476	0.750034
C81	C	1.166252	-0.407661	0.000026
C82	C	1.416252	-0.157661	0.250026
C83	C	1.666252	0.092339	0.500026
C84	C	1.916252	0.342339	0.750026
C85	C	1.111398	-0.140250	0.000043
C86	C	1.361398	0.109750	0.250043
C87	C	1.611398	0.359750	0.500043
C88	C	1.861398	0.609750	0.750043
C89	C	1.312785	0.233836	0.000044
C90	C	1.562785	0.483836	0.250044
C91	C	1.812785	0.733836	0.500044
C92	C	2.062785	0.983836	0.750044
C93	C	1.418929	0.244683	0.000042
C94	C	1.668929	0.494683	0.250042
C95	C	1.918929	0.744683	0.500042
C96	C	2.168929	0.994683	0.750042
C97	C	1.146617	0.400000	0.000026
C98	C	1.396617	0.650000	0.250026
C99	C	1.646617	0.900000	0.500026
C100	C	1.896617	1.150000	0.750026
C101	C	1.157462	0.506143	0.000019
C102	C	1.407462	0.756143	0.250019
C103	C	1.657462	1.006143	0.500019
C104	C	1.907462	1.256143	0.750019
N105	N	1.123838	0.241069	0.265560
N106	N	1.373838	0.491069	0.515560
N107	N	1.623838	0.741069	0.765560
N108	N	1.873838	0.991069	1.015560
N109	N	1.153824	0.211010	-0.265482
N110	N	1.403824	0.461010	-0.015482
N111	N	1.653824	0.711010	0.234518
N112	N	1.903824	0.961010	0.484518
C113	C	1.112072	0.252876	0.474601
C114	C	1.362072	0.502876	0.724601
C115	C	1.612072	0.752876	0.974601
C116	C	1.862072	1.002876	1.224601
C117	C	1.165588	0.199205	0.525483
C118	C	1.415588	0.449205	0.775483
C119	C	1.665588	0.699205	1.025483
C120	C	1.915588	0.949205	1.275483
C121	C	1.159041	0.205775	0.641801
C122	C	1.409041	0.455775	0.891801
C123	C	1.659041	0.705775	1.141801
C124	C	1.909041	0.955775	1.391801
C125	C	1.118617	0.246308	0.358273
C126	C	1.368617	0.496308	0.608273
C127	C	1.618617	0.746308	0.858273
C128	C	1.868617	0.996308	1.108273
H129	H	0.650710	0.338629	0.000024
H130	H	0.900710	0.588629	0.250024
H131	H	1.150710	0.838629	0.500024
H132	H	1.400710	1.088629	0.750024
C133	C	1.209133	0.036732	0.492488
C134	C	1.459133	0.286732	0.742488
C135	C	1.709133	0.536732	0.992488
C136	C	1.959133	0.786732	1.242488
C137	C	1.234066	0.130421	0.466495
C138	C	1.484066	0.380421	0.716495
C139	C	1.734066	0.630421	0.966495
C140	C	1.984066	0.880421	1.216495
H141	H	1.251401	-0.005756	0.456101
H142	H	1.501401	0.244244	0.706101
H143	H	1.751401	0.494244	0.956101
H144	H	2.001401	0.744244	1.206101
H145	H	1.213596	0.032302	0.564050
H146	H	1.463596	0.282302	0.814050
H147	H	1.713596	0.532302	1.064050
H148	H	1.963596	0.782302	1.314050
H149	H	1.145495	0.020108	0.474925
H150	H	1.395495	0.270108	0.724925
H151	H	1.645495	0.520108	0.974925
H152	H	1.895495	0.770108	1.224925
H153	H	1.297701	0.147047	0.484065
H154	H	1.547701	0.397047	0.734065
H155	H	1.797701	0.647047	0.984065
H156	H	2.047701	0.897047	1.234065
H157	H	1.229611	0.134854	0.394918
H158	H	1.479611	0.384854	0.644918
H159	H	1.729611	0.634854	0.894918
H160	H	1.979611	0.884854	1.144918
H161	H	1.061342	0.303757	0.518392
H162	H	1.311342	0.553757	0.768392
H163	H	1.561342	0.803757	1.018392
H164	H	1.811342	1.053757	1.268392
H165	H	1.026241	-0.285836	0.000028
H166	H	1.276241	-0.035836	0.250028
H167	H	1.526241	0.214164	0.500028
H168	H	1.776241	0.464164	0.750028
C169	C	0.514959	0.095808	0.000022
C170	C	0.764959	0.345808	0.250022
C171	C	1.014959	0.595808	0.500022
C172	C	1.264959	0.845808	0.750022
C173	C	0.613854	0.087507	0.000027
C174	C	0.863854	0.337507	0.250027
C175	C	1.113854	0.587507	0.500027
C176	C	1.363854	0.837507	0.750027
H177	H	0.483758	0.034024	0.000005
H178	H	0.733758	0.284024	0.250005
H179	H	0.983758	0.534024	0.500005
H180	H	1.233758	0.784024	0.750005
H181	H	0.493667	0.132856	0.059455
H182	H	0.743667	0.382856	0.309455
H183	H	0.993667	0.632856	0.559455
H184	H	1.243667	0.882856	0.809455
H185	H	0.500384	0.126160	-0.059410
H186	H	0.750384	0.376160	0.190590
H187	H	1.000384	0.626160	0.440590
H188	H	1.250384	0.876160	0.690590
H189	H	0.628430	0.057161	0.059464
H190	H	0.878430	0.307161	0.309464
H191	H	1.128430	0.557161	0.559464
H192	H	1.378430	0.807161	0.809464
H193	H	0.635154	0.050445	-0.059412
H194	H	0.885154	0.300445	0.190588
H195	H	1.135154	0.550445	0.440588
H196	H	1.385154	0.800445	0.690588
C197	C	1.269064	-0.150090	0.000067
C198	C	1.519064	0.099910	0.250067
C199	C	1.769064	0.349910	0.500067
C200	C	2.019064	0.599910	0.750067
C201	C	1.277362	-0.248986	0.000055
C202	C	1.527362	0.001014	0.250055
C203	C	1.777362	0.251014	0.500055
C204	C	2.027362	0.501014	0.750055
H205	H	1.330847	-0.118889	0.000089
H206	H	1.580847	0.131111	0.250089
H207	H	1.830847	0.381111	0.500089
H208	H	2.080847	0.631111	0.750089
H209	H	1.238733	-0.135507	-0.059366
H210	H	1.488733	0.114493	0.190634
H211	H	1.738733	0.364493	0.440634
H212	H	1.988733	0.614493	0.690634
H213	H	1.231996	-0.128804	0.059499
H214	H	1.481996	0.121196	0.309499
H215	H	1.731996	0.371196	0.559499
H216	H	1.981996	0.621196	0.809499
H217	H	1.314425	-0.270274	-0.059382
H218	H	1.564425	-0.020274	0.190618
H219	H	1.814425	0.229726	0.440618
H220	H	2.064425	0.479726	0.690618
H221	H	1.307707	-0.263577	0.059494
H222	H	1.557707	-0.013577	0.309494
H223	H	1.807707	0.236423	0.559494
H224	H	2.057707	0.486423	0.809494
