data_functionalizedCrystal
_audit_creation_method	'MofGen! by Chris Wilmer'
_symmetry_space_group_name_H-M	'P1'
_symmetry_Int_Tables_number	1
_symmetry_cell_setting	triclinic
loop_
_symmetry_equiv_pos_as_xyz
  x,y,z
_cell_length_a	19.288864
_cell_length_b	18.266242
_cell_length_c	19.288865
_cell_angle_alpha	90.011586
_cell_angle_beta	83.136245
_cell_angle_gamma	90.022884
loop_
_atom_site_label
_atom_site_type_symbol
_atom_site_fract_x
_atom_site_fract_y
_atom_site_fract_z
O1	O	0.921353	0.061124	0.086649
O2	O	0.719092	0.061075	0.098338
O3	O	0.826067	0.061086	-0.008637
O4	O	0.814378	0.061113	0.193623
O5	O	0.826049	-0.060675	-0.008643
O6	O	0.719074	-0.060687	0.098332
O7	O	0.921335	-0.060638	0.086643
Zn8	Zn	0.820201	-0.079995	0.092487
Zn9	Zn	0.820225	0.080432	0.092494
O10	O	0.814360	-0.060649	0.193618
C11	C	0.693207	0.000188	0.097959
C12	C	0.616103	0.000168	0.096830
N13	N	0.820190	-0.189482	0.092481
C14	C	0.571407	0.000188	0.159598
C15	C	0.498960	0.000196	0.158537
C16	C	0.471212	0.000199	0.094705
C17	C	0.515918	0.000175	0.031929
C18	C	0.588364	0.000160	0.032991
C19	C	0.362956	0.042876	0.044527
C20	C	0.290512	0.042895	0.043468
C21	C	0.247767	0.000243	0.091425
C22	C	0.277473	-0.042420	0.140454
C23	C	0.349918	-0.042436	0.141517
C24	C	0.392658	0.000215	0.093546
C25	C	0.124514	0.000270	0.153047
C26	C	0.052066	0.000273	0.151984
C27	C	0.069026	0.000260	0.025374
C28	C	0.141473	0.000249	0.026439
C29	C	0.169212	0.000258	0.090278
C30	C	0.867574	-0.227785	0.045136
C31	C	0.867579	-0.304430	0.045133
C32	C	0.820206	-0.342769	0.092487
C33	C	0.772813	-0.304456	0.139836
C34	C	0.772805	-0.227812	0.139833
N35	N	0.811172	-0.463094	0.153975
N36	N	0.811184	-0.535902	0.153976
C37	C	0.820225	-0.573691	0.092497
N38	N	0.829268	-0.535921	0.031016
N39	N	0.829260	-0.463106	0.031016
C40	C	0.820209	-0.425876	0.092495
C41	C	0.867616	-0.695102	0.045144
C42	C	0.867616	-0.771748	0.045140
C43	C	0.772854	-0.771772	0.139849
C44	C	0.772851	-0.695127	0.139847
C45	C	0.820236	-0.656797	0.092496
C46	C	0.947220	0.000251	0.087022
C47	C	1.024324	0.000275	0.088151
N48	N	0.820242	0.189919	0.092494
C49	C	0.825682	0.000203	-0.034516
C50	C	0.824553	0.000197	-0.111620
C51	C	0.887321	0.000208	-0.156316
C52	C	0.886260	0.000219	-0.228763
C53	C	0.822428	0.000204	-0.256511
C54	C	0.759652	0.000197	-0.211805
C55	C	0.760714	0.000193	-0.139359
C56	C	0.772242	-0.042458	-0.364800
C57	C	0.771182	-0.042459	-0.437245
C58	C	0.819148	0.000220	-0.479956
C59	C	0.868186	0.042890	-0.450216
C60	C	0.869248	0.042886	-0.377771
C61	C	0.821269	0.000209	-0.335065
C62	C	0.880770	0.000245	-0.603209
C63	C	0.879707	0.000261	-0.675657
C64	C	0.753097	0.000231	-0.658697
C65	C	0.754162	0.000223	-0.586250
C66	C	0.818001	0.000226	-0.558511
C67	C	0.814745	0.000236	0.219497
C68	C	0.815874	0.000247	0.296601
H69	H	0.593987	0.000196	0.211580
H70	H	0.731250	-0.077199	-0.461453
N71	N	0.686458	0.000198	-0.538042
H72	H	0.684071	-0.044942	-0.507617
H73	H	0.684121	0.045362	-0.507641
N74	N	0.231380	-0.088424	0.192189
H75	H	0.180979	-0.081945	0.184076
H76	H	0.244886	-0.141637	0.185880
N77	N	0.947413	0.000271	-0.723865
H78	H	0.949781	-0.044862	-0.754312
H79	H	0.949767	0.045442	-0.754243
H80	H	0.707679	0.000186	-0.234401
H81	H	0.734240	-0.335674	0.178391
H82	H	0.906156	-0.196579	0.006578
N83	N	0.039105	0.000256	-0.043473
H84	H	0.009449	0.045398	-0.046736
H85	H	0.078454	0.000216	-0.083037
H86	H	0.177866	0.000237	-0.024674
N87	N	0.721754	-0.813112	0.190921
H88	H	0.672486	-0.799800	0.183040
H89	H	0.729008	-0.867465	0.183709
H90	H	0.906165	-0.335623	0.006577
N91	N	0.721694	-0.186493	0.190898
H92	H	0.691680	-0.222407	0.220895
H93	H	0.748182	-0.154672	0.221539
N94	N	0.636577	0.000135	-0.034711
H95	H	0.608010	0.000135	-0.075312
H96	H	0.667030	0.045268	-0.037028
H97	H	0.734269	-0.663938	0.178403
H98	H	0.709599	0.000183	-0.102967
H99	H	0.733180	-0.077216	-0.330029
N100	N	0.381955	-0.088458	0.194388
H101	H	0.415408	-0.124943	0.169313
H102	H	0.407999	-0.055737	0.224650
H103	H	0.147101	0.000266	0.205028
H104	H	0.932751	0.000251	-0.580622
H105	H	0.462561	0.000210	0.209652
H106	H	0.266331	0.077637	0.003548
N107	N	0.956172	0.000213	-0.126397
H108	H	0.995774	0.000223	-0.165710
H109	H	0.959380	0.045351	-0.096699
H110	H	0.397755	0.077613	0.005473
N111	N	0.918729	-0.813068	-0.005922
H112	H	0.949389	-0.844845	0.020556
H113	H	0.892243	-0.844848	-0.036599
H114	H	0.907244	0.077644	-0.484991
H115	H	0.015674	0.000285	0.203099
N116	N	0.485989	0.000172	-0.036916
H117	H	0.456336	0.045316	-0.040179
H118	H	0.525336	0.000128	-0.076482
N119	N	0.918719	-0.653753	-0.005926
H120	H	0.948735	-0.689652	-0.035925
H121	H	0.892224	-0.621972	-0.036565
H122	H	0.937375	0.000232	-0.265162
H123	H	0.909175	0.077631	-0.353560
N124	N	0.684247	0.000223	-0.688613
H125	H	0.693097	0.000230	-0.741290
H126	H	0.656781	-0.044922	-0.672259
