data_functionalizedCrystal
_audit_creation_method	'MofGen! by Chris Wilmer'
_symmetry_space_group_name_H-M	'P1'
_symmetry_Int_Tables_number	1
_symmetry_cell_setting	triclinic
loop_
_symmetry_equiv_pos_as_xyz
  x,y,z
_cell_length_a	14.044220
_cell_length_b	14.044220
_cell_length_c	13.448316
_cell_angle_alpha	89.992660
_cell_angle_beta	89.998357
_cell_angle_gamma	93.188878
loop_
_atom_site_label
_atom_site_type_symbol
_atom_site_fract_x
_atom_site_fract_y
_atom_site_fract_z
O1	O	1.277171	0.230170	-0.082590
O2	O	1.777171	0.730170	0.417410
O3	O	1.000500	0.221864	-0.082615
O4	O	1.500500	0.721864	0.417385
O5	O	1.134682	0.087681	-0.082593
O6	O	1.634682	0.587681	0.417407
O7	O	1.142988	0.364353	-0.082612
O8	O	1.642988	0.864353	0.417388
O9	O	1.134663	0.087671	0.082791
O10	O	1.634663	0.587671	0.582791
O11	O	1.000480	0.221854	0.082769
O12	O	1.500480	0.721854	0.582769
O13	O	1.277152	0.230159	0.082794
O14	O	1.777152	0.730159	0.582794
Cu15	Cu	1.138814	0.226006	0.097882
Cu16	Cu	1.638814	0.726006	0.597882
Cu17	Cu	1.138837	0.226018	-0.097703
Cu18	Cu	1.638837	0.726018	0.402297
O19	O	1.142969	0.364342	0.082772
O20	O	1.642969	0.864342	0.582772
C21	C	0.964868	0.218223	0.000074
C22	C	1.464868	0.718223	0.500074
C23	C	0.858725	0.207379	0.000064
C24	C	1.358725	0.707379	0.500064
C25	C	0.664388	0.187553	0.000086
C26	C	1.164388	0.687553	0.500086
C27	C	0.613258	0.264467	0.000084
C28	C	1.113258	0.764467	0.500084
C29	C	0.505122	0.253435	0.000096
C30	C	1.005122	0.753435	0.500096
C31	C	0.772534	0.198583	0.000074
C32	C	1.272534	0.698583	0.500074
C33	C	1.131037	0.052054	0.000099
C34	C	1.631037	0.552054	0.500099
C35	C	1.120193	-0.054088	0.000099
C36	C	1.620193	0.445912	0.500099
C37	C	1.100366	-0.248426	0.000083
C38	C	1.600366	0.251574	0.500083
C39	C	1.177281	-0.299556	0.000087
C40	C	1.677281	0.200444	0.500087
C41	C	1.166249	-0.407692	0.000078
C42	C	1.666249	0.092308	0.500078
C43	C	1.111397	-0.140280	0.000092
C44	C	1.611397	0.359720	0.500092
C45	C	1.312783	0.233800	0.000103
C46	C	1.812783	0.733800	0.500103
C47	C	1.418926	0.244645	0.000106
C48	C	1.918926	0.744645	0.500106
C49	C	1.146614	0.399969	0.000078
C50	C	1.646614	0.899969	0.500078
C51	C	1.157459	0.506112	0.000071
C52	C	1.657459	1.006112	0.500071
N53	N	1.138805	0.225997	0.235446
N54	N	1.638805	0.725997	0.735446
N55	N	1.138853	0.226020	-0.235268
N56	N	1.638853	0.726020	0.264732
C57	C	1.198244	0.166609	0.287496
C58	C	1.698244	0.666609	0.787496
C59	C	1.198250	0.166609	0.391600
C60	C	1.698250	0.666609	0.891600
C61	C	1.138821	0.226002	0.443651
C62	C	1.638821	0.726002	0.943651
C63	C	1.079376	0.285392	0.391594
C64	C	1.579376	0.785392	0.891594
C65	C	1.079366	0.285387	0.287492
C66	C	1.579366	0.785387	0.787492
C67	C	1.079403	0.285401	0.608574
C68	C	1.579403	0.785401	1.108574
C69	C	1.079414	0.285408	0.712682
C70	C	1.579414	0.785408	1.212682
C71	C	1.198287	0.166623	0.712681
C72	C	1.698287	0.666623	1.212681
C73	C	1.198277	0.166617	0.608580
C74	C	1.698277	0.666617	1.108580
C75	C	1.138833	0.226009	0.556530
C76	C	1.638833	0.726009	1.056530
H77	H	0.650697	0.338600	0.000075
H78	H	1.150697	0.838600	0.500075
H79	H	1.030994	0.333761	0.566198
H80	H	1.530994	0.833761	1.066198
H81	H	1.251414	-0.262117	0.000027
H82	H	1.751414	0.237883	0.500027
H83	H	1.026239	-0.285863	0.000074
H84	H	1.526239	0.214137	0.500074
H85	H	1.246642	0.118249	0.245123
H86	H	1.746642	0.618249	0.745123
H87	H	1.246688	0.118264	0.755066
H88	H	1.746688	0.618264	1.255066
H89	H	1.030983	0.333748	0.433980
H90	H	1.530983	0.833748	0.933980
C91	C	1.315775	0.049224	0.381142
C92	C	1.815775	0.549224	0.881142
C93	C	1.263603	0.101344	0.448813
C94	C	1.763603	0.601344	0.948813
H95	H	1.356129	0.008939	0.416465
H96	H	1.856129	0.508939	0.916465
H97	H	1.273136	0.011486	0.340559
H98	H	1.773136	0.511486	0.840559
H99	H	1.353455	0.091906	0.340520
H100	H	1.853455	0.591906	0.840520
H101	H	1.225917	0.058662	0.489431
H102	H	1.725917	0.558662	0.989431
H103	H	1.306247	0.139084	0.489414
H104	H	1.806247	0.639084	0.989414
H105	H	1.030964	0.333745	0.245114
H106	H	1.530964	0.833745	0.745114
H107	H	1.246673	0.118260	0.566200
H108	H	1.746673	0.618260	1.066200
H109	H	1.031021	0.333771	0.755057
H110	H	1.531021	0.833771	1.255057
H111	H	0.626951	0.113425	0.000096
H112	H	1.126951	0.613425	0.500096
