data_functionalizedCrystal
_audit_creation_method	'MofGen! by Chris Wilmer'
_symmetry_space_group_name_H-M	'P1'
_symmetry_Int_Tables_number	1
_symmetry_cell_setting	triclinic
loop_
_symmetry_equiv_pos_as_xyz
  x,y,z
_cell_length_a	17.077404
_cell_length_b	16.959454
_cell_length_c	17.077396
_cell_angle_alpha	90.024735
_cell_angle_beta	90.019501
_cell_angle_gamma	90.020300
loop_
_atom_site_label
_atom_site_type_symbol
_atom_site_fract_x
_atom_site_fract_y
_atom_site_fract_z
Zn1	Zn	1.200070	-0.314677	0.443863
Zn2	Zn	1.199983	-0.446865	0.312606
Zn3	Zn	1.068802	-0.314705	0.312611
Zn4	Zn	1.068776	-0.446818	0.443829
O5	O	1.134408	-0.380766	0.378227
O6	O	1.309905	-0.332220	0.426463
O7	O	1.182556	-0.429365	0.202759
O8	O	1.086262	-0.204090	0.330038
O9	O	1.309842	-0.429338	0.330029
O10	O	1.182704	-0.204070	0.426469
O11	O	1.086178	-0.332267	0.202763
O12	O	0.958951	-0.332222	0.330006
O13	O	1.086218	-0.429258	0.553681
O14	O	0.958933	-0.429285	0.426411
O15	O	1.182679	-0.332174	0.553706
O16	O	1.182532	-0.557469	0.329996
O17	O	1.086134	-0.557435	0.426406
C18	C	0.930460	-0.380752	0.378206
C19	C	0.843210	-0.380764	0.378215
C20	C	0.802231	-0.431381	0.428333
C21	C	0.720250	-0.431383	0.428345
C22	C	0.679251	-0.380771	0.378236
C23	C	0.720236	-0.330149	0.328116
C24	C	0.802215	-0.330144	0.328108
C25	C	0.549366	-0.330164	0.328134
C26	C	0.467381	-0.330170	0.328141
C27	C	0.467401	-0.431404	0.428372
C28	C	0.549380	-0.431399	0.428364
C29	C	0.590360	-0.380777	0.378243
C30	C	1.134342	-0.586132	0.378214
C31	C	1.134386	-0.673989	0.378235
C32	C	1.084287	-1.045476	0.428422
C33	C	1.184748	-1.045452	0.328112
C34	C	1.184720	-0.962906	0.328105
C35	C	1.134474	-0.921642	0.378256
C36	C	1.084256	-0.962923	0.428415
C37	C	1.234932	-0.921619	0.277942
C38	C	1.234906	-0.839068	0.277932
C39	C	1.184664	-0.797802	0.328088
C40	C	1.134444	-0.839088	0.378249
C41	C	1.084198	-0.797823	0.428400
C42	C	1.033981	-0.839108	0.478566
C43	C	1.034013	-0.921657	0.478571
C44	C	1.184632	-0.715254	0.328083
C45	C	1.084167	-0.715270	0.428393
C46	C	1.339152	-0.380781	0.378250
C47	C	1.426402	-0.380787	0.378259
C48	C	1.134455	-0.380708	0.582972
C49	C	1.134476	-0.380683	0.670222
C50	C	1.134495	-0.174598	0.378258
C51	C	1.134533	-0.086741	0.378271
C52	C	1.134406	-0.380767	0.174279
C53	C	1.134538	-0.380569	0.087030
C54	C	1.184705	-0.330127	0.711226
C55	C	1.184714	-0.330101	0.793206
C56	C	1.134498	-0.380635	0.834181
C57	C	1.084263	-0.431193	0.793171
C58	C	1.084250	-0.431214	0.711192
C59	C	1.084295	-0.431145	0.964041
C60	C	1.084309	-0.431125	1.046026
C61	C	1.184759	-0.330032	1.046056
C62	C	1.184746	-0.330053	0.964077
C63	C	1.134512	-0.380613	0.923072
H64	H	0.686889	-0.472601	0.469156
C65	C	0.442137	-0.565303	0.466375
C66	C	0.422356	-0.487049	0.483465
H67	H	0.414320	-0.599655	0.500380
H68	H	0.496820	-0.572540	0.473545
H69	H	0.428671	-0.576787	0.413612
H70	H	0.435827	-0.475563	0.536227
H71	H	0.367661	-0.479808	0.476301
H72	H	1.225651	-1.079055	0.287277
C73	C	0.442056	-0.291463	0.195299
C74	C	0.422298	-0.274531	0.273079
H75	H	0.414221	-0.257108	0.161312
H76	H	0.428604	-0.344550	0.183718
H77	H	0.496742	-0.284200	0.188117
H78	H	0.367612	-0.281799	0.280263
H79	H	0.435745	-0.221431	0.284665
H80	H	1.043373	-0.472335	0.826539
C81	C	1.290308	-0.319088	0.871882
C82	C	1.239928	-0.274498	0.919026
H83	H	1.324372	-0.284785	0.844072
H84	H	1.260389	-0.349203	0.835742
H85	H	1.320340	-0.353507	0.903865
H86	H	1.209892	-0.240083	0.887043
H87	H	1.269850	-0.244370	0.955171
C88	C	1.367865	-0.947048	0.239780
C89	C	1.290121	-0.967019	0.222813
H90	H	1.401925	-0.975089	0.205741
H91	H	1.379335	-0.960527	0.292529
H92	H	1.375060	-0.891984	0.232566
H93	H	1.282924	-1.022082	0.230034
H94	H	1.278647	-0.953545	0.170052
H95	H	0.582729	-0.288936	0.287327
H96	H	0.835607	-0.472598	0.469136
H97	H	0.582760	-0.472616	0.469164
C98	C	1.073354	-1.138257	0.534013
C99	C	1.029090	-1.090854	0.483561
H100	H	1.039276	-1.166275	0.568049
H101	H	1.107517	-1.106010	0.564065
H102	H	1.103280	-1.174645	0.504140
H103	H	0.999168	-1.054463	0.513435
H104	H	0.994913	-1.123104	0.453507
C105	C	0.989333	-0.712572	0.523085
C106	C	0.978752	-0.793744	0.533693
H107	H	0.955241	-0.684565	0.557121
H108	H	0.977867	-0.699091	0.470336
H109	H	1.042067	-0.699007	0.534618
H110	H	0.926020	-0.807309	0.522154
H111	H	0.990213	-0.807230	0.586453
C112	C	1.229364	-0.285082	1.171733
C113	C	1.239964	-0.274442	1.091125
H114	H	1.263440	-0.250760	1.199557
H115	H	1.240839	-0.338178	1.185165
H116	H	1.176624	-0.273511	1.185145
H117	H	1.292703	-0.286019	1.077711
H118	H	1.228494	-0.221334	1.077687
H119	H	0.686848	-0.288936	0.287319
C120	C	0.793966	-0.230092	0.229023
C121	C	0.847263	-0.274511	0.273009
H122	H	0.821778	-0.195750	0.195004
H123	H	0.762019	-0.199901	0.263276
H124	H	0.761965	-0.264505	0.198946
H125	H	0.879260	-0.240099	0.303090
H126	H	0.879224	-0.304704	0.238752
C127	C	0.985003	-0.531040	1.037766
C128	C	1.029105	-0.486666	1.091067
H129	H	0.950920	-0.565325	1.065575
H130	H	1.019179	-0.561291	1.005794
H131	H	0.954990	-0.496597	1.005791
H132	H	1.059122	-0.521109	1.123039
H133	H	0.994924	-0.456413	1.123053
H134	H	1.043254	-0.681677	0.469236
C135	C	1.273223	-0.813699	0.145044
C136	C	1.290110	-0.793695	0.222797
H137	H	1.307310	-0.785690	0.111009
H138	H	1.220492	-0.800205	0.133509
H139	H	1.280429	-0.868770	0.137880
H140	H	1.282899	-0.738624	0.229962
H141	H	1.342854	-0.807183	0.234336
H142	H	1.043377	-0.472303	0.930658
H143	H	1.225514	-0.681643	0.287235
H144	H	0.993129	-0.955278	0.519412
H145	H	1.225599	-0.288979	0.677870
H146	H	1.043341	-0.472374	0.677807
H147	H	1.225617	-0.288936	0.826589
