data_functionalizedCrystal
_audit_creation_method	'MofGen! by Chris Wilmer'
_symmetry_space_group_name_H-M	'P1'
_symmetry_Int_Tables_number	1
_symmetry_cell_setting	triclinic
loop_
_symmetry_equiv_pos_as_xyz
  x,y,z
_cell_length_a	21.295418
_cell_length_b	21.295417
_cell_length_c	21.295412
_cell_angle_alpha	89.970379
_cell_angle_beta	89.957310
_cell_angle_gamma	90.045515
loop_
_atom_site_label
_atom_site_type_symbol
_atom_site_fract_x
_atom_site_fract_y
_atom_site_fract_z
Zn1	Zn	0.962353	-0.250359	-0.356238
Zn2	Zn	1.462353	0.249641	0.143762
Zn3	Zn	0.962259	-0.355628	-0.250965
Zn4	Zn	1.462259	0.144372	0.249035
Zn5	Zn	0.857078	-0.250405	-0.250948
Zn6	Zn	1.357078	0.249595	0.249052
Zn7	Zn	0.857047	-0.355623	-0.356162
Zn8	Zn	1.357047	0.144377	0.143838
O9	O	0.909684	-0.303004	-0.303578
O10	O	1.409684	0.196996	0.196422
O11	O	1.050430	-0.264306	-0.342313
O12	O	1.550430	0.235694	0.157687
O13	O	0.948280	-0.341691	-0.162874
O14	O	1.448280	0.158309	0.337126
O15	O	0.871095	-0.162310	-0.264940
O16	O	1.371095	0.337690	0.235060
O17	O	1.050361	-0.341646	-0.264969
O18	O	1.550361	0.158354	0.235031
O19	O	0.948440	-0.162276	-0.342296
O20	O	1.448440	0.337724	0.157704
O21	O	0.871004	-0.264384	-0.162861
O22	O	1.371004	0.235616	0.337139
O23	O	0.768984	-0.264380	-0.264866
O24	O	1.268984	0.235620	0.235134
O25	O	0.871042	-0.341639	-0.444262
O26	O	1.371042	0.158361	0.055738
O27	O	0.768962	-0.341684	-0.342166
O28	O	1.268962	0.158316	0.157834
O29	O	0.948410	-0.264302	-0.444318
O30	O	1.448410	0.235698	0.055682
O31	O	0.948250	-0.443716	-0.264895
O32	O	1.448250	0.056284	0.235105
O33	O	0.870951	-0.443713	-0.342183
O34	O	1.370951	0.056287	0.157817
C35	C	0.746132	-0.303037	-0.303506
C36	C	1.246132	0.196963	0.196494
C37	C	0.676164	-0.303066	-0.303490
C38	C	1.176164	0.196934	0.196510
C39	C	0.643302	-0.343371	-0.343680
C40	C	1.143302	0.156629	0.156320
C41	C	0.577560	-0.343356	-0.343708
C42	C	1.077560	0.156644	0.156292
C43	C	0.544682	-0.303042	-0.303535
C44	C	1.044682	0.196958	0.196465
C45	C	0.577552	-0.262729	-0.263342
C46	C	1.077552	0.237271	0.236658
C47	C	0.643293	-0.262741	-0.263320
C48	C	1.143293	0.237259	0.236680
N49	N	0.441407	-0.298123	-0.248477
N50	N	0.941407	0.201877	0.251523
N51	N	0.378955	-0.298116	-0.248501
N52	N	0.878955	0.201884	0.251499
C53	C	0.346607	-0.303002	-0.303602
C54	C	0.846607	0.196998	0.196398
N55	N	0.379070	-0.307908	-0.358680
N56	N	0.879070	0.192092	0.141320
N57	N	0.441527	-0.307920	-0.358656
N58	N	0.941527	0.192080	0.141344
C59	C	0.473396	-0.303024	-0.303556
C60	C	0.973396	0.196976	0.196444
C61	C	0.242460	-0.343292	-0.343826
C62	C	0.742460	0.156708	0.156174
C63	C	0.176716	-0.343272	-0.343855
C64	C	0.676716	0.156728	0.156145
C65	C	0.176709	-0.262649	-0.263484
C66	C	0.676709	0.237351	0.236516
C67	C	0.242452	-0.262665	-0.263460
C68	C	0.742452	0.237335	0.236540
C69	C	0.275323	-0.302990	-0.303630
C70	C	0.775323	0.197010	0.196370
C71	C	0.909604	-0.466556	-0.303547
C72	C	1.409604	0.033444	0.196453
C73	C	0.909627	-0.536524	-0.303554
C74	C	1.409627	-0.036524	0.196446
C75	C	0.949878	-0.569315	-0.343862
C76	C	1.449878	-0.069315	0.156138
C77	C	0.949900	-0.635058	-0.343878
C78	C	1.449900	-0.135058	0.156122
C79	C	0.909678	-0.668006	-0.303574
C80	C	1.409678	-0.168006	0.196426
C81	C	0.869420	-0.635206	-0.263263
C82	C	1.369420	-0.135206	0.236737
C83	C	0.869394	-0.569465	-0.263253
C84	C	1.369394	-0.069465	0.236747
N85	N	0.904920	-0.771268	-0.248481
N86	N	1.404920	-0.271268	0.251519
N87	N	0.904948	-0.833720	-0.248492
N88	N	1.404948	-0.333720	0.251508
C89	C	0.909752	-0.866081	-0.303602
C90	C	1.409752	-0.366081	0.196398
N91	N	0.914539	-0.833631	-0.358702
N92	N	1.414539	-0.333631	0.141298
N93	N	0.914514	-0.771174	-0.358690
N94	N	1.414514	-0.271174	0.141310
C95	C	0.909701	-0.739291	-0.303580
C96	C	1.409701	-0.239291	0.196420
C97	C	0.950028	-0.970158	-0.343931
C98	C	1.450028	-0.470158	0.156069
C99	C	0.950046	-1.035902	-0.343947
C100	C	1.450046	-0.535902	0.156053
C101	C	0.869570	-1.036049	-0.263327
C102	C	1.369570	-0.536049	0.236673
C103	C	0.869548	-0.970306	-0.263316
C104	C	1.369548	-0.470306	0.236684
C105	C	0.909781	-0.937365	-0.303617
C106	C	1.409781	-0.437365	0.196383
C107	C	1.073874	-0.302971	-0.303652
C108	C	1.573874	0.197029	0.196348
C109	C	1.143843	-0.302957	-0.303683
C110	C	1.643843	0.197043	0.196317
C111	C	0.909733	-0.302965	-0.467769
C112	C	1.409733	0.197035	0.032231
C113	C	0.909754	-0.302948	-0.537737
C114	C	1.409754	0.197052	-0.037737
C115	C	0.909782	-0.138814	-0.303624
C116	C	1.409782	0.361186	0.196376
C117	C	0.909823	-0.068845	-0.303644
C118	C	1.409823	0.431155	0.196356
C119	C	0.869528	-0.262690	-0.570587
C120	C	1.369528	0.237310	-0.070587
C121	C	0.869525	-0.262678	-0.636330
C122	C	1.369525	0.237322	-0.136330
C123	C	0.909761	-0.302918	-0.669219
C124	C	1.409761	0.197082	-0.169219
C125	C	0.949991	-0.343184	-0.636361
C126	C	1.449991	0.156816	-0.136361
C127	C	0.949987	-0.343199	-0.570620
C128	C	1.449987	0.156801	-0.070620
N129	N	0.964866	-0.307710	-0.772476
N130	N	1.464866	0.192290	-0.272476
N131	N	0.964867	-0.307692	-0.834928
N132	N	1.464867	0.192308	-0.334928
C133	C	0.909773	-0.302876	-0.867294
C134	C	1.409773	0.197124	-0.367294
N135	N	0.854676	-0.298066	-0.834850
N136	N	1.354676	0.201934	-0.334850
N137	N	0.854675	-0.298081	-0.772393
N138	N	1.354675	0.201919	-0.272393
C139	C	0.909769	-0.302906	-0.740505
C140	C	1.409769	0.197094	-0.240505
C141	C	0.869540	-0.262603	-0.971430
C142	C	1.369540	0.237397	-0.471430
C143	C	0.869537	-0.262596	-1.037174
C144	C	1.369537	0.237404	-0.537174
C145	C	0.950008	-0.343098	-1.037204
C146	C	1.450008	0.156902	-0.537204
C147	C	0.950006	-0.343109	-0.971462
C148	C	1.450006	0.156891	-0.471462
C149	C	0.909773	-0.302858	-0.938579
C150	C	1.409773	0.197142	-0.438579
C151	C	0.909671	-0.302997	-0.140027
C152	C	1.409671	0.197003	0.359973
C153	C	0.909772	-0.302837	-0.070059
C154	C	1.409772	0.197163	0.429941
H155	H	0.149941	-0.229821	-0.230777
H156	H	0.649941	0.270179	0.269223
H157	H	0.550778	-0.229904	-0.230634
H158	H	1.050778	0.270096	0.269366
N159	N	0.678742	-0.219263	-0.219975
N160	N	1.178742	0.280737	0.280025
H161	H	0.647941	-0.193717	-0.194531
H162	H	1.147941	0.306283	0.305469
H163	H	0.705962	-0.244850	-0.190784
H164	H	1.205962	0.255150	0.309216
H165	H	0.269225	-0.376124	-0.376538
H166	H	0.769225	0.123876	0.123462
H167	H	0.982823	-1.062600	-0.376774
H168	H	1.482823	-0.562600	0.123226
H169	H	0.836775	-0.229815	-1.063919
H170	H	1.336775	0.270185	-0.563919
N171	N	0.826143	-0.219272	-0.535120
N172	N	1.326143	0.280728	-0.035120
H173	H	0.800661	-0.193764	-0.565910
H174	H	1.300661	0.306236	-0.065910
H175	H	0.796989	-0.244898	-0.507812
H176	H	1.296989	0.255102	-0.007812
N177	N	0.277891	-0.219195	-0.220102
N178	N	0.777891	0.280805	0.279898
H179	H	0.305111	-0.244742	-0.190873
H180	H	0.805111	0.255258	0.309127
H181	H	0.305187	-0.190068	-0.245770
H182	H	0.805187	0.309932	0.254230
N183	N	0.826136	-0.219257	-0.671772
N184	N	1.326136	0.280743	-0.171772
H185	H	0.800648	-0.193761	-0.640964
H186	H	1.300648	0.306239	-0.140964
H187	H	0.851784	-0.190117	-0.699073
H188	H	1.351784	0.309883	-0.199073
H189	H	0.149961	-0.376092	-0.376587
H190	H	0.649961	0.123908	0.123413
H191	H	0.982636	-0.542496	-0.376679
H192	H	1.482636	-0.042496	0.123321
H193	H	0.836670	-0.662037	-0.230449
H194	H	1.336670	-0.162037	0.269551
H195	H	0.982671	-0.661762	-0.376709
H196	H	1.482671	-0.161762	0.123291
N197	N	0.826140	-0.219197	-0.935962
N198	N	1.326140	0.280803	-0.435962
H199	H	0.796954	-0.244792	-0.908656
H200	H	1.296954	0.255208	-0.408656
H201	H	0.851782	-0.190032	-0.908751
H202	H	1.351782	0.309968	-0.408751
H203	H	0.836617	-0.542765	-0.230429
H204	H	1.336617	-0.042765	0.269571
N205	N	0.993418	-0.934622	-0.387397
N206	N	1.493418	-0.434622	0.112603
H207	H	1.018917	-0.965375	-0.412939
H208	H	1.518917	-0.465375	0.087061
H209	H	0.967769	-0.907354	-0.416490
H210	H	1.467769	-0.407354	0.083510
N211	N	0.993383	-0.386591	-0.671831
N212	N	1.493383	0.113409	-0.171831
H213	H	0.987282	-0.380473	-0.718463
H214	H	1.487282	0.119527	-0.218463
H215	H	1.038347	-0.376792	-0.660374
H216	H	1.538347	0.123208	-0.160374
H217	H	0.982770	-0.375861	-1.063983
H218	H	1.482770	0.124139	-0.563983
N219	N	0.993376	-0.386623	-0.535185
N220	N	1.493376	0.113377	-0.035185
H221	H	1.018864	-0.412115	-0.565995
H222	H	1.518864	0.087885	-0.065995
H223	H	1.022523	-0.360999	-0.507938
H224	H	1.522523	0.139001	-0.007938
H225	H	0.836816	-1.062875	-0.230515
H226	H	1.336816	-0.562875	0.269485
N227	N	0.993399	-0.386528	-0.936030
N228	N	1.493399	0.113472	-0.436030
H229	H	1.038382	-0.376738	-0.947505
H230	H	1.538382	0.123262	-0.447505
H231	H	0.987240	-0.380412	-0.889404
H232	H	1.487240	0.119588	-0.389404
N233	N	0.678756	-0.386863	-0.387005
N234	N	1.178756	0.113137	0.112995
H235	H	0.647958	-0.412394	-0.412470
H236	H	1.147958	0.087606	0.087530
H237	H	0.706089	-0.361285	-0.416176
H238	H	1.206089	0.138715	0.083824
H239	H	0.836775	-0.943606	-0.230490
H240	H	1.336775	-0.443606	0.269510
N241	N	0.542105	-0.386828	-0.387059
N242	N	1.042105	0.113172	0.112941
H243	H	0.572904	-0.412374	-0.412503
H244	H	1.072904	0.087626	0.087497
H245	H	0.514773	-0.415917	-0.361386
H246	H	1.014773	0.084083	0.138614
