data_functionalizedCrystal
_audit_creation_method	'MofGen! by Chris Wilmer'
_symmetry_space_group_name_H-M	'P1'
_symmetry_Int_Tables_number	1
_symmetry_cell_setting	triclinic
loop_
_symmetry_equiv_pos_as_xyz
  x,y,z
_cell_length_a	22.610064
_cell_length_b	14.519709
_cell_length_c	14.519709
_cell_angle_alpha	83.680145
_cell_angle_beta	90.003132
_cell_angle_gamma	89.997369
loop_
_atom_site_label
_atom_site_type_symbol
_atom_site_fract_x
_atom_site_fract_y
_atom_site_fract_z
O1	O	0.049109	-1.223874	-0.120879
O2	O	0.299109	-0.973874	0.129121
O3	O	0.549109	-0.723874	0.379121
O4	O	0.799109	-0.473874	0.629121
O5	O	0.049127	-0.955397	-0.135115
O6	O	0.299127	-0.705397	0.114885
O7	O	0.549127	-0.455397	0.364885
O8	O	0.799127	-0.205397	0.614885
O9	O	0.049112	-1.096754	0.006241
O10	O	0.299112	-0.846754	0.256241
O11	O	0.549112	-0.596754	0.506241
O12	O	0.799112	-0.346754	0.756241
O13	O	0.049124	-1.082517	-0.262235
O14	O	0.299124	-0.832517	-0.012235
O15	O	0.549124	-0.582517	0.237765
O16	O	0.799124	-0.332517	0.487765
O17	O	-0.049257	-1.096729	0.006221
O18	O	0.200743	-0.846729	0.256221
O19	O	0.450743	-0.596729	0.506221
O20	O	0.700743	-0.346729	0.756221
O21	O	-0.049242	-0.955372	-0.135136
O22	O	0.200758	-0.705372	0.114864
O23	O	0.450758	-0.455372	0.364864
O24	O	0.700758	-0.205372	0.614864
O25	O	-0.049260	-1.223849	-0.120899
O26	O	0.200740	-0.973849	0.129101
O27	O	0.450740	-0.723849	0.379101
O28	O	0.700740	-0.473849	0.629101
Zn29	Zn	-0.064869	-1.089606	-0.128021
Zn30	Zn	0.185131	-0.839606	0.121979
Zn31	Zn	0.435131	-0.589606	0.371979
Zn32	Zn	0.685131	-0.339606	0.621979
Zn33	Zn	0.064736	-1.089639	-0.127994
Zn34	Zn	0.314736	-0.839639	0.122006
Zn35	Zn	0.564736	-0.589639	0.372006
Zn36	Zn	0.814736	-0.339639	0.622006
O37	O	-0.049245	-1.082492	-0.262256
O38	O	0.200755	-0.832492	-0.012256
O39	O	0.450755	-0.582492	0.237744
O40	O	0.700755	-0.332492	0.487744
C41	C	-0.000055	-0.921025	-0.134462
C42	C	0.249945	-0.671025	0.115538
C43	C	0.499945	-0.421025	0.365538
C44	C	0.749945	-0.171025	0.615538
C45	C	-0.000048	-0.818643	-0.132474
C46	C	0.249952	-0.568643	0.117526
C47	C	0.499952	-0.318643	0.367526
C48	C	0.749952	-0.068643	0.617526
N49	N	-0.153322	-1.089591	-0.128039
N50	N	0.096678	-0.839591	0.121961
N51	N	0.346678	-0.589591	0.371961
N52	N	0.596678	-0.339591	0.621961
C53	C	-0.000073	-1.096078	0.040591
C54	C	0.249927	-0.846078	0.290591
C55	C	0.499927	-0.596078	0.540591
C56	C	0.749927	-0.346078	0.790591
C57	C	-0.000073	-1.094090	0.142972
C58	C	0.249927	-0.844090	0.392972
C59	C	0.499927	-0.594090	0.642972
C60	C	0.749927	-0.344090	0.892972
C61	C	-0.561970	-1.152235	-0.065411
C62	C	-0.311970	-0.902235	0.184589
C63	C	-0.061970	-0.652235	0.434589
C64	C	0.188030	-0.402235	0.684589
C65	C	-0.623890	-1.152240	-0.065404
C66	C	-0.373890	-0.902240	0.184596
C67	C	-0.123890	-0.652240	0.434596
C68	C	0.126110	-0.402240	0.684596
O69	O	-0.655914	-1.205463	-0.012169
O70	O	-0.405914	-0.955463	0.237831
O71	O	-0.155914	-0.705463	0.487831
O72	O	0.094086	-0.455463	0.737831
N73	N	-0.654859	-1.089639	-0.127975
N74	N	-0.404859	-0.839639	0.122025
N75	N	-0.154859	-0.589639	0.372025
N76	N	0.095141	-0.339639	0.622025
C77	C	-0.623905	-1.027022	-0.190550
C78	C	-0.373905	-0.777022	0.059450
C79	C	-0.123905	-0.527022	0.309450
C80	C	0.126095	-0.277022	0.559450
O81	O	-0.655933	-0.973775	-0.243770
O82	O	-0.405933	-0.723775	0.006230
O83	O	-0.155933	-0.473775	0.256230
O84	O	0.094067	-0.223775	0.506230
C85	C	-0.561986	-1.027014	-0.190551
C86	C	-0.311986	-0.777014	0.059449
C87	C	-0.061986	-0.527014	0.309449
C88	C	0.188014	-0.277014	0.559449
C89	C	-0.531020	-1.089626	-0.127983
C90	C	-0.281020	-0.839626	0.122017
C91	C	-0.031020	-0.589626	0.372017
C92	C	0.218980	-0.339626	0.622017
C93	C	-0.531004	-1.214841	-0.002846
C94	C	-0.281004	-0.964841	0.247154
C95	C	-0.031004	-0.714841	0.497154
C96	C	0.218996	-0.464841	0.747154
C97	C	-0.469088	-1.214837	-0.002855
C98	C	-0.219088	-0.964837	0.247145
C99	C	0.030912	-0.714837	0.497145
C100	C	0.280912	-0.464837	0.747145
C101	C	-0.438139	-1.152227	-0.065427
C102	C	-0.188139	-0.902227	0.184573
C103	C	0.061861	-0.652227	0.434573
C104	C	0.311861	-0.402227	0.684573
C105	C	-0.469105	-1.089622	-0.127991
C106	C	-0.219105	-0.839622	0.122009
C107	C	0.030895	-0.589622	0.372009
C108	C	0.280895	-0.339622	0.622009
C109	C	-0.531034	-0.964394	-0.253121
C110	C	-0.281034	-0.714394	-0.003121
C111	C	-0.031034	-0.464394	0.246879
C112	C	0.218966	-0.214394	0.496879
C113	C	-0.469111	-0.964391	-0.253117
C114	C	-0.219111	-0.714391	-0.003117
C115	C	0.030889	-0.464391	0.246883
C116	C	0.280889	-0.214391	0.496883
C117	C	-0.438145	-1.027002	-0.190548
C118	C	-0.188145	-0.777002	0.059452
C119	C	0.061855	-0.527002	0.309452
C120	C	0.311855	-0.277002	0.559452
C121	C	-0.376240	-1.027009	-0.190571
C122	C	-0.126240	-0.777009	0.059429
C123	C	0.123760	-0.527009	0.309429
C124	C	0.373760	-0.277009	0.559429
N125	N	-0.345270	-1.089610	-0.128000
N126	N	-0.095270	-0.839610	0.122000
N127	N	0.154730	-0.589610	0.372000
N128	N	0.404730	-0.339610	0.622000
C129	C	-0.376220	-1.152219	-0.065428
C130	C	-0.126220	-0.902219	0.184572
C131	C	0.123780	-0.652219	0.434572
C132	C	0.373780	-0.402219	0.684572
C133	C	-0.753939	-1.027044	-0.190541
C134	C	-0.503939	-0.777044	0.059459
C135	C	-0.253939	-0.527044	0.309459
C136	C	-0.003939	-0.277044	0.559459
C137	C	-0.815856	-1.027056	-0.190544
C138	C	-0.565856	-0.777056	0.059456
C139	C	-0.315856	-0.527056	0.309456
C140	C	-0.065856	-0.277056	0.559456
C141	C	-0.815837	-1.152272	-0.065397
C142	C	-0.565837	-0.902272	0.184603
C143	C	-0.315837	-0.652272	0.434603
C144	C	-0.065837	-0.402272	0.684603
C145	C	-0.753918	-1.152264	-0.065399
C146	C	-0.503918	-0.902264	0.184601
C147	C	-0.253918	-0.652264	0.434601
C148	C	-0.003918	-0.402264	0.684601
C149	C	-0.722970	-1.089645	-0.127970
C150	C	-0.472970	-0.839645	0.122030
C151	C	-0.222970	-0.589645	0.372030
C152	C	0.027030	-0.339645	0.622030
C153	C	-0.246193	-1.152207	-0.065450
C154	C	0.003807	-0.902207	0.184550
C155	C	0.253807	-0.652207	0.434550
C156	C	0.503807	-0.402207	0.684550
C157	C	-0.184271	-1.152200	-0.065467
C158	C	0.065729	-0.902200	0.184533
C159	C	0.315729	-0.652200	0.434533
C160	C	0.565729	-0.402200	0.684533
C161	C	-0.184296	-1.026981	-0.190610
C162	C	0.065704	-0.776981	0.059390
C163	C	0.315704	-0.526981	0.309390
C164	C	0.565704	-0.276981	0.559390
C165	C	-0.246212	-1.026991	-0.190598
C166	C	0.003788	-0.776991	0.059402
C167	C	0.253788	-0.526991	0.309402
C168	C	0.503788	-0.276991	0.559402
C169	C	-0.277159	-1.089607	-0.128010
C170	C	-0.027159	-0.839607	0.121990
C171	C	0.222841	-0.589607	0.371990
C172	C	0.472841	-0.339607	0.621990
O173	O	-0.344176	-0.973810	-0.243777
O174	O	-0.094176	-0.723810	0.006223
O175	O	0.155824	-0.473810	0.256223
O176	O	0.405824	-0.223810	0.506223
O177	O	-0.344185	-1.205449	-0.012209
O178	O	-0.094185	-0.955449	0.237791
O179	O	0.155815	-0.705449	0.487791
O180	O	0.405815	-0.455449	0.737791
N181	N	0.153189	-1.089662	-0.127968
N182	N	0.403189	-0.839662	0.122032
N183	N	0.653189	-0.589662	0.372032
N184	N	0.903189	-0.339662	0.622032
C185	C	-0.000077	-1.258221	-0.121553
C186	C	0.249923	-1.008221	0.128447
C187	C	0.499923	-0.758221	0.378447
C188	C	0.749923	-0.508221	0.628447
C189	C	-0.000080	-1.360602	-0.123541
C190	C	0.249920	-1.110602	0.126459
C191	C	0.499920	-0.860602	0.376459
C192	C	0.749920	-0.610602	0.626459
C193	C	-0.000076	-0.443748	-0.125154
C194	C	0.249924	-0.193748	0.124846
C195	C	0.499924	0.056252	0.374846
C196	C	0.749924	0.306252	0.624846
C197	C	-0.000068	-0.548056	-0.127187
C198	C	0.249932	-0.298056	0.122813
C199	C	0.499932	-0.048056	0.372813
C200	C	0.749932	0.201944	0.622813
C201	C	-0.000062	-0.631192	-0.128814
C202	C	0.249938	-0.381192	0.121186
C203	C	0.499938	-0.131192	0.371186
C204	C	0.749938	0.118808	0.621186
C205	C	-0.000055	-0.735507	-0.130847
C206	C	0.249945	-0.485507	0.119153
C207	C	0.499945	-0.235507	0.369153
C208	C	0.749945	0.014493	0.619153
C209	C	-0.000059	-1.083168	-0.296606
C210	C	0.249941	-0.833168	-0.046606
C211	C	0.499941	-0.583168	0.203394
C212	C	0.749941	-0.333168	0.453394
C213	C	-0.000055	-1.085156	-0.398987
C214	C	0.249945	-0.835156	-0.148987
C215	C	0.499945	-0.585156	0.101013
C216	C	0.749945	-0.335156	0.351013
C217	C	-0.000057	-1.086770	0.517868
C218	C	0.249943	-0.836770	0.767868
C219	C	0.499943	-0.586770	1.017868
C220	C	0.749943	-0.336770	1.267868
C221	C	-0.000061	-1.088803	0.413560
C222	C	0.249939	-0.838803	0.663560
C223	C	0.499939	-0.588803	0.913560
C224	C	0.749939	-0.338803	1.163560
C225	C	-0.000065	-1.090430	0.330423
C226	C	0.249935	-0.840430	0.580423
C227	C	0.499935	-0.590430	0.830423
C228	C	0.749935	-0.340430	1.080423
C229	C	-0.000069	-1.092463	0.226109
C230	C	0.249931	-0.842463	0.476109
C231	C	0.499931	-0.592463	0.726109
C232	C	0.749931	-0.342463	0.976109
H233	H	-0.159061	-1.203189	-0.014516
H234	H	0.090939	-0.953189	0.235484
H235	H	0.340939	-0.703189	0.485484
H236	H	0.590939	-0.453189	0.735484
Cl237	Cl	-0.430166	-1.293545	0.075812
Cl238	Cl	-0.180166	-1.043545	0.325812
Cl239	Cl	0.069834	-0.793545	0.575812
Cl240	Cl	0.319834	-0.543545	0.825812
Cl241	Cl	-0.569902	-1.293560	0.075826
Cl242	Cl	-0.319902	-1.043560	0.325826
Cl243	Cl	-0.069902	-0.793560	0.575826
Cl244	Cl	0.180098	-0.543560	0.825826
H245	H	-0.841047	-1.203251	-0.014446
H246	H	-0.591047	-0.953251	0.235554
H247	H	-0.341047	-0.703251	0.485554
H248	H	-0.091047	-0.453251	0.735554
Cl249	Cl	-0.854778	-0.948354	-0.269217
Cl250	Cl	-0.604778	-0.698354	-0.019217
Cl251	Cl	-0.354778	-0.448354	0.230783
Cl252	Cl	-0.104778	-0.198354	0.480783
H253	H	-0.728709	-1.203247	-0.014450
H254	H	-0.478709	-0.953247	0.235550
H255	H	-0.228709	-0.703247	0.485550
H256	H	0.021291	-0.453247	0.735550
Cl257	Cl	-0.715038	-0.948322	-0.269217
Cl258	Cl	-0.465038	-0.698322	-0.019217
Cl259	Cl	-0.215038	-0.448322	0.230783
Cl260	Cl	0.034962	-0.198322	0.480783
Cl261	Cl	-0.145379	-0.948276	-0.269270
Cl262	Cl	0.104621	-0.698276	-0.019270
Cl263	Cl	0.354621	-0.448276	0.230730
Cl264	Cl	0.604621	-0.198276	0.480730
H265	H	-0.271382	-1.203194	-0.014485
H266	H	-0.021382	-0.953194	0.235515
H267	H	0.228618	-0.703194	0.485515
H268	H	0.478618	-0.453194	0.735515
H269	H	-0.556238	-0.913410	-0.304070
H270	H	-0.306238	-0.663410	-0.054070
H271	H	-0.056238	-0.413410	0.195930
H272	H	0.193762	-0.163410	0.445930
Cl273	Cl	-0.430209	-0.885663	-0.331782
Cl274	Cl	-0.180209	-0.635663	-0.081782
Cl275	Cl	0.069791	-0.385663	0.168218
Cl276	Cl	0.319791	-0.135663	0.418218
Cl277	Cl	-0.285139	-0.948286	-0.269268
Cl278	Cl	-0.035139	-0.698286	-0.019268
Cl279	Cl	0.214861	-0.448286	0.230732
Cl280	Cl	0.464861	-0.198286	0.480732
