data_functionalizedCrystal
_audit_creation_method	'MofGen! by Chris Wilmer'
_symmetry_space_group_name_H-M	'P1'
_symmetry_Int_Tables_number	1
_symmetry_cell_setting	triclinic
loop_
_symmetry_equiv_pos_as_xyz
  x,y,z
_cell_length_a	11.792254
_cell_length_b	15.944493
_cell_length_c	10.268362
_cell_angle_alpha	90.000590
_cell_angle_beta	89.995475
_cell_angle_gamma	83.836821
loop_
_atom_site_label
_atom_site_type_symbol
_atom_site_fract_x
_atom_site_fract_y
_atom_site_fract_z
O1	O	1.505919	0.115182	-0.108281
O2	O	1.175479	0.127036	-0.108282
O3	O	1.349757	-0.001128	-0.108292
O4	O	1.331641	0.243346	-0.108271
O5	O	1.349742	-0.001133	0.108309
O6	O	1.175464	0.127031	0.108319
O7	O	1.505904	0.115177	0.108320
Cu8	Cu	1.340682	0.121103	0.128097
Cu9	Cu	1.340700	0.121110	-0.128059
O10	O	1.331626	0.243341	0.108330
C11	C	1.133187	0.126287	0.000018
C12	C	1.007193	0.124052	0.000017
C13	C	0.904872	0.122236	0.000011
C14	C	0.776504	0.119965	0.000010
C15	C	1.349009	-0.032429	0.000003
C16	C	1.346789	-0.125687	-0.000014
C17	C	1.449373	-0.360981	0.000011
C18	C	1.394061	-0.411798	-0.106784
C19	C	1.342676	-0.296427	0.000002
C20	C	1.394021	-0.411779	0.106767
C21	C	1.338711	-0.461355	0.000023
C22	C	1.287392	-0.346016	-0.106881
C23	C	1.287368	-0.345994	0.106766
C24	C	1.231977	-0.396778	-0.000055
C25	C	1.344963	-0.201417	-0.000011
C26	C	1.336415	-0.556362	0.000027
C27	C	1.548196	0.115926	0.000017
C28	C	1.674190	0.118161	0.000010
C29	C	1.332374	0.274642	0.000033
C30	C	1.334594	0.367900	0.000041
N31	N	1.340678	0.121098	0.308263
N32	N	1.340713	0.121108	-0.308225
C33	C	1.340694	0.121108	0.573933
C34	C	1.340682	0.121105	0.426095
H35	H	1.439127	-0.440536	-0.197072
C36	C	1.573526	-0.339294	-0.000127
C37	C	1.617405	-0.288088	0.112870
C38	C	1.741554	-0.266399	0.112726
C39	C	1.821825	-0.295917	-0.000415
C40	C	1.777948	-0.347126	-0.113421
C41	C	1.653799	-0.368814	-0.113276
H42	H	1.557982	-0.266235	0.196632
H43	H	1.774034	-0.228491	0.196380
H44	H	1.913728	-0.279861	-0.000522
H45	H	1.837371	-0.368979	-0.197182
H46	H	1.621319	-0.406723	-0.196931
C47	C	1.226574	-0.307367	-0.228996
C48	C	1.292178	-0.257639	-0.326996
C49	C	1.231366	-0.218989	-0.449111
C50	C	1.104950	-0.230068	-0.473226
C51	C	1.039339	-0.279798	-0.375224
C52	C	1.100151	-0.318447	-0.253109
H53	H	1.385765	-0.249436	-0.309147
H54	H	1.279936	-0.182175	-0.521659
H55	H	1.059933	-0.201457	-0.563623
H56	H	0.945752	-0.288001	-0.393073
H57	H	1.051581	-0.355261	-0.180561
H58	H	1.140000	-0.412662	-0.000114
H59	H	1.242341	-0.317240	0.197057
C60	C	1.454904	-0.450584	0.228740
C61	C	1.389070	-0.499744	0.327277
C62	C	1.449962	-0.538547	0.449241
C63	C	1.576689	-0.528191	0.472668
C64	C	1.642530	-0.479029	0.374129
C65	C	1.581638	-0.440226	0.252164
H66	H	1.295252	-0.507412	0.309937
H67	H	1.401221	-0.574940	0.522186
H68	H	1.621765	-0.556916	0.562953
H69	H	1.736348	-0.471361	0.391468
H70	H	1.630379	-0.403833	0.179219
