data_functionalizedCrystal
_audit_creation_method	'MofGen! by Chris Wilmer'
_symmetry_space_group_name_H-M	'P1'
_symmetry_Int_Tables_number	1
_symmetry_cell_setting	triclinic
loop_
_symmetry_equiv_pos_as_xyz
  x,y,z
_cell_length_a	12.759401
_cell_length_b	12.759400
_cell_length_c	12.759393
_cell_angle_alpha	89.969553
_cell_angle_beta	89.981433
_cell_angle_gamma	90.012209
loop_
_atom_site_label
_atom_site_type_symbol
_atom_site_fract_x
_atom_site_fract_y
_atom_site_fract_z
Zn1	Zn	1.606267	-0.418231	-0.593991
Zn2	Zn	1.606166	-0.593950	-0.418315
Zn3	Zn	1.430569	-0.418283	-0.418331
Zn4	Zn	1.430562	-0.593866	-0.593956
O5	O	1.518391	-0.506082	-0.506148
O6	O	1.753274	-0.441554	-0.570696
O7	O	1.582833	-0.570704	-0.271296
O8	O	1.453920	-0.271255	-0.441654
O9	O	1.753200	-0.570654	-0.441627
O10	O	1.583005	-0.271217	-0.570711
O11	O	1.453822	-0.441642	-0.271307
O12	O	1.283547	-0.441560	-0.441620
O13	O	1.453909	-0.570511	-0.740982
O14	O	1.283542	-0.570561	-0.570651
O15	O	1.582998	-0.441473	-0.741008
O16	O	1.582826	-0.740960	-0.441593
O17	O	1.453811	-0.740898	-0.570636
C18	C	1.245423	-0.506058	-0.506134
C19	C	1.128647	-0.506072	-0.506152
C20	C	1.073816	-0.438977	-0.573463
C21	C	0.964092	-0.438997	-0.573469
C22	C	0.964039	-0.573217	-0.438853
C23	C	1.073761	-0.573191	-0.438841
C24	C	1.128702	-0.371858	-0.640774
C25	C	1.073872	-0.304758	-0.708090
C26	C	0.964148	-0.304778	-0.708097
C27	C	0.909254	-0.371899	-0.640787
C28	C	1.518336	-0.779050	-0.506132
C29	C	1.518408	-0.895826	-0.506160
C30	C	1.585589	-0.950589	-0.573415
C31	C	1.585638	-1.060313	-0.573441
C32	C	1.451322	-1.060502	-0.438947
C33	C	1.451269	-0.950780	-0.438927
C34	C	1.652728	-0.895635	-0.640647
C35	C	1.719915	-0.950398	-0.707907
C36	C	1.719964	-1.060122	-0.707933
C37	C	1.652826	-1.115083	-0.640699
C38	C	1.792424	-0.506108	-0.506164
C39	C	1.909201	-0.506119	-0.506170
C40	C	1.518464	-0.505976	-0.780182
C41	C	1.518496	-0.505931	-0.896959
C42	C	1.518475	-0.232049	-0.506188
C43	C	1.518510	-0.115272	-0.506205
C44	C	1.585722	-0.438735	-0.951836
C45	C	1.585747	-0.438697	-1.061560
C46	C	1.451316	-0.573061	-1.061520
C47	C	1.451287	-0.573093	-0.951798
C48	C	1.652930	-0.371573	-0.896997
C49	C	1.720163	-0.304372	-0.951874
C50	C	1.720188	-0.304334	-1.061598
C51	C	1.652980	-0.371497	-1.116445
C52	C	1.518378	-0.506112	-0.233181
C53	C	1.518550	-0.505861	-0.116405
H54	H	1.118405	-0.627826	-0.384032
O55	O	1.386166	-1.113773	-0.373489
C56	C	1.409187	-1.087040	-0.268790
H57	H	1.449534	-1.007346	-0.266632
H58	H	1.463254	-1.148779	-0.233462
C59	C	1.257241	-1.179973	-0.207711
C60	C	1.306788	-1.082088	-0.205060
H61	H	1.194079	-1.176922	-0.168397
H62	H	1.241733	-1.197987	-0.278247
H63	H	1.302308	-1.231412	-0.178273
H64	H	1.261728	-1.030654	-0.234509
H65	H	1.322286	-1.064064	-0.134526
O66	O	1.785475	-0.239032	-0.898763
C67	C	1.844833	-0.179730	-0.970732
H68	H	1.801818	-0.176061	-1.048942
H69	H	1.924615	-0.218210	-0.982402
C70	C	1.912835	-0.072436	-0.831875
C71	C	1.859999	-0.067922	-0.927931
H72	H	1.922195	-0.003468	-0.805472
H73	H	1.872848	-0.112390	-0.783387
H74	H	1.979315	-0.104507	-0.841613
H75	H	1.793516	-0.035863	-0.918190
H76	H	1.899975	-0.027959	-0.976417
H77	H	1.396563	-0.906192	-0.384163
O78	O	1.785337	-0.238939	-1.114951
C79	C	1.725561	-0.171067	-1.178444
H80	H	1.642808	-0.164582	-1.145374
H81	H	1.721954	-0.203517	-1.261596
C82	C	1.878563	-0.069818	-1.220763
C83	C	1.776927	-0.061846	-1.180141
H84	H	1.910249	-0.002446	-1.221815
H85	H	1.918837	-0.115547	-1.177991
H86	H	1.875544	-0.096864	-1.290053
H87	H	1.779949	-0.034813	-1.110849
H88	H	1.736655	-0.016110	-1.222903
H89	H	1.652859	-1.204428	-0.640737
H90	H	1.652698	-0.806292	-0.640632
H91	H	0.919508	-0.250135	-0.762901
H92	H	1.652920	-0.371599	-0.807654
O93	O	0.910671	-0.638532	-0.373630
C94	C	0.847213	-0.706456	-0.433340
H95	H	0.880319	-0.713032	-0.516070
H96	H	0.764058	-0.673996	-0.437025
C97	C	0.804846	-0.807539	-0.280218
C98	C	0.845511	-0.815623	-0.381827
H99	H	0.803791	-0.874878	-0.248441
H100	H	0.847595	-0.761776	-0.239988
H101	H	0.735553	-0.780485	-0.283303
H102	H	0.914806	-0.842664	-0.378739
H103	H	0.802773	-0.861394	-0.422054
H104	H	1.396599	-0.627741	-1.106185
H105	H	1.652994	-0.371449	-1.205790
H106	H	0.819909	-0.371887	-0.640775
H107	H	1.774571	-0.905643	-0.762653
O108	O	1.385973	-0.638487	-0.898646
C109	C	1.326659	-0.697758	-0.970574
H110	H	1.369699	-0.701356	-1.048797
H111	H	1.246867	-0.659297	-0.982230
C112	C	1.258651	-0.805175	-0.831656
C113	C	1.311518	-0.809602	-0.927729
H114	H	1.249306	-0.874165	-0.805226
H115	H	1.298609	-0.765242	-0.783195
H116	H	1.192163	-0.773120	-0.841382
H117	H	1.378008	-0.841645	-0.917999
H118	H	1.271570	-0.849544	-0.976187
H119	H	1.118573	-0.250105	-0.762885
O120	O	1.235287	-0.371840	-0.640962
C121	C	1.271980	-0.398968	-0.741597
H122	H	1.208771	-0.381106	-0.802148
H123	H	1.291446	-0.486141	-0.743666
C124	C	1.448782	-0.356909	-0.692568
C125	C	1.371152	-0.334963	-0.766939
H126	H	1.509959	-0.317433	-0.708199
H127	H	1.424063	-0.338637	-0.624767
H128	H	1.464991	-0.429555	-0.694300
H129	H	1.354935	-0.262322	-0.765197
H130	H	1.395871	-0.353222	-0.834741
H131	H	1.774662	-1.104707	-0.762707
