data_functionalizedCrystal
_audit_creation_method	'MofGen! by Chris Wilmer'
_symmetry_space_group_name_H-M	'P1'
_symmetry_Int_Tables_number	1
_symmetry_cell_setting	triclinic
loop_
_symmetry_equiv_pos_as_xyz
  x,y,z
_cell_length_a	19.188925
_cell_length_b	19.188930
_cell_length_c	13.596369
_cell_angle_alpha	89.988893
_cell_angle_beta	89.993722
_cell_angle_gamma	83.143665
loop_
_atom_site_label
_atom_site_type_symbol
_atom_site_fract_x
_atom_site_fract_y
_atom_site_fract_z
O1	O	0.926148	0.087151	-0.081824
O2	O	0.722836	0.098889	-0.081822
O3	O	0.830359	-0.008636	-0.081804
O4	O	0.818625	0.194675	-0.081842
O5	O	0.830348	-0.008642	0.081779
O6	O	0.722825	0.098883	0.081761
O7	O	0.926137	0.087145	0.081759
Zn8	Zn	0.824480	0.093013	0.107732
Zn9	Zn	0.824494	0.093021	-0.107795
O10	O	0.818614	0.194670	0.081741
C11	C	0.829974	-0.034650	-0.000009
C12	C	0.828833	-0.112154	-0.000001
C13	C	0.696820	0.098507	-0.000030
C14	C	0.619315	0.097367	-0.000029
C15	C	0.891924	-0.157079	0.000003
C16	C	0.890852	-0.229903	-0.000012
C17	C	0.826686	-0.257799	-0.000013
C18	C	0.763587	-0.212864	-0.000023
C19	C	0.764660	-0.140041	-0.000017
N20	N	0.777635	-0.365805	0.055658
N21	N	0.776620	-0.434983	0.055654
C22	C	0.823448	-0.477207	-0.000033
N23	N	0.871341	-0.447641	-0.055704
N24	N	0.872358	-0.378456	-0.055696
C25	C	0.825515	-0.336761	-0.000020
C26	C	0.885381	-0.601097	-0.000047
C27	C	0.884307	-0.673922	-0.000069
C28	C	0.757040	-0.656880	-0.000069
C29	C	0.758116	-0.584057	-0.000057
C30	C	0.822289	-0.556170	-0.000041
C31	C	0.057545	0.152831	-0.000042
C32	C	0.130368	0.153908	-0.000047
C33	C	0.175302	0.090816	-0.000034
C34	C	0.147408	0.026642	-0.000040
C35	C	0.074586	0.025568	-0.000044
N36	N	0.295976	0.045138	0.055660
N37	N	0.365153	0.046163	0.055666
C38	C	0.394712	0.094050	-0.000023
N39	N	0.352478	0.140883	-0.055706
N40	N	0.283294	0.139860	-0.055707
C41	C	0.254267	0.091974	-0.000030
C42	C	0.501561	0.159386	-0.000030
C43	C	0.574385	0.160460	-0.000041
C44	C	0.591425	0.033193	-0.000024
C45	C	0.518601	0.032121	-0.000022
C46	C	0.473673	0.095220	-0.000020
C47	C	0.952154	0.087527	-0.000035
C48	C	1.029658	0.088666	-0.000042
C49	C	0.819000	0.220684	-0.000056
C50	C	0.820140	0.298188	-0.000071
N51	N	0.824475	0.093008	0.254824
N52	N	0.824504	0.093021	-0.254887
C53	C	0.824493	0.093021	0.656115
C54	C	0.824486	0.093020	0.544464
C55	C	0.824484	0.093015	0.455473
C56	C	0.824477	0.093013	0.343815
H57	H	0.944179	-0.134379	0.000013
H58	H	0.628010	-0.018178	-0.000020
C59	C	0.693004	-0.243550	-0.000016
N60	N	0.639838	-0.266662	-0.000011
C61	C	0.688710	-0.534637	-0.000056
N62	N	0.636430	-0.497414	-0.000060
H63	H	0.935686	-0.710500	-0.000071
C64	C	0.452137	0.228795	-0.000046
N65	N	0.414914	0.281075	-0.000063
C66	C	0.043911	-0.045022	-0.000033
N67	N	0.020806	-0.098191	-0.000018
H68	H	0.153078	0.206160	-0.000038
C69	C	0.960260	-0.279330	-0.000001
N70	N	1.012538	-0.316556	0.000010
H71	H	0.713282	-0.103462	-0.000020
H72	H	0.937635	-0.578390	-0.000038
H73	H	0.597088	0.212713	-0.000049
C74	C	0.196838	-0.042759	-0.000019
N75	N	0.234068	-0.095035	-0.000004
H76	H	0.495896	-0.020129	-0.000017
H77	H	0.704794	-0.679592	-0.000074
H78	H	0.020968	0.204211	-0.000045
