data_functionalizedCrystal
_audit_creation_method	'MofGen! by Chris Wilmer'
_symmetry_space_group_name_H-M	'P1'
_symmetry_Int_Tables_number	1
_symmetry_cell_setting	triclinic
loop_
_symmetry_equiv_pos_as_xyz
  x,y,z
_cell_length_a	14.560438
_cell_length_b	18.426585
_cell_length_c	14.560438
_cell_angle_alpha	90.000730
_cell_angle_beta	59.998142
_cell_angle_gamma	60.002202
loop_
_atom_site_label
_atom_site_type_symbol
_atom_site_fract_x
_atom_site_fract_y
_atom_site_fract_z
Zr1	Zr	1.005339	0.699114	-0.120584
O2	O	1.196940	0.583236	-0.267236
O3	O	0.813735	0.734636	-0.075623
O4	O	1.005343	0.734633	-0.267234
O5	O	1.005329	0.583242	0.075516
O6	O	1.005349	0.854059	-0.267238
O7	O	1.005332	0.583239	-0.075624
O8	O	0.662597	0.854064	0.075520
O9	O	1.348082	0.583237	-0.267241
O10	O	0.892550	0.838913	-0.056456
O11	O	0.892543	0.749789	0.056342
O12	O	1.118138	0.749786	-0.169255
O13	O	1.118131	0.660662	-0.056458
Zr14	Zr	1.005345	0.889589	0.120462
Zr15	Zr	1.005349	0.889585	-0.120590
Zr16	Zr	1.005335	0.699119	0.120468
Zr17	Zr	1.246392	0.699115	-0.120592
Zr18	Zr	0.764291	0.889588	0.120471
O19	O	1.196949	0.854067	0.075501
O20	O	1.196955	0.854060	-0.267244
O21	O	1.196935	0.583243	0.075510
O22	O	0.813743	1.005468	0.267114
O23	O	0.813749	1.005461	-0.075631
O24	O	0.813729	0.734643	0.267122
O25	O	1.005354	1.005462	-0.075638
O26	O	1.005340	0.854070	0.267112
O27	O	1.005334	0.734644	0.267116
O28	O	1.005352	1.005465	0.075503
O29	O	1.348090	0.734635	-0.267246
O30	O	0.662594	0.854068	0.267124
O31	O	0.662602	1.005467	0.267119
O32	O	0.662605	1.005463	0.075515
O33	O	1.348079	0.583241	-0.075637
O34	O	1.348087	0.734639	-0.075641
O35	O	0.892546	0.838918	0.169134
O36	O	0.892553	0.928042	0.056336
O37	O	1.118140	0.838914	-0.056464
O38	O	1.118134	0.749790	0.056334
C39	C	0.703821	0.794350	-0.000050
C40	C	0.601487	0.794349	-0.000047
C41	C	1.005329	0.556102	-0.000053
C42	C	1.005325	0.475242	-0.000051
C43	C	0.540537	0.728558	-0.083336
C44	C	0.636683	0.728553	-0.083320
C45	C	0.470134	0.860149	0.083222
C46	C	0.373990	0.860149	0.083210
C47	C	0.868111	0.619604	-0.145496
C48	C	0.999459	0.553813	-0.228773
C49	C	1.041787	0.525627	-0.340146
C50	C	0.952772	0.563241	-0.368262
C51	C	0.821427	0.629037	-0.284991
C52	C	0.779102	0.657209	-0.173605
C53	C	0.142566	0.969098	0.145376
C54	C	0.011219	1.034899	0.228644
C55	C	-0.031118	1.063095	0.340021
C56	C	0.057891	1.025496	0.368136
C57	C	0.189238	0.959695	0.284868
C58	C	0.231569	0.931498	0.173492
C59	C	1.005364	0.179128	-0.000070
C60	C	1.005358	0.261514	-0.000068
C61	C	1.005344	0.327182	-0.000061
C62	C	1.005339	0.409574	-0.000057
C63	C	1.306863	0.794353	-0.000071
C64	C	1.409196	0.794354	-0.000075
C65	C	1.005347	0.794346	-0.301580
C66	C	1.005349	0.794344	-0.403913
C67	C	1.005355	1.032601	-0.000069
C68	C	1.005359	1.113461	-0.000071
C69	C	1.123101	0.747821	-0.510870
C70	C	1.123095	0.747832	-0.607019
C71	C	0.887574	0.840888	-0.489241
C72	C	0.887581	0.840882	-0.393094
C73	C	1.264562	0.734230	-0.809162
C74	C	1.382321	0.687692	-0.916125
C75	C	1.486289	0.604317	-0.936914
C76	C	1.472503	0.567460	-0.850743
C77	C	1.354743	0.613992	-0.743784
C78	C	1.250779	0.697382	-0.722997
C79	C	0.746122	0.854475	-0.190953
C80	C	0.628360	0.901002	-0.083992
C81	C	0.524381	0.984377	-0.063196
C82	C	0.538154	1.021228	-0.149363
C83	C	0.655916	0.974701	-0.256325
C84	C	0.759895	0.891327	-0.277114
C85	C	1.005337	0.794358	0.301459
C86	C	1.005335	0.794360	0.403792
C87	C	0.703833	1.032600	-0.000058
C88	C	0.601504	1.113459	-0.000057
C89	C	0.703816	0.794356	0.301469
C90	C	0.601480	0.794358	0.403806
C91	C	0.703828	1.032606	0.301462
C92	C	0.601497	1.113467	0.403795
C93	C	1.306855	0.556098	-0.301583
C94	C	1.409186	0.475237	-0.403917
C95	C	1.306850	0.556104	-0.000064
C96	C	1.409179	0.475245	-0.000065
C97	C	1.306868	0.794347	-0.301591
C98	C	1.409203	0.794346	-0.403927
C99	C	0.553448	1.104907	-0.058943
C100	C	0.457312	1.180875	-0.058964
C101	C	0.409228	1.265395	-0.000093
C102	C	0.457294	1.273945	0.058795
C103	C	0.553434	1.197977	0.058809
C104	C	0.553445	1.197970	0.392973
C105	C	0.457308	1.273955	0.489118
C106	C	0.409218	1.265435	0.596083
C107	C	0.457280	1.180923	0.606903
C108	C	0.553422	1.104940	0.510760
C109	C	1.457250	0.390734	-0.393095
C110	C	1.553417	0.314749	-0.489240
C111	C	1.601512	0.323269	-0.596205
C112	C	1.553444	0.407781	-0.607025
C113	C	1.457286	0.483764	-0.510881
C114	C	1.457246	0.483797	0.058811
C115	C	1.553408	0.407828	0.058806
C116	C	1.601496	0.323309	-0.000069
C117	C	1.553425	0.314759	-0.058952
C118	C	1.457271	0.390726	-0.058953
C119	C	0.553403	0.840882	0.510760
C120	C	0.457257	0.840873	0.606912
C121	C	0.457271	0.747815	0.489142
C122	C	0.553422	0.747819	0.392993
C123	C	0.379364	0.854478	0.809055
C124	C	0.331267	0.901017	0.916016
C125	C	0.308941	0.984391	0.936799
C126	C	0.334688	1.021247	0.850627
C127	C	0.382772	0.974713	0.743670
C128	C	0.405121	0.891324	0.722887
C129	C	0.631309	0.734223	0.190852
C130	C	0.679388	0.687695	0.083893
C131	C	0.701710	0.604320	0.063102
C132	C	0.675946	0.567470	0.149271
C133	C	0.627867	0.613999	0.256230
C134	C	0.605553	0.697373	0.277015
H135	H	0.569210	0.674983	-0.151151
H136	H	0.418186	1.342761	0.480288
Br137	Br	0.000440	1.063764	0.519294
Br138	Br	0.714482	0.737664	-0.033086
Br139	Br	0.392098	1.169251	-0.138886
Br140	Br	1.120262	0.502769	-0.190617
H141	H	0.330933	1.327312	0.674360
H142	H	0.418111	1.173999	0.694007
H143	H	0.330943	1.327245	-0.000113
Br144	Br	0.618618	0.990260	0.525467
Br145	Br	1.392061	0.598444	-0.525589
Br146	Br	0.810668	0.657841	0.005663
H147	H	1.418100	0.552610	0.106761
H148	H	0.592586	1.204924	0.305885
Br149	Br	0.618623	0.904040	0.525437
Br150	Br	1.731992	0.220218	-0.000056
H151	H	1.218995	0.709926	-0.519685
Br152	Br	1.618623	0.419453	0.138727
Br153	Br	0.618635	1.209600	0.138740
H154	H	0.791692	0.878777	-0.480446
Br155	Br	0.409693	0.741311	0.780847
H156	H	1.592593	0.245933	-0.106886
Br157	Br	0.200020	0.930831	-0.005785
H158	H	0.403735	1.004720	0.673510
H159	H	0.418129	1.342771	0.106725
Br160	Br	0.422365	0.949438	0.196246
Br161	Br	1.391996	0.379146	-0.247940
H162	H	1.418138	0.383751	-0.106893
Br163	Br	1.618629	0.200066	-0.474529
H164	H	0.418128	0.709926	0.480352
H165	H	0.606867	0.583997	0.326397
H166	H	0.316495	1.089141	0.867564
Br167	Br	0.674611	1.024714	-0.373269
H168	H	0.269765	1.022287	1.023897
H169	H	1.679811	0.261391	-0.674482
Br170	Br	0.296331	0.850999	1.032959
Br171	Br	1.618728	0.419328	-0.752201
H172	H	0.694108	0.499585	0.132344
Br173	Br	0.766854	0.541208	-0.082033
Br174	Br	0.601033	0.847375	0.219060
H175	H	0.748953	0.659661	-0.307882
Br176	Br	1.646097	0.541156	-1.082082
Br177	Br	1.010232	0.524997	-0.519426
Br178	Br	-0.209374	1.152413	0.453024
Br179	Br	0.310040	0.908667	0.323024
Br180	Br	1.220046	0.436342	-0.453162
H181	H	1.343516	0.583982	-0.673627
Br182	Br	-0.109577	1.085942	0.190482
H183	H	1.557163	0.499563	-0.867686
H184	H	1.393537	0.717710	-0.986282
H185	H	0.453482	1.089114	-0.132432
Br186	Br	1.123469	0.847394	-0.780951
H187	H	0.428488	1.022252	0.023900
H188	H	0.617146	0.870984	-0.013836
H189	H	0.592597	1.036094	-0.106897
Br190	Br	0.887245	0.741321	-0.219169
