data_functionalizedCrystal
_audit_creation_method	'MofGen! by Chris Wilmer'
_symmetry_space_group_name_H-M	'P1'
_symmetry_Int_Tables_number	1
_symmetry_cell_setting	triclinic
loop_
_symmetry_equiv_pos_as_xyz
  x,y,z
_cell_length_a	12.827892
_cell_length_b	11.169417
_cell_length_c	11.169409
_cell_angle_alpha	90.019824
_cell_angle_beta	89.966915
_cell_angle_gamma	89.983920
loop_
_atom_site_label
_atom_site_type_symbol
_atom_site_fract_x
_atom_site_fract_y
_atom_site_fract_z
Zn1	Zn	-0.415924	-1.834922	-0.678536
Zn2	Zn	-0.590711	-1.834794	-0.477851
Zn3	Zn	-0.415988	-1.634208	-0.477871
Zn4	Zn	-0.590626	-1.634198	-0.678496
O5	O	-0.503312	-1.734530	-0.578188
O6	O	-0.439119	-2.002855	-0.651924
O7	O	-0.567596	-1.808136	-0.309904
O8	O	-0.269743	-1.660890	-0.504515
O9	O	-0.567534	-2.002761	-0.504481
O10	O	-0.269696	-1.808354	-0.651943
O11	O	-0.439227	-1.660766	-0.309918
O12	O	-0.439145	-1.466257	-0.504475
O13	O	-0.567389	-1.660874	-0.846451
O14	O	-0.567451	-1.466250	-0.651874
O15	O	-0.439036	-1.808345	-0.846481
O16	O	-0.736936	-1.808127	-0.504441
O17	O	-0.736874	-1.660750	-0.651854
C18	C	-0.503296	-1.422706	-0.578173
C19	C	-0.503315	-1.289306	-0.578195
C20	C	-0.774822	-1.734456	-0.578167
C21	C	-0.890975	-1.734535	-0.578198
C22	C	-0.503196	-1.734623	-0.891231
C23	C	-0.503147	-1.734662	-1.024631
C24	C	-1.062698	-1.807551	-0.651246
C25	C	-0.942648	-1.807472	-0.651216
C26	C	-0.230742	-1.734637	-0.578236
C27	C	-0.114589	-1.734683	-0.578256
C28	C	-0.503329	-2.047573	-0.578205
C29	C	-0.503336	-2.180973	-0.578212
C30	C	-0.503352	-1.734508	-0.266364
C31	C	-0.503108	-1.734701	-0.132964
H32	H	-1.107149	-1.869999	-0.713754
H33	H	-1.070139	-1.672244	-0.515739
H34	H	-0.898024	-1.869852	-0.713711
H35	H	-0.935593	-1.672141	-0.515711
