data_functionalizedCrystal
_audit_creation_method	'MofGen! by Chris Wilmer'
_symmetry_space_group_name_H-M	'P1'
_symmetry_Int_Tables_number	1
_symmetry_cell_setting	triclinic
loop_
_symmetry_equiv_pos_as_xyz
  x,y,z
_cell_length_a	17.699077
_cell_length_b	9.065218
_cell_length_c	16.176319
_cell_angle_alpha	89.995087
_cell_angle_beta	90.006860
_cell_angle_gamma	95.851769
loop_
_atom_site_label
_atom_site_type_symbol
_atom_site_fract_x
_atom_site_fract_y
_atom_site_fract_z
O1	O	1.005536	-0.186519	0.068732
O2	O	0.785347	-0.210800	0.068736
O3	O	0.899993	0.016118	0.068732
O4	O	0.890890	-0.413437	0.068736
O5	O	0.899977	0.016132	-0.068761
O6	O	0.785330	-0.210786	-0.068757
O7	O	1.005520	-0.186505	-0.068761
Cu8	Cu	0.895424	-0.198644	-0.081313
Cu9	Cu	0.895443	-0.198661	0.081288
O10	O	0.890874	-0.413423	-0.068757
C11	C	0.757135	-0.209924	-0.000010
C12	C	0.673096	-0.207319	-0.000009
C13	C	0.633610	-0.206083	-0.074957
C14	C	0.554648	-0.203611	-0.074958
C15	C	0.515173	-0.202386	-0.000010
C16	C	0.554665	-0.203617	0.074945
C17	C	0.633626	-0.206078	0.074945
C18	C	0.236224	-0.193689	0.074946
C19	C	0.157257	-0.191232	0.074940
C20	C	0.157247	-0.191222	-0.074957
C21	C	0.236208	-0.193683	-0.074957
C22	C	0.275693	-0.194907	-0.000003
C23	C	0.361312	-0.197584	-0.000003
C24	C	0.429554	-0.199719	-0.000009
C25	C	0.899110	0.071086	-0.000013
C26	C	0.896494	0.234851	-0.000009
C27	C	1.033732	-0.187380	-0.000013
C28	C	1.117771	-0.189986	-0.000009
C29	C	0.891757	-0.468390	-0.000010
C30	C	0.894373	-0.632156	-0.000009
N31	N	0.895416	-0.198631	-0.195679
C32	C	0.946197	-0.098193	-0.238944
C33	C	0.946201	-0.098191	-0.325491
C34	C	0.895427	-0.198636	-0.368771
C35	C	0.844640	-0.299079	-0.325499
C36	C	0.844633	-0.299072	-0.238954
C37	C	0.844666	-0.299107	-0.674528
C38	C	0.844679	-0.299109	-0.761079
C39	C	0.946234	-0.098225	-0.761065
C40	C	0.946227	-0.098219	-0.674520
C41	C	0.895438	-0.198656	-0.631255
C42	C	0.895434	-0.198654	-0.537411
C43	C	0.895434	-0.198646	-0.462614
N44	N	0.895457	-0.198662	0.195654
H45	H	0.125119	-0.190233	0.135976
H46	H	0.665774	-0.207087	0.135975
N47	N	0.278807	-0.194997	0.155785
H48	H	0.241815	-0.193849	0.203262
H49	H	0.306061	-0.287430	0.159059
N50	N	1.001009	0.010116	-0.807732
H51	H	1.033176	0.073738	-0.767180
H52	H	1.034852	-0.046293	-0.843627
N53	N	0.512093	-0.202277	0.155784
H54	H	0.456080	-0.200533	0.144413
H55	H	0.520387	-0.294125	0.188518
H56	H	0.125089	-0.190219	-0.135988
N57	N	1.000987	0.010114	-0.627833
H58	H	1.054819	-0.006738	-0.642878
H59	H	0.991490	0.114749	-0.642921
H60	H	0.268344	-0.194689	-0.135987
H61	H	0.987546	-0.016405	-0.203712
H62	H	0.987550	-0.016406	-0.360718
N63	N	0.789908	-0.407442	-0.807763
H64	H	0.757729	-0.471063	-0.767223
H65	H	0.756076	-0.351029	-0.843683
N66	N	0.789886	-0.407422	-0.627870
H67	H	0.757724	-0.471052	-0.668423
H68	H	0.819294	-0.472574	-0.591945
N69	N	0.676187	-0.207400	-0.155794
H70	H	0.703434	-0.299838	-0.159135
H71	H	0.639146	-0.206181	-0.203227
H72	H	0.803281	-0.380858	-0.203728
N73	N	0.512057	-0.202273	-0.155793
H74	H	0.549105	-0.202384	-0.203273
H75	H	0.474150	-0.293199	-0.159308
N76	N	0.789870	-0.407409	-0.372175
H77	H	0.797580	-0.392177	-0.433567
H78	H	0.799323	-0.512044	-0.357036
