data_functionalizedCrystal
_audit_creation_method	'MofGen! by Chris Wilmer'
_symmetry_space_group_name_H-M	'P1'
_symmetry_Int_Tables_number	1
_symmetry_cell_setting	triclinic
loop_
_symmetry_equiv_pos_as_xyz
  x,y,z
_cell_length_a	10.685904
_cell_length_b	14.908178
_cell_length_c	10.685880
_cell_angle_alpha	91.292343
_cell_angle_beta	80.918635
_cell_angle_gamma	97.409762
loop_
_atom_site_label
_atom_site_type_symbol
_atom_site_fract_x
_atom_site_fract_y
_atom_site_fract_z
Zn1	Zn	1.969741	-0.297270	-0.840656
Zn2	Zn	1.941066	-0.437438	-0.616129
Zn3	Zn	1.741176	-0.297318	-0.612123
Zn4	Zn	1.743304	-0.458836	-0.810158
O5	O	1.848822	-0.372716	-0.719766
O6	O	2.144357	-0.306888	-0.825312
O7	O	1.901658	-0.409916	-0.438754
O8	O	1.782606	-0.171055	-0.653526
O9	O	2.123289	-0.409869	-0.660352
O10	O	1.950532	-0.171020	-0.821428
O11	O	1.754800	-0.306971	-0.435811
O12	O	1.563038	-0.327719	-0.623953
O13	O	1.786233	-0.446339	-0.991047
O14	O	1.564602	-0.446386	-0.769448
O15	O	1.952596	-0.327637	-1.013454
O16	O	1.903722	-0.566533	-0.630780
O17	O	1.758427	-0.582254	-0.773332
C18	C	1.517558	-0.389381	-0.692957
C19	C	1.375842	-0.396533	-0.681517
C20	C	1.828230	-0.607130	-0.699211
C21	C	1.819541	-0.707410	-0.690470
C22	C	1.977963	-0.895675	-0.849042
C23	C	1.969804	-0.989897	-0.840833
C24	C	1.795057	-0.990078	-0.665849
C25	C	1.803217	-0.895856	-0.674058
C26	C	1.894674	-0.848658	-0.765657
C27	C	1.902839	-0.754434	-0.773859
C28	C	1.728087	-0.754617	-0.598882
C29	C	1.719927	-0.848839	-0.590672
C30	C	2.181379	-0.355986	-0.746681
C31	C	2.323095	-0.348857	-0.758150
C32	C	1.872851	-0.389370	-1.049386
C33	C	1.883090	-0.396467	-1.189851
C34	C	1.869530	-0.137385	-0.740432
C35	C	1.878355	-0.037101	-0.749239
C36	C	1.824965	-0.356058	-0.391441
C37	C	1.814995	-0.348694	-0.251019
H38	H	1.977311	-0.716005	-0.848440
O39	O	2.066836	-0.849964	-0.938126
C40	C	2.239352	-0.859719	-1.110770
C41	C	2.138746	-0.911598	-1.009959
H42	H	2.297536	-0.909525	-1.168857
H43	H	2.189451	-0.821939	-1.175986
H44	H	2.305610	-0.809268	-1.062031
H45	H	2.072458	-0.962093	-1.058590
H46	H	2.188731	-0.949316	-0.944751
H47	H	1.748851	-0.302367	-1.195928
H48	H	1.949233	-0.442800	-1.244948
O49	O	1.398427	-0.293693	-0.847031
C50	C	1.459015	-0.258993	-1.069194
C51	C	1.373608	-0.321517	-0.968670
H52	H	1.438999	-0.281477	-1.167563
H53	H	1.437665	-0.186399	-1.051573
H54	H	1.563687	-0.262851	-1.062861
H55	H	1.268908	-0.317737	-0.974944
H56	H	1.395067	-0.394084	-0.986323
H57	H	1.720591	-1.028524	-0.591280
H58	H	1.312585	-0.442818	-0.607155
H59	H	2.037621	-1.028175	-0.908741
H60	H	1.645462	-0.887281	-0.516099
H61	H	1.660270	-0.716325	-0.530980
