data_functionalizedCrystal
_audit_creation_method	'MofGen! by Chris Wilmer'
_symmetry_space_group_name_H-M	'P1'
_symmetry_Int_Tables_number	1
_symmetry_cell_setting	triclinic
loop_
_symmetry_equiv_pos_as_xyz
  x,y,z
_cell_length_a	12.827893
_cell_length_b	12.645330
_cell_length_c	12.827885
_cell_angle_alpha	90.029168
_cell_angle_beta	90.019272
_cell_angle_gamma	90.017662
loop_
_atom_site_label
_atom_site_type_symbol
_atom_site_fract_x
_atom_site_fract_y
_atom_site_fract_z
Zn1	Zn	1.597653	-0.421987	0.590855
Zn2	Zn	1.597540	-0.599288	0.416117
Zn3	Zn	1.422894	-0.422039	0.416128
Zn4	Zn	1.422873	-0.599209	0.590817
O5	O	1.510240	-0.510631	0.503479
O6	O	1.743874	-0.445518	0.567686
O7	O	1.574335	-0.575831	0.269883
O8	O	1.446133	-0.273685	0.439326
O9	O	1.743791	-0.575780	0.439308
O10	O	1.574527	-0.273647	0.567697
O11	O	1.446023	-0.445607	0.269891
O12	O	1.276655	-0.445530	0.439290
O13	O	1.446096	-0.575645	0.737058
O14	O	1.276639	-0.575695	0.567633
O15	O	1.574506	-0.445441	0.737086
O16	O	1.574314	-0.747625	0.439271
O17	O	1.445986	-0.747566	0.567623
C18	C	1.238730	-0.510610	0.503459
C19	C	1.122577	-0.510627	0.503476
C20	C	1.070812	-0.575138	0.566886
C21	C	0.950762	-0.575157	0.566904
C22	C	1.510164	-0.786060	0.503465
C23	C	1.510227	-0.903890	0.503493
C24	C	1.429829	-1.071462	0.584488
C25	C	1.429418	-0.948902	0.584228
C26	C	1.480414	-0.948493	0.393362
C27	C	1.479923	-1.071091	0.393854
C28	C	1.620929	-1.070978	0.531736
C29	C	1.620251	-0.948371	0.534144
C30	C	1.782810	-0.510652	0.503500
C31	C	1.898963	-0.510661	0.503509
C32	C	1.510311	-0.510528	0.776050
C33	C	1.510341	-0.510484	0.892203
C34	C	1.510345	-0.234125	0.503517
C35	C	1.510390	-0.116295	0.503533
C36	C	1.510229	-0.510656	0.231969
C37	C	1.510401	-0.510402	0.115817
C38	C	1.573841	-0.574897	0.943984
C39	C	1.573874	-0.574853	1.064034
H40	H	1.448310	-1.100867	0.666417
H41	H	1.078018	-0.455407	0.449206
C42	C	0.917038	-0.626976	0.743747
C43	C	0.890676	-0.649718	0.640199
H44	H	0.879945	-0.673013	0.788996
H45	H	0.899215	-0.555762	0.759134
H46	H	0.989832	-0.636749	0.753337
H47	H	0.817882	-0.639938	0.630607
H48	H	0.908491	-0.720949	0.624807
C49	C	1.779806	-0.850458	0.517810
C50	C	1.705554	-0.907011	0.460344
H51	H	1.832463	-0.824923	0.472239
H52	H	1.810269	-0.895607	0.568519
H53	H	1.747043	-0.792478	0.551630
H54	H	1.738316	-0.964996	0.426529
H55	H	1.675088	-0.861859	0.409615
H56	H	1.448070	-0.918742	0.665889
H57	H	1.348392	-1.102364	0.566042
H58	H	1.456006	-0.455301	0.936748
C59	C	1.252634	-0.996217	0.544036
C60	C	1.318795	-0.909428	0.558987
H61	H	1.184340	-0.971845	0.528442
H62	H	1.250931	-1.037716	0.605708
H63	H	1.277754	-1.037940	0.487804
H64	H	1.293679	-0.867709	0.615224
H65	H	1.320495	-0.867911	0.497308
C66	C	1.306543	-1.022609	0.342032
C67	C	1.370839	-1.109834	0.361611
H68	H	1.239196	-1.046526	0.322135
H69	H	1.335621	-0.981417	0.287392
H70	H	1.301193	-0.980737	0.403300
H71	H	1.376195	-1.151702	0.300340
H72	H	1.341753	-1.151043	0.416255
H73	H	1.628185	-0.630071	0.899438
H74	H	1.115371	-0.630350	0.621164
C75	C	1.021764	-0.495860	0.363060
C76	C	0.959047	-0.436097	0.430215
H77	H	1.058866	-0.449825	0.317817
H78	H	0.979154	-0.541955	0.322980
H79	H	1.069817	-0.536318	0.402843
H80	H	0.910988	-0.395644	0.390432
H81	H	1.001660	-0.389983	0.470298
H82	H	1.536054	-1.100753	0.331479
H83	H	1.537231	-0.919339	0.331396
H84	H	1.680949	-1.099970	0.472773
H85	H	1.628237	-0.630000	1.108564
H86	H	1.400452	-0.917884	0.369038
C87	C	1.586704	-1.081633	0.715431
C88	C	1.657648	-1.112594	0.638308
H89	H	1.609370	-1.107321	0.781226
H90	H	1.519883	-1.109930	0.699890
H91	H	1.582761	-1.006646	0.717490
H92	H	1.661585	-1.187581	0.636244
H93	H	1.724487	-1.084301	0.653853
H94	H	1.456031	-0.455256	1.071293
H95	H	1.642733	-0.919214	0.615195
