data_functionalizedCrystal
_audit_creation_method	'MofGen! by Chris Wilmer'
_symmetry_space_group_name_H-M	'P1'
_symmetry_Int_Tables_number	1
_symmetry_cell_setting	triclinic
loop_
_symmetry_equiv_pos_as_xyz
  x,y,z
_cell_length_a	10.654541
_cell_length_b	14.853567
_cell_length_c	9.130307
_cell_angle_alpha	90.000499
_cell_angle_beta	89.999822
_cell_angle_gamma	84.059429
loop_
_atom_site_label
_atom_site_type_symbol
_atom_site_fract_x
_atom_site_fract_y
_atom_site_fract_z
O1	O	1.666523	0.126614	-0.121741
O2	O	1.300919	0.138681	-0.121752
O3	O	1.493487	0.001470	-0.121751
O4	O	1.473955	0.263825	-0.121743
O5	O	1.493481	0.001468	0.121848
O6	O	1.300913	0.138679	0.121847
O7	O	1.666517	0.126613	0.121858
Cu8	Cu	1.483714	0.132646	0.144095
Cu9	Cu	1.483722	0.132648	-0.143989
O10	O	1.473949	0.263824	0.121856
C11	C	1.254127	0.137794	0.000045
C12	C	1.114711	0.135145	0.000040
C13	C	1.085036	0.299218	0.000027
C14	C	1.004702	0.380006	0.000015
C15	C	0.873710	0.377511	0.000013
C16	C	0.823050	0.294219	0.000029
C17	C	0.903383	0.213431	0.000041
C18	C	1.034377	0.215935	0.000038
C19	C	0.933059	0.049360	0.000065
C20	C	1.064051	0.051853	0.000056
C21	C	0.882399	-0.033931	0.000080
C22	C	0.962733	-0.114721	0.000082
C23	C	1.093732	-0.112223	0.000082
C24	C	1.144385	-0.028935	0.000068
C25	C	1.492599	-0.032124	0.000044
C26	C	1.489947	-0.132222	0.000032
C27	C	1.364347	-0.545428	0.000056
C28	C	1.593122	-0.565485	0.000063
C29	C	1.595615	-0.471438	0.000054
C30	C	1.482473	-0.414381	0.000048
C31	C	1.366837	-0.451372	0.000051
C32	C	1.711250	-0.434441	0.000066
C33	C	1.713748	-0.340388	0.000059
C34	C	1.600604	-0.283330	0.000043
C35	C	1.484963	-0.320325	0.000044
C36	C	1.371821	-0.263268	0.000039
C37	C	1.256178	-0.300262	0.000029
C38	C	1.253693	-0.394313	0.000035
C39	C	1.603089	-0.189279	0.000037
C40	C	1.374311	-0.169212	0.000035
C41	C	1.713309	0.127499	0.000057
C42	C	1.852725	0.130148	0.000052
C43	C	1.474837	0.297418	0.000058
C44	C	1.477489	0.397516	0.000061
N45	N	1.483718	0.132644	0.346718
N46	N	1.483728	0.132642	-0.346612
C47	C	1.654307	0.011180	0.346709
C48	C	1.739609	-0.049550	0.423371
C49	C	1.739622	-0.049550	0.576705
C50	C	1.654320	0.011183	0.653379
C51	C	1.569018	0.071913	0.576717
C52	C	1.569017	0.071909	0.423380
C53	C	1.398425	0.193372	0.576726
C54	C	1.398417	0.193378	0.423392
C55	C	1.313124	0.254105	0.653400
C56	C	1.227825	0.314841	0.576738
C57	C	1.227817	0.314840	0.423395
C58	C	1.313114	0.254108	0.346730
H59	H	1.191695	0.301257	-0.000004
H60	H	1.807910	-0.310277	0.000065
H61	H	1.158349	0.364289	0.360984
C62	C	1.134008	0.381639	0.661079
H63	H	1.146234	0.372941	0.763377
H64	H	1.050181	0.371289	0.635953
H65	H	1.147750	0.441905	0.635958
C66	C	1.288471	-0.026183	0.000073
H67	H	1.307131	0.034991	0.000074
H68	H	1.323594	-0.055922	-0.084866
H69	H	1.323576	-0.055906	0.085042
C70	C	0.907005	-0.206329	0.000096
H71	H	0.817486	-0.196244	0.000092
H72	H	0.934571	-0.239628	0.085043
H73	H	0.934561	-0.239627	-0.084865
H74	H	1.697243	-0.159163	0.000054
H75	H	1.270193	-0.575552	0.000042
H76	H	1.313120	0.254104	0.221877
H77	H	1.045964	0.447820	0.000006
H78	H	0.775737	-0.035957	0.000087
H79	H	1.685237	-0.611946	0.000079
H80	H	0.808301	0.443295	0.000013
H81	H	1.159134	-0.178011	0.000098
C82	C	1.313138	0.254107	0.822062
H83	H	1.376166	0.209248	0.856741
H84	H	1.232864	0.241229	0.856764
H85	H	1.330421	0.311853	0.856736
C86	C	0.678963	0.291471	0.000040
H87	H	0.660297	0.230298	0.000057
H88	H	0.643844	0.321202	-0.084906
H89	H	0.643858	0.321205	0.085001
C90	C	1.654301	0.011189	0.178047
H91	H	1.591289	0.056059	0.143371
H92	H	1.637034	-0.046549	0.143350
H93	H	1.734584	0.024079	0.143365
H94	H	1.809059	-0.099000	0.360930
C95	C	1.833449	-0.116352	0.661037
H96	H	1.884253	-0.152520	0.593419
H97	H	1.788218	-0.154182	0.720860
H98	H	1.885779	-0.083560	0.720844
H99	H	1.803364	-0.480903	0.000084
H100	H	1.282175	-0.122762	0.000024
C101	C	1.126499	-0.435004	0.000027
H102	H	1.059469	-0.387555	0.000006
H103	H	1.120767	-0.471274	0.084976
H104	H	1.120783	-0.471278	-0.084931
C105	C	1.654313	0.011174	0.822042
H106	H	1.591291	0.056035	0.856726
H107	H	1.734591	0.024047	0.856743
H108	H	1.637025	-0.046571	0.856711
H109	H	1.164058	-0.253794	0.000035
