data_functionalizedCrystal
_audit_creation_method	'MofGen! by Chris Wilmer'
_symmetry_space_group_name_H-M	'P1'
_symmetry_Int_Tables_number	1
_symmetry_cell_setting	triclinic
loop_
_symmetry_equiv_pos_as_xyz
  x,y,z
_cell_length_a	10.723024
_cell_length_b	14.044190
_cell_length_c	9.798715
_cell_angle_alpha	89.992011
_cell_angle_beta	89.996609
_cell_angle_gamma	88.829823
loop_
_atom_site_label
_atom_site_type_symbol
_atom_site_fract_x
_atom_site_fract_y
_atom_site_fract_z
O1	O	1.670502	0.133040	-0.113499
O2	O	1.308624	0.145775	-0.113506
O3	O	1.484127	0.001387	-0.113476
O4	O	1.494999	0.277427	-0.113529
O5	O	1.484112	0.001387	0.113507
O6	O	1.308610	0.145774	0.113477
O7	O	1.670488	0.133040	0.113483
Zn8	Zn	1.489546	0.139407	0.149518
Zn9	Zn	1.489565	0.139407	-0.149541
O10	O	1.494985	0.277427	0.113453
C11	C	1.262025	0.144848	-0.000015
C12	C	1.123193	0.142075	-0.000016
C13	C	1.479363	-0.033958	0.000019
C14	C	1.465175	-0.139277	0.000031
C15	C	1.056296	0.222867	-0.000033
C16	C	0.912806	0.220003	-0.000034
C17	C	1.539861	-0.389077	-0.000021
C18	C	1.439257	-0.332103	-0.000013
C19	C	1.453681	-0.224804	0.000011
C20	C	1.525438	-0.496386	-0.000046
C21	C	1.717087	0.133967	-0.000011
C22	C	1.855919	0.136739	-0.000018
C23	C	1.499749	0.312773	-0.000045
C24	C	1.513937	0.418091	-0.000066
N25	N	1.489543	0.139406	0.353618
N26	N	1.489578	0.139401	-0.353640
C27	C	1.563205	0.078515	0.421407
C28	C	1.563224	0.078511	0.578570
H29	H	1.105252	0.294155	-0.000039
C30	C	1.685176	-0.289841	-0.116654
C31	C	1.670749	-0.346144	0.000008
H32	H	1.765977	-0.263323	-0.116625
H33	H	1.675409	-0.328004	-0.195805
H34	H	1.623934	-0.240002	-0.116637
H35	H	1.731985	-0.395987	-0.000014
H36	H	1.680528	-0.307979	0.079179
H37	H	1.626251	0.026381	0.363095
C38	C	1.319213	-0.474558	-0.000032
C39	C	1.308356	-0.375032	-0.000017
H40	H	1.238403	-0.501062	-0.000022
H41	H	1.363286	-0.495042	-0.079188
H42	H	1.363298	-0.495068	0.079121
H43	H	1.264280	-0.354521	-0.079175
H44	H	1.264265	-0.354540	0.079147
C45	C	1.617650	-0.085273	0.622837
C46	C	1.648362	0.008128	0.657256
H47	H	1.670218	-0.128725	0.671412
H48	H	1.533115	-0.095948	0.646213
H49	H	1.628811	-0.094493	0.527542
H50	H	1.637193	0.017350	0.752550
H51	H	1.732918	0.018807	0.633889
C52	C	1.477423	0.268226	0.485496
C53	C	1.404436	0.209785	0.567680
H54	H	1.424858	0.311674	0.436910
H55	H	1.533276	0.302621	0.541225
H56	H	1.523619	0.230016	0.422599
H57	H	1.358247	0.247995	0.630584
H58	H	1.348561	0.175387	0.511945
C59	C	0.708059	0.292467	-0.000048
C60	C	0.835179	0.313378	-0.000052
H61	H	0.660136	0.350117	-0.000051
H62	H	0.688917	0.256563	-0.079191
H63	H	0.688910	0.256554	0.079117
H64	H	0.854329	0.349286	-0.079223
H65	H	0.854328	0.349298	0.079099
H66	H	0.913422	0.067572	-0.000013
H67	H	1.426487	0.191532	0.411931
H68	H	1.074236	0.070786	-0.000037
