data_functionalizedCrystal
_audit_creation_method	'MofGen! by Chris Wilmer'
_symmetry_space_group_name_H-M	'P1'
_symmetry_Int_Tables_number	1
_symmetry_cell_setting	triclinic
loop_
_symmetry_equiv_pos_as_xyz
  x,y,z
_cell_length_a	10.540535
_cell_length_b	10.654548
_cell_length_c	9.130313
_cell_angle_alpha	89.999675
_cell_angle_beta	90.001136
_cell_angle_gamma	95.495992
loop_
_atom_site_label
_atom_site_type_symbol
_atom_site_fract_x
_atom_site_fract_y
_atom_site_fract_z
O1	O	1.685824	-0.176965	0.121704
O2	O	1.316405	-0.193647	0.121723
O3	O	1.509609	-0.002569	0.121719
O4	O	1.492620	-0.368042	0.121708
O5	O	1.509596	-0.002564	-0.121880
O6	O	1.316391	-0.193641	-0.121875
O7	O	1.685811	-0.176959	-0.121895
Cu8	Cu	1.501100	-0.185300	-0.144128
Cu9	Cu	1.501116	-0.185306	0.143956
O10	O	1.492607	-0.368037	-0.121890
C11	C	1.269095	-0.192394	-0.000073
C12	C	1.128148	-0.188655	-0.000065
C13	C	1.508355	0.044232	-0.000076
C14	C	1.504624	0.183676	-0.000062
C15	C	1.091529	-0.049145	-0.000067
C16	C	0.944929	-0.045210	-0.000634
C17	C	0.918781	-0.252336	-0.138921
C18	C	1.065546	-0.255304	-0.139023
C19	C	1.065444	-0.257340	0.138004
C20	C	0.919100	-0.250888	0.139814
C21	C	1.733120	-0.178212	-0.000095
C22	C	1.874067	-0.181951	-0.000093
C23	C	1.499359	0.380216	0.132718
C24	C	1.502878	0.249194	0.132724
C25	C	1.502865	0.249188	-0.132861
C26	C	1.499355	0.380208	-0.132865
N27	N	1.501098	-0.185294	-0.346750
C28	C	1.493862	0.585162	-0.000086
C29	C	1.497596	0.445718	-0.000071
C30	C	1.586678	-0.100721	-0.423404
C31	C	1.586690	-0.100721	-0.576741
C32	C	1.415538	-0.269879	-0.576757
C33	C	1.415521	-0.269872	-0.423423
N34	N	1.501127	-0.185302	0.346579
H35	H	0.915617	0.009835	0.098863
H36	H	1.504316	0.195868	0.240854
C37	C	1.148287	0.023243	0.134379
H38	H	1.194831	-0.030962	0.191718
H39	H	1.081421	0.051716	0.191564
H40	H	1.203666	0.093631	0.102788
H41	H	1.345865	-0.338742	-0.639199
H42	H	1.504295	0.195834	-0.240977
C43	C	0.906500	0.028778	-0.135871
H44	H	0.980527	0.056534	-0.190685
H45	H	0.865189	0.099699	-0.105139
H46	H	0.850090	-0.024272	-0.195245
H47	H	1.656376	-0.031853	-0.639148
H48	H	1.497926	0.433549	0.240848
C49	C	1.095364	-0.396000	0.139833
H50	H	1.057215	-0.437013	0.223501
H51	H	1.185032	-0.399444	0.143420
H52	H	1.062283	-0.437091	0.053698
H53	H	1.497923	0.433542	-0.241004
H54	H	1.105729	-0.207766	-0.243194
H55	H	1.656358	-0.031851	-0.360981
C56	C	1.321381	-0.362910	-0.339098
H57	H	1.270430	-0.413295	-0.406719
H58	H	1.268142	-0.317222	-0.279294
H59	H	1.367505	-0.415627	-0.279271
H60	H	0.887891	-0.204042	-0.242632
H61	H	1.107925	-0.213810	0.243267
C62	C	1.150208	0.022018	-0.134379
H63	H	1.127614	0.106220	-0.133542
H64	H	1.118855	-0.018986	-0.221308
H65	H	1.240359	0.022735	-0.131137
C66	C	1.096623	-0.393455	-0.147033
H67	H	1.186446	-0.396204	-0.147143
H68	H	1.061682	-0.431035	-0.234287
H69	H	1.060924	-0.438352	-0.064592
C70	C	0.854755	-0.388341	-0.145387
H71	H	0.800049	-0.403441	-0.063285
H72	H	0.918305	-0.445809	-0.143870
H73	H	0.806384	-0.399670	-0.232993
C74	C	0.879937	-0.182072	0.278586
H75	H	0.907280	-0.224330	0.362853
H76	H	0.789858	-0.181834	0.280708
H77	H	0.918370	-0.097700	0.277822
C78	C	0.852833	-0.385724	0.151696
H79	H	0.796590	-0.401815	0.071122
H80	H	0.805848	-0.394090	0.240513
H81	H	0.915189	-0.444460	0.150747
