data_functionalizedCrystal
_audit_creation_method	'MofGen! by Chris Wilmer'
_symmetry_space_group_name_H-M	'P1'
_symmetry_Int_Tables_number	1
_symmetry_cell_setting	triclinic
loop_
_symmetry_equiv_pos_as_xyz
  x,y,z
_cell_length_a	16.109317
_cell_length_b	10.868271
_cell_length_c	16.109301
_cell_angle_alpha	90.006558
_cell_angle_beta	96.535152
_cell_angle_gamma	90.000273
loop_
_atom_site_label
_atom_site_type_symbol
_atom_site_fract_x
_atom_site_fract_y
_atom_site_fract_z
O1	O	-1.103123	0.102195	0.106933
O2	O	-0.861063	0.102227	0.120218
O3	O	-0.988743	0.102197	-0.007455
O4	O	-0.975443	0.102224	0.234606
O5	O	-0.988732	-0.102447	-0.007460
O6	O	-0.861052	-0.102418	0.120213
O7	O	-1.103113	-0.102450	0.106928
Zn8	Zn	-0.982081	-0.134926	0.113570
Zn9	Zn	-0.982095	0.134703	0.113576
O10	O	-0.975433	-0.102420	0.234601
C11	C	-0.830083	-0.000092	0.119675
C12	C	-0.737788	-0.000080	0.118054
N13	N	-0.982078	-0.318940	0.113565
C14	C	-0.438720	0.111457	0.112823
C15	C	-0.525442	0.111463	0.114340
C16	C	-0.525449	-0.111652	0.114323
C17	C	-0.438730	-0.111656	0.112800
C18	C	-0.395367	-0.000098	0.112054
C19	C	-0.568808	-0.000088	0.115095
C20	C	-0.662835	-0.000083	0.116740
C21	C	-0.301335	-0.000102	0.110408
C22	C	-0.982090	-0.569946	0.113574
C23	C	-0.982081	-0.430268	0.113571
C24	C	-0.134092	-0.000122	0.107472
C25	C	-0.226387	-0.000106	0.109095
C26	C	-0.988199	-0.000125	-0.038433
C27	C	-0.986584	-0.000127	-0.130728
N28	N	-0.982105	0.318717	0.113575
C29	C	-1.058591	-0.000117	-0.352996
C30	C	-1.057067	-0.000107	-0.439717
C31	C	-0.905579	-0.000092	-0.419851
C32	C	-0.907104	-0.000093	-0.333132
C33	C	-0.983612	-0.000112	-0.299707
C34	C	-0.980563	-0.000100	-0.473147
C35	C	-0.978910	-0.000089	-0.567173
C36	C	-0.985266	-0.000121	-0.205675
C37	C	-0.975977	-0.000095	0.265578
C38	C	-0.977592	-0.000085	0.357874
H39	H	-0.560736	0.202302	0.114965
O40	O	-1.141109	-0.000125	-0.316947
H41	H	-1.129577	-0.000136	-0.247693
H42	H	-0.560765	-0.202479	0.114932
O43	O	-0.392028	-0.232058	0.112145
H44	H	-0.345163	-0.237282	0.168144
H45	H	-0.403417	0.202295	0.112214
H46	H	-1.118122	-0.000108	-0.483101
O47	O	-0.823061	-0.000097	-0.455901
H48	H	-0.834595	-0.000115	-0.525155
H49	H	-0.846044	-0.000085	-0.289742
