data_functionalizedCrystal
_audit_creation_method	'MofGen! by Chris Wilmer'
_symmetry_space_group_name_H-M	'P1'
_symmetry_Int_Tables_number	1
_symmetry_cell_setting	triclinic
loop_
_symmetry_equiv_pos_as_xyz
  x,y,z
_cell_length_a	14.908782
_cell_length_b	21.295417
_cell_length_c	21.295411
_cell_angle_alpha	89.978356
_cell_angle_beta	93.278219
_cell_angle_gamma	86.737741
loop_
_atom_site_label
_atom_site_type_symbol
_atom_site_fract_x
_atom_site_fract_y
_atom_site_fract_z
Zn1	Zn	1.379107	-0.306158	-0.300266
Zn2	Zn	1.712440	0.027176	0.033067
Zn3	Zn	2.045773	0.360509	0.366401
Zn4	Zn	1.378967	-0.411404	-0.194997
Zn5	Zn	1.712300	-0.078071	0.138336
Zn6	Zn	2.045633	0.255263	0.471670
Zn7	Zn	1.228239	-0.300089	-0.201098
Zn8	Zn	1.561573	0.033244	0.132235
Zn9	Zn	1.894906	0.366577	0.465568
Zn10	Zn	1.228195	-0.405322	-0.306312
Zn11	Zn	1.561529	-0.071989	0.027021
Zn12	Zn	1.894862	0.261344	0.360354
O13	O	1.303627	-0.355743	-0.250668
O14	O	1.636960	-0.022410	0.082665
O15	O	1.970294	0.310923	0.415998
O16	O	1.505325	-0.325204	-0.281218
O17	O	1.838658	0.008130	0.052115
O18	O	2.171991	0.341463	0.385449
O19	O	1.358932	-0.396643	-0.107719
O20	O	1.692266	-0.063310	0.225615
O21	O	2.025599	0.270023	0.558948
O22	O	1.248329	-0.212808	-0.214276
O23	O	1.581662	0.120525	0.119057
O24	O	1.914996	0.453859	0.452390
O25	O	1.505222	-0.402528	-0.203877
O26	O	1.838555	-0.069194	0.129456
O27	O	2.171889	0.264139	0.462789
O28	O	1.359171	-0.217266	-0.287134
O29	O	1.692504	0.116067	0.046199
O30	O	2.025837	0.449400	0.379532
O31	O	1.248194	-0.314861	-0.112201
O32	O	1.581527	0.018472	0.221132
O33	O	1.914860	0.351806	0.554465
O34	O	1.101997	-0.308964	-0.220139
O35	O	1.435330	0.024369	0.113194
O36	O	1.768663	0.357703	0.446528
O37	O	1.248254	-0.392162	-0.393598
O38	O	1.581588	-0.058829	-0.060265
O39	O	1.914921	0.274504	0.273069
O40	O	1.101965	-0.386278	-0.297439
O41	O	1.435298	-0.052945	0.035894
O42	O	1.768631	0.280389	0.369227
O43	O	1.359128	-0.319307	-0.389156
O44	O	1.692461	0.014027	-0.055823
O45	O	2.025795	0.347360	0.277511
O46	O	1.358890	-0.498683	-0.209740
O47	O	1.692223	-0.165350	0.123593
O48	O	2.025556	0.167983	0.456926
O49	O	1.248119	-0.494215	-0.291523
O50	O	1.581452	-0.160882	0.041810
O51	O	1.914785	0.172451	0.375144
C52	C	1.069249	-0.346303	-0.260108
C53	C	1.402582	-0.012970	0.073226
C54	C	1.735916	0.320364	0.406559
C55	C	0.968981	-0.342280	-0.264161
C56	C	1.302314	-0.008946	0.069173
C57	C	1.635648	0.324387	0.402506
C58	C	1.303509	-0.519290	-0.250638
C59	C	1.636842	-0.185957	0.082695
C60	C	1.970175	0.147376	0.416028
C61	C	1.303541	-0.589260	-0.250643
C62	C	1.636874	-0.255926	0.082690
C63	C	1.970207	0.077407	0.416023
C64	C	0.780458	-0.415126	-0.191119
C65	C	1.113791	-0.081793	0.142214
C66	C	1.447125	0.251541	0.475548
C67	C	0.686247	-0.411348	-0.194925
C68	C	1.019581	-0.078015	0.138408
C69	C	1.352914	0.255319	0.471741
C70	C	0.686347	-0.330948	-0.275582
C71	C	1.019680	0.002385	0.057751
C72	C	1.353014	0.335718	0.391084
C73	C	0.780558	-0.334727	-0.271776
C74	C	1.113891	-0.001393	0.061557
C75	C	1.447224	0.331940	0.394891
C76	C	0.827610	-0.376816	-0.229542
C77	C	1.160943	-0.043483	0.103791
C78	C	1.494277	0.289850	0.437124
C79	C	0.921822	-0.380591	-0.225733
C80	C	1.255156	-0.047258	0.107600
C81	C	1.588489	0.286076	0.440933
C82	C	0.921920	-0.300195	-0.306393
C83	C	1.255254	0.033138	0.026940
C84	C	1.588587	0.366472	0.360274
C85	C	0.827709	-0.296417	-0.310199
C86	C	1.161043	0.036917	0.023134
C87	C	1.494376	0.370250	0.356468
C88	C	1.361270	-0.624434	-0.208098
C89	C	1.694604	-0.291101	0.125235
C90	C	2.027937	0.042233	0.458569
C91	C	1.361313	-0.690178	-0.208111
C92	C	1.694646	-0.356845	0.125223
C93	C	2.027979	-0.023511	0.458556
C94	C	1.303609	-0.720745	-0.250662
C95	C	1.636943	-0.387411	0.082671
C96	C	1.970276	-0.054078	0.416005
C97	C	1.245875	-0.685562	-0.293215
C98	C	1.579209	-0.352229	0.040118
C99	C	1.912542	-0.018896	0.373451
C100	C	1.245841	-0.619820	-0.293206
C101	C	1.579175	-0.286486	0.040128
C102	C	1.912508	0.046847	0.373461
N103	N	1.224695	-0.820837	-0.258639
N104	N	1.558029	-0.487504	0.074694
N105	N	1.891362	-0.154170	0.408027
N106	N	1.224730	-0.883290	-0.258644
N107	N	1.558064	-0.549956	0.074689
N108	N	1.891397	-0.216623	0.408022
C109	C	1.303710	-0.918824	-0.250694
C110	C	1.637044	-0.585490	0.082639
C111	C	1.970377	-0.252157	0.415972
N112	N	1.382656	-0.889545	-0.242726
N113	N	1.715989	-0.556212	0.090607
N114	N	2.049322	-0.222879	0.423941
N115	N	1.382619	-0.827087	-0.242718
N116	N	1.715953	-0.493753	0.090616
N117	N	2.049286	-0.160420	0.423949
C118	C	1.303640	-0.792031	-0.250677
C119	C	1.636974	-0.458698	0.082656
C120	C	1.970307	-0.125365	0.415989
C121	C	1.361491	-1.025285	-0.208160
C122	C	1.694824	-0.691952	0.125173
C123	C	2.028157	-0.358619	0.458506
C124	C	1.361534	-1.091031	-0.208177
C125	C	1.694868	-0.757698	0.125156
C126	C	2.028201	-0.424364	0.458490
C127	C	1.246089	-1.086414	-0.293279
C128	C	1.579422	-0.753080	0.040055
C129	C	1.912756	-0.419747	0.373388
C130	C	1.246053	-1.020670	-0.293265
C131	C	1.579387	-0.687336	0.040068
C132	C	1.912720	-0.354003	0.373402
C133	C	1.303753	-0.990110	-0.250702
C134	C	1.637086	-0.656776	0.082631
C135	C	1.970420	-0.323443	0.415964
C136	C	1.538920	-0.365221	-0.241193
C137	C	1.872254	-0.031888	0.092141
C138	C	2.205587	0.301446	0.425474
C139	C	1.639188	-0.369260	-0.237155
C140	C	1.972522	-0.035926	0.096179
C141	C	2.305855	0.297407	0.429512
C142	C	1.303702	-0.355733	-0.414856
C143	C	1.637035	-0.022400	-0.081522
C144	C	1.970369	0.310934	0.251811
C145	C	1.303734	-0.355729	-0.484823
C146	C	1.637067	-0.022395	-0.151489
C147	C	1.970400	0.310938	0.181844
C148	C	1.303770	-0.191559	-0.250711
C149	C	1.637104	0.141775	0.082622
C150	C	1.970437	0.475108	0.415955
C151	C	1.303831	-0.121593	-0.250730
C152	C	1.637165	0.211740	0.082604
C153	C	1.970498	0.545074	0.415937
C154	C	1.361463	-0.317791	-0.515377
C155	C	1.694797	0.015543	-0.182044
C156	C	2.028130	0.348876	0.151289
C157	C	1.361462	-0.317763	-0.581120
C158	C	1.694795	0.015570	-0.247787
C159	C	2.028129	0.348903	0.085547
C160	C	1.303741	-0.355686	-0.616305
C161	C	1.637074	-0.022352	-0.282972
C162	C	1.970408	0.310981	0.050362
C163	C	1.246000	-0.393626	-0.585743
C164	C	1.579333	-0.060293	-0.252409
C165	C	1.912667	0.273041	0.080924
C166	C	1.245997	-0.393647	-0.520002
C167	C	1.579330	-0.060314	-0.186668
C168	C	1.912663	0.273019	0.146665
N169	N	1.296781	-0.410473	-0.719801
N170	N	1.630114	-0.077140	-0.386468
N171	N	1.963448	0.256193	-0.053134
N172	N	1.296790	-0.410451	-0.782252
N173	N	1.630123	-0.077118	-0.448919
N174	N	1.963456	0.256215	-0.115586
C175	C	1.303747	-0.355622	-0.814379
C176	C	1.637080	-0.022289	-0.481046
C177	C	1.970413	0.311045	-0.147713
N178	N	1.310712	-0.300815	-0.781696
N179	N	1.644046	0.032518	-0.448362
N180	N	1.977379	0.365852	-0.115029
N181	N	1.310708	-0.300838	-0.719239
N182	N	1.644042	0.032495	-0.385905
N183	N	1.977375	0.365829	-0.052572
C184	C	1.303738	-0.355666	-0.687590
C185	C	1.637071	-0.022333	-0.354257
C186	C	1.970404	0.311001	-0.020924
C187	C	1.361478	-0.317651	-0.916220
C188	C	1.694811	0.015682	-0.582886
C189	C	2.028144	0.349016	-0.249553
C190	C	1.361470	-0.317622	-0.981964
C191	C	1.694804	0.015711	-0.648631
C192	C	2.028137	0.349044	-0.315297
C193	C	1.246013	-0.393491	-0.986585
C194	C	1.579346	-0.060157	-0.653252
C195	C	1.912680	0.273176	-0.319918
C196	C	1.246016	-0.393514	-0.920842
C197	C	1.579349	-0.060180	-0.587509
C198	C	1.912683	0.273153	-0.254176
C199	C	1.303753	-0.355595	-0.885664
C200	C	1.637086	-0.022262	-0.552330
C201	C	1.970420	0.311072	-0.218997
C202	C	1.303604	-0.355710	-0.087118
C203	C	1.636938	-0.022377	0.246216
C204	C	1.970271	0.310956	0.579549
C205	C	1.303747	-0.355544	-0.017144
C206	C	1.637081	-0.022211	0.316189
C207	C	1.970414	0.311122	0.649522
H208	H	0.960131	-0.414861	-0.191343
H209	H	1.293464	-0.081528	0.141990
H210	H	1.626798	0.251805	0.475323
H211	H	1.199006	-0.424361	-1.015232
H212	H	1.532339	-0.091028	-0.681899
H213	H	1.865673	0.242306	-0.348566
H214	H	1.199110	-1.111300	-0.327928
H215	H	1.532443	-0.777967	0.005406
H216	H	1.865776	-0.444634	0.338739
H217	H	0.789387	-0.262150	-0.344586
H218	H	1.122720	0.071183	-0.011253
H219	H	1.456053	0.404516	0.322080
H220	H	0.647860	-0.442545	-0.163638
H221	H	0.981193	-0.109211	0.169695
H222	H	1.314527	0.224122	0.503028
H223	H	1.198830	-0.591180	-0.327852
H224	H	1.532163	-0.257847	0.005481
H225	H	1.865497	0.075487	0.338815
H226	H	1.408476	-0.286913	-0.486739
H227	H	1.741810	0.046420	-0.153405
H228	H	2.075143	0.379753	0.179928
H229	H	1.199041	-0.992029	-0.327907
H230	H	1.532374	-0.658695	0.005427
H231	H	1.865707	-0.325362	0.338760
H232	H	1.408551	-1.119669	-0.173533
H233	H	1.741884	-0.786336	0.159801
H234	H	2.075217	-0.453003	0.493134
H235	H	1.408476	-1.000403	-0.173505
H236	H	1.741809	-0.667069	0.159828
H237	H	2.075143	-0.333736	0.493162
H238	H	1.408470	-0.286866	-0.606003
H239	H	1.741804	0.046467	-0.272669
H240	H	2.075137	0.379800	0.060664
H241	H	1.199012	-0.424411	-0.895965
H242	H	1.532345	-0.091078	-0.562631
H243	H	1.865678	0.242256	-0.229298
H244	H	1.199000	-0.424500	-0.614395
H245	H	1.532334	-0.091167	-0.281061
H246	H	1.865667	0.242166	0.052272
H247	H	1.198982	-0.424540	-0.495125
H248	H	1.532316	-0.091207	-0.161791
H249	H	1.865649	0.242127	0.171542
H250	H	0.960321	-0.268997	-0.337677
H251	H	1.293655	0.064336	-0.004344
H252	H	1.626988	0.397669	0.328989
H253	H	1.408486	-0.286772	-0.887576
H254	H	1.741819	0.046562	-0.554242
H255	H	2.075152	0.379895	-0.220909
H256	H	1.408255	-0.599554	-0.173443
H257	H	1.741588	-0.266221	0.159891
H258	H	2.074922	0.067113	0.493224
H259	H	1.408479	-0.286725	-1.006840
H260	H	1.741812	0.046608	-0.673507
H261	H	2.075146	0.379942	-0.340174
H262	H	1.408326	-0.718823	-0.173465
H263	H	1.741660	-0.385489	0.159868
H264	H	2.074993	-0.052156	0.493201
H265	H	0.818769	-0.449393	-0.156727
H266	H	1.152102	-0.116060	0.176606
H267	H	1.485435	0.217273	0.509940
H268	H	0.648021	-0.296686	-0.309972
H269	H	0.981354	0.036647	0.023361
H270	H	1.314687	0.369980	0.356695
H271	H	1.198894	-0.710454	-0.327862
H272	H	1.532228	-0.377121	0.005471
H273	H	1.865561	-0.043787	0.338805
