data_functionalizedCrystal
_audit_creation_method	'MofGen! by Chris Wilmer'
_symmetry_space_group_name_H-M	'P1'
_symmetry_Int_Tables_number	1
_symmetry_cell_setting	triclinic
loop_
_symmetry_equiv_pos_as_xyz
  x,y,z
_cell_length_a	16.109295
_cell_length_b	10.268362
_cell_length_c	16.109301
_cell_angle_alpha	90.006707
_cell_angle_beta	96.539666
_cell_angle_gamma	89.998345
loop_
_atom_site_label
_atom_site_type_symbol
_atom_site_fract_x
_atom_site_fract_y
_atom_site_fract_z
O1	O	-1.103135	0.108216	0.106846
O2	O	-0.769801	0.441549	0.440179
O3	O	-0.436468	0.774882	0.773512
O4	O	-0.861072	0.108238	0.120150
O5	O	-0.527739	0.441572	0.453483
O6	O	-0.194406	0.774905	0.786816
O7	O	-0.988753	0.108213	-0.007533
O8	O	-0.655420	0.441546	0.325800
O9	O	-0.322087	0.774880	0.659133
O10	O	-0.975454	0.108241	0.234529
O11	O	-0.642120	0.441574	0.567862
O12	O	-0.308787	0.774908	0.901195
O13	O	-0.988742	-0.108388	-0.007539
O14	O	-0.655409	0.224946	0.325795
O15	O	-0.322075	0.558279	0.659128
O16	O	-0.861061	-0.108362	0.120145
O17	O	-0.527728	0.224971	0.453478
O18	O	-0.194394	0.558304	0.786811
O19	O	-1.103124	-0.108385	0.106840
O20	O	-0.769790	0.224948	0.440174
O21	O	-0.436457	0.558282	0.773507
Cu22	Cu	-0.982091	-0.128151	0.113492
Cu23	Cu	-0.648758	0.205182	0.446825
Cu24	Cu	-0.315425	0.538516	0.780159
Cu25	Cu	-0.982105	0.128004	0.113498
Cu26	Cu	-0.648771	0.461338	0.446831
Cu27	Cu	-0.315438	0.794671	0.780165
O28	O	-0.975443	-0.108360	0.234524
O29	O	-0.642109	0.224974	0.567857
O30	O	-0.308776	0.558307	0.901190
C31	C	-0.830092	-0.000059	0.119609
C32	C	-0.496758	0.333274	0.452942
C33	C	-0.163425	0.666607	0.786276
C34	C	-0.737796	-0.000051	0.117996
C35	C	-0.404463	0.333282	0.451329
C36	C	-0.071129	0.666616	0.784662
N37	N	-0.982088	-0.308317	0.113487
N38	N	-0.648755	0.025016	0.446820
N39	N	-0.315422	0.358350	0.780154
C40	C	-0.515523	-0.000057	0.190008
C41	C	-0.182190	0.333277	0.523341
C42	C	0.151143	0.666610	0.856675
C43	C	-0.428803	-0.000065	0.188486
C44	C	-0.095469	0.333269	0.521819
C45	C	0.237864	0.666602	0.855152
C46	C	-0.448677	-0.000077	0.036996
C47	C	-0.115344	0.333257	0.370330
C48	C	0.217990	0.666590	0.703663
C49	C	-0.535396	-0.000078	0.038520
C50	C	-0.202063	0.333255	0.371853
C51	C	0.131271	0.666589	0.705186
C52	C	-0.568816	-0.000061	0.115028
C53	C	-0.235483	0.333272	0.448361
C54	C	0.097850	0.666605	0.781695
C55	C	-0.395377	-0.000068	0.111982
C56	C	-0.062044	0.333265	0.445316
C57	C	0.271290	0.666599	0.778649
C58	C	-0.301351	-0.000077	0.110331
C59	C	0.031983	0.333257	0.443665
C60	C	0.365316	0.666590	0.776998
C61	C	-0.662849	-0.000055	0.116679
C62	C	-0.329515	0.333278	0.450013
C63	C	0.003818	0.666612	0.783346
C64	C	-0.982100	-0.573987	0.113496
C65	C	-0.648767	-0.240654	0.446830
C66	C	-0.315434	0.092679	0.780163
C67	C	-0.982091	-0.426150	0.113494
C68	C	-0.648758	-0.092816	0.446827
C69	C	-0.315424	0.240517	0.780160
C70	C	-0.134104	-0.000083	0.107386
C71	C	0.199230	0.333250	0.440719
C72	C	0.532563	0.666584	0.774053
C73	C	-0.226397	-0.000078	0.109014
C74	C	0.106936	0.333255	0.442348
C75	C	0.440270	0.666588	0.775681
C76	C	-0.988209	-0.000088	-0.038511
C77	C	-0.654876	0.333246	0.294822
C78	C	-0.321542	0.666579	0.628156
C79	C	-0.986594	-0.000090	-0.130806
C80	C	-0.653260	0.333244	0.202527
C81	C	-0.319927	0.666577	0.535860
N82	N	-0.982114	0.308170	0.113496
N83	N	-0.648781	0.641504	0.446830
N84	N	-0.315448	0.974837	0.780163
C85	C	-1.058602	-0.000076	-0.353080
C86	C	-0.725268	0.333258	-0.019747
C87	C	-0.391935	0.666591	0.313587
C88	C	-1.057078	-0.000065	-0.439800
C89	C	-0.723744	0.333269	-0.106467
C90	C	-0.390411	0.666602	0.226866
C91	C	-0.905588	-0.000056	-0.419923
C92	C	-0.572255	0.333278	-0.086590
C93	C	-0.238922	0.666611	0.246744
C94	C	-0.907113	-0.000057	-0.333204
C95	C	-0.573780	0.333276	0.000129
C96	C	-0.240447	0.666609	0.333462
C97	C	-0.983622	-0.000074	-0.299785
C98	C	-0.650289	0.333260	0.033548
C99	C	-0.316956	0.666593	0.366881
C100	C	-0.980573	-0.000061	-0.473225
C101	C	-0.647240	0.333272	-0.139891
C102	C	-0.313907	0.666605	0.193442
C103	C	-0.978920	-0.000050	-0.567251
C104	C	-0.645587	0.333284	-0.233917
C105	C	-0.312254	0.666617	0.099416
C106	C	-0.985276	-0.000083	-0.205754
C107	C	-0.651943	0.333250	0.127580
C108	C	-0.318609	0.666584	0.460913
C109	C	-0.975987	-0.000056	0.265501
C110	C	-0.642654	0.333277	0.598834
C111	C	-0.309320	0.666611	0.932168
C112	C	-0.977602	-0.000046	0.357796
C113	C	-0.644269	0.333288	0.691130
C114	C	-0.310935	0.666621	1.024463
H115	H	-0.542731	-0.000053	0.252306
H116	H	-0.209398	0.333280	0.585639
H117	H	0.123936	0.666614	0.918972
H118	H	-0.421455	-0.000098	-0.025294
H119	H	-0.088122	0.333235	0.308039
H120	H	0.245212	0.666569	0.641373
H121	H	-0.846052	-0.000052	-0.289809
H122	H	-0.512719	0.333281	0.043524
H123	H	-0.179386	0.666615	0.376857
H124	H	-0.578790	-0.000086	-0.022542
H125	H	-0.245457	0.333248	0.310791
H126	H	0.087877	0.666581	0.644125
H127	H	-1.120900	-0.000086	-0.325874
H128	H	-0.787567	0.333247	0.007460
H129	H	-0.454234	0.666580	0.340793
H130	H	-1.118133	-0.000063	-0.483190
H131	H	-0.784800	0.333270	-0.149857
H132	H	-0.451467	0.666603	0.183477
H133	H	-0.385414	-0.000064	0.249542
H134	H	-0.052081	0.333270	0.582875
H135	H	0.281253	0.666603	0.916209
H136	H	-0.843297	-0.000045	-0.447144
H137	H	-0.509964	0.333289	-0.113810
H138	H	-0.176631	0.666622	0.219523
