data_functionalizedCrystal
_audit_creation_method	'MofGen! by Chris Wilmer'
_symmetry_space_group_name_H-M	'P1'
_symmetry_Int_Tables_number	1
_symmetry_cell_setting	triclinic
loop_
_symmetry_equiv_pos_as_xyz
  x,y,z
_cell_length_a	14.044220
_cell_length_b	17.699083
_cell_length_c	16.776229
_cell_angle_alpha	90.007545
_cell_angle_beta	90.002022
_cell_angle_gamma	88.235946
loop_
_atom_site_label
_atom_site_type_symbol
_atom_site_fract_x
_atom_site_fract_y
_atom_site_fract_z
O1	O	-1.257290	-0.182444	-0.066207
O2	O	-0.981336	-0.175860	-0.066227
O3	O	-1.127109	-0.069500	-0.066209
O4	O	-1.111516	-0.288803	-0.066224
O5	O	-1.127090	-0.069492	0.066367
O6	O	-0.981317	-0.175852	0.066350
O7	O	-1.257271	-0.182435	0.066370
Zn8	Zn	-1.119290	-0.179142	0.087409
Zn9	Zn	-1.119316	-0.179153	-0.087266
O10	O	-1.111497	-0.288795	0.066352
C11	C	-1.126541	-0.041261	0.000079
C12	C	-1.124865	0.042873	0.000079
C13	C	-0.946018	-0.172974	0.000059
C14	C	-0.840812	-0.164378	0.000052
C15	C	-1.292588	-0.185321	0.000082
C16	C	-1.397794	-0.193917	0.000085
C17	C	-0.648187	-0.148663	0.000069
C18	C	-0.590414	-0.209629	0.000068
C19	C	-0.483230	-0.200885	0.000077
C20	C	-0.755381	-0.157406	0.000059
C21	C	-1.112066	-0.317035	0.000062
C22	C	-1.113742	-0.401168	0.000057
N23	N	-1.119280	-0.179134	0.206620
C24	C	-1.210431	0.085591	0.000087
C25	C	-1.208850	0.164644	0.000080
C26	C	-1.121702	0.200976	0.000071
C27	C	-1.036130	0.158252	0.000061
C28	C	-1.037712	0.079201	0.000063
C29	C	-1.029750	0.477055	0.000054
C30	C	-1.028175	0.556112	0.000055
C31	C	-1.200888	0.562498	0.000071
C32	C	-1.202470	0.483447	0.000073
C33	C	-1.116898	0.440730	0.000059
C34	C	-1.118613	0.355012	0.000065
C35	C	-1.119987	0.286692	0.000070
N36	N	-1.119334	-0.179155	-0.206477
C37	C	-1.183848	-0.132061	0.248345
C38	C	-1.183853	-0.132061	0.331798
C39	C	-1.119294	-0.179138	0.373523
C40	C	-1.054719	-0.226214	0.331793
C41	C	-1.054710	-0.226210	0.248342
C42	C	-1.054754	-0.226231	0.668340
C43	C	-1.054770	-0.226233	0.751796
C44	C	-1.183897	-0.132082	0.751795
C45	C	-1.183888	-0.132078	0.668345
C46	C	-1.119310	-0.179150	0.626621
C47	C	-1.119304	-0.179149	0.536133
C48	C	-1.119304	-0.179144	0.464010
H49	H	-0.621449	-0.268391	0.000060
C50	C	-0.606268	-0.069283	0.000070
C51	C	-0.497513	-0.060538	0.000073
C52	C	-0.455580	0.018840	0.000070
C53	C	-0.522402	0.089475	0.000064
C54	C	-0.631163	0.080733	0.000061
C55	C	-0.673096	0.001354	0.000064
H56	H	-0.448041	-0.112828	0.000077
H57	H	-0.375067	0.025312	0.000072
H58	H	-0.491361	0.148236	0.000062
H59	H	-0.680635	0.133023	0.000057
H60	H	-0.753609	-0.005117	0.000062
H61	H	-1.281396	0.056016	0.000099
C62	C	-0.943588	0.032207	0.000056
C63	C	-0.872138	0.040432	-0.068795
C64	C	-0.778012	-0.006561	-0.068806
C65	C	-0.755336	-0.061781	0.000033
C66	C	-0.826788	-0.070008	0.068888
C67	C	-0.920914	-0.023015	0.068900
H68	H	-0.888922	0.081311	-0.119758
H69	H	-0.725119	-0.000470	-0.119778
H70	H	-0.685658	-0.096568	0.000024
H71	H	-0.810004	-0.110887	0.119851
H72	H	-0.973807	-0.029106	0.119871
H73	H	-1.278527	0.199422	0.000087
H74	H	-1.236429	-0.093729	0.365770
H75	H	-1.273434	0.453869	0.000084
H76	H	-1.270565	0.597288	0.000079
C77	C	-0.935623	0.430073	0.000056
C78	C	-0.839766	0.470040	0.000060
C79	C	-0.745634	0.423054	0.000067
C80	C	-0.747359	0.336100	0.000071
C81	C	-0.843221	0.296128	0.000068
C82	C	-0.937352	0.343115	0.000060
H83	H	-0.838485	0.534412	0.000057
H84	H	-0.674671	0.452644	0.000070
H85	H	-0.677677	0.301318	0.000077
H86	H	-0.844501	0.231756	0.000071
H87	H	-1.008315	0.313525	0.000057
C88	C	-1.254866	-0.080273	0.202451
C89	C	-1.325885	-0.028490	0.248353
C90	C	-1.396902	0.023302	0.202461
C91	C	-1.396900	0.023310	0.110669
C92	C	-1.325879	-0.028476	0.064763
C93	C	-1.254861	-0.080267	0.110654
H94	H	-1.325888	-0.028494	0.316308
H95	H	-1.449477	0.061636	0.236445
H96	H	-1.449472	0.061649	0.076698
H97	H	-1.325875	-0.028471	-0.003192
H98	H	-1.202286	-0.118602	0.076670
H99	H	-1.002194	-0.264571	0.785768
C100	C	-1.254901	-0.080291	0.622446
C101	C	-1.325924	-0.028504	0.668340
C102	C	-1.396935	0.023286	0.622442
C103	C	-1.396925	0.023290	0.530650
C104	C	-1.325900	-0.028498	0.484750
C105	C	-1.254888	-0.080288	0.530648
H106	H	-1.325934	-0.028506	0.736295
H107	H	-1.449513	0.061623	0.656421
H108	H	-1.449492	0.061629	0.496673
H109	H	-1.325890	-0.028496	0.416795
H110	H	-1.202311	-0.118625	0.496670
H111	H	-0.957205	0.585691	0.000050
H112	H	-1.236477	-0.093750	0.785776
H113	H	-0.965173	0.187840	0.000049
C114	C	-0.983730	-0.278014	0.622447
C115	C	-0.912745	-0.329826	0.668340
C116	C	-0.841720	-0.381612	0.622440
C117	C	-0.841679	-0.381586	0.530648
C118	C	-0.912666	-0.329773	0.484750
C119	C	-0.983691	-0.277987	0.530649
H120	H	-0.912773	-0.329846	0.736295
H121	H	-0.789170	-0.419967	0.656418
H122	H	-0.789101	-0.419921	0.496670
H123	H	-0.912638	-0.329752	0.416795
H124	H	-1.036241	-0.239631	0.496672
C125	C	-0.983686	-0.277993	0.202442
C126	C	-0.912704	-0.329807	0.248336
C127	C	-0.841674	-0.381590	0.202437
C128	C	-0.841625	-0.381558	0.110645
C129	C	-0.912609	-0.329742	0.064746
C130	C	-0.983639	-0.277960	0.110644
H131	H	-0.912739	-0.329832	0.316291
H132	H	-0.789127	-0.419947	0.236415
H133	H	-0.789044	-0.419891	0.076668
H134	H	-0.912575	-0.329717	-0.003209
H135	H	-1.036186	-0.239603	0.076666
H136	H	-1.002149	-0.264543	0.365771
