data_functionalizedCrystal
_audit_creation_method	'MofGen! by Chris Wilmer'
_symmetry_space_group_name_H-M	'P1'
_symmetry_Int_Tables_number	1
_symmetry_cell_setting	triclinic
loop_
_symmetry_equiv_pos_as_xyz
  x,y,z
_cell_length_a	14.971482
_cell_length_b	11.026607
_cell_length_c	13.448316
_cell_angle_alpha	90.001313
_cell_angle_beta	90.004522
_cell_angle_gamma	96.099312
loop_
_atom_site_label
_atom_site_type_symbol
_atom_site_fract_x
_atom_site_fract_y
_atom_site_fract_z
O1	O	1.212288	0.158154	0.082676
O2	O	0.954923	0.177101	0.082680
O3	O	1.062276	-0.009056	0.082675
O4	O	1.104936	0.344311	0.082681
O5	O	1.062262	-0.009058	-0.082709
O6	O	0.954909	0.177099	-0.082703
O7	O	1.212274	0.158152	-0.082708
Cu8	Cu	1.083591	0.167626	-0.097807
Cu9	Cu	1.083607	0.167627	0.097779
O10	O	1.104922	0.344309	-0.082702
C11	C	0.921456	0.176254	-0.000011
C12	C	0.821752	0.173717	-0.000009
C13	C	0.774909	0.172521	-0.090161
C14	C	0.681225	0.170118	-0.090162
C15	C	0.634388	0.168919	-0.000010
C16	C	0.681238	0.170112	0.090148
C17	C	0.774919	0.172506	0.090148
C18	C	0.485977	0.165124	0.090142
C19	C	0.392289	0.162732	0.090142
C20	C	0.392283	0.162736	-0.090169
C21	C	0.485964	0.165130	-0.090169
C22	C	0.532808	0.166325	-0.000009
C23	C	1.054399	-0.054279	-0.000016
C24	C	1.030938	-0.189027	-0.000012
C25	C	1.095717	-0.262740	-0.000011
C26	C	1.071471	-0.402009	-0.000007
C27	C	1.245742	0.158999	-0.000014
C28	C	1.345445	0.161536	-0.000010
C29	C	1.112799	0.389532	-0.000010
C30	C	1.136260	0.524280	-0.000007
N31	N	1.083585	0.167623	-0.235371
C32	C	1.149703	0.241364	-0.287406
C33	C	1.149713	0.241359	-0.391510
C34	C	1.083601	0.167618	-0.443575
C35	C	1.017480	0.093869	-0.391533
C36	C	1.017474	0.093869	-0.287431
C37	C	1.017496	0.093877	-0.608513
C38	C	1.017500	0.093879	-0.712621
C39	C	1.149735	0.241367	-0.712591
C40	C	1.149729	0.241367	-0.608490
C41	C	1.083606	0.167619	-0.556454
N42	N	1.083618	0.167620	0.235343
H43	H	0.643088	0.169124	-0.163573
H44	H	0.957527	-0.229024	-0.000004
H45	H	0.524097	0.166114	-0.163578
F46	F	0.342428	0.161465	-0.186123
F47	F	0.947130	0.015370	-0.553135
H48	H	0.354156	0.161757	0.163552
F49	F	1.232221	-0.423457	-0.000004
H50	H	1.203535	0.301420	-0.245022
H51	H	1.203554	0.301404	-0.433872
F52	F	1.220079	0.319874	-0.553079
F53	F	1.220110	0.319852	-0.767972
H54	H	0.963634	0.033822	-0.245065
H55	H	0.643095	0.169127	0.163552
F56	F	0.947140	0.015391	-0.768031
H57	H	0.524114	0.166097	0.163559
F58	F	0.947120	0.015386	-0.446948
F59	F	0.824773	0.173774	0.186100
H60	H	1.169128	-0.222743	-0.000019
H61	H	0.813038	0.173507	-0.163573
F62	F	0.975511	-0.454275	0.000003
