data_functionalizedCrystal
_audit_creation_method	'MofGen! by Chris Wilmer'
_symmetry_space_group_name_H-M	'P1'
_symmetry_Int_Tables_number	1
_symmetry_cell_setting	triclinic
loop_
_symmetry_equiv_pos_as_xyz
  x,y,z
_cell_length_a	12.759401
_cell_length_b	16.959453
_cell_length_c	12.759393
_cell_angle_alpha	90.033968
_cell_angle_beta	90.019676
_cell_angle_gamma	90.020414
loop_
_atom_site_label
_atom_site_type_symbol
_atom_site_fract_x
_atom_site_fract_y
_atom_site_fract_z
Zn1	Zn	1.606228	-0.314634	0.593959
Zn2	Zn	1.606103	-0.446833	0.418269
Zn3	Zn	1.430526	-0.314674	0.418298
Zn4	Zn	1.430502	-0.446776	0.593910
O5	O	1.518340	-0.380729	0.506109
O6	O	1.753232	-0.332178	0.570662
O7	O	1.582770	-0.429343	0.271252
O8	O	1.453896	-0.204058	0.441633
O9	O	1.753140	-0.429305	0.441583
O10	O	1.582983	-0.204029	0.570691
O11	O	1.453775	-0.332246	0.271273
O12	O	1.283502	-0.332190	0.441585
O13	O	1.453855	-0.429206	0.740938
O14	O	1.283484	-0.429244	0.570606
O15	O	1.582960	-0.332122	0.740974
O16	O	1.582746	-0.557437	0.441535
O17	O	1.453733	-0.557394	0.570578
C18	C	1.245372	-0.380716	0.506094
C19	C	1.128596	-0.380729	0.506113
C20	C	1.073782	-0.330247	0.573428
C21	C	0.964058	-0.330255	0.573435
C22	C	0.963971	-0.431234	0.438809
C23	C	1.073693	-0.431221	0.438797
C24	C	1.518252	-0.586096	0.506071
C25	C	1.518311	-0.673952	0.506089
C26	C	1.585641	-1.045354	0.573436
C27	C	1.451332	-1.045501	0.438938
C28	C	1.451293	-0.962955	0.438914
C29	C	1.518428	-0.921605	0.506153
C30	C	1.585602	-0.962801	0.573416
C31	C	1.384112	-0.921754	0.371660
C32	C	1.384070	-0.839203	0.371634
C33	C	1.451211	-0.797851	0.438868
C34	C	1.518389	-0.839052	0.506133
C35	C	1.585524	-0.797701	0.573372
C36	C	1.652708	-0.838900	0.640633
C37	C	1.652744	-0.921449	0.640651
C38	C	1.451175	-0.715303	0.438850
C39	C	1.585485	-0.715148	0.573353
C40	C	1.792373	-0.380744	0.506125
C41	C	1.909150	-0.380750	0.506131
C42	C	1.518418	-0.380653	0.780143
C43	C	1.518452	-0.380621	0.896919
C44	C	1.518456	-0.174561	0.506171
C45	C	1.518506	-0.086704	0.506197
C46	C	1.518322	-0.380748	0.233142
C47	C	1.518492	-0.380558	0.116366
C48	C	1.585682	-0.330062	0.951802
C49	C	1.585700	-0.330027	1.061526
C50	C	1.451255	-0.431119	1.061475
C51	C	1.451232	-0.431149	0.951753
H52	H	1.640159	-0.681485	0.628103
C53	C	0.903768	-0.274728	0.647487
H54	H	0.952184	-0.244662	0.687578
H55	H	0.860957	-0.240254	0.607389
H56	H	0.860978	-0.305018	0.693197
C57	C	1.377326	-0.486703	1.121791
H58	H	1.337276	-0.516814	1.073387
H59	H	1.417504	-0.521134	1.164588
H60	H	1.331571	-0.456448	1.164597
H61	H	1.396669	-1.079174	0.384200
C62	C	1.726636	-0.966765	0.714633
H63	H	1.766624	-0.930317	0.754669
H64	H	1.686438	-0.998962	0.760382
H65	H	1.772450	-0.998966	0.674482
H66	H	0.919255	-0.472344	0.384004
H67	H	1.329451	-0.955427	0.316920
C68	C	1.377283	-0.486772	0.891378
H69	H	1.337265	-0.516870	0.939748
H70	H	1.331516	-0.456547	0.848575
H71	H	1.417456	-0.521227	0.848574
C72	C	1.133992	-0.486757	0.364751
H73	H	1.085581	-0.516839	0.324673
H74	H	1.176784	-0.456475	0.319043
H75	H	1.176801	-0.521230	0.404863
C76	C	1.659657	-0.274416	1.121893
H77	H	1.699690	-0.244334	1.073517
H78	H	1.619502	-0.239958	1.164700
H79	H	1.705426	-0.304651	1.164691
C80	C	1.726553	-0.793410	0.714591
H81	H	1.716905	-0.738347	0.704939
H82	H	1.711154	-0.806905	0.785173
H83	H	1.797163	-0.806902	0.699269
H84	H	1.118481	-0.289130	0.628237
H85	H	1.640344	-1.078902	0.628195
H86	H	1.329366	-0.805664	0.316866
C87	C	1.377281	-0.669987	0.364876
H88	H	1.337304	-0.706437	0.324834
H89	H	1.331473	-0.637784	0.405021
H90	H	1.417482	-0.637793	0.319117
H91	H	1.640413	-0.288916	0.907159
