data_functionalizedCrystal
_audit_creation_method	'MofGen! by Chris Wilmer'
_symmetry_space_group_name_H-M	'P1'
_symmetry_Int_Tables_number	1
_symmetry_cell_setting	triclinic
loop_
_symmetry_equiv_pos_as_xyz
  x,y,z
_cell_length_a	19.077267
_cell_length_b	19.077068
_cell_length_c	19.076919
_cell_angle_alpha	85.529249
_cell_angle_beta	85.333063
_cell_angle_gamma	89.936033
loop_
_atom_site_label
_atom_site_type_symbol
_atom_site_fract_x
_atom_site_fract_y
_atom_site_fract_z
Zn1	Zn	-1.047524	0.337166	-0.369401
Zn2	Zn	-0.797524	0.587166	-0.119401
Zn3	Zn	-0.547524	0.837166	0.130599
Zn4	Zn	-0.297524	1.087166	0.380599
Zn5	Zn	-1.047437	0.450316	-0.256249
Zn6	Zn	-0.797437	0.700316	-0.006249
Zn7	Zn	-0.547437	0.950316	0.243751
Zn8	Zn	-0.297437	1.200316	0.493751
Zn9	Zn	-0.934761	0.328092	-0.255885
Zn10	Zn	-0.684761	0.578092	-0.005885
Zn11	Zn	-0.434761	0.828092	0.244115
Zn12	Zn	-0.184761	1.078092	0.494115
Zn13	Zn	-0.924869	0.450276	-0.378825
Zn14	Zn	-0.674869	0.700276	-0.128825
Zn15	Zn	-0.424869	0.950276	0.121175
Zn16	Zn	-0.174869	1.200276	0.371175
O17	O	-0.988648	0.391462	-0.315090
O18	O	-0.738648	0.641462	-0.065090
O19	O	-0.488648	0.891462	0.184910
O20	O	-0.238648	1.141462	0.434910
O21	O	-1.145999	0.355990	-0.350599
O22	O	-0.895999	0.605990	-0.100599
O23	O	-0.645999	0.855990	0.149401
O24	O	-0.395999	1.105990	0.399401
O25	O	-1.036593	0.430322	-0.157395
O26	O	-0.786593	0.680322	0.092605
O27	O	-0.536593	0.930322	0.342605
O28	O	-0.286593	1.180322	0.592605
O29	O	-0.953896	0.230808	-0.266847
O30	O	-0.703896	0.480808	-0.016847
O31	O	-0.453896	0.730808	0.233153
O32	O	-0.203896	0.980808	0.483153
O33	O	-1.145935	0.439120	-0.267467
O34	O	-0.895935	0.689120	-0.017467
O35	O	-0.645935	0.939120	0.232533
O36	O	-0.395935	1.189120	0.482533
O37	O	-1.036742	0.237474	-0.350246
O38	O	-0.786742	0.487474	-0.100246
O39	O	-0.536742	0.737474	0.149754
O40	O	-0.286742	0.987474	0.399754
O41	O	-0.953811	0.340525	-0.157128
O42	O	-0.703811	0.590525	0.092872
O43	O	-0.453811	0.840525	0.342872
O44	O	-0.203811	1.090525	0.592872
O45	O	-0.834963	0.340486	-0.275985
O46	O	-0.584963	0.590486	-0.025985
O47	O	-0.334963	0.840486	0.224015
O48	O	-0.084963	1.090486	0.474015
O49	O	-0.937037	0.439052	-0.476380
O50	O	-0.687037	0.689052	-0.226380
O51	O	-0.437037	0.939052	0.023620
O52	O	-0.187037	1.189052	0.273620
O53	O	-0.827695	0.430254	-0.366309
O54	O	-0.577695	0.680254	-0.116309
O55	O	-0.327695	0.930254	0.133691
O56	O	-0.077695	1.180254	0.383691
O57	O	-1.027150	0.355951	-0.469456
O58	O	-0.777150	0.605951	-0.219456
O59	O	-0.527150	0.855951	0.030544
O60	O	-0.277150	1.105951	0.280544
O61	O	-1.027002	0.548798	-0.276605
O62	O	-0.777002	0.798798	-0.026605
O63	O	-0.527002	1.048798	0.223395
O64	O	-0.277002	1.298798	0.473395
O65	O	-0.936952	0.548769	-0.366662
O66	O	-0.686952	0.798769	-0.116662
O67	O	-0.436952	1.048769	0.133338
O68	O	-0.186952	1.298769	0.383338
C69	C	-0.805793	0.384381	-0.322130
C70	C	-0.555793	0.634381	-0.072130
C71	C	-0.305793	0.884381	0.177870
C72	C	-0.055793	1.134381	0.427870
C73	C	-0.727565	0.381370	-0.325160
C74	C	-0.477565	0.631370	-0.075160
C75	C	-0.227565	0.881370	0.174840
C76	C	0.022435	1.131370	0.424840
C77	C	-0.690783	0.423161	-0.283230
C78	C	-0.440783	0.673161	-0.033230
C79	C	-0.190783	0.923161	0.216770
C80	C	0.059217	1.173161	0.466770
C81	C	-0.617280	0.420332	-0.286086
C82	C	-0.367280	0.670332	-0.036086
C83	C	-0.117280	0.920332	0.213914
C84	C	0.132720	1.170332	0.463914
C85	C	-0.580559	0.375707	-0.330868
C86	C	-0.330559	0.625707	-0.080868
C87	C	-0.080559	0.875707	0.169132
C88	C	0.169441	1.125707	0.419132
C89	C	-0.617346	0.333914	-0.372803
C90	C	-0.367346	0.583914	-0.122803
C91	C	-0.117346	0.833914	0.127197
C92	C	0.132654	1.083914	0.377197
C93	C	-0.690848	0.336748	-0.369950
C94	C	-0.440848	0.586748	-0.119950
C95	C	-0.190848	0.836748	0.130050
C96	C	0.059152	1.086748	0.380050
C97	C	-0.360735	0.362603	-0.344052
C98	C	-0.110735	0.612603	-0.094052
C99	C	0.139265	0.862603	0.155948
C100	C	0.389265	1.112603	0.405948
C101	C	-0.287228	0.359772	-0.346900
C102	C	-0.037228	0.609772	-0.096900
C103	C	0.212772	0.859772	0.153100
C104	C	0.462772	1.109772	0.403100
C105	C	-0.287166	0.446190	-0.260184
C106	C	-0.037166	0.696190	-0.010184
C107	C	0.212834	0.946190	0.239816
C108	C	0.462834	1.196190	0.489816
C109	C	-0.360670	0.449016	-0.257332
C110	C	-0.110670	0.699016	-0.007332
C111	C	0.139330	0.949016	0.242668
C112	C	0.389330	1.199016	0.492668
C113	C	-0.397450	0.407226	-0.299269
C114	C	-0.147450	0.657226	-0.049269
C115	C	0.102550	0.907226	0.200731
C116	C	0.352550	1.157226	0.450731
N117	N	-0.505427	0.372813	-0.333787
N118	N	-0.255427	0.622813	-0.083787
N119	N	-0.005427	0.872813	0.166213
N120	N	0.244573	1.122813	0.416213
N121	N	-0.472581	0.410125	-0.296354
N122	N	-0.222581	0.660125	-0.046354
N123	N	0.027419	0.910125	0.203646
N124	N	0.277419	1.160125	0.453646
C125	C	-0.980913	0.574322	-0.322710
C126	C	-0.730913	0.824322	-0.072710
C127	C	-0.480913	1.074322	0.177290
C128	C	-0.230913	1.324322	0.427290
C129	C	-0.977667	0.652553	-0.325991
C130	C	-0.727667	0.902553	-0.075991
C131	C	-0.477667	1.152553	0.174009
C132	C	-0.227667	1.402553	0.424009
C133	C	-0.981000	0.398509	-0.499254
C134	C	-0.731000	0.648509	-0.249254
C135	C	-0.481000	0.898509	0.000746
C136	C	-0.231000	1.148509	0.250746
C137	C	-0.977740	0.401512	-0.577734
C138	C	-0.727740	0.651512	-0.327734
C139	C	-0.477740	0.901512	-0.077734
C140	C	-0.227740	1.151512	0.172266
C141	C	-0.172218	0.398562	-0.308012
C142	C	0.077782	0.648562	-0.058012
C143	C	0.327782	0.898562	0.191988
C144	C	0.577782	1.148562	0.441988
C145	C	-0.250446	0.401563	-0.304970
C146	C	-0.000446	0.651563	-0.054970
C147	C	0.249554	0.901563	0.195030
C148	C	0.499554	1.151563	0.445030
C149	C	-0.996432	0.207890	-0.307455
C150	C	-0.746432	0.457890	-0.057455
C151	C	-0.496432	0.707890	0.192545
C152	C	-0.246432	0.957890	0.442545
C153	C	-0.999749	0.129663	-0.304201
C154	C	-0.749749	0.379663	-0.054201
C155	C	-0.499749	0.629663	0.195799
C156	C	-0.249749	0.879663	0.445799
C157	C	-1.023059	0.689301	-0.280681
C158	C	-0.773059	0.939301	-0.030681
C159	C	-0.523059	1.189301	0.219319
C160	C	-0.273059	1.439301	0.469319
C161	C	-1.020010	0.762808	-0.283771
C162	C	-0.770010	1.012808	-0.033771
C163	C	-0.520010	1.262808	0.216229
C164	C	-0.270010	1.512808	0.466229
C165	C	-0.971565	0.799566	-0.332168
C166	C	-0.721565	1.049566	-0.082168
C167	C	-0.471565	1.299566	0.167832
C168	C	-0.221565	1.549566	0.417832
C169	C	-0.926171	0.762813	-0.377483
C170	C	-0.676171	1.012813	-0.127483
C171	C	-0.426171	1.262813	0.122517
C172	C	-0.176171	1.512813	0.372517
C173	C	-0.929223	0.689307	-0.374396
C174	C	-0.679223	0.939307	-0.124396
C175	C	-0.429223	1.189307	0.125604
C176	C	-0.179223	1.439307	0.375604
C177	C	-0.957407	1.019404	-0.346429
C178	C	-0.707407	1.269404	-0.096429
C179	C	-0.457407	1.519404	0.153571
C180	C	-0.207407	1.769404	0.403571
C181	C	-0.954356	1.092915	-0.349511
C182	C	-0.704356	1.342915	-0.099511
C183	C	-0.454356	1.592915	0.150489
C184	C	-0.204356	1.842915	0.400489
C185	C	-1.048197	1.092905	-0.255799
C186	C	-0.798197	1.342905	-0.005799
C187	C	-0.548197	1.592905	0.244201
C188	C	-0.298197	1.842905	0.494201
C189	C	-1.051243	1.019398	-0.252714
C190	C	-0.801243	1.269398	-0.002714
C191	C	-0.551243	1.519398	0.247286
C192	C	-0.301243	1.769398	0.497286
C193	C	-1.005851	0.982652	-0.298031
C194	C	-0.755851	1.232652	-0.048031
C195	C	-0.505851	1.482652	0.201969
C196	C	-0.255851	1.732652	0.451969
N197	N	-0.968446	0.874702	-0.335327
N198	N	-0.718446	1.124702	-0.085327
N199	N	-0.468446	1.374702	0.164673
N200	N	-0.218446	1.624702	0.414673
N201	N	-1.008974	0.907518	-0.294876
N202	N	-0.758974	1.157518	-0.044876
N203	N	-0.508974	1.407518	0.205124
N204	N	-0.258974	1.657518	0.455124
C205	C	-1.023124	0.359658	-0.611000
C206	C	-0.773124	0.609658	-0.361000
C207	C	-0.523124	0.859658	-0.111000
C208	C	-0.273124	1.109658	0.139000
C209	C	-1.020053	0.362477	-0.684740
C210	C	-0.770053	0.612477	-0.434740
C211	C	-0.520053	0.862477	-0.184740
C212	C	-0.270053	1.112477	0.065260
C213	C	-0.971602	0.407153	-0.725213
C214	C	-0.721602	0.657153	-0.475213
C215	C	-0.471602	0.907153	-0.225213
C216	C	-0.221602	1.157153	0.024787
C217	C	-0.926213	0.449008	-0.691942
C218	C	-0.676213	0.699008	-0.441942
C219	C	-0.426213	0.949008	-0.191942
C220	C	-0.176213	1.199008	0.058058
C221	C	-0.929281	0.446186	-0.618203
C222	C	-0.679281	0.696186	-0.368203
C223	C	-0.429281	0.946186	-0.118203
C224	C	-0.179281	1.196186	0.131797
C225	C	-0.957392	0.420231	-0.946136
C226	C	-0.707392	0.670231	-0.696136
C227	C	-0.457392	0.920231	-0.446136
C228	C	-0.207392	1.170231	-0.196136
C229	C	-0.954329	0.423052	-1.019879
C230	C	-0.704329	0.673052	-0.769879
C231	C	-0.454329	0.923052	-0.519879
C232	C	-0.204329	1.173052	-0.269879
C233	C	-1.048169	0.336519	-1.012673
C234	C	-0.798169	0.586519	-0.762673
C235	C	-0.548169	0.836519	-0.512673
C236	C	-0.298169	1.086519	-0.262673
C237	C	-1.051235	0.333703	-0.938933
C238	C	-0.801235	0.583703	-0.688933
C239	C	-0.551235	0.833703	-0.438933
C240	C	-0.301235	1.083703	-0.188933
C241	C	-1.005844	0.375556	-0.905668
C242	C	-0.755844	0.625556	-0.655668
C243	C	-0.505844	0.875556	-0.405668
C244	C	-0.255844	1.125556	-0.155668
N245	N	-0.968463	0.410037	-0.800587
N246	N	-0.718463	0.660037	-0.550587
N247	N	-0.468463	0.910037	-0.300587
N248	N	-0.218463	1.160037	-0.050587
N249	N	-1.008980	0.372668	-0.830295
N250	N	-0.758980	0.622668	-0.580295
N251	N	-0.508980	0.872668	-0.330295
N252	N	-0.258980	1.122668	-0.080295
C253	C	-0.996309	0.384394	-0.131639
C254	C	-0.746309	0.634394	0.118361
C255	C	-0.496309	0.884394	0.368361
C256	C	-0.246309	1.134394	0.618361
C257	C	-0.999713	0.381198	-0.053146
C258	C	-0.749713	0.631198	0.196854
C259	C	-0.499713	0.881198	0.446854
C260	C	-0.249713	1.131198	0.696854
H261	H	-0.390673	0.328576	-0.378201
H262	H	-0.140673	0.578576	-0.128201
H263	H	0.109327	0.828576	0.121799
H264	H	0.359327	1.078576	0.371799
H265	H	-1.057011	0.328397	-0.711822
H266	H	-0.807011	0.578397	-0.461822
H267	H	-0.557011	0.828397	-0.211822
H268	H	-0.307011	1.078397	0.038178
H269	H	-0.886728	0.792747	-0.416892
H270	H	-0.636728	1.042747	-0.166892
H271	H	-0.386728	1.292747	0.083108
H272	H	-0.136728	1.542747	0.333108
H273	H	-0.892261	0.659388	-0.411293
H274	H	-0.642261	0.909388	-0.161293
H275	H	-0.392261	1.159388	0.088707
H276	H	-0.142261	1.409388	0.338707
H277	H	-0.257333	0.323427	-0.383365
H278	H	-0.007333	0.573427	-0.133365
H279	H	0.242667	0.823427	0.116635
H280	H	0.492667	1.073427	0.366635
H281	H	-0.914914	1.122841	-0.388934
H282	H	-0.664914	1.372841	-0.138934
H283	H	-0.414914	1.622841	0.111066
H284	H	-0.164914	1.872841	0.361066
H285	H	-0.920446	0.989491	-0.383326
H286	H	-0.670446	1.239491	-0.133326
H287	H	-0.420446	1.489491	0.116674
H288	H	-0.170446	1.739491	0.366674
H289	H	-0.720795	0.302716	-0.404093
H290	H	-0.470795	0.552716	-0.154093
H291	H	-0.220795	0.802716	0.095907
H292	H	0.029205	1.052716	0.345907
H293	H	-1.062581	0.323280	-0.578052
H294	H	-0.812581	0.573280	-0.328052
H295	H	-0.562581	0.823280	-0.078052
H296	H	-0.312581	1.073280	0.171948
H297	H	-1.090692	0.297325	-0.905985
H298	H	-0.840692	0.547325	-0.655985
H299	H	-0.590692	0.797325	-0.405985
H300	H	-0.340692	1.047325	-0.155985
Cl301	Cl	-1.105225	0.283905	-1.054496
Cl302	Cl	-0.855225	0.533905	-0.804496
Cl303	Cl	-0.605225	0.783905	-0.554496
Cl304	Cl	-0.355225	1.033905	-0.304496
H305	H	-0.257212	0.480214	-0.226043
H306	H	-0.007212	0.730214	0.023957
H307	H	0.242788	0.980214	0.273957
H308	H	0.492788	1.230214	0.523957
H309	H	-1.085154	1.122832	-0.218906
H310	H	-0.835154	1.372832	0.031094
H311	H	-0.585154	1.622832	0.281094
H312	H	-0.335154	1.872832	0.531094
Cl313	Cl	-1.083961	0.643099	-0.219832
Cl314	Cl	-0.833961	0.893099	0.030168
Cl315	Cl	-0.583961	1.143099	0.280168
Cl316	Cl	-0.333961	1.393099	0.530168
H317	H	-0.886760	0.485382	-0.724901
H318	H	-0.636760	0.735382	-0.474901
H319	H	-0.386760	0.985382	-0.224901
H320	H	-0.136760	1.235382	0.025099
Cl321	Cl	-0.893410	0.479217	-1.070759
Cl322	Cl	-0.643410	0.729217	-0.820759
Cl323	Cl	-0.393410	0.979217	-0.570759
Cl324	Cl	-0.143410	1.229217	-0.320759
H325	H	-0.587443	0.297584	-0.409268
H326	H	-0.337443	0.547584	-0.159268
H327	H	-0.087443	0.797584	0.090732
H328	H	0.162557	1.047584	0.340732
H329	H	-0.390563	0.485354	-0.220865
H330	H	-0.140563	0.735354	0.029135
H331	H	0.109437	0.985354	0.279135
H332	H	0.359437	1.235354	0.529135
Cl333	Cl	-1.077080	0.809003	-0.226810
Cl334	Cl	-0.827080	1.059003	0.023190
Cl335	Cl	-0.577080	1.309003	0.273190
Cl336	Cl	-0.327080	1.559003	0.523190
Cl337	Cl	-0.736938	0.479262	-0.226928
Cl338	Cl	-0.486938	0.729262	0.023072
Cl339	Cl	-0.236938	0.979262	0.273072
Cl340	Cl	0.013062	1.229262	0.523072
H341	H	-0.920441	0.454321	-0.919061
H342	H	-0.670441	0.704321	-0.669061
H343	H	-0.420441	0.954321	-0.419061
H344	H	-0.170441	1.204321	-0.169061
H345	H	-0.892318	0.480260	-0.591119
H346	H	-0.642318	0.730260	-0.341119
H347	H	-0.392318	0.980260	-0.091119
H348	H	-0.142318	1.230260	0.158881
H349	H	-0.587335	0.454362	-0.251943
H350	H	-0.337335	0.704362	-0.001943
H351	H	-0.087335	0.954362	0.248057
H352	H	0.162665	1.204362	0.498057
H353	H	-1.090691	0.989472	-0.213305
H354	H	-0.840691	1.239472	0.036695
H355	H	-0.590691	1.489472	0.286695
H356	H	-0.340691	1.739472	0.536695
