data_functionalizedCrystal
_audit_creation_method	'MofGen! by Chris Wilmer'
_symmetry_space_group_name_H-M	'P1'
_symmetry_Int_Tables_number	1
_symmetry_cell_setting	triclinic
loop_
_symmetry_equiv_pos_as_xyz
  x,y,z
_cell_length_a	11.792241
_cell_length_b	10.654541
_cell_length_c	9.730217
_cell_angle_alpha	89.995122
_cell_angle_beta	90.000486
_cell_angle_gamma	84.338672
loop_
_atom_site_label
_atom_site_type_symbol
_atom_site_fract_x
_atom_site_fract_y
_atom_site_fract_z
O1	O	-1.507304	-0.172136	0.114156
O2	O	-1.177004	-0.189877	0.114188
O3	O	-1.349749	0.001754	0.114163
O4	O	-1.334558	-0.363768	0.114181
O5	O	-1.349737	0.001762	-0.114417
O6	O	-1.176991	-0.189869	-0.114392
O7	O	-1.507291	-0.172129	-0.114424
Zn8	Zn	-1.342139	-0.180998	-0.150700
Zn9	Zn	-1.342156	-0.181008	0.150464
O10	O	-1.334546	-0.363760	-0.114399
C11	C	-1.134704	-0.188759	-0.000098
C12	C	-1.008682	-0.185423	-0.000086
C13	C	-1.348628	0.048553	-0.000126
C14	C	-1.345293	0.187987	-0.000124
C15	C	-1.549591	-0.173247	-0.000135
C16	C	-1.675612	-0.176582	-0.000138
C17	C	-0.777956	-0.179290	-0.000126
C18	C	-0.906349	-0.182698	-0.000104
C19	C	-1.335667	-0.410559	-0.000107
C20	C	-1.339002	-0.549993	-0.000101
N21	N	-1.342136	-0.180990	-0.356237
C22	C	-1.551857	0.216542	-0.000161
C23	C	-1.653568	0.296324	-0.000183
C24	C	-1.650427	0.427333	-0.000178
C25	C	-1.545564	0.478562	-0.000148
C26	C	-1.443853	0.398780	-0.000127
C27	C	-1.447006	0.267770	-0.000135
C28	C	-1.237292	0.370225	-0.000079
C29	C	-1.240430	0.239216	-0.000094
C30	C	-1.132429	0.421454	-0.000049
C31	C	-1.030716	0.341672	-0.000038
C32	C	-1.033861	0.210655	-0.000044
C33	C	-1.138720	0.159434	-0.000072
C34	C	-1.203282	-0.027607	-0.356287
C35	C	-1.133867	0.049088	-0.428252
C36	C	-1.133884	0.049088	-0.572132
C37	C	-1.203321	-0.027617	-0.644050
C38	C	-1.272736	-0.104312	-0.572085
C39	C	-1.272714	-0.104301	-0.428202
C40	C	-1.411582	-0.257700	-0.572035
C41	C	-1.411573	-0.257695	-0.428155
C42	C	-1.481019	-0.334405	-0.643953
C43	C	-1.550442	-0.411094	-0.571988
C44	C	-1.550423	-0.411090	-0.428100
C45	C	-1.480988	-0.334390	-0.356190
N46	N	-1.342167	-0.181006	0.356000
H47	H	-1.554425	0.109869	-0.000184
H48	H	-0.951036	0.145703	-0.000021
H49	H	-1.606966	-0.473548	-0.630555
H50	H	-1.606943	-0.473551	-0.369514
O51	O	-0.928836	0.391375	0.000239
C52	C	-0.866774	0.350633	0.118613
H53	H	-0.928079	0.322950	0.201338
H54	H	-0.817868	0.430312	0.158375
H55	H	-0.804190	0.265697	0.091849
O56	O	-1.480952	-0.334619	-0.216426
C57	C	-1.446294	-0.457263	-0.168349
H58	H	-1.462608	-0.528916	-0.251249
H59	H	-1.496753	-0.476844	-0.072073
H60	H	-1.351497	-0.465204	-0.142847
H61	H	-1.481022	-0.334405	-0.761107
H62	H	-1.733248	0.492293	-0.000184
O63	O	-1.129521	0.548735	0.000139
C64	C	-1.185118	0.600325	0.118526
H65	H	-1.247246	0.533162	0.157979
H66	H	-1.233784	0.694992	0.091888
H67	H	-1.119285	0.614540	0.201439
H68	H	-1.077331	0.111537	-0.369680
H69	H	-1.738945	0.254599	-0.000219
H70	H	-1.543016	0.585238	-0.000127
O71	O	-1.141719	0.032165	-0.000324
C72	C	-1.086073	-0.019433	-0.118676
H73	H	-1.086062	0.056323	-0.201417
H74	H	-1.132676	-0.100921	-0.158428
H75	H	-0.994486	-0.055425	-0.091886
O76	O	-1.066424	0.123703	-0.641832
C77	C	-1.005108	0.191377	-0.547513
H78	H	-1.052015	0.198358	-0.444938
H79	H	-0.997313	0.290188	-0.589107
H80	H	-0.916417	0.140312	-0.532227
O81	O	-1.203438	-0.027417	-0.783814
C82	C	-1.238024	0.095240	-0.831906
H83	H	-1.290054	0.150222	-0.748998
H84	H	-1.292344	0.089239	-0.928158
H85	H	-1.159644	0.145443	-0.857451
H86	H	-1.203270	-0.027590	-0.239132
