data_functionalizedCrystal
_audit_creation_method	'MofGen! by Chris Wilmer'
_symmetry_space_group_name_H-M	'P1'
_symmetry_Int_Tables_number	1
_symmetry_cell_setting	triclinic
loop_
_symmetry_equiv_pos_as_xyz
  x,y,z
_cell_length_a	17.699077
_cell_length_b	17.699104
_cell_length_c	16.176319
_cell_angle_alpha	89.992259
_cell_angle_beta	89.993140
_cell_angle_gamma	83.286047
loop_
_atom_site_label
_atom_site_type_symbol
_atom_site_fract_x
_atom_site_fract_y
_atom_site_fract_z
O1	O	1.004089	0.095691	-0.068737
O2	O	0.783711	0.108148	-0.068742
O3	O	0.900118	-0.008269	-0.068732
O4	O	0.887682	0.212107	-0.068747
O5	O	0.900102	-0.008276	0.068761
O6	O	0.783695	0.108140	0.068752
O7	O	1.004073	0.095683	0.068756
Cu8	Cu	0.893882	0.101911	0.081308
Cu9	Cu	0.893901	0.101920	-0.081294
O10	O	0.887666	0.212100	0.068746
C11	C	0.755506	0.107698	0.000005
C12	C	0.671487	0.106362	0.000003
C13	C	0.899661	-0.036469	0.000015
C14	C	0.898317	-0.120487	0.000015
C15	C	0.632011	0.105728	0.074952
C16	C	0.553068	0.104460	0.074953
C17	C	0.513603	0.103831	0.000004
C18	C	0.553085	0.104463	-0.074950
C19	C	0.632027	0.105725	-0.074950
C20	C	0.234721	0.099369	-0.074951
C21	C	0.155773	0.098109	-0.074945
C22	C	0.155763	0.098104	0.074951
C23	C	0.234705	0.099366	0.074951
C24	C	0.274180	0.099994	-0.000002
C25	C	0.359779	0.101367	-0.000003
C26	C	0.428005	0.102463	0.000003
C27	C	0.959061	-0.645359	-0.000007
C28	C	0.960320	-0.566415	0.000000
C29	C	0.891984	-0.517796	0.000001
C30	C	0.822385	-0.548125	0.000002
C31	C	0.821127	-0.627067	0.000001
C32	C	0.827458	-0.229759	0.000009
C33	C	0.828722	-0.150811	0.000008
C34	C	0.966651	-0.169107	0.000009
C35	C	0.965393	-0.248049	0.000007
C36	C	0.895794	-0.278371	0.000013
C37	C	0.894430	-0.363971	0.000007
C38	C	0.893348	-0.432198	0.000001
C39	C	1.032278	0.096133	0.000008
C40	C	1.116296	0.097469	0.000004
C41	C	0.888122	0.240300	-0.000002
C42	C	0.889467	0.324318	-0.000008
N43	N	0.893875	0.101904	0.195673
N44	N	0.893915	0.101920	-0.195659
C45	C	0.945435	0.050376	0.238942
C46	C	0.945439	0.050375	0.325489
C47	C	0.893885	0.101907	0.368766
C48	C	0.842319	0.153438	0.325491
C49	C	0.842312	0.153434	0.238946
C50	C	0.842345	0.153452	0.674520
C51	C	0.842357	0.153453	0.761071
C52	C	0.945472	0.050393	0.761063
C53	C	0.945465	0.050390	0.674517
C54	C	0.893896	0.101917	0.631250
C55	C	0.893892	0.101917	0.537406
C56	C	0.893893	0.101912	0.462608
H57	H	0.520932	0.103931	0.135983
O58	O	0.995508	0.000379	0.632374
C59	C	1.042121	0.040746	0.582178
H60	H	1.043476	0.100410	0.608246
H61	H	1.018305	0.044809	0.516643
C62	C	1.121714	-0.074524	0.548644
C63	C	1.123384	-0.001245	0.580665
H64	H	1.171841	-0.100427	0.547707
H65	H	1.090309	-0.101721	0.582459
H66	H	1.101864	-0.071128	0.494034
H67	H	1.143225	-0.004643	0.635277
H68	H	1.154795	0.025950	0.546859
O69	O	0.514629	0.103883	-0.147682
C70	C	0.436489	0.102615	-0.131612
H71	H	0.422523	0.126393	-0.067201
H72	H	0.422138	0.041562	-0.135160
C73	C	0.406539	0.122382	-0.275387
C74	C	0.389385	0.151592	-0.196278
H75	H	0.377482	0.152590	-0.315277
H76	H	0.459183	0.123233	-0.286214
H77	H	0.394579	0.071505	-0.278331
H78	H	0.401354	0.202465	-0.193332
H79	H	0.336741	0.150751	-0.185452
O80	O	0.670254	0.106378	-0.147829
C81	C	0.618497	0.105536	-0.213982
H82	H	0.559045	0.128586	-0.192010
H83	H	0.618156	0.044707	-0.237024
C84	C	0.715752	0.127339	-0.311780
C85	C	0.642733	0.155655	-0.284797
H86	H	0.730703	0.158251	-0.355464
H87	H	0.750623	0.127903	-0.267213
H88	H	0.715459	0.076649	-0.330977
H89	H	0.643029	0.206340	-0.265591
H90	H	0.607862	0.155100	-0.329363
H91	H	0.123642	0.097596	-0.135981
O92	O	0.753542	-0.656561	0.000143
C93	C	0.748687	-0.701701	0.071341
H94	H	0.788198	-0.683106	0.121113
H95	H	0.766263	-0.763985	0.055242
C96	C	0.617742	-0.714828	0.042498
C97	C	0.666265	-0.691986	0.103631
H98	H	0.566900	-0.708839	0.062415
H99	H	0.621013	-0.684419	-0.005471
H100	H	0.632398	-0.766730	0.029088
H101	H	0.651615	-0.640082	0.117033
H102	H	0.662989	-0.722386	0.151604
H103	H	0.987423	0.008417	0.360718
O104	O	0.792229	0.203581	0.632625
C105	C	0.746720	0.249052	0.689385
H106	H	0.777758	0.249868	0.751067
H107	H	0.690545	0.224548	0.698611
C108	C	0.692847	0.329719	0.579839
C109	C	0.730970	0.330726	0.655596
H110	H	0.683128	0.380099	0.558996
H111	H	0.723505	0.299083	0.541598
H112	H	0.646038	0.309295	0.587538
H113	H	0.777782	0.351140	0.647895
H114	H	0.700320	0.361368	0.693835
H115	H	0.987459	0.008434	0.796300
O116	O	1.031704	-0.295385	-0.000031
C117	C	1.015669	-0.371564	-0.000013
H118	H	0.956230	-0.374481	-0.026045
H119	H	1.018573	-0.394408	0.065949
C120	C	1.147530	-0.416395	-0.021960
C121	C	1.074527	-0.419978	-0.053939
H122	H	1.183837	-0.446261	-0.055221
H123	H	1.158334	-0.365072	-0.021969
H124	H	1.149939	-0.435430	0.033008
H125	H	1.072116	-0.400934	-0.108902
H126	H	1.063724	-0.471299	-0.053940
O127	O	1.034328	-0.139778	-0.000027
C128	C	1.094370	-0.199619	-0.000012
H129	H	1.073253	-0.253206	-0.026043
H130	H	1.115439	-0.210838	0.065949
C131	C	1.185960	-0.111630	-0.021964
C132	C	1.160024	-0.177444	-0.053942
H133	H	1.226460	-0.097951	-0.055227
H134	H	1.145509	-0.071313	-0.021971
H135	H	1.203511	-0.120987	0.033003
H136	H	1.142464	-0.168083	-0.108904
H137	H	1.200474	-0.217760	-0.053946
H138	H	0.800373	0.195418	0.796306
O139	O	0.756073	-0.500791	-0.000032
C140	C	0.772105	-0.424611	-0.000013
H141	H	0.831550	-0.421685	-0.026043
H142	H	0.769186	-0.401782	0.065950
C143	C	0.640248	-0.379779	-0.021963
C144	C	0.713258	-0.376185	-0.053940
H145	H	0.603947	-0.349906	-0.055224
H146	H	0.629446	-0.431102	-0.021973
H147	H	0.637827	-0.360756	0.033005
H148	H	0.715681	-0.395217	-0.108903
H149	H	0.724059	-0.324864	-0.053940
O150	O	0.117513	0.097385	0.147817
C151	C	0.145483	0.032160	0.193410
H152	H	0.205699	0.011235	0.172097
H153	H	0.107143	-0.014434	0.183029
C154	C	0.072525	0.077822	0.312206
C155	C	0.146487	0.052125	0.286033
H156	H	0.073142	0.090135	0.369340
H157	H	0.053679	0.121764	0.281488
H158	H	0.040583	0.038989	0.303547
H159	H	0.178425	0.090961	0.294682
H160	H	0.165339	0.008190	0.316755
H161	H	0.664138	0.106246	0.135983
H162	H	1.014707	-0.684940	-0.000014
O163	O	0.273137	0.099874	0.147704
C164	C	0.327477	0.035070	0.152198
H165	H	0.342206	0.013420	0.087124
H166	H	0.303135	-0.011302	0.189185
C167	C	0.381730	0.082755	0.274973
C168	C	0.399826	0.056169	0.195047
H169	H	0.426357	0.095768	0.301408
H170	H	0.345119	0.126414	0.271948
H171	H	0.361444	0.044108	0.305785
H172	H	0.420102	0.094820	0.164234
H173	H	0.436442	0.012517	0.198068
H174	H	0.770787	-0.254436	0.000004
H175	H	0.773072	-0.111227	0.000011
H176	H	0.987419	0.008416	0.203711
H177	H	1.016990	-0.541730	0.000002
O178	O	0.792134	0.203418	0.367493
C179	C	0.717236	0.191218	0.346351
H180	H	0.716977	0.130620	0.322571
H181	H	0.694923	0.233196	0.296114
C182	C	0.666231	0.277469	0.452451
C183	C	0.665912	0.203039	0.423250
H184	H	0.634570	0.284764	0.499884
H185	H	0.716690	0.285691	0.466693
H186	H	0.647638	0.312442	0.410579
H187	H	0.684513	0.168068	0.465118
H188	H	0.615454	0.194811	0.409017
H189	H	0.800326	0.195393	0.203717
H190	H	0.266853	0.099878	-0.135983
