data_functionalizedCrystal
_audit_creation_method	'MofGen! by Chris Wilmer'
_symmetry_space_group_name_H-M	'P1'
_symmetry_Int_Tables_number	1
_symmetry_cell_setting	triclinic
loop_
_symmetry_equiv_pos_as_xyz
  x,y,z
_cell_length_a	10.685980
_cell_length_b	13.032721
_cell_length_c	10.685986
_cell_angle_alpha	92.237678
_cell_angle_beta	90.307287
_cell_angle_gamma	102.072709
loop_
_atom_site_label
_atom_site_type_symbol
_atom_site_fract_x
_atom_site_fract_y
_atom_site_fract_z
Zn1	Zn	1.823609	-0.243613	-0.890814
Zn2	Zn	1.808775	-0.430997	-0.707394
Zn3	Zn	1.625492	-0.270359	-0.668718
Zn4	Zn	1.582706	-0.432937	-0.901282
O5	O	1.710146	-0.344477	-0.792052
O6	O	1.999165	-0.256464	-0.878289
O7	O	1.796160	-0.420069	-0.528173
O8	O	1.675888	-0.120351	-0.677613
O9	O	1.988266	-0.394134	-0.743530
O10	O	1.821444	-0.100701	-0.840787
O11	O	1.661503	-0.302049	-0.499758
O12	O	1.442293	-0.303931	-0.687763
O13	O	1.602964	-0.397442	-1.073984
O14	O	1.410858	-0.423376	-0.858627
O15	O	1.779955	-0.258346	-1.066294
O16	O	1.754671	-0.577714	-0.753680
O17	O	1.588579	-0.579140	-0.896129
C18	C	1.380545	-0.366767	-0.770135
C19	C	1.239535	-0.376327	-0.760791
C20	C	1.665405	-0.616398	-0.830266
C21	C	1.646379	-0.732717	-0.846664
C22	C	1.720139	-0.783828	-0.783555
C23	C	1.700476	-0.904050	-0.800501
C24	C	2.041033	-0.322099	-0.814056
C25	C	2.182037	-0.312564	-0.823433
C26	C	1.688342	-0.325127	-1.116541
C27	C	1.679050	-0.316882	-1.254819
C28	C	1.755093	-0.071489	-0.753718
C29	C	1.774247	0.044842	-0.737383
C30	C	1.731950	-0.363670	-0.468820
C31	C	1.741536	-0.371604	-0.330518
H32	H	1.180878	-0.438235	-0.700004
H33	H	1.622769	-0.949291	-0.867086
H34	H	1.851964	-0.909916	-0.670807
H35	H	1.568677	-0.777963	-0.913245
O36	O	1.812751	-0.729704	-0.704137
C37	C	1.916876	-0.560522	-0.614935
C38	C	1.811925	-0.621686	-0.704895
H39	H	1.916261	-0.473176	-0.615537
H40	H	1.897949	-0.589405	-0.516094
H41	H	2.014187	-0.573707	-0.646646
H42	H	1.714571	-0.608529	-0.673299
H43	H	1.830964	-0.592792	-0.803717
H44	H	1.240689	-0.250654	-0.884207
H45	H	1.802150	-0.424757	-1.289534
O46	O	1.606753	-0.253555	-1.303904
C47	C	1.531361	-0.187252	-1.491109
C48	C	1.613263	-0.259025	-1.435678
H49	H	1.536618	-0.191633	-1.597654
H50	H	1.427701	-0.214053	-1.461499
H51	H	1.569207	-0.102868	-1.455192
H52	H	1.575529	-0.343428	-1.471567
H53	H	1.716911	-0.232135	-1.465280
