data_functionalizedCrystal
_audit_creation_method	'MofGen! by Chris Wilmer'
_symmetry_space_group_name_H-M	'P1'
_symmetry_Int_Tables_number	1
_symmetry_cell_setting	triclinic
loop_
_symmetry_equiv_pos_as_xyz
  x,y,z
_cell_length_a	15.944545
_cell_length_b	15.944493
_cell_length_c	14.421503
_cell_angle_alpha	90.002926
_cell_angle_beta	90.002446
_cell_angle_gamma	83.485608
loop_
_atom_site_label
_atom_site_type_symbol
_atom_site_fract_x
_atom_site_fract_y
_atom_site_fract_z
O1	O	1.114505	0.108315	0.077039
O2	O	1.614505	0.608315	0.577039
O3	O	0.869952	0.121677	0.077053
O4	O	1.369952	0.621677	0.577053
O5	O	0.998932	-0.007282	0.077053
O6	O	1.498932	0.492718	0.577053
O7	O	0.985525	0.237274	0.077039
O8	O	1.485525	0.737274	0.577039
O9	O	0.998920	-0.007296	-0.077170
O10	O	1.498920	0.492704	0.422830
O11	O	0.869940	0.121663	-0.077171
O12	O	1.369940	0.621663	0.422829
O13	O	1.114493	0.108301	-0.077184
O14	O	1.614493	0.608301	0.422816
Cu15	Cu	0.992216	0.114981	-0.091259
Cu16	Cu	1.492216	0.614981	0.408741
Cu17	Cu	0.992230	0.114997	0.091128
Cu18	Cu	1.492230	0.614997	0.591128
O19	O	0.985513	0.237260	-0.077185
O20	O	1.485513	0.737260	0.422815
C21	C	0.838652	0.121116	-0.000057
C22	C	1.338652	0.621116	0.499943
C23	C	0.745406	0.119456	-0.000051
C24	C	1.245406	0.619456	0.499949
C25	C	0.474791	0.034560	-0.000056
C26	C	0.974791	0.534560	0.499944
C27	C	0.525359	0.075483	-0.076101
C28	C	1.025359	0.575483	0.423899
C29	C	0.409764	0.113535	-0.000067
C30	C	0.909764	0.613535	0.499933
C31	C	0.525351	0.075518	0.075951
C32	C	1.025351	0.575518	0.575951
C33	C	0.574677	0.116440	-0.000057
C34	C	1.074677	0.616440	0.499943
C35	C	0.459103	0.154437	-0.076174
C36	C	0.959103	0.654437	0.423826
C37	C	0.459092	0.154460	0.075946
C38	C	0.959092	0.654460	0.575946
C39	C	0.509626	0.195442	-0.000117
C40	C	1.009626	0.695442	0.499883
C41	C	0.314762	0.111859	-0.000073
C42	C	0.814762	0.611859	0.499927
C43	C	0.669676	0.118122	-0.000058
C44	C	1.169676	0.618122	0.499942
C45	C	0.998378	-0.038584	-0.000054
C46	C	1.498378	0.461416	0.499946
C47	C	0.996735	-0.131833	-0.000042
C48	C	1.496735	0.368167	0.499958
C49	C	1.072656	-0.367594	-0.000064
C50	C	1.572656	0.132406	0.499936
C51	C	1.031721	-0.418155	0.075978
C52	C	1.531721	0.081845	0.575978
C53	C	0.993691	-0.302554	-0.000054
C54	C	1.493691	0.197446	0.499946
C55	C	1.031691	-0.418144	-0.076074
C56	C	1.531691	0.081856	0.423926
C57	C	0.990757	-0.467463	-0.000068
C58	C	1.490757	0.032537	0.499932
C59	C	0.952777	-0.351886	0.076051
C60	C	1.452777	0.148114	0.576051
C61	C	0.952759	-0.351872	-0.076069
C62	C	1.452759	0.148128	0.423931
C63	C	0.911766	-0.402400	-0.000009
C64	C	1.411766	0.097600	0.499991
C65	C	0.995384	-0.207554	-0.000044
C66	C	1.495384	0.292446	0.499956
C67	C	0.989058	-0.562460	-0.000071
C68	C	1.489058	-0.062460	0.499929
C69	C	1.145793	0.108862	-0.000072
C70	C	1.645793	0.608862	0.499928
C71	C	1.239039	0.110522	-0.000072
C72	C	1.739039	0.610522	0.499928
C73	C	0.986067	0.268562	-0.000075
C74	C	1.486067	0.768562	0.499925
C75	C	0.987710	0.361811	-0.000081
C76	C	1.487710	0.861811	0.499919
N77	N	0.992212	0.114969	-0.219540
N78	N	1.492212	0.614969	0.280460
C79	C	1.051405	0.054863	-0.530969
C80	C	1.551405	0.554863	-0.030969
C81	C	1.068377	0.130536	-0.469138
C82	C	1.568377	0.630536	0.030862
C83	C	0.992231	0.114993	-0.591429
C84	C	1.492231	0.614993	-0.091429
C85	C	0.975290	0.039311	-0.469166
C86	C	1.475290	0.539311	0.030834
C87	C	0.992224	0.114977	-0.408708
C88	C	1.492224	0.614977	0.091292
C89	C	1.009240	0.190703	-0.530960
C90	C	1.509240	0.690703	-0.030960
C91	C	0.916120	0.099429	-0.530993
C92	C	1.416120	0.599429	-0.030993
C93	C	0.933060	0.175156	-0.469190
C94	C	1.433060	0.675156	0.030810
C95	C	0.992237	0.115001	-0.696690
C96	C	1.492237	0.615001	-0.196690
C97	C	0.992217	0.114978	-0.303449
C98	C	1.492217	0.614978	0.196551
N99	N	0.992240	0.115002	0.219409
N100	N	1.492240	0.615002	0.719409
H101	H	0.430281	0.187760	-0.140533
H102	H	0.930281	0.687760	0.359467
C103	C	1.119051	-0.013740	-0.567624
C104	C	1.619051	0.486260	-0.067624
H105	H	1.173095	-0.002543	-0.546443
H106	H	1.673095	0.497457	-0.046443
H107	H	1.107551	-0.067394	-0.545559
H108	H	1.607551	0.432606	-0.045559
H109	H	1.118251	-0.013589	-0.633492
H110	H	1.618251	0.486411	-0.133492
H111	H	0.883012	0.226054	-0.442236
H112	H	1.383012	0.726054	0.057764
C113	C	0.955928	-0.047137	-0.432494
C114	C	1.455928	0.452863	0.067506
H115	H	0.905871	-0.040041	-0.396251
H116	H	1.405871	0.459959	0.103749
H117	H	0.948342	-0.083471	-0.483273
H118	H	1.448342	0.416529	0.016727
H119	H	1.001631	-0.071228	-0.395317
H120	H	1.501631	0.428772	0.104683
H121	H	0.525104	0.263508	-0.000166
H122	H	1.025104	0.763508	0.499834
C123	C	1.076775	-0.457260	0.162816
C124	C	1.576775	0.042740	0.662816
H125	H	1.133904	-0.445616	0.162722
H126	H	1.633904	0.054384	0.662722
H127	H	1.049292	-0.433691	0.216817
H128	H	1.549292	0.066309	0.716817
H129	H	1.074941	-0.516605	0.162467
H130	H	1.574941	-0.016605	0.662467
H131	H	0.430143	0.187790	0.140234
H132	H	0.930143	0.687790	0.640234
H133	H	1.132739	0.143699	-0.441969
H134	H	1.632739	0.643699	0.058031
H135	H	0.554280	0.042157	0.140237
H136	H	1.054280	0.542157	0.640237
H137	H	0.843695	-0.417864	0.000037
H138	H	1.343695	0.082136	0.500037
C139	C	1.028699	0.277176	-0.567462
C140	C	1.528699	0.777176	-0.067462
H141	H	1.036789	0.313266	-0.516602
H142	H	1.536789	0.813266	-0.016602
H143	H	1.078491	0.270025	-0.604127
H144	H	1.578491	0.770025	-0.104127
H145	H	0.982809	0.301591	-0.604169
H146	H	1.482809	0.801591	-0.104169
C147	C	0.453654	-0.057315	-0.000149
C148	C	0.953654	0.442685	0.499851
H149	H	0.476462	-0.085256	-0.054244
H150	H	0.976462	0.414744	0.445756
H151	H	0.477327	-0.085635	0.053323
H152	H	0.977327	0.414365	0.553323
H153	H	0.394123	-0.057731	0.000397
H154	H	0.894123	0.442269	0.500397
H155	H	1.140674	-0.351967	0.000009
H156	H	1.640674	0.148033	0.500009
H157	H	0.919453	-0.323060	0.140407
H158	H	1.419453	0.176940	0.640407
C159	C	0.829203	0.081614	-0.567735
C160	C	1.329203	0.581614	-0.067735
H161	H	0.817253	0.027794	-0.546616
H162	H	1.317253	0.527794	-0.046616
H163	H	0.787050	0.123771	-0.545663
H164	H	1.287050	0.623771	-0.045663
H165	H	0.829693	0.082262	-0.633602
H166	H	1.329693	0.582262	-0.133602
C167	C	0.907746	-0.312747	-0.162914
C168	C	1.407746	0.187253	0.337086
H169	H	0.935891	-0.335546	-0.216895
H170	H	1.435891	0.164454	0.283105
H171	H	0.850903	-0.325265	-0.163459
H172	H	1.350903	0.174735	0.336541
H173	H	0.908692	-0.253286	-0.161977
H174	H	1.408692	0.246714	0.338023
C175	C	1.076749	-0.457227	-0.162921
C176	C	1.576749	0.042773	0.337079
H177	H	1.133872	-0.445566	-0.162823
H178	H	1.633872	0.054434	0.337177
H179	H	1.074919	-0.516569	-0.162603
H180	H	1.574919	-0.016569	0.337397
H181	H	1.049261	-0.433642	-0.216918
H182	H	1.549261	0.066358	0.283082
H183	H	0.554291	0.042124	-0.140387
H184	H	1.054291	0.542124	0.359613
