data_functionalizedCrystal
_audit_creation_method	'MofGen! by Chris Wilmer'
_symmetry_space_group_name_H-M	'P1'
_symmetry_Int_Tables_number	1
_symmetry_cell_setting	triclinic
loop_
_symmetry_equiv_pos_as_xyz
  x,y,z
_cell_length_a	14.971486
_cell_length_b	17.038272
_cell_length_c	14.048226
_cell_angle_alpha	89.993466
_cell_angle_beta	89.998499
_cell_angle_gamma	87.362843
loop_
_atom_site_label
_atom_site_type_symbol
_atom_site_fract_x
_atom_site_fract_y
_atom_site_fract_z
O1	O	1.194576	0.101897	-0.079052
O2	O	0.935090	0.114100	-0.079077
O3	O	1.063291	-0.005819	-0.079057
O4	O	1.066375	0.221816	-0.079072
O5	O	1.063274	-0.005826	0.079264
O6	O	0.935073	0.114093	0.079244
O7	O	1.194559	0.101890	0.079270
Zn8	Zn	1.064813	0.107990	0.104394
Zn9	Zn	1.064836	0.108000	-0.104201
O10	O	1.066358	0.221809	0.079249
C11	C	0.901716	0.113551	0.000080
C12	C	0.802296	0.111915	0.000070
C13	C	0.750345	0.182364	0.000067
C14	C	0.656930	0.180823	0.000081
C15	C	0.615468	0.108832	0.000092
C16	C	0.667426	0.038378	0.000098
C17	C	0.760839	0.039920	0.000091
C18	C	0.472723	0.035169	0.000111
C19	C	0.379303	0.033626	0.000117
C20	C	0.368815	0.176072	0.000102
C21	C	0.462228	0.177614	0.000095
C22	C	0.514179	0.107159	0.000099
C23	C	1.060477	-0.034954	0.000103
C24	C	1.052107	-0.121756	0.000102
C25	C	1.128951	-0.171781	0.000111
C26	C	1.121081	-0.253341	0.000101
C27	C	1.036367	-0.284874	0.000089
C28	C	0.959518	-0.234843	0.000078
C29	C	0.967388	-0.153285	0.000081
C30	C	1.008563	-0.530664	0.000073
C31	C	1.000698	-0.612229	0.000073
C32	C	1.162262	-0.630721	0.000095
C33	C	1.170125	-0.549161	0.000103
C34	C	1.093276	-0.499137	0.000087
C35	C	1.028321	-0.368241	0.000082
C36	C	1.101323	-0.415771	0.000087
C37	C	1.227933	0.102440	0.000110
C38	C	1.327353	0.104075	0.000114
C39	C	1.069172	0.250944	0.000087
C40	C	1.077542	0.337746	0.000082
N41	N	1.064804	0.107984	0.246754
N42	N	1.064851	0.108000	-0.246562
C43	C	1.121592	0.054906	0.296581
C44	C	1.121599	0.054905	0.396239
C45	C	1.064820	0.107987	0.446068
C46	C	1.008026	0.161067	0.396234
C47	C	1.008016	0.161064	0.296578
C48	C	1.008052	0.161073	0.603948
C49	C	1.008063	0.161078	0.703611
C50	C	1.121635	0.054915	0.703609
C51	C	1.121625	0.054911	0.603953
C52	C	1.064831	0.107993	0.554126
H53	H	0.345548	-0.024995	0.000127
H54	H	0.803137	-0.017447	0.000093
O55	O	1.195819	-0.301823	0.000158
C56	C	1.272277	-0.256502	0.000154
H57	H	1.254197	-0.195656	0.030125
H58	H	1.297968	-0.250663	-0.075795
C59	C	1.367718	-0.371806	0.025445
C60	C	1.345514	-0.297077	0.062264
H61	H	1.412897	-0.396836	0.063754
H62	H	1.316208	-0.402341	0.025445
H63	H	1.389123	-0.366930	-0.037845
H64	H	1.324100	-0.301955	0.125548
H65	H	1.397023	-0.266544	0.062277
H66	H	1.197934	-0.146113	0.000126
O67	O	0.946081	-0.398969	-0.000047
C68	C	0.936698	-0.445567	-0.082058
H69	H	1.005660	-0.465801	-0.109394
H70	H	0.899864	-0.409568	-0.139474
C71	C	0.798351	-0.492910	-0.023582
C72	C	0.883051	-0.517768	-0.057152
H73	H	0.765256	-0.537446	-0.008222
H74	H	0.804670	-0.461514	0.031669
H75	H	0.767667	-0.462911	-0.071434
H76	H	0.913738	-0.547758	-0.009296
H77	H	0.876736	-0.549171	-0.112395
O78	O	0.952990	0.212608	0.752164
C79	C	0.965167	0.201216	0.850806
H80	H	1.034068	0.172101	0.864406
H81	H	0.911566	0.161919	0.879105
C82	C	0.873178	0.316942	0.885257
C83	C	0.957806	0.281189	0.901961
H84	H	0.868634	0.366273	0.916813
H85	H	0.864970	0.324616	0.818800
H86	H	0.828520	0.284187	0.908839
H87	H	1.002462	0.313940	0.878368
H88	H	0.966021	0.273522	0.968415
H89	H	0.326511	0.233438	0.000103
H90	H	1.239108	-0.523493	0.000113
O91	O	0.606599	0.249329	0.000035
C92	C	0.663226	0.313200	0.000042
H93	H	0.731349	0.293419	-0.029939
H94	H	0.671555	0.335262	0.075993
C95	C	0.538137	0.404184	-0.025226
C96	C	0.621804	0.379890	-0.062057
H97	H	0.512585	0.445324	-0.063527
H98	H	0.499985	0.361154	-0.025227
H99	H	0.545089	0.422564	0.038066
H100	H	0.614849	0.361502	-0.125342
H101	H	0.659954	0.422919	-0.062067
O102	O	1.176650	0.003218	0.248246
C103	C	1.156217	-0.074193	0.272666
H104	H	1.084567	-0.074656	0.300057
H105	H	1.204039	-0.097075	0.330531
C106	C	1.254084	-0.126650	0.150534
C107	C	1.166080	-0.127219	0.184168
H108	H	1.260172	-0.159360	0.095946
H109	H	1.267853	-0.074497	0.134084
H110	H	1.293926	-0.145717	0.198763
H111	H	1.126241	-0.108143	0.135944
H112	H	1.152304	-0.179370	0.200608
O113	O	0.523057	-0.033343	0.000068
C114	C	0.466433	-0.097216	0.000097
H115	H	0.398303	-0.077432	-0.029867
H116	H	0.458119	-0.119288	0.076052
C117	C	0.591520	-0.188193	-0.025197
C118	C	0.507844	-0.163896	-0.062007
H119	H	0.617065	-0.229326	-0.063501
H120	H	0.629669	-0.145161	-0.025213
H121	H	0.584580	-0.206581	0.038098
H122	H	0.514786	-0.145499	-0.125296
H123	H	0.469696	-0.206926	-0.062003
H124	H	1.167862	0.011692	0.563383
H125	H	0.961791	0.204285	0.436810
O126	O	1.176810	0.003458	0.444751
C127	C	1.235191	0.045423	0.502363
H128	H	1.204210	0.106555	0.517280
H129	H	1.301702	0.050834	0.463950
C130	C	1.289017	-0.073712	0.578714
C131	C	1.250962	0.001370	0.597042
H132	H	1.298750	-0.100886	0.637115
H133	H	1.249688	-0.101986	0.539897
H134	H	1.344439	-0.069192	0.546700
H135	H	1.195536	-0.003151	0.629044
H136	H	1.290283	0.029642	0.635867
O137	O	0.933981	-0.481996	0.000190
C138	C	0.933677	-0.434285	0.082196
H139	H	1.004989	-0.430098	0.109541
H140	H	0.890773	-0.461157	0.139609
C141	C	0.807384	-0.356667	0.023695
C142	C	0.894972	-0.351519	0.057276
H143	H	0.783506	-0.305614	0.008325
H144	H	0.807586	-0.388812	-0.031553
H145	H	0.771642	-0.379063	0.071544
H146	H	0.930715	-0.329132	0.009423
H147	H	0.894775	-0.319367	0.112515
H148	H	0.784097	0.240987	0.000058
O149	O	0.952979	0.212658	0.248068
C150	C	1.004545	0.260978	0.190422
H151	H	1.072172	0.229937	0.175489
H152	H	1.015018	0.318779	0.228814
C153	C	0.872311	0.315734	0.114103
C154	C	0.955369	0.277607	0.095756
H155	H	0.841976	0.325995	0.055711
H156	H	0.837569	0.283183	0.152943
H157	H	0.881050	0.363897	0.146099
H158	H	0.946628	0.229441	0.063772
H159	H	0.990108	0.310151	0.056909
H160	H	0.961801	0.204295	0.563382
H161	H	0.495983	0.236235	0.000077
O162	O	0.877176	-0.265378	0.000190
C163	C	0.829953	-0.239844	0.082191
H164	H	0.858635	-0.183261	0.109533
H165	H	0.836711	-0.287034	0.139608
C166	C	0.695268	-0.294138	0.023687
C167	C	0.730490	-0.224638	0.057264
H168	H	0.633914	-0.284761	0.008313
H169	H	0.727083	-0.311344	-0.031557
H170	H	0.700908	-0.333456	0.071541
H171	H	0.724860	-0.185325	0.009407
H172	H	0.698671	-0.207425	0.112500
O173	O	1.176717	0.003376	0.752153
C174	C	1.164565	0.014769	0.850797
H175	H	1.095670	0.043887	0.864412
H176	H	1.218177	0.054062	0.879066
C177	C	1.256555	-0.100963	0.885248
C178	C	1.171934	-0.065205	0.901972
H179	H	1.261104	-0.150293	0.916817
H180	H	1.264745	-0.108637	0.818791
H181	H	1.301223	-0.068210	0.908806
H182	H	1.127269	-0.097953	0.878404
H183	H	1.163737	-0.057538	0.968427
H184	H	0.633660	-0.020239	0.000120
H185	H	0.931710	-0.637900	0.000079
H186	H	1.224829	-0.671459	0.000106
H187	H	0.904813	-0.112555	0.000073
H188	H	1.170296	-0.390093	0.000076
