data_functionalizedCrystal
_audit_creation_method	'MofGen! by Chris Wilmer'
_symmetry_space_group_name_H-M	'P1'
_symmetry_Int_Tables_number	1
_symmetry_cell_setting	triclinic
loop_
_symmetry_equiv_pos_as_xyz
  x,y,z
_cell_length_a	10.654544
_cell_length_b	17.699083
_cell_length_c	16.176319
_cell_angle_alpha	89.992304
_cell_angle_beta	89.991545
_cell_angle_gamma	83.883933
loop_
_atom_site_label
_atom_site_type_symbol
_atom_site_fract_x
_atom_site_fract_y
_atom_site_fract_z
O1	O	1.665986	0.106304	-0.068769
O2	O	1.300330	0.116432	-0.068766
O3	O	1.493489	0.001244	-0.068761
O4	O	1.472828	0.221491	-0.068775
O5	O	1.493463	0.001237	0.068733
O6	O	1.300304	0.116424	0.068727
O7	O	1.665960	0.106296	0.068724
Cu8	Cu	1.483130	0.111360	0.081280
Cu9	Cu	1.483161	0.111369	-0.081322
O10	O	1.472801	0.221484	0.068718
C11	C	1.492736	-0.026961	-0.000014
C12	C	1.490515	-0.110993	-0.000013
C13	C	1.253532	0.115685	-0.000019
C14	C	1.114128	0.113460	-0.000018
C15	C	1.603895	-0.158893	-0.000013
C16	C	1.601800	-0.237850	-0.000020
C17	C	1.486324	-0.268905	-0.000022
C18	C	1.372936	-0.220999	-0.000025
C19	C	1.375031	-0.142044	-0.000024
C20	C	1.364482	-0.539415	-0.000032
C21	C	1.362395	-0.618377	-0.000031
C22	C	1.591250	-0.635222	-0.000029
C23	C	1.593346	-0.556267	-0.000027
C24	C	1.479958	-0.508367	-0.000034
C25	C	1.482230	-0.422754	-0.000028
C26	C	1.484051	-0.354517	-0.000023
C27	C	1.114074	0.113460	0.149881
C28	C	1.048555	0.112417	0.224828
C29	C	0.917573	0.110326	0.224825
C30	C	0.852107	0.109275	0.149866
C31	C	0.917626	0.110317	0.074919
C32	C	1.048610	0.112411	0.074931
C33	C	0.917681	0.110311	-0.074978
C34	C	1.048662	0.112409	-0.074977
C35	C	0.852215	0.109260	-0.149937
C36	C	0.917733	0.110309	-0.224886
C37	C	1.048722	0.112401	-0.224879
C38	C	1.114180	0.113451	-0.149924
C39	C	1.712758	0.107044	-0.000025
C40	C	1.852163	0.109269	-0.000031
C41	C	1.473555	0.249689	-0.000030
C42	C	1.475776	0.333722	-0.000036
N43	N	1.483117	0.111353	0.195645
N44	N	1.483184	0.111369	-0.195687
C45	C	1.568673	0.060369	0.238912
C46	C	1.568679	0.060368	0.325459
C47	C	1.483134	0.111356	0.368737
C48	C	1.397569	0.162342	0.325465
C49	C	1.397558	0.162338	0.238919
C50	C	1.397612	0.162356	0.674493
C51	C	1.397632	0.162358	0.761044
C52	C	1.568734	0.060386	0.761032
C53	C	1.568722	0.060383	0.674487
C54	C	1.483153	0.111366	0.631222
C55	C	1.483146	0.111365	0.537378
C56	C	1.483147	0.111361	0.462580
H57	H	1.697928	-0.133615	-0.000007
O58	O	1.254426	-0.492813	0.000077
C59	C	1.123917	-0.393930	0.071329
C60	C	1.248618	-0.446656	0.071300
H61	H	1.119168	-0.356610	0.128915
H62	H	1.119171	-0.356487	0.013826
H63	H	1.041044	-0.429703	0.071290
H64	H	1.331561	-0.410943	0.071367
H65	H	1.253253	-0.484103	0.128798
O66	O	1.112311	0.113342	0.297587
C67	C	1.274542	0.050234	0.384625
C68	C	1.202463	0.049105	0.302190
H69	H	1.347427	-0.001704	0.388382
H70	H	1.324299	0.104052	0.388377
H71	H	1.205184	0.049165	0.438177
H72	H	1.271737	0.050146	0.248592
H73	H	1.152686	-0.004709	0.298511
O74	O	1.651792	0.010748	0.802973
C75	C	1.725736	-0.120445	0.829500
C76	C	1.631626	-0.064317	0.781939
H77	H	1.709447	-0.181148	0.812525
H78	H	1.826309	-0.110083	0.812453
H79	H	1.711064	-0.111651	0.898786
H80	H	1.646183	-0.073079	0.712642
H81	H	1.531087	-0.074693	0.799054
O82	O	1.112447	0.113281	-0.297664
C83	C	1.274836	0.050215	-0.384627
C84	C	1.202755	0.049115	-0.302176
H85	H	1.347884	-0.001648	-0.388294
H86	H	1.205608	0.049056	-0.438228
H87	H	1.324438	0.104093	-0.388373
H88	H	1.153149	-0.004753	-0.298349
H89	H	1.272042	0.050315	-0.248614
O90	O	1.651924	0.010823	0.367360
C91	C	1.821621	-0.090333	0.358215
C92	C	1.727424	-0.034253	0.310660
H93	H	1.882669	-0.126802	0.312394
H94	H	1.884331	-0.057330	0.398690
H95	H	1.767526	-0.128419	0.398775
H96	H	1.781417	0.003847	0.270054
H97	H	1.664715	-0.067302	0.270237
H98	H	1.220724	0.115174	0.149892
O99	O	1.711852	-0.284460	0.000089
C100	C	1.842322	-0.383367	0.071336
C101	C	1.717626	-0.330636	0.071309
H102	H	1.847044	-0.420703	0.128920
H103	H	1.847089	-0.420794	0.013830
H104	H	1.925199	-0.347597	0.071301
H105	H	1.634679	-0.366347	0.071373
H106	H	1.712970	-0.293206	0.128810
H107	H	1.268355	-0.643658	-0.000030
O108	O	0.854054	0.109421	-0.297671
C109	C	0.691700	0.172479	-0.384653
C110	C	0.763744	0.173585	-0.302203
H111	H	0.618651	0.224341	-0.388336
H112	H	0.760951	0.173637	-0.438254
H113	H	0.642103	0.118600	-0.388381
H114	H	0.813345	0.227455	-0.298394
H115	H	0.694434	0.172386	-0.248640
H116	H	1.327887	0.203854	0.203692
O117	O	1.314453	0.211956	0.632600
C118	C	1.144693	0.313073	0.641753
C119	C	1.238826	0.256951	0.689304
H120	H	1.083506	0.349455	0.687577
H121	H	1.198713	0.351238	0.601239
H122	H	1.082110	0.280029	0.601231
H123	H	1.301432	0.289932	0.729870
H124	H	1.184727	0.218785	0.729765
O125	O	1.651554	0.010710	0.632424
C126	C	1.678247	-0.092727	0.534987
C127	C	1.584368	-0.036428	0.582509
H128	H	1.623964	-0.130863	0.494632
H129	H	1.741007	-0.059907	0.494326
H130	H	1.739285	-0.129125	0.580873
H131	H	1.523247	-0.000015	0.536683
H132	H	1.521696	-0.069294	0.623182
H133	H	0.864227	0.109482	0.285853
O134	O	1.314591	0.211844	0.367631
C135	C	1.238729	0.257017	0.500961
C136	C	1.332787	0.200925	0.453314
H137	H	1.253390	0.248197	0.570244
H138	H	1.254898	0.317745	0.483989
H139	H	1.138192	0.246597	0.483915
H140	H	1.433360	0.211275	0.470335
H141	H	1.316507	0.140215	0.470290
H142	H	1.687378	-0.530987	-0.000022
H143	H	1.278913	-0.246290	-0.000032
O144	O	1.701366	-0.681784	-0.000178
C145	C	1.831815	-0.780724	-0.071386
C146	C	1.707082	-0.728027	-0.071333
H147	H	1.836466	-0.818135	-0.128900
H148	H	1.914755	-0.745002	-0.071434
H149	H	1.836528	-0.818084	-0.013822
H150	H	1.702247	-0.690656	-0.128888
H151	H	1.624201	-0.763794	-0.071242
O152	O	1.264778	-0.095619	0.000013
C153	C	1.037555	-0.087238	-0.000046
C154	C	1.162326	-0.139899	-0.000061
H155	H	0.954690	-0.123017	-0.000124
H156	H	1.032709	-0.049870	0.057506
H157	H	1.032902	-0.049832	-0.057575
H158	H	1.167062	-0.177352	0.057428
H159	H	1.167119	-0.177215	-0.057652
H160	H	1.327967	0.203879	0.796281
H161	H	1.220832	0.115160	-0.149911
H162	H	0.745564	0.107552	-0.149935
H163	H	0.745457	0.107562	0.149870
H164	H	1.638339	0.018853	0.203680
