data_functionalizedCrystal
_audit_creation_method	'MofGen! by Chris Wilmer'
_symmetry_space_group_name_H-M	'P1'
_symmetry_Int_Tables_number	1
_symmetry_cell_setting	triclinic
loop_
_symmetry_equiv_pos_as_xyz
  x,y,z
_cell_length_a	25.639243
_cell_length_b	25.639240
_cell_length_c	25.639233
_cell_angle_alpha	90.025929
_cell_angle_beta	90.015962
_cell_angle_gamma	90.035481
loop_
_atom_site_label
_atom_site_type_symbol
_atom_site_fract_x
_atom_site_fract_y
_atom_site_fract_z
Zn1	Zn	0.799247	-0.208176	0.295630
Zn2	Zn	1.132580	0.125157	0.628963
Zn3	Zn	1.465913	0.458490	0.962296
Zn4	Zn	0.799179	-0.295595	0.208183
Zn5	Zn	1.132512	0.037738	0.541516
Zn6	Zn	1.465846	0.371071	0.874850
Zn7	Zn	0.711823	-0.208180	0.208203
Zn8	Zn	1.045156	0.125154	0.541537
Zn9	Zn	1.378490	0.458487	0.874870
Zn10	Zn	0.711777	-0.295587	0.295582
Zn11	Zn	1.045110	0.037747	0.628916
Zn12	Zn	1.378444	0.371080	0.962249
O13	O	0.755506	-0.251885	0.251900
O14	O	1.088840	0.081449	0.585233
O15	O	1.422173	0.414782	0.918566
O16	O	0.872403	-0.219775	0.284041
O17	O	1.205736	0.113559	0.617374
O18	O	1.539070	0.446892	0.950708
O19	O	0.787582	-0.284004	0.135020
O20	O	1.120915	0.049329	0.468354
O21	O	1.454249	0.382662	0.801687
O22	O	0.723467	-0.135014	0.219829
O23	O	1.056801	0.198319	0.553162
O24	O	1.390134	0.531653	0.886495
O25	O	0.872353	-0.284001	0.219794
O26	O	1.205687	0.049332	0.553128
O27	O	1.539020	0.382666	0.886461
O28	O	0.787697	-0.135012	0.284061
O29	O	1.121030	0.198322	0.617394
O30	O	1.454364	0.531655	0.950727
O31	O	0.723402	-0.219781	0.135035
O32	O	1.056735	0.113553	0.468369
O33	O	1.390069	0.446886	0.801702
O34	O	0.638652	-0.219772	0.219783
O35	O	0.971985	0.113561	0.553116
O36	O	1.305318	0.446894	0.886450
O37	O	0.723389	-0.283987	0.368754
O38	O	1.056722	0.049347	0.702087
O39	O	1.390056	0.382680	1.035421
O40	O	0.638618	-0.283990	0.283980
O41	O	0.971951	0.049343	0.617313
O42	O	1.305285	0.382677	0.950647
O43	O	0.787653	-0.219767	0.368789
O44	O	1.120986	0.113567	0.702122
O45	O	1.454319	0.446900	1.035455
O46	O	0.787538	-0.368759	0.219749
O47	O	1.120871	-0.035426	0.553082
O48	O	1.454204	0.297907	0.886415
O49	O	0.723324	-0.368753	0.283960
O50	O	1.056657	-0.035420	0.617294
O51	O	1.389990	0.297914	0.950627
C52	C	0.619664	-0.251881	0.251879
C53	C	0.952997	0.081452	0.585212
C54	C	1.286331	0.414786	0.918545
C55	C	0.561550	-0.251892	0.251882
C56	C	0.894883	0.081441	0.585216
C57	C	1.228217	0.414775	0.918549
C58	C	0.201207	-0.218495	0.285409
C59	C	0.534540	0.114839	0.618742
C60	C	0.867874	0.448172	0.952075
C61	C	0.146603	-0.218494	0.285412
C62	C	0.479936	0.114839	0.618745
C63	C	0.813269	0.448173	0.952078
O64	O	0.118383	-0.190088	0.313891
O65	O	0.451716	0.143245	0.647224
O66	O	0.785050	0.476578	0.980558
N67	N	0.119267	-0.251883	0.251914
N68	N	0.452601	0.081450	0.585247
N69	N	0.785934	0.414784	0.918581
C70	C	0.146539	-0.285271	0.218407
C71	C	0.479872	0.048062	0.551740
C72	C	0.813206	0.381396	0.885074
O73	O	0.118274	-0.313670	0.189914
O74	O	0.451608	0.019663	0.523248
O75	O	0.784941	0.352996	0.856581
C76	C	0.201142	-0.285268	0.218401
C77	C	0.534476	0.048065	0.551735
C78	C	0.867809	0.381398	0.885068
C79	C	0.228475	-0.251881	0.251905
C80	C	0.561808	0.081452	0.585239
C81	C	0.895142	0.414786	0.918572
C82	C	0.228540	-0.185109	0.318909
C83	C	0.561873	0.148224	0.652243
C84	C	0.895206	0.481557	0.985576
C85	C	0.283140	-0.185111	0.318907
C86	C	0.616473	0.148223	0.652240
C87	C	0.949807	0.481556	0.985573
C88	C	0.310408	-0.218497	0.285403
C89	C	0.643741	0.114836	0.618736
C90	C	0.977075	0.448170	0.952070
C91	C	0.283076	-0.251882	0.251903
C92	C	0.616409	0.081451	0.585236
C93	C	0.949742	0.414785	0.918569
C94	C	0.228413	-0.318653	0.184892
C95	C	0.561747	0.014680	0.518225
C96	C	0.895080	0.348014	0.851559
C97	C	0.283020	-0.318647	0.184889
C98	C	0.616354	0.014686	0.518223
C99	C	0.949687	0.348019	0.851556
C100	C	0.310353	-0.285260	0.218393
C101	C	0.643686	0.048073	0.551726
C102	C	0.977020	0.381407	0.885060
C103	C	0.364944	-0.285270	0.218396
C104	C	0.698277	0.048064	0.551730
C105	C	1.031611	0.381397	0.885063
N106	N	0.392279	-0.251881	0.251894
N107	N	0.725613	0.081453	0.585228
N108	N	1.058946	0.414786	0.918561
C109	C	0.365011	-0.218494	0.285398
C110	C	0.698345	0.114839	0.618731
C111	C	1.031678	0.448172	0.952064
C112	C	0.031869	-0.285273	0.218420
C113	C	0.365202	0.048060	0.551754
C114	C	0.698535	0.381394	0.885087
C115	C	-0.022734	-0.285279	0.218428
C116	C	0.310600	0.048055	0.551761
C117	C	0.643933	0.381388	0.885095
C118	C	-0.022667	-0.218501	0.285432
C119	C	0.310667	0.114832	0.618766
C120	C	0.644000	0.448166	0.952099
C121	C	0.031937	-0.218498	0.285427
C122	C	0.365270	0.114835	0.618760
C123	C	0.698603	0.448168	0.952094
C124	C	0.059204	-0.251884	0.251918
C125	C	0.392537	0.081449	0.585252
C126	C	0.725871	0.414783	0.918585
C127	C	0.479676	-0.218500	0.285390
C128	C	0.813010	0.114833	0.618723
C129	C	1.146343	0.448167	0.952057
C130	C	0.534282	-0.218506	0.285386
C131	C	0.867615	0.114828	0.618719
C132	C	1.200949	0.448161	0.952052
C133	C	0.534210	-0.285281	0.218380
C134	C	0.867543	0.048052	0.551713
C135	C	1.200876	0.381386	0.885046
C136	C	0.479609	-0.285278	0.218385
C137	C	0.812943	0.048056	0.551719
C138	C	1.146276	0.381389	0.885052
C139	C	0.452344	-0.251883	0.251892
C140	C	0.785677	0.081451	0.585226
C141	C	1.119011	0.414784	0.918559
O142	O	0.393198	-0.313659	0.189930
O143	O	0.726532	0.019674	0.523263
O144	O	1.059865	0.353007	0.856597
O145	O	0.393283	-0.190095	0.313881
O146	O	0.726616	0.143238	0.647214
O147	O	1.059950	0.476572	0.980547
C148	C	0.755433	-0.387727	0.251859
C149	C	1.088766	-0.054394	0.585192
C150	C	1.422099	0.278940	0.918525
C151	C	0.755449	-0.445841	0.251859
C152	C	1.088782	-0.112508	0.585192
C153	C	1.422115	0.220826	0.918525
C154	C	0.788967	-0.806164	0.285405
C155	C	1.122301	-0.472831	0.618739
C156	C	1.455634	-0.139498	0.952072
C157	C	0.788983	-0.860769	0.285416
C158	C	1.122316	-0.527435	0.618749
C159	C	1.455650	-0.194102	0.952083
O160	O	0.817394	-0.888972	0.313897
O161	O	1.150727	-0.555638	0.647230
O162	O	1.484061	-0.222305	0.980563
N163	N	0.755579	-0.888124	0.251950
N164	N	1.088912	-0.554790	0.585283
N165	N	1.422246	-0.221457	0.918617
C166	C	0.722154	-0.860871	0.218475
C167	C	1.055487	-0.527538	0.551808
C168	C	1.388820	-0.194205	0.885142
O169	O	0.693742	-0.889153	0.190011
O170	O	1.027075	-0.555819	0.523344
O171	O	1.360409	-0.222486	0.856678
C172	C	0.722136	-0.806268	0.218467
C173	C	1.055469	-0.472935	0.551801
C174	C	1.388803	-0.139601	0.885134
C175	C	0.755546	-0.778916	0.251932
C176	C	1.088879	-0.445583	0.585265
C177	C	1.422213	-0.112249	0.918599
C178	C	0.822374	-0.778812	0.318867
C179	C	1.155708	-0.445479	0.652201
C180	C	1.489041	-0.112146	0.985534
C181	C	0.822359	-0.724212	0.318856
C182	C	1.155693	-0.390879	0.652189
C183	C	1.489026	-0.057545	0.985523
C184	C	0.788938	-0.696963	0.285383
C185	C	1.122271	-0.363630	0.618716
C186	C	1.455604	-0.030297	0.952049
C187	C	0.755531	-0.724315	0.251920
C188	C	1.088864	-0.390982	0.585254
C189	C	1.422198	-0.057649	0.918587
C190	C	0.688708	-0.779017	0.184996
C191	C	1.022042	-0.445683	0.518329
C192	C	1.355375	-0.112350	0.851662
C193	C	0.688693	-0.724410	0.184991
C194	C	1.022027	-0.391076	0.518324
C195	C	1.355360	-0.057743	0.851658
C196	C	0.722103	-0.697058	0.218455
C197	C	1.055437	-0.363724	0.551789
C198	C	1.388770	-0.030391	0.885122
C199	C	0.722095	-0.642466	0.218435
C200	C	1.055428	-0.309133	0.551769
C201	C	1.388761	0.024200	0.885102
N202	N	0.755499	-0.615112	0.251901
N203	N	1.088832	-0.281778	0.585235
N204	N	1.422165	0.051555	0.918568
C205	C	0.788920	-0.642360	0.285375
C206	C	1.122253	-0.309027	0.618708
C207	C	1.455587	0.024307	0.952042
C208	C	0.722193	-0.975542	0.218494
C209	C	1.055526	-0.642209	0.551828
C210	C	1.388859	-0.308875	0.885161
C211	C	0.722213	-1.030144	0.218499
C212	C	1.055546	-0.696811	0.551832
C213	C	1.388879	-0.363478	0.885165
C214	C	0.789041	-1.030038	0.285441
C215	C	1.122375	-0.696705	0.618774
C216	C	1.455708	-0.363371	0.952107
C217	C	0.789024	-0.975435	0.285433
C218	C	1.122357	-0.642101	0.618766
C219	C	1.455690	-0.308768	0.952100
C220	C	0.755597	-0.948187	0.251960
C221	C	1.088930	-0.614854	0.585294
C222	C	1.422263	-0.281520	0.918627
C223	C	0.788887	-0.527695	0.285348
C224	C	1.122220	-0.194362	0.618681
C225	C	1.455553	0.138972	0.952015
C226	C	0.788870	-0.473090	0.285332
C227	C	1.122204	-0.139756	0.618665
C228	C	1.455537	0.193577	0.951999
C229	C	0.722040	-0.473201	0.218392
C230	C	1.055373	-0.139867	0.551726
C231	C	1.388707	0.193466	0.885059
C232	C	0.722058	-0.527801	0.218406
C233	C	1.055391	-0.194468	0.551740
C234	C	1.388725	0.138865	0.885073
C235	C	0.755483	-0.555047	0.251888
C236	C	1.088816	-0.221714	0.585222
C237	C	1.422150	0.111620	0.918555
O238	O	0.693697	-0.614229	0.189971
O239	O	1.027030	-0.280895	0.523304
O240	O	1.360363	0.052438	0.856638
O241	O	0.817322	-0.614072	0.313839
O242	O	1.150655	-0.280739	0.647172
O243	O	1.483989	0.052595	0.980506
C244	C	0.891879	-0.251888	0.251921
C245	C	1.225213	0.081445	0.585254
C246	C	1.558546	0.414778	0.918587
C247	C	0.949993	-0.251890	0.251930
C248	C	1.283327	0.081443	0.585263
C249	C	1.616660	0.414777	0.918596
C250	C	0.755523	-0.251875	0.388273
C251	C	1.088857	0.081458	0.721606
C252	C	1.422190	0.414791	1.054939
C253	C	0.755530	-0.251871	0.446387
C254	C	1.088864	0.081462	0.779720
C255	C	1.422197	0.414795	1.113053
C256	C	0.755595	-0.115511	0.251952
C257	C	1.088928	0.217822	0.585285
C258	C	1.422262	0.551155	0.918619
C259	C	0.755633	-0.057397	0.251975
C260	C	1.088966	0.275936	0.585308
C261	C	1.422299	0.609269	0.918641
C262	C	0.755520	-0.251856	0.116057
C263	C	1.088853	0.081477	0.449390
C264	C	1.422186	0.414811	0.782724
C265	C	0.755614	-0.251713	0.057943
C266	C	1.088947	0.081621	0.391277
C267	C	1.422281	0.414954	0.724610
C268	C	0.789035	-0.218333	0.806774
C269	C	1.122368	0.115001	1.140107
C270	C	1.455702	0.448334	1.473440
C271	C	0.789041	-0.218318	0.861378
C272	C	1.122375	0.115015	1.194711
C273	C	1.455708	0.448348	1.528045
O274	O	0.817486	-0.189864	0.889635
O275	O	1.150819	0.143469	1.222968
O276	O	1.484152	0.476803	1.556302
N277	N	0.755588	-0.251749	0.888669
N278	N	1.088921	0.081584	1.222003
N279	N	1.422255	0.414918	1.555336
C280	C	0.722122	-0.285192	0.861354
C281	C	1.055456	0.048141	1.194687
C282	C	1.388789	0.381474	1.528020
O283	O	0.693668	-0.313626	0.889581
O284	O	1.027001	0.019707	1.222914
O285	O	1.360335	0.353041	1.556248
C286	C	0.722114	-0.285204	0.806750
C287	C	1.055447	0.048130	1.140084
C288	C	1.388780	0.381463	1.473417
C289	C	0.755573	-0.251775	0.779462
C290	C	1.088906	0.081559	1.112795
C291	C	1.422240	0.414892	1.446128
C292	C	0.822491	-0.184906	0.779485
C293	C	1.155824	0.148427	1.112818
C294	C	1.489158	0.481761	1.446152
C295	C	0.822485	-0.184921	0.724884
C296	C	1.155818	0.148412	1.058218
C297	C	1.489152	0.481745	1.391551
C298	C	0.789023	-0.218363	0.697572
C299	C	1.122356	0.114970	1.030906
C300	C	1.455690	0.448303	1.364239
C301	C	0.755567	-0.251790	0.724861
C302	C	1.088900	0.081543	1.058194
C303	C	1.422234	0.414877	1.391528
C304	C	0.688646	-0.318644	0.779436
C305	C	1.021979	0.014689	1.112769
C306	C	1.355313	0.348022	1.446102
C307	C	0.688640	-0.318653	0.724828
C308	C	1.021973	0.014681	1.058162
C309	C	1.355306	0.348014	1.391495
C310	C	0.722099	-0.285223	0.697540
C311	C	1.055432	0.048110	1.030873
C312	C	1.388766	0.381443	1.364207
C313	C	0.722099	-0.285247	0.642949
C314	C	1.055433	0.048086	0.976282
C315	C	1.388766	0.381419	1.309615
N316	N	0.755552	-0.251817	0.615657
N317	N	1.088886	0.081517	0.948991
N318	N	1.422219	0.414850	1.282324
C319	C	0.789014	-0.218375	0.642969
C320	C	1.122348	0.114959	0.976302
C321	C	1.455681	0.448292	1.309636
C322	C	0.722143	-0.285165	0.976024
C323	C	1.055476	0.048168	1.309358
C324	C	1.388809	0.381502	1.642691
C325	C	0.722154	-0.285157	1.030627
C326	C	1.055487	0.048177	1.363960
C327	C	1.388820	0.381510	1.697293
C328	C	0.789072	-0.218282	1.030647
C329	C	1.122405	0.115051	1.363981
C330	C	1.455739	0.448385	1.697314
C331	C	0.789063	-0.218293	0.976044
C332	C	1.122397	0.115040	1.309377
C333	C	1.455730	0.448373	1.642711
C334	C	0.755596	-0.251735	0.948733
C335	C	1.088929	0.081599	1.282066
C336	C	1.422263	0.414932	1.615400
C337	C	0.789000	-0.218410	0.528304
C338	C	1.122333	0.114924	0.861637
C339	C	1.455666	0.448257	1.194971
C340	C	0.788992	-0.218429	0.473699
C341	C	1.122326	0.114904	0.807032
C342	C	1.455659	0.448237	1.140365
C343	C	0.722072	-0.285302	0.473683
C344	C	1.055406	0.048031	0.807016
C345	C	1.388739	0.381364	1.140349
C346	C	0.722081	-0.285285	0.528283
C347	C	1.055415	0.048049	0.861617
C348	C	1.388748	0.381382	1.194950
C349	C	0.755547	-0.251834	0.555593
C350	C	1.088880	0.081499	0.888926
C351	C	1.422214	0.414833	1.222259
O352	O	0.693668	-0.313686	0.614657
O353	O	1.027001	0.019648	0.947990
O354	O	1.360334	0.352981	1.281324
O355	O	0.817459	-0.189941	0.614735
O356	O	1.150792	0.143392	0.948068
O357	O	1.484126	0.476726	1.281402
H358	H	0.206344	-0.157919	0.346192
H359	H	0.539677	0.175414	0.679525
H360	H	0.873010	0.508747	1.012858
H361	H	0.694889	-0.312400	0.953791
H362	H	1.028222	0.020933	1.287124
H363	H	1.361556	0.354267	1.620458
H364	H	0.305218	-0.345834	0.157601
H365	H	0.638552	-0.012500	0.490934
H366	H	0.971885	0.320833	0.824268
H367	H	0.816254	-1.052233	0.312698
H368	H	1.149587	-0.718900	0.646031
H369	H	1.482921	-0.385567	0.979364
H370	H	0.695013	-1.052410	0.191243
H371	H	1.028346	-0.719076	0.524576
H372	H	1.361679	-0.385743	0.857910
Cl373	Cl	0.864358	-0.689835	0.360932
Cl374	Cl	1.197692	-0.356501	0.694266
Cl375	Cl	1.531025	-0.023168	1.027599
Cl376	Cl	0.066292	-0.176523	0.327546
Cl377	Cl	0.399625	0.156810	0.660879
Cl378	Cl	0.732959	0.490144	0.994213
H379	H	0.556534	-0.191317	0.312670
H380	H	0.889867	0.142016	0.646004
H381	H	1.223200	0.475350	0.979337
H382	H	0.054066	-0.312464	0.191135
H383	H	0.387399	0.020869	0.524468
H384	H	0.720733	0.354202	0.857802
Cl385	Cl	0.317493	-0.143133	0.361026
Cl386	Cl	0.650826	0.190200	0.694359
Cl387	Cl	0.984159	0.523533	1.027692
H388	H	0.457483	-0.191305	0.312673
H389	H	0.790817	0.142028	0.646006
H390	H	1.124150	0.475362	0.979339
Cl391	Cl	-0.056957	-0.176527	0.327549
Cl392	Cl	0.276377	0.156806	0.660882
Cl393	Cl	0.609710	0.490140	0.994216
H394	H	0.694830	-0.451006	0.191137
H395	H	1.028163	-0.117673	0.524470
H396	H	1.361497	0.215660	0.857804
H397	H	0.816241	-0.191207	0.451483
H398	H	1.149574	0.142126	0.784816
H399	H	1.482907	0.475460	1.118149
Cl400	Cl	0.831069	-0.176355	0.562627
Cl401	Cl	1.164402	0.156979	0.895960
Cl402	Cl	1.497736	0.490312	1.229294
Cl403	Cl	0.680097	-0.327192	1.064926
Cl404	Cl	1.013430	0.006142	1.398259
Cl405	Cl	1.346764	0.339475	1.731592
H406	H	0.816308	-0.191071	0.953829
H407	H	1.149641	0.142262	1.287162
H408	H	1.482974	0.475595	1.620496
Cl409	Cl	0.568500	-0.327250	0.176264
Cl410	Cl	0.901833	0.006083	0.509597
Cl411	Cl	1.235166	0.339416	0.842930
Cl412	Cl	0.830875	-0.438708	0.327404
Cl413	Cl	1.164209	-0.105374	0.660737
Cl414	Cl	1.497542	0.227959	0.994071
Cl415	Cl	0.646582	-0.360674	0.813728
Cl416	Cl	0.979915	-0.027341	1.147061
Cl417	Cl	1.313248	0.305993	1.480394
H418	H	0.694830	-0.312531	0.451436
H419	H	1.028163	0.020802	0.784769
H420	H	1.361497	0.354135	1.118102
Cl421	Cl	0.831138	-0.176239	1.064992
Cl422	Cl	1.164471	0.157095	1.398326
Cl423	Cl	1.497804	0.490428	1.731659
Cl424	Cl	0.646563	-0.360695	0.690498
Cl425	Cl	0.979896	-0.027362	1.023831
Cl426	Cl	1.313230	0.305971	1.357165
H427	H	-0.044983	-0.312472	0.191152
H428	H	0.288350	0.020861	0.524485
H429	H	0.621683	0.354195	0.857818
Cl430	Cl	0.680021	-0.327313	0.562590
Cl431	Cl	1.013354	0.006021	0.895923
Cl432	Cl	1.346688	0.339354	1.229257
H433	H	0.849730	-0.157699	0.702671
H434	H	1.183063	0.175634	1.036004
H435	H	1.516397	0.508968	1.369338
Cl436	Cl	0.830909	-0.561938	0.327439
Cl437	Cl	1.164242	-0.228605	0.660772
Cl438	Cl	1.497576	0.104728	0.994105
Cl439	Cl	0.864394	-0.813058	0.360956
Cl440	Cl	1.197728	-0.479724	0.694289
Cl441	Cl	1.531061	-0.146391	1.027623
H442	H	0.661503	-0.801277	0.157745
H443	H	0.994836	-0.467944	0.491078
H444	H	1.328169	-0.134611	0.824412
Cl445	Cl	0.646668	-0.690159	0.142908
Cl446	Cl	0.980002	-0.356826	0.476241
Cl447	Cl	1.313335	-0.023492	0.809575
H448	H	0.816228	-0.953168	0.312683
H449	H	1.149562	-0.619834	0.646016
H450	H	1.482895	-0.286501	0.979349
H451	H	0.206169	-0.345840	0.157609
H452	H	0.539502	-0.012507	0.490942
H453	H	0.872835	0.320827	0.824276
H454	H	0.457354	-0.312470	0.191110
H455	H	0.790687	0.020863	0.524443
H456	H	1.124021	0.354196	0.857777
Cl457	Cl	0.680170	-0.941293	0.176406
Cl458	Cl	1.013503	-0.607960	0.509739
Cl459	Cl	1.346836	-0.274627	0.843073
H460	H	0.694857	-0.550072	0.191153
H461	H	1.028190	-0.216739	0.524486
H462	H	1.361524	0.116594	0.857819
H463	H	0.849740	-0.157671	0.801717
H464	H	1.183073	0.175663	1.135050
H465	H	1.516406	0.508996	1.468383
