data_functionalizedCrystal
_audit_creation_method	'MofGen! by Chris Wilmer'
_symmetry_space_group_name_H-M	'P1'
_symmetry_Int_Tables_number	1
_symmetry_cell_setting	triclinic
loop_
_symmetry_equiv_pos_as_xyz
  x,y,z
_cell_length_a	17.699077
_cell_length_b	10.908878
_cell_length_c	16.176319
_cell_angle_alpha	89.992977
_cell_angle_beta	89.993140
_cell_angle_gamma	71.682684
loop_
_atom_site_label
_atom_site_type_symbol
_atom_site_fract_x
_atom_site_fract_y
_atom_site_fract_z
O1	O	0.983815	0.162418	-0.068734
O2	O	1.483815	0.662418	0.431266
O3	O	0.760797	0.183562	-0.068738
O4	O	1.260797	0.683562	0.431262
O5	O	0.901870	-0.014035	-0.068732
O6	O	1.401870	0.485965	0.431268
O7	O	0.842742	0.360015	-0.068739
O8	O	1.342742	0.860015	0.431261
O9	O	0.901855	-0.014048	0.068761
O10	O	1.401855	0.485952	0.568761
O11	O	0.760783	0.183549	0.068755
O12	O	1.260783	0.683549	0.568755
O13	O	0.983800	0.162406	0.068759
O14	O	1.483800	0.662406	0.568759
Cu15	Cu	0.872290	0.172976	0.081312
Cu16	Cu	1.372290	0.672976	0.581312
Cu17	Cu	0.872307	0.172991	-0.081290
Cu18	Cu	1.372307	0.672991	0.418710
O19	O	0.842728	0.360003	0.068754
O20	O	1.342728	0.860003	0.568754
C21	C	0.732687	0.182799	0.000008
C22	C	1.232687	0.682799	0.500008
C23	C	0.648952	0.180530	0.000007
C24	C	1.148952	0.680530	0.500007
C25	C	0.609610	0.179454	0.074955
C26	C	1.109610	0.679454	0.574955
C27	C	0.530936	0.177302	0.074956
C28	C	1.030936	0.677302	0.574956
C29	C	0.491604	0.176235	0.000008
C30	C	0.991604	0.676235	0.500008
C31	C	0.530952	0.177307	-0.074946
C32	C	1.030952	0.677307	0.425054
C33	C	0.609626	0.179450	-0.074946
C34	C	1.109626	0.679450	0.425054
C35	C	0.213667	0.168662	-0.074948
C36	C	0.713667	0.668662	0.425052
C37	C	0.134987	0.166522	-0.074942
C38	C	0.634987	0.666522	0.425058
C39	C	0.134978	0.166514	0.074955
C40	C	0.634978	0.666514	0.574955
C41	C	0.213652	0.168657	0.074955
C42	C	0.713652	0.668657	0.574955
C43	C	0.252995	0.169722	0.000001
C44	C	0.752995	0.669722	0.500001
C45	C	0.338302	0.172054	0.000001
C46	C	0.838302	0.672054	0.500001
C47	C	0.406296	0.173912	0.000007
C48	C	0.906296	0.673912	0.500007
C49	C	0.907388	-0.061901	0.000014
C50	C	1.407388	0.438099	0.500014
C51	C	0.923844	-0.204505	0.000011
C52	C	1.423844	0.295495	0.500011
C53	C	0.863800	-0.253324	0.000008
C54	C	1.363800	0.246676	0.500008
C55	C	0.880806	-0.400713	0.000006
C56	C	1.380806	0.099287	0.500006
C57	C	1.011910	0.163168	0.000011
C58	C	1.511910	0.663168	0.500011
C59	C	1.095645	0.165437	0.000007
C60	C	1.595645	0.665437	0.500007
C61	C	0.837209	0.407868	0.000006
C62	C	1.337209	0.907868	0.500006
C63	C	0.820753	0.550473	0.000003
C64	C	1.320753	1.050473	0.500003
N65	N	0.872284	0.172965	0.195677
N66	N	1.372284	0.672965	0.695677
N67	N	0.872321	0.172992	-0.195655
N68	N	1.372321	0.672992	0.304345
C69	C	0.934762	0.085505	0.238943
C70	C	1.434762	0.585505	0.738943
C71	C	0.934766	0.085503	0.325491
C72	C	1.434766	0.585503	0.825491
C73	C	0.872294	0.172970	0.368769
C74	C	1.372294	0.672970	0.868769
C75	C	0.809810	0.260434	0.325497
C76	C	1.309810	0.760434	0.825497
C77	C	0.809804	0.260428	0.238951
C78	C	1.309804	0.760428	0.738951
C79	C	0.809833	0.260458	0.674525
C80	C	1.309833	0.760458	1.174525
C81	C	0.809845	0.260460	0.761077
C82	C	1.309845	0.760460	1.261077
C83	C	0.934795	0.085533	0.761064
C84	C	1.434795	0.585533	1.261064
C85	C	0.934789	0.085527	0.674519
C86	C	1.434789	0.585527	1.174519
C87	C	0.872303	0.172987	0.631254
C88	C	1.372303	0.672987	1.131254
C89	C	0.872299	0.172986	0.537409
C90	C	1.372299	0.672986	1.037409
C91	C	0.872301	0.172978	0.462612
C92	C	1.372301	0.672978	0.962612
H93	H	0.245692	0.169525	-0.135980
H94	H	0.745692	0.669525	0.364020
Cl95	Cl	1.013306	-0.024454	0.184545
Cl96	Cl	1.513306	0.475546	0.684545
Cl97	Cl	0.481515	0.175918	-0.169168
Cl98	Cl	0.981515	0.675918	0.330832
Cl99	Cl	0.659086	0.180797	-0.169171
Cl100	Cl	1.159086	0.680797	0.330829
Cl101	Cl	0.731285	0.370409	0.620140
Cl102	Cl	1.231285	0.870409	1.120140
H103	H	0.985672	0.014315	0.796300
H104	H	1.485672	0.514315	1.296300
H105	H	0.498912	0.176404	0.135987
H106	H	0.998912	0.676404	0.635987
H107	H	0.799803	-0.186004	0.000012
H108	H	1.299803	0.313996	0.500012
H109	H	0.944807	-0.468030	0.000010
H110	H	1.444807	0.031970	0.500010
H111	H	0.758970	0.331688	0.796313
H112	H	1.258970	0.831688	1.296313
Cl113	Cl	0.721939	-0.345607	0.000012
Cl114	Cl	1.221939	0.154393	0.500012
Cl115	Cl	0.731270	0.370388	0.379903
Cl116	Cl	1.231270	0.870388	0.879903
H117	H	0.758928	0.331646	0.203724
H118	H	1.258928	0.831646	0.703724
H119	H	0.641627	0.180334	0.135987
H120	H	1.141627	0.680334	0.635987
Cl121	Cl	1.022654	-0.308433	0.000018
Cl122	Cl	1.522654	0.191567	0.500018
H123	H	0.245671	0.169532	0.135986
H124	H	0.745671	0.669532	0.635986
Cl125	Cl	1.013310	-0.024450	0.379884
Cl126	Cl	1.513310	0.475550	0.879884
H127	H	0.102936	0.165640	0.135986
H128	H	0.602936	0.665640	0.635986
H129	H	0.102965	0.165652	-0.135978
H130	H	0.602965	0.665652	0.364022
Cl131	Cl	1.013329	-0.024429	0.620114
Cl132	Cl	1.513329	0.475571	1.120114
