data_functionalizedCrystal
_audit_creation_method	'MofGen! by Chris Wilmer'
_symmetry_space_group_name_H-M	'P1'
_symmetry_Int_Tables_number	1
_symmetry_cell_setting	triclinic
loop_
_symmetry_equiv_pos_as_xyz
  x,y,z
_cell_length_a	11.169417
_cell_length_b	10.685194
_cell_length_c	11.169409
_cell_angle_alpha	94.405416
_cell_angle_beta	90.020253
_cell_angle_gamma	94.378522
loop_
_atom_site_label
_atom_site_type_symbol
_atom_site_fract_x
_atom_site_fract_y
_atom_site_fract_z
Zn1	Zn	1.798371	-0.502272	0.641880
Zn2	Zn	2.298371	-0.002272	1.141880
Zn3	Zn	1.782877	-0.713352	0.425794
Zn4	Zn	2.282877	-0.213352	0.925794
Zn5	Zn	1.597649	-0.502351	0.441210
Zn6	Zn	2.097649	-0.002351	0.941210
Zn7	Zn	1.582291	-0.713250	0.626447
Zn8	Zn	2.082291	-0.213250	1.126447
O9	O	1.690297	-0.607806	0.533833
O10	O	2.190297	-0.107806	1.033833
O11	O	1.964265	-0.530282	0.613223
O12	O	2.464265	-0.030282	1.113223
O13	O	1.758249	-0.685437	0.259884
O14	O	2.258249	-0.185437	0.759884
O15	O	1.637187	-0.325740	0.480740
O16	O	2.137187	0.174260	0.980740
O17	O	1.952881	-0.685361	0.454465
O18	O	2.452881	-0.185361	0.954465
O19	O	1.784657	-0.325683	0.628171
O20	O	2.284657	0.174317	1.128171
O21	O	1.622162	-0.530415	0.271210
O22	O	2.122162	-0.030415	0.771210
O23	O	1.427662	-0.530317	0.465775
O24	O	1.927662	-0.030317	0.965775
O25	O	1.611011	-0.685189	0.796450
O26	O	2.111011	-0.185189	1.296450
O27	O	1.416379	-0.685265	0.601868
O28	O	1.916379	-0.185265	1.101868
O29	O	1.769765	-0.530184	0.807788
O30	O	2.269765	-0.030184	1.307788
O31	O	1.743357	-0.889938	0.439501
O32	O	2.243357	-0.389938	0.939501
O33	O	1.595987	-0.889864	0.586920
O34	O	2.095987	-0.389864	1.086920
C35	C	1.378473	-0.607789	0.533820
C36	C	1.878473	-0.107789	1.033820
C37	C	1.245072	-0.607812	0.533841
C38	C	1.745072	-0.107812	1.033841
C39	C	1.666357	-0.935691	0.509889
C40	C	2.166357	-0.435691	1.009889
C41	C	1.656225	-1.075962	0.499686
C42	C	2.156225	-0.575962	0.999686
C43	C	2.003338	-0.607824	0.533846
C44	C	2.503338	-0.107824	1.033846
C45	C	2.136737	-0.607832	0.533852
C46	C	2.636737	-0.107832	1.033852
C47	C	1.690403	-0.607666	0.846886
C48	C	2.190403	-0.107666	1.346886
C49	C	1.690448	-0.607607	0.980290
C50	C	2.190448	-0.107607	1.480290
C51	C	1.714363	-0.278641	0.557897
C52	C	2.214363	0.221359	1.057897
C53	C	1.724619	-0.138370	0.568151
C54	C	2.224619	0.361630	1.068151
C55	C	1.690266	-0.607854	0.222005
C56	C	2.190266	-0.107854	0.722005
C57	C	1.690480	-0.607559	0.088627
C58	C	2.190480	-0.107559	0.588627
H59	H	1.790927	-1.084491	0.634579
H60	H	2.290927	-0.584491	1.134579
H61	H	1.589902	-1.129848	0.433264
H62	H	2.089902	-0.629848	0.933264
