data_functionalizedCrystal
_audit_creation_method	'MofGen! by Chris Wilmer'
_symmetry_space_group_name_H-M	'P1'
_symmetry_Int_Tables_number	1
_symmetry_cell_setting	triclinic
loop_
_symmetry_equiv_pos_as_xyz
  x,y,z
_cell_length_a	13.596369
_cell_length_b	19.288864
_cell_length_c	19.288865
_cell_angle_alpha	83.136245
_cell_angle_beta	89.994375
_cell_angle_gamma	89.980244
loop_
_atom_site_label
_atom_site_type_symbol
_atom_site_fract_x
_atom_site_fract_y
_atom_site_fract_z
O1	O	0.082118	-0.921350	-0.086643
O2	O	0.582118	-0.421350	0.413357
O3	O	0.082052	-0.719090	-0.098332
O4	O	0.582052	-0.219090	0.401668
O5	O	0.082068	-0.826064	0.008643
O6	O	0.582068	-0.326064	0.508643
O7	O	0.082103	-0.814376	-0.193618
O8	O	0.582103	-0.314376	0.306382
O9	O	-0.081515	-0.826051	0.008637
O10	O	0.418485	-0.326051	0.508637
O11	O	-0.081531	-0.719076	-0.098338
O12	O	0.418469	-0.219076	0.401662
O13	O	-0.081465	-0.921337	-0.086649
O14	O	0.418535	-0.421337	0.413351
Zn15	Zn	-0.107470	-0.820205	-0.092494
Zn16	Zn	0.392530	-0.320205	0.407506
Zn17	Zn	0.108057	-0.820222	-0.092486
Zn18	Zn	0.608057	-0.320222	0.407514
O19	O	-0.081480	-0.814362	-0.193624
O20	O	0.418520	-0.314362	0.306376
C21	C	0.000252	-0.693207	-0.097959
C22	C	0.500252	-0.193207	0.402041
C23	C	0.000226	-0.616103	-0.096830
C24	C	0.500226	-0.116103	0.403170
C25	C	0.000273	-0.825682	0.034516
C26	C	0.500273	-0.325682	0.534516
C27	C	0.000264	-0.824553	0.111620
C28	C	0.500264	-0.324553	0.611620
N29	N	-0.254562	-0.820198	-0.092499
N30	N	0.245438	-0.320198	0.407501
C31	C	-0.343560	-0.820201	-0.092501
C32	C	0.156440	-0.320201	0.407499
C33	C	-0.455211	-0.820208	-0.092496
C34	C	0.044789	-0.320208	0.407504
C35	C	-0.544202	-0.820217	-0.092488
C36	C	-0.044202	-0.320217	0.407512
C37	C	-0.655860	-0.820225	-0.092484
C38	C	-0.155860	-0.320225	0.407516
N39	N	0.255149	-0.820234	-0.092476
N40	N	0.755149	-0.320234	0.407524
C41	C	0.000337	-0.947220	-0.087022
C42	C	0.500337	-0.447220	0.412978
C43	C	0.000370	-1.024324	-0.088151
C44	C	0.500370	-0.524324	0.411849
C45	C	0.000253	-0.571407	-0.159598
C46	C	0.500253	-0.071407	0.340402
C47	C	0.000263	-0.498960	-0.158537
C48	C	0.500263	0.001040	0.341463
C49	C	0.000267	-0.471212	-0.094705
C50	C	0.500267	0.028788	0.405295
C51	C	0.000235	-0.515918	-0.031929
C52	C	0.500235	-0.015918	0.468071
C53	C	0.000215	-0.588364	-0.032991
C54	C	0.500215	-0.088364	0.467009
C55	C	0.057602	-0.362955	-0.044523
C56	C	0.557602	0.137045	0.455477
C57	C	0.057629	-0.290510	-0.043464
C58	C	0.557629	0.209490	0.456536
C59	C	0.000326	-0.247767	-0.091425
C60	C	0.500326	0.252233	0.408575
C61	C	-0.056990	-0.277475	-0.140458
C62	C	0.443010	0.222525	0.359542
C63	C	-0.057011	-0.349920	-0.141521
C64	C	0.442989	0.150080	0.358479
C65	C	0.000289	-0.392658	-0.093546
C66	C	0.500289	0.107342	0.406454
C67	C	0.000363	-0.124514	-0.153047
C68	C	0.500363	0.375486	0.346953
C69	C	0.000367	-0.052066	-0.151984
C70	C	0.500367	0.447934	0.348016
C71	C	0.000349	-0.069026	-0.025374
C72	C	0.500349	0.430974	0.474626
C73	C	0.000335	-0.141473	-0.026439
C74	C	0.500335	0.358527	0.473561
C75	C	0.000346	-0.169212	-0.090278
C76	C	0.500346	0.330788	0.409722
C77	C	0.000316	-0.814745	-0.219497
C78	C	0.500316	-0.314745	0.280503
C79	C	0.000332	-0.815874	-0.296601
C80	C	0.500332	-0.315874	0.203399
C81	C	0.000280	-0.887321	0.156316
C82	C	0.500280	-0.387321	0.656316
C83	C	0.000295	-0.886260	0.228763
C84	C	0.500295	-0.386260	0.728763
C85	C	0.000275	-0.822428	0.256511
C86	C	0.500275	-0.322428	0.756511
C87	C	0.000265	-0.759652	0.211805
C88	C	0.500265	-0.259652	0.711805
C89	C	0.000259	-0.760714	0.139359
C90	C	0.500259	-0.260714	0.639359
C91	C	-0.057041	-0.772244	0.364796
C92	C	0.442959	-0.272244	0.864796
C93	C	-0.057042	-0.771184	0.437241
C94	C	0.442958	-0.271184	0.937241
C95	C	0.000296	-0.819148	0.479956
C96	C	0.500296	-0.319148	0.979956
C97	C	0.057621	-0.868184	0.450220
C98	C	0.557621	-0.368184	0.950220
C99	C	0.057616	-0.869247	0.377775
C100	C	0.557616	-0.369247	0.877775
C101	C	0.000281	-0.821269	0.335065
C102	C	0.500281	-0.321269	0.835065
C103	C	0.000329	-0.880770	0.603209
C104	C	0.500329	-0.380770	1.103209
C105	C	0.000350	-0.879707	0.675657
C106	C	0.500350	-0.379707	1.175657
C107	C	0.000310	-0.753097	0.658697
C108	C	0.500310	-0.253097	1.158697
C109	C	0.000299	-0.754162	0.586250
C110	C	0.500299	-0.254162	1.086250
C111	C	0.000304	-0.818001	0.558511
C112	C	0.500304	-0.318001	1.058511
H113	H	0.000264	-0.593987	-0.211580
H114	H	0.500264	-0.093987	0.288420
C115	C	-0.119348	-0.382047	-0.194778
C116	C	0.380652	0.117953	0.305222
C117	C	-0.169549	-0.329117	-0.236546
C118	C	0.330451	0.170883	0.263454
C119	C	-0.226997	-0.358686	-0.285606
C120	C	0.273003	0.141314	0.214394
H121	H	-0.078138	-0.406563	-0.223305
H122	H	0.421862	0.093437	0.276695
H123	H	-0.165491	-0.413488	-0.171194
H124	H	0.334509	0.086512	0.328806
H125	H	-0.123412	-0.297687	-0.260129
H126	H	0.376588	0.202313	0.239871
H127	H	-0.210776	-0.304596	-0.208038
H128	H	0.289224	0.195404	0.291962
H129	H	-0.273140	-0.390128	-0.262022
H130	H	0.226860	0.109872	0.237978
H131	H	-0.185780	-0.383202	-0.314128
H132	H	0.314220	0.116798	0.185872
H133	H	-0.261072	-0.322779	-0.313947
H134	H	0.238928	0.177221	0.186053
C135	C	0.000339	-0.683720	0.688678
C136	C	0.500339	-0.183720	1.188678
C137	C	0.000343	-0.628976	0.634024
C138	C	0.500343	-0.128976	1.134024
C139	C	0.000387	-0.565055	0.661619
C140	C	0.500387	-0.065055	1.161619
H141	H	-0.056687	-0.680569	0.716583
H142	H	0.443313	-0.180569	1.216583
H143	H	0.057410	-0.680641	0.716560
H144	H	0.557410	-0.180641	1.216560
H145	H	-0.056722	-0.632053	0.606154
H146	H	0.443278	-0.132053	1.106154
H147	H	0.057365	-0.632104	0.606114
H148	H	0.557365	-0.132104	1.106114
H149	H	0.057457	-0.561976	0.689501
H150	H	0.557457	-0.061976	1.189501
H151	H	-0.056641	-0.561912	0.689524
H152	H	0.443359	-0.061912	1.189524
H153	H	0.000398	-0.527904	0.624541
H154	H	0.500398	-0.027904	1.124541
H155	H	0.000369	-0.930822	0.712049
H156	H	0.500369	-0.430822	1.212049
H157	H	-0.103652	-0.242674	-0.179513
H158	H	0.396348	0.257326	0.320487
H159	H	0.104294	-0.909172	0.353567
H160	H	0.604294	-0.409172	0.853567
C161	C	0.000504	-0.450453	-0.226709
C162	C	0.500504	0.049547	0.273291
C163	C	0.084685	-0.462981	-0.265140
C164	C	0.584685	0.037019	0.234860
C165	C	0.084950	-0.418306	-0.327938
C166	C	0.584950	0.081694	0.172062
H167	H	-0.056468	-0.458773	-0.252987
H168	H	0.443532	0.041227	0.247013
H169	H	0.000571	-0.403325	-0.216960
H170	H	0.500571	0.096675	0.283040
H171	H	0.084609	-0.510099	-0.274891
H172	H	0.584609	-0.010099	0.225109
H173	H	0.141671	-0.454657	-0.238884
H174	H	0.641671	0.045343	0.261116
H175	H	0.085017	-0.371178	-0.318189
H176	H	0.585017	0.128822	0.181811
H177	H	0.027974	-0.426629	-0.354209
H178	H	0.527974	0.073371	0.145791
H179	H	0.142069	-0.426796	-0.354018
H180	H	0.642069	0.073204	0.145982
C181	C	0.000313	-0.154503	-0.222425
C182	C	0.500313	0.345497	0.277575
C183	C	0.000303	-0.099849	-0.277170
C184	C	0.500303	0.400151	0.222830
C185	C	0.000243	-0.127445	-0.341091
C186	C	0.500243	0.372555	0.158909
H187	H	0.057337	-0.182420	-0.225570
H188	H	0.557337	0.317580	0.274430
H189	H	-0.056760	-0.182371	-0.225510
H190	H	0.443240	0.317629	0.274490
H191	H	0.057370	-0.071992	-0.274088
H192	H	0.557370	0.428008	0.225912
H193	H	-0.056717	-0.071927	-0.274048
H194	H	0.443283	0.428073	0.225952
H195	H	-0.056830	-0.155314	-0.344175
H196	H	0.443170	0.344686	0.155825
H197	H	0.057268	-0.155362	-0.344228
H198	H	0.557268	0.344638	0.155772
H199	H	0.000227	-0.090367	-0.378243
H200	H	0.500227	0.409633	0.121757
H201	H	0.104303	-0.266327	-0.003541
H202	H	0.604303	0.233673	0.496459
H203	H	0.104311	-0.907241	0.484999
H204	H	0.604311	-0.407241	0.984999
H205	H	0.000383	-0.015674	-0.203099
H206	H	0.500383	0.484326	0.296901
H207	H	0.000414	-0.046435	0.026600
H208	H	0.500414	0.453565	0.526600
H209	H	0.000252	-0.493322	0.020044
H210	H	0.500252	0.006678	0.520044
H211	H	0.000194	-0.624756	0.018124
H212	H	0.500194	-0.124756	0.518124
H213	H	0.000281	-0.703049	0.549857
H214	H	0.500281	-0.203049	1.049857
H215	H	0.000319	-0.177866	0.024674
H216	H	0.500319	0.322134	0.524674
H217	H	0.000246	-0.709599	0.102967
H218	H	0.500246	-0.209599	0.602967
H219	H	0.000337	-0.932751	0.580622
H220	H	0.500337	-0.432751	1.080622
H221	H	-0.103738	-0.733183	0.330022
H222	H	0.396262	-0.233183	0.830022
C223	C	0.119934	-0.409238	0.007583
C224	C	0.619934	0.090762	0.507583
C225	C	0.170162	-0.367715	0.050731
C226	C	0.670162	0.132285	0.550731
C227	C	0.227601	-0.410324	0.098730
C228	C	0.727601	0.089676	0.598730
H229	H	0.078715	-0.441254	0.035285
H230	H	0.578715	0.058746	0.535285
H231	H	0.166061	-0.434283	-0.016832
H232	H	0.666061	0.065717	0.483168
H233	H	0.124041	-0.342681	0.075144
H234	H	0.624041	0.157319	0.575144
H235	H	0.211398	-0.335699	0.023048
H236	H	0.711398	0.164301	0.523048
H237	H	0.273728	-0.435370	0.074315
H238	H	0.773728	0.064630	0.574315
H239	H	0.186375	-0.442339	0.126426
H240	H	0.686375	0.057661	0.626426
H241	H	0.261695	-0.382157	0.128007
H242	H	0.761695	0.117843	0.628007
H243	H	-0.103714	-0.731253	0.461445
H244	H	0.396286	-0.231253	0.961445
H245	H	0.000311	-0.937375	0.265162
H246	H	0.500311	-0.437375	0.765162
C247	C	0.000445	-0.690327	0.241888
C248	C	0.500445	-0.190327	0.741888
C249	C	0.084608	-0.652411	0.219160
C250	C	0.584608	-0.152411	0.719160
C251	C	0.084820	-0.588548	0.246865
C252	C	0.584820	-0.088548	0.746865
H253	H	-0.056539	-0.664400	0.226555
H254	H	0.443461	-0.164400	0.726555
H255	H	0.000502	-0.698654	0.291439
H256	H	0.500502	-0.198654	0.791439
H257	H	0.084542	-0.644081	0.169620
H258	H	0.584542	-0.144081	0.669620
H259	H	0.141606	-0.678316	0.234492
H260	H	0.641606	-0.178316	0.734492
H261	H	0.084876	-0.596876	0.296415
H262	H	0.584876	-0.096876	0.796415
H263	H	0.027832	-0.562628	0.231530
H264	H	0.527832	-0.062628	0.731530
H265	H	0.141927	-0.562817	0.231453
H266	H	0.641927	-0.062817	0.731453
H267	H	0.000287	-0.939303	0.133736
H268	H	0.500287	-0.439303	0.633736
