data_functionalizedCrystal
_audit_creation_method	'MofGen! by Chris Wilmer'
_symmetry_space_group_name_H-M	'P1'
_symmetry_Int_Tables_number	1
_symmetry_cell_setting	triclinic
loop_
_symmetry_equiv_pos_as_xyz
  x,y,z
_cell_length_a	14.853566
_cell_length_b	14.971506
_cell_length_c	13.448316
_cell_angle_alpha	89.994977
_cell_angle_beta	89.996091
_cell_angle_gamma	83.628401
loop_
_atom_site_label
_atom_site_type_symbol
_atom_site_fract_x
_atom_site_fract_y
_atom_site_fract_z
O1	O	1.196355	0.116775	-0.082623
O2	O	0.933894	0.130687	-0.082639
O3	O	1.072150	-0.006466	-0.082628
O4	O	1.058099	0.253929	-0.082634
O5	O	1.072132	-0.006475	0.082756
O6	O	0.933877	0.130679	0.082745
O7	O	1.196338	0.116767	0.082761
Cu8	Cu	1.065106	0.123722	0.097854
Cu9	Cu	1.065126	0.123732	-0.097731
O10	O	1.058082	0.253920	0.082750
C11	C	1.071509	-0.039795	0.000063
C12	C	1.069617	-0.139092	0.000058
C13	C	0.900297	0.130053	0.000051
C14	C	0.800213	0.128165	0.000045
C15	C	1.143616	-0.577361	0.000063
C16	C	1.145388	-0.484060	0.000070
C17	C	1.064157	-0.426855	0.000062
C18	C	0.981150	-0.462954	0.000057
C19	C	0.979379	-0.556253	0.000057
C20	C	0.984846	-0.268490	0.000053
C21	C	0.986616	-0.175185	0.000051
C22	C	1.150854	-0.196298	0.000066
C23	C	1.149083	-0.289597	0.000066
C24	C	1.066076	-0.325689	0.000060
C25	C	0.377039	0.120182	-0.090088
C26	C	0.377041	0.120173	0.090220
C27	C	0.471075	0.121947	0.090217
C28	C	0.518095	0.122839	0.000060
C29	C	0.471081	0.121958	-0.090094
C30	C	0.518095	0.122837	0.180369
C31	C	0.612134	0.124611	0.180369
C32	C	0.659157	0.125497	0.090211
C33	C	0.612137	0.124615	0.000054
C34	C	0.659157	0.125508	-0.090103
C35	C	0.612140	0.124619	-0.180261
C36	C	0.518103	0.122844	-0.180252
C37	C	0.753193	0.127272	0.090202
C38	C	0.753199	0.127284	-0.090109
C39	C	1.229935	0.117401	0.000069
C40	C	1.330019	0.119289	0.000069
C41	C	1.058722	0.287249	0.000058
C42	C	1.060615	0.386546	0.000056
N43	N	1.065098	0.123714	0.235418
N44	N	1.065141	0.123733	-0.235296
C45	C	1.126336	0.063008	0.287464
C46	C	1.126342	0.063007	0.391567
C47	C	1.065113	0.123718	0.443623
C48	C	1.003867	0.184428	0.391570
C49	C	1.003858	0.184423	0.287469
C50	C	1.003892	0.184434	0.608551
C51	C	1.003903	0.184439	0.712659
C52	C	1.126376	0.063017	0.712648
C53	C	1.126367	0.063013	0.608547
C54	C	1.065123	0.123724	0.556502
H55	H	1.209764	-0.623932	0.000062
H56	H	0.479803	0.122116	0.253770
H57	H	0.338751	0.119453	0.163621
H58	H	0.954042	0.233875	0.755038
H59	H	0.953990	0.233856	0.245095
N60	N	0.803904	0.128240	0.187430
H61	H	0.759847	0.127411	0.244545
H62	H	0.850165	0.073572	0.191364
H63	H	0.911791	-0.585638	0.000059
N64	N	0.662842	0.125572	0.277605
H65	H	0.618784	0.124739	0.334718
H66	H	0.709102	0.070902	0.281534
N67	N	0.937834	0.249909	0.552412
H68	H	0.899048	0.288372	0.601184
H69	H	0.972387	0.289512	0.509207
N70	N	0.467382	0.121897	-0.277480
H71	H	0.476504	0.177612	-0.316895
H72	H	0.491007	0.066769	-0.316820
H73	H	1.176200	0.013574	0.245086
H74	H	1.176207	0.013575	0.433942
H75	H	0.915010	-0.416370	0.000056
H76	H	0.338754	0.119455	-0.163493
N77	N	0.937831	0.249908	0.447721
H78	H	0.948280	0.313409	0.429590
H79	H	0.873864	0.239411	0.429601
H80	H	1.176229	0.013582	0.566163
H81	H	1.218442	-0.166907	-0.000020
N82	N	1.234910	-0.445130	0.000084
H83	H	1.286099	-0.495527	0.000084
H84	H	1.239230	-0.406872	-0.061223
N85	N	1.236693	-0.351300	0.000071
H86	H	1.289547	-0.314280	0.000079
H87	H	1.239521	-0.390472	0.061383
N88	N	1.192436	-0.002463	0.768775
H89	H	1.183151	0.006746	0.842622
H90	H	1.181957	-0.065938	0.750588
H91	H	0.917252	-0.297873	0.000061
N92	N	0.899017	-0.113465	0.000057
H93	H	0.862799	-0.125070	-0.061246
H94	H	0.862878	-0.125110	0.061410
N95	N	0.803913	0.128235	-0.187351
H96	H	0.759857	0.127401	-0.244459
H97	H	0.835683	0.184378	-0.191289
N98	N	0.662852	0.125583	-0.277503
H99	H	0.694620	0.181725	-0.281524
H100	H	0.709070	0.070882	-0.281458
