data_functionalizedCrystal
_audit_creation_method	'MofGen! by Chris Wilmer'
_symmetry_space_group_name_H-M	'P1'
_symmetry_Int_Tables_number	1
_symmetry_cell_setting	triclinic
loop_
_symmetry_equiv_pos_as_xyz
  x,y,z
_cell_length_a	6.817900
_cell_length_b	13.563541
_cell_length_c	16.305550
_cell_angle_alpha	109.775740
_cell_angle_beta	103.455250
_cell_angle_gamma	104.704624
loop_
_atom_site_label
_atom_site_type_symbol
_atom_site_fract_x
_atom_site_fract_y
_atom_site_fract_z
V1	V	-4.058819	-0.154680	-0.299038
O2	O	-4.012479	0.006468	-0.256519
O3	O	-4.042088	-0.305777	-0.332411
O4	O	-4.009813	-0.152725	-0.413299
O5	O	-4.044978	-0.147644	-0.175070
V6	V	-4.538422	-0.135355	-0.279907
O7	O	-4.328677	-0.197072	-0.341001
O8	O	-4.718761	-0.092964	-0.237944
O9	O	-4.331946	0.015742	-0.246534
O10	O	-4.702158	-0.296504	-0.322426
O11	O	-4.669660	-0.142391	-0.403875
O12	O	-4.364221	-0.137311	-0.165646
C13	C	-3.894813	-0.342598	-0.336832
C14	C	-3.962417	-0.466125	-0.364880
C15	C	-3.978924	-0.749743	-0.119875
C16	C	-3.915393	-0.633683	-0.093521
C17	C	-3.927146	-0.591788	-0.161358
C18	C	-4.002436	-0.665964	-0.255555
C19	C	-4.065958	-0.782034	-0.281912
C20	C	-4.014179	-0.624079	-0.323395
C21	C	-4.089470	-0.698255	-0.417591
C22	C	-4.152985	-0.814314	-0.443944
C23	C	-4.141232	-0.856210	-0.376106
C24	C	-3.950658	-0.508008	-0.297038
C25	C	-4.037691	-0.540300	-0.459075
C26	C	-4.101222	-0.656360	-0.485429
C27	C	-3.853641	-0.147363	-0.440012
C28	C	-3.895067	-0.146763	-0.533655
C29	C	-4.045665	-0.144441	-0.873860
C30	C	-3.808165	-0.137546	-0.831326
C31	C	-3.765199	-0.138629	-0.734083
C32	C	-3.970950	-0.145593	-0.705080
C33	C	-4.161093	-0.255336	-0.781252
C34	C	-4.202826	-0.254715	-0.878657
C35	C	-4.078947	-0.042470	-0.804280
C36	C	-4.030834	-0.041601	-0.706235
C37	C	-3.928738	-0.146247	-0.609694
C38	C	-4.087887	-0.143794	-0.969248
C39	C	-4.142564	0.052557	-0.242112
C40	C	-4.054199	0.176082	-0.214070
C41	C	-4.183735	-0.142676	-0.138929
C42	C	-4.121547	-0.143270	-0.045285
H43	H	-3.969352	-0.783866	-0.064652
N44	N	-3.934698	0.067676	-0.796349
H45	H	-3.834432	0.115211	-0.729714
H46	H	-4.026859	0.108928	-0.816281
H47	H	-4.192974	-0.950714	-0.397560
H48	H	-4.378689	-0.264339	-0.908889
H49	H	-3.889356	-0.447625	-0.220342
N50	N	-4.366507	-0.267352	-0.759007
H51	H	-4.338216	-0.201616	-0.699193
H52	H	-4.416070	-0.339688	-0.751729
H53	H	-4.047259	-0.506190	-0.514314
N54	N	-4.109231	-0.357624	-0.782796
H55	H	-3.962742	-0.333119	-0.734249
H56	H	-4.107233	-0.401433	-0.846308
N57	N	-3.575784	-0.034022	-0.663387
H58	H	-3.623988	0.010891	-0.614015
H59	H	-3.519700	0.013046	-0.695374
N60	N	-3.847832	0.065918	-0.635679
H61	H	-3.821496	0.067523	-0.571589
H62	H	-3.887392	0.132450	-0.636819
H63	H	-4.177834	-0.040236	-0.684569
H64	H	-3.875405	-0.497285	-0.139894
H65	H	-4.251870	-0.046545	-0.832044
H66	H	-3.685332	-0.058269	-0.825236
N67	N	-3.768851	-0.234590	-0.895643
H68	H	-3.790073	-0.231378	-0.957961
H69	H	-3.874238	-0.307834	-0.904185
H70	H	-3.714379	-0.212737	-0.735040
H71	H	-3.854099	-0.573297	-0.016826
N72	N	-4.234160	-0.894320	-0.545538
H73	H	-4.231971	-0.850172	-0.584515
H74	H	-4.387065	-0.947039	-0.563761
N75	N	-4.176473	-0.356964	-0.942703
H76	H	-4.057288	-0.332356	-0.966551
H77	H	-4.316656	-0.404986	-0.996897
H78	H	-4.162529	-0.716770	-0.562125
