data_functionalizedCrystal
_audit_creation_method	'MofGen! by Chris Wilmer'
_symmetry_space_group_name_H-M	'P1'
_symmetry_Int_Tables_number	1
_symmetry_cell_setting	triclinic
loop_
_symmetry_equiv_pos_as_xyz
  x,y,z
_cell_length_a	29.839134
_cell_length_b	29.839131
_cell_length_c	17.077396
_cell_angle_alpha	89.967252
_cell_angle_beta	89.982719
_cell_angle_gamma	90.021992
loop_
_atom_site_label
_atom_site_type_symbol
_atom_site_fract_x
_atom_site_fract_y
_atom_site_fract_z
Zn1	Zn	0.686742	-0.179083	-0.443825
Zn2	Zn	1.186742	0.320917	0.056175
Zn3	Zn	0.686668	-0.254214	-0.312551
Zn4	Zn	1.186668	0.245786	0.187449
Zn5	Zn	0.611618	-0.179074	-0.312572
Zn6	Zn	1.111618	0.320926	0.187428
Zn7	Zn	0.611573	-0.254161	-0.443774
Zn8	Zn	1.111573	0.245839	0.056226
O9	O	0.649150	-0.216633	-0.378180
O10	O	1.149150	0.283367	0.121820
O11	O	0.749599	-0.189075	-0.426423
O12	O	1.249599	0.310925	0.073577
O13	O	0.676700	-0.244265	-0.202707
O14	O	1.176700	0.255735	0.297293
O15	O	0.621634	-0.116208	-0.330013
O16	O	1.121634	0.383792	0.169987
O17	O	0.749545	-0.244274	-0.329976
O18	O	1.249545	0.255726	0.170024
O19	O	0.676827	-0.116214	-0.426444
O20	O	1.176827	0.383786	0.073556
O21	O	0.621562	-0.189060	-0.202723
O22	O	1.121562	0.310940	0.297277
O23	O	0.548745	-0.189008	-0.329965
O24	O	1.048745	0.310992	0.170035
O25	O	0.621556	-0.244183	-0.553628
O26	O	1.121556	0.255817	-0.053628
O27	O	0.548712	-0.244174	-0.426358
O28	O	1.048712	0.255826	0.073642
O29	O	0.676783	-0.189023	-0.553665
O30	O	1.176783	0.310977	-0.053665
O31	O	0.676656	-0.317074	-0.329928
O32	O	1.176656	0.182926	0.170072
O33	O	0.621484	-0.317035	-0.426337
O34	O	1.121484	0.182965	0.073663
C35	C	0.532428	-0.216585	-0.378159
C36	C	1.032428	0.283415	0.121841
C37	C	0.482493	-0.216575	-0.378168
C38	C	0.982493	0.283425	0.121832
C39	C	0.125930	-0.187951	-0.428499
C40	C	0.625930	0.312049	0.071501
C41	C	0.313603	-0.187914	-0.428481
C42	C	0.813603	0.312086	0.071519
O43	O	0.337889	-0.163520	-0.471270
O44	O	0.837889	0.336480	0.028730
N45	N	0.337048	-0.216604	-0.378186
N46	N	0.837048	0.283396	0.121814
C47	C	0.313571	-0.245307	-0.327897
C48	C	0.813571	0.254693	0.172103
O49	O	0.337819	-0.269712	-0.285124
O50	O	0.837819	0.230288	0.214876
C51	C	0.125899	-0.245345	-0.327919
C52	C	0.625899	0.254655	0.172081
C53	C	0.102457	-0.216650	-0.378211
C54	C	0.602457	0.283350	0.121789
C55	C	0.102488	-0.159258	-0.478787
C56	C	0.602488	0.340742	0.021213
C57	C	0.055573	-0.159266	-0.478788
C58	C	0.555573	0.340734	0.021212
C59	C	0.032099	-0.187966	-0.428501
C60	C	0.532099	0.312034	0.071499
C61	C	0.055542	-0.216658	-0.378212
C62	C	0.555542	0.283342	0.121788
C63	C	0.102424	-0.274050	-0.277634
C64	C	0.602424	0.225950	0.222366
C65	C	0.055502	-0.274058	-0.277646
C66	C	0.555502	0.225942	0.222354
C67	C	0.032060	-0.245363	-0.327938
C68	C	0.532060	0.254637	0.172062
C69	C	-0.014847	-0.245365	-0.327926
C70	C	0.485153	0.254635	0.172074
N71	N	-0.038292	-0.216676	-0.378220
N72	N	0.461708	0.283324	0.121780
C73	C	-0.014818	-0.187976	-0.428508
C74	C	0.485182	0.312024	0.071492
C75	C	0.412102	-0.245285	-0.327887
C76	C	0.912102	0.254715	0.172113
C77	C	0.459020	-0.245275	-0.327880
C78	C	0.959020	0.254725	0.172120
C79	C	0.459049	-0.187882	-0.428466
C80	C	0.959049	0.312118	0.071534
C81	C	0.412130	-0.187890	-0.428468
C82	C	0.912130	0.312110	0.071532
C83	C	0.388657	-0.216595	-0.378182
C84	C	0.888657	0.283405	0.121818
C85	C	-0.113344	-0.187994	-0.428505
C86	C	0.386656	0.312006	0.071495
C87	C	-0.160264	-0.188002	-0.428500
C88	C	0.339736	0.311998	0.071500
C89	C	-0.160289	-0.245396	-0.327918
C90	C	0.339711	0.254604	0.172082
C91	C	-0.113373	-0.245386	-0.327920
C92	C	0.386627	0.254614	0.172080
C93	C	-0.089902	-0.216683	-0.378220
C94	C	0.410098	0.283317	0.121780
O95	O	-0.039161	-0.269751	-0.285165
O96	O	0.460839	0.230249	0.214835
O97	O	-0.039074	-0.163582	-0.471287
O98	O	0.460926	0.336418	0.028713
C99	C	0.172846	-0.187943	-0.428498
C100	C	0.672846	0.312057	0.071502
C101	C	0.196288	-0.216635	-0.378209
C102	C	0.696288	0.283365	0.121791
C103	C	0.172815	-0.245335	-0.327922
C104	C	0.672815	0.254665	0.172078
C105	C	0.243206	-0.216625	-0.378203
C106	C	0.743206	0.283375	0.121797
C107	C	0.266679	-0.187925	-0.428490
C108	C	0.766679	0.312075	0.071510
C109	C	0.243235	-0.159236	-0.478784
C110	C	0.743235	0.340764	0.021216
C111	C	0.196319	-0.159243	-0.478785
C112	C	0.696319	0.340757	0.021215
C113	C	0.196259	-0.274025	-0.277628
C114	C	0.696259	0.225975	0.222372
C115	C	0.243175	-0.274015	-0.277630
C116	C	0.743175	0.225985	0.222370
C117	C	0.266648	-0.245315	-0.327917
C118	C	0.766648	0.254685	0.172083
C119	C	0.649069	-0.333355	-0.378141
C120	C	1.149069	0.166645	0.121859
C121	C	0.649075	-0.383290	-0.378151
C122	C	1.149075	0.116710	0.121849
C123	C	0.677930	-0.692941	-0.328053
C124	C	1.177930	-0.192941	0.171947
C125	C	0.677986	-0.880614	-0.328084
C126	C	1.177986	-0.380614	0.171916
O127	O	0.702455	-0.904886	-0.285459
O128	O	1.202455	-0.404886	0.214541
N129	N	0.649243	-0.904075	-0.378240
N130	N	1.149243	-0.404075	0.121760
C131	C	0.620487	-0.880614	-0.428395
C132	C	1.120487	-0.380614	0.071605
O133	O	0.596044	-0.904876	-0.471062
O134	O	1.096044	-0.404876	0.028938
C135	C	0.620434	-0.692942	-0.428368
C136	C	1.120434	-0.192942	0.071632
C137	C	0.649175	-0.669484	-0.378203
C138	C	1.149175	-0.169484	0.121797
C139	C	0.706670	-0.669483	-0.277893
C140	C	1.206670	-0.169483	0.222107
C141	C	0.706654	-0.622567	-0.277883
C142	C	1.206654	-0.122567	0.222117
C143	C	0.677899	-0.599110	-0.328033
C144	C	1.177899	-0.099110	0.171967
C145	C	0.649159	-0.622568	-0.378193
C146	C	1.149159	-0.122568	0.121807
C147	C	0.591680	-0.669483	-0.478527
C148	C	1.091680	-0.169483	0.021473
C149	C	0.591670	-0.622562	-0.478517
C150	C	1.091670	-0.122562	0.021483
C151	C	0.620412	-0.599103	-0.428352
C152	C	1.120412	-0.099103	0.071648
C153	C	0.620388	-0.552196	-0.428333
C154	C	1.120388	-0.052196	0.071667
N155	N	0.649131	-0.528735	-0.378177
N156	N	1.149131	-0.028735	0.121823
C157	C	0.677886	-0.552192	-0.328027
C158	C	1.177886	-0.052192	0.171973
C159	C	0.620516	-0.979145	-0.428405
C160	C	1.120516	-0.479145	0.071595
C161	C	0.620529	-1.026063	-0.428410
C162	C	1.120529	-0.526063	0.071590
C163	C	0.678028	-1.026059	-0.328100
C164	C	1.178028	-0.526059	0.171900
C165	C	0.678013	-0.979141	-0.328091
C166	C	1.178013	-0.479141	0.171909
C167	C	0.649259	-0.955684	-0.378249
C168	C	1.149259	-0.455684	0.121751
C169	C	0.677850	-0.453666	-0.328009
C170	C	1.177850	0.046334	0.171991
C171	C	0.677830	-0.406747	-0.328001
C172	C	1.177830	0.093253	0.171999
C173	C	0.620333	-0.406755	-0.428314
C174	C	1.120333	0.093245	0.071686
C175	C	0.620351	-0.453670	-0.428319
C176	C	1.120351	0.046330	0.071681
C177	C	0.649113	-0.477125	-0.378164
C178	C	1.149113	0.022875	0.121836
O179	O	0.595936	-0.527896	-0.470941
O180	O	1.095936	-0.027896	0.029059
O181	O	0.702332	-0.527923	-0.285379
O182	O	1.202332	-0.027923	0.214621
C183	C	0.677946	-0.739856	-0.328064
C184	C	1.177946	-0.239856	0.171936
C185	C	0.649207	-0.763315	-0.378223
C186	C	1.149207	-0.263315	0.121777
C187	C	0.620452	-0.739858	-0.428373
C188	C	1.120452	-0.239858	0.071627
C189	C	0.649220	-0.810233	-0.378229
C190	C	1.149220	-0.310233	0.121771
C191	C	0.677975	-0.833690	-0.328080
C192	C	1.177975	-0.333690	0.171920
C193	C	0.706717	-0.810229	-0.277924
C194	C	1.206717	-0.310229	0.222076
C195	C	0.706701	-0.763313	-0.277914
C196	C	1.206701	-0.263313	0.222086
C197	C	0.591709	-0.763319	-0.478529
C198	C	1.091709	-0.263319	0.021471
C199	C	0.591727	-0.810234	-0.478534
C200	C	1.091727	-0.310234	0.021466
C201	C	0.620482	-0.833691	-0.428385
C202	C	1.120482	-0.333691	0.071615
C203	C	0.766328	-0.216681	-0.378203
C204	C	1.266328	0.283319	0.121797
C205	C	0.816263	-0.216702	-0.378212
C206	C	1.316263	0.283298	0.121788
C207	C	0.649173	-0.216598	-0.582925
C208	C	1.149173	0.283402	-0.082925
C209	C	0.649182	-0.216583	-0.670175
C210	C	1.149182	0.283417	-0.170175
C211	C	0.649244	-0.099454	-0.378237
C212	C	1.149244	0.400546	0.121763
C213	C	0.649284	-0.049520	-0.378261
C214	C	1.149284	0.450480	0.121739
C215	C	0.620480	-0.187834	-0.711173
C216	C	1.120480	0.312166	-0.211173
C217	C	0.620488	-0.187824	-0.793153
C218	C	1.120488	0.312176	-0.293153
C219	C	0.649200	-0.216561	-0.834134
C220	C	1.149200	0.283439	-0.334134
C221	C	0.677903	-0.245313	-0.793131
C222	C	1.177903	0.254687	-0.293131
C223	C	0.677893	-0.245325	-0.711152
C224	C	1.177893	0.254675	-0.211152
C225	C	0.677922	-0.245285	-0.964001
C226	C	1.177922	0.254715	-0.464001
C227	C	0.677933	-0.245272	-1.045985
C228	C	1.177933	0.254728	-0.545985
C229	C	0.620517	-0.187784	-1.046002
C230	C	1.120517	0.312216	-0.546002
C231	C	0.620507	-0.187796	-0.964023
C232	C	1.120507	0.312204	-0.464023
C233	C	0.649211	-0.216548	-0.923025
C234	C	1.149211	0.283452	-0.423025
C235	C	0.649153	-0.216635	-0.174233
C236	C	1.149153	0.283365	0.325767
C237	C	0.649231	-0.216523	-0.086983
C238	C	1.149231	0.283477	0.413017
H239	H	0.393046	-0.164524	-0.469419
H240	H	0.893046	0.335476	0.030581
H241	H	0.597146	-0.164373	-1.079387
H242	H	1.097146	0.335627	-0.579387
H243	H	0.701312	-0.268672	-1.079350
H244	H	1.201312	0.231328	-0.579350
H245	H	0.121595	-0.135887	-0.519742
H246	H	0.621595	0.364113	-0.019742
H247	H	0.597114	-0.164415	-0.826530
H248	H	1.097114	0.335585	-0.326530
H249	H	0.701268	-0.268732	-0.677772
H250	H	1.201268	0.231268	-0.177772
H251	H	0.701278	-0.268713	-0.826504
H252	H	1.201278	0.231287	-0.326504
H253	H	0.478169	-0.164513	-0.469410
H254	H	0.978169	0.335487	0.030590
H255	H	0.701300	-0.268694	-0.930623
H256	H	1.201300	0.231306	-0.430623
H257	H	-0.179348	-0.164633	-0.469453
H258	H	0.320652	0.335367	0.030547
H259	H	0.730059	-0.603470	-0.237037
H260	H	1.230059	-0.103470	0.262963
H261	H	0.597130	-0.164394	-0.930659
H262	H	1.097130	0.335606	-0.430659
H263	H	0.036490	-0.135901	-0.519745
H264	H	0.536490	0.364099	-0.019745
H265	H	-0.094240	-0.164621	-0.469464
H266	H	0.405760	0.335379	0.030536
H267	H	0.392995	-0.268660	-0.286935
H268	H	0.892995	0.231340	0.213065
H269	H	0.597103	-0.164431	-0.677812
H270	H	1.097103	0.335569	-0.177812
H271	H	0.121502	-0.297417	-0.236681
H272	H	0.621502	0.202583	0.263319
H273	H	0.036394	-0.297434	-0.236698
H274	H	0.536394	0.202566	0.263302
H275	H	0.568294	-0.744223	-0.519368
H276	H	1.068294	-0.244223	-0.019368
H277	H	0.478103	-0.268636	-0.286919
H278	H	0.978103	0.231364	0.213081
H279	H	-0.094285	-0.268748	-0.286961
H280	H	0.405715	0.231252	0.213039
H281	H	0.568255	-0.603466	-0.519364
H282	H	1.068255	-0.103466	-0.019364
H283	H	-0.179409	-0.268761	-0.286972
H284	H	0.320591	0.231239	0.213028
H285	H	0.596949	-0.472771	-0.469170
H286	H	1.096949	0.027229	0.030830
H287	H	0.262355	-0.135865	-0.519727
H288	H	0.762355	0.364135	-0.019727
H289	H	0.177237	-0.135877	-0.519738
H290	H	0.677237	0.364123	-0.019738
H291	H	0.177152	-0.297397	-0.236677
H292	H	0.677152	0.202603	0.263323
H293	H	0.701235	-0.387648	-0.287148
H294	H	1.201235	0.112352	0.212852
H295	H	0.262257	-0.297381	-0.236669
H296	H	0.762257	0.202619	0.263331
H297	H	0.730088	-0.688576	-0.237055
H298	H	1.230088	-0.188576	0.262945
H299	H	0.701272	-0.472758	-0.287170
H300	H	1.201272	0.027242	0.212830
H301	H	0.701417	-0.960043	-0.287243
H302	H	1.201417	-0.460043	0.212757
H303	H	0.701442	-1.045166	-0.287266
H304	H	1.201442	-0.545166	0.212734
H305	H	0.597100	-0.960050	-0.469250
H306	H	1.097100	-0.460050	0.030750
H307	H	0.597120	-1.045159	-0.469252
H308	H	1.097120	-0.545159	0.030748
H309	H	0.568274	-0.688575	-0.519372
H310	H	1.068274	-0.188575	-0.019372
H311	H	0.596919	-0.387649	-0.469143
H312	H	1.096919	0.112351	0.030857
H313	H	0.730105	-0.744217	-0.237065
H314	H	1.230105	-0.244217	0.262935
H315	H	0.730129	-0.829336	-0.237088
H316	H	1.230129	-0.329336	0.262912
H317	H	0.568319	-0.829330	-0.519384
H318	H	1.068319	-0.329330	-0.019384
