data_functionalizedCrystal
_audit_creation_method	'MofGen! by Chris Wilmer'
_symmetry_space_group_name_H-M	'P1'
_symmetry_Int_Tables_number	1
_symmetry_cell_setting	triclinic
loop_
_symmetry_equiv_pos_as_xyz
  x,y,z
_cell_length_a	27.731994
_cell_length_b	27.731996
_cell_length_c	9.616153
_cell_angle_alpha	89.991761
_cell_angle_beta	89.999246
_cell_angle_gamma	82.620961
loop_
_atom_site_label
_atom_site_type_symbol
_atom_site_fract_x
_atom_site_fract_y
_atom_site_fract_z
O1	O	0.640936	0.057392	-0.115465
O2	O	0.500137	0.066165	-0.115514
O3	O	0.574922	-0.008621	-0.115458
O4	O	0.566150	0.132178	-0.115521
O5	O	0.574912	-0.008619	0.115834
O6	O	0.500126	0.066167	0.115778
O7	O	0.640925	0.057393	0.115826
Zn8	Zn	0.570524	0.061780	0.152524
Zn9	Zn	0.570538	0.061778	-0.152212
O10	O	0.566140	0.132179	0.115770
C11	C	0.482124	0.065986	0.000126
C12	C	0.428468	0.065443	0.000109
C13	C	0.095745	0.062028	0.126241
C14	C	-0.105913	0.059967	0.126258
O15	O	-0.131990	0.059680	0.233481
N16	N	-0.131122	0.059710	0.000181
C17	C	-0.105914	0.059965	-0.125909
O18	O	-0.131982	0.059694	-0.233145
C19	C	0.095744	0.062023	-0.125924
C20	C	0.120950	0.062285	0.000161
C21	C	0.120951	0.062290	0.252316
C22	C	0.171362	0.062808	0.252310
C23	C	0.196567	0.063064	0.126230
C24	C	0.171361	0.062803	0.000155
C25	C	0.120952	0.062275	-0.252013
C26	C	0.171370	0.062788	-0.252005
C27	C	0.196576	0.063050	-0.125920
C28	C	0.246977	0.063578	-0.125930
N29	N	0.272186	0.063835	0.000146
C30	C	0.246981	0.063578	0.126227
C31	C	-0.211787	0.058885	-0.125892
C32	C	-0.262201	0.058372	-0.125889
C33	C	-0.262197	0.058373	0.126279
C34	C	-0.211782	0.058890	0.126274
C35	C	-0.186578	0.059142	0.000185
C36	C	0.352848	0.064666	0.126206
C37	C	0.403263	0.065187	0.126189
C38	C	0.403255	0.065183	-0.125977
C39	C	0.352844	0.064666	-0.125962
C40	C	0.327642	0.064406	0.000141
O41	O	0.273086	0.063859	-0.233098
O42	O	0.273060	0.063838	0.233446
C43	C	0.045334	0.061510	0.126246
C44	C	0.020127	0.061249	0.000172
C45	C	0.045332	0.061506	-0.125909
C46	C	-0.030287	0.060735	0.000175
C47	C	-0.055492	0.060479	0.126255
C48	C	-0.030282	0.060736	0.252332
C49	C	0.020129	0.061254	0.252327
C50	C	0.020123	0.061249	-0.251985
C51	C	-0.030288	0.060731	-0.251970
C52	C	-0.055493	0.060475	-0.125889
C53	C	0.574737	-0.026628	0.000193
C54	C	0.574194	-0.080284	0.000207
C55	C	0.570785	-0.413000	-0.125940
C56	C	0.568724	-0.614658	-0.125965
O57	O	0.568441	-0.640730	-0.233189
N58	N	0.568462	-0.639874	0.000111
C59	C	0.568713	-0.614672	0.126202
O60	O	0.568438	-0.640747	0.233436
C61	C	0.570770	-0.413015	0.126226
C62	C	0.571037	-0.387802	0.000142
C63	C	0.571051	-0.387787	-0.252013
C64	C	0.571569	-0.337376	-0.252006
C65	C	0.571821	-0.312178	-0.125924
C66	C	0.571555	-0.337391	0.000149
C67	C	0.571017	-0.387814	0.252315
C68	C	0.571531	-0.337396	0.252310
C69	C	0.571797	-0.312183	0.126226
C70	C	0.572325	-0.261782	0.126238
N71	N	0.572586	-0.236566	0.000162
C72	C	0.572334	-0.261764	-0.125919
C73	C	0.567633	-0.720546	0.126181
C74	C	0.567120	-0.770960	0.126175
C75	C	0.567130	-0.770942	-0.125992
C76	C	0.567647	-0.720527	-0.125985
C77	C	0.567895	-0.695329	0.000105
C78	C	0.573422	-0.155897	-0.125893
C79	C	0.573942	-0.105482	-0.125875
C80	C	0.573929	-0.105504	0.126292
C81	C	0.573412	-0.155915	0.126274
C82	C	0.573157	-0.181110	0.000170
O83	O	0.572602	-0.235679	0.233406
O84	O	0.572598	-0.235679	-0.233137
C85	C	0.570267	-0.463411	-0.125947
C86	C	0.570001	-0.488624	0.000127
C87	C	0.570253	-0.463426	0.126208
C88	C	0.569487	-0.539039	0.000121
C89	C	0.569235	-0.564237	-0.125960
C90	C	0.569497	-0.539021	-0.252036
C91	C	0.570015	-0.488609	-0.252028
C92	C	0.569991	-0.488642	0.252283
C93	C	0.569474	-0.539054	0.252266
C94	C	0.569222	-0.564252	0.126184
C95	C	0.658938	0.057573	0.000183
C96	C	0.712594	0.058115	0.000192
C97	C	0.566325	0.150186	0.000117
C98	C	0.566868	0.203842	0.000094
N99	N	0.570519	0.061781	0.360499
N100	N	0.570547	0.061773	-0.360186
C101	C	0.530395	0.101657	0.580839
C102	C	0.530480	0.101802	0.419671
C103	C	0.620875	0.072412	0.418960
C104	C	0.620655	0.072694	0.580178
C105	C	0.560791	0.011138	0.580429
C106	C	0.559626	0.011487	0.419202
H107	H	0.332334	0.064459	0.228890
N108	N	0.571803	-0.310224	0.388318
H109	H	0.601994	-0.293461	0.393959
H110	H	0.542020	-0.285180	0.393857
H111	H	0.493037	0.095525	0.380147
N112	N	0.538649	0.151612	0.368698
H113	H	0.569211	0.148892	0.310566
H114	H	0.509970	0.165793	0.310498
N115	N	-0.289391	0.058090	0.262260
H116	H	-0.276919	0.027867	0.316555
H117	H	-0.284226	0.087841	0.318097
H118	H	0.332319	0.064460	-0.228630
H119	H	0.100434	0.062080	0.354991
H120	H	-0.282721	0.058166	-0.228560
H121	H	0.040640	0.061456	-0.354657
H122	H	0.574160	-0.084956	-0.228552
H123	H	0.651445	0.044769	0.619188
N124	N	0.632120	0.121591	0.629965
H125	H	0.637268	0.142760	0.547185
H126	H	0.604142	0.137692	0.687637
H127	H	0.571784	-0.316852	-0.354676
H128	H	0.570844	-0.408298	-0.354689
N129	N	0.574198	-0.078315	0.262265
H130	H	0.544127	-0.082938	0.317368
H131	H	0.604101	-0.091251	0.317302
H132	H	0.492833	0.095488	0.619641
N133	N	0.430445	0.065460	-0.261959
H134	H	0.466206	0.065825	-0.242819
H135	H	0.425786	0.035389	-0.316993
H136	H	0.524893	0.000819	0.621159
N137	N	0.632624	0.120754	0.365462
H138	H	0.665091	0.127269	0.403660
H139	H	0.634067	0.119939	0.260531
N140	N	0.567923	-0.693318	-0.261947
H141	H	0.597811	-0.706228	-0.317083
H142	H	0.537836	-0.697944	-0.316961
N143	N	0.198552	0.063066	-0.388007
H144	H	0.234314	0.063433	-0.368890
H145	H	0.193891	0.032996	-0.443044
N146	N	0.538474	0.151167	0.634419
H147	H	0.543770	0.173074	0.553422
H148	H	0.509023	0.165676	0.688997
H149	H	-0.191270	0.059091	-0.228575
N150	N	-0.057472	0.060451	-0.387970
H151	H	-0.033850	0.060690	-0.467835
H152	H	-0.074233	0.030255	-0.393441
H153	H	0.522585	0.003410	0.380993
N154	N	0.661372	0.034936	0.368192
H155	H	0.662605	0.035639	0.263249
H156	H	0.693378	0.042504	0.407139
N157	N	0.566859	-0.798124	-0.261983
H158	H	0.566493	-0.833887	-0.242842
H159	H	0.536971	-0.785161	-0.317044
N160	N	-0.184598	0.059173	0.262263
H161	H	-0.208220	0.058934	0.342127
H162	H	-0.159531	0.029408	0.267779
N163	N	0.566843	-0.798153	0.262164
H164	H	0.567080	-0.774535	0.342030
H165	H	0.536651	-0.814920	0.267651
N166	N	0.570720	-0.415002	0.388301
H167	H	0.600481	-0.440072	0.393960
H168	H	0.570935	-0.391351	0.468088
N169	N	0.093774	0.061988	-0.388006
H170	H	0.117399	0.062224	-0.467864
H171	H	0.077012	0.031793	-0.393474
H172	H	0.567838	-0.700035	0.228864
N173	N	0.595884	-0.029631	0.365881
H174	H	0.619994	-0.016180	0.302634
H175	H	0.613673	-0.046880	0.447005
H176	H	0.573212	-0.176405	-0.228579
N177	N	0.047311	0.061538	0.388319
H178	H	0.023688	0.061297	0.468179
H179	H	0.072380	0.031774	0.393837
H180	H	0.590077	-0.018538	0.618567
H181	H	0.423783	0.065401	0.228867
N182	N	0.573133	-0.183114	0.262259
H183	H	0.573373	-0.159499	0.342131
H184	H	0.542938	-0.199876	0.267740
N185	N	0.570303	-0.461419	-0.388019
H186	H	0.570064	-0.485038	-0.467881
H187	H	0.540539	-0.436351	-0.393531
H188	H	0.569294	-0.559546	-0.354696
N189	N	-0.057476	0.060455	0.388314
H190	H	-0.045010	0.030230	0.442605
H191	H	-0.052306	0.090204	0.444154
N192	N	0.198545	0.063090	0.388302
H193	H	0.174921	0.062848	0.468163
H194	H	0.223613	0.033326	0.393817
H195	H	0.569261	-0.559578	0.354946
H196	H	0.570197	-0.468131	0.354956
