data_functionalizedCrystal
_audit_creation_method	'MofGen! by Chris Wilmer'
_symmetry_space_group_name_H-M	'P1'
_symmetry_Int_Tables_number	1
_symmetry_cell_setting	triclinic
loop_
_symmetry_equiv_pos_as_xyz
  x,y,z
_cell_length_a	19.121102
_cell_length_b	19.121175
_cell_length_c	19.121063
_cell_angle_alpha	85.048230
_cell_angle_beta	89.873098
_cell_angle_gamma	85.212968
loop_
_atom_site_label
_atom_site_type_symbol
_atom_site_fract_x
_atom_site_fract_y
_atom_site_fract_z
Zn1	Zn	1.078480	-0.457776	0.345237
Zn2	Zn	1.068784	-0.344694	0.457452
Zn3	Zn	0.956233	-0.334686	0.334783
Zn4	Zn	0.956186	-0.457304	0.457406
O5	O	1.014921	-0.398615	0.398719
O6	O	1.175477	-0.447161	0.364516
O7	O	1.049816	-0.244725	0.436824
O8	O	0.976527	-0.347024	0.237889
O9	O	1.168354	-0.364080	0.446961
O10	O	1.066341	-0.437457	0.245569
O11	O	0.967125	-0.237373	0.346700
O12	O	0.857943	-0.346566	0.346655
O13	O	0.976446	-0.556008	0.446882
O14	O	0.857908	-0.436653	0.436746
O15	O	1.066295	-0.556354	0.364472
O16	O	1.049770	-0.363622	0.555727
O17	O	0.967044	-0.446357	0.555693
C18	C	0.832442	-0.390473	0.390561
C19	C	0.754377	-0.387007	0.387089
C20	C	0.717696	-0.432214	0.432428
C21	C	0.644346	-0.428961	0.429156
C22	C	0.607678	-0.380496	0.380548
C23	C	0.644364	-0.335287	0.335205
C24	C	0.717713	-0.338545	0.338474
C25	C	0.386212	-0.368321	0.368326
C26	C	0.312858	-0.365066	0.365061
C27	C	0.312845	-0.458740	0.459012
C28	C	0.386195	-0.461990	0.462279
C29	C	0.422875	-0.416784	0.416933
C30	C	0.532702	-0.377168	0.377205
C31	C	0.497850	-0.420116	0.420275
C32	C	1.022447	-0.582473	0.406838
C33	C	1.025654	-0.660822	0.410297
C34	C	0.984110	-0.693802	0.365001
C35	C	0.987121	-0.767419	0.368257
C36	C	1.031680	-0.808055	0.416807
C37	C	1.073225	-0.775070	0.462109
C38	C	1.070210	-0.701454	0.458855
C39	C	1.042933	-1.030520	0.428981
C40	C	1.045947	-1.104141	0.432229
C41	C	0.959841	-1.096485	0.338378
C42	C	0.956833	-1.022868	0.335126
C43	C	0.998376	-0.989889	0.380430
C44	C	1.034760	-0.883304	0.420135
C45	C	0.995292	-0.914642	0.377105
C46	C	1.198112	-0.406789	0.406910
C47	C	1.276177	-0.410273	0.410400
C48	C	1.007370	-0.406040	0.581194
C49	C	1.004204	-0.409244	0.659262
C50	C	1.007466	-0.215472	0.390584
C51	C	1.004403	-0.137122	0.386933
C52	C	1.022521	-0.391177	0.215534
C53	C	1.025760	-0.388007	0.137471
C54	C	1.045825	-0.367712	0.695936
C55	C	1.042852	-0.370729	0.769289
C56	C	0.998255	-0.415274	0.805966
C57	C	0.956634	-0.456810	0.769287
C58	C	0.959610	-0.453797	0.695936
C59	C	0.987115	-0.426530	1.027440
C60	C	0.984139	-0.429539	1.100797
C61	C	1.070359	-0.343458	1.100793
C62	C	1.073329	-0.340445	1.027440
C63	C	1.031710	-0.381984	0.990768
C64	C	0.995214	-0.418357	0.880945
C65	C	1.034755	-0.378904	0.915791
H66	H	0.747577	-0.301736	0.301551
H67	H	1.082235	-1.137226	0.471766
F68	F	0.536876	-0.471695	0.472004
F69	F	0.936664	-0.476944	1.139830
H70	H	0.953225	-0.460351	0.997588
H71	H	1.104244	-0.309640	1.130660
H72	H	1.076752	-1.003678	0.465878
F73	F	0.947752	-0.465764	0.919986
H74	H	1.071039	-0.916398	0.459665
H75	H	0.614503	-0.295829	0.295625
F76	F	0.909174	-0.504223	0.808325
H77	H	0.502838	-0.337707	0.337630
F78	F	1.120803	-0.293042	0.988411
H79	H	1.071069	-0.342638	0.885926
F80	F	0.756715	-0.483794	0.484166
F81	F	0.605311	-0.477077	0.477412
F82	F	1.093287	-0.320296	0.656907
H83	H	0.416046	-0.501454	0.501862
F84	F	0.942877	-0.802516	0.320070
H85	H	0.947830	-0.660721	0.325462
H86	H	0.282973	-0.495546	0.495929
H87	H	0.283005	-0.325604	0.325472
F88	F	0.909409	-0.979625	0.283451
H89	H	1.109502	-0.808162	0.501643
F90	F	0.425240	-0.320210	0.320062
F91	F	0.915630	-1.131589	0.290168
H92	H	0.959010	-0.881553	0.337578
F93	F	1.114425	-0.666355	0.507069
H94	H	1.076743	-0.336909	0.799145
F95	F	0.915314	-0.498002	0.656905
