data_functionalizedCrystal
_audit_creation_method	'MofGen! by Chris Wilmer'
_symmetry_space_group_name_H-M	'P1'
_symmetry_Int_Tables_number	1
_symmetry_cell_setting	triclinic
loop_
_symmetry_equiv_pos_as_xyz
  x,y,z
_cell_length_a	16.625547
_cell_length_b	16.120484
_cell_length_c	16.120297
_cell_angle_alpha	95.614431
_cell_angle_beta	92.874036
_cell_angle_gamma	92.925712
loop_
_atom_site_label
_atom_site_type_symbol
_atom_site_fract_x
_atom_site_fract_y
_atom_site_fract_z
Zn1	Zn	1.191152	-0.356754	-0.489547
Zn2	Zn	1.691152	0.143246	0.010453
Zn3	Zn	1.191051	-0.489444	-0.356858
Zn4	Zn	1.691051	0.010556	0.143142
Zn5	Zn	1.063517	-0.349689	-0.349783
Zn6	Zn	1.563517	0.150311	0.150217
Zn7	Zn	1.049081	-0.496484	-0.496569
Zn8	Zn	1.549081	0.003516	0.003431
O9	O	1.123700	-0.423093	-0.423189
O10	O	1.623700	0.076907	0.076811
O11	O	1.303970	-0.374366	-0.471968
O12	O	1.803970	0.125634	0.028032
O13	O	1.180132	-0.465002	-0.238958
O14	O	1.680132	0.034998	0.261042
O15	O	1.086532	-0.233661	-0.362424
O16	O	1.586532	0.266339	0.137576
O17	O	1.303895	-0.471852	-0.374481
O18	O	1.803895	0.028148	0.125519
O19	O	1.180306	-0.238852	-0.465108
O20	O	1.680306	0.261148	0.034892
O21	O	1.086434	-0.362325	-0.233760
O22	O	1.586434	0.137675	0.266240
O23	O	0.948771	-0.369152	-0.369233
O24	O	1.448771	0.130848	0.130767
O25	O	1.061928	-0.483852	-0.612599
O26	O	1.561928	0.016148	-0.112599
O27	O	0.938165	-0.477001	-0.477076
O28	O	1.438165	0.022999	0.022924
O29	O	1.166307	-0.381193	-0.607440
O30	O	1.666307	0.118807	-0.107440
O31	O	1.166134	-0.607343	-0.381290
O32	O	1.666134	-0.107343	0.118710
O33	O	1.061829	-0.612515	-0.483935
O34	O	1.561829	-0.112515	0.016065
C35	C	0.914212	-0.423075	-0.423149
C36	C	1.414212	0.076925	0.076851
C37	C	0.824590	-0.423088	-0.423152
C38	C	1.324590	0.076912	0.076848
C39	C	0.751807	-0.423090	-0.423163
C40	C	1.251807	0.076910	0.076837
C41	C	0.660498	-0.423096	-0.423184
C42	C	1.160498	0.076904	0.076816
C43	C	0.587720	-0.423104	-0.423206
C44	C	1.087720	0.076896	0.076794
C45	C	0.496404	-0.423111	-0.423226
C46	C	0.996404	0.076889	0.076774
C47	C	1.112425	-0.640258	-0.434160
C48	C	1.612425	-0.140258	0.065840
C49	C	1.107674	-0.733163	-0.438882
C50	C	1.607674	-0.233163	0.061118
C51	C	1.099003	-0.903263	-0.447519
C52	C	1.599003	-0.403263	0.052481
C53	C	1.148542	-0.942083	-0.398873
C54	C	1.648542	-0.442083	0.101127
C55	C	1.143717	-1.036732	-0.403679
C56	C	1.643717	-0.536732	0.096321
C57	C	1.103826	-0.808605	-0.442715
C58	C	1.603826	-0.308605	0.057285
C59	C	1.334006	-0.423112	-0.423230
C60	C	1.834006	0.076888	0.076770
C61	C	1.423626	-0.423120	-0.423248
C62	C	1.923626	0.076880	0.076752
C63	C	1.112518	-0.434096	-0.641194
C64	C	1.612518	0.065904	-0.141194
C65	C	1.107753	-0.438784	-0.734095
C66	C	1.607753	0.061216	-0.234095
C67	C	1.135041	-0.205081	-0.412193
C68	C	1.635041	0.294919	0.087807
C69	C	1.139873	-0.112177	-0.407508
C70	C	1.639873	0.387823	0.092492
C71	C	1.099025	-0.447326	-0.904184
C72	C	1.599025	0.052674	-0.404184
C73	C	1.148547	-0.398609	-0.943033
C74	C	1.648547	0.101391	-0.443033
C75	C	1.143691	-0.403362	-1.037677
C76	C	1.643691	0.096638	-0.537677
C77	C	1.103880	-0.442574	-0.809532
C78	C	1.603880	0.057426	-0.309532
C79	C	1.134888	-0.412073	-0.206029
C80	C	1.634888	0.087927	0.293971
C81	C	1.139822	-0.407149	-0.113117
C82	C	1.639822	0.092851	0.386883
H83	H	1.194576	-0.904232	-0.353615
H84	H	1.694576	-0.404232	0.146385
Br85	Br	1.022278	-0.966346	-0.522946
Br86	Br	1.522278	-0.466346	-0.022946
H87	H	1.052984	-0.492600	-0.942002
H88	H	1.552984	0.007400	-0.442002
H89	H	1.194592	-0.353331	-0.905213
H90	H	1.694592	0.146669	-0.405213
