data_functionalizedCrystal
_audit_creation_method	'MofGen! by Chris Wilmer'
_symmetry_space_group_name_H-M	'P1'
_symmetry_Int_Tables_number	1
_symmetry_cell_setting	triclinic
loop_
_symmetry_equiv_pos_as_xyz
  x,y,z
_cell_length_a	14.044220
_cell_length_b	11.792254
_cell_length_c	10.268362
_cell_angle_alpha	89.998485
_cell_angle_beta	90.000071
_cell_angle_gamma	88.693738
loop_
_atom_site_label
_atom_site_type_symbol
_atom_site_fract_x
_atom_site_fract_y
_atom_site_fract_z
O1	O	-1.259125	-0.273764	0.108163
O2	O	-0.759125	0.226236	0.608163
O3	O	-0.983104	-0.263885	0.108196
O4	O	-0.483104	0.236115	0.608196
O5	O	-1.127806	-0.104283	0.108169
O6	O	-0.627806	0.395717	0.608169
O7	O	-1.114423	-0.433366	0.108189
O8	O	-0.614423	0.066634	0.608189
O9	O	-1.127793	-0.104287	-0.108431
O10	O	-0.627793	0.395713	0.391569
O11	O	-0.983090	-0.263889	-0.108405
O12	O	-0.483090	0.236111	0.391595
O13	O	-1.259111	-0.273768	-0.108438
O14	O	-0.759111	0.226232	0.391562
Cu15	Cu	-1.121099	-0.268829	-0.128199
Cu16	Cu	-0.621099	0.231171	0.371801
Cu17	Cu	-1.121116	-0.268824	0.127957
Cu18	Cu	-0.621116	0.231176	0.627957
O19	O	-1.114409	-0.433370	-0.108411
O20	O	-0.614409	0.066630	0.391589
C21	C	-0.947761	-0.259563	-0.000100
C22	C	-0.447761	0.240437	0.499900
C23	C	-0.842468	-0.246664	-0.000088
C24	C	-0.342468	0.253336	0.499912
C25	C	-1.294455	-0.278090	-0.000139
C26	C	-0.794455	0.221910	0.499861
C27	C	-1.399747	-0.290989	-0.000142
C28	C	-0.899747	0.209011	0.499858
C29	C	-1.126956	-0.061915	-0.000130
C30	C	-0.626956	0.438085	0.499870
C31	C	-1.124433	0.064335	-0.000129
C32	C	-0.624433	0.564335	0.499871
C33	C	-0.649685	-0.223082	-0.000115
C34	C	-0.149685	0.276918	0.499885
C35	C	-0.592525	-0.314566	-0.000115
C36	C	-0.092525	0.185434	0.499885
C37	C	-0.485254	-0.301445	-0.000130
C38	C	0.014746	0.198555	0.499870
C39	C	-0.756966	-0.236201	-0.000100
C40	C	-0.256966	0.263799	0.499900
C41	C	-1.115259	-0.475738	-0.000108
C42	C	-0.615259	0.024262	0.499892
C43	C	-1.117782	-0.601988	-0.000101
C44	C	-0.617782	-0.101988	0.499899
C45	C	-1.122383	0.166864	-0.000124
C46	C	-0.622383	0.666864	0.499876
C47	C	-1.119819	0.295491	-0.000112
C48	C	-0.619819	0.795491	0.499888
N49	N	-1.121095	-0.268833	-0.308364
N50	N	-0.621095	0.231167	0.191636
C51	C	-1.121102	-0.268834	-0.426207
C52	C	-0.621102	0.231166	0.073793
C53	C	-1.121113	-0.268825	-0.574045
C54	C	-0.621113	0.231175	-0.074045
N55	N	-1.121128	-0.268812	0.308123
N56	N	-0.621128	0.231188	0.808123
H57	H	-0.624152	-0.402743	-0.000103
H58	H	-0.124152	0.097257	0.499897
Br59	Br	-0.596973	-0.076122	-0.000131
Br60	Br	-0.096973	0.423878	0.499869
