data_functionalizedCrystal
_audit_creation_method	'MofGen! by Chris Wilmer'
_symmetry_space_group_name_H-M	'P1'
_symmetry_Int_Tables_number	1
_symmetry_cell_setting	triclinic
loop_
_symmetry_equiv_pos_as_xyz
  x,y,z
_cell_length_a	17.699083
_cell_length_b	27.731996
_cell_length_c	16.776229
_cell_angle_alpha	89.987372
_cell_angle_beta	89.998886
_cell_angle_gamma	82.952202
loop_
_atom_site_label
_atom_site_type_symbol
_atom_site_fract_x
_atom_site_fract_y
_atom_site_fract_z
O1	O	1.003522	0.061128	-0.066187
O2	O	0.783071	0.069081	-0.066214
O3	O	0.900164	-0.005269	-0.066183
O4	O	0.886429	0.135479	-0.066219
O5	O	0.900148	-0.005274	0.066394
O6	O	0.783055	0.069077	0.066362
O7	O	1.003506	0.061124	0.066390
Zn8	Zn	0.893278	0.065100	0.087425
Zn9	Zn	0.893299	0.065106	-0.087250
O10	O	0.886414	0.135474	0.066358
C11	C	0.754869	0.068794	0.000071
C12	C	0.670858	0.067939	0.000061
C13	C	0.899874	-0.023280	0.000108
C14	C	0.899024	-0.076939	0.000116
C15	C	0.621840	0.111581	0.000050
C16	C	0.542904	0.110775	0.000060
C17	C	0.512988	0.066326	0.000076
C18	C	0.562013	0.022681	0.000090
C19	C	0.640947	0.023488	0.000085
C20	C	0.243679	0.019427	0.000110
C21	C	0.164739	0.018623	0.000113
C22	C	0.145636	0.106714	0.000086
C23	C	0.224571	0.107521	0.000081
C24	C	0.273588	0.063876	0.000098
C25	C	0.359180	0.064750	0.000089
C26	C	0.427398	0.065451	0.000080
C27	C	0.893686	-0.409672	-0.072191
C28	C	0.890459	-0.611342	-0.072205
O29	O	0.890016	-0.637412	-0.133666
N30	N	0.890049	-0.636563	0.000062
C31	C	0.890442	-0.611363	0.072337
O32	O	0.890012	-0.637442	0.133804
C33	C	0.893664	-0.409694	0.072351
C34	C	0.894080	-0.384476	0.000079
C35	C	0.894102	-0.384454	-0.144456
C36	C	0.894912	-0.334040	-0.144452
C37	C	0.895307	-0.308844	-0.072182
C38	C	0.894891	-0.334062	0.000083
C39	C	0.894051	-0.384494	0.144625
C40	C	0.894854	-0.334073	0.144622
C41	C	0.895271	-0.308856	0.072351
C42	C	0.896097	-0.258451	0.072358
N43	N	0.896506	-0.233230	0.000091
C44	C	0.896111	-0.258427	-0.072179
C45	C	0.888752	-0.717242	0.072325
C46	C	0.887948	-0.767660	0.072322
C47	C	0.887963	-0.767635	-0.072221
C48	C	0.888773	-0.717217	-0.072217
C49	C	0.889161	-0.692021	0.000058
C50	C	0.897815	-0.152553	-0.072164
C51	C	0.898629	-0.102135	-0.072154
C52	C	0.898610	-0.102164	0.072388
C53	C	0.897800	-0.152578	0.072378
C54	C	0.897400	-0.177771	0.000095
O55	O	0.896532	-0.232349	0.133787
O56	O	0.896525	-0.232338	-0.133637
C57	C	0.892875	-0.460086	-0.072195
C58	C	0.892459	-0.485304	0.000070
C59	C	0.892854	-0.460108	0.072340
C60	C	0.891655	-0.535721	0.000067
C61	C	0.891260	-0.560917	-0.072203
C62	C	0.891669	-0.535696	-0.144469
C63	C	0.892480	-0.485282	-0.144465
C64	C	0.892444	-0.485329	0.144607
C65	C	0.891634	-0.535743	0.144597
C66	C	0.891240	-0.560939	0.072327
C67	C	1.031708	0.061411	0.000103
C68	C	1.115719	0.062266	0.000107
C69	C	0.886703	0.153485	0.000065
C70	C	0.887553	0.207144	0.000052
N71	N	0.893270	0.065095	0.206636
N72	N	0.893313	0.065106	-0.206461
C73	C	0.945134	0.032186	0.248368
C74	C	0.945139	0.032186	0.331820
C75	C	0.893282	0.065097	0.373539
C76	C	0.841412	0.098008	0.331802
C77	C	0.841405	0.098005	0.248352
C78	C	0.841439	0.098017	0.668349
C79	C	0.841452	0.098018	0.751806
C80	C	0.945173	0.032198	0.751818
C81	C	0.945166	0.032195	0.668367
C82	C	0.893294	0.065104	0.626637
C83	C	0.893289	0.065103	0.536149
C84	C	0.893289	0.065100	0.464026
H85	H	0.646191	0.147777	0.000036
H86	H	0.887620	-0.788189	0.131172
C87	C	0.892887	-0.457620	0.224108
H88	H	0.892533	-0.479866	0.267141
H89	H	0.849052	-0.434209	0.227120
H90	H	0.937364	-0.441699	0.227119
H91	H	0.537649	-0.013510	0.000114
C92	C	0.488984	0.158780	0.000040
H93	H	0.437688	0.151935	0.000053
H94	H	0.497993	0.177008	-0.046201
H95	H	0.497996	0.177011	0.046269
C96	C	1.002220	-0.003997	0.622476
H97	H	0.994796	0.000721	0.566799
H98	H	0.994407	-0.036255	0.636159
H99	H	1.052665	0.001225	0.636151
H100	H	0.889072	-0.696733	0.131183
C101	C	0.784405	0.134218	0.797700
H102	H	0.791846	0.129509	0.853376
H103	H	0.733956	0.129007	0.784037
H104	H	0.792232	0.166476	0.784008
C105	C	1.002227	-0.004007	0.797719
H106	H	1.033114	-0.023604	0.760919
H107	H	0.975250	-0.024108	0.830284
H108	H	1.033526	0.013360	0.830261
H109	H	0.898970	-0.081605	-0.131008
C110	C	1.002177	-0.004017	0.202483
H111	H	1.033060	-0.023619	0.239292
H112	H	1.033470	0.013344	0.169916
H113	H	0.975186	-0.024120	0.169944
H114	H	0.105716	0.142252	0.000076
H115	H	0.889111	-0.696688	-0.131067
H116	H	0.283581	-0.016112	0.000125
C117	C	0.891231	-0.563418	-0.223964
H118	H	0.890683	-0.597055	-0.213608
H119	H	0.935517	-0.558897	-0.253659
H120	H	0.847206	-0.551411	-0.253660
H121	H	0.680858	-0.012050	0.000093
H122	H	0.897485	-0.173060	-0.131024
C123	C	0.891172	-0.563479	0.224099
H124	H	0.890635	-0.597115	0.213754
H125	H	0.847146	-0.551474	0.253780
H126	H	0.935458	-0.558964	0.253804
C127	C	0.887522	-0.795356	-0.151716
H128	H	0.886977	-0.828993	-0.141360
H129	H	0.931805	-0.790833	-0.181415
H130	H	0.843493	-0.783350	-0.181408
H131	H	0.895249	-0.313512	-0.203303
C132	C	0.895285	-0.306361	0.224127
H133	H	0.894927	-0.328604	0.267163
H134	H	0.851448	-0.282952	0.227128
H135	H	0.939760	-0.290437	0.227142
H136	H	0.987370	0.005389	0.365797
C137	C	0.131829	-0.030271	0.000133
H138	H	0.077798	-0.024499	0.000123
H139	H	0.148687	-0.048238	0.046371
H140	H	0.148690	-0.048236	-0.046100
C141	C	0.784389	0.134219	0.622457
H142	H	0.753514	0.153823	0.659258
H143	H	0.753088	0.116857	0.589914
H144	H	0.811373	0.154320	0.589892
C145	C	0.257478	0.156413	0.000061
H146	H	0.311509	0.150643	0.000053
H147	H	0.240619	0.174379	0.046288
H148	H	0.240615	0.174379	-0.046182
H149	H	0.799185	0.124803	0.365775
C150	C	0.784357	0.134205	0.202444
H151	H	0.791775	0.129487	0.146769
H152	H	0.792185	0.166461	0.216103
H153	H	0.733910	0.128992	0.216129
C154	C	0.897343	-0.180319	0.151874
H155	H	0.897691	-0.158090	0.194915
H156	H	0.941175	-0.203733	0.154889
H157	H	0.852863	-0.196239	0.154867
C158	C	0.893675	-0.412163	-0.223960
H159	H	0.894045	-0.389917	-0.266991
H160	H	0.849212	-0.428093	-0.226987
H161	H	0.937524	-0.435567	-0.226959
C162	C	0.899040	-0.074441	0.151879
H163	H	0.899573	-0.040803	0.141524
H164	H	0.943053	-0.086445	0.181588
H165	H	0.854741	-0.078965	0.181560
H166	H	0.893713	-0.405018	0.203477
H167	H	0.892819	-0.464754	-0.203316
