data_functionalizedCrystal
_audit_creation_method	'MofGen! by Chris Wilmer'
_symmetry_space_group_name_H-M	'P1'
_symmetry_Int_Tables_number	1
_symmetry_cell_setting	triclinic
loop_
_symmetry_equiv_pos_as_xyz
  x,y,z
_cell_length_a	19.805407
_cell_length_b	19.805405
_cell_length_c	19.805399
_cell_angle_alpha	90.029301
_cell_angle_beta	90.017803
_cell_angle_gamma	90.023727
loop_
_atom_site_label
_atom_site_type_symbol
_atom_site_fract_x
_atom_site_fract_y
_atom_site_fract_z
Zn1	Zn	1.034736	-0.269527	0.382680
Zn2	Zn	1.034650	-0.382716	0.269488
Zn3	Zn	0.921550	-0.269541	0.269508
Zn4	Zn	0.921514	-0.382674	0.382638
O5	O	0.978113	-0.326115	0.326078
O6	O	1.129441	-0.284554	0.367674
O7	O	1.019627	-0.367726	0.174774
O8	O	0.936615	-0.174822	0.284546
O9	O	1.129378	-0.367713	0.284512
O10	O	1.019772	-0.174813	0.367693
O11	O	0.936533	-0.284576	0.174788
O12	O	0.826829	-0.284536	0.284506
O13	O	0.936553	-0.367642	0.477360
O14	O	0.826802	-0.367655	0.367622
O15	O	1.019737	-0.284514	0.477391
O16	O	1.019592	-0.477427	0.284472
O17	O	0.936471	-0.477397	0.367603
C18	C	0.802257	-0.326093	0.326062
C19	C	0.727025	-0.326101	0.326071
C20	C	0.691714	-0.282876	0.369439
C21	C	0.621025	-0.282880	0.369442
C22	C	0.585649	-0.326112	0.326079
C23	C	0.620965	-0.369338	0.282706
C24	C	0.691652	-0.369330	0.282701
C25	C	0.335892	-0.369368	0.282727
C26	C	0.265199	-0.369374	0.282737
C27	C	0.265265	-0.282918	0.369468
C28	C	0.335952	-0.282910	0.369462
C29	C	0.371262	-0.326134	0.326087
C30	C	0.447910	-0.326128	0.326084
C31	C	0.509002	-0.326121	0.326085
C32	C	0.978036	-0.501971	0.326046
C33	C	0.978066	-0.577203	0.326054
C34	C	1.021389	-0.612540	0.282813
C35	C	1.021418	-0.683228	0.282828
C36	C	0.978119	-0.718578	0.326081
C37	C	0.934794	-0.683236	0.369327
C38	C	0.934769	-0.612549	0.369315
C39	C	0.934894	-0.968309	0.369377
C40	C	0.934921	-1.039001	0.369384
C41	C	1.021542	-1.038989	0.282890
C42	C	1.021517	-0.968302	0.282878
C43	C	0.978195	-0.932965	0.326126
C44	C	0.978165	-0.856317	0.326110
C45	C	0.978145	-0.795225	0.326094
C46	C	1.154655	-0.326136	0.326095
C47	C	1.229887	-0.326146	0.326102
C48	C	0.978151	-0.326072	0.502621
C49	C	0.978167	-0.326054	0.577853
C50	C	0.978207	-0.149572	0.326126
C51	C	0.978248	-0.074340	0.326146
C52	C	0.978114	-0.326108	0.150222
C53	C	0.978229	-0.325936	0.074991
C54	C	1.021481	-0.282767	0.613214
C55	C	1.021488	-0.282747	0.683903
C56	C	0.978184	-0.326018	0.719229
C57	C	0.934864	-0.369308	0.683863
C58	C	0.934854	-0.369323	0.613176
C59	C	0.934902	-0.369244	0.968936
C60	C	0.934917	-0.369227	1.039628
C61	C	1.021536	-0.282668	1.039663
C62	C	1.021527	-0.282684	0.968976
C63	C	0.978205	-0.325970	0.933616
C64	C	0.978197	-0.325990	0.856968
C65	C	0.978194	-0.326002	0.795876
H66	H	0.364632	-0.404564	0.247409
H67	H	0.720401	-0.404528	0.247386
H68	H	0.592156	-0.404535	0.247397
C69	C	0.227014	-0.235873	0.416519
C70	C	0.244240	-0.168884	0.401918
C71	C	0.209027	-0.125532	0.445254
H72	H	0.179838	-0.241972	0.410357
H73	H	0.238629	-0.245801	0.461988
H74	H	0.232621	-0.158960	0.356460
H75	H	0.291410	-0.162763	0.408084
H76	H	0.220641	-0.135460	0.490723
H77	H	0.161853	-0.131638	0.439089
H78	H	0.220714	-0.080076	0.435357
H79	H	1.056809	-0.247420	1.068462
C80	C	1.068525	-0.235710	0.574985
C81	C	1.106446	-0.197784	0.621087
C82	C	1.149782	-0.154420	0.585898
H83	H	1.098060	-0.261535	0.547405
H84	H	1.042660	-0.206186	0.547429
H85	H	1.132309	-0.227305	0.648631
H86	H	1.076929	-0.171946	0.648668
H87	H	1.123917	-0.124895	0.558341
H88	H	1.179312	-0.180250	0.558319
H89	H	1.175512	-0.128677	0.617172
C90	C	0.887932	-0.416318	1.077896
C91	C	0.902613	-0.483292	1.060670
C92	C	0.859342	-0.526688	1.095901
H93	H	0.894102	-0.410202	1.125069
H94	H	0.842448	-0.406445	1.066295
H95	H	0.948087	-0.493162	1.072276
H96	H	0.896439	-0.489429	1.013503
H97	H	0.813858	-0.516816	1.084300
H98	H	0.865515	-0.520567	1.143073
H99	H	0.869293	-0.572135	1.084214
H100	H	1.056644	-0.583763	0.247589
C101	C	1.068478	-0.721473	0.235803
C102	C	1.106375	-0.675386	0.197906
C103	C	1.149730	-0.710591	0.154572
H104	H	1.098027	-0.749009	0.261649
H105	H	1.042627	-0.749074	0.206259
H106	H	1.132224	-0.647796	0.227447
H107	H	1.076844	-0.647848	0.172047
H108	H	1.123879	-0.738193	0.125028
H109	H	1.179274	-0.738126	0.180423
H110	H	1.175443	-0.679327	0.128849
H111	H	1.056773	-0.939522	0.247655
H112	H	0.899637	-0.404501	0.940155
H113	H	1.056792	-0.247450	0.940217
H114	H	0.899618	-0.939544	0.404590
C115	C	0.887809	-0.721735	0.416214
C116	C	0.897088	-0.791204	0.406957
C117	C	0.853807	-0.826689	0.450130
H118	H	0.897640	-0.710195	0.461727
H119	H	0.842319	-0.710229	0.406258
H120	H	0.942567	-0.802705	0.416918
H121	H	0.887252	-0.802764	0.361454
H122	H	0.808318	-0.815183	0.440174
H123	H	0.863642	-0.815143	0.495640
H124	H	0.860093	-0.873827	0.443851
H125	H	0.899602	-0.404538	0.712631
C126	C	0.887661	-0.574301	0.416291
C127	C	0.849735	-0.620387	0.454162
C128	C	0.806329	-0.585179	0.497442
H129	H	0.913455	-0.546687	0.445859
H130	H	0.858137	-0.546778	0.390387
H131	H	0.879255	-0.647898	0.480064
H132	H	0.823928	-0.648003	0.424612
H133	H	0.776805	-0.557656	0.471539
H134	H	0.832128	-0.557566	0.527006
H135	H	0.780587	-0.616443	0.523139
C136	C	1.068573	-1.077477	0.236026
C137	C	1.059352	-1.146948	0.245311
C138	C	1.102674	-1.182422	0.202164
H139	H	1.058744	-1.066020	0.190506
H140	H	1.114050	-1.065880	0.245989
H141	H	1.013885	-1.158541	0.235343
H142	H	1.069186	-1.158426	0.290822
H143	H	1.148151	-1.170825	0.212127
H144	H	1.092841	-1.170960	0.156647
H145	H	1.096427	-1.229562	0.208462
C146	C	0.887853	-0.416249	0.574659
C147	C	0.897099	-0.406988	0.505193
C148	C	0.853804	-0.450197	0.469692
H149	H	0.897692	-0.461753	0.586149
H150	H	0.842369	-0.406327	0.586200
H151	H	0.942573	-0.416915	0.493657
H152	H	0.887256	-0.361493	0.493683
H153	H	0.808319	-0.440275	0.481234
H154	H	0.863646	-0.495698	0.481187
H155	H	0.860066	-0.443915	0.422556
C156	C	0.729997	-0.235865	0.416547
C157	C	0.683939	-0.198000	0.454515
C158	C	0.719179	-0.154678	0.497912
H159	H	0.757577	-0.261718	0.446050
H160	H	0.757557	-0.206300	0.390724
H161	H	0.656391	-0.227561	0.480337
H162	H	0.656358	-0.172134	0.425030
H163	H	0.746739	-0.125113	0.472088
H164	H	0.746758	-0.180536	0.527410
H165	H	0.687934	-0.128977	0.523673
H166	H	0.899663	-1.067781	0.404611
H167	H	0.592278	-0.247684	0.404757
C168	C	1.068435	-0.235767	0.722417
C169	C	1.059158	-0.244993	0.791882
C170	C	1.102384	-0.201713	0.827382
H171	H	1.113936	-0.245631	0.710925
H172	H	1.058539	-0.190279	0.710875
H173	H	1.069059	-0.290469	0.803420
H174	H	1.013666	-0.235123	0.803394
H175	H	1.092488	-0.156225	0.815840
H176	H	1.147882	-0.211581	0.815885
H177	H	1.096091	-0.207962	0.874518
C178	C	0.374395	-0.236085	0.416625
C179	C	0.414969	-0.274461	0.459947
C180	C	0.450383	-0.231347	0.503408
H181	H	0.402024	-0.206544	0.390863
H182	H	0.343261	-0.210353	0.442494
H183	H	0.446099	-0.300182	0.434081
H184	H	0.387356	-0.304000	0.485724
H185	H	0.419250	-0.205615	0.529276
H186	H	0.478009	-0.201808	0.477640
H187	H	0.477912	-0.257379	0.532810
C188	C	0.226911	-0.416336	0.235578
C189	C	0.272962	-0.454175	0.197576
C190	C	0.237716	-0.497435	0.154123
H191	H	0.199336	-0.445926	0.261341
H192	H	0.199346	-0.390419	0.206104
H193	H	0.300517	-0.480090	0.227046
H194	H	0.300539	-0.424603	0.171799
H195	H	0.210150	-0.471518	0.124650
H196	H	0.210142	-0.527020	0.179892
H197	H	0.268956	-0.523109	0.128330
