data_functionalizedCrystal
_audit_creation_method	'MofGen! by Chris Wilmer'
_symmetry_space_group_name_H-M	'P1'
_symmetry_Int_Tables_number	1
_symmetry_cell_setting	triclinic
loop_
_symmetry_equiv_pos_as_xyz
  x,y,z
_cell_length_a	16.625547
_cell_length_b	18.215405
_cell_length_c	18.215399
_cell_angle_alpha	90.030551
_cell_angle_beta	90.023923
_cell_angle_gamma	90.024822
loop_
_atom_site_label
_atom_site_type_symbol
_atom_site_fract_x
_atom_site_fract_y
_atom_site_fract_z
Zn1	Zn	1.232660	-0.292993	0.416183
Zn2	Zn	1.565993	0.040340	0.749516
Zn3	Zn	1.899326	0.373674	1.082850
Zn4	Zn	1.232559	-0.416064	0.293111
Zn5	Zn	1.565893	-0.082731	0.626444
Zn6	Zn	1.899226	0.250602	0.959778
Zn7	Zn	1.097824	-0.293016	0.293121
Zn8	Zn	1.431157	0.040317	0.626455
Zn9	Zn	1.764490	0.373651	0.959788
Zn10	Zn	1.097786	-0.416022	0.416127
Zn11	Zn	1.431120	-0.082689	0.749460
Zn12	Zn	1.764453	0.250644	1.082794
O13	O	1.165207	-0.354524	0.354636
O14	O	1.498541	-0.021191	0.687969
O15	O	1.831874	0.312143	1.021302
O16	O	1.345479	-0.309327	0.399876
O17	O	1.678812	0.024007	0.733209
O18	O	2.012146	0.357340	1.066543
O19	O	1.214660	-0.399769	0.190128
O20	O	1.547993	-0.066436	0.523461
O21	O	1.881327	0.266898	0.856795
O22	O	1.115768	-0.190029	0.309474
O23	O	1.449101	0.143305	0.642807
O24	O	1.782434	0.476638	0.976140
O25	O	1.345405	-0.399747	0.309456
O26	O	1.678738	-0.066413	0.642789
O27	O	2.012072	0.266920	0.976122
O28	O	1.214831	-0.190012	0.399886
O29	O	1.548164	0.143322	0.733220
O30	O	1.881498	0.476655	1.066553
O31	O	1.115670	-0.309366	0.190136
O32	O	1.449004	0.023967	0.523469
O33	O	1.782337	0.357301	0.856802
O34	O	0.984986	-0.309325	0.309419
O35	O	1.318320	0.024008	0.642753
O36	O	1.651653	0.357342	0.976086
O37	O	1.115704	-0.399675	0.519119
O38	O	1.449037	-0.066342	0.852452
O39	O	1.782371	0.266992	1.185786
O40	O	0.984959	-0.399697	0.399791
O41	O	1.318292	-0.066364	0.733125
O42	O	1.651626	0.266969	1.066458
O43	O	1.214795	-0.309286	0.519160
O44	O	1.548128	0.024047	0.852493
O45	O	1.881462	0.357381	1.185826
O46	O	1.214624	-0.519043	0.309402
O47	O	1.547957	-0.185710	0.642735
O48	O	1.881291	0.147624	0.976068
O49	O	1.115607	-0.519012	0.399781
O50	O	1.448940	-0.185679	0.733114
O51	O	1.782273	0.147655	1.066448
C52	C	0.955716	-0.354510	0.354601
C53	C	1.289050	-0.021176	0.687934
C54	C	1.622383	0.312157	1.021268
C55	C	0.866095	-0.354521	0.354603
C56	C	1.199429	-0.021188	0.687937
C57	C	1.532762	0.312145	1.021270
C58	C	1.165122	-0.545730	0.354600
C59	C	1.498456	-0.212397	0.687934
C60	C	1.831789	0.120936	1.021267
C61	C	1.165160	-0.627529	0.354610
C62	C	1.498493	-0.294196	0.687943
C63	C	1.831826	0.039138	1.021276
C64	C	1.216839	-0.815715	0.307636
C65	C	1.550172	-0.482381	0.640969
C66	C	1.883505	-0.149048	0.974302
C67	C	1.216875	-0.892573	0.307654
C68	C	1.550208	-0.559240	0.640987
C69	C	1.883542	-0.225907	0.974320
C70	C	1.113679	-0.892581	0.401688
C71	C	1.447012	-0.559248	0.735022
C72	C	1.780346	-0.225914	1.068355
C73	C	1.113648	-0.815724	0.401674
C74	C	1.446981	-0.482390	0.735007
C75	C	1.780314	-0.149057	1.068340
C76	C	1.165226	-0.777293	0.354643
C77	C	1.498560	-0.443959	0.687977
C78	C	1.831893	-0.110626	1.021310
C79	C	1.165294	-0.931009	0.354676
C80	C	1.498627	-0.597675	0.688009
C81	C	1.831960	-0.264342	1.021342
C82	C	1.165332	-1.014342	0.354695
C83	C	1.498666	-0.681009	0.688029
C84	C	1.831999	-0.347676	1.021362
C85	C	1.165189	-0.693954	0.354624
C86	C	1.498522	-0.360620	0.687958
C87	C	1.831856	-0.027287	1.021291
C88	C	0.793313	-0.354523	0.354613
C89	C	1.126646	-0.021189	0.687946
C90	C	1.459980	0.312144	1.021279
C91	C	0.702004	-0.354527	0.354631
C92	C	1.035338	-0.021193	0.687964
C93	C	1.368671	0.312140	1.021298
C94	C	0.629228	-0.354533	0.354650
C95	C	0.962561	-0.021200	0.687983
C96	C	1.295895	0.312133	1.021316
C97	C	0.537914	-0.354538	0.354667
C98	C	0.871247	-0.021205	0.688001
C99	C	1.204580	0.312128	1.021334
C100	C	1.375516	-0.354539	0.354671
C101	C	1.708850	-0.021205	0.688004
C102	C	2.042183	0.312128	1.021338
C103	C	1.465137	-0.354545	0.354686
C104	C	1.798471	-0.021212	0.688019
C105	C	2.131804	0.312122	1.021353
C106	C	1.165256	-0.354473	0.546589
C107	C	1.498590	-0.021140	0.879922
C108	C	1.831923	0.312194	1.213255
C109	C	1.165277	-0.354452	0.628388
C110	C	1.498611	-0.021118	0.961721
C111	C	1.831944	0.312215	1.295054
C112	C	1.165315	-0.162571	0.354687
C113	C	1.498648	0.170762	0.688021
C114	C	1.831981	0.504096	1.021354
C115	C	1.165361	-0.080772	0.354709
C116	C	1.498694	0.252561	0.688043
C117	C	1.832027	0.585895	1.021376
C118	C	1.165205	-0.354521	0.163429
C119	C	1.498538	-0.021188	0.496763
C120	C	1.831871	0.312145	0.830096
C121	C	1.165340	-0.354336	0.081631
C122	C	1.498673	-0.021002	0.414964
C123	C	1.832007	0.312331	0.748298
C124	C	1.216893	-0.307342	0.816604
C125	C	1.550226	0.025991	1.149937
C126	C	1.883559	0.359325	1.483271
C127	C	1.216902	-0.307320	0.893463
C128	C	1.550236	0.026013	1.226796
C129	C	1.883569	0.359346	1.560130
C130	C	1.113719	-0.401447	0.893409
C131	C	1.447053	-0.068114	1.226742
C132	C	1.780386	0.265219	1.560076
C133	C	1.113706	-0.401464	0.816552
C134	C	1.447039	-0.068131	1.149885
C135	C	1.780373	0.265202	1.483218
C136	C	1.165297	-0.354413	0.778151
C137	C	1.498631	-0.021080	1.111484
C138	C	1.831964	0.312254	1.444818
C139	C	1.165320	-0.354374	0.931867
C140	C	1.498653	-0.021041	1.265201
C141	C	1.831987	0.312292	1.598534
C142	C	1.165330	-0.354351	1.015201
C143	C	1.498663	-0.021018	1.348534
C144	C	1.831997	0.312315	1.681868
C145	C	1.165286	-0.354435	0.694812
C146	C	1.498620	-0.021101	1.028145
C147	C	1.831953	0.312232	1.361479
H148	H	1.258839	-0.784426	0.269342
H149	H	1.592172	-0.451092	0.602675
H150	H	1.925505	-0.117759	0.936008
O151	O	1.267083	-0.261737	0.779267
O152	O	1.600417	0.071597	1.112600
O153	O	1.933750	0.404930	1.445934
C154	C	1.319122	-0.303641	0.734793
C155	C	1.652455	0.029692	1.068126
C156	C	1.985789	0.363026	1.401460
H157	H	1.324084	-0.361598	0.757937
H158	H	1.657417	-0.028264	1.091270
H159	H	1.990751	0.305069	1.424603
H160	H	1.381184	-0.277020	0.733943
H161	H	1.714518	0.056313	1.067276
H162	H	2.047851	0.389646	1.400610
H163	H	1.294179	-0.306189	0.676538
H164	H	1.627512	0.027144	1.009872
H165	H	1.960846	0.360477	1.343205
O166	O	1.267100	-0.261574	0.930702
O167	O	1.600433	0.071759	1.264035
O168	O	1.933766	0.405093	1.597369
C169	C	1.312614	-0.220038	0.880325
C170	C	1.645947	0.113295	1.213658
C171	C	1.979280	0.446629	1.546991
H172	H	1.315380	-0.250197	0.825531
H173	H	1.648714	0.083137	1.158864
H174	H	1.982047	0.416470	1.492197
H175	H	1.376150	-0.212186	0.902549
H176	H	1.709483	0.121148	1.235882
H177	H	2.042817	0.454481	1.569216
H178	H	1.283117	-0.164145	0.872158
H179	H	1.616450	0.169188	1.205491
H180	H	1.949783	0.502521	1.538824
H181	H	1.071717	-0.439757	0.924684
H182	H	1.405051	-0.106423	1.258017
H183	H	1.738384	0.226910	1.591351
H184	H	1.071618	-0.784438	0.439956
H185	H	1.404952	-0.451105	0.773290
H186	H	1.738285	-0.117772	1.106623
O187	O	1.063559	-0.447263	0.779307
O188	O	1.396892	-0.113930	1.112641
O189	O	1.730226	0.219404	1.445974
C190	C	1.018017	-0.488780	0.829679
C191	C	1.351351	-0.155447	1.163013
C192	C	1.684684	0.177887	1.496346
H193	H	1.051049	-0.491320	0.884474
H194	H	1.384382	-0.157987	1.217808
H195	H	1.717716	0.175346	1.551141
H196	H	1.009383	-0.546767	0.807449
H197	H	1.342716	-0.213434	1.140783
H198	H	1.676050	0.119900	1.474116
H199	H	0.956795	-0.461827	0.837846
H200	H	1.290128	-0.128493	1.171180
H201	H	1.623462	0.204840	1.504513
H202	H	1.258904	-0.923853	0.269376
H203	H	1.592237	-0.590520	0.602710
H204	H	1.925571	-0.257187	0.936043
H205	H	1.071684	-0.923881	0.439978
H206	H	1.405018	-0.590548	0.773311
H207	H	1.738351	-0.257215	1.106645
