data_functionalizedCrystal
_audit_creation_method	'MofGen! by Chris Wilmer'
_symmetry_space_group_name_H-M	'P1'
_symmetry_Int_Tables_number	1
_symmetry_cell_setting	triclinic
loop_
_symmetry_equiv_pos_as_xyz
  x,y,z
_cell_length_a	19.188930
_cell_length_b	17.666332
_cell_length_c	19.188922
_cell_angle_alpha	89.992279
_cell_angle_beta	96.857064
_cell_angle_gamma	90.023133
loop_
_atom_site_label
_atom_site_type_symbol
_atom_site_fract_x
_atom_site_fract_y
_atom_site_fract_z
O1	O	0.926147	0.063196	-0.087168
O2	O	1.259480	0.396529	0.246165
O3	O	1.592814	0.729862	0.579499
O4	O	0.722835	0.063144	-0.098902
O5	O	1.056168	0.396478	0.234431
O6	O	1.389502	0.729811	0.567764
O7	O	0.830361	0.063162	0.008621
O8	O	1.163695	0.396495	0.341954
O9	O	1.497028	0.729829	0.675288
O10	O	0.818621	0.063178	-0.194691
O11	O	1.151954	0.396512	0.138642
O12	O	1.485287	0.729845	0.471976
O13	O	0.830343	-0.062735	0.008624
O14	O	1.163676	0.270598	0.341957
O15	O	1.497009	0.603932	0.675291
O16	O	0.722816	-0.062752	-0.098899
O17	O	1.056150	0.270581	0.234434
O18	O	1.389483	0.603914	0.567768
O19	O	0.926128	-0.062701	-0.087165
O20	O	1.259461	0.270632	0.246169
O21	O	1.592795	0.603966	0.579502
Cu22	Cu	0.824470	-0.074222	-0.093032
Cu23	Cu	1.157804	0.259111	0.240302
Cu24	Cu	1.491137	0.592445	0.573635
Cu25	Cu	0.824493	0.074665	-0.093035
Cu26	Cu	1.157826	0.407999	0.240298
Cu27	Cu	1.491159	0.741332	0.573631
O28	O	0.818602	-0.062718	-0.194688
O29	O	1.151935	0.270615	0.138645
O30	O	1.485268	0.603948	0.471979
C31	C	0.696815	0.000189	-0.098521
C32	C	1.030148	0.333523	0.234813
C33	C	1.363481	0.666856	0.568146
C34	C	0.619310	0.000169	-0.097380
C35	C	0.952644	0.333503	0.235953
C36	C	1.285977	0.666836	0.569287
N37	N	0.824460	-0.178941	-0.093029
N38	N	1.157793	0.154392	0.240305
N39	N	1.491126	0.487725	0.573638
C40	C	0.574384	0.000186	-0.160471
C41	C	0.907718	0.333520	0.172862
C42	C	1.241051	0.666853	0.506196
C43	C	0.501560	0.000195	-0.159399
C44	C	0.834894	0.333528	0.173934
C45	C	1.168227	0.666861	0.507267
C46	C	0.473666	0.000201	-0.095233
C47	C	0.806999	0.333534	0.238100
C48	C	1.140333	0.666868	0.571434
C49	C	0.518602	0.000180	-0.032134
C50	C	0.851935	0.333513	0.301200
C51	C	1.185268	0.666846	0.634533
C52	C	0.591424	0.000164	-0.033207
C53	C	0.924757	0.333497	0.300126
C54	C	1.258091	0.666831	0.633460
N55	N	0.365694	0.043076	-0.046187
N56	N	0.699027	0.376409	0.287146
N57	N	1.032360	0.709742	0.620480
N58	N	0.296515	0.043092	-0.045171
N59	N	0.629849	0.376426	0.288162
N60	N	0.963182	0.709759	0.621495
C61	C	0.254257	0.000247	-0.091995
C62	C	0.587591	0.333580	0.241338
C63	C	0.920924	0.666914	0.574672
N64	N	0.283790	-0.042606	-0.139883
N65	N	0.617124	0.290727	0.193451
N66	N	0.950457	0.624061	0.526784
N67	N	0.352975	-0.042619	-0.140900
N68	N	0.686308	0.290714	0.192433
N69	N	1.019642	0.624047	0.525766
C70	C	0.394704	0.000218	-0.094062
C71	C	0.728037	0.333551	0.239271
C72	C	1.061370	0.666884	0.572605
C73	C	0.130367	0.000272	-0.153928
C74	C	0.463700	0.333605	0.179405
C75	C	0.797034	0.666939	0.512738
C76	C	0.057542	0.000276	-0.152854
C77	C	0.390876	0.333609	0.180479
C78	C	0.724209	0.666942	0.513813
C79	C	0.074585	0.000268	-0.025586
C80	C	0.407919	0.333602	0.307747
C81	C	0.741252	0.666935	0.641080
C82	C	0.147408	0.000257	-0.026663
C83	C	0.480742	0.333590	0.306671
C84	C	0.814075	0.666924	0.640004
C85	C	0.175295	0.000263	-0.090835
C86	C	0.508628	0.333596	0.242498
C87	C	0.841961	0.666929	0.575831
C88	C	0.866667	-0.218530	-0.135274
C89	C	1.200001	0.114803	0.198059
C90	C	1.533334	0.448137	0.531392
C91	C	0.866679	-0.297778	-0.135272
C92	C	1.200012	0.035556	0.198061
C93	C	1.533345	0.368889	0.531394
C94	C	0.824469	-0.337434	-0.093033
C95	C	1.157802	-0.004100	0.240301
C96	C	1.491136	0.329233	0.573634
C97	C	0.782259	-0.297836	-0.050778
C98	C	1.115592	0.035498	0.282555
C99	C	1.448926	0.368831	0.615888
C100	C	0.782254	-0.218590	-0.050776
C101	C	1.115588	0.114744	0.282557
C102	C	1.448921	0.448077	0.615890
N103	N	0.763321	-0.461889	-0.091313
N104	N	1.096654	-0.128556	0.242021
N105	N	1.429988	0.204778	0.575354
N106	N	0.763327	-0.537169	-0.091318
N107	N	1.096660	-0.203836	0.242015
N108	N	1.429994	0.129497	0.575348
C109	C	0.824482	-0.576198	-0.093035
C110	C	1.157815	-0.242864	0.240298
C111	C	1.491148	0.090469	0.573632
N112	N	0.885631	-0.537101	-0.094759
N113	N	1.218964	-0.203768	0.238574
N114	N	1.552297	0.129565	0.571907
N115	N	0.885624	-0.461814	-0.094757
N116	N	1.218957	-0.128481	0.238576
N117	N	1.552290	0.204853	0.571910
C118	C	0.824470	-0.423363	-0.093030
C119	C	1.157803	-0.090029	0.240303
C120	C	1.491137	0.243304	0.573637
C121	C	0.866705	-0.701715	-0.135281
C122	C	1.200039	-0.368382	0.198053
C123	C	1.533372	-0.035049	0.531386
C124	C	0.866718	-0.780964	-0.135274
C125	C	1.200051	-0.447631	0.198060
C126	C	1.533385	-0.114298	0.531393
C127	C	0.782292	-0.781021	-0.050784
C128	C	1.115625	-0.447688	0.282549
C129	C	1.448958	-0.114354	0.615883
C130	C	0.782286	-0.701773	-0.050787
C131	C	1.115619	-0.368440	0.282546
C132	C	1.448952	-0.035107	0.615880
C133	C	0.824491	-0.662125	-0.093039
C134	C	1.157824	-0.328792	0.240294
C135	C	1.491158	0.004541	0.573628
C136	C	0.952148	0.000256	-0.087546
C137	C	1.285482	0.333589	0.245787
C138	C	1.618815	0.666922	0.579120
C139	C	1.029653	0.000281	-0.088687
C140	C	1.362986	0.333614	0.244646
C141	C	1.696320	0.666947	0.577980
C142	C	0.829973	0.000212	0.034634
C143	C	1.163306	0.333546	0.367967
C144	C	1.496639	0.666879	0.701300
C145	C	0.828835	0.000210	0.112139
C146	C	1.162168	0.333543	0.445472
C147	C	1.495501	0.666876	0.778805
N148	N	0.824509	0.179385	-0.093033
N149	N	1.157842	0.512718	0.240301
N150	N	1.491176	0.846052	0.573634
C151	C	0.828314	0.068836	0.148536
C152	C	1.161647	0.402169	0.481869
C153	C	1.494980	0.735502	0.815202
C154	C	0.827234	0.068840	0.221359
C155	C	1.160568	0.402174	0.554692
C156	C	1.493901	0.735507	0.888025
C157	C	0.826690	0.000215	0.257783
C158	C	1.160023	0.333549	0.591117
C159	C	1.493357	0.666882	0.924450
C160	C	0.827207	-0.068420	0.221377
C161	C	1.160540	0.264914	0.554710
C162	C	1.493874	0.598247	0.888043
C163	C	0.828279	-0.068423	0.148554
C164	C	1.161613	0.264911	0.481888
C165	C	1.494946	0.598244	0.815221
N166	N	0.864731	-0.050852	0.377448
N167	N	1.198064	0.282482	0.710781
N168	N	1.531398	0.615815	1.044114
N169	N	0.863714	-0.050844	0.446626
N170	N	1.197047	0.282489	0.779960
N171	N	1.530381	0.615822	1.113293
C172	C	0.823458	0.000220	0.477193
C173	C	1.156791	0.333553	0.810526
C174	C	1.490124	0.666887	1.143859
N175	N	0.784266	0.051288	0.435968
N176	N	1.117599	0.384622	0.769302
N177	N	1.450932	0.717955	1.102635
N178	N	0.785286	0.051283	0.366784
N179	N	1.118619	0.384616	0.700117
N180	N	1.451953	0.717950	1.033451
C181	C	0.825527	0.000211	0.336747
C182	C	1.158860	0.333544	0.670080
C183	C	1.492193	0.666878	1.003413
C184	C	0.821765	0.068856	0.592552
C185	C	1.155099	0.402189	0.925886
C186	C	1.488432	0.735523	1.259219
C187	C	0.820682	0.068858	0.665376
C188	C	1.154015	0.402192	0.998709
C189	C	1.487348	0.735525	1.332043
C190	C	0.820661	-0.068404	0.665394
C191	C	1.153995	0.264929	0.998727
C192	C	1.487328	0.598263	1.332060
C193	C	0.821738	-0.068404	0.592571
C194	C	1.155071	0.264929	0.925904
C195	C	1.488405	0.598263	1.259237
C196	C	0.822293	0.000228	0.556155
C197	C	1.155627	0.333561	0.889488
C198	C	1.488960	0.666895	1.222821
C199	C	0.818992	0.000231	0.779300
C200	C	1.152326	0.333564	1.112633
C201	C	1.485659	0.666897	1.445966
C202	C	0.820136	0.000232	0.701795
C203	C	1.153469	0.333566	1.035129
C204	C	1.486803	0.666899	1.368462
H205	H	0.597084	0.000192	-0.212726
H206	H	0.930417	0.333526	0.120608
H207	H	1.263751	0.666859	0.453941
H208	H	0.901093	-0.813196	-0.169673
H209	H	1.234427	-0.479863	0.163660
H210	H	1.567760	-0.146529	0.496994
Cl211	Cl	0.203890	0.000240	0.052657
Cl212	Cl	0.537223	0.333574	0.385990
Cl213	Cl	0.870557	0.666907	0.719324
H214	H	0.747882	-0.186357	-0.016374
H215	H	1.081216	0.146976	0.316959
H216	H	1.414549	0.480310	0.650292
Cl217	Cl	0.820022	0.155139	0.711133
Cl218	Cl	1.153355	0.488473	1.044466
Cl219	Cl	1.486688	0.821806	1.377799
Cl220	Cl	0.819973	-0.154677	0.711177
Cl221	Cl	1.153306	0.178657	1.044511
Cl222	Cl	1.486640	0.511990	1.377844
H223	H	0.826806	0.124726	0.250998
H224	H	1.160139	0.458059	0.584332
H225	H	1.493473	0.791392	0.917665
Cl226	Cl	0.826517	-0.154691	0.267166
Cl227	Cl	1.159850	0.178642	0.600499
Cl228	Cl	1.493184	0.511975	0.933832
H229	H	0.828701	-0.124308	0.118920
H230	H	1.162034	0.209025	0.452253
H231	H	1.495367	0.542359	0.785586
Cl232	Cl	0.919712	-0.168691	-0.188405
Cl233	Cl	1.253046	0.164643	0.144929
Cl234	Cl	1.586379	0.497976	0.478262
H235	H	0.828764	0.124721	0.118890
H236	H	1.162097	0.458055	0.452224
H237	H	1.495430	0.791388	0.785557
Cl238	Cl	0.039525	0.000267	0.055081
Cl239	Cl	0.372858	0.333601	0.388414
Cl240	Cl	0.706192	0.666934	0.721748
H241	H	0.747913	-0.669540	-0.016389
H242	H	1.081246	-0.336207	0.316945
H243	H	1.414579	-0.002873	0.650278
H244	H	0.822213	0.124741	0.562901
H245	H	1.155547	0.458074	0.896234
H246	H	1.488880	0.791407	1.229567
Cl247	Cl	0.919778	-0.651869	-0.188381
Cl248	Cl	1.253111	-0.318535	0.144953
Cl249	Cl	1.586445	0.014798	0.478286
H250	H	0.464975	0.000206	-0.210777
H251	H	0.798308	0.333540	0.122556
H252	H	1.131641	0.666873	0.455889
Cl253	Cl	0.919744	-0.347556	-0.188385
Cl254	Cl	1.253077	-0.014223	0.144949
Cl255	Cl	1.586411	0.319110	0.478282
H256	H	0.747925	-0.813308	-0.016391
H257	H	1.081258	-0.479975	0.316942
H258	H	1.414591	-0.146642	0.650276
Cl259	Cl	0.483536	0.000183	0.048533
Cl260	Cl	0.816869	0.333517	0.381866
Cl261	Cl	1.150202	0.666850	0.715199
Cl262	Cl	0.647906	0.000143	0.046114
Cl263	Cl	0.981239	0.333477	0.379448
Cl264	Cl	1.314572	0.666810	0.712781
H265	H	0.153073	0.000265	-0.206182
H266	H	0.486406	0.333599	0.127152
H267	H	0.819740	0.666932	0.460485
Cl268	Cl	0.001062	0.000293	-0.232176
Cl269	Cl	0.334395	0.333626	0.101157
Cl270	Cl	0.667729	0.666960	0.434490
H271	H	0.822168	-0.124287	0.562936
H272	H	1.155501	0.209046	0.896270
H273	H	1.488835	0.542380	1.229603
H274	H	0.747892	-0.330129	-0.016386
H275	H	1.081226	0.003205	0.316947
H276	H	1.414559	0.336538	0.650281
