data_functionalizedCrystal
_audit_creation_method	'MofGen! by Chris Wilmer'
_symmetry_space_group_name_H-M	'P1'
_symmetry_Int_Tables_number	1
_symmetry_cell_setting	triclinic
loop_
_symmetry_equiv_pos_as_xyz
  x,y,z
_cell_length_a	12.759401
_cell_length_b	13.897448
_cell_length_c	12.759393
_cell_angle_alpha	89.966654
_cell_angle_beta	89.981504
_cell_angle_gamma	90.017853
loop_
_atom_site_label
_atom_site_type_symbol
_atom_site_fract_x
_atom_site_fract_y
_atom_site_fract_z
Zn1	Zn	1.606234	-0.383954	-0.593968
Zn2	Zn	1.606119	-0.545283	-0.418283
Zn3	Zn	1.430536	-0.384004	-0.418308
Zn4	Zn	1.430515	-0.545209	-0.593924
O5	O	1.518351	-0.464613	-0.506121
O6	O	1.753239	-0.405365	-0.570671
O7	O	1.582788	-0.523942	-0.271265
O8	O	1.453899	-0.249016	-0.441638
O9	O	1.753155	-0.523893	-0.441596
O10	O	1.582983	-0.248979	-0.570695
O11	O	1.453788	-0.405451	-0.271283
O12	O	1.283512	-0.405379	-0.441596
O13	O	1.453864	-0.523766	-0.740951
O14	O	1.283497	-0.523815	-0.570621
O15	O	1.582964	-0.405293	-0.740984
O16	O	1.582768	-0.680255	-0.441554
O17	O	1.453753	-0.680201	-0.570597
C18	C	1.245383	-0.464595	-0.506107
C19	C	1.128607	-0.464611	-0.506125
C20	C	1.073764	-0.526379	-0.573198
C21	C	0.964040	-0.526391	-0.573209
C22	C	0.964011	-0.402864	-0.439067
C23	C	1.073733	-0.402847	-0.439062
C24	C	1.128638	-0.588142	-0.640261
C25	C	1.073796	-0.649917	-0.707338
C26	C	0.964072	-0.649929	-0.707349
C27	C	0.909190	-0.588167	-0.640284
C28	C	1.518274	-0.715227	-0.506090
C29	C	1.518337	-0.822441	-0.506113
C30	C	1.518448	-1.018736	-0.506178
C31	C	1.518383	-0.909503	-0.506145
C32	C	1.792384	-0.464631	-0.506136
C33	C	1.909161	-0.464639	-0.506142
C34	C	1.518424	-0.464515	-0.780154
C35	C	1.518456	-0.464474	-0.896931
C36	C	1.518456	-0.213020	-0.506174
C37	C	1.518501	-0.105806	-0.506197
C38	C	1.585687	-0.402779	-0.951812
C39	C	1.585712	-0.402744	-1.061536
C40	C	1.451271	-0.526107	-1.061489
C41	C	1.451242	-0.526137	-0.951767
C42	C	1.652901	-0.341116	-0.896976
C43	C	1.720139	-0.279417	-0.951856
C44	C	1.720164	-0.279382	-1.061580
C45	C	1.652951	-0.341046	-1.116424
C46	C	1.518338	-0.464640	-0.233154
C47	C	1.518510	-0.464410	-0.116377
H48	H	0.919317	-0.352581	-0.384465
C49	C	1.197090	-0.389287	-0.297771
C50	C	1.134032	-0.334958	-0.365335
H51	H	1.234322	-0.347371	-0.252263
H52	H	1.154263	-0.431263	-0.257503
H53	H	1.245462	-0.426062	-0.337731
H54	H	1.085654	-0.298188	-0.325375
H55	H	1.176863	-0.292966	-0.405607
C56	C	1.726060	-0.273998	-0.739821
C57	C	1.652871	-0.341149	-0.776366
H58	H	1.726035	-0.274018	-0.665363
H59	H	1.793846	-0.290686	-0.764640
H60	H	1.707923	-0.211745	-0.764665
H61	H	1.671013	-0.403404	-0.751529
H62	H	1.585071	-0.324467	-0.751537
H63	H	1.774904	-0.229136	-1.106261
H64	H	1.118488	-0.700195	-0.761947
H65	H	0.919422	-0.700221	-0.761974
C66	C	1.726188	-0.273838	-1.273629
C67	C	1.652982	-0.341013	-1.237035
H68	H	1.726215	-0.273827	-1.348087
H69	H	1.708034	-0.211605	-1.248832
H70	H	1.793968	-0.290537	-1.248795
H71	H	1.585201	-0.324309	-1.261862
H72	H	1.671131	-0.403259	-1.261842
C73	C	1.391637	-0.580847	-1.229668
C74	C	1.377407	-0.593896	-1.121771
H75	H	1.346041	-0.622705	-1.266880
H76	H	1.376287	-0.516040	-1.247665
H77	H	1.462231	-0.594962	-1.247633
H78	H	1.306813	-0.579774	-1.103805
H79	H	1.392749	-0.658718	-1.103767
C80	C	1.285847	-0.496394	-0.667205
C81	C	1.249248	-0.588127	-0.640248
H82	H	1.360306	-0.496386	-0.667188
H83	H	1.261064	-0.479806	-0.735035
H84	H	1.261006	-0.450780	-0.617662
H85	H	1.274083	-0.633741	-0.689796
H86	H	1.274042	-0.604726	-0.572409
C87	C	1.771376	-0.116097	-0.918121
C88	C	1.794011	-0.211632	-0.891578
H89	H	1.816979	-0.074249	-0.880904
H90	H	1.781016	-0.107255	-0.991314
H91	H	1.700785	-0.101993	-0.900130
H92	H	1.864600	-0.225738	-0.909576
H93	H	1.784380	-0.220478	-0.818369
C94	C	0.752027	-0.655389	-0.713386
C95	C	0.788579	-0.588146	-0.640333
H96	H	0.677569	-0.655371	-0.713419
H97	H	0.776914	-0.638783	-0.781193
H98	H	0.776798	-0.717619	-0.695078
H99	H	0.763814	-0.525914	-0.658646
H100	H	0.763682	-0.604745	-0.572511
C101	C	1.318400	-0.648115	-0.962733
C102	C	1.377369	-0.593979	-0.891434
H103	H	1.272804	-0.690006	-0.925484
H104	H	1.278220	-0.606083	-1.005525
H105	H	1.364188	-0.684983	-1.005535
H106	H	1.331581	-0.557105	-0.848638
H107	H	1.417552	-0.636016	-0.848624
