data_functionalizedCrystal
_audit_creation_method	'MofGen! by Chris Wilmer'
_symmetry_space_group_name_H-M	'P1'
_symmetry_Int_Tables_number	1
_symmetry_cell_setting	triclinic
loop_
_symmetry_equiv_pos_as_xyz
  x,y,z
_cell_length_a	27.354012
_cell_length_b	27.353283
_cell_length_c	27.349551
_cell_angle_alpha	60.005606
_cell_angle_beta	60.011434
_cell_angle_gamma	59.993282
loop_
_atom_site_label
_atom_site_type_symbol
_atom_site_fract_x
_atom_site_fract_y
_atom_site_fract_z
O1	O	0.067635	-0.714267	0.597330
O2	O	0.567635	-0.214267	1.097330
O3	O	0.025429	-0.556105	0.481282
O4	O	0.525429	-0.056105	0.981282
O5	O	0.125575	-0.656186	0.481214
O6	O	0.625575	-0.156186	0.981214
O7	O	-0.032512	-0.614186	0.597397
O8	O	0.467488	-0.114186	1.097397
O9	O	0.158797	-0.622968	0.514367
O10	O	0.658797	-0.122968	1.014367
O11	O	0.058650	-0.522887	0.514434
O12	O	0.558650	-0.022887	1.014434
O13	O	0.100856	-0.681048	0.630482
O14	O	0.600856	-0.181048	1.130482
Zn15	Zn	0.085028	-0.596693	0.577722
Zn16	Zn	0.585028	-0.096693	1.077722
Zn17	Zn	0.041257	-0.640460	0.534042
Zn18	Zn	0.541257	-0.140460	1.034042
O19	O	0.000709	-0.580967	0.630549
O20	O	0.500709	-0.080967	1.130549
N21	N	0.114901	-0.566828	0.607534
N22	N	0.614901	-0.066828	1.107534
N23	N	0.011389	-0.670331	0.504229
N24	N	0.511389	-0.170331	1.004229
C25	C	0.179404	-0.338196	0.672015
C26	C	0.679404	0.161804	1.172015
C27	C	0.179501	-0.502386	0.836160
C28	C	0.679501	-0.002386	1.336160
C29	C	0.179415	-0.502363	0.671996
C30	C	0.679415	-0.002363	1.171996
C31	C	0.343611	-0.502373	0.671960
C32	C	0.843611	-0.002373	1.171960
C33	C	0.197478	-0.392371	0.690061
C34	C	0.697478	0.107629	1.190061
C35	C	0.197534	-0.484321	0.781984
C36	C	0.697534	0.015679	1.281984
C37	C	0.289434	-0.484312	0.690032
C38	C	0.789434	0.015688	1.190032
C39	C	0.197486	-0.484308	0.690051
C40	C	0.697486	0.015692	1.190051
C41	C	0.156398	-0.269238	0.649045
C42	C	0.656398	0.230762	1.149045
C43	C	0.156418	-0.525342	0.649015
C44	C	0.656418	-0.025342	1.149015
C45	C	0.220484	-0.461329	0.713032
C46	C	0.720484	0.038671	1.213032
C47	C	0.443889	-0.485097	0.619172
C48	C	0.943889	0.014903	1.119172
C49	C	0.506571	-0.505993	0.598266
C50	C	1.006571	-0.005993	1.098266
C51	C	0.506589	-0.607412	0.636940
C52	C	1.006589	-0.107412	1.136940
C53	C	0.443909	-0.586515	0.657848
C54	C	0.943909	-0.086515	1.157848
C55	C	0.171510	-0.237888	0.587422
C56	C	0.671510	0.262112	1.087422
C57	C	0.150593	-0.175201	0.566543
C58	C	0.650593	0.324799	1.066543
C59	C	0.099458	-0.175218	0.668913
C60	C	0.599458	0.324782	1.168913
C61	C	0.120375	-0.237905	0.689792
C62	C	0.620375	0.262095	1.189792
C63	C	0.094789	-0.510201	0.664176
C64	C	0.594789	-0.010201	1.164176
C65	C	0.073888	-0.531091	0.643278
C66	C	0.573888	-0.031091	1.143278
C67	C	0.176239	-0.582263	0.592072
C68	C	0.676239	-0.082263	1.092072
C69	C	0.197142	-0.561373	0.612963
C70	C	0.697142	-0.061373	1.112963
C71	C	0.094933	-0.510244	0.936476
C72	C	0.594933	-0.010244	1.436476
C73	C	0.074073	-0.531151	0.999161
C74	C	0.574073	-0.031151	1.499161
C75	C	0.176453	-0.582335	0.999126
C76	C	0.676453	-0.082335	1.499126
C77	C	0.197312	-0.561429	0.936439
C78	C	0.697312	-0.061429	1.436439
C79	C	0.156551	-0.525382	0.905116
C80	C	0.656551	-0.025382	1.405116
C81	C	0.412561	-0.525357	0.648961
C82	C	0.912561	-0.025357	1.148961
C83	C	-0.098513	-0.688235	0.485867
C84	C	0.401487	-0.188235	0.985867
C85	C	-0.006461	-0.688368	0.394066
C86	C	0.493539	-0.188368	0.894066
C87	C	-0.006645	-0.780264	0.486040
C88	C	0.493355	-0.280264	0.986040
C89	C	-0.006630	-0.688361	0.486097
C90	C	0.493370	-0.188361	0.986097
C91	C	-0.029562	-0.711308	0.463018
C92	C	0.470438	-0.211308	0.963018
N93	N	0.537030	-0.566846	0.607436
N94	N	1.037030	-0.066846	1.107436
O95	O	0.741877	-0.576849	0.459995
O96	O	1.241877	-0.076849	0.959995
O97	O	0.742050	-0.693241	0.618010
O98	O	1.242050	-0.193241	1.118010
O99	O	0.741986	-0.692977	0.517791
O100	O	1.241986	-0.192977	1.017791
O101	O	0.741941	-0.577114	0.560214
O102	O	1.241941	-0.077114	1.060214
O103	O	0.642405	-0.659839	0.551046
O104	O	1.142405	-0.159839	1.051046
O105	O	0.642469	-0.660104	0.651265
O106	O	1.142469	-0.160104	1.151265
O107	O	0.642296	-0.543712	0.493251
O108	O	1.142296	-0.043712	0.993251
Zn109	Zn	0.626572	-0.596646	0.577538
Zn110	Zn	1.126572	-0.096646	1.077538
Zn111	Zn	0.757774	-0.640307	0.533723
Zn112	Zn	1.257774	-0.140307	1.033723
O113	O	0.642360	-0.543976	0.593469
O114	O	1.142360	-0.043976	1.093469
N115	N	0.847316	-0.670107	0.503818
N116	N	1.347316	-0.170107	1.003818
N117	N	0.114877	-0.144758	0.607577
N118	N	0.614877	0.355242	1.107577
O119	O	-0.032498	0.060193	0.597441
O120	O	0.467502	0.560193	1.097441
O121	O	0.125523	0.060193	0.481067
O122	O	0.625523	0.560193	0.981067
O123	O	0.025289	0.060179	0.481345
O124	O	0.525289	0.560179	0.981345
O125	O	0.067736	0.060207	0.597163
O126	O	0.567736	0.560207	1.097163
O127	O	0.058511	-0.039410	0.514543
O128	O	0.558511	0.460590	1.014543
O129	O	0.158745	-0.039397	0.514265
O130	O	0.658745	0.460603	1.014265
O131	O	0.000724	-0.039396	0.630638
O132	O	0.500724	0.460604	1.130638
Zn133	Zn	0.085009	-0.055208	0.577722
Zn134	Zn	0.585009	0.444792	1.077722
Zn135	Zn	0.041238	0.076005	0.533983
Zn136	Zn	0.541238	0.576005	1.033983
O137	O	0.100958	-0.039382	0.630360
O138	O	0.600958	0.460618	1.130360
N139	N	0.011362	0.165555	0.504130
N140	N	0.511362	0.665555	1.004130
N141	N	0.115121	-0.566884	1.029592
N142	N	0.615121	-0.066884	1.529592
O143	O	0.104990	-0.714248	1.234528
O144	O	0.604990	-0.214248	1.734528
O145	O	-0.011371	-0.556177	1.234539
O146	O	0.488629	-0.056177	1.734539
O147	O	-0.011103	-0.656395	1.234497
O148	O	0.488897	-0.156395	1.734497
O149	O	0.104722	-0.614030	1.234569
O150	O	0.604722	-0.114030	1.734569
O151	O	0.022090	-0.623190	1.134913
O152	O	0.522090	-0.123190	1.634913
O153	O	0.021822	-0.522972	1.134954
O154	O	0.521822	-0.022972	1.634954
O155	O	0.138182	-0.681044	1.134943
O156	O	0.638182	-0.181044	1.634943
Zn157	Zn	0.085272	-0.596736	1.119137
Zn158	Zn	0.585272	-0.096736	1.619137
Zn159	Zn	0.041539	-0.640484	1.250344
Zn160	Zn	0.541539	-0.140484	1.750344
O161	O	0.137914	-0.580826	1.134984
O162	O	0.637914	-0.080826	1.634984
N163	N	0.011689	-0.670343	1.339890
N164	N	0.511689	-0.170343	1.839890
C165	C	0.038085	-0.519567	0.481870
C166	C	0.538085	-0.019567	0.981870
C167	C	0.162104	-0.643505	0.481786
C168	C	0.662104	-0.143505	0.981786
C169	C	0.088200	-0.717587	0.629893
C170	C	0.588200	-0.217587	1.129893
C171	C	-0.035819	-0.593649	0.629977
C172	C	0.464181	-0.093649	1.129977
C173	C	0.692280	-0.692701	0.654545
C174	C	1.192280	-0.192701	1.154545
C175	C	0.692203	-0.692374	0.530435
C176	C	1.192203	-0.192374	1.030435
C177	C	0.692063	-0.544251	0.456717
C178	C	1.192063	-0.044251	0.956717
C179	C	0.692144	-0.544580	0.580825
C180	C	1.192144	-0.044580	1.080825
C181	C	0.162000	0.010521	0.481600
C182	C	0.662000	0.510521	0.981600
C183	C	0.037914	0.010381	0.481984
C184	C	0.537914	0.510381	0.981984
C185	C	-0.035795	0.010399	0.630065
C186	C	0.464205	0.510399	1.130065
C187	C	0.088333	0.010415	0.629722
C188	C	0.588333	0.510415	1.129722
C189	C	-0.010799	-0.519660	1.184747
C190	C	0.489201	-0.019660	1.684747
C191	C	-0.010461	-0.643761	1.184677
C192	C	0.489539	-0.143761	1.684677
C193	C	0.137610	-0.717561	1.184734
C194	C	0.637610	-0.217561	1.684734
C195	C	0.137280	-0.593452	1.184783
C196	C	0.637280	-0.093452	1.684783
H197	H	0.061737	-0.480889	0.910978
H198	H	0.561737	0.019111	1.410978
H199	H	0.209648	-0.611676	1.024626
H200	H	0.709648	-0.111676	1.524626
C201	C	0.185736	-0.581247	1.184771
C202	C	0.685736	-0.081247	1.684771
C203	C	0.164032	-0.522780	1.184768
C204	C	0.664032	-0.022780	1.684768
C205	C	0.208655	-0.511513	1.184749
C206	C	0.708655	-0.011513	1.684749
H207	H	0.196675	-0.608819	1.219490
H208	H	0.696675	-0.108819	1.719490
H209	H	0.219788	-0.585681	1.150031
H210	H	0.719788	-0.085681	1.650031
H211	H	0.129990	-0.518351	1.219505
H212	H	0.629990	-0.018351	1.719505
H213	H	0.153097	-0.495195	1.150051
H214	H	0.653097	0.004805	1.650051
H215	H	0.242708	-0.515947	1.150009
H216	H	0.742708	-0.015947	1.650009
H217	H	0.219591	-0.539089	1.219469
H218	H	0.719591	-0.039089	1.719469
H219	H	0.193938	-0.471841	1.184742
H220	H	0.693938	0.028159	1.684742
C221	C	0.026145	-0.458960	0.433286
C222	C	0.526145	0.041040	0.933286
C223	C	0.066957	-0.432593	0.417325
C224	C	0.566957	0.067407	0.917325
C225	C	0.055971	-0.376759	0.372577
C226	C	0.555971	0.123241	0.872577
H227	H	0.030634	-0.464076	0.399205
H228	H	0.530634	0.035924	0.899205
H229	H	-0.013482	-0.433848	0.447846
H230	H	0.486518	0.066152	0.947846
H231	H	0.106574	-0.457699	0.402763
H232	H	0.606574	0.042301	0.902763
H233	H	0.062475	-0.427462	0.451392
H234	H	0.562475	0.072538	0.951392
H235	H	0.016344	-0.351647	0.387137
H236	H	0.516344	0.148353	0.887137
H237	H	0.060459	-0.381881	0.338500
H238	H	0.560459	0.118119	0.838500
H239	H	0.083656	-0.358860	0.361746
H240	H	0.583656	0.141140	0.861746
H241	H	0.097420	0.010424	0.666105
H242	H	0.597420	0.510424	1.166105
C243	C	0.007148	-0.514614	1.033095
C244	C	0.507148	-0.014614	1.533095
C245	C	-0.024079	-0.478556	0.992242
C246	C	0.475921	0.021444	1.492242
C247	C	-0.085731	-0.463305	1.023481
C248	C	0.414269	0.036695	1.523481
H249	H	-0.003203	-0.550009	1.057547
H250	H	0.496797	-0.050009	1.557547
H251	H	-0.003143	-0.493321	1.057540
H252	H	0.496857	0.006679	1.557540
H253	H	-0.013792	-0.499848	0.967808
H254	H	0.486208	0.000152	1.467808
H255	H	-0.013746	-0.443153	0.967789
H256	H	0.486254	0.056847	1.467789
H257	H	-0.096022	-0.442013	1.047925
H258	H	0.403978	0.057987	1.547925
H259	H	-0.096075	-0.498704	1.047931
H260	H	0.403925	0.001296	1.547931
H261	H	-0.106926	-0.438834	0.995767
H262	H	0.393074	0.061166	1.495767
H263	H	-0.047330	-0.474261	1.184750
H264	H	0.452670	0.025739	1.684750
C265	C	0.222648	-0.655325	0.433110
C266	C	0.722648	-0.155325	0.933110
C267	C	0.248962	-0.614463	0.417136
C268	C	0.748962	-0.114463	0.917136
C269	C	0.304731	-0.625328	0.372292
C270	C	0.804731	-0.125328	0.872292
H271	H	0.247837	-0.694934	0.447570
H272	H	0.747837	-0.194934	0.947570
H273	H	0.217439	-0.650795	0.399058
H274	H	0.717439	-0.150795	0.899058
H275	H	0.254174	-0.618998	0.451182
H276	H	0.754174	-0.118998	0.951182
H277	H	0.223790	-0.574851	0.402666
H278	H	0.723790	-0.074851	0.902666
H279	H	0.299522	-0.620798	0.338240
H280	H	0.799522	-0.120798	0.838240
H281	H	0.329915	-0.664937	0.386757
H282	H	0.829915	-0.164937	0.886757
H283	H	0.322589	-0.597602	0.361444
H284	H	0.822589	-0.097602	0.861444
C285	C	-0.096309	0.010498	0.678809
C286	C	0.403691	0.510498	1.178809
C287	C	-0.122562	0.061734	0.694730
C288	C	0.377438	0.561734	1.194730
C289	C	-0.178303	0.061843	0.739637
C290	C	0.321697	0.561843	1.239637
H291	H	-0.121549	0.010523	0.664423
H292	H	0.378451	0.510523	1.164423
H293	H	-0.091068	-0.024208	0.712866
H294	H	0.408932	0.475792	1.212866
H295	H	-0.127805	0.096431	0.660680
H296	H	0.372195	0.596431	1.160680
H297	H	-0.097340	0.061720	0.709127
H298	H	0.402660	0.561720	1.209127
H299	H	-0.173063	0.027136	0.773693
H300	H	0.326937	0.527136	1.273693
H301	H	-0.203538	0.061866	0.725246
H302	H	0.296462	0.561866	1.225246
H303	H	-0.196121	0.096603	0.750449
H304	H	0.303879	0.596603	1.250449
H305	H	-0.046832	-0.652809	1.184615
H306	H	0.453168	-0.152809	1.684615
H307	H	0.097215	-0.763020	0.666340
H308	H	0.597215	-0.263020	1.166340
H309	H	0.174144	-0.762957	1.184724
H310	H	0.674144	-0.262957	1.684724
C311	C	-0.096392	-0.581790	0.678609
C312	C	0.403608	-0.081790	1.178609
C313	C	-0.122717	-0.622634	0.694560
C314	C	0.377283	-0.122634	1.194560
C315	C	-0.178520	-0.611722	0.739352
C316	C	0.321480	-0.111722	1.239352
H317	H	-0.091246	-0.586303	0.712683
H318	H	0.408754	-0.086303	1.212683
H319	H	-0.121541	-0.542167	0.664091
H320	H	0.378459	-0.042167	1.164091
H321	H	-0.097574	-0.662248	0.709080
H322	H	0.402426	-0.162248	1.209080
H323	H	-0.127879	-0.618128	0.660499
H324	H	0.372121	-0.118128	1.160499
H325	H	-0.203669	-0.572099	0.724834
H326	H	0.296331	-0.072099	1.224834
H327	H	-0.173368	-0.616235	0.773422
H328	H	0.326632	-0.116235	1.273422
H329	H	-0.196391	-0.639429	0.750177
H330	H	0.303609	-0.139429	1.250177
H331	H	0.061625	-0.480862	0.693528
H332	H	0.561625	0.019138	1.193528
C333	C	0.264239	-0.577905	0.902501
C334	C	0.764239	-0.077905	1.402501
C335	C	0.295467	-0.613930	0.943351
C336	C	0.795467	-0.113930	1.443351
C337	C	0.357119	-0.629111	0.912111
C338	C	0.857119	-0.129111	1.412111
H339	H	0.274590	-0.599200	0.878040
H340	H	0.774590	-0.099200	1.378040
H341	H	0.274527	-0.542466	0.878064
H342	H	0.774527	-0.042466	1.378064
H343	H	0.285184	-0.649363	0.967777
H344	H	0.785184	-0.149363	1.467777
H345	H	0.285134	-0.592647	0.967813
H346	H	0.785134	-0.092647	1.467813
H347	H	0.367407	-0.593673	0.887675
H348	H	0.867407	-0.093673	1.387675
H349	H	0.367465	-0.650404	0.887652
H350	H	0.867465	-0.150404	1.387652
H351	H	0.378316	-0.653551	0.939823
H352	H	0.878316	-0.153551	1.439823
H353	H	0.209407	-0.611608	0.562721
H354	H	0.709407	-0.111608	1.062721
C355	C	0.006971	-0.514743	0.659856
C356	C	0.506971	-0.014743	1.159856
C357	C	-0.018788	-0.536087	0.722210
C358	C	0.481212	-0.036087	1.222210
C359	C	-0.080428	-0.521048	0.737503
C360	C	0.419572	-0.021048	1.237503
H361	H	-0.010732	-0.472456	0.645515
H362	H	0.489268	0.027544	1.145515
H363	H	0.000334	-0.532361	0.642281
H364	H	0.500334	-0.032361	1.142281
H365	H	-0.012156	-0.518467	0.739778
H366	H	0.487844	-0.018467	1.239778
H367	H	-0.001103	-0.578373	0.736565
H368	H	0.498897	-0.078373	1.236565
H369	H	-0.087065	-0.538667	0.719928
H370	H	0.412935	-0.038667	1.219928
H371	H	-0.098124	-0.478761	0.723159
H372	H	0.401876	0.021239	1.223159
H373	H	-0.097912	-0.535533	0.779811
H374	H	0.402088	-0.035533	1.279811
C375	C	0.264077	-0.577891	0.596454
C376	C	0.764077	-0.077891	1.096454
C377	C	0.295267	-0.613924	0.560417
C378	C	0.795267	-0.113924	1.060417
C379	C	0.356927	-0.629154	0.545200
C380	C	0.856927	-0.129154	1.045200
H381	H	0.274413	-0.542487	0.575159
H382	H	0.774413	-0.042487	1.075159
H383	H	0.274412	-0.599195	0.631877
H384	H	0.774412	-0.099195	1.131877
H385	H	0.284937	-0.592619	0.525000
H386	H	0.784937	-0.092619	1.025000
H387	H	0.284949	-0.649335	0.581700
H388	H	0.784949	-0.149335	1.081700
H389	H	0.367262	-0.650458	0.580623
H390	H	0.867262	-0.150458	1.080623
H391	H	0.367257	-0.593747	0.523907
H392	H	0.867257	-0.093747	1.023907
H393	H	0.378098	-0.653608	0.520753
H394	H	0.878098	-0.153608	1.020753
C395	C	0.692467	-0.741444	0.715026
C396	C	1.192467	-0.241444	1.215026
C397	C	0.743720	-0.755197	0.725614
C398	C	1.243720	-0.255197	1.225614
C399	C	0.743917	-0.800101	0.781319
C400	C	1.243917	-0.300101	1.281319
H401	H	0.657791	-0.727792	0.745562
H402	H	1.157791	-0.227792	1.245562
H403	H	0.692520	-0.776235	0.715089
H404	H	1.192520	-0.276235	1.215089
H405	H	0.743661	-0.720413	0.725555
H406	H	1.243661	-0.220413	1.225555
H407	H	0.778405	-0.768859	0.695092
H408	H	1.278405	-0.268859	1.195092
H409	H	0.743971	-0.834893	0.781382
H410	H	1.243971	-0.334893	1.281382
H411	H	0.709239	-0.786444	0.811850
H412	H	1.209239	-0.286444	1.311850
H413	H	0.778694	-0.809442	0.788508
H414	H	1.278694	-0.309442	1.288508
C415	C	0.410005	-0.630319	0.690150
C416	C	0.910005	-0.130319	1.190150
C417	C	0.450880	-0.688347	0.693438
C418	C	0.950880	-0.188347	1.193438
C419	C	0.419671	-0.728716	0.723184
C420	C	0.919671	-0.228716	1.223184
H421	H	0.385566	-0.628800	0.729446
H422	H	0.885566	-0.128800	1.229446
H423	H	0.385552	-0.619864	0.668793
H424	H	0.885552	-0.119864	1.168793
H425	H	0.475323	-0.698799	0.714796
H426	H	0.975323	-0.198799	1.214796
H427	H	0.475321	-0.689885	0.654152
H428	H	0.975321	-0.189885	1.154152
H429	H	0.395217	-0.718261	0.701827
H430	H	0.895217	-0.218261	1.201827
H431	H	0.395233	-0.727191	0.762477
H432	H	0.895233	-0.227191	1.262477
H433	H	0.447400	-0.768091	0.725414
H434	H	0.947400	-0.268091	1.225414
H435	H	0.692221	-0.728771	0.521355
H436	H	1.192221	-0.228771	1.021355
H437	H	0.532080	-0.473208	0.574011
H438	H	1.032080	0.026792	1.074011
C439	C	0.409961	-0.418677	0.609494
C440	C	0.909961	0.081323	1.109494
C441	C	0.450818	-0.387897	0.578946
C442	C	0.950818	0.112103	1.078946
C443	C	0.419588	-0.326711	0.570024
C444	C	0.919588	0.173289	1.070024
H445	H	0.385493	-0.403892	0.586511
H446	H	0.885493	0.096108	1.086511
H447	H	0.385534	-0.412836	0.647154
H448	H	0.885534	0.087164	1.147154
H449	H	0.475234	-0.393734	0.541292
H450	H	0.975234	0.106266	1.041292
H451	H	0.475287	-0.402663	0.601919
H452	H	0.975287	0.097337	1.101919
H453	H	0.395161	-0.320870	0.607684
H454	H	0.895161	0.179130	1.107684
H455	H	0.395121	-0.311932	0.547042
H456	H	0.895121	0.188068	1.047042
H457	H	0.447304	-0.305820	0.549301
H458	H	0.947304	0.194180	1.049301
C459	C	0.540702	-0.673808	0.646624
C460	C	1.040702	-0.173808	1.146624
C461	C	0.576722	-0.695322	0.680457
C462	C	1.076722	-0.195322	1.180457
C463	C	0.608164	-0.756481	0.689381
C464	C	1.108164	-0.256481	1.189381
H465	H	0.513135	-0.694867	0.667382
H466	H	1.013135	-0.194867	1.167382
H467	H	0.565174	-0.679639	0.608964
H468	H	1.065174	-0.179639	1.108964
H469	H	0.552252	-0.689496	0.718110
H470	H	1.052252	-0.189496	1.218110
H471	H	0.604300	-0.674280	0.659709
H472	H	1.104300	-0.174280	1.159709
H473	H	0.632636	-0.762313	0.651722
H474	H	1.132636	-0.262313	1.151722
H475	H	0.580593	-0.777535	0.710138
H476	H	1.080593	-0.277535	1.210138
H477	H	0.632611	-0.771086	0.712333
H478	H	1.132611	-0.271086	1.212333
H479	H	0.200842	-0.263395	0.554238
H480	H	0.700842	0.236605	1.054238
C481	C	0.025705	0.010320	0.433560
C482	C	0.525705	0.510320	0.933560
C483	C	-0.032743	0.010292	0.455283
C484	C	0.467257	0.510292	0.955283
C485	C	-0.044005	0.010218	0.410698
C486	C	0.455995	0.510218	0.910698
H487	H	0.030109	0.045030	0.399470
H488	H	0.530109	0.545030	0.899470
H489	H	0.053307	-0.024432	0.422679
H490	H	0.553307	0.475568	0.922679
H491	H	-0.060337	0.045041	0.466156
H492	H	0.439663	0.545041	0.966156
H493	H	-0.037161	-0.024416	0.489367
H494	H	0.462839	0.475584	0.989367
H495	H	-0.016403	-0.024534	0.399816
H496	H	0.483597	0.475466	0.899816
H497	H	-0.039598	0.044929	0.376610
H498	H	0.460402	0.544929	0.876610
H499	H	-0.083661	0.010194	0.425432
H500	H	0.416339	0.510194	0.925432
H501	H	0.692005	-0.507708	0.411338
H502	H	1.192005	-0.007708	0.911338
H503	H	0.070133	-0.149706	0.702094
H504	H	0.570133	0.350294	1.202094
C505	C	0.167085	-0.141267	0.499612
C506	C	0.667085	0.358733	0.999612
C507	C	0.203123	-0.182125	0.468397
C508	C	0.703123	0.317875	0.968397
C509	C	0.218331	-0.150890	0.406740
C510	C	0.718331	0.349110	0.906740
H511	H	0.131677	-0.116813	0.489267
H512	H	0.631677	0.383187	0.989267
H513	H	0.188376	-0.116822	0.489303
H514	H	0.688376	0.383178	0.989303
H515	H	0.181832	-0.206559	0.478701
H516	H	0.681832	0.293441	0.978701
H517	H	0.238539	-0.206581	0.478724
H518	H	0.738539	0.293419	0.978724
H519	H	0.239622	-0.126445	0.396431
H520	H	0.739622	0.373555	0.896431
H521	H	0.182920	-0.126437	0.396401
H522	H	0.682920	0.373563	0.896401
H523	H	0.242789	-0.178607	0.385553
H524	H	0.742789	0.321393	0.885553
H525	H	0.692134	-0.508185	0.589902
H526	H	1.192134	-0.008185	1.089902
H527	H	0.207290	0.010797	0.444973
H528	H	0.707290	0.510797	0.944973
H529	H	0.108067	-0.263426	0.739970
H530	H	0.608067	0.236574	1.239970
