data_functionalizedCrystal
_audit_creation_method	'MofGen! by Chris Wilmer'
_symmetry_space_group_name_H-M	'P1'
_symmetry_Int_Tables_number	1
_symmetry_cell_setting	triclinic
loop_
_symmetry_equiv_pos_as_xyz
  x,y,z
_cell_length_a	19.077236
_cell_length_b	19.076808
_cell_length_c	19.077569
_cell_angle_alpha	85.471664
_cell_angle_beta	85.479541
_cell_angle_gamma	94.519737
loop_
_atom_site_label
_atom_site_type_symbol
_atom_site_fract_x
_atom_site_fract_y
_atom_site_fract_z
Zn1	Zn	1.084563	-0.219365	-0.432786
Zn2	Zn	1.417896	0.113969	-0.099453
Zn3	Zn	1.751230	0.447302	0.233880
Zn4	Zn	1.074593	-0.342413	-0.309739
Zn5	Zn	1.407926	-0.009080	0.023594
Zn6	Zn	1.741259	0.324254	0.356928
Zn7	Zn	0.961527	-0.229260	-0.309753
Zn8	Zn	1.294861	0.104074	0.023581
Zn9	Zn	1.628194	0.437407	0.356914
Zn10	Zn	0.961488	-0.342366	-0.422847
Zn11	Zn	1.294821	-0.009033	-0.089514
Zn12	Zn	1.628154	0.324300	0.243819
O13	O	1.020543	-0.283351	-0.368781
O14	O	1.353876	0.049982	-0.035448
O15	O	1.687209	0.383316	0.297885
O16	O	1.182066	-0.231566	-0.420618
O17	O	1.515399	0.101767	-0.087284
O18	O	1.848733	0.435101	0.246049
O19	O	1.055438	-0.331563	-0.210915
O20	O	1.388772	0.001770	0.122419
O21	O	1.722105	0.335103	0.455752
O22	O	0.982037	-0.129115	-0.330239
O23	O	1.315371	0.204218	0.003095
O24	O	1.648704	0.537551	0.336428
O25	O	1.174741	-0.321969	-0.330215
O26	O	1.508074	0.011364	0.003118
O27	O	1.841408	0.344698	0.336451
O28	O	1.072431	-0.121846	-0.420631
O29	O	1.405764	0.211488	-0.087298
O30	O	1.739098	0.544821	0.246036
O31	O	0.972369	-0.248430	-0.210925
O32	O	1.305703	0.084903	0.122409
O33	O	1.639036	0.418237	0.455742
O34	O	0.862696	-0.248385	-0.320601
O35	O	1.196030	0.084949	0.012732
O36	O	1.529363	0.418282	0.346066
O37	O	0.981970	-0.321889	-0.522992
O38	O	1.315303	0.011444	-0.189659
O39	O	1.648637	0.344777	0.143675
O40	O	0.862667	-0.331484	-0.403691
O41	O	1.196001	0.001849	-0.070358
O42	O	1.529334	0.335183	0.262975
O43	O	1.072393	-0.231521	-0.530294
O44	O	1.405726	0.101813	-0.196961
O45	O	1.739060	0.435146	0.136372
O46	O	1.055400	-0.441238	-0.320578
O47	O	1.388733	-0.107905	0.012756
O48	O	1.722067	0.225428	0.346089
O49	O	0.972302	-0.441204	-0.403678
O50	O	1.305636	-0.107871	-0.070345
O51	O	1.638969	0.225463	0.262989
C52	C	0.837057	-0.291003	-0.361069
C53	C	1.170391	0.042330	-0.027736
C54	C	1.503724	0.375663	0.305597
C55	C	0.758562	-0.294294	-0.357786
C56	C	1.091895	0.039040	-0.024453
C57	C	1.425228	0.372373	0.308880
C58	C	0.725498	-0.248840	-0.403378
C59	C	1.058832	0.084493	-0.070044
C60	C	1.392165	0.417827	0.263289
C61	C	0.651743	-0.251928	-0.400287
C62	C	0.985076	0.081405	-0.066953
C63	C	1.318410	0.414738	0.266380
C64	C	0.611052	-0.300474	-0.351608
C65	C	0.944386	0.032859	-0.018274
C66	C	1.277719	0.366193	0.315059
C67	C	0.644120	-0.345929	-0.306012
C68	C	0.977454	-0.012596	0.027322
C69	C	1.310787	0.320737	0.360655
C70	C	0.717874	-0.342837	-0.309099
C71	C	1.051208	-0.009504	0.024234
C72	C	1.384541	0.323829	0.357567
C73	C	0.390062	-0.314759	-0.337315
C74	C	0.723396	0.018575	-0.003982
C75	C	1.056729	0.351908	0.329352
C76	C	0.316303	-0.317849	-0.334232
C77	C	0.649637	0.015484	-0.000899
C78	C	0.982970	0.348818	0.332435
C79	C	0.323931	-0.223846	-0.428507
C80	C	0.657265	0.109487	-0.095173
C81	C	0.990598	0.442820	0.238160
C82	C	0.397686	-0.220761	-0.431593
C83	C	0.731020	0.112572	-0.098260
C84	C	1.064353	0.445905	0.235074
C85	C	0.430748	-0.266214	-0.385995
C86	C	0.764081	0.067119	-0.052661
C87	C	1.097415	0.400452	0.280672
N88	N	0.535662	-0.303633	-0.348449
N89	N	0.868996	0.029700	-0.015115
N90	N	1.202329	0.363033	0.318218
N91	N	0.506136	-0.263051	-0.389151
N92	N	0.839470	0.070282	-0.055817
N93	N	1.172803	0.403616	0.277516
C94	C	1.012785	-0.466846	-0.361064
C95	C	1.346118	-0.133512	-0.027731
C96	C	1.679451	0.199821	0.305603
C97	C	1.009532	-0.545342	-0.357789
C98	C	1.342865	-0.212009	-0.024455
C99	C	1.676198	0.121325	0.308878
C100	C	1.055034	-0.578374	-0.403348
C101	C	1.388367	-0.245041	-0.070014
C102	C	1.721701	0.088293	0.263319
C103	C	1.051975	-0.652130	-0.400271
C104	C	1.385308	-0.318796	-0.066938
C105	C	1.718641	0.014537	0.266395
C106	C	1.003415	-0.692852	-0.351632
C107	C	1.336749	-0.359519	-0.018299
C108	C	1.670082	-0.026185	0.315034
C109	C	0.957908	-0.659815	-0.306071
C110	C	1.291241	-0.326481	0.027262
C111	C	1.624575	0.006852	0.360595
C112	C	0.960965	-0.586061	-0.309152
C113	C	1.294298	-0.252727	0.024182
C114	C	1.627631	0.080606	0.357515
C115	C	0.989227	-0.913846	-0.337373
C116	C	1.322561	-0.580513	-0.004040
C117	C	1.655894	-0.247180	0.329294
C118	C	0.986175	-0.987605	-0.334295
C119	C	1.319509	-0.654272	-0.000961
C120	C	1.652842	-0.320939	0.332372
C121	C	1.080242	-0.979915	-0.428496
C122	C	1.413575	-0.646582	-0.095163
C123	C	1.746908	-0.313248	0.238171
C124	C	1.083297	-0.906160	-0.431569
C125	C	1.416630	-0.572826	-0.098236
C126	C	1.749963	-0.239493	0.235098
C127	C	1.037787	-0.873129	-0.386011
C128	C	1.371120	-0.539796	-0.052677
C129	C	1.704454	-0.206463	0.280656
N130	N	1.000288	-0.768242	-0.348485
N131	N	1.333622	-0.434909	-0.015152
N132	N	1.666955	-0.101575	0.318181
N133	N	1.040911	-0.797740	-0.389162
N134	N	1.374244	-0.464407	-0.055828
N135	N	1.707578	-0.131074	0.277505
C136	C	1.204744	-0.275669	-0.376524
C137	C	1.538078	0.057664	-0.043190
C138	C	1.871411	0.390998	0.290143
C139	C	1.283240	-0.272395	-0.379823
C140	C	1.616574	0.060938	-0.046490
C141	C	1.949907	0.394271	0.286844
C142	C	1.028289	-0.275596	-0.552984
C143	C	1.361623	0.057737	-0.219651
C144	C	1.694956	0.391071	0.113683
C145	C	1.031590	-0.272292	-0.631480
C146	C	1.364924	0.061042	-0.298147
C147	C	1.698257	0.394375	0.035186
C148	C	1.028351	-0.099138	-0.376545
C149	C	1.361684	0.234195	-0.043212
C150	C	1.695017	0.567529	0.290122
C151	C	1.031678	-0.020638	-0.379854
C152	C	1.365011	0.312696	-0.046520
C153	C	1.698345	0.646029	0.286813
C154	C	0.986064	-0.317786	-0.664557
C155	C	1.319397	0.015548	-0.331224
C156	C	1.652731	0.348881	0.002109
C157	C	0.989172	-0.314680	-0.738313
C158	C	1.322505	0.018653	-0.404980
C159	C	1.655838	0.351986	-0.071647
C160	C	1.037803	-0.266077	-0.778991
C161	C	1.371136	0.067256	-0.445657
C162	C	1.704469	0.400590	-0.112324
C163	C	1.083334	-0.220581	-0.745909
C164	C	1.416667	0.112753	-0.412575
C165	C	1.750001	0.446086	-0.079242
C166	C	1.080229	-0.223690	-0.672154
C167	C	1.413562	0.109643	-0.338821
C168	C	1.746896	0.442977	-0.005487
C169	C	1.052140	-0.251736	-0.999981
C170	C	1.385473	0.081597	-0.666648
C171	C	1.718806	0.414931	-0.333314
C172	C	1.055239	-0.248629	-1.073740
C173	C	1.388573	0.084705	-0.740407
C174	C	1.721906	0.418038	-0.407074
C175	C	0.961078	-0.342729	-1.066140
C176	C	1.294411	-0.009396	-0.732806
C177	C	1.627744	0.323937	-0.399473
C178	C	0.957974	-0.345832	-0.992384
C179	C	1.291308	-0.012498	-0.659051
C180	C	1.624641	0.320835	-0.325717
C181	C	1.003508	-0.300338	-0.959309
C182	C	1.336841	0.032995	-0.625975
C183	C	1.670175	0.366329	-0.292642
N184	N	1.040979	-0.262900	-0.854381
N185	N	1.374312	0.070433	-0.521048
N186	N	1.707646	0.403767	-0.187714
N187	N	1.000335	-0.303519	-0.883919
N188	N	1.333668	0.029815	-0.550586
N189	N	1.667001	0.363148	-0.217253
C190	C	1.012869	-0.291023	-0.185299
C191	C	1.346202	0.042310	0.148034
C192	C	1.679536	0.375644	0.481368
C193	C	1.009713	-0.294123	-0.106817
C194	C	1.343046	0.039211	0.226516
C195	C	1.676380	0.372544	0.559849
H196	H	0.610984	-0.385453	-0.266373
H197	H	0.944317	-0.052120	0.066961
H198	H	1.277651	0.281214	0.400294
Br199	Br	1.120945	-0.523115	-0.469356
Br200	Br	1.454278	-0.189782	-0.136023
Br201	Br	1.787611	0.143551	0.197311
H202	H	1.117292	-1.006817	-0.465588
H203	H	1.450626	-0.673483	-0.132254
H204	H	1.783959	-0.340150	0.201079
Br205	Br	0.762747	-0.404525	-0.247222
Br206	Br	1.096080	-0.071192	0.086111
Br207	Br	1.429413	0.262141	0.419445
Br208	Br	1.149202	-0.850899	-0.497581
Br209	Br	1.482535	-0.517565	-0.164247
Br210	Br	1.815869	-0.184232	0.169086
Br211	Br	0.927391	-0.376434	-0.783201
Br212	Br	1.260725	-0.043100	-0.449868
Br213	Br	1.594058	0.290233	-0.116534
Br214	Br	0.920274	-1.042872	-0.268276
Br215	Br	1.253607	-0.709538	0.065058
Br216	Br	1.586940	-0.376205	0.398391
H217	H	1.089217	-0.214692	-0.973060
H218	H	1.422550	0.118641	-0.639726
H219	H	1.755883	0.451975	-0.306393
H220	H	1.117301	-0.186644	-0.645224
H221	H	1.450635	0.146690	-0.311891
H222	H	1.783968	0.480023	0.021443
H223	H	1.122933	-0.181010	-0.779034
H224	H	1.456267	0.152323	-0.445701
H225	H	1.789600	0.485657	-0.112367
H226	H	0.758624	-0.209311	-0.443019
H227	H	1.091957	0.124023	-0.109686
H228	H	1.425291	0.457356	0.223647
Br229	Br	0.606874	-0.190239	-0.462164
Br230	Br	0.940208	0.143094	-0.128831
Br231	Br	1.273541	0.476428	0.204503
Br232	Br	0.920056	-0.383746	-0.609359
Br233	Br	1.253390	-0.050413	-0.276026
Br234	Br	1.586723	0.282921	0.057307
H235	H	0.918385	-0.385420	-0.959269
H236	H	1.251718	-0.052087	-0.625936
H237	H	1.585051	0.281246	-0.292602
H238	H	0.430812	-0.181233	-0.471235
H239	H	0.764146	0.152100	-0.137902
H240	H	1.097479	0.485434	0.195431
H241	H	0.924007	-0.379768	-1.093078
H242	H	1.257340	-0.046435	-0.759745
H243	H	1.590674	0.286899	-0.426411
Br244	Br	0.891996	-0.715080	-0.240069
Br245	Br	1.225330	-0.381746	0.093264
Br246	Br	1.558663	-0.048413	0.426597
Br247	Br	0.279058	-0.162164	-0.490387
Br248	Br	0.612392	0.171170	-0.157053
Br249	Br	0.945725	0.504503	0.176280
H250	H	0.283174	-0.357384	-0.294591
H251	H	0.616508	-0.024051	0.038742
H252	H	0.949841	0.309283	0.372076
H253	H	1.089033	-0.679021	-0.437365
H254	H	1.422366	-0.345688	-0.104032
H255	H	1.755699	-0.012354	0.229302
H256	H	0.416972	-0.351770	-0.300186
H257	H	0.750305	-0.018437	0.033147
H258	H	1.083639	0.314896	0.366481
Br259	Br	0.927455	-0.869028	-0.275552
Br260	Br	1.260788	-0.535695	0.057782
Br261	Br	1.594122	-0.202361	0.391115
H262	H	1.094838	-0.209044	-1.106858
H263	H	1.428172	0.124290	-0.773525
H264	H	1.761505	0.457623	-0.440192
H265	H	0.923911	-0.559167	-0.272054
H266	H	1.257244	-0.225833	0.061280
H267	H	1.590577	0.107500	0.394613
