data_functionalizedCrystal
_audit_creation_method	'MofGen! by Chris Wilmer'
_symmetry_space_group_name_H-M	'P1'
_symmetry_Int_Tables_number	1
_symmetry_cell_setting	triclinic
loop_
_symmetry_equiv_pos_as_xyz
  x,y,z
_cell_length_a	19.288859
_cell_length_b	10.723024
_cell_length_c	9.198806
_cell_angle_alpha	90.002277
_cell_angle_beta	90.004823
_cell_angle_gamma	83.800798
loop_
_atom_site_label
_atom_site_type_symbol
_atom_site_fract_x
_atom_site_fract_y
_atom_site_fract_z
O1	O	0.922363	0.155618	0.120917
O2	O	0.720239	0.176624	0.120914
O3	O	0.825963	-0.015553	0.120910
O4	O	0.816639	0.347795	0.120921
O5	O	0.825955	-0.015555	-0.120875
O6	O	0.720230	0.176623	-0.120871
O7	O	0.922355	0.155617	-0.120868
Cu8	Cu	0.821292	0.166120	-0.142946
Cu9	Cu	0.821302	0.166121	0.142992
O10	O	0.816630	0.347794	-0.120864
C11	C	0.694353	0.175949	0.000021
C12	C	0.617236	0.173924	0.000019
C13	C	0.053840	0.272985	0.000024
C14	C	0.126299	0.274899	0.000032
C15	C	0.170272	0.162138	0.000026
C16	C	0.141781	0.047455	0.000049
C17	C	0.069323	0.045544	0.000056
C18	C	0.290992	0.078041	-0.084690
C19	C	0.363449	0.079956	-0.084706
C20	C	0.393756	0.168026	0.000011
C21	C	0.351598	0.254201	0.084725
C22	C	0.279140	0.252291	0.084732
C23	C	0.248841	0.164197	0.000019
C24	C	0.500808	0.284777	0.000006
C25	C	0.573268	0.286686	0.000023
C26	C	0.588749	0.059238	0.000026
C27	C	0.516290	0.057333	0.000024
C28	C	0.472323	0.170105	0.000007
C29	C	0.825280	-0.062039	0.000019
C30	C	0.823250	-0.200551	0.000025
C31	C	0.882408	-0.276778	0.000028
C32	C	0.880311	-0.419937	0.000033
C33	C	0.948240	0.156292	0.000029
C34	C	1.025357	0.158317	0.000040
C35	C	0.817313	0.394280	0.000030
C36	C	0.819343	0.532791	0.000034
N37	N	0.821290	0.166118	-0.344060
C38	C	0.861789	0.237627	-0.416255
C39	C	0.861800	0.237625	-0.583668
N40	N	0.821309	0.166113	0.344106
H41	H	0.376272	0.325919	0.153706
H42	H	0.768697	-0.401718	0.000022
C43	C	0.908627	0.320330	-0.332342
H44	H	0.934043	0.365185	-0.399346
H45	H	0.880496	0.377970	-0.272966
H46	H	0.940253	0.268845	-0.272963
C47	C	0.484956	-0.068804	0.000016
H48	H	0.521520	-0.135688	0.000001
H49	H	0.457015	-0.074278	0.084331
H50	H	0.457009	-0.074274	-0.084311
C51	C	0.752728	-0.255546	0.000033
H52	H	0.715885	-0.189158	0.000042
H53	H	0.749388	-0.305706	-0.084276
H54	H	0.749399	-0.305687	0.084366
C55	C	0.774462	0.083402	-0.572049
H56	H	0.749057	0.038543	-0.639080
H57	H	0.802589	0.025764	-0.512656
H58	H	0.742828	0.134882	-0.512689
C59	C	0.452442	0.408818	0.000019
H60	H	0.479786	0.477388	0.000037
H61	H	0.423848	0.412808	-0.084292
H62	H	0.423862	0.412793	0.084350
H63	H	0.018047	0.364814	0.000018
C64	C	0.952930	-0.221783	0.000024
H65	H	0.989773	-0.288171	0.000035
H66	H	0.956261	-0.171634	-0.084292
H67	H	0.956268	-0.171631	0.084350
C68	C	0.190145	-0.076582	0.000049
H69	H	0.162801	-0.145151	0.000073
H70	H	0.218729	-0.080576	-0.084267
H71	H	0.218735	-0.080553	0.084375
C72	C	0.908642	0.320334	-0.667529
H73	H	0.902508	0.309477	-0.769047
H74	H	0.896282	0.405825	-0.642656
H75	H	0.956043	0.296707	-0.642638
H76	H	0.149495	0.368278	0.000006
H77	H	0.786626	0.104892	-0.406192
C78	C	0.948729	-0.508411	0.000045
H79	H	0.938344	-0.593023	0.000060
H80	H	0.975027	-0.493409	-0.084266
H81	H	0.975024	-0.493395	0.084376
C82	C	0.037987	-0.080593	0.000071
H83	H	-0.011464	-0.065580	0.000083
H84	H	0.053038	-0.127016	-0.084239
H85	H	0.053045	-0.126994	0.084403
H86	H	0.244818	0.322456	0.153712
C87	C	0.604600	0.412827	0.000002
H88	H	0.568035	0.479711	-0.000021
H89	H	0.632548	0.418315	0.084315
H90	H	0.632540	0.418285	-0.084327
H91	H	0.266323	0.006318	-0.153680
C92	C	0.637110	-0.064797	0.000023
H93	H	0.684344	-0.047238	0.000010
H94	H	0.628420	-0.111832	0.084339
H95	H	0.628413	-0.111837	-0.084303
H96	H	0.397768	0.009793	-0.153693
