data_functionalizedCrystal
_audit_creation_method	'MofGen! by Chris Wilmer'
_symmetry_space_group_name_H-M	'P1'
_symmetry_Int_Tables_number	1
_symmetry_cell_setting	triclinic
loop_
_symmetry_equiv_pos_as_xyz
  x,y,z
_cell_length_a	19.288864
_cell_length_b	12.837942
_cell_length_c	18.366186
_cell_angle_alpha	89.994829
_cell_angle_beta	89.977106
_cell_angle_gamma	88.982593
loop_
_atom_site_label
_atom_site_type_symbol
_atom_site_fract_x
_atom_site_fract_y
_atom_site_fract_z
O1	O	0.930180	0.129276	-0.060785
O2	O	1.430180	0.629276	0.439215
O3	O	0.729110	0.146715	-0.060736
O4	O	1.229110	0.646715	0.439264
O5	O	0.825187	-0.012886	-0.060755
O6	O	1.325187	0.487114	0.439245
O7	O	0.834104	0.288877	-0.060766
O8	O	1.334104	0.788877	0.439234
O9	O	0.825168	-0.012894	0.060345
O10	O	1.325168	0.487106	0.560345
O11	O	0.729092	0.146707	0.060364
O12	O	1.229092	0.646707	0.560364
O13	O	0.930162	0.129268	0.060314
O14	O	1.430162	0.629268	0.560314
Zn15	Zn	0.829624	0.137986	0.079566
Zn16	Zn	1.329624	0.637986	0.579566
Zn17	Zn	0.829648	0.137997	-0.079987
Zn18	Zn	1.329648	0.637997	0.420013
O19	O	0.834085	0.288870	0.060334
O20	O	1.334085	0.788870	0.560334
C21	C	0.703186	0.146150	-0.000179
C22	C	1.203186	0.646150	0.499821
C23	C	0.625968	0.144466	-0.000160
C24	C	1.125968	0.644466	0.499840
C25	C	0.587666	0.238113	-0.000175
C26	C	1.087666	0.738113	0.499825
C27	C	0.515111	0.236530	-0.000183
C28	C	1.015111	0.736530	0.499817
C29	C	0.480860	0.141295	-0.000191
C30	C	0.980860	0.641295	0.499809
C31	C	0.519171	0.047636	-0.000172
C32	C	1.019171	0.547636	0.499828
C33	C	0.591725	0.049221	-0.000157
C34	C	1.091725	0.549221	0.499843
C35	C	0.367493	0.066433	-0.042639
C36	C	0.867493	0.566433	0.457361
C37	C	0.294940	0.064852	-0.042659
C38	C	0.794940	0.564852	0.457341
C39	C	0.257081	0.136402	-0.000235
C40	C	0.757081	0.636402	0.499765
C41	C	0.291782	0.209552	0.042200
C42	C	0.791782	0.709552	0.542200
C43	C	0.364336	0.211137	0.042215
C44	C	0.864336	0.711137	0.542215
C45	C	0.402188	0.139566	-0.000207
C46	C	0.902188	0.639566	0.499793
C47	C	0.140106	0.228340	-0.000257
C48	C	0.640106	0.728340	0.499743
C49	C	0.067550	0.226753	-0.000261
C50	C	0.567550	0.726753	0.499739
C51	C	0.071611	0.037857	-0.000257
C52	C	0.571611	0.537857	0.499743
C53	C	0.144166	0.039446	-0.000246
C54	C	0.644166	0.539446	0.499754
C55	C	0.178409	0.134690	-0.000250
C56	C	0.678409	0.634690	0.499750
C57	C	0.822165	-0.051497	-0.000205
C58	C	1.322165	0.448503	0.499795
C59	C	0.813181	-0.166532	-0.000204
C60	C	1.313181	0.333468	0.499796
C61	C	0.921187	-0.407995	-0.000245
C62	C	1.421187	0.092005	0.499755
C63	C	0.912748	-0.516081	-0.000245
C64	C	1.412748	-0.016081	0.499755
C65	C	0.787867	-0.490793	-0.000206
C66	C	1.287867	0.009207	0.499794
C67	C	0.796305	-0.382707	-0.000207
C68	C	1.296305	0.117293	0.499793
C69	C	0.862967	-0.341312	-0.000226
C70	C	1.362967	0.158688	0.499774
C71	C	0.871405	-0.233223	-0.000221
C72	C	1.371405	0.266777	0.499779
C73	C	0.746524	-0.207938	-0.000188
C74	C	1.246524	0.292062	0.499812
C75	C	0.738086	-0.316024	-0.000187
C76	C	1.238086	0.183976	0.499813
C77	C	0.956086	0.129833	-0.000243
C78	C	1.456086	0.629833	0.499757
C79	C	1.033304	0.131518	-0.000267
C80	C	1.533304	0.631518	0.499733
C81	C	0.837107	0.327480	-0.000218
C82	C	1.337107	0.827480	0.499782
C83	C	0.846091	0.442515	-0.000224
C84	C	1.346091	0.942515	0.499776
N85	N	0.829612	0.137979	0.188457
N86	N	1.329612	0.637979	0.688457
N87	N	0.829665	0.137996	-0.188879
N88	N	1.329665	0.637996	0.311121
C89	C	0.872172	0.067342	0.226549
C90	C	1.372172	0.567342	0.726549
C91	C	0.872177	0.067337	0.302777
C92	C	1.372177	0.567337	0.802777
C93	C	0.829628	0.137987	0.340910
C94	C	1.329628	0.637987	0.840910
C95	C	0.787059	0.208630	0.302809
C96	C	1.287059	0.708630	0.802809
C97	C	0.787051	0.208625	0.226583
C98	C	1.287051	0.708625	0.726583
C99	C	0.826777	0.232410	0.461668
C100	C	1.326777	0.732410	0.961668
C101	C	0.826790	0.232416	0.537893
C102	C	1.326790	0.732416	1.037893
C103	C	0.829649	0.138000	0.576018
C104	C	1.329649	0.638000	1.076018
C105	C	0.832508	0.043575	0.537908
C106	C	1.332508	0.543575	1.037908
C107	C	0.832500	0.043571	0.461681
C108	C	1.332500	0.543571	0.961681
C109	C	0.829632	0.137999	0.423565
C110	C	1.329632	0.637999	0.923565
C111	C	0.872216	0.067352	0.696764
C112	C	1.372216	0.567352	1.196764
C113	C	0.872215	0.067346	0.772994
C114	C	1.372215	0.567346	1.272994
C115	C	0.787101	0.208648	0.773024
C116	C	1.287101	0.708648	1.273024
C117	C	0.787098	0.208645	0.696796
C118	C	1.287098	0.708645	1.196796
C119	C	0.829659	0.137998	0.658671
C120	C	1.329659	0.637998	1.158671
H121	H	0.392587	0.270694	0.076769
H122	H	0.892587	0.770694	0.576769
O123	O	0.250958	0.286732	0.087961
O124	O	0.750958	0.786732	0.587961
H125	H	0.265089	0.276341	0.146120
H126	H	0.765089	0.776341	0.646120
O127	O	0.918121	-0.008851	0.814079
O128	O	1.418121	0.491149	1.314079
H129	H	0.910971	0.003008	0.873489
H130	H	1.410971	0.503008	1.373489
O131	O	0.257512	-0.014035	-0.088426
O132	O	0.757512	0.485965	0.411574
H133	H	0.225479	-0.063595	-0.052646
H134	H	0.725479	0.436405	0.447354
O135	O	0.823686	0.334260	0.420563
O136	O	1.323686	0.834260	0.920563
H137	H	0.776582	0.336820	0.385870
H138	H	1.276582	0.836820	0.885870
H139	H	0.483920	0.312791	-0.000193
H140	H	0.983920	0.812791	0.499807
H141	H	0.699118	-0.153632	-0.000166
H142	H	1.199118	0.346368	0.499834
H143	H	0.733594	-0.524517	-0.000199
H144	H	1.233594	-0.024517	0.499801
O145	O	0.943301	-0.188570	-0.000242
O146	O	1.443301	0.311430	0.499758
H147	H	0.950132	-0.139916	-0.049599
H148	H	1.450132	0.360084	0.450401
H149	H	0.975465	-0.374291	-0.000253
H150	H	1.475465	0.125709	0.499747
H151	H	0.167988	0.305893	-0.000250
H152	H	0.667988	0.805893	0.499750
H153	H	0.683812	-0.349743	-0.000175
H154	H	1.183812	0.150257	0.499825
H155	H	0.615542	0.315668	-0.000180
H156	H	1.115542	0.815668	0.499820
H157	H	0.960157	-0.570371	-0.000263
H158	H	1.460157	-0.070371	0.499737
H159	H	0.906826	0.009815	0.195510
H160	H	1.406826	0.509815	0.695510
O161	O	0.918090	-0.008841	0.343877
O162	O	1.418090	0.491159	0.843877
H163	H	0.947688	-0.057960	0.304559
H164	H	1.447688	0.442040	0.804559
H165	H	0.043725	-0.039685	-0.000308
H166	H	0.543725	0.460315	0.499692
O167	O	0.835610	-0.058265	0.579019
O168	O	1.335610	0.441735	1.079019
H169	H	0.837609	-0.123920	0.539714
H170	H	1.337609	0.376080	1.039714
O171	O	0.408326	-0.010739	-0.088403
O172	O	0.908326	0.489261	0.411597
H173	H	0.372009	-0.061855	-0.117922
H174	H	0.872009	0.438145	0.382078
H175	H	0.175352	-0.036812	-0.000238
H176	H	0.675352	0.463188	0.499762
O177	O	0.835573	-0.058263	0.420573
O178	O	1.335573	0.441737	0.920573
H179	H	0.837556	-0.123920	0.459884
H180	H	1.337556	0.376080	0.959884
H181	H	0.906869	0.009824	0.665722
H182	H	1.406869	0.509824	1.165722
O183	O	0.741209	0.284855	0.814141
O184	O	1.241209	0.784855	1.314141
H185	H	0.748367	0.272997	0.873546
H186	H	1.248367	0.772997	1.373546
O187	O	0.741202	0.284844	0.655704
O188	O	1.241202	0.784844	1.155704
H189	H	0.711620	0.333979	0.695024
H190	H	1.211620	0.833979	1.195024
O191	O	0.823720	0.334253	0.578997
O192	O	1.323720	0.834253	1.078997
H193	H	0.821722	0.399905	0.539682
H194	H	1.321722	0.899905	1.039682
H195	H	0.036366	0.303015	-0.000269
H196	H	0.536366	0.803015	0.499731
O197	O	0.741170	0.284839	0.343931
O198	O	1.241170	0.784839	0.843931
H199	H	0.748331	0.272985	0.403337
H200	H	1.248331	0.772985	0.903337
H201	H	0.752392	0.266147	0.195568
H202	H	1.252392	0.766147	0.695568
H203	H	0.491280	-0.029905	-0.000188
H204	H	0.991280	0.470095	0.499812
H205	H	0.622910	-0.027040	-0.000145
H206	H	1.122910	0.472960	0.499855
