data_functionalizedCrystal
_audit_creation_method	'MofGen! by Chris Wilmer'
_symmetry_space_group_name_H-M	'P1'
_symmetry_Int_Tables_number	1
_symmetry_cell_setting	triclinic
loop_
_symmetry_equiv_pos_as_xyz
  x,y,z
_cell_length_a	6.817900
_cell_length_b	11.168138
_cell_length_c	10.992410
_cell_angle_alpha	91.928883
_cell_angle_beta	108.764651
_cell_angle_gamma	108.508793
loop_
_atom_site_label
_atom_site_type_symbol
_atom_site_fract_x
_atom_site_fract_y
_atom_site_fract_z
V1	V	-4.112915	-0.174705	-0.400604
O2	O	-4.072440	0.008395	-0.392967
O3	O	-4.089183	-0.346410	-0.397875
O4	O	-4.090528	-0.172017	-0.575316
O5	O	-4.071087	-0.167205	-0.214297
V6	V	-4.589976	-0.152804	-0.378319
O7	O	-4.388349	-0.222746	-0.449488
O8	O	-4.764739	-0.104762	-0.329435
O9	O	-4.390501	0.018902	-0.381048
O10	O	-4.747847	-0.335904	-0.385956
O11	O	-4.749201	-0.160304	-0.564626
O12	O	-4.389157	-0.155491	-0.203606
C13	C	-3.939344	-0.388268	-0.391558
C14	C	-4.001401	-0.528639	-0.390491
C15	C	-3.854182	-0.585111	-0.383921
C16	C	-3.918317	-0.730192	-0.382818
C17	C	-3.941057	-0.165811	-0.617900
C18	C	-4.004199	-0.164750	-0.760729
C19	C	-3.871396	-0.155083	-0.955851
C20	C	-3.805834	-0.156709	-0.807368
C21	C	-4.201265	-0.289253	-0.837840
C22	C	-4.265587	-0.288152	-0.986407
C23	C	-4.145193	-0.047070	-0.948360
C24	C	-4.074488	-0.046480	-0.799347
C25	C	-4.203683	0.060753	-0.387361
C26	C	-4.120866	0.201123	-0.388437
C27	C	-4.201969	-0.161701	-0.161015
C28	C	-4.118064	-0.162756	-0.018186
H29	H	-3.680659	-0.526049	-0.379106
C30	C	-3.748176	-0.795827	-0.375214
N31	N	-3.620019	-0.845265	-0.369482
C32	C	-3.836838	-0.267370	-1.020698
N33	N	-3.810816	-0.351944	-1.069546
H34	H	-4.174914	-0.587698	-0.395285
H35	H	-4.246813	-0.750299	-0.394069
H36	H	-3.658061	-0.067187	-0.754022
C37	C	-3.714012	-0.033432	-0.981493
N38	N	-3.595483	0.058156	-1.000891
C39	C	-3.727721	-0.270566	-0.773847
N40	N	-3.668893	-0.356330	-0.748601
H41	H	-4.154833	-0.377063	-0.812240
H42	H	-4.249357	-0.375747	-1.032683
C43	C	-4.007126	0.080656	-0.975850
N44	N	-3.903114	0.176854	-0.996555
C45	C	-3.881907	0.077948	-0.728611
N46	N	-3.736849	0.171665	-0.675323
H47	H	-4.447506	-0.298978	-1.029039
C48	C	-4.266303	-0.044410	-0.755275
N49	N	-4.410729	-0.042832	-0.722034
H50	H	-4.324142	-0.051595	-0.989201
H51	H	-4.351562	-0.299633	-0.809038
