data_functionalizedCrystal
_audit_creation_method	'MofGen! by Chris Wilmer'
_symmetry_space_group_name_H-M	'P1'
_symmetry_Int_Tables_number	1
_symmetry_cell_setting	triclinic
loop_
_symmetry_equiv_pos_as_xyz
  x,y,z
_cell_length_a	10.654546
_cell_length_b	19.188924
_cell_length_c	9.730223
_cell_angle_alpha	89.996615
_cell_angle_beta	89.998853
_cell_angle_gamma	83.812724
loop_
_atom_site_label
_atom_site_type_symbol
_atom_site_fract_x
_atom_site_fract_y
_atom_site_fract_z
O1	O	1.665757	0.098048	-0.114327
O2	O	1.300080	0.107393	-0.114324
O3	O	1.493476	0.001133	-0.114309
O4	O	1.472362	0.204307	-0.114342
O5	O	1.493474	0.001136	0.114271
O6	O	1.300078	0.107396	0.114256
O7	O	1.665755	0.098050	0.114253
Zn8	Zn	1.482916	0.102723	0.150547
Zn9	Zn	1.482919	0.102720	-0.150617
O10	O	1.472359	0.204310	0.114238
C11	C	1.253296	0.106709	-0.000033
C12	C	1.113896	0.104657	-0.000031
C13	C	1.048423	0.103685	-0.124636
C14	C	0.917443	0.101752	-0.124647
C15	C	0.917421	0.101760	0.124563
C16	C	1.048398	0.103698	0.124572
C17	C	1.113921	0.104644	-0.249240
C18	C	1.048448	0.103671	-0.373856
C19	C	0.917468	0.101737	-0.373866
C20	C	0.851961	0.100777	-0.249262
C21	C	1.492793	-0.024881	-0.000018
C22	C	1.490744	-0.102399	-0.000014
C23	C	1.489790	-0.138806	-0.124614
C24	C	1.487847	-0.211641	-0.124624
C25	C	1.486885	-0.248069	-0.000028
C26	C	1.487833	-0.211653	0.124588
C27	C	1.489762	-0.138818	0.124594
N28	N	1.555317	-0.367284	0.092705
N29	N	1.553487	-0.436474	0.092690
C30	C	1.481068	-0.467516	-0.000041
N31	N	1.410565	-0.426755	-0.092778
N32	N	1.412401	-0.357559	-0.092767
C33	C	1.484792	-0.327046	-0.000022
C34	C	1.478006	-0.582899	-0.124660
C35	C	1.476055	-0.655735	-0.124666
C36	C	1.476054	-0.655747	0.124549
C37	C	1.477991	-0.582911	0.124551
C38	C	1.478973	-0.546492	-0.000058
C39	C	1.712540	0.098735	-0.000041
C40	C	1.851940	0.100786	-0.000052
C41	C	1.473043	0.230324	-0.000056
C42	C	1.475091	0.307842	-0.000069
N43	N	1.482923	0.102725	0.356083
N44	N	1.482922	0.102712	-0.356154
C45	C	1.568581	0.055690	0.428015
C46	C	1.568577	0.055681	0.571898
C47	C	1.397256	0.149750	0.571904
C48	C	1.397254	0.149755	0.428023
C49	C	1.654250	0.008660	0.356075
C50	C	1.739915	-0.038379	0.428008
C51	C	1.739912	-0.038387	0.571891
C52	C	1.654244	0.008643	0.643841
H53	H	0.864076	0.100978	0.226010
H54	H	1.478779	-0.553269	0.226013
C55	C	1.227924	0.242746	0.442469
C56	C	1.303106	0.201461	0.348944
H57	H	1.169804	0.274669	0.393646
H58	H	1.182918	0.213450	0.498585
H59	H	1.280064	0.268128	0.498591
H60	H	1.250966	0.176075	0.292829
H61	H	1.348115	0.230761	0.292805
C62	C	0.649923	0.157949	-0.181377
C63	C	0.707981	0.098672	-0.249224
H64	H	0.561037	0.156652	-0.181348
H65	H	0.679583	0.158377	-0.089359
H66	H	0.669763	0.199018	-0.227429
H67	H	0.688149	0.057603	-0.203166
H68	H	0.678310	0.098237	-0.341258
H69	H	1.220571	0.106216	-0.249246
C70	C	1.249239	0.106626	-0.484497
C71	C	1.120448	0.104727	-0.510815
H72	H	1.293684	0.107274	-0.569055
H73	H	1.260887	0.147584	-0.433318
H74	H	1.280493	0.066299	-0.433288
H75	H	1.089191	0.145057	-0.562017
H76	H	1.108792	0.063765	-0.562016
H77	H	1.478798	-0.553245	-0.226124
H78	H	0.864162	0.100952	-0.475334
C79	C	1.210159	0.045971	0.269153
C80	C	1.120383	0.104765	0.261535
H81	H	1.254604	0.046635	0.353706
H82	H	1.168874	0.004580	0.263993
H83	H	1.267898	0.046831	0.194935
H84	H	1.062638	0.103902	0.335747
H85	H	1.161670	0.146167	0.266709
H86	H	1.475260	-0.685405	0.225998
H87	H	1.490586	-0.109158	-0.226080
H88	H	1.487046	-0.241317	0.226034
C89	C	1.487993	-0.204318	-0.370962
C90	C	1.486749	-0.251667	-0.261593
H91	H	1.487307	-0.229028	-0.455518
H92	H	1.415551	-0.170931	-0.365750
H93	H	1.561979	-0.180891	-0.365800
H94	H	1.412758	-0.275090	-0.266749
H95	H	1.559199	-0.285066	-0.266807
H96	H	1.490535	-0.109176	0.226061
C97	C	1.476309	-0.648407	-0.370999
C98	C	1.475025	-0.695758	-0.261637
H99	H	1.475687	-0.673119	-0.455559
H100	H	1.403849	-0.615031	-0.365836
H101	H	1.550278	-0.624968	-0.365782
H102	H	1.401051	-0.719194	-0.266849
H103	H	1.547493	-0.729146	-0.266803
C104	C	1.772492	0.023368	0.149975
C105	C	1.654260	0.008665	0.197918
H106	H	1.772498	0.023368	0.052336
H107	H	1.789401	0.068078	0.182524
H108	H	1.835757	-0.011378	0.182534
H109	H	1.590995	0.043415	0.165367
H110	H	1.637336	-0.036050	0.165355
C111	C	1.767648	-0.133272	0.266255
C112	C	1.834048	-0.090103	0.348955
H113	H	1.825757	-0.165211	0.217458
H114	H	1.715502	-0.158630	0.322403
H115	H	1.716667	-0.105251	0.202800
H116	H	1.885022	-0.118124	0.412417
H117	H	1.886215	-0.064743	0.292802
C118	C	1.909260	-0.131366	0.557426
C119	C	1.834070	-0.090092	0.650961
H120	H	1.967398	-0.163282	0.606242
H121	H	1.857136	-0.156749	0.501310
H122	H	1.954256	-0.102056	0.501306
H123	H	1.789067	-0.119401	0.707074
H124	H	1.886201	-0.064707	0.707101
H125	H	1.654240	0.008628	0.761000
H126	H	1.327509	0.188041	0.630495
