data_functionalizedCrystal
_audit_creation_method	'MofGen! by Chris Wilmer'
_symmetry_space_group_name_H-M	'P1'
_symmetry_Int_Tables_number	1
_symmetry_cell_setting	triclinic
loop_
_symmetry_equiv_pos_as_xyz
  x,y,z
_cell_length_a	12.996460
_cell_length_b	14.853567
_cell_length_c	14.853567
_cell_angle_alpha	96.365070
_cell_angle_beta	89.997651
_cell_angle_gamma	90.002610
loop_
_atom_site_label
_atom_site_type_symbol
_atom_site_fract_x
_atom_site_fract_y
_atom_site_fract_z
O1	O	-0.085487	-1.196366	0.117706
O2	O	-0.085504	-0.933906	0.131727
O3	O	-0.085498	-1.072147	-0.006513
O4	O	-0.085493	-1.058126	0.255946
O5	O	0.085636	-1.072133	-0.006521
O6	O	0.085630	-0.933892	0.131720
O7	O	0.085647	-1.196352	0.117698
Cu8	Cu	0.101264	-1.065120	0.124708
Cu9	Cu	-0.101121	-1.065138	0.124717
O10	O	0.085641	-1.058111	0.255939
C11	C	0.000061	-0.900311	0.131088
C12	C	0.000054	-0.800227	0.129184
N13	N	0.243611	-1.065115	0.124701
N14	N	-0.243468	-1.065150	0.124717
C15	C	0.663426	-1.065136	0.124718
C16	C	0.546621	-1.065128	0.124717
C17	C	0.453522	-1.065126	0.124710
C18	C	0.336710	-1.065117	0.124707
C19	C	0.000066	-1.071504	-0.040106
C20	C	0.000057	-1.069601	-0.140189
C21	C	0.000080	-1.229947	0.118337
C22	C	0.000080	-1.330031	0.120241
C23	C	0.000076	-0.387693	0.039019
C24	C	0.000078	-0.366412	0.203251
C25	C	0.000075	-0.460446	0.205041
C26	C	0.000070	-0.518108	0.123819
C27	C	0.000069	-0.481736	0.040806
C28	C	0.000065	-0.496825	0.288053
C29	C	0.000061	-0.590864	0.289846
C30	C	0.000064	-0.648528	0.208623
C31	C	0.000064	-0.612150	0.125607
C32	C	0.000060	-0.669812	0.044384
C33	C	0.000067	-0.633437	-0.038633
C34	C	0.000072	-0.539399	-0.040417
C35	C	0.000059	-0.742565	0.210407
C36	C	0.000053	-0.763855	0.046172
C37	C	0.000071	-0.979435	-0.552723
C38	C	0.000081	-1.143668	-0.574004
C39	C	0.000075	-1.145458	-0.479971
C40	C	0.000069	-1.064235	-0.422309
C41	C	0.000068	-0.981223	-0.458680
C42	C	0.000086	-1.228469	-0.443591
C43	C	0.000081	-1.230262	-0.349552
C44	C	0.000067	-1.149039	-0.291889
C45	C	0.000066	-1.066023	-0.328266
C46	C	0.000059	-0.984800	-0.270604
C47	C	0.000050	-0.901783	-0.306979
C48	C	0.000054	-0.899999	-0.401017
C49	C	0.000063	-1.150823	-0.197851
C50	C	0.000056	-0.986588	-0.176561
C51	C	0.000075	-1.058754	0.289531
C52	C	0.000077	-1.060657	0.389615
H53	H	0.000054	-0.810798	-0.019971
H54	H	0.000058	-0.449870	0.354180
H55	H	0.000103	-0.509774	-0.108005
H56	H	0.000055	-0.620472	0.357443
H57	H	0.000086	-0.358072	-0.028572
C58	C	0.000047	-0.782576	0.301713
H59	H	0.000051	-0.734766	0.349830
H60	H	-0.059632	-0.818819	0.305822
H61	H	0.059732	-0.818814	0.305826
H62	H	0.000059	-0.911844	-0.582344
H63	H	0.000073	-0.319459	0.269379
H64	H	0.000056	-0.680397	-0.104764
C65	C	0.000050	-0.897241	-0.113140
H66	H	0.000052	-0.847548	-0.148274
H67	H	-0.059626	-0.894530	-0.076009
H68	H	0.059738	-0.894519	-0.076019
H69	H	0.000095	-1.209795	-0.620958
H70	H	0.000052	-0.835652	-0.260019
H71	H	0.000101	-1.294596	-0.490546
C72	C	0.000058	-0.808691	-0.441032
H73	H	0.000075	-0.819262	-0.505295
H74	H	-0.059620	-0.775242	-0.421254
H75	H	0.059744	-0.775245	-0.421246
C76	C	0.000078	-1.321575	-0.309547
H77	H	0.000074	-1.369691	-0.357357
H78	H	0.059749	-1.325687	-0.273300
H79	H	-0.059614	-1.325687	-0.273312
H80	H	0.000078	-1.218414	-0.168238
