data_functionalizedCrystal
_audit_creation_method	'MofGen! by Chris Wilmer'
_symmetry_space_group_name_H-M	'P1'
_symmetry_Int_Tables_number	1
_symmetry_cell_setting	triclinic
loop_
_symmetry_equiv_pos_as_xyz
  x,y,z
_cell_length_a	19.077312
_cell_length_b	16.959453
_cell_length_c	19.077174
_cell_angle_alpha	92.272211
_cell_angle_beta	90.075859
_cell_angle_gamma	87.730907
loop_
_atom_site_label
_atom_site_type_symbol
_atom_site_fract_x
_atom_site_fract_y
_atom_site_fract_z
Zn1	Zn	1.090140	-0.379777	-0.354125
Zn2	Zn	1.085341	-0.506443	-0.236622
Zn3	Zn	0.967925	-0.369207	-0.241356
Zn4	Zn	0.972603	-0.506834	-0.358811
O5	O	1.029002	-0.440565	-0.297729
O6	O	1.187832	-0.400839	-0.334596
O7	O	1.065799	-0.483652	-0.138920
O8	O	0.984188	-0.260002	-0.256336
O9	O	1.184306	-0.493901	-0.248267
O10	O	1.073979	-0.267767	-0.339186
O11	O	0.979534	-0.382825	-0.142398
O12	O	0.870217	-0.383204	-0.260879
O13	O	0.992161	-0.494567	-0.456520
O14	O	0.873654	-0.484318	-0.347173
O15	O	1.078515	-0.401218	-0.453077
O16	O	1.070335	-0.617103	-0.252811
O17	O	0.987507	-0.617390	-0.342582
C18	C	0.846440	-0.432657	-0.305049
C19	C	0.768340	-0.429294	-0.308197
C20	C	0.328917	-0.405107	-0.330784
C21	C	0.402300	-0.408282	-0.327822
C22	C	0.437144	-0.458235	-0.281321
C23	C	0.398601	-0.505022	-0.237785
C24	C	0.325219	-0.501851	-0.240751
C25	C	0.656414	-0.472909	-0.267627
C26	C	0.729801	-0.476075	-0.264662
C27	C	0.733496	-0.379336	-0.354701
C28	C	0.660112	-0.376166	-0.357660
C29	C	0.621576	-0.422956	-0.314126
N30	N	0.512153	-0.461479	-0.278291
N31	N	0.546568	-0.419715	-0.317160
C32	C	1.028927	-0.645927	-0.297706
C33	C	1.028960	-0.733786	-0.297717
C34	C	0.985812	-0.775236	-0.344426
C35	C	1.072144	-0.774892	-0.251022
C36	C	1.072179	-0.857440	-0.251034
C37	C	1.029031	-0.898890	-0.297743
C38	C	0.985848	-0.857792	-0.344440
C39	C	1.115367	-0.898544	-0.204342
C40	C	1.115405	-0.981097	-0.204352
C41	C	1.072253	-1.022548	-0.251058
C42	C	1.029067	-0.981445	-0.297757
C43	C	0.985919	-1.022895	-0.344466
C44	C	0.942729	-0.981794	-0.391162
C45	C	0.942696	-0.899243	-0.391147
C46	C	1.072286	-1.105099	-0.251073
C47	C	0.985955	-1.105451	-0.344480
C48	C	1.212278	-0.448505	-0.290381
C49	C	1.290379	-0.451889	-0.287249
C50	C	1.036395	-0.449115	-0.481008
C51	C	1.039546	-0.452758	-0.559110
C52	C	1.029097	-0.234403	-0.297766
C53	C	1.029138	-0.146549	-0.297782
C54	C	0.996115	-0.401976	-0.597613
C55	C	0.999072	-0.405406	-0.670999
C56	C	1.045465	-0.459615	-0.705880
C57	C	1.088898	-0.510402	-0.667372
C58	C	1.085937	-0.506976	-0.593988
C59	C	1.059135	-0.475495	-0.925161
C60	C	1.062095	-0.478916	-0.998551
C61	C	0.972268	-0.373920	-1.002173
C62	C	0.969313	-0.370495	-0.928787
C63	C	1.012744	-0.421286	-0.890285
N64	N	1.048491	-0.463120	-0.780892
N65	N	1.009714	-0.417784	-0.815275
C66	C	1.021678	-0.431994	-0.115161
C67	C	1.018664	-0.428134	-0.037054
H68	H	0.764881	-0.341243	-0.390144
C69	C	0.282827	-0.553312	-0.192857
N70	N	0.250898	-0.592076	-0.156783
H71	H	0.936909	-0.332570	-1.033529
C72	C	1.133718	-0.562837	-0.551634
N73	N	1.169708	-0.604915	-0.519735
C74	C	0.290596	-0.350155	-0.381939
N75	N	0.261734	-0.308766	-0.420473
H76	H	1.107278	-0.741141	-0.212996
C77	C	0.895267	-1.027399	-0.442540
N78	N	0.859518	-1.061753	-0.481235
H79	H	0.950818	-1.139194	-0.382517
C80	C	0.895197	-0.854025	-0.442513
N81	N	0.859424	-0.819964	-0.481205
C82	C	0.768128	-0.531035	-0.213510
N83	N	0.796996	-0.572428	-0.174984
C84	C	1.139772	-0.570205	-0.705750
N85	N	1.178035	-0.615309	-0.734658
H86	H	0.931533	-0.326355	-0.900392
H87	H	0.625046	-0.511007	-0.232176
H88	H	1.150501	-0.864793	-0.166316
C89	C	0.444689	-0.356811	-0.375708
N90	N	0.476615	-0.318039	-0.411777
H91	H	0.631748	-0.335492	-0.395528
C92	C	1.119792	-1.150307	-0.199711
N93	N	1.155575	-1.184357	-0.161021
H94	H	0.426976	-0.545698	-0.199926
C95	C	0.938307	-0.730024	-0.395791
N96	N	0.902527	-0.695969	-0.434480
C97	C	0.945078	-0.342342	-0.559251
N98	N	0.906634	-0.297426	-0.530358
H99	H	0.963703	-0.364056	-0.702345
C100	C	1.113131	-0.538556	-1.036919
N101	N	1.151569	-0.583474	-1.065817
C102	C	1.162908	-1.026301	-0.152979
N103	N	1.198684	-1.060349	-0.114282
C104	C	1.106950	-0.531324	-0.882817
N105	N	1.142980	-0.573363	-0.850921
