data_functionalizedCrystal
_audit_creation_method	'MofGen! by Chris Wilmer'
_symmetry_space_group_name_H-M	'P1'
_symmetry_Int_Tables_number	1
_symmetry_cell_setting	triclinic
loop_
_symmetry_equiv_pos_as_xyz
  x,y,z
_cell_length_a	34.490303
_cell_length_b	34.489386
_cell_length_c	34.485816
_cell_angle_alpha	60.004462
_cell_angle_beta	60.008900
_cell_angle_gamma	59.994399
loop_
_atom_site_label
_atom_site_type_symbol
_atom_site_fract_x
_atom_site_fract_y
_atom_site_fract_z
O1	O	0.053846	-0.566517	0.473678
O2	O	0.553846	-0.066517	0.973678
O3	O	0.020329	-0.441078	0.381663
O4	O	0.520329	0.058922	0.881663
O5	O	0.099768	-0.520436	0.381578
O6	O	0.599768	-0.020436	0.881578
O7	O	-0.025592	-0.487159	0.473762
O8	O	0.474408	0.012841	0.973762
O9	O	0.126127	-0.494082	0.407849
O10	O	0.626127	0.005918	0.907849
O11	O	0.046689	-0.414724	0.407933
O12	O	0.546689	0.085276	0.907933
O13	O	0.080206	-0.540163	0.499949
O14	O	0.580206	-0.040163	0.999949
Zn15	Zn	0.067632	-0.473259	0.458112
Zn16	Zn	0.567632	0.026741	0.958112
Zn17	Zn	0.032903	-0.507982	0.423499
Zn18	Zn	0.532903	-0.007982	0.923499
O19	O	0.000767	-0.460805	0.500033
O20	O	0.500767	0.039195	1.000033
N21	N	0.091336	-0.449565	0.481736
N22	N	0.591336	0.050435	0.981736
N23	N	0.009203	-0.531680	0.399875
N24	N	0.509203	-0.031680	0.899875
C25	C	0.142510	-0.268211	0.532817
C26	C	0.642510	0.231789	1.032817
C27	C	0.142641	-0.398441	0.662987
C28	C	0.642641	0.101559	1.162987
C29	C	0.142524	-0.398421	0.532817
C30	C	0.642524	0.101579	1.032817
C31	C	0.272762	-0.398394	0.532723
C32	C	0.772762	0.101606	1.032723
C33	C	0.156853	-0.311177	0.547124
C34	C	0.656853	0.188823	1.047124
C35	C	0.156928	-0.384109	0.620020
C36	C	0.656928	0.115891	1.120020
C37	C	0.229794	-0.384081	0.547073
C38	C	0.729794	0.115919	1.047073
C39	C	0.156863	-0.384097	0.547124
C40	C	0.656863	0.115903	1.047124
C41	C	0.124253	-0.213522	0.514606
C42	C	0.624253	0.286478	1.014606
C43	C	0.124277	-0.416652	0.514606
C44	C	0.624277	0.083348	1.014606
C45	C	0.175110	-0.365866	0.565335
C46	C	0.675110	0.134134	1.065335
C47	C	0.352285	-0.384669	0.490824
C48	C	0.852285	0.115331	0.990824
C49	C	0.401998	-0.401229	0.474223
C50	C	0.901998	0.098771	0.974223
C51	C	0.402027	-0.481671	0.504898
C52	C	0.902027	0.018329	1.004898
C53	C	0.352316	-0.465109	0.521500
C54	C	0.852316	0.034891	1.021500
C55	C	0.136220	-0.188652	0.465734
C56	C	0.636220	0.311348	0.965734
C57	C	0.119621	-0.138936	0.449181
C58	C	0.619621	0.361064	0.949181
C59	C	0.079092	-0.138961	0.530374
C60	C	0.579092	0.361039	1.030374
C61	C	0.095691	-0.188678	0.546927
C62	C	0.595691	0.311322	1.046927
C63	C	0.075398	-0.404656	0.526651
C64	C	0.575398	0.095344	1.026651
C65	C	0.058814	-0.421229	0.510091
C66	C	0.558814	0.078771	1.010091
C67	C	0.139984	-0.461794	0.469452
C68	C	0.639984	0.038206	0.969452
C69	C	0.156570	-0.445221	0.486007
C70	C	0.656570	0.054779	0.986007
C71	C	0.075593	-0.404694	0.742565
C72	C	0.575593	0.095306	1.242565
C73	C	0.059066	-0.421281	0.792280
C74	C	0.559066	0.078719	1.292280
C75	C	0.140274	-0.461856	0.792215
C76	C	0.640274	0.038144	1.292215
C77	C	0.156800	-0.445269	0.742499
C78	C	0.656800	0.054731	1.242499
C79	C	0.124458	-0.416687	0.717675
C80	C	0.624458	0.083313	1.217675
C81	C	0.327446	-0.416608	0.514460
C82	C	0.827446	0.083392	1.014460
C83	C	-0.023585	-0.564792	0.161919
C84	C	0.476415	-0.064792	0.661919
C85	C	-0.023910	-0.769260	0.366530
C86	C	0.476090	-0.269260	0.866530
C87	C	-0.023880	-0.564780	0.366623
C88	C	0.476120	-0.064780	0.866623
C89	C	-0.228325	-0.564561	0.366222
C90	C	0.271675	-0.064561	0.866222
C91	C	-0.129610	-0.597564	0.333467
C92	C	0.370390	-0.097564	0.833467
C93	C	-0.056729	-0.597644	0.333613
C94	C	0.443271	-0.097644	0.833613
C95	C	-0.074925	-0.615849	0.315324
C96	C	0.425075	-0.115849	0.815324
C97	C	-0.088689	-0.695351	0.357144
C98	C	0.411311	-0.195351	0.857144
C99	C	-0.072155	-0.745068	0.373736
C100	C	0.427845	-0.245068	0.873736
C101	C	0.008283	-0.745150	0.343188
C102	C	0.508283	-0.245150	0.843188
C103	C	-0.008252	-0.695435	0.326596
C104	C	0.491748	-0.195435	0.826596
C105	C	-0.154529	-0.609541	0.382326
C106	C	0.345471	-0.109541	0.882326
C107	C	-0.204241	-0.592916	0.398818
C108	C	0.295759	-0.092916	0.898818
C109	C	-0.204114	-0.552341	0.317588
C110	C	0.295886	-0.052341	0.817588
C111	C	-0.154401	-0.568966	0.301096
C112	C	0.345599	-0.068966	0.801096
C113	C	-0.068707	-0.548770	0.321590
C114	C	0.431293	-0.048770	0.821590
C115	C	-0.052166	-0.532225	0.338221
C116	C	0.447834	-0.032225	0.838221
C117	C	-0.011669	-0.613425	0.378886
C118	C	0.488331	-0.113425	0.878886
C119	C	-0.028210	-0.629972	0.362261
C120	C	0.471790	-0.129972	0.862261
C121	C	-0.068581	-0.548777	0.235758
C122	C	0.431419	-0.048777	0.735758
C123	C	-0.051939	-0.532234	0.186043
C124	C	0.448061	-0.032234	0.686043
C125	C	-0.011379	-0.613438	0.186090
C126	C	0.488621	-0.113438	0.686090
C127	C	-0.028020	-0.629981	0.235806
C128	C	0.471980	-0.129981	0.735806
C129	C	-0.056622	-0.597649	0.260639
C130	C	0.443378	-0.097649	0.760639
C131	C	-0.056739	-0.670537	0.333576
C132	C	0.443261	-0.170537	0.833576
C133	C	-0.005614	-0.545951	0.107238
C134	C	0.494386	-0.045951	0.607238
C135	C	-0.006360	-0.823943	0.385033
C136	C	0.493640	-0.323943	0.885033
C137	C	-0.005995	-0.545937	0.384582
C138	C	0.494005	-0.045937	0.884582
C139	C	-0.283006	-0.545971	0.383725
C140	C	0.216994	-0.045971	0.883725
N141	N	0.426163	-0.449489	0.481488
N142	N	0.926163	0.050511	0.981488
O143	O	0.588601	-0.457377	0.364497
O144	O	1.088601	0.042623	0.864497
O145	O	0.588789	-0.549696	0.489801
O146	O	1.088789	-0.049696	0.989801
O147	O	0.588709	-0.549485	0.410335
O148	O	1.088709	-0.049485	0.910335
O149	O	0.588681	-0.457588	0.443963
O150	O	1.088681	0.042412	0.943963
O151	O	0.509731	-0.523223	0.436741
O152	O	1.009731	-0.023223	0.936741
O153	O	0.509811	-0.523434	0.516207
O154	O	1.009811	-0.023434	1.016207
O155	O	0.509624	-0.431115	0.390903
O156	O	1.009624	0.068885	0.890903
Zn157	Zn	0.497178	-0.473105	0.457747
Zn158	Zn	0.997178	0.026895	0.957747
Zn159	Zn	0.601234	-0.507706	0.422956
Zn160	Zn	1.101234	-0.007706	0.922956
O161	O	0.509704	-0.431326	0.470368
O162	O	1.009704	0.068674	0.970368
N163	N	0.672250	-0.531322	0.399211
N164	N	1.172250	-0.031322	0.899211
N165	N	0.091303	-0.114798	0.481730
N166	N	0.591303	0.385202	0.981730
O167	O	-0.025603	0.047729	0.473733
O168	O	0.474397	0.547729	0.973733
O169	O	0.099703	0.047764	0.381394
O170	O	0.599703	0.547764	0.881394
O171	O	0.020199	0.047731	0.381655
O172	O	0.520199	0.547731	0.881655
O173	O	0.053901	0.047761	0.473472
O174	O	0.553901	0.547761	0.973472
O175	O	0.046564	-0.031252	0.407974
O176	O	0.546564	0.468748	0.907974
O177	O	0.126068	-0.031219	0.407713
O178	O	0.626068	0.468781	0.907713
O179	O	0.000762	-0.031254	0.500052
O180	O	0.500762	0.468746	1.000052
Zn181	Zn	0.067601	-0.043777	0.458061
Zn182	Zn	0.567601	0.456223	0.958061
Zn183	Zn	0.032864	0.060287	0.423385
Zn184	Zn	0.532864	0.560287	0.923385
O185	O	0.080266	-0.031222	0.499791
O186	O	0.580266	0.468778	0.999791
N187	N	0.009156	0.131307	0.399717
N188	N	0.509156	0.631307	0.899717
N189	N	0.091635	-0.449614	0.816396
N190	N	0.591635	0.050386	1.316396
O191	O	0.083664	-0.566502	0.978913
O192	O	0.583664	-0.066502	1.478913
O193	O	-0.008637	-0.441152	0.978954
O194	O	0.491363	0.058848	1.478954
O195	O	-0.008421	-0.520640	0.978930
O196	O	0.491579	-0.020640	1.478930
O197	O	0.083448	-0.487013	0.978936
O198	O	0.583448	0.012987	1.478936
O199	O	0.017877	-0.494296	0.899950
O200	O	0.517877	0.005704	1.399950
O201	O	0.017661	-0.414807	0.899974
O202	O	0.517661	0.085193	1.399974
O203	O	0.109961	-0.540157	0.899933
O204	O	0.609961	-0.040157	1.399933
Zn205	Zn	0.067986	-0.473299	0.887414
Zn206	Zn	0.567986	0.026701	1.387414
Zn207	Zn	0.033338	-0.508010	0.991473
Zn208	Zn	0.533338	-0.008010	1.491473
O209	O	0.109746	-0.460669	0.899956
O210	O	0.609746	0.039331	1.399956
N211	N	0.009689	-0.531700	1.062491
N212	N	0.509689	-0.031700	1.562491
C213	C	0.030367	-0.412095	0.382120
C214	C	0.530367	0.087905	0.882120
C215	C	0.128741	-0.510370	0.382016
C216	C	0.628741	-0.010370	0.882016
C217	C	0.070168	-0.569147	0.499490
C218	C	0.570168	-0.069147	0.999490
C219	C	-0.028207	-0.470871	0.499595
C220	C	0.471793	0.029129	0.999595
C221	C	0.549323	-0.549278	0.518791
C222	C	1.049323	-0.049278	1.018791
C223	C	0.549225	-0.549017	0.420381
C224	C	1.049225	-0.049017	0.920381
C225	C	0.549087	-0.431532	0.361914
C226	C	1.049087	0.068468	0.861914
C227	C	0.549188	-0.431794	0.460322
C228	C	1.049188	0.068206	0.960322
C229	C	0.128638	0.008374	0.381806
C230	C	0.628638	0.508374	0.881806
C231	C	0.030215	0.008236	0.382161
C232	C	0.530215	0.508236	0.882161
C233	C	-0.028206	0.008233	0.499608
C234	C	0.471794	0.508233	0.999608
C235	C	0.070250	0.008272	0.499285
C236	C	0.570250	0.508272	0.999285
C237	C	-0.008199	-0.412187	0.939469
C238	C	0.491801	0.087813	1.439469
C239	C	-0.007927	-0.510619	0.939425
C240	C	0.492073	-0.010619	1.439425
C241	C	0.109523	-0.569121	0.939417
C242	C	0.609523	-0.069121	1.439417
C243	C	0.109257	-0.470684	0.939444
C244	C	0.609257	0.029316	1.439444
H245	H	0.019274	-0.411508	0.812539
H246	H	0.519274	0.088492	1.312539
H247	H	0.023205	-0.376060	0.353221
H248	H	0.523205	0.123940	0.853221
C249	C	0.177151	0.008687	0.342543
C250	C	0.677151	0.508687	0.842543
C251	C	0.186561	0.008832	0.293870
C252	C	0.686561	0.508832	0.793870
C253	C	0.235073	0.009145	0.254607
C254	C	0.735073	0.509145	0.754607
C255	C	0.274175	0.009313	0.264017
C256	C	0.774175	0.509313	0.764017
C257	C	0.264766	0.009168	0.312692
C258	C	0.764766	0.509168	0.812692
C259	C	0.216254	0.008855	0.351955
C260	C	0.716254	0.508855	0.851955
H261	H	0.157614	0.008708	0.286902
H262	H	0.657614	0.508708	0.786902
H263	H	0.242038	0.009253	0.218574
H264	H	0.742038	0.509253	0.718574
H265	H	0.310087	0.009545	0.234952
H266	H	0.810087	0.509545	0.734952
H267	H	0.293713	0.009292	0.319660
H268	H	0.793713	0.509292	0.819660
H269	H	0.209289	0.008747	0.387987
H270	H	0.709289	0.508747	0.887987
C271	C	0.020468	0.008226	0.343188
C272	C	0.520468	0.508226	0.843188
C273	C	-0.028239	0.008209	0.352936
C274	C	0.471761	0.508209	0.852936
C275	C	-0.037985	0.008199	0.313964
C276	C	0.462015	0.508199	0.813964
C277	C	0.000975	0.008207	0.265243
C278	C	0.500975	0.508207	0.765243
C279	C	0.049685	0.008224	0.255494
C280	C	0.549685	0.508224	0.755494
C281	C	0.059432	0.008234	0.294466
C282	C	0.559432	0.508234	0.794466
H283	H	-0.057082	0.008203	0.389004
H284	H	0.442918	0.508203	0.889004
H285	H	-0.074044	0.008185	0.321181
H286	H	0.425956	0.508185	0.821181
H287	H	-0.006240	0.008199	0.236394
H288	H	0.493760	0.508199	0.736394
H289	H	0.078529	0.008230	0.219426
H290	H	0.578529	0.508230	0.719426
H291	H	0.095490	0.008248	0.287248
H292	H	0.595490	0.508248	0.787248
C293	C	0.210335	-0.458392	0.472750
C294	C	0.710335	0.041608	0.972750
C295	C	0.232946	-0.486057	0.512010
C296	C	0.732946	0.013943	1.012010
C297	C	0.286710	-0.499219	0.498748
C298	C	0.786710	0.000781	0.998748
C299	C	0.317862	-0.484715	0.446226
C300	C	0.817862	0.015285	0.946226
C301	C	0.295251	-0.457048	0.406963
C302	C	0.795251	0.042952	0.906963
C303	C	0.241487	-0.443887	0.420224
C304	C	0.741487	0.056113	0.920224
H305	H	0.209885	-0.496796	0.550893
H306	H	0.709885	0.003204	1.050893
H307	H	0.303448	-0.519700	0.527814
H308	H	0.803448	-0.019700	1.027814
H309	H	0.357661	-0.494458	0.436409
H310	H	0.857661	0.005542	0.936409
H311	H	0.318312	-0.446310	0.368080
H312	H	0.818312	0.053690	0.868080
H313	H	0.224749	-0.423406	0.391159
H314	H	0.724749	0.076594	0.891159
C315	C	0.549010	-0.392373	0.313300
C316	C	1.049010	0.107627	0.813300
C317	C	0.589980	-0.371895	0.282690
C318	C	1.089980	0.128105	0.782690
C319	C	0.589902	-0.332737	0.234076
C320	C	1.089902	0.167263	0.734076
C321	C	0.548855	-0.314056	0.216073
C322	C	1.048855	0.185944	0.716073
C323	C	0.507882	-0.334534	0.246683
C324	C	1.007882	0.165466	0.746683
C325	C	0.507959	-0.373693	0.295297
C326	C	1.007959	0.126307	0.795297
H327	H	0.620368	-0.385724	0.296017
H328	H	1.120368	0.114276	0.796017
H329	H	0.620234	-0.317577	0.211416
H330	H	1.120234	0.182423	0.711416
H331	H	0.548798	-0.285068	0.180086
H332	H	1.048798	0.214932	0.680086
H333	H	0.477494	-0.320706	0.233356
H334	H	0.977494	0.179294	0.733356
H335	H	0.477628	-0.388852	0.317957
H336	H	0.977628	0.111148	0.817957
C337	C	-0.076820	0.008222	0.538771
C338	C	0.423180	0.508222	1.038771
C339	C	-0.115973	0.008204	0.529311
C340	C	0.384027	0.508204	1.029311
C341	C	-0.164586	0.008193	0.568474
C342	C	0.335414	0.508193	1.068474
C343	C	-0.174047	0.008198	0.617097
C344	C	0.325953	0.508198	1.117097
C345	C	-0.134893	0.008215	0.626559
C346	C	0.365107	0.508215	1.126559
C347	C	-0.086279	0.008227	0.587396
C348	C	0.413721	0.508227	1.087396
H349	H	-0.108970	0.008201	0.493316
H350	H	0.391030	0.508201	0.993316
H351	H	-0.193570	0.008180	0.561470
H352	H	0.306430	0.508180	1.061470
H353	H	-0.210034	0.008189	0.646088
H354	H	0.289966	0.508189	1.146088
H355	H	-0.141895	0.008219	0.662555
H356	H	0.358105	0.508219	1.162555
H357	H	-0.057295	0.008240	0.594401
H358	H	0.442705	0.508240	1.094401
H359	H	0.077468	0.008281	0.528131
H360	H	0.577468	0.508281	1.028131
H361	H	0.138503	-0.605120	0.939399
H362	H	0.638503	-0.105120	1.439399
C363	C	-0.047349	-0.363555	0.939486
C364	C	0.452651	0.136445	1.439486
C365	C	-0.038739	-0.318148	0.898484
C366	C	0.461261	0.181852	1.398484
C367	C	-0.077889	-0.269515	0.898500
C368	C	0.422111	0.230485	1.398500
C369	C	-0.125649	-0.266290	0.939519
C370	C	0.374351	0.233710	1.439519
C371	C	-0.134261	-0.311699	0.980524
C372	C	0.365739	0.188301	1.480524
C373	C	-0.095111	-0.360331	0.980508
C374	C	0.404889	0.139669	1.480508
H375	H	-0.003382	-0.320534	0.868116
H376	H	0.496618	0.179466	1.368116
H377	H	-0.071513	-0.235900	0.868145
H378	H	0.428487	0.264100	1.368145
H379	H	-0.154630	-0.230289	0.939531
H380	H	0.345370	0.269711	1.439531
H381	H	-0.169618	-0.309313	1.010892
H382	H	0.330382	0.190687	1.510892
H383	H	-0.101487	-0.393946	1.010863
H384	H	0.398513	0.106054	1.510863
H385	H	0.549182	-0.402927	0.467517
H386	H	1.049182	0.097073	0.967517
C387	C	0.177380	-0.519946	0.342907
C388	C	0.677380	-0.019946	0.842907
C389	C	0.216483	-0.568602	0.352466
C390	C	0.716483	-0.068602	0.852466
C391	C	0.265122	-0.578177	0.313357
C392	C	0.765122	-0.078177	0.813357
C393	C	0.274657	-0.539097	0.264689
C394	C	0.774657	-0.039097	0.764689
C395	C	0.235553	-0.490438	0.255128
C396	C	0.735553	0.009562	0.755128
C397	C	0.186914	-0.480863	0.294237
C398	C	0.686914	0.019137	0.794237
H399	H	0.209425	-0.597534	0.388494
H400	H	0.709425	-0.097534	0.888494
H401	H	0.294069	-0.614198	0.320435
H402	H	0.794069	-0.114198	0.820435
H403	H	0.310662	-0.546186	0.235738
H404	H	0.810662	-0.046186	0.735738
H405	H	0.242611	-0.461506	0.219099
H406	H	0.742611	0.038494	0.719099
H407	H	0.157967	-0.444842	0.287159
H408	H	0.657967	0.055158	0.787159
C409	C	0.079838	-0.617826	0.538535
C410	C	0.579838	-0.117826	1.038535
C411	C	0.128520	-0.656869	0.528882
C412	C	0.628520	-0.156869	1.028882
C413	C	0.138191	-0.705548	0.567927
C414	C	0.638191	-0.205548	1.067927
C415	C	0.099179	-0.715183	0.616625
C416	C	0.599179	-0.215183	1.116625
C417	C	0.050493	-0.676139	0.626281
C418	C	0.550493	-0.176139	1.126281
C419	C	0.040823	-0.627460	0.587236
C420	C	0.540823	-0.127460	1.087236
H421	H	0.157402	-0.649737	0.492831
H422	H	0.657402	-0.149737	0.992831
H423	H	0.174231	-0.734451	0.560780
H424	H	0.674231	-0.234451	1.060780
H425	H	0.106337	-0.751218	0.645529
H426	H	0.606337	-0.251218	1.145529
H427	H	0.021611	-0.683271	0.662332
H428	H	0.521611	-0.183271	1.162332
H429	H	0.004782	-0.598557	0.594383
H430	H	0.504782	-0.098557	1.094383
H431	H	-0.064213	-0.463781	0.528541
H432	H	0.435787	0.036219	1.028541
C433	C	0.549392	-0.588434	0.567407
C434	C	1.049392	-0.088434	1.067407
C435	C	0.549423	-0.578943	0.606535
C436	C	1.049423	-0.078943	1.106535
C437	C	0.549493	-0.618099	0.655152
C438	C	1.049493	-0.118099	1.155152
C439	C	0.549532	-0.666746	0.664639
C440	C	1.049532	-0.166746	1.164639
C441	C	0.549501	-0.676239	0.625510
C442	C	1.049501	-0.176239	1.125510
C443	C	0.549432	-0.637083	0.576894
C444	C	1.049432	-0.137083	1.076894
H445	H	0.549394	-0.542929	0.599513
H446	H	1.049394	-0.042929	1.099513
H447	H	0.549515	-0.611071	0.684118
H448	H	1.049515	-0.111071	1.184118
H449	H	0.549584	-0.695732	0.700628
H450	H	1.049584	-0.195732	1.200628
H451	H	0.549531	-0.712253	0.632532
H452	H	1.049531	-0.212253	1.132532
H453	H	0.549409	-0.644111	0.547927
H454	H	1.049409	-0.144111	1.047927
C455	C	0.549240	-0.588020	0.410665
C456	C	1.049240	-0.088020	0.910665
C457	C	0.549183	-0.578296	0.361976
C458	C	1.049183	-0.078296	0.861976
C459	C	0.549198	-0.617299	0.352259
C460	C	1.049198	-0.117299	0.852259
C461	C	0.549269	-0.666025	0.391232
C462	C	1.049269	-0.166025	0.891232
C463	C	0.549326	-0.675751	0.439924
C464	C	1.049326	-0.175751	0.939924
C465	C	0.549311	-0.636748	0.449641
C466	C	1.049311	-0.136748	0.949641
H467	H	0.549131	-0.542224	0.333123
H468	H	1.049131	-0.042224	0.833123
H469	H	0.549157	-0.610099	0.316213
H470	H	1.049157	-0.110099	0.816213
H471	H	0.549280	-0.694897	0.384039
H472	H	1.049280	-0.194897	0.884039
H473	H	0.549378	-0.711823	0.468777
H474	H	1.049378	-0.211823	0.968777
H475	H	0.549352	-0.643948	0.485686
H476	H	1.049352	-0.143948	0.985686
H477	H	0.138119	-0.463487	0.939440
H478	H	0.638119	0.036513	1.439440
C479	C	0.040014	-0.373251	0.715261
C480	C	0.540014	0.126749	1.215261
C481	C	-0.013737	-0.360059	0.742640
C482	C	0.486263	0.139941	1.242640
C483	C	-0.049315	-0.328619	0.715335
C484	C	0.450685	0.171381	1.215335
C485	C	-0.031141	-0.310371	0.660652
C486	C	0.468859	0.189629	1.160652
C487	C	0.022613	-0.323563	0.633270
C488	C	0.522613	0.176437	1.133270
C489	C	0.058191	-0.355003	0.660574
C490	C	0.558191	0.144997	1.160574
H491	H	-0.027193	-0.373567	0.783123
H492	H	0.472807	0.126433	1.283123
H493	H	-0.089107	-0.318853	0.735606
H494	H	0.410893	0.181147	1.235606
H495	H	-0.057478	-0.287097	0.640440
H496	H	0.442522	0.212903	1.140440
H497	H	0.036069	-0.310055	0.592787
H498	H	0.536069	0.189945	1.092787
H499	H	0.097983	-0.364769	0.640304
H500	H	0.597983	0.135231	1.140304
C501	C	0.175850	-0.493287	0.819522
C502	C	0.675850	0.006713	1.319522
C503	C	0.229602	-0.506476	0.792145
C504	C	0.729602	-0.006476	1.292145
C505	C	0.265178	-0.537909	0.819452
C506	C	0.765178	-0.037909	1.319452
C507	C	0.247001	-0.556153	0.874135
C508	C	0.747001	-0.056153	1.374135
C509	C	0.193247	-0.542965	0.901515
C510	C	0.693247	-0.042965	1.401515
C511	C	0.157671	-0.511531	0.874208
C512	C	0.657671	-0.011531	1.374208
H513	H	0.243060	-0.492970	0.751662
H514	H	0.743060	0.007030	1.251662
H515	H	0.304971	-0.547672	0.799183
H516	H	0.804971	-0.047672	1.299183
H517	H	0.273337	-0.579422	0.894349
H518	H	0.773337	-0.079422	1.394349
H519	H	0.179789	-0.556471	0.941998
H520	H	0.679789	-0.056471	1.441998
H521	H	0.117878	-0.501768	0.894477
H522	H	0.617878	-0.001768	1.394477
C523	C	-0.046903	-0.520319	0.939376
C524	C	0.453097	-0.020319	1.439376
C525	C	-0.037171	-0.569015	0.939338
C526	C	0.462829	-0.069015	1.439338
C527	C	-0.076147	-0.578714	0.939289
C528	C	0.423853	-0.078714	1.439289
C529	C	-0.124854	-0.539717	0.939279
C530	C	0.375146	-0.039717	1.439279
C531	C	-0.134588	-0.491018	0.939318
C532	C	0.365412	0.008982	1.439318
C533	C	-0.095612	-0.481318	0.939366
C534	C	0.404388	0.018682	1.439366
H535	H	-0.001113	-0.597886	0.939345
H536	H	0.498887	-0.097886	1.439345
H537	H	-0.068941	-0.614765	0.939261
H538	H	0.431059	-0.114765	1.439261
H539	H	-0.153706	-0.546898	0.939243
H540	H	0.346294	-0.046898	1.439243
H541	H	-0.170646	-0.462147	0.939310
H542	H	0.329354	0.037853	1.439310
H543	H	-0.102818	-0.445267	0.939395
H544	H	0.397182	0.054733	1.439395
H545	H	0.049100	-0.381393	0.549936
H546	H	0.549100	0.118607	1.049936
C547	C	0.210556	-0.458461	0.715122
C548	C	0.710556	0.041539	1.215122
C549	C	0.241774	-0.443986	0.721932
C550	C	0.741774	0.056014	1.221932
C551	C	0.295529	-0.457178	0.694556
C552	C	0.795529	0.042822	1.194556
C553	C	0.318065	-0.484844	0.660370
C554	C	0.818065	0.015156	1.160370
C555	C	0.286847	-0.499321	0.653559
C556	C	0.786847	0.000679	1.153559
C557	C	0.233092	-0.486129	0.680934
C558	C	0.733092	0.013871	1.180934
H559	H	0.225091	-0.423504	0.747240
H560	H	0.725091	0.076496	1.247240
H561	H	0.318638	-0.446461	0.699598
H562	H	0.818638	0.053539	1.199598
H563	H	0.357858	-0.494609	0.640105
H564	H	0.857858	0.005391	1.140105
H565	H	0.303529	-0.519803	0.628251
H566	H	0.803529	-0.019803	1.128251
H567	H	0.209982	-0.496846	0.675892
H568	H	0.709982	0.003154	1.175892
H569	H	0.011902	-0.639768	0.165877
H570	H	0.511902	-0.139768	0.665877
C571	C	-0.127257	-0.640999	0.417932
C572	C	0.372743	-0.140999	0.917932
C573	C	-0.072576	-0.659288	0.399793
C574	C	0.427424	-0.159288	0.899793
C575	C	-0.045305	-0.690747	0.435401
C576	C	0.454695	-0.190747	0.935401
C577	C	-0.072716	-0.703916	0.489147
C578	C	0.427284	-0.203916	0.989147
C579	C	-0.127401	-0.685626	0.507288
C580	C	0.372599	-0.185626	1.007288
C581	C	-0.154672	-0.654168	0.471681
C582	C	0.345328	-0.154168	0.971681
H583	H	-0.052281	-0.649540	0.360005
H584	H	0.447719	-0.149540	0.860005
H585	H	-0.004823	-0.704286	0.421971
H586	H	0.495177	-0.204286	0.921971
H587	H	-0.052529	-0.727204	0.515506
H588	H	0.447471	-0.227204	1.015506
H589	H	-0.147695	-0.695375	0.547076
H590	H	0.352305	-0.195375	1.047076
H591	H	-0.195153	-0.640629	0.485110
H592	H	0.304847	-0.140629	0.985110
H593	H	0.166284	-0.485062	0.446169
H594	H	0.666284	0.014938	0.946169
C595	C	0.005047	-0.408039	0.523335
C596	C	0.505047	0.091961	1.023335
C597	C	-0.026122	-0.422530	0.575852
C598	C	0.473878	0.077470	1.075852
C599	C	-0.079887	-0.409340	0.589095
C600	C	0.420113	0.090660	1.089095
C601	C	-0.102483	-0.381660	0.549821
C602	C	0.397517	0.118340	1.049821
C603	C	-0.071313	-0.367167	0.497301
C604	C	0.428687	0.132833	0.997301
C605	C	-0.017548	-0.380357	0.484058
C606	C	0.482452	0.119643	0.984058
H607	H	-0.009396	-0.443022	0.604928
H608	H	0.490604	0.056978	1.104928
H609	H	-0.102961	-0.420069	0.627974
H610	H	0.397039	0.079931	1.127974
H611	H	-0.142284	-0.371896	0.559625
H612	H	0.357716	0.128104	1.059625
H613	H	-0.088040	-0.346675	0.468226
H614	H	0.411960	0.153325	0.968226
H615	H	0.005526	-0.369628	0.445180
H616	H	0.505526	0.130372	0.945180
H617	H	0.422274	-0.521162	0.510626
H618	H	0.922274	-0.021162	1.010626
C619	C	0.324994	-0.500244	0.547494
C620	C	0.824994	-0.000244	1.047494
C621	C	0.352354	-0.553592	0.555225
C622	C	0.852354	-0.053592	1.055225
C623	C	0.325033	-0.588728	0.581215
C624	C	0.825033	-0.088728	1.081215
C625	C	0.270351	-0.570517	0.599474
C626	C	0.770351	-0.070517	1.099474
C627	C	0.242987	-0.517166	0.591743
C628	C	0.742987	-0.017166	1.091743
C629	C	0.270309	-0.482030	0.565753
C630	C	0.770309	0.017970	1.065753
H631	H	0.392836	-0.567075	0.541709
H632	H	0.892836	-0.067075	1.041709
H633	H	0.345290	-0.628222	0.586938
H634	H	0.845290	-0.128222	1.086938
H635	H	0.250126	-0.596527	0.618713
H636	H	0.750126	-0.096527	1.118713
H637	H	0.202506	-0.503683	0.605259
H638	H	0.702506	-0.003683	1.105259
H639	H	0.250052	-0.442537	0.560030
H640	H	0.750052	0.057463	1.060030
H641	H	0.422223	-0.375220	0.454977
H642	H	0.922223	0.124780	0.954977
H643	H	0.159477	-0.208876	0.439413
H644	H	0.659477	0.291124	0.939413
C645	C	0.324927	-0.331316	0.483083
C646	C	0.824927	0.168684	0.983083
C647	C	0.331722	-0.295162	0.432356
C648	C	0.831722	0.204838	0.932356
C649	C	0.304366	-0.241810	0.424613
C650	C	0.804366	0.258190	0.924613
C651	C	0.270215	-0.224612	0.467597
C652	C	0.770215	0.275388	0.967597
C653	C	0.263418	-0.260766	0.518328
C654	C	0.763418	0.239234	1.018328
C655	C	0.290774	-0.314119	0.526070
C656	C	0.790774	0.185881	1.026070
H657	H	0.357005	-0.307893	0.400533
H658	H	0.857005	0.192107	0.900533
H659	H	0.309398	-0.215046	0.387059
H660	H	0.809398	0.284954	0.887059
H661	H	0.249964	-0.185117	0.461866
H662	H	0.749964	0.314883	0.961866
H663	H	0.238135	-0.248036	0.550150
H664	H	0.738135	0.251964	1.050150
H665	H	0.285742	-0.340883	0.563625
H666	H	0.785742	0.159117	1.063625
C667	C	0.132783	-0.111575	0.395420
C668	C	0.632783	0.388425	0.895420
C669	C	0.114524	-0.056889	0.377210
C670	C	0.614524	0.443111	0.877210
C671	C	0.127685	-0.029531	0.323449
C672	C	0.627685	0.470469	0.823449
C673	C	0.159105	-0.056858	0.287897
C674	C	0.659105	0.443142	0.787897
C675	C	0.177365	-0.111547	0.306106
C676	C	0.677365	0.388453	0.806106
C677	C	0.164204	-0.138906	0.359868
C678	C	0.664204	0.361094	0.859868
H679	H	0.091264	-0.036657	0.403528
H680	H	0.591264	0.463343	0.903528
H681	H	0.114167	0.010953	0.309969
H682	H	0.614167	0.510953	0.809969
H683	H	0.168847	-0.036606	0.248100
H684	H	0.668847	0.463394	0.748100
H685	H	0.200625	-0.131780	0.279789
H686	H	0.700625	0.368220	0.779789
H687	H	0.177722	-0.179390	0.373347
H688	H	0.677722	0.320610	0.873347
C689	C	0.047677	-0.111631	0.565926
C690	C	0.547677	0.388369	1.065926
C691	C	0.034519	-0.138987	0.619685
C692	C	0.534519	0.361013	1.119685
C693	C	0.003103	-0.111659	0.655238
C694	C	0.503103	0.388341	1.155238
C695	C	-0.015157	-0.056973	0.637032
C696	C	0.484843	0.443027	1.137032
C697	C	-0.002000	-0.029613	0.583270
C698	C	0.498000	0.470387	1.083270
C699	C	0.029417	-0.056942	0.547717
C700	C	0.529417	0.443058	1.047717
H701	H	0.048037	-0.179472	0.633165
H702	H	0.548037	0.320528	1.133165
H703	H	-0.006637	-0.131912	0.695036
H704	H	0.493363	0.368088	1.195036
H705	H	-0.038414	-0.036742	0.663350
H706	H	0.461586	0.463258	1.163350
H707	H	-0.015517	0.010872	0.569790
H708	H	0.484483	0.510872	1.069790
H709	H	0.039156	-0.036688	0.507919
H710	H	0.539156	0.463312	1.007919
H711	H	0.085944	-0.208923	0.586721
H712	H	0.585944	0.291077	1.086721
H713	H	-0.091873	-0.522445	0.255974
H714	H	0.408127	-0.022445	0.755974
C715	C	-0.065103	-0.478471	0.158679
C716	C	0.434897	0.021529	0.658679
C717	C	-0.050658	-0.447281	0.165564
C718	C	0.449342	0.052719	0.665564
C719	C	-0.063823	-0.393518	0.138200
C720	C	0.436177	0.106482	0.638200
C721	C	-0.091432	-0.370946	0.103951
C722	C	0.408568	0.129054	0.603951
C723	C	-0.105878	-0.402136	0.097065
C724	C	0.394122	0.097864	0.597065
C725	C	-0.092714	-0.455899	0.124429
C726	C	0.407286	0.044101	0.624429
H727	H	-0.030219	-0.463990	0.190918
H728	H	0.469781	0.036010	0.690918
H729	H	-0.053128	-0.370429	0.143298
H730	H	0.446872	0.129571	0.643298
H731	H	-0.101177	-0.331148	0.083695
H732	H	0.398823	0.168852	0.583695
H733	H	-0.126317	-0.385427	0.071711
H734	H	0.373683	0.114573	0.571711
H735	H	-0.103408	-0.478988	0.119332
H736	H	0.396592	0.021012	0.619332
C737	C	-0.014863	-0.683743	0.263174
C738	C	0.485137	-0.183743	0.763174
C739	C	-0.054196	-0.706248	0.297291
C740	C	0.445804	-0.206248	0.797291
C741	C	-0.041039	-0.760010	0.324658
C742	C	0.458961	-0.260010	0.824658
C743	C	0.011450	-0.791267	0.317906
C744	C	0.511450	-0.291267	0.817906
C745	C	0.050785	-0.768763	0.283787
C746	C	0.550785	-0.268763	0.783787
C747	C	0.037629	-0.715001	0.256421
C748	C	0.537629	-0.215001	0.756421
H749	H	-0.093054	-0.683109	0.302291
H750	H	0.406946	-0.183109	0.802291
H751	H	-0.070158	-0.776668	0.349915
H752	H	0.429842	-0.276668	0.849915
H753	H	0.021189	-0.831065	0.338164
H754	H	0.521189	-0.331065	0.838164
H755	H	0.089644	-0.791902	0.278788
H756	H	0.589644	-0.291902	0.778788
H757	H	0.066748	-0.698343	0.231164
H758	H	0.566748	-0.198343	0.731164
C759	C	-0.100078	-0.513211	0.290078
C760	C	0.399922	-0.013211	0.790078
C761	C	-0.150538	-0.513385	0.306497
C762	C	0.349462	-0.013385	0.806497
C763	C	-0.181907	-0.477827	0.274982
C764	C	0.318093	0.022173	0.774982
C765	C	-0.162817	-0.442095	0.227047
C766	C	0.337183	0.057905	0.727047
C767	C	-0.112355	-0.441919	0.210626
C768	C	0.387645	0.058081	0.710626
C769	C	-0.080986	-0.477478	0.242141
C770	C	0.419014	0.022522	0.742141
H771	H	-0.164672	-0.539838	0.341983
H772	H	0.335328	-0.039838	0.841983
H773	H	-0.219263	-0.477957	0.287138
H774	H	0.280737	0.022043	0.787138
H775	H	-0.186039	-0.415772	0.203718
H776	H	0.313961	0.084228	0.703718
H777	H	-0.098222	-0.415467	0.175140
H778	H	0.401778	0.084533	0.675140
H779	H	-0.043630	-0.477348	0.229985
H780	H	0.456370	0.022652	0.729985
C781	C	-0.065337	-0.478462	0.324997
C782	C	0.434663	0.021538	0.824997
C783	C	-0.096702	-0.442901	0.293481
C784	C	0.403298	0.057099	0.793481
C785	C	-0.109872	-0.389139	0.280256
C786	C	0.390128	0.110861	0.780256
C787	C	-0.091676	-0.370939	0.298547
C788	C	0.408324	0.129061	0.798547
C789	C	-0.060309	-0.406501	0.330064
C790	C	0.439691	0.093499	0.830064
C791	C	-0.047139	-0.460263	0.343289
C792	C	0.452861	0.039737	0.843289
H793	H	-0.110174	-0.456373	0.279939
H794	H	0.389826	0.043627	0.779939
H795	H	-0.133092	-0.362813	0.256924
H796	H	0.366908	0.137187	0.756924
H797	H	-0.101425	-0.331141	0.288757
H798	H	0.398575	0.168859	0.788757
H799	H	-0.046838	-0.393029	0.343606
H800	H	0.453162	0.106971	0.843606
H801	H	-0.023919	-0.486588	0.366621
H802	H	0.476081	0.013412	0.866621
H803	H	-0.018458	-0.669769	0.372051
H804	H	0.481542	-0.169769	0.872051
C805	C	0.019708	-0.648993	0.410391
C806	C	0.519708	-0.148993	0.910391
C807	C	0.067655	-0.684798	0.391421
C808	C	0.567655	-0.184798	0.891421
C809	C	0.099034	-0.720372	0.422925
C810	C	0.599034	-0.220372	0.922925
C811	C	0.082466	-0.720139	0.473399
C812	C	0.582466	-0.220139	0.973399
C813	C	0.034516	-0.684333	0.492371
C814	C	0.534516	-0.184333	0.992371
C815	C	0.003138	-0.648759	0.460867
C816	C	0.503138	-0.148759	0.960867
H817	H	0.079922	-0.684972	0.354054
H818	H	0.579922	-0.184972	0.854054
H819	H	0.134529	-0.746878	0.408880
H820	H	0.634529	-0.246878	0.908880
H821	H	0.105694	-0.746473	0.496720
H822	H	0.605694	-0.246473	0.996720
H823	H	0.022249	-0.684159	0.529738
H824	H	0.522249	-0.184159	1.029738
H825	H	-0.032358	-0.622253	0.474912
H826	H	0.467642	-0.122253	0.974912
H827	H	0.017768	-0.675232	0.307405
H828	H	0.517768	-0.175232	0.807405
H829	H	0.047765	-0.765423	0.337508
H830	H	0.547765	-0.265423	0.837508
H831	H	-0.128170	-0.675084	0.362831
H832	H	0.371830	-0.175084	0.862831
C833	C	-0.107301	-0.772366	0.399664
C834	C	0.392699	-0.272366	0.899664
C835	C	-0.160635	-0.744980	0.407344
C836	C	0.339365	-0.244980	0.907344
C837	C	-0.195781	-0.772279	0.433273
C838	C	0.304219	-0.272279	0.933273
C839	C	-0.177594	-0.826965	0.451523
C840	C	0.322406	-0.326965	0.951523
C841	C	-0.124257	-0.854354	0.443843
C842	C	0.375743	-0.354354	0.943843
C843	C	-0.089110	-0.827055	0.417913
C844	C	0.410890	-0.327055	0.917913
H845	H	-0.174101	-0.704495	0.393835
H846	H	0.325899	-0.204495	0.893835
H847	H	-0.235265	-0.752003	0.438958
H848	H	0.264735	-0.252003	0.938958
H849	H	-0.203611	-0.847173	0.470717
H850	H	0.296389	-0.347173	0.970717
H851	H	-0.110790	-0.894839	0.457352
H852	H	0.389210	-0.394839	0.957352
H853	H	-0.049627	-0.847331	0.412228
H854	H	0.450373	-0.347331	0.912228
H855	H	-0.224299	-0.529059	0.291228
H856	H	0.275701	-0.029059	0.791228
C857	C	-0.231658	-0.606087	0.452566
C858	C	0.268342	-0.106087	0.952566
C859	C	-0.265847	-0.566762	0.475088
C860	C	0.234153	-0.066762	0.975088
C861	C	-0.293263	-0.579933	0.528836
C862	C	0.206737	-0.079933	1.028836
C863	C	-0.286491	-0.632430	0.560061
C864	C	0.213509	-0.132430	1.060061
C865	C	-0.252301	-0.671759	0.537539
C866	C	0.247699	-0.171759	1.037539
C867	C	-0.224884	-0.658588	0.483792
C868	C	0.275116	-0.158588	0.983792
H869	H	-0.270861	-0.527897	0.451973
H870	H	0.229139	-0.027897	0.951973
H871	H	-0.318573	-0.550819	0.545508
H872	H	0.181427	-0.050819	1.045508
H873	H	-0.306786	-0.642180	0.599848
H874	H	0.193214	-0.142180	1.099848
H875	H	-0.247286	-0.710623	0.560655
H876	H	0.252714	-0.210623	1.060655
H877	H	-0.199574	-0.687702	0.467120
H878	H	0.300426	-0.187702	0.967120
H879	H	-0.134111	-0.559208	0.261309
H880	H	0.365889	-0.059208	0.761309
