data_functionalizedCrystal
_audit_creation_method	'MofGen! by Chris Wilmer'
_symmetry_space_group_name_H-M	'P1'
_symmetry_Int_Tables_number	1
_symmetry_cell_setting	triclinic
loop_
_symmetry_equiv_pos_as_xyz
  x,y,z
_cell_length_a	8.559649
_cell_length_b	15.072220
_cell_length_c	8.634740
_cell_angle_alpha	89.994008
_cell_angle_beta	94.825514
_cell_angle_gamma	90.011665
loop_
_atom_site_label
_atom_site_type_symbol
_atom_site_fract_x
_atom_site_fract_y
_atom_site_fract_z
O1	O	2.112236	0.073764	0.051388
O2	O	1.659073	0.073774	-0.026823
O3	O	1.864204	0.073749	0.234218
O4	O	1.907106	0.073790	-0.209653
O5	O	1.864146	-0.073817	0.234198
O6	O	1.659016	-0.073791	-0.026843
O7	O	2.112179	-0.073801	0.051368
Zn8	Zn	1.885588	-0.097225	0.012260
Zn9	Zn	1.885664	0.097198	0.012286
O10	O	1.907048	-0.073775	-0.209673
C11	C	1.600427	-0.000007	-0.032760
C12	C	1.425763	-0.000004	-0.050402
N13	N	1.885548	-0.229914	0.012244
C14	C	1.885660	-0.589115	0.012292
C15	C	1.775401	-0.551495	-0.127020
C16	C	1.775768	-0.448669	-0.127438
C17	C	1.885603	-0.410911	0.012268
C18	C	2.054652	-0.448202	-0.002855
C19	C	2.054063	-0.551060	-0.003822
C20	C	1.828272	-0.551230	0.167266
C21	C	1.824679	-0.448366	0.165762
C22	C	1.885580	-0.310198	0.012259
C23	C	1.885693	-0.689829	0.012299
C24	C	2.170825	-0.000018	0.057305
C25	C	2.345489	-0.000015	0.074948
C26	C	1.854456	-0.000037	0.290508
C27	C	1.825478	-0.000047	0.458259
N28	N	1.885715	0.229887	0.012315
C29	C	1.916796	-0.000009	0.734038
C30	C	1.945774	-0.000059	0.566287
H31	H	1.410386	-0.000021	0.195763
H32	H	1.700317	-0.000046	0.494107
C33	C	1.338096	0.000012	-0.213625
H34	H	1.228265	0.000007	-0.204475
H35	H	1.365985	0.051474	-0.268542
H36	H	1.365939	-0.051451	-0.268546
C37	C	1.607075	-0.414606	-0.119161
H38	H	1.537702	-0.463631	-0.115519
H39	H	1.601870	-0.379477	-0.028408
H40	H	1.577567	-0.379708	-0.208482
H41	H	1.814945	-0.424044	-0.242846
H42	H	2.070943	-0.000024	0.530433
C43	C	2.117338	-0.583448	-0.155708
H44	H	2.143154	-0.533744	-0.216243
H45	H	2.208383	-0.618535	-0.131932
H46	H	2.039488	-0.618034	-0.212673
H47	H	1.650187	-0.576256	-0.121256
C48	C	1.827795	-0.586376	-0.282080
H49	H	1.916575	-0.623765	-0.262287
H50	H	1.744708	-0.619118	-0.334854
H51	H	1.854459	-0.537759	-0.344751
C52	C	2.169929	-0.584687	0.129384
H53	H	2.170349	-0.647719	0.129700
H54	H	2.272185	-0.563478	0.114858
H55	H	2.138717	-0.563618	0.225778
C56	C	2.169519	-0.415162	0.131653
H57	H	2.271004	-0.438497	0.120236
H58	H	2.173597	-0.352189	0.129958
H59	H	2.134827	-0.434432	0.227755
C60	C	2.118613	-0.413387	-0.152844
H61	H	2.042549	-0.376136	-0.206420
H62	H	2.211922	-0.380514	-0.127261
H63	H	2.140796	-0.462039	-0.217404
H64	H	1.700200	-0.423994	0.177690
C65	C	1.663549	-0.586303	0.193378
H66	H	1.628232	-0.624383	0.109997
H67	H	1.667591	-0.618346	0.288369
H68	H	1.593188	-0.537810	0.197832
H69	H	1.897898	-0.422668	0.272787
H70	H	1.908394	-0.575558	0.270709
