data_functionalizedCrystal
_audit_creation_method	'MofGen! by Chris Wilmer'
_symmetry_space_group_name_H-M	'P1'
_symmetry_Int_Tables_number	1
_symmetry_cell_setting	triclinic
loop_
_symmetry_equiv_pos_as_xyz
  x,y,z
_cell_length_a	13.897449
_cell_length_b	16.959454
_cell_length_c	16.959447
_cell_angle_alpha	90.026736
_cell_angle_beta	90.016952
_cell_angle_gamma	90.020902
loop_
_atom_site_label
_atom_site_type_symbol
_atom_site_fract_x
_atom_site_fract_y
_atom_site_fract_z
Zn1	Zn	1.474625	-0.314648	0.446984
Zn2	Zn	1.474531	-0.446841	0.314814
Zn3	Zn	1.313333	-0.314682	0.314815
Zn4	Zn	1.313289	-0.446791	0.446946
O5	O	1.393945	-0.380741	0.380890
O6	O	1.609594	-0.332191	0.429466
O7	O	1.453126	-0.429345	0.204203
O8	O	1.334786	-0.204067	0.332364
O9	O	1.609525	-0.429312	0.332361
O10	O	1.453287	-0.204042	0.429468
O11	O	1.334694	-0.332248	0.204204
O12	O	1.178345	-0.332200	0.332328
O13	O	1.334713	-0.429227	0.557562
O14	O	1.178314	-0.429259	0.429404
O15	O	1.453245	-0.332142	0.557590
O16	O	1.453084	-0.557445	0.332325
O17	O	1.334621	-0.557408	0.429402
C18	C	1.393864	-0.586107	0.380876
C19	C	1.393917	-0.673963	0.380897
C20	C	1.143330	-0.380728	0.380862
C21	C	1.036116	-0.380742	0.380869
C22	C	1.332350	-1.045450	0.431432
C23	C	1.455808	-1.045428	0.330428
C24	C	1.455774	-0.962882	0.330420
C25	C	1.394026	-0.921616	0.380919
C26	C	1.332313	-0.962896	0.431425
C27	C	1.517480	-0.921596	0.279910
C28	C	1.517448	-0.839045	0.279900
C29	C	1.455704	-0.797778	0.330403
C30	C	1.393989	-0.839063	0.380912
C31	C	1.332241	-0.797797	0.431410
C32	C	1.270530	-0.839080	0.481924
C33	C	1.270569	-0.921629	0.481928
C34	C	1.455665	-0.715229	0.330398
C35	C	1.332204	-0.715243	0.431403
C36	C	0.949047	-0.380745	0.380882
C37	C	0.839814	-0.380750	0.380906
C38	C	1.645537	-0.380753	0.380918
C39	C	1.752751	-0.380759	0.380930
C40	C	1.393985	-0.380675	0.587058
C41	C	1.394002	-0.380647	0.674915
C42	C	1.394052	-0.174572	0.380921
C43	C	1.394098	-0.086716	0.380934
C44	C	1.393960	-0.380749	0.175523
C45	C	1.394130	-0.380554	0.087667
C46	C	1.332402	-0.431111	1.046379
C47	C	1.455832	-0.330017	1.046402
C48	C	1.455806	-0.330033	0.963857
C49	C	1.394079	-0.380591	0.922568
C50	C	1.332377	-0.431131	0.963825
C51	C	1.517514	-0.279499	0.922593
C52	C	1.517491	-0.279515	0.840042
C53	C	1.455758	-0.330069	0.798752
C54	C	1.394053	-0.380611	0.840014
C55	C	1.332326	-0.431168	0.798725
C56	C	1.270615	-0.481707	0.839986
C57	C	1.270644	-0.481685	0.922535
C58	C	1.455729	-0.330090	0.716203
C59	C	1.332300	-0.431188	0.716172
H60	H	1.281925	-0.681650	0.472528
F61	F	1.583194	-0.965518	0.226172
H62	H	1.567775	-0.238343	0.956217
H63	H	1.567697	-0.805437	0.238770
F64	F	1.204812	-0.795153	0.535663
F65	F	1.204897	-0.965571	0.535682
F66	F	1.266680	-1.089386	0.485193
F67	F	1.204977	-0.535470	0.966452
H68	H	1.506074	-1.079032	0.289309
F69	F	1.521329	-0.671296	0.276635
H70	H	1.282025	-0.472351	0.682560
H71	H	1.220361	-0.522874	0.806358
H72	H	1.282157	-0.472256	1.079977
H73	H	1.505976	-0.288944	0.682613
F74	F	1.521529	-0.276218	1.090347
F75	F	1.583166	-0.225726	0.796137
