data_functionalizedCrystal
_audit_creation_method	'MofGen! by Chris Wilmer'
_symmetry_space_group_name_H-M	'P1'
_symmetry_Int_Tables_number	1
_symmetry_cell_setting	triclinic
loop_
_symmetry_equiv_pos_as_xyz
  x,y,z
_cell_length_a	12.759401
_cell_length_b	12.759400
_cell_length_c	12.759393
_cell_angle_alpha	89.970627
_cell_angle_beta	89.980404
_cell_angle_gamma	90.013442
loop_
_atom_site_label
_atom_site_type_symbol
_atom_site_fract_x
_atom_site_fract_y
_atom_site_fract_z
Zn1	Zn	1.606278	-0.418208	-0.593991
Zn2	Zn	1.606173	-0.593923	-0.418314
Zn3	Zn	1.430576	-0.418260	-0.418330
Zn4	Zn	1.430573	-0.593846	-0.593956
O5	O	1.518400	-0.506059	-0.506148
O6	O	1.753285	-0.441527	-0.570695
O7	O	1.582838	-0.570675	-0.271295
O8	O	1.453928	-0.271232	-0.441653
O9	O	1.753208	-0.570625	-0.441626
O10	O	1.583015	-0.271194	-0.570710
O11	O	1.453827	-0.441616	-0.271307
O12	O	1.283555	-0.441541	-0.441619
O13	O	1.453923	-0.570493	-0.740981
O14	O	1.283552	-0.570544	-0.570650
O15	O	1.583012	-0.441452	-0.741007
O16	O	1.582835	-0.740934	-0.441592
O17	O	1.453822	-0.740877	-0.570635
C18	C	1.245433	-0.506040	-0.506133
C19	C	1.128656	-0.506058	-0.506152
C20	C	0.964089	-0.573347	-0.573240
C21	C	1.073813	-0.573336	-0.573229
C22	C	1.073769	-0.438794	-0.439074
C23	C	0.964047	-0.438812	-0.439080
C24	C	1.518345	-0.779027	-0.506131
C25	C	1.518417	-0.895803	-0.506159
C26	C	1.585599	-0.950566	-0.573414
C27	C	1.585648	-1.060290	-0.573440
C28	C	1.451330	-1.060479	-0.438946
C29	C	1.451277	-0.950757	-0.438927
C30	C	1.663150	-0.950457	-0.651060
C31	C	1.663199	-1.060181	-0.651086
C32	C	1.792433	-0.506079	-0.506163
C33	C	1.909210	-0.506087	-0.506169
C34	C	1.518479	-0.505958	-0.780181
C35	C	1.518512	-0.505915	-0.896958
C36	C	1.518484	-0.232026	-0.506187
C37	C	1.518520	-0.115249	-0.506204
C38	C	1.585734	-0.438713	-0.951835
C39	C	1.585752	-0.438668	-1.061559
C40	C	1.451323	-0.573036	-1.061519
C41	C	1.451301	-0.573075	-0.951797
C42	C	1.518382	-0.506084	-0.233180
C43	C	1.518552	-0.505831	-0.116404
H44	H	1.396563	-0.906171	-0.384172
C45	C	1.377487	-1.120932	-0.364992
H46	H	1.387143	-1.194122	-0.374631
H47	H	1.306881	-1.102987	-0.380302
H48	H	1.392898	-1.102990	-0.294407
H49	H	1.396553	-0.627799	-0.907115
C50	C	1.633635	-0.910169	-0.760945
H51	H	1.621521	-0.968058	-0.806148
H52	H	1.689290	-0.868751	-0.788018
H53	H	1.571866	-0.868856	-0.756458
H54	H	0.919363	-0.384039	-0.384458
C55	C	1.134093	-0.364788	-0.365292
H56	H	1.207300	-0.374402	-0.374901
H57	H	1.116085	-0.380078	-0.294675
H58	H	1.116119	-0.294217	-0.380800
H59	H	0.919444	-0.628127	-0.627868
H60	H	1.744596	-1.089917	-0.629371
C61	C	1.134176	-0.647317	-0.647012
H62	H	1.085799	-0.687377	-0.686971
H63	H	1.176959	-0.693043	-0.606746
H64	H	1.176999	-0.607166	-0.692856
H65	H	1.740441	-0.916389	-0.621971
H66	H	1.634011	-1.094178	-0.728357
H67	H	1.640459	-0.384024	-0.907188
H68	H	1.396604	-0.627718	-1.106183
H69	H	1.640489	-0.383943	-1.106235
