data_functionalizedCrystal
_audit_creation_method	'MofGen! by Chris Wilmer'
_symmetry_space_group_name_H-M	'P1'
_symmetry_Int_Tables_number	1
_symmetry_cell_setting	triclinic
loop_
_symmetry_equiv_pos_as_xyz
  x,y,z
_cell_length_a	17.699083
_cell_length_b	16.992695
_cell_length_c	16.776229
_cell_angle_alpha	89.993259
_cell_angle_beta	89.998886
_cell_angle_gamma	86.975619
loop_
_atom_site_label
_atom_site_type_symbol
_atom_site_fract_x
_atom_site_fract_y
_atom_site_fract_z
O1	O	1.010251	0.099146	-0.066177
O2	O	1.510251	0.599146	0.433823
O3	O	0.790676	0.112045	-0.066203
O4	O	1.290676	0.612045	0.433797
O5	O	0.899583	-0.008546	-0.066184
O6	O	1.399583	0.491454	0.433816
O7	O	0.901344	0.219736	-0.066196
O8	O	1.401344	0.719736	0.433804
O9	O	0.899568	-0.008553	0.066393
O10	O	1.399568	0.491447	0.566393
O11	O	0.790660	0.112037	0.066374
O12	O	1.290660	0.612037	0.566374
O13	O	1.010235	0.099138	0.066400
O14	O	1.510235	0.599138	0.566400
Zn15	Zn	0.900445	0.105587	0.087436
Zn16	Zn	1.400445	0.605587	0.587436
Zn17	Zn	0.900466	0.105596	-0.087239
Zn18	Zn	1.400466	0.605596	0.412761
O19	O	0.901328	0.219729	0.066381
O20	O	1.401328	0.719729	0.566381
C21	C	0.762442	0.111579	0.000082
C22	C	1.262442	0.611579	0.500082
C23	C	0.678338	0.110192	0.000072
C24	C	1.178338	0.610192	0.500072
C25	C	0.634124	0.180976	0.000069
C26	C	1.134124	0.680976	0.500069
C27	C	0.555099	0.179669	0.000079
C28	C	1.055099	0.679669	0.500079
C29	C	0.520290	0.107576	0.000087
C30	C	1.020290	0.607576	0.500087
C31	C	0.564510	0.036787	0.000093
C32	C	1.064510	0.536787	0.500093
C33	C	0.643533	0.038095	0.000089
C34	C	1.143533	0.538095	0.500089
C35	C	0.245818	0.031509	0.000113
C36	C	0.745818	0.531509	0.500113
C37	C	0.166789	0.030206	0.000116
C38	C	0.666789	0.530206	0.500116
C39	C	0.157384	0.173082	0.000104
C40	C	0.657384	0.673082	0.500104
C41	C	0.236408	0.174391	0.000099
C42	C	0.736408	0.674391	0.500099
C43	C	0.280621	0.103602	0.000109
C44	C	0.780621	0.603602	0.500109
C45	C	0.366308	0.105020	0.000099
C46	C	0.866308	0.605020	0.500099
C47	C	0.434604	0.106157	0.000091
C48	C	0.934604	0.606157	0.500091
C49	C	0.897311	-0.037758	0.000104
C50	C	1.397311	0.462242	0.500104
C51	C	0.890554	-0.124789	0.000103
C52	C	1.390554	0.375211	0.500103
C53	C	0.955751	-0.175154	0.000112
C54	C	1.455751	0.324846	0.500112
C55	C	0.949398	-0.256928	0.000104
C56	C	1.449398	0.243072	0.500104
C57	C	0.877846	-0.288336	0.000092
C58	C	1.377846	0.211664	0.500092
C59	C	0.812643	-0.237965	0.000081
C60	C	1.312643	0.262035	0.500081
C61	C	0.818998	-0.156192	0.000084
C62	C	1.318998	0.343808	0.500084
C63	C	0.851510	-0.531884	0.000078
C64	C	1.351510	-0.031884	0.500078
C65	C	0.845160	-0.613663	0.000078
C66	C	1.345160	-0.113663	0.500078
C67	C	0.981915	-0.632621	0.000099
C68	C	1.481915	-0.132621	0.500099
C69	C	0.988263	-0.550845	0.000106
C70	C	1.488263	-0.050845	0.500106
C71	C	0.923061	-0.500481	0.000091
C72	C	1.423061	-0.000481	0.500091
N73	N	0.871350	-0.371923	0.000086
N74	N	1.371350	0.128077	0.500086
N75	N	0.929558	-0.416897	0.000091
N76	N	1.429558	0.083103	0.500091
C77	C	1.038469	0.099604	0.000113
C78	C	1.538469	0.599604	0.500113
C79	C	1.122574	0.100991	0.000118
C80	C	1.622574	0.600991	0.500118
C81	C	0.903601	0.248941	0.000091
C82	C	1.403601	0.748941	0.500091
C83	C	0.910358	0.335972	0.000087
C84	C	1.410358	0.835972	0.500087
N85	N	0.900437	0.105579	0.206647
N86	N	1.400437	0.605579	0.706647
N87	N	0.900481	0.105597	-0.206450
N88	N	1.400481	0.605597	0.293550
C89	C	0.948678	0.052204	0.248373
C90	C	1.448678	0.552204	0.748373
C91	C	0.948682	0.052203	0.331825
C92	C	1.448682	0.552203	0.831825
C93	C	0.900448	0.105582	0.373550
C94	C	1.400448	0.605582	0.873550
C95	C	0.852202	0.158961	0.331819
C96	C	1.352202	0.658961	0.831819
C97	C	0.852194	0.158957	0.248368
C98	C	1.352194	0.658957	0.748368
C99	C	0.852230	0.158976	0.668366
C100	C	1.352230	0.658976	1.168366
C101	C	0.852243	0.158977	0.751822
C102	C	1.352243	0.658977	1.251822
C103	C	0.948718	0.052222	0.751823
C104	C	1.448718	0.552222	1.251823
C105	C	0.948710	0.052219	0.668372
C106	C	1.448710	0.552219	1.168372
C107	C	0.900461	0.105594	0.626648
C108	C	1.400461	0.605594	1.126648
C109	C	0.900456	0.105593	0.536160
C110	C	1.400456	0.605593	1.036160
C111	C	0.900456	0.105588	0.464037
C112	C	1.400456	0.605588	0.964037
H113	H	0.138450	-0.028504	0.000123
H114	H	0.638450	0.471496	0.500123
H115	H	0.987959	0.008740	0.214406
H116	H	1.487959	0.508740	0.714406
H117	H	0.679531	-0.019545	0.000091
H118	H	1.179531	0.480455	0.500091
N119	N	0.800208	0.216543	0.796830
N120	N	1.300208	0.716543	1.296830
H121	H	0.831223	0.251226	0.831443
H122	H	1.331223	0.751226	1.331443
H123	H	0.769648	0.250300	0.757685
H124	H	1.269648	0.750300	1.257685
N125	N	0.800183	0.216539	0.376821
N126	N	1.300183	0.716539	0.876821
H127	H	0.769620	0.250351	0.337722
H128	H	1.269620	0.750351	0.837722
H129	H	0.764917	0.186571	0.411457
H130	H	1.264917	0.686571	0.911457
H131	H	0.121377	0.230722	0.000100
H132	H	0.621377	0.730722	0.500100
N133	N	0.293499	-0.044839	0.000130
N134	N	0.793499	0.455161	0.500130
H135	H	0.259454	-0.090705	0.000134
H136	H	0.759454	0.409295	0.500134
H137	H	0.326494	-0.047412	-0.049016
H138	H	0.826494	0.452588	0.450984
H139	H	0.536162	-0.021912	0.000112
H140	H	1.036162	0.478088	0.500112
H141	H	1.014017	-0.149588	0.000126
H142	H	1.514017	0.350412	0.500126
N143	N	1.019719	-0.311248	0.000122
N144	N	1.519719	0.188752	0.500122
H145	H	1.004839	-0.367817	0.000115
H146	H	1.504839	0.132183	0.500115
H147	H	1.050699	-0.301086	-0.049018
H148	H	1.550699	0.198914	0.450982
N149	N	1.065437	-0.516971	0.000123
N150	N	1.565437	-0.016971	0.500123
H151	H	1.105777	-0.561286	0.000127
H152	H	1.605777	-0.061286	0.500127
H153	H	1.071060	-0.483447	-0.049022
H154	H	1.571060	0.016553	0.450978
H155	H	0.765906	-0.115186	0.000077
H156	H	1.265906	0.384814	0.500077
H157	H	1.034999	-0.673635	0.000110
H158	H	1.534999	-0.173635	0.500110
H159	H	0.987963	0.008740	0.365798
H160	H	1.487963	0.508740	0.865798
H161	H	0.987989	0.008755	0.634402
H162	H	1.487989	0.508755	1.134402
H163	H	0.786891	-0.639232	0.000082
H164	H	1.286891	-0.139232	0.500082
N165	N	0.781187	-0.477569	0.000065
N166	N	1.281187	0.022431	0.500065
H167	H	0.734898	-0.509877	0.000062
H168	H	1.234898	-0.009877	0.500062
H169	H	0.780838	-0.443233	0.049213
H170	H	1.280838	0.056767	0.549213
H171	H	0.754384	-0.263544	0.000067
H172	H	1.254384	0.236456	0.500067
N173	N	0.671658	0.258738	0.000060
N174	N	1.171658	0.758738	0.500060
H175	H	0.704237	0.262465	0.049204
H176	H	1.204237	0.762465	0.549204
H177	H	0.704191	0.262425	-0.049121
H178	H	1.204191	0.762425	0.450879
H179	H	0.519103	0.237308	0.000075
H180	H	1.019103	0.737308	0.500075
H181	H	0.988002	0.008759	0.785804
H182	H	1.488002	0.508759	1.285804
H183	H	0.812945	0.202437	0.634401
H184	H	1.312945	0.702437	1.134401
N185	N	0.273943	0.252152	0.000092
N186	N	0.773943	0.752152	0.500092
H187	H	0.306522	0.255876	0.049236
H188	H	0.806522	0.755876	0.549236
H189	H	0.306477	0.255839	-0.049088
H190	H	0.806477	0.755839	0.450912
H191	H	0.812910	0.202420	0.214396
H192	H	1.312910	0.702420	0.714396
