data_functionalizedCrystal
_audit_creation_method	'MofGen! by Chris Wilmer'
_symmetry_space_group_name_H-M	'P1'
_symmetry_Int_Tables_number	1
_symmetry_cell_setting	triclinic
loop_
_symmetry_equiv_pos_as_xyz
  x,y,z
_cell_length_a	14.044220
_cell_length_b	16.109301
_cell_length_c	14.586319
_cell_angle_alpha	90.012306
_cell_angle_beta	90.000119
_cell_angle_gamma	91.674821
loop_
_atom_site_label
_atom_site_type_symbol
_atom_site_fract_x
_atom_site_fract_y
_atom_site_fract_z
O1	O	1.257645	-0.200444	-0.076149
O2	O	1.590978	0.132889	0.257185
O3	O	1.924312	0.466222	0.590518
O4	O	0.981678	-0.193211	-0.076172
O5	O	1.315011	0.140122	0.257162
O6	O	1.648345	0.473455	0.590495
O7	O	1.127243	-0.076361	-0.076150
O8	O	1.460576	0.256972	0.257183
O9	O	1.793909	0.590306	0.590517
O10	O	1.112080	-0.317295	-0.076170
O11	O	1.445414	0.016039	0.257163
O12	O	1.778747	0.349372	0.590497
O13	O	1.127229	-0.076341	0.076331
O14	O	1.460563	0.256992	0.409664
O15	O	1.793896	0.590325	0.742997
O16	O	0.981665	-0.193192	0.076309
O17	O	1.314998	0.140142	0.409643
O18	O	1.648332	0.473475	0.742976
O19	O	1.257632	-0.200425	0.076332
O20	O	1.590965	0.132909	0.409666
O21	O	1.924299	0.466242	0.742999
Cu22	Cu	1.119647	-0.196806	0.090243
Cu23	Cu	1.452981	0.136527	0.423577
Cu24	Cu	1.786314	0.469860	0.756910
Cu25	Cu	1.119663	-0.196830	-0.090083
Cu26	Cu	1.452996	0.136504	0.243251
Cu27	Cu	1.786329	0.469837	0.576584
O28	O	1.112067	-0.317275	0.076311
O29	O	1.445401	0.016058	0.409644
O30	O	1.778734	0.349392	0.742977
C31	C	0.946358	-0.190036	0.000066
C32	C	1.279691	0.143298	0.333399
C33	C	1.613025	0.476631	0.666733
C34	C	0.841135	-0.180592	0.000058
C35	C	1.174468	0.152742	0.333391
C36	C	1.507802	0.486075	0.666724
C37	C	1.126622	-0.045330	0.000091
C38	C	1.459955	0.288003	0.333424
C39	C	1.793289	0.621336	0.666757
C40	C	1.124781	0.047102	0.000092
C41	C	1.458114	0.380435	0.333425
C42	C	1.791447	0.713769	0.666759
N43	N	1.119674	-0.196840	-0.216915
N44	N	1.453007	0.136493	0.116419
N45	N	1.786341	0.469827	0.449752
C46	C	0.648479	-0.163326	0.000077
C47	C	0.981812	0.170007	0.333410
C48	C	1.315146	0.503340	0.666744
C49	C	0.590825	-0.230306	0.000075
C50	C	0.924159	0.103028	0.333409
C51	C	1.257492	0.436361	0.666742
C52	C	0.483625	-0.220699	0.000086
C53	C	0.816958	0.112634	0.333420
C54	C	1.150291	0.445968	0.666753
C55	C	0.755690	-0.172932	0.000066
C56	C	1.089023	0.160402	0.333400
C57	C	1.422356	0.493735	0.666733
C58	C	1.292952	-0.203600	0.000093
C59	C	1.626285	0.129733	0.333426
C60	C	1.959619	0.463066	0.666759
C61	C	1.398175	-0.213044	0.000095
C62	C	1.731508	0.120289	0.333428
C63	C	2.064841	0.453622	0.666762
C64	C	1.112688	-0.348305	0.000068
C65	C	1.446021	-0.014972	0.333401
C66	C	1.779355	0.318361	0.666735
C67	C	1.114529	-0.440738	0.000061
C68	C	1.447863	-0.107404	0.333394
C69	C	1.781196	0.225929	0.666727
C70	C	1.206874	0.263266	0.000084
C71	C	1.540207	0.596600	0.333418
C72	C	1.873541	0.929933	0.666751
C73	C	1.205137	0.350116	0.000076
C74	C	1.538470	0.683449	0.333410
C75	C	1.871803	1.016783	0.666743
C76	C	1.032429	0.343091	0.000066
C77	C	1.365763	0.676425	0.333399
C78	C	1.699096	1.009758	0.666732
C79	C	1.034168	0.256243	0.000067
C80	C	1.367501	0.589577	0.333400
C81	C	1.700834	0.922910	0.666733
C82	C	1.121393	0.216333	0.000081
C83	C	1.454726	0.549666	0.333414
C84	C	1.788060	0.883000	0.666747
C85	C	1.117917	0.390031	0.000072
C86	C	1.451250	0.723364	0.333405
C87	C	1.784584	1.056698	0.666739
C88	C	1.116032	0.484197	0.000064
C89	C	1.449366	0.817530	0.333397
C90	C	1.782699	1.150864	0.666730
C91	C	1.123278	0.122161	0.000087
C92	C	1.456611	0.455494	0.333421
C93	C	1.789945	0.788828	0.666754
C94	C	1.184238	-0.145198	-0.547899
C95	C	1.517571	0.188136	-0.214566
C96	C	1.850905	0.521469	0.118768
C97	C	1.184242	-0.145204	-0.451918
C98	C	1.517575	0.188129	-0.118584
C99	C	1.850909	0.521462	0.214749
C100	C	1.055073	-0.248434	-0.451947
C101	C	1.388406	0.084899	-0.118614
C102	C	1.721739	0.418232	0.214719
C103	C	1.055065	-0.248423	-0.547927
C104	C	1.388398	0.084910	-0.214593
C105	C	1.721731	0.418244	0.118740
C106	C	1.119653	-0.196806	-0.595900
C107	C	1.452986	0.136527	-0.262567
C108	C	1.786319	0.469861	0.070767
C109	C	1.119665	-0.196824	-0.403939
C110	C	1.452998	0.136510	-0.070606
C111	C	1.786331	0.469843	0.262727
C112	C	1.119669	-0.196831	-0.299872
C113	C	1.453002	0.136502	0.033461
C114	C	1.786335	0.469836	0.366795
C115	C	1.119648	-0.196797	-0.699974
C116	C	1.452981	0.136536	-0.366640
C117	C	1.786314	0.469869	-0.033307
N118	N	1.119643	-0.196790	0.217075
N119	N	1.452977	0.136543	0.550409
N120	N	1.786310	0.469877	0.883742
H121	H	0.621976	-0.294863	0.000066
H122	H	0.955310	0.038470	0.333399
H123	H	1.288643	0.371803	0.666732
C124	C	0.606397	-0.076117	0.000082
C125	C	0.939730	0.257216	0.333416
C126	C	1.273064	0.590549	0.666749
N127	N	0.574690	-0.010432	0.000082
N128	N	0.908023	0.322901	0.333415
N129	N	1.241356	0.656235	0.666748
H130	H	1.274744	0.388326	0.000077
H131	H	1.608077	0.721659	0.333411
H132	H	1.941411	1.054992	0.666744
C133	C	0.936486	0.387001	0.000068
C134	C	1.269820	0.720334	0.333402
C135	C	1.603153	1.053667	0.666735
N136	N	0.864220	0.420072	0.000077
N137	N	1.197554	0.753406	0.333410
N138	N	1.530887	1.086739	0.666744
H139	H	0.964554	0.218029	0.000061
H140	H	1.297888	0.551362	0.333395
H141	H	1.631221	0.884695	0.666728
C142	C	0.984062	-0.305246	-0.600731
C143	C	1.317395	0.028087	-0.267398
C144	C	1.650728	0.361421	0.065936
N145	N	0.930601	-0.348059	-0.640503
N146	N	1.263934	-0.014726	-0.307170
N147	N	1.597267	0.318607	0.026163
C148	C	1.255279	-0.088411	-0.600666
C149	C	1.588612	0.244923	-0.267333
C150	C	1.921945	0.578256	0.066001
N151	N	1.308786	-0.045634	-0.640408
N152	N	1.642119	0.287699	-0.307075
N153	N	1.975453	0.621033	0.026259
C154	C	1.302824	0.219368	0.000089
C155	C	1.636157	0.552702	0.333423
C156	C	1.969491	0.886035	0.666756
N157	N	1.375097	0.186307	0.000089
N158	N	1.708430	0.519640	0.333422
N159	N	2.041763	0.852974	0.666756
H160	H	1.236832	-0.103179	-0.412838
H161	H	1.570165	0.230154	-0.079504
H162	H	1.903499	0.563488	0.253829
H163	H	1.002488	-0.290461	-0.412878
H164	H	1.335821	0.042872	-0.079544
H165	H	1.669155	0.376206	0.253789
