data_functionalizedCrystal
_audit_creation_method	'MofGen! by Chris Wilmer'
_symmetry_space_group_name_H-M	'P1'
_symmetry_Int_Tables_number	1
_symmetry_cell_setting	triclinic
loop_
_symmetry_equiv_pos_as_xyz
  x,y,z
_cell_length_a	19.188930
_cell_length_b	10.654550
_cell_length_c	9.730223
_cell_angle_alpha	90.004253
_cell_angle_beta	90.017168
_cell_angle_gamma	83.814855
loop_
_atom_site_label
_atom_site_type_symbol
_atom_site_fract_x
_atom_site_fract_y
_atom_site_fract_z
O1	O	-0.927169	-0.156779	-0.114732
O2	O	-0.427169	0.343221	0.385268
O3	O	-0.723996	-0.177885	-0.114638
O4	O	-0.223996	0.322115	0.385362
O5	O	-0.830254	0.015506	-0.114678
O6	O	-0.330254	0.515506	0.385322
O7	O	-0.820911	-0.350170	-0.114691
O8	O	-0.320911	0.149830	0.385309
O9	O	-0.830247	0.015511	0.113902
O10	O	-0.330247	0.515511	0.613902
O11	O	-0.723989	-0.177880	0.113942
O12	O	-0.223989	0.322120	0.613942
O13	O	-0.927162	-0.156774	0.113848
O14	O	-0.427162	0.343226	0.613848
Zn15	Zn	-0.825574	-0.167326	0.150187
Zn16	Zn	-0.325574	0.332674	0.650187
Zn17	Zn	-0.825583	-0.167333	-0.150977
Zn18	Zn	-0.325583	0.332667	0.349023
O19	O	-0.820904	-0.350165	0.113889
O20	O	-0.320904	0.149835	0.613889
C21	C	-0.829564	0.062292	-0.000389
C22	C	-0.329564	0.562292	0.499611
C23	C	-0.827512	0.201692	-0.000390
C24	C	-0.327512	0.701692	0.499610
C25	C	-0.697977	-0.177199	-0.000336
C26	C	-0.197977	0.322801	0.499664
C27	C	-0.620459	-0.175147	-0.000299
C28	C	-0.120459	0.324853	0.499701
C29	C	-0.953181	-0.157460	-0.000457
C30	C	-0.453181	0.342540	0.499543
C31	C	-1.030699	-0.159512	-0.000502
C32	C	-0.530699	0.340488	0.499498
C33	C	-0.576277	-0.288622	-0.000325
C34	C	-0.076277	0.211378	0.499675
C35	C	-0.503441	-0.286695	-0.000340
C36	C	-0.003441	0.213305	0.499660
C37	C	-0.474789	-0.171286	-0.000357
C38	C	0.025211	0.328714	0.499643
C39	C	-0.518981	-0.057795	-0.000324
C40	C	-0.018981	0.442205	0.499676
C41	C	-0.591816	-0.059726	-0.000295
C42	C	-0.091816	0.440274	0.499705
N43	N	-0.366235	-0.083071	-0.078205
N44	N	0.133765	0.416929	0.421795
N45	N	-0.297044	-0.081245	-0.078235
N46	N	0.202956	0.418755	0.421765
C47	C	-0.255343	-0.165461	-0.000441
C48	C	0.244657	0.334539	0.499559
N49	N	-0.285444	-0.251593	0.077368
N50	N	0.214556	0.248407	0.577368
N51	N	-0.354641	-0.253423	0.077392
N52	N	0.145359	0.246577	0.577392
C53	C	-0.395813	-0.169179	-0.000387
C54	C	0.104187	0.330821	0.499613
C55	C	-0.132183	-0.276855	-0.000481
C56	C	0.367817	0.223145	0.499519
C57	C	-0.059345	-0.274922	-0.000487
C58	C	0.440655	0.225078	0.499513
C59	C	-0.074887	-0.046020	-0.000485
C60	C	0.425113	0.453980	0.499515
C61	C	-0.147723	-0.047955	-0.000465
C62	C	0.352277	0.452045	0.499535
C63	C	-0.176366	-0.163376	-0.000469
C64	C	0.323634	0.336624	0.499531
C65	C	-0.821594	-0.396951	-0.000404
C66	C	-0.321594	0.103049	0.499596
C67	C	-0.823646	-0.536351	-0.000412
C68	C	-0.323646	-0.036351	0.499588
N69	N	-0.825573	-0.167321	0.355724
N70	N	-0.325573	0.332679	0.855724
C71	C	-0.890075	0.282501	-0.000419
C72	C	-0.390075	0.782501	0.499581
C73	C	-0.888142	0.413481	-0.000435
C74	C	-0.388142	0.913481	0.499565
C75	C	-0.761078	0.382829	-0.000386
C76	C	-0.261078	0.882829	0.499614
C77	C	-0.763011	0.251852	-0.000380
C78	C	-0.263011	0.751852	0.499620
N79	N	-0.825590	-0.167328	-0.356513
N80	N	-0.325590	0.332672	0.143487
C81	C	-0.872640	-0.081723	0.427632
C82	C	-0.372640	0.418277	0.927632
C83	C	-0.872647	-0.081723	0.571514
C84	C	-0.372647	0.418277	1.071514
C85	C	-0.778518	-0.252930	0.571569
C86	C	-0.278518	0.247070	1.071569
C87	C	-0.778508	-0.252923	0.427689
C88	C	-0.278508	0.247077	0.927689
H89	H	-0.599593	-0.382607	-0.000331
H90	H	-0.099593	0.117393	0.499669
H91	H	-0.467461	-0.379103	-0.000357
H92	H	0.032539	0.120897	0.499643
H93	H	-0.740199	-0.322627	0.630177
H94	H	-0.240199	0.177373	1.130177
H95	H	-0.023373	-0.367332	-0.000500
H96	H	0.476627	0.132668	0.499500
H97	H	-0.708564	0.423686	-0.000376
H98	H	-0.208564	0.923686	0.499624
H99	H	-0.740177	-0.322627	0.369137
H100	H	-0.240177	0.177373	0.869137
H101	H	-0.495648	0.036172	-0.000356
H102	H	0.004352	0.536172	0.499644
H103	H	-0.627789	0.032682	-0.000275
H104	H	-0.127789	0.532682	0.499725
H105	H	-0.051560	0.047949	-0.000584
H106	H	0.448440	0.547949	0.499416
H107	H	-0.155505	-0.370837	-0.000464
H108	H	0.344495	0.129163	0.499536
H109	H	-0.183697	0.044449	-0.000451
H110	H	0.316303	0.544449	0.499549
H111	H	-0.939088	0.479272	-0.000462
H112	H	-0.439088	0.979272	0.499538
H113	H	-0.942595	0.241666	-0.000430
H114	H	-0.442595	0.741666	0.499570
H115	H	-0.712062	0.186053	-0.000360
H116	H	-0.212062	0.686053	0.499640
H117	H	-0.910963	-0.012019	0.369041
H118	H	-0.410963	0.487981	0.869041
H119	H	-0.910973	-0.012021	0.630058
H120	H	-0.410973	0.487979	1.130058
