data_functionalizedCrystal
_audit_creation_method	'MofGen! by Chris Wilmer'
_symmetry_space_group_name_H-M	'P1'
_symmetry_Int_Tables_number	1
_symmetry_cell_setting	triclinic
loop_
_symmetry_equiv_pos_as_xyz
  x,y,z
_cell_length_a	6.817900
_cell_length_b	11.102288
_cell_length_c	11.100257
_cell_angle_alpha	91.990610
_cell_angle_beta	108.570032
_cell_angle_gamma	108.605689
loop_
_atom_site_label
_atom_site_type_symbol
_atom_site_fract_x
_atom_site_fract_y
_atom_site_fract_z
V1	V	-4.111251	-0.176083	-0.396283
O2	O	-4.070288	0.008211	-0.388739
O3	O	-4.088030	-0.348901	-0.393573
O4	O	-4.087909	-0.173484	-0.569116
O5	O	-4.070409	-0.168421	-0.211981
V6	V	-4.588369	-0.154026	-0.374239
O7	O	-4.386558	-0.224466	-0.444638
O8	O	-4.763258	-0.105643	-0.325884
O9	O	-4.388383	0.018793	-0.376949
O10	O	-4.746728	-0.338319	-0.381783
O11	O	-4.746607	-0.161688	-0.558541
O12	O	-4.388503	-0.156625	-0.201406
C13	C	-3.938345	-0.391027	-0.387321
C14	C	-4.000813	-0.532309	-0.386258
C15	C	-3.938190	-0.167263	-0.611242
C16	C	-4.000557	-0.166282	-0.752534
C17	C	-4.214163	-0.605161	-0.392099
C18	C	-4.272852	-0.737912	-0.391109
C19	C	-3.904815	-0.724946	-0.378432
C20	C	-3.846134	-0.592199	-0.379430
C21	C	-3.997895	0.068971	-0.981116
C22	C	-3.908143	0.184756	-0.896322
C23	C	-3.849191	0.183532	-0.763599
C24	C	-3.880003	0.066511	-0.715669
C25	C	-3.969756	-0.049274	-0.800463
C26	C	-4.028696	-0.048037	-0.933187
C27	C	-4.090309	-0.282067	-0.837327
C28	C	-4.149247	-0.280845	-0.970050
C29	C	-4.121121	-0.399088	-0.789397
C30	C	-4.210860	-0.514875	-0.874191
C31	C	-4.269811	-0.513646	-1.006921
C32	C	-4.239000	-0.396630	-1.054844
C33	C	-4.201410	0.060912	-0.383197
C34	C	-4.118182	0.202193	-0.384269
C35	C	-4.201564	-0.162849	-0.159273
C36	C	-4.118435	-0.163824	-0.017981
H37	H	-4.340116	-0.556403	-0.397656
H38	H	-4.446579	-0.797223	-0.395868
H39	H	-3.778888	-0.773724	-0.372870
H40	H	-3.776118	0.277814	-0.694559
C41	C	-3.611438	-0.512051	-0.373003
H42	H	-3.598655	-0.424417	-0.374589
H43	H	-3.506995	-0.519482	-0.295774
H44	H	-3.583899	-0.542798	-0.444707
H45	H	-4.045865	0.069981	-1.089183
H46	H	-4.073128	-0.400077	-0.681326
C47	C	-4.244768	-0.643584	-0.821473
H48	H	-4.306671	-0.712368	-0.890978
H49	H	-4.106649	-0.644841	-0.766490
H50	H	-4.341948	-0.652958	-0.774439
H51	H	-4.342898	-0.607933	-1.075955
H52	H	-3.883069	0.280032	-0.935362
H53	H	-3.832022	0.065524	-0.607598
H54	H	-4.286980	-0.395617	-1.162911
