data_functionalizedCrystal
_audit_creation_method	'MofGen! by Chris Wilmer'
_symmetry_space_group_name_H-M	'P1'
_symmetry_Int_Tables_number	1
_symmetry_cell_setting	triclinic
loop_
_symmetry_equiv_pos_as_xyz
  x,y,z
_cell_length_a	6.817900
_cell_length_b	14.858572
_cell_length_c	13.694001
_cell_angle_alpha	79.272738
_cell_angle_beta	106.288079
_cell_angle_gamma	104.524003
loop_
_atom_site_label
_atom_site_type_symbol
_atom_site_fract_x
_atom_site_fract_y
_atom_site_fract_z
V1	V	-4.032528	-0.254135	-0.140829
O2	O	-4.025864	-0.285995	0.006111
O3	O	-3.978300	-0.217102	-0.278610
O4	O	-3.989245	-0.381074	-0.138951
O5	O	-4.014843	-0.120888	-0.134514
V6	V	-4.516248	-0.242485	-0.123219
O7	O	-4.293354	-0.279690	-0.179458
O8	O	-4.705619	-0.216930	-0.084591
O9	O	-4.347269	-0.279518	0.014561
O10	O	-4.640309	-0.210625	-0.270160
O11	O	-4.651330	-0.375732	-0.129534
O12	O	-4.336324	-0.115545	-0.125098
C13	C	-3.821717	-0.203986	-0.312189
C14	C	-3.858700	-0.174553	-0.424828
C15	C	-4.135122	-0.417337	-0.800972
C16	C	-4.100390	-0.444995	-0.695143
C17	C	-4.039966	-0.377387	-0.627559
C18	C	-4.014277	-0.282116	-0.665814
C19	C	-4.049028	-0.254456	-0.771654
C20	C	-3.953872	-0.214506	-0.598241
C21	C	-3.928184	-0.119235	-0.636496
C22	C	-3.962931	-0.091579	-0.742326
C23	C	-4.023355	-0.159188	-0.809910
C24	C	-3.919121	-0.242166	-0.492401
C25	C	-3.833027	-0.079285	-0.463084
C26	C	-3.867759	-0.051627	-0.568912
C27	C	-3.835678	-0.413148	-0.134039
C28	C	-3.881535	-0.516690	-0.133415
C29	C	-4.049370	-0.895838	-0.131134
C30	C	-4.002665	-0.790347	-0.131769
C31	C	-3.965454	-0.706267	-0.132275
C32	C	-3.918746	-0.600770	-0.132908
C33	C	-4.167194	-0.292630	0.048135
C34	C	-4.109449	-0.322069	0.160773
C35	C	-4.153233	-0.083466	-0.130013
C36	C	-4.086615	0.020075	-0.130632
H37	H	-4.051635	-0.136673	-0.896085
O38	O	-4.125011	-0.537498	-0.657849
C39	C	-3.934484	-0.555224	-0.592610
H40	H	-3.834214	-0.487607	-0.562393
H41	H	-3.967193	-0.609844	-0.525495
H42	H	-3.847982	-0.582554	-0.637187
O43	O	-3.774069	-0.013511	-0.397537
C44	C	-3.583348	0.045938	-0.409549
H45	H	-3.563138	0.043919	-0.488923
H46	H	-3.584071	0.120674	-0.400860
H47	H	-3.448615	0.021294	-0.348578
H48	H	-4.184337	-0.472373	-0.856007
O49	O	-3.944398	-0.334737	-0.455376
C50	C	-4.152092	-0.380673	-0.495050
H51	H	-4.222757	-0.338483	-0.569358
H52	H	-4.153754	-0.453517	-0.510985
H53	H	-4.247709	-0.387166	-0.436891
H54	H	-4.011687	-0.399912	-0.541389
H55	H	-3.942035	-0.014005	-0.773470
H56	H	-3.846850	0.025944	-0.600075
