data_functionalizedCrystal
_audit_creation_method	'MofGen! by Chris Wilmer'
_symmetry_space_group_name_H-M	'P1'
_symmetry_Int_Tables_number	1
_symmetry_cell_setting	triclinic
loop_
_symmetry_equiv_pos_as_xyz
  x,y,z
_cell_length_a	14.044220
_cell_length_b	19.188930
_cell_length_c	12.503572
_cell_angle_alpha	93.506241
_cell_angle_beta	86.164750
_cell_angle_gamma	88.166830
loop_
_atom_site_label
_atom_site_type_symbol
_atom_site_fract_x
_atom_site_fract_y
_atom_site_fract_z
O1	O	1.262485	0.164589	-0.089229
O2	O	1.762485	0.664589	0.410771
O3	O	0.986542	0.158515	-0.089255
O4	O	1.486542	0.658515	0.410745
O5	O	1.132475	0.060411	-0.089220
O6	O	1.632475	0.560411	0.410780
O7	O	1.116552	0.262693	-0.089264
O8	O	1.616552	0.762693	0.410736
O9	O	1.121500	0.067803	0.089419
O10	O	1.621500	0.567803	0.589419
O11	O	0.975567	0.165907	0.089384
O12	O	1.475567	0.665907	0.589384
O13	O	1.251510	0.171980	0.089411
O14	O	1.751510	0.671980	0.589411
Cu15	Cu	1.112536	0.169618	0.105709
Cu16	Cu	1.612536	0.669618	0.605709
Cu17	Cu	1.125516	0.160877	-0.105553
Cu18	Cu	1.625516	0.660877	0.394447
O19	O	1.105577	0.270084	0.089376
O20	O	1.605577	0.770084	0.589376
C21	C	0.945752	0.159553	0.000061
C22	C	1.445752	0.659553	0.500061
C23	C	0.840559	0.151624	0.000052
C24	C	1.340559	0.651624	0.500052
C25	C	0.647956	0.137129	0.000077
C26	C	1.147956	0.637129	0.500077
C27	C	0.590090	0.193363	0.000069
C28	C	1.090090	0.693363	0.500069
C29	C	0.482920	0.185298	0.000083
C30	C	0.982920	0.685298	0.500083
C31	C	0.755137	0.145193	0.000063
C32	C	1.255137	0.645193	0.500063
C33	C	1.126472	0.038063	0.000102
C34	C	1.626472	0.538063	0.500102
C35	C	1.124923	-0.039541	0.000112
C36	C	1.624923	0.460459	0.500112
C37	C	1.210552	-0.078939	0.000125
C38	C	1.710552	0.421061	0.500125
C39	C	1.209099	-0.151857	0.000108
C40	C	1.709099	0.348143	0.500108
C41	C	1.122010	-0.185374	0.000098
C42	C	1.622010	0.314626	0.500098
C43	C	1.036370	-0.145968	0.000079
C44	C	1.536370	0.354032	0.500079
C45	C	1.037826	-0.073051	0.000086
C46	C	1.537826	0.426949	0.500086
N47	N	1.051706	-0.295160	0.060886
N48	N	1.551706	0.204840	0.560886
N49	N	1.050328	-0.364427	0.060882
N50	N	1.550328	0.135573	0.560882
C51	C	1.117616	-0.405067	0.000076
C52	C	1.617616	0.094933	0.500076
N53	N	1.186348	-0.373823	-0.060712
N54	N	1.686348	0.126177	0.439288
N55	N	1.187729	-0.304548	-0.060704
N56	N	1.687729	0.195452	0.439296
C57	C	1.120421	-0.264440	0.000091
C58	C	1.620421	0.235560	0.500091
C59	C	1.201676	-0.523532	0.000069
C60	C	1.701676	-0.023532	0.500069
C61	C	1.200219	-0.596451	0.000045
C62	C	1.700219	-0.096451	0.500045
C63	C	1.027487	-0.590560	0.000028
C64	C	1.527487	-0.090560	0.500028
C65	C	1.028947	-0.517642	0.000041
C66	C	1.528947	-0.017642	0.500041
C67	C	1.116043	-0.484132	0.000067
C68	C	1.616043	0.015868	0.500067
C69	C	1.292301	0.170943	0.000092
C70	C	1.792301	0.670943	0.500092
C71	C	1.397493	0.178872	0.000094
C72	C	1.897493	0.678872	0.500094
C73	C	1.111580	0.292433	0.000051
C74	C	1.611580	0.792433	0.500051
C75	C	1.113129	0.370037	0.000034
C76	C	1.613129	0.870037	0.500034
N77	N	1.103414	0.175766	0.254299
N78	N	1.603414	0.675766	0.754299
N79	N	1.134645	0.154724	-0.254143
N80	N	1.634645	0.654724	0.245857
C81	C	1.089995	0.184816	0.473411
C82	C	1.589995	0.684816	0.973411
C83	C	1.148061	0.145676	0.526752
C84	C	1.648061	0.645676	1.026752
C85	C	1.140595	0.150712	0.648673
C86	C	1.640595	0.650712	1.148673
C87	C	1.097461	0.179782	0.351478
C88	C	1.597461	0.679782	0.851478
H89	H	1.281473	-0.051660	0.000142
H90	H	1.781473	0.448340	0.500142
O91	O	0.626842	0.258079	0.000087
O92	O	1.126842	0.758079	0.500087
C93	C	0.551933	0.308779	0.000048
C94	C	1.051933	0.808779	0.500048
H95	H	0.482740	0.286515	0.033889
H96	H	0.982740	0.786515	0.533889
H97	H	0.569331	0.357038	0.051888
H98	H	1.069331	0.857038	0.551888
H99	H	0.543156	0.323783	-0.085661
H100	H	1.043156	0.823783	0.414339
O101	O	0.610891	0.072520	0.000041
O102	O	1.110891	0.572520	0.500041
C103	C	0.510585	0.078751	0.000075
C104	C	1.010585	0.578751	0.500075
H105	H	0.489344	0.130407	-0.033747
H106	H	0.989344	0.630407	0.466253
H107	H	0.483483	0.033655	-0.051784
H108	H	0.983483	0.533655	0.448216
H109	H	0.477819	0.077231	0.085780
H110	H	0.977819	0.577231	0.585780
O111	O	1.292367	-0.190031	0.000171
O112	O	1.792367	0.309969	0.500171
C113	C	1.369553	-0.144820	0.000164
C114	C	1.869553	0.355180	0.500164
H115	H	1.343197	-0.090582	0.033981
H116	H	1.843197	0.409418	0.533981
H117	H	1.426340	-0.165809	0.052040
H118	H	1.926340	0.334191	0.552040
H119	H	1.401536	-0.141509	-0.085532
H120	H	1.901536	0.358491	0.414468
H121	H	1.203381	0.108386	0.480852
H122	H	1.703381	0.608386	0.980852
H123	H	0.965462	-0.173262	0.000069
H124	H	1.465462	0.326738	0.500069
O125	O	0.954552	-0.034879	0.000126
O126	O	1.454552	0.465121	0.500126
C127	C	0.877371	-0.080095	0.000081
C128	C	1.377371	0.419905	0.500081
H129	H	0.899571	-0.131543	0.033895
H130	H	1.399571	0.368457	0.533895
H131	H	0.814204	-0.054829	0.051940
H132	H	1.314204	0.445171	0.551940
H133	H	0.855929	-0.090476	-0.085626
H134	H	1.355929	0.409524	0.414374
O135	O	1.023879	0.229224	0.528112
O136	O	1.523879	0.729224	1.028112
C137	C	0.931726	0.211018	0.500722
C138	C	1.431726	0.711018	1.000722
H139	H	0.933228	0.153847	0.469727
H140	H	1.433228	0.653847	0.969727
H141	H	0.879689	0.219133	0.574746
H142	H	1.379689	0.719133	1.074746
H143	H	0.907744	0.245349	0.435549
H144	H	1.407744	0.745349	0.935549
H145	H	1.269952	-0.628529	0.000050
H146	H	1.769952	-0.128529	0.500050
O147	O	1.286364	-0.491088	0.000028
O148	O	1.786364	0.008912	0.500028
C149	C	1.361633	-0.541502	0.000047
C150	C	1.861633	-0.041502	0.500047
H151	H	1.337351	-0.594011	-0.033778
H152	H	1.837351	-0.094011	0.466222
H153	H	1.425637	-0.524633	-0.051816
H154	H	1.925637	-0.024633	0.448184
H155	H	1.382776	-0.546628	0.085748
H156	H	1.882776	-0.046628	0.585748
O157	O	0.942955	-0.623193	-0.000128
O158	O	1.442955	-0.123193	0.499872
C159	C	0.942620	-0.668995	-0.092668
C160	C	1.442620	-0.168995	0.407332
H161	H	1.019281	-0.683749	-0.123504
H162	H	1.519281	-0.183749	0.376496
H163	H	0.903764	-0.718166	-0.071874
H164	H	1.403764	-0.218166	0.428126
H165	H	0.904547	-0.642110	-0.157455
H166	H	1.404547	-0.142110	0.342545
O167	O	0.945674	-0.479470	0.000089
O168	O	1.445674	0.020530	0.500089
C169	C	0.868495	-0.524686	0.000051
C170	C	1.368495	-0.024686	0.500051
H171	H	0.890697	-0.576133	0.033867
H172	H	1.390697	-0.076133	0.533867
H173	H	0.805329	-0.499420	0.051912
H174	H	1.305329	0.000580	0.551912
H175	H	0.847049	-0.535070	-0.085655
H176	H	1.347049	-0.035070	0.414345
