data_functionalizedCrystal
_audit_creation_method	'MofGen! by Chris Wilmer'
_symmetry_space_group_name_H-M	'P1'
_symmetry_Int_Tables_number	1
_symmetry_cell_setting	triclinic
loop_
_symmetry_equiv_pos_as_xyz
  x,y,z
_cell_length_a	12.594517
_cell_length_b	29.839131
_cell_length_c	12.594509
_cell_angle_alpha	89.966582
_cell_angle_beta	89.978379
_cell_angle_gamma	90.041220
loop_
_atom_site_label
_atom_site_type_symbol
_atom_site_fract_x
_atom_site_fract_y
_atom_site_fract_z
Zn1	Zn	1.627082	-0.178849	-0.601810
Zn2	Zn	2.127082	0.321151	-0.101810
Zn3	Zn	1.626894	-0.253982	-0.423811
Zn4	Zn	2.126894	0.246018	0.076189
Zn5	Zn	1.449085	-0.178866	-0.423839
Zn6	Zn	1.949085	0.321134	0.076161
Zn7	Zn	1.448990	-0.253953	-0.601741
Zn8	Zn	1.948990	0.246047	-0.101741
O9	O	1.538013	-0.216412	-0.512800
O10	O	2.038013	0.283588	-0.012800
O11	O	1.776003	-0.188821	-0.578215
O12	O	2.276003	0.311179	-0.078215
O13	O	1.603268	-0.244037	-0.274869
O14	O	2.103268	0.255963	0.225131
O15	O	1.472816	-0.115997	-0.447488
O16	O	1.972816	0.384003	0.052512
O17	O	1.775864	-0.244020	-0.447440
O18	O	2.275864	0.255980	0.052560
O19	O	1.603590	-0.115984	-0.578243
O20	O	2.103590	0.384016	-0.078243
O21	O	1.472633	-0.188850	-0.274889
O22	O	1.972633	0.311150	0.225111
O23	O	1.300127	-0.188822	-0.447421
O24	O	1.800127	0.311178	0.052579
O25	O	1.472653	-0.243970	-0.750696
O26	O	1.972653	0.256030	-0.250696
O27	O	1.300057	-0.243987	-0.578124
O28	O	1.800057	0.256013	-0.078124
O29	O	1.603497	-0.188792	-0.750747
O30	O	2.103497	0.311208	-0.250747
O31	O	1.603175	-0.316845	-0.447373
O32	O	2.103175	0.183155	0.052627
O33	O	1.472470	-0.316824	-0.578097
O34	O	1.972470	0.183176	-0.078097
C35	C	1.261472	-0.216403	-0.512769
C36	C	1.761472	0.283597	-0.012769
C37	C	1.143166	-0.216410	-0.512781
C38	C	1.643166	0.283590	-0.012781
C39	C	1.073921	-0.186365	-0.441827
C40	C	1.573921	0.313635	0.058173
C41	C	1.003066	-0.227344	-0.415635
C42	C	1.503066	0.272656	0.084365
C43	C	1.003221	-0.175451	-0.538990
C44	C	1.503221	0.324549	-0.038990
C45	C	1.073870	-0.257411	-0.486538
C46	C	1.573870	0.242589	0.013462
C47	C	1.074032	-0.205491	-0.609939
C48	C	1.574032	0.294509	-0.109939
C49	C	1.003209	-0.246498	-0.583784
C50	C	1.503209	0.253502	-0.083784
C51	C	1.537821	-0.333135	-0.512747
C52	C	2.037821	0.166865	-0.012747
C53	C	1.537836	-0.383069	-0.512760
C54	C	2.037836	0.116931	-0.012760
C55	C	1.606195	-0.692711	-0.444831
C56	C	2.106195	-0.192711	0.055169
C57	C	1.606326	-0.880384	-0.444873
C58	C	2.106326	-0.380384	0.055127
O59	O	1.664295	-0.904648	-0.387076
O60	O	2.164295	-0.404648	0.112924
N61	N	1.538233	-0.903854	-0.512880
N62	N	2.038233	-0.403854	-0.012880
C63	C	1.470108	-0.880403	-0.580888
C64	C	1.970108	-0.380403	-0.080888
O65	O	1.412202	-0.904672	-0.638741
O66	O	1.912202	-0.404672	-0.138741
C67	C	1.469983	-0.692731	-0.580851
C68	C	1.969983	-0.192731	-0.080851
C69	C	1.538072	-0.669264	-0.512831
C70	C	2.038072	-0.169264	-0.012831
C71	C	1.674279	-0.669244	-0.376818
C72	C	2.174279	-0.169244	0.123182
C73	C	1.674242	-0.622328	-0.376804
C74	C	2.174242	-0.122328	0.123196
C75	C	1.606119	-0.598880	-0.444804
C76	C	2.106119	-0.098880	0.055196
C77	C	1.538035	-0.622348	-0.512817
C78	C	2.038035	-0.122348	-0.012817
C79	C	1.401864	-0.669281	-0.648863
C80	C	1.901864	-0.169281	-0.148863
C81	C	1.401840	-0.622360	-0.648849
C82	C	1.901840	-0.122360	-0.148849
C83	C	1.469930	-0.598892	-0.580829
C84	C	1.969930	-0.098892	-0.080829
C85	C	1.469875	-0.551985	-0.580803
C86	C	1.969875	-0.051985	-0.080803
N87	N	1.537967	-0.528515	-0.512796
N88	N	2.037967	-0.028515	-0.012796
C89	C	1.606090	-0.551963	-0.444796
C90	C	2.106090	-0.051963	0.055204
C91	C	1.470177	-0.978934	-0.580901
C92	C	1.970177	-0.478934	-0.080901
C93	C	1.470207	-1.025852	-0.580909
C94	C	1.970207	-0.525852	-0.080909
C95	C	1.606427	-1.025829	-0.444895
C96	C	2.106427	-0.525829	0.055105
C97	C	1.606391	-0.978911	-0.444882
C98	C	2.106391	-0.478911	0.055118
C99	C	1.538270	-0.955464	-0.512893
C100	C	2.038270	-0.455464	-0.012893
C101	C	1.606005	-0.453437	-0.444772
C102	C	2.106005	0.046563	0.055228
C103	C	1.605958	-0.406517	-0.444761
C104	C	2.105958	0.093483	0.055239
C105	C	1.469743	-0.406544	-0.580778
C106	C	1.969743	0.093456	-0.080778
C107	C	1.469785	-0.453459	-0.580785
C108	C	1.969785	0.046541	-0.080785
C109	C	1.537925	-0.476904	-0.512779
C110	C	2.037925	0.023096	-0.012779
O111	O	1.411945	-0.527692	-0.638578
O112	O	1.911945	-0.027692	-0.138578
O113	O	1.664004	-0.527685	-0.386968
O114	O	2.164004	-0.027685	0.113032
C115	C	1.606232	-0.739627	-0.444845
C116	C	2.106232	-0.239627	0.055155
C117	C	1.538148	-0.763094	-0.512859
C118	C	2.038148	-0.263094	-0.012859
C119	C	1.470025	-0.739647	-0.580858
C120	C	1.970025	-0.239647	-0.080858
C121	C	1.538177	-0.810012	-0.512867
C122	C	2.038177	-0.310012	-0.012867
C123	C	1.606300	-0.833460	-0.444867
C124	C	2.106300	-0.333460	0.055133
C125	C	1.674392	-0.809990	-0.376859
C126	C	2.174392	-0.309990	0.123141
C127	C	1.674355	-0.763074	-0.376846
C128	C	2.174355	-0.263074	0.123154
C129	C	1.401933	-0.763117	-0.648866
C130	C	1.901933	-0.263117	-0.148866
C131	C	1.401975	-0.810032	-0.648873
C132	C	1.901975	-0.310032	-0.148873
C133	C	1.470097	-0.833480	-0.580874
C134	C	1.970097	-0.333480	-0.080874
C135	C	1.815634	-0.216422	-0.512832
C136	C	2.315634	0.283578	-0.012832
C137	C	1.933939	-0.216426	-0.512846
C138	C	2.433939	0.283574	-0.012846
C139	C	1.538085	-0.216376	-0.790421
C140	C	2.038085	0.283624	-0.290421
C141	C	1.538116	-0.216361	-0.908727
C142	C	2.038116	0.283639	-0.408727
C143	C	1.538235	-0.099234	-0.512876
C144	C	2.038235	0.400766	-0.012876
C145	C	1.538329	-0.049300	-0.512909
C146	C	2.038329	0.450700	-0.012909
C147	C	1.466995	-0.246335	-1.048716
C148	C	1.966995	0.253665	-0.548716
C149	C	1.441015	-0.205365	-0.977925
C150	C	1.941015	0.294635	-0.477925
C151	C	1.564048	-0.257326	-0.977945
C152	C	2.064048	0.242674	-0.477945
C153	C	1.512147	-0.175314	-1.048722
C154	C	2.012147	0.324686	-0.548722
C155	C	1.635226	-0.227302	-1.048748
C156	C	2.135226	0.272698	-0.548748
C157	C	1.609282	-0.186304	-0.977990
C158	C	2.109282	0.313696	-0.477990
C159	C	1.538002	-0.216416	-0.236259
C160	C	2.038002	0.283584	0.263741
C161	C	1.538177	-0.216305	-0.117954
C162	C	2.038177	0.283695	0.382046
H163	H	0.972357	-0.271943	-0.643816
H164	H	1.472357	0.228057	-0.143816
H165	H	1.104775	-0.292066	-0.464307
H166	H	1.604775	0.207934	0.035693
H167	H	1.661405	-0.387411	-0.389367
H168	H	2.161405	0.112589	0.110633
Br169	Br	1.309462	-0.701118	-0.741193
Br170	Br	1.809462	-0.201118	-0.241193
Br171	Br	1.600554	-0.315105	-0.926109
Br172	Br	2.100554	0.184895	-0.426109
Br173	Br	0.951114	-0.242755	-0.278738
Br174	Br	1.451114	0.257245	0.221262
H175	H	1.729759	-0.688330	-0.321444
H176	H	2.229759	-0.188330	0.178556
Br177	Br	1.366638	-0.288569	-1.100482
Br178	Br	1.866638	0.211431	-0.600482
H179	H	1.490146	-0.140636	-1.079681
H180	H	1.990146	0.359364	-0.579681
H181	H	1.717300	-0.236594	-1.079881
H182	H	2.217300	0.263406	-0.579881
H183	H	0.972131	-0.140811	-0.561094
H184	H	1.472131	0.359189	-0.061094
H185	H	1.729857	-0.829089	-0.321488
H186	H	2.229857	-0.329089	0.178512
Br187	Br	1.698481	-0.485248	-0.352476
Br188	Br	2.198481	0.014752	0.147524
H189	H	1.414752	-1.044955	-0.636287
H190	H	1.914752	-0.544955	-0.136287
Br191	Br	1.304181	-0.189895	-0.926078
Br192	Br	1.804181	0.310105	-0.426078
Br193	Br	1.126022	-0.190062	-0.746804
Br194	Br	1.626022	0.309938	-0.246804
Br195	Br	1.698800	-0.947067	-0.352566
Br196	Br	2.198800	-0.447067	0.147434
Br197	Br	1.309389	-0.590542	-0.741159
Br198	Br	1.809389	-0.090542	-0.241159
Br199	Br	1.766770	-0.731233	-0.284531
Br200	Br	2.266770	-0.231233	0.215469
Br201	Br	1.698874	-1.057660	-0.352606
Br202	Br	2.198874	-0.557660	0.147394
Br203	Br	1.125672	-0.144056	-0.341701
Br204	Br	1.625672	0.355944	0.158299
Br205	Br	1.709575	-0.143971	-0.926554
Br206	Br	2.209575	0.356029	-0.426554
H207	H	1.729689	-0.603223	-0.321420
H208	H	2.229689	-0.103223	0.178580
Br209	Br	1.377717	-0.947120	-0.673210
Br210	Br	1.877717	-0.447120	-0.173210
Br211	Br	1.377352	-0.485309	-0.673072
Br212	Br	1.877352	0.014691	-0.173072
Br213	Br	1.377300	-0.374713	-0.673063
Br214	Br	1.877300	0.125287	-0.173063
H215	H	1.346460	-0.744029	-0.704241
H216	H	1.846460	-0.244029	-0.204241
Br217	Br	1.309556	-0.841875	-0.741192
Br218	Br	1.809556	-0.341875	-0.241192
