data_functionalizedCrystal
_audit_creation_method	'MofGen! by Chris Wilmer'
_symmetry_space_group_name_H-M	'P1'
_symmetry_Int_Tables_number	1
_symmetry_cell_setting	triclinic
loop_
_symmetry_equiv_pos_as_xyz
  x,y,z
_cell_length_a	6.394984
_cell_length_b	17.699083
_cell_length_c	16.176319
_cell_angle_alpha	90.001389
_cell_angle_beta	89.994826
_cell_angle_gamma	95.110816
loop_
_atom_site_label
_atom_site_type_symbol
_atom_site_fract_x
_atom_site_fract_y
_atom_site_fract_z
O1	O	0.264132	-1.006772	-0.068628
O2	O	0.298496	-0.786744	-0.068654
O3	O	-0.022767	-0.899884	-0.068638
O4	O	0.585395	-0.893633	-0.068644
O5	O	-0.022787	-0.899867	0.068855
O6	O	0.298476	-0.786728	0.068839
O7	O	0.264112	-1.006756	0.068865
Cu8	Cu	0.281292	-0.896741	0.081406
Cu9	Cu	0.281316	-0.896760	-0.081195
O10	O	0.585375	-0.893617	0.068849
C11	C	0.297255	-0.758527	0.000089
C12	C	0.293561	-0.674471	0.000078
C13	C	0.899411	-0.898632	0.000111
C14	C	0.663193	-0.894866	0.000109
C15	C	0.265353	-1.034974	0.000120
C16	C	0.269047	-1.119029	0.000125
N17	N	0.281274	-0.896733	0.195772
N18	N	0.281318	-0.896774	-0.195561
C19	C	0.482136	-0.627773	0.000077
C20	C	0.478652	-0.548794	0.000088
C21	C	0.286592	-0.516515	0.000094
C22	C	0.098003	-0.563219	0.000098
C23	C	0.101488	-0.642196	0.000093
C24	C	0.083942	-0.244712	0.000119
C25	C	0.080471	-0.165729	0.000121
C26	C	0.461106	-0.151310	0.000113
C27	C	0.464591	-0.230288	0.000108
C28	C	0.276003	-0.276985	0.000117
C29	C	0.279783	-0.362622	0.000107
C30	C	0.282810	-0.430879	0.000098
C31	C	0.139077	-0.946847	0.239043
C32	C	0.139074	-0.946851	0.325590
C33	C	0.281281	-0.896743	0.368864
C34	C	0.423485	-0.846624	0.325587
C35	C	0.423476	-0.846617	0.239041
C36	C	0.423524	-0.846650	0.674615
C37	C	0.423527	-0.846663	0.761167
C38	C	0.139123	-0.946884	0.761164
C39	C	0.139114	-0.946877	0.674618
C40	C	0.281309	-0.896755	0.631348
C41	C	0.281307	-0.896750	0.537504
C42	C	0.281295	-0.896751	0.462707
H43	H	0.638533	-0.654048	0.000071
H44	H	0.023323	-0.987681	0.639387
F45	F	-0.012273	-1.000183	0.192995
H46	H	0.632209	-0.510775	0.000086
F47	F	-0.012223	-1.000227	0.807221
F48	F	0.574888	-0.793328	0.807221
F49	F	-0.012270	-1.000187	0.371643
H50	H	0.539308	-0.805841	0.639391
F51	F	0.574816	-0.793276	0.192990
F52	F	0.669007	-0.264637	0.000097
F53	F	0.661820	-0.101605	0.000108
F54	F	-0.123956	-0.131377	0.000128
F55	F	0.574825	-0.793291	0.371643
H56	H	-0.069619	-0.282724	0.000126
F57	F	-0.106403	-0.528863	0.000110
H58	H	-0.052069	-0.680217	0.000094
