data_functionalizedCrystal
_audit_creation_method	'MofGen! by Chris Wilmer'
_symmetry_space_group_name_H-M	'P1'
_symmetry_Int_Tables_number	1
_symmetry_cell_setting	triclinic
loop_
_symmetry_equiv_pos_as_xyz
  x,y,z
_cell_length_a	6.817900
_cell_length_b	16.306198
_cell_length_c	16.305550
_cell_angle_alpha	95.373122
_cell_angle_beta	103.455250
_cell_angle_gamma	103.467075
loop_
_atom_site_label
_atom_site_type_symbol
_atom_site_fract_x
_atom_site_fract_y
_atom_site_fract_z
V1	V	-4.026246	-0.117432	-0.263332
O2	O	-4.013841	0.004910	-0.258012
O3	O	-3.977698	-0.232142	-0.261826
O4	O	-3.977652	-0.115947	-0.378045
O5	O	-4.013887	-0.112090	-0.140988
V6	V	-4.509919	-0.102760	-0.248662
O7	O	-4.287177	-0.149615	-0.295509
O8	O	-4.699185	-0.070577	-0.216485
O9	O	-4.335260	0.011951	-0.250168
O10	O	-4.639720	-0.225102	-0.253982
O11	O	-4.639675	-0.108102	-0.371006
O12	O	-4.335306	-0.104245	-0.133949
C13	C	-3.822669	-0.260096	-0.257748
C14	C	-3.864260	-0.353876	-0.257281
C15	C	-4.015214	-0.694623	-0.255576
C16	C	-4.219298	-0.664089	-0.260538
C17	C	-4.176361	-0.566600	-0.261349
C18	C	-3.940325	-0.525574	-0.256421
C19	C	-3.888744	-0.571230	-0.334676
C20	C	-3.933440	-0.668848	-0.334288
C21	C	-3.845294	-0.643281	-0.172946
C22	C	-3.805619	-0.545629	-0.172460
C23	C	-3.897991	-0.430035	-0.256902
C24	C	-4.057544	-0.790162	-0.255101
C25	C	-3.822610	-0.111876	-0.405996
C26	C	-3.864161	-0.111421	-0.499776
C27	C	-4.015248	-0.109658	-0.840517
C28	C	-3.779200	-0.104423	-0.799575
C29	C	-3.736007	-0.105246	-0.702082
C30	C	-3.940291	-0.110532	-0.671472
C31	C	-4.107324	-0.193848	-0.722311
C32	C	-4.149188	-0.193376	-0.819859
C33	C	-4.070003	-0.032243	-0.794476
C34	C	-4.022074	-0.031583	-0.696632
C35	C	-3.897941	-0.111029	-0.575935
C36	C	-4.057607	-0.109167	-0.936055
C37	C	-4.153632	0.039900	-0.254244
C38	C	-4.091278	0.133679	-0.254716
C39	C	-4.153691	-0.108318	-0.105994
C40	C	-4.091377	-0.108769	-0.012212
H41	H	-3.894788	-0.659834	-0.113088
H42	H	-4.221391	-0.535490	-0.205421
N43	N	-4.033901	-0.271501	-0.700250
H44	H	-4.142433	-0.324789	-0.733286
H45	H	-4.012431	-0.272817	-0.637027
N46	N	-3.647958	-0.179758	-0.680699
H47	H	-3.752032	-0.234766	-0.712264
H48	H	-3.619447	-0.180534	-0.617196
N49	N	-4.217177	-0.030206	-0.668355
H50	H	-4.266020	0.021165	-0.685379
H51	H	-4.185592	-0.026923	-0.604287
H52	H	-3.843968	-0.514879	-0.114526
N53	N	-4.091270	-0.714151	-0.416692
H54	H	-4.219911	-0.749427	-0.403647
H55	H	-4.028241	-0.752684	-0.448670
H56	H	-4.282463	-0.554520	-0.321608
H57	H	-3.718146	-0.544677	-0.334048
H58	H	-3.631654	-0.516663	-0.163961
N59	N	-3.643725	-0.668657	-0.167089
H60	H	-3.668810	-0.731786	-0.164516
H61	H	-3.535241	-0.635413	-0.113888
H62	H	-3.978601	0.030885	-0.807682
H63	H	-3.609509	-0.045342	-0.666906
H64	H	-4.346076	-0.699797	-0.320147
N65	N	-3.735972	-0.695842	-0.334046
H66	H	-3.620304	-0.644335	-0.334195
H67	H	-3.761667	-0.739083	-0.386534
H68	H	-4.286051	-0.680462	-0.204400
N69	N	-3.638585	-0.024705	-0.815749
H70	H	-3.726521	0.008792	-0.849775
H71	H	-3.541717	-0.041112	-0.848842
N72	N	-3.719454	-0.178097	-0.841494
H73	H	-3.844626	-0.214848	-0.886890
H74	H	-3.670834	-0.213381	-0.797102
N75	N	-4.101322	-0.271004	-0.860310
H76	H	-4.053277	-0.305206	-0.814731
H77	H	-3.987371	-0.252255	-0.889844
N78	N	-4.016336	-0.553899	-0.416986
H79	H	-4.107628	-0.516512	-0.403768
H80	H	-4.107110	-0.609705	-0.452620
H81	H	-3.901027	0.030042	-0.662096
H82	H	-4.242068	-0.035337	-0.821300
H83	H	-4.323024	-0.200683	-0.847870
N84	N	-4.310208	-0.202971	-0.697292
H85	H	-4.295759	-0.153064	-0.652653
H86	H	-4.344538	-0.257887	-0.673316
