data_functionalizedCrystal
_audit_creation_method	'MofGen! by Chris Wilmer'
_symmetry_space_group_name_H-M	'P1'
_symmetry_Int_Tables_number	1
_symmetry_cell_setting	triclinic
loop_
_symmetry_equiv_pos_as_xyz
  x,y,z
_cell_length_a	15.944493
_cell_length_b	19.188930
_cell_length_c	15.021413
_cell_angle_alpha	89.998889
_cell_angle_beta	89.993251
_cell_angle_gamma	83.309913
loop_
_atom_site_label
_atom_site_type_symbol
_atom_site_fract_x
_atom_site_fract_y
_atom_site_fract_z
O1	O	1.114223	0.089846	-0.074030
O2	O	1.364223	0.339846	0.175970
O3	O	1.614223	0.589846	0.425970
O4	O	1.864223	0.839846	0.675970
O5	O	0.869625	0.100990	-0.074036
O6	O	1.119625	0.350990	0.175964
O7	O	1.369625	0.600990	0.425964
O8	O	1.619625	0.850990	0.675964
O9	O	0.998983	-0.006221	-0.074016
O10	O	1.248983	0.243779	0.175984
O11	O	1.498983	0.493779	0.425984
O12	O	1.748983	0.743779	0.675984
O13	O	0.984865	0.197057	-0.074051
O14	O	1.234865	0.447057	0.175949
O15	O	1.484865	0.697057	0.425949
O16	O	1.734865	0.947057	0.675949
O17	O	0.998962	-0.006205	0.074048
O18	O	1.248962	0.243795	0.324048
O19	O	1.498962	0.493795	0.574048
O20	O	1.748962	0.743795	0.824048
O21	O	0.869604	0.101005	0.074028
O22	O	1.119604	0.351005	0.324028
O23	O	1.369604	0.601005	0.574028
O24	O	1.619604	0.851005	0.824028
O25	O	1.114202	0.089861	0.074034
O26	O	1.364202	0.339861	0.324034
O27	O	1.614202	0.589861	0.574034
O28	O	1.864202	0.839861	0.824034
Zn29	Zn	0.991900	0.095436	0.097539
Zn30	Zn	1.241900	0.345436	0.347539
Zn31	Zn	1.491900	0.595436	0.597539
Zn32	Zn	1.741900	0.845436	0.847539
Zn33	Zn	0.991927	0.095416	-0.097542
Zn34	Zn	1.241927	0.345416	0.152458
Zn35	Zn	1.491927	0.595416	0.402458
Zn36	Zn	1.741927	0.845416	0.652458
O37	O	0.984845	0.197072	0.074013
O38	O	1.234845	0.447072	0.324013
O39	O	1.484845	0.697072	0.574013
O40	O	1.734845	0.947072	0.824013
C41	C	0.838322	0.100542	-0.000004
C42	C	1.088322	0.350542	0.249996
C43	C	1.338322	0.600542	0.499996
C44	C	1.588322	0.850542	0.749996
C45	C	0.745078	0.099177	-0.000006
C46	C	0.995078	0.349177	0.249994
C47	C	1.245078	0.599177	0.499994
C48	C	1.495078	0.849177	0.749994
C49	C	0.998515	-0.032225	0.000019
C50	C	1.248515	0.217775	0.250019
C51	C	1.498515	0.467775	0.500019
C52	C	1.748515	0.717775	0.750019
C53	C	0.997143	-0.109733	0.000027
C54	C	1.247143	0.140267	0.250027
C55	C	1.497143	0.390267	0.500027
C56	C	1.747143	0.640267	0.750027
C57	C	0.509082	0.162283	-0.000017
C58	C	0.759082	0.412283	0.249983
C59	C	1.009082	0.662283	0.499983
C60	C	1.259082	0.912283	0.749983
C61	C	0.458641	0.128260	0.072996
C62	C	0.708641	0.378260	0.322996
C63	C	0.958641	0.628260	0.572996
C64	C	1.208641	0.878260	0.822996
C65	C	0.574367	0.096646	-0.000004
C66	C	0.824367	0.346646	0.249996
C67	C	1.074367	0.596646	0.499996
C68	C	1.324367	0.846646	0.749996
C69	C	0.458666	0.128229	-0.072984
C70	C	0.708666	0.378229	0.177016
C71	C	0.958666	0.628229	0.427016
C72	C	1.208666	0.878229	0.677016
C73	C	0.409466	0.094207	-0.000005
C74	C	0.659466	0.344207	0.249995
C75	C	0.909466	0.594207	0.499995
C76	C	1.159466	0.844207	0.749995
C77	C	0.525154	0.062641	0.073070
C78	C	0.775154	0.312641	0.323070
C79	C	1.025154	0.562641	0.573070
C80	C	1.275154	0.812641	0.823070
C81	C	0.525182	0.062620	-0.072976
C82	C	0.775182	0.312620	0.177024
C83	C	1.025182	0.562620	0.427024
C84	C	1.275182	0.812620	0.677024
C85	C	0.474774	0.028548	0.000055
C86	C	0.724774	0.278548	0.250055
C87	C	0.974774	0.528548	0.500055
C88	C	1.224774	0.778548	0.750055
C89	C	0.669361	0.098053	-0.000002
C90	C	0.919361	0.348053	0.249998
C91	C	1.169361	0.598053	0.499998
C92	C	1.419361	0.848053	0.749998
C93	C	0.314474	0.092795	-0.000001
C94	C	0.564474	0.342795	0.249999
C95	C	0.814474	0.592795	0.499999
C96	C	1.064474	0.842795	0.749999
C97	C	1.073046	-0.154474	0.000033
C98	C	1.323046	0.095526	0.250033
C99	C	1.573046	0.345526	0.500033
C100	C	1.823046	0.595526	0.750033
C101	C	1.071756	-0.227301	0.000018
C102	C	1.321756	0.022699	0.250018
C103	C	1.571756	0.272699	0.500018
C104	C	1.821756	0.522699	0.750018
C105	C	0.994560	-0.255384	0.000016
C106	C	1.244560	-0.005384	0.250016
C107	C	1.494560	0.244616	0.500016
C108	C	1.744560	0.494616	0.750016
C109	C	0.918647	-0.210633	0.000005
C110	C	1.168647	0.039367	0.250005
C111	C	1.418647	0.289367	0.500005
C112	C	1.668647	0.539367	0.750005
C113	C	0.919939	-0.137808	0.000010
C114	C	1.169939	0.112192	0.250010
C115	C	1.419939	0.362192	0.500010
C116	C	1.669939	0.612192	0.750010
N117	N	0.935545	-0.363526	0.050404
N118	N	1.185545	-0.113526	0.300404
N119	N	1.435545	0.136474	0.550404
N120	N	1.685545	0.386474	0.800404
N121	N	0.934324	-0.432707	0.050400
N122	N	1.184324	-0.182707	0.300400
N123	N	1.434324	0.067293	0.550400
N124	N	1.684324	0.317293	0.800400
C125	C	0.990664	-0.474802	-0.000002
C126	C	1.240664	-0.224802	0.249998
C127	C	1.490664	0.025198	0.499998
C128	C	1.740664	0.275198	0.749998
N129	N	1.048285	-0.445102	-0.050390
N130	N	1.298285	-0.195102	0.199610
N131	N	1.548285	0.054898	0.449610
N132	N	1.798285	0.304898	0.699610
N133	N	1.049509	-0.375915	-0.050383
N134	N	1.299509	-0.125915	0.199617
N135	N	1.549509	0.124085	0.449617
N136	N	1.799509	0.374085	0.699617
C137	C	0.993151	-0.334349	0.000009
C138	C	1.243151	-0.084349	0.250009
C139	C	1.493151	0.165651	0.500009
C140	C	1.743151	0.415651	0.750009
C141	C	1.065174	-0.598510	-0.000013
C142	C	1.315174	-0.348510	0.249987
C143	C	1.565174	-0.098510	0.499987
C144	C	1.815174	0.151490	0.749987
C145	C	1.063882	-0.671338	-0.000033
C146	C	1.313882	-0.421338	0.249967
C147	C	1.563882	-0.171338	0.499967
C148	C	1.813882	0.078662	0.749967
C149	C	0.910770	-0.654669	-0.000037
C150	C	1.160770	-0.404669	0.249963
C151	C	1.410770	-0.154669	0.499963
C152	C	1.660770	0.095331	0.749963
C153	C	0.912065	-0.581842	-0.000026
C154	C	1.162065	-0.331842	0.249974
C155	C	1.412065	-0.081842	0.499974
C156	C	1.662065	0.168158	0.749974
C157	C	0.989269	-0.553768	-0.000010
C158	C	1.239269	-0.303768	0.249990
C159	C	1.489269	-0.053768	0.499990
C160	C	1.739269	0.196232	0.749990
C161	C	1.145506	0.090309	0.000000
C162	C	1.395506	0.340309	0.250000
C163	C	1.645506	0.590309	0.500000
C164	C	1.895506	0.840309	0.750000
C165	C	1.238749	0.091675	-0.000004
C166	C	1.488749	0.341675	0.249996
C167	C	1.738749	0.591675	0.499996
C168	C	1.988749	0.841675	0.749996
C169	C	0.985312	0.223076	-0.000023
C170	C	1.235312	0.473076	0.249977
C171	C	1.485312	0.723076	0.499977
C172	C	1.735312	0.973076	0.749977
C173	C	0.986685	0.300584	-0.000037
C174	C	1.236685	0.550584	0.249963
C175	C	1.486685	0.800584	0.499963
C176	C	1.736685	1.050584	0.749963
N177	N	0.991888	0.095449	0.230677
N178	N	1.241888	0.345449	0.480677
N179	N	1.491888	0.595449	0.730677
N180	N	1.741888	0.845449	0.980677
N181	N	0.991946	0.095397	-0.230679
N182	N	1.241946	0.345397	0.019321
N183	N	1.491946	0.595397	0.269321
N184	N	1.741946	0.845397	0.519321
C185	C	0.932064	0.145000	0.470351
C186	C	1.182064	0.395000	0.720351
C187	C	1.432064	0.645000	0.970351
C188	C	1.682064	0.895000	1.220351
C189	C	1.007916	0.158542	0.529684
C190	C	1.257916	0.408542	0.779684
C191	C	1.507916	0.658542	1.029684
C192	C	1.757916	0.908542	1.279684
C193	C	0.991909	0.095432	0.412284
C194	C	1.241909	0.345432	0.662284
C195	C	1.491909	0.595432	0.912284
C196	C	1.741909	0.845432	1.162284
C197	C	0.916078	0.081906	0.529692
C198	C	1.166078	0.331906	0.779692
C199	C	1.416078	0.581906	1.029692
C200	C	1.666078	0.831906	1.279692
C201	C	0.991923	0.095416	0.587708
C202	C	1.241923	0.345416	0.837708
C203	C	1.491923	0.595416	1.087708
C204	C	1.741923	0.845416	1.337708
C205	C	1.067799	0.109005	0.470311
C206	C	1.317799	0.359005	0.720311
C207	C	1.567799	0.609005	0.970311
C208	C	1.817799	0.859005	1.220311
C209	C	0.975912	0.032341	0.470314
C210	C	1.225912	0.282341	0.720314
C211	C	1.475912	0.532341	0.970314
C212	C	1.725912	0.782341	1.220314
C213	C	1.051819	0.045856	0.529620
C214	C	1.301819	0.295856	0.779620
C215	C	1.551819	0.545856	1.029620
C216	C	1.801819	0.795856	1.279620
C217	C	0.991900	0.095442	0.311226
C218	C	1.241900	0.345442	0.561226
C219	C	1.491900	0.595442	0.811226
C220	C	1.741900	0.845442	1.061226
C221	C	0.991941	0.095405	0.688763
C222	C	1.241941	0.345405	0.938763
C223	C	1.491941	0.595405	1.188763
C224	C	1.741941	0.845405	1.438763
H225	H	0.524494	0.218823	0.000041
H226	H	0.774494	0.468823	0.250041
H227	H	1.024494	0.718823	0.500041
H228	H	1.274494	0.968823	0.750041
H229	H	1.021459	0.211889	0.555762
H230	H	1.271459	0.461889	0.805762
H231	H	1.521459	0.711889	1.055762
H232	H	1.771459	0.961889	1.305762
Br233	Br	1.174722	0.128164	0.427026
Br234	Br	1.424722	0.378164	0.677026
Br235	Br	1.674722	0.628164	0.927026
Br236	Br	1.924722	0.878164	1.177026
H237	H	1.102489	0.003928	0.555480
H238	H	1.352489	0.253928	0.805480
H239	H	1.602489	0.503928	1.055480
H240	H	1.852489	0.753928	1.305480
Br241	Br	0.816919	-0.077083	-0.000000
Br242	Br	1.066919	0.172917	0.250000
Br243	Br	1.316919	0.422917	0.500000
Br244	Br	1.566919	0.672917	0.750000
H245	H	0.962345	-0.020989	0.444215
H246	H	1.212345	0.229011	0.694215
H247	H	1.462345	0.479011	0.944215
H248	H	1.712345	0.729011	1.194215
Br249	Br	0.573354	0.016478	0.176056
Br250	Br	0.823354	0.266478	0.426056
Br251	Br	1.073354	0.516478	0.676056
Br252	Br	1.323354	0.766478	0.926056
H253	H	0.855793	-0.233502	0.000001
H254	H	1.105793	0.016498	0.250001
H255	H	1.355793	0.266498	0.500001
H256	H	1.605793	0.516498	0.750001
H257	H	1.128039	-0.575651	-0.000004
H258	H	1.378039	-0.325651	0.249996
H259	H	1.628039	-0.075651	0.499996
H260	H	1.878039	0.174349	0.749996
H261	H	0.847916	-0.677533	-0.000044
H262	H	1.097916	-0.427533	0.249956
H263	H	1.347916	-0.177533	0.499956
H264	H	1.597916	0.072467	0.749956
H265	H	0.851943	0.070472	0.555778
H266	H	1.101943	0.320472	0.805778
H267	H	1.351943	0.570472	1.055778
H268	H	1.601943	0.820472	1.305778
Br269	Br	1.174774	-0.288032	0.000023
Br270	Br	1.424774	-0.038032	0.250023
Br271	Br	1.674774	0.211968	0.500023
Br272	Br	1.924774	0.461968	0.750023
H273	H	0.850257	-0.545413	-0.000026
H274	H	1.100257	-0.295413	0.249974
H275	H	1.350257	-0.045413	0.499974
H276	H	1.600257	0.204587	0.749974
H277	H	1.125694	-0.707766	-0.000033
H278	H	1.375694	-0.457766	0.249967
H279	H	1.625694	-0.207766	0.499967
H280	H	1.875694	0.042234	0.749967
H281	H	0.429591	0.155986	0.134712
H282	H	0.679591	0.405986	0.384712
H283	H	0.929591	0.655986	0.634712
H284	H	1.179591	0.905986	0.884712
H285	H	0.459520	-0.028034	0.000107
H286	H	0.709520	0.221966	0.250107
H287	H	0.959520	0.471966	0.500107
H288	H	1.209520	0.721966	0.750107
Br289	Br	0.573630	0.016449	-0.175846
Br290	Br	0.823630	0.266449	0.074154
Br291	Br	1.073630	0.516449	0.324154
Br292	Br	1.323630	0.766449	0.574154
H293	H	0.429632	0.155956	-0.134702
H294	H	0.679632	0.405956	0.115298
H295	H	0.929632	0.655956	0.365298
H296	H	1.179632	0.905956	0.615298
H297	H	0.881505	0.186952	0.444327
H298	H	1.131505	0.436952	0.694327
H299	H	1.381505	0.686952	0.944327
H300	H	1.631505	0.936952	1.194327
Br301	Br	1.177822	-0.116376	0.000030
Br302	Br	1.427822	0.133624	0.250030
Br303	Br	1.677822	0.383624	0.500030
Br304	Br	1.927822	0.633624	0.750030
