data_functionalizedCrystal
_audit_creation_method	'MofGen! by Chris Wilmer'
_symmetry_space_group_name_H-M	'P1'
_symmetry_Int_Tables_number	1
_symmetry_cell_setting	triclinic
loop_
_symmetry_equiv_pos_as_xyz
  x,y,z
_cell_length_a	15.298068
_cell_length_b	15.296118
_cell_length_c	15.297908
_cell_angle_alpha	88.414556
_cell_angle_beta	110.812122
_cell_angle_gamma	107.345988
loop_
_atom_site_label
_atom_site_type_symbol
_atom_site_fract_x
_atom_site_fract_y
_atom_site_fract_z
Zn1	Zn	1.464580	-0.231358	0.723920
Zn2	Zn	1.964580	0.268642	1.223920
Zn3	Zn	1.410650	-0.360005	0.541428
Zn4	Zn	1.910650	0.139995	1.041428
Zn5	Zn	1.282132	-0.231347	0.541450
Zn6	Zn	1.782132	0.268653	1.041450
Zn7	Zn	1.272781	-0.404422	0.660637
Zn8	Zn	1.772781	0.095578	1.160637
O9	O	1.357536	-0.306783	0.616859
O10	O	1.857536	0.193217	1.116859
O11	O	1.591479	-0.229839	0.726186
O12	O	2.091479	0.270161	1.226186
O13	O	1.374945	-0.324345	0.415177
O14	O	1.874945	0.175655	0.915177
O15	O	1.332818	-0.105076	0.592149
O16	O	1.832818	0.394924	1.092149
O17	O	1.551857	-0.324356	0.592110
O18	O	2.051857	0.175644	1.092110
O19	O	1.466861	-0.105085	0.726208
O20	O	1.966861	0.394915	1.226208
O21	O	1.280524	-0.229820	0.415194
O22	O	1.780524	0.270180	0.915194
O23	O	1.146839	-0.272889	0.530786
O24	O	1.646839	0.227111	1.030786
O25	O	1.316880	-0.400058	0.795285
O26	O	1.816880	0.099942	1.295285
O27	O	1.139968	-0.400047	0.618352
O28	O	1.639968	0.099953	1.118352
O29	O	1.457793	-0.272909	0.841779
O30	O	1.957793	0.227091	1.341779
O31	O	1.365877	-0.492169	0.530748
O32	O	1.865877	0.007831	1.030748
O33	O	1.264586	-0.524802	0.618330
O34	O	1.764586	-0.024802	1.118330
C35	C	1.108645	-0.341287	0.567705
C36	C	1.608645	0.158713	1.067705
C37	C	1.002167	-0.356074	0.546694
C38	C	1.502167	0.143926	1.046694
C39	C	0.784521	-0.201330	0.766983
C40	C	1.284521	0.298670	1.266983
C41	C	0.884562	-0.187441	0.786729
C42	C	1.384562	0.312559	1.286729
C43	C	0.913969	-0.229598	0.726722
C44	C	1.413969	0.270402	1.226722
C45	C	0.843323	-0.285646	0.646966
C46	C	1.343323	0.214354	1.146966
C47	C	0.743271	-0.299543	0.627222
C48	C	1.243271	0.200457	1.127222
C49	C	0.872719	-0.327810	0.586961
C50	C	1.372719	0.172190	1.086961
C51	C	0.802073	-0.383859	0.507205
C52	C	1.302073	0.116141	1.007205
C53	C	0.702032	-0.397752	0.487464
C54	C	1.202032	0.102248	0.987464
C55	C	0.672625	-0.355595	0.547471
C56	C	1.172625	0.144405	1.047471
C57	C	0.972771	-0.313914	0.606704
C58	C	1.472771	0.186086	1.106704
C59	C	0.931521	-0.412126	0.466943
C60	C	1.431521	0.087874	0.966943
C61	C	0.831479	-0.426015	0.447198
C62	C	1.331479	0.073985	0.947198
C63	C	1.308394	-0.541225	0.567694
C64	C	1.808394	-0.041225	1.067694
C65	C	1.287462	-0.641513	0.546709
C66	C	1.787462	-0.141513	1.046709
C67	C	1.207863	-0.688692	0.467003
C68	C	1.707863	-0.188692	0.967003
C69	C	1.188202	-0.782917	0.447291
C70	C	1.688202	-0.282917	0.947291
C71	C	1.248133	-0.829975	0.507288
C72	C	1.748133	-0.329975	1.007288
C73	C	1.327730	-0.782797	0.586999
C74	C	1.827730	-0.282797	1.086999
C75	C	1.347398	-0.688561	0.606709
C76	C	1.847398	-0.188561	1.106709
C77	C	1.387667	-0.829844	0.646993
C78	C	1.887667	-0.329844	1.146993
C79	C	1.467264	-0.782667	0.726705
C80	C	1.967264	-0.282667	1.226705
C81	C	1.486927	-0.688440	0.746411
C82	C	1.986927	-0.188440	1.246411
C83	C	1.426996	-0.641382	0.686415
C84	C	1.926996	-0.141382	1.186415
C85	C	1.367999	-0.924080	0.627284
C86	C	1.867999	-0.424080	1.127284
C87	C	1.507533	-0.923950	0.766989
C88	C	2.007533	-0.423950	1.266989
C89	C	1.527195	-0.829724	0.786701
C90	C	2.027195	-0.329724	1.286701
C91	C	1.607398	-0.272144	0.666204
C92	C	2.107398	0.227856	1.166204
C93	C	1.713875	-0.257383	0.687233
C94	C	2.213875	0.242617	1.187233
C95	C	1.392309	-0.341439	0.852183
C96	C	1.892309	0.158561	1.352183
C97	C	1.407128	-0.356208	0.952465
C98	C	1.907128	0.143792	1.452465
C99	C	1.406899	-0.071424	0.666240
C100	C	1.906899	0.428576	1.166240
C101	C	1.427934	0.028872	0.687283
C102	C	1.927934	0.528872	1.187283
C103	C	1.322966	-0.272188	0.382474
C104	C	1.822966	0.227812	0.882474
C105	C	1.308387	-0.257140	0.282283
C106	C	1.808387	0.242860	0.782283
C107	C	1.252266	-0.200984	1.235185
C108	C	1.752266	0.299016	1.735185
C109	C	1.238347	-0.187099	1.140968
C110	C	1.738347	0.312901	1.640968
C111	C	1.280541	-0.229375	1.093837
C112	C	1.780541	0.270625	1.593837
C113	C	1.336656	-0.285538	1.140933
C114	C	1.836656	0.214462	1.640933
C115	C	1.350583	-0.299418	1.235162
C116	C	1.850583	0.200582	1.735162
C117	C	1.378858	-0.327810	1.093814
C118	C	1.878858	0.172190	1.593814
C119	C	1.434974	-0.383973	1.140910
C120	C	1.934974	0.116027	1.640910
C121	C	1.448897	-0.397851	1.235129
C122	C	1.948897	0.102149	1.735129
C123	C	1.406704	-0.355575	1.282260
C124	C	1.906704	0.144425	1.782260
C125	C	1.364931	-0.313929	0.999586
C126	C	1.864931	0.186071	1.499586
C127	C	1.463248	-0.412364	0.999563
C128	C	1.963248	0.087636	1.499563
C129	C	1.477167	-0.426249	1.093780
C130	C	1.977167	0.073751	1.593780
H131	H	0.773946	-0.471652	0.382260
H132	H	1.273946	0.028348	0.882260
H133	H	1.497608	-0.446787	0.961190
H134	H	1.997608	0.053213	1.461190
H135	H	1.494599	-0.443575	1.273475
H136	H	1.994599	0.056425	1.773475
H137	H	1.232120	-0.906697	0.491234
H138	H	1.732120	-0.406697	0.991234
Br139	Br	0.971419	-0.469350	0.385505
Br140	Br	1.471419	0.030650	0.885505
Br141	Br	0.980431	-0.111386	0.894969
Br142	Br	1.480431	0.388614	1.394969
Br143	Br	1.261649	-0.210531	0.965969
Br144	Br	1.761649	0.289469	1.465969
Br145	Br	1.049742	-0.210747	0.753520
Br146	Br	1.549742	0.289253	1.253520
H147	H	0.644512	-0.443398	0.422527
H148	H	1.144512	0.056602	0.922527
Br149	Br	1.588880	-0.987803	0.848413
Br150	Br	2.088880	-0.487803	1.348413
H151	H	1.319242	-0.268200	0.961250
H152	H	1.819242	0.231800	1.461250
Br153	Br	1.553319	-0.502470	1.157705
Br154	Br	2.053319	-0.002470	1.657705
Br155	Br	0.744606	-0.144141	0.848423
Br156	Br	1.244606	0.355859	1.348423
H157	H	0.591165	-0.366908	0.531404
H158	H	1.091165	0.133092	1.031404
Br159	Br	1.126547	-0.624822	0.385582
Br160	Br	1.626547	-0.124822	0.885582
H161	H	1.442996	-0.564658	0.702464
H162	H	1.942996	-0.064658	1.202464
H163	H	1.592004	-0.791300	0.851603
H164	H	2.092004	-0.291300	1.351603
H165	H	1.030282	-0.268277	0.671642
H166	H	1.530282	0.231723	1.171642
H167	H	1.303190	-0.962483	0.562382
H168	H	1.803190	-0.462483	1.062382
Br169	Br	1.162197	-0.110878	1.077059
Br170	Br	1.662197	0.389122	1.577059
H171	H	1.123396	-0.821322	0.382389
H172	H	1.623396	-0.321322	0.882389
Br173	Br	1.425571	-0.374436	1.410125
Br174	Br	1.925571	0.125564	1.910125
H175	H	1.217924	-0.166563	1.273569
H176	H	1.717924	0.333437	1.773569
H177	H	1.551746	-0.650026	0.811311
H178	H	2.051746	-0.150026	1.311311
