data_functionalizedCrystal
_audit_creation_method	'MofGen! by Chris Wilmer'
_symmetry_space_group_name_H-M	'P1'
_symmetry_Int_Tables_number	1
_symmetry_cell_setting	triclinic
loop_
_symmetry_equiv_pos_as_xyz
  x,y,z
_cell_length_a	12.645331
_cell_length_b	14.908520
_cell_length_c	14.908308
_cell_angle_alpha	96.360765
_cell_angle_beta	86.722124
_cell_angle_gamma	86.680290
loop_
_atom_site_label
_atom_site_type_symbol
_atom_site_fract_x
_atom_site_fract_y
_atom_site_fract_z
Zn1	Zn	1.558096	0.389900	0.532580
Zn2	Zn	1.557976	0.532545	0.389950
Zn3	Zn	1.391677	0.381200	0.381236
Zn4	Zn	1.369928	0.541215	0.541257
O5	O	1.469419	0.461215	0.461256
O6	O	1.706425	0.408835	0.513674
O7	O	1.544967	0.505200	0.262134
O8	O	1.422905	0.255689	0.394034
O9	O	1.706337	0.513636	0.408885
O10	O	1.545172	0.262081	0.505225
O11	O	1.422788	0.394007	0.255731
O12	O	1.240447	0.402413	0.402448
O13	O	1.385838	0.528412	0.666767
O14	O	1.224468	0.519976	0.520015
O15	O	1.524084	0.417242	0.660391
O16	O	1.523879	0.660360	0.417300
O17	O	1.385721	0.666730	0.528465
C18	C	1.193993	0.461192	0.461228
C19	C	1.076161	0.461205	0.461239
C20	C	1.452454	0.696389	0.474789
C21	C	1.445291	0.796999	0.480609
C22	C	1.452548	0.474765	0.697339
C23	C	1.445359	0.480539	0.797943
C24	C	0.918609	0.386947	0.387645
C25	C	1.041178	0.387111	0.387349
C26	C	1.026664	0.555055	0.440677
C27	C	0.904128	0.554643	0.440181
C28	C	0.903865	0.442537	0.555716
C29	C	1.026662	0.440376	0.555061
C30	C	1.745921	0.461239	0.461284
C31	C	1.863750	0.461249	0.461296
C32	C	1.486478	0.225124	0.447689
C33	C	1.493748	0.124517	0.441908
C34	C	1.575827	0.979367	0.375882
C35	C	1.569101	1.073899	0.381348
C36	C	1.425118	1.080596	0.497009
C37	C	1.431844	0.986064	0.491544
C38	C	1.507200	0.935453	0.430977
C39	C	1.513921	0.840919	0.425508
C40	C	1.369944	0.847618	0.541173
C41	C	1.363217	0.942150	0.546639
C42	C	1.486290	0.447653	0.226087
C43	C	1.493703	0.441624	0.125469
C44	C	1.575803	0.375606	0.980352
C45	C	1.569051	0.381028	1.074879
C46	C	1.425100	0.496800	1.081525
C47	C	1.431851	0.491378	0.986998
C48	C	1.507207	0.430780	0.936415
C49	C	1.513962	0.425363	0.841887
C50	C	1.370007	0.541130	0.848535
C51	C	1.363255	0.546552	0.943062
H52	H	1.075184	0.317346	0.399607
H53	H	1.048446	0.611656	0.492878
O54	O	1.587170	0.791661	0.366798
C55	C	1.738814	0.684184	0.348571
C56	C	1.655904	0.739897	0.415157
H57	H	1.794421	0.642333	0.387646
H58	H	1.696788	0.637201	0.298654
H59	H	1.786660	0.731830	0.310116
H60	H	1.608033	0.692319	0.453675
H61	H	1.697994	0.786890	0.465015
H62	H	1.314153	0.586059	0.812752
H63	H	1.637179	0.938158	0.326561
O64	O	1.649032	0.316671	0.931345
C65	C	1.791154	0.202462	0.934728
C66	C	1.708254	0.269151	0.990334
H67	H	1.839072	0.164037	0.982398
H68	H	1.749119	0.152531	0.887769
H69	H	1.846694	0.241501	0.892842
H70	H	1.652689	0.230187	1.032273
H71	H	1.750358	0.319081	1.037236
O72	O	1.289883	0.991214	0.605419
C73	C	1.104313	1.022807	0.650844
C74	C	1.187257	0.967172	0.584230
H75	H	1.021321	1.003403	0.633725
H76	H	1.118873	1.008350	0.722781
H77	H	1.111346	1.097912	0.645306
H78	H	1.180272	0.892050	0.589687
H79	H	1.172672	0.981705	0.512321
O80	O	1.635745	1.116704	0.327949
C81	C	1.689228	1.259368	0.285137
C82	C	1.613680	1.211007	0.345659
H83	H	1.671401	1.335618	0.299420
H84	H	1.774879	1.241676	0.300070
H85	H	1.677285	1.236597	0.211059
H86	H	1.625528	1.233750	0.419757
H87	H	1.528057	1.228698	0.330649
O88	O	1.351983	0.555625	1.130807
C89	C	1.277713	0.615205	1.279378
C90	C	1.360591	0.548569	1.223678
H91	H	1.284630	0.609509	1.354473
H92	H	1.292362	0.687159	1.265076
H93	H	1.194732	0.598233	1.259808
H94	H	1.443606	0.565458	1.243215
H95	H	1.345850	0.476634	1.237985
O96	O	1.303387	0.804818	0.594661
C97	C	1.249885	0.662154	0.637457
C98	C	1.325342	0.710510	0.576851
H99	H	1.267594	0.585897	0.623066
H100	H	1.261894	0.684821	0.711546
H101	H	1.164243	0.679951	0.622581
H102	H	1.411013	0.692735	0.591648
H103	H	1.313241	0.687839	0.502781
O104	O	1.587187	0.366422	0.792883
C105	C	1.729289	0.252197	0.796273
C106	C	1.646397	0.318897	0.851876
H107	H	1.777198	0.213769	0.843946
H108	H	1.687248	0.202270	0.749315
H109	H	1.784840	0.291227	0.754388
H110	H	1.590823	0.279942	0.893814
H111	H	1.688508	0.368823	0.898777
O112	O	1.080894	0.401185	0.303719
C113	C	1.195269	0.343013	0.172870
C114	C	1.150352	0.326946	0.267564
H115	H	1.251452	0.283012	0.143619
H116	H	1.127300	0.350735	0.126693
H117	H	1.240366	0.407230	0.178225
H118	H	1.105269	0.262726	0.262296
H119	H	1.218367	0.319279	0.313705
H120	H	1.624907	0.336097	1.110648
H121	H	1.363773	1.121820	0.546325
O122	O	0.888295	0.303379	0.401927
C123	C	0.904243	0.143742	0.351087
C124	C	0.938691	0.238330	0.334820
H125	H	0.944955	0.091127	0.296831
H126	H	0.927708	0.127755	0.420574
H127	H	0.814490	0.142334	0.347866
H128	H	1.028440	0.239808	0.337994
H129	H	0.915148	0.254279	0.265343
H130	H	1.060795	0.571966	0.372587
H131	H	0.867485	0.496723	0.610525
O132	O	1.290202	0.605512	0.992249
C133	C	1.259498	0.733803	1.106041
C134	C	1.342342	0.667100	1.050383
H135	H	1.301619	0.783602	1.153069
H136	H	1.211641	0.772377	1.058444
H137	H	1.203887	0.694761	1.147859
H138	H	1.398022	0.706072	1.008560
H139	H	1.390120	0.628526	1.098029
O140	O	0.886347	0.401074	0.304593
C141	C	0.738930	0.412670	0.210096
C142	C	0.775297	0.396628	0.304192
H143	H	0.649147	0.409062	0.209735
H144	H	0.761547	0.482243	0.193725
H145	H	0.779198	0.358511	0.157141
H146	H	0.735048	0.450731	0.357208
H147	H	0.752699	0.327026	0.320486
O148	O	0.874371	0.574313	0.357967
C149	C	0.931250	0.610356	0.209875
C150	C	0.965090	0.588073	0.302938
H151	H	1.004575	0.621506	0.165364
H152	H	0.888069	0.551773	0.176412
H153	H	0.876033	0.674356	0.218979
H154	H	1.020341	0.524099	0.293913
H155	H	1.008213	0.646708	0.336369
H156	H	0.876173	0.375587	0.575476
O157	O	0.859788	0.622510	0.501720
C158	C	0.698182	0.699816	0.571560
C159	C	0.748250	0.622907	0.501861
H160	H	0.607997	0.700175	0.571683
H161	H	0.724290	0.688900	0.641695
H162	H	0.725205	0.767357	0.552855
H163	H	0.721251	0.555332	0.520482
H164	H	0.722145	0.633902	0.431745
O165	O	1.065531	0.357951	0.573641
C166	C	1.025358	0.207949	0.604645
C167	C	0.981195	0.301250	0.583597
H168	H	0.957192	0.162086	0.612720
H169	H	1.083421	0.176511	0.546841
H170	H	1.068160	0.216203	0.670027
H171	H	0.938341	0.293075	0.518243
H172	H	0.923185	0.332655	0.641454
H173	H	1.049988	0.490987	0.612427
