data_functionalizedCrystal
_audit_creation_method	'MofGen! by Chris Wilmer'
_symmetry_space_group_name_H-M	'P1'
_symmetry_Int_Tables_number	1
_symmetry_cell_setting	triclinic
loop_
_symmetry_equiv_pos_as_xyz
  x,y,z
_cell_length_a	15.297475
_cell_length_b	19.121063
_cell_length_c	19.120904
_cell_angle_alpha	85.258387
_cell_angle_beta	96.854753
_cell_angle_gamma	83.156694
loop_
_atom_site_label
_atom_site_type_symbol
_atom_site_fract_x
_atom_site_fract_y
_atom_site_fract_z
Zn1	Zn	1.320044	-0.483150	0.595230
Zn2	Zn	1.653378	-0.149817	0.928563
Zn3	Zn	1.986711	0.183516	1.261896
Zn4	Zn	1.319934	-0.595782	0.482565
Zn5	Zn	1.653268	-0.262449	0.815898
Zn6	Zn	1.986601	0.070885	1.149232
Zn7	Zn	1.178098	-0.458146	0.457640
Zn8	Zn	1.511432	-0.124813	0.790973
Zn9	Zn	1.844765	0.208521	1.124307
Zn10	Zn	1.164808	-0.578899	0.578391
Zn11	Zn	1.498141	-0.245566	0.911724
Zn12	Zn	1.831474	0.087767	1.245058
O13	O	1.245721	-0.528994	0.528457
O14	O	1.579054	-0.195661	0.861790
O15	O	1.912388	0.137672	1.195123
O16	O	1.444356	-0.515621	0.597763
O17	O	1.777689	-0.182288	0.931096
O18	O	2.111022	0.151046	1.264430
O19	O	1.306636	-0.574125	0.381573
O20	O	1.639969	-0.240792	0.714907
O21	O	1.973302	0.092541	1.048240
O22	O	1.202536	-0.363791	0.472507
O23	O	1.535870	-0.030457	0.805841
O24	O	1.869203	0.302876	1.139174
O25	O	1.444275	-0.598371	0.514989
O26	O	1.777608	-0.265037	0.848322
O27	O	2.110942	0.068296	1.181655
O28	O	1.306823	-0.382161	0.573594
O29	O	1.640157	-0.048828	0.906927
O30	O	1.973490	0.284506	1.240261
O31	O	1.202430	-0.473005	0.363261
O32	O	1.535763	-0.139671	0.696594
O33	O	1.869096	0.193662	1.029928
O34	O	1.052009	-0.456634	0.456180
O35	O	1.385343	-0.123301	0.789513
O36	O	1.718676	0.210032	1.122846
O37	O	1.179884	-0.569597	0.678310
O38	O	1.513217	-0.236264	1.011643
O39	O	1.846550	0.097070	1.344977
O40	O	1.042245	-0.545351	0.544895
O41	O	1.375578	-0.212018	0.878228
O42	O	1.708911	0.121315	1.211562
O43	O	1.293936	-0.499251	0.690681
O44	O	1.627269	-0.165917	1.024015
O45	O	1.960602	0.167416	1.357348
O46	O	1.293748	-0.691215	0.498661
O47	O	1.627081	-0.357881	0.831994
O48	O	1.960415	-0.024548	1.165327
O49	O	1.179777	-0.678811	0.569064
O50	O	1.513110	-0.345478	0.902397
O51	O	1.846444	-0.012144	1.235730
C52	C	1.014891	-0.496448	0.496006
C53	C	1.348224	-0.163115	0.829339
C54	C	1.681557	0.170219	1.162672
C55	C	0.916138	-0.482542	0.482140
C56	C	1.249472	-0.149209	0.815474
C57	C	1.582805	0.184125	1.148807
C58	C	0.617535	-0.628388	0.627557
C59	C	0.950868	-0.295055	0.960890
C60	C	1.284202	0.038279	1.294224
C61	C	0.710317	-0.641459	0.640582
C62	C	1.043651	-0.308125	0.973916
C63	C	1.376984	0.025208	1.307249
C64	C	0.761777	-0.601730	0.600973
C65	C	1.095110	-0.268397	0.934307
C66	C	1.428444	0.064936	1.267640
C67	C	0.720446	-0.548930	0.548336
C68	C	1.053779	-0.215596	0.881669
C69	C	1.387112	0.117737	1.215003
C70	C	0.627654	-0.535862	0.535305
C71	C	0.960987	-0.202528	0.868639
C72	C	1.294321	0.130805	1.201972
C73	C	0.771896	-0.509204	0.508722
C74	C	1.105230	-0.175871	0.842055
C75	C	1.438563	0.157463	1.175388
C76	C	0.730565	-0.456403	0.456084
C77	C	1.063898	-0.123070	0.789418
C78	C	1.397231	0.210263	1.122751
C79	C	0.637782	-0.443337	0.443057
C80	C	0.971115	-0.110004	0.776390
C81	C	1.304449	0.223329	1.109723
C82	C	0.586322	-0.483066	0.482666
C83	C	0.919656	-0.149732	0.815999
C84	C	1.252989	0.183601	1.149332
C85	C	0.864688	-0.522272	0.521752
C86	C	1.198021	-0.188939	0.855086
C87	C	1.531354	0.144394	1.188419
C88	C	0.874807	-0.429746	0.429501
C89	C	1.208140	-0.096413	0.762834
C90	C	1.541473	0.236921	1.096167
C91	C	0.782024	-0.416675	0.416475
C92	C	1.115358	-0.083342	0.749809
C93	C	1.448691	0.249991	1.083142
C94	C	1.235332	-0.710342	0.534758
C95	C	1.568665	-0.377009	0.868092
C96	C	1.901998	-0.043675	1.201425
C97	C	1.230967	-0.787936	0.537489
C98	C	1.564300	-0.454602	0.870822
C99	C	1.897634	-0.121269	1.204156
C100	C	1.288297	-0.830831	0.502160
C101	C	1.621630	-0.497498	0.835494
C102	C	1.954964	-0.164165	1.168827
C103	C	1.284197	-0.903739	0.504733
C104	C	1.617531	-0.570406	0.838067
C105	C	1.950864	-0.237073	1.171400
C106	C	1.222762	-0.933749	0.542632
C107	C	1.556096	-0.600416	0.875965
C108	C	1.889429	-0.267083	1.209298
C109	C	1.165430	-0.890848	0.577965
C110	C	1.498763	-0.557515	0.911298
C111	C	1.832096	-0.224182	1.244632
C112	C	1.169534	-0.817943	0.575396
C113	C	1.502868	-0.484609	0.908729
C114	C	1.836201	-0.151276	1.242062
C115	C	1.207401	-1.153556	0.552225
C116	C	1.540735	-0.820223	0.885558
C117	C	1.874068	-0.486889	1.218891
C118	C	1.203299	-1.226467	0.554790
C119	C	1.536632	-0.893134	0.888123
C120	C	1.869966	-0.559800	1.221456
C121	C	1.322068	-1.239353	0.481559
C122	C	1.655402	-0.906020	0.814892
C123	C	1.988735	-0.572687	1.148225
C124	C	1.326164	-1.166445	0.478989
C125	C	1.659497	-0.833111	0.812323
C126	C	1.992831	-0.499778	1.145656
C127	C	1.268835	-1.123551	0.514326
C128	C	1.602168	-0.790217	0.847659
C129	C	1.935501	-0.456884	1.180992
C130	C	1.218568	-1.008272	0.545261
C131	C	1.551901	-0.674939	0.878594
C132	C	1.885235	-0.341606	1.211927
C133	C	1.273034	-1.049030	0.511700
C134	C	1.606367	-0.715697	0.845034
C135	C	1.939700	-0.382363	1.178367
C136	C	1.477453	-0.561668	0.561034
C137	C	1.810786	-0.228335	0.894368
C138	C	2.144120	0.104998	1.227701
C139	C	1.576203	-0.575592	0.574917
C140	C	1.909537	-0.242259	0.908251
C141	C	2.242870	0.091075	1.241584
C142	C	1.235439	-0.535330	0.710533
C143	C	1.568773	-0.201996	1.043866
C144	C	1.902106	0.131337	1.377199
C145	C	1.231058	-0.538029	0.788123
C146	C	1.564391	-0.204696	1.121456
C147	C	1.897725	0.128637	1.454789
C148	C	1.256175	-0.346942	0.522149
C149	C	1.589508	-0.013609	0.855482
C150	C	1.922841	0.319724	1.188815
C151	C	1.260629	-0.269363	0.519461
C152	C	1.593962	0.063971	0.852794
C153	C	1.927296	0.397304	1.186127
C154	C	1.256017	-0.522641	0.347094
C155	C	1.589350	-0.189307	0.680427
C156	C	1.922684	0.144026	1.013761
C157	C	1.260582	-0.519768	0.269522
C158	C	1.593915	-0.186435	0.602855
C159	C	1.927248	0.146898	0.936188
C160	C	1.288377	-0.502674	0.831017
C161	C	1.621710	-0.169341	1.164350
C162	C	1.955044	0.163993	1.497683
C163	C	1.284250	-0.505206	0.903919
C164	C	1.617583	-0.171873	1.237252
C165	C	1.950916	0.161460	1.570586
C166	C	1.222806	-0.543099	0.933927
C167	C	1.556140	-0.209766	1.267260
C168	C	1.889473	0.123568	1.600594
C169	C	1.165481	-0.578456	0.891027
C170	C	1.498815	-0.245122	1.224361
C171	C	1.832148	0.088211	1.557694
C172	C	1.169605	-0.575919	0.818125
C173	C	1.502938	-0.242585	1.151459
C174	C	1.836272	0.090748	1.484792
C175	C	1.207380	-0.552588	1.153720
C176	C	1.540714	-0.219254	1.487054
C177	C	1.874047	0.114079	1.820387
C178	C	1.203263	-0.555124	1.226628
C179	C	1.536596	-0.221791	1.559961
C180	C	1.869929	0.111543	1.893295
C181	C	1.322030	-0.481873	1.239515
C182	C	1.655364	-0.148540	1.572848
C183	C	1.988697	0.184793	1.906181
C184	C	1.326152	-0.479343	1.166611
C185	C	1.659486	-0.146010	1.499945
C186	C	1.992819	0.187323	1.833278
C187	C	1.268824	-0.514697	1.123718
C188	C	1.602157	-0.181363	1.457051
C189	C	1.935491	0.151970	1.790384
C190	C	1.218588	-0.545690	1.008445
C191	C	1.551921	-0.212357	1.341778
C192	C	1.885255	0.120976	1.675112
C193	C	1.273039	-0.512101	1.049200
C194	C	1.606372	-0.178767	1.382533
C195	C	1.939706	0.154566	1.715867
H196	H	0.575628	-0.660733	0.659797
H197	H	0.908962	-0.327400	0.993130
H198	H	1.242295	0.005934	1.326463
Br199	Br	0.920769	-0.593929	0.593185
Br200	Br	1.254103	-0.260595	0.926519
Br201	Br	1.587436	0.072738	1.259852
H202	H	1.338413	-0.471820	0.806591
H203	H	1.671747	-0.138487	1.139924
H204	H	2.005080	0.194847	1.473257
Br205	Br	0.460397	-0.465323	0.464996
Br206	Br	0.793731	-0.131989	0.798329
Br207	Br	1.127064	0.201344	1.131663
Br208	Br	1.135195	-1.049007	0.596694
Br209	Br	1.468529	-0.715673	0.930027
Br210	Br	1.801862	-0.382340	1.263361
H211	H	0.604133	-0.400351	0.400189
H212	H	0.937466	-0.067017	0.733522
H213	H	1.270799	0.266316	1.066855
Br214	Br	1.409545	-0.427918	1.125892
Br215	Br	1.742879	-0.094585	1.459225
Br216	Br	2.076212	0.238748	1.792559
H217	H	1.168565	-0.576547	1.032886
H218	H	1.501898	-0.243213	1.366220
H219	H	1.835231	0.090120	1.699553
H220	H	1.122851	-0.783017	0.604165
H221	H	1.456185	-0.449684	0.937498
H222	H	1.789518	-0.116350	1.270832
H223	H	1.115412	-0.915289	0.608826
H224	H	1.448745	-0.581956	0.942159
H225	H	1.782078	-0.248622	1.275493
H226	H	1.368744	-1.274285	0.452791
H227	H	1.702077	-0.940952	0.786125
H228	H	2.035410	-0.607619	1.119458
Br229	Br	0.725921	-0.345018	0.345043
Br230	Br	1.059254	-0.011685	0.678376
Br231	Br	1.392588	0.321649	1.011709
Br232	Br	1.119903	-1.267192	0.606212
Br233	Br	1.453236	-0.933859	0.939546
Br234	Br	1.786570	-0.600525	1.272879
Br235	Br	0.944637	-0.375831	0.375737
Br236	Br	1.277971	-0.042498	0.709070
Br237	Br	1.611304	0.290836	1.042403
H238	H	1.323057	-1.024594	0.480847
H239	H	1.656391	-0.691261	0.814180
H240	H	1.989724	-0.357927	1.147513
H241	H	1.338320	-0.806402	0.471296
H242	H	1.671654	-0.473069	0.804629
H243	H	2.004987	-0.139735	1.137962
Br244	Br	0.766405	-0.713116	0.712013
Br245	Br	1.099738	-0.379782	1.045346
Br246	Br	1.433071	-0.046449	1.378679
Br247	Br	1.362011	-0.961954	0.456790
Br248	Br	1.695345	-0.628621	0.790123
Br249	Br	2.028678	-0.295287	1.123456
H250	H	1.330927	-0.476418	0.938841
H251	H	1.664260	-0.143085	1.272174
H252	H	1.997594	0.190249	1.605508
Br253	Br	1.399827	-0.433895	1.297730
Br254	Br	1.733160	-0.100562	1.631064
Br255	Br	2.066494	0.232772	1.964397
Br256	Br	1.409554	-1.125724	0.427565
Br257	Br	1.742887	-0.792391	0.760898
Br258	Br	2.076221	-0.459057	1.094231
Br259	Br	1.119867	-0.606550	1.267352
Br260	Br	1.453200	-0.273217	1.600685
Br261	Br	1.786534	0.060116	1.934019
H262	H	1.160720	-1.118637	0.580995
H263	H	1.494053	-0.785304	0.914329
H264	H	1.827386	-0.451970	1.247662
Br265	Br	1.129575	-0.600566	1.095516
Br266	Br	1.462909	-0.267233	1.428849
Br267	Br	1.796242	0.066100	1.762183
H268	H	1.115450	-0.609306	0.915465
H269	H	1.448783	-0.275972	1.248798
H270	H	1.782116	0.057361	1.582131
Br271	Br	1.091806	-0.623898	0.759910
Br272	Br	1.425140	-0.290565	1.093243
Br273	Br	1.758473	0.042769	1.426577
H274	H	0.837325	-0.612375	0.611582
H275	H	1.170658	-0.279042	0.944915
H276	H	1.503991	0.054291	1.278249
Br277	Br	1.356412	-0.460666	1.008472
Br278	Br	1.689745	-0.127332	1.341805
Br279	Br	2.023079	0.206001	1.675139
