data_functionalizedCrystal
_audit_creation_method	'MofGen! by Chris Wilmer'
_symmetry_space_group_name_H-M	'P1'
_symmetry_Int_Tables_number	1
_symmetry_cell_setting	triclinic
loop_
_symmetry_equiv_pos_as_xyz
  x,y,z
_cell_length_a	15.944551
_cell_length_b	15.944551
_cell_length_c	14.421503
_cell_angle_alpha	89.996660
_cell_angle_beta	89.996859
_cell_angle_gamma	96.501262
loop_
_atom_site_label
_atom_site_type_symbol
_atom_site_fract_x
_atom_site_fract_y
_atom_site_fract_z
O1	O	1.114529	-0.108320	-0.077017
O2	O	0.869980	-0.121677	-0.077040
O3	O	0.998933	0.007276	-0.077020
O4	O	0.985576	-0.237273	-0.077038
O5	O	0.998911	0.007257	0.077204
O6	O	0.869958	-0.121696	0.077183
O7	O	1.114508	-0.108340	0.077206
Cu8	Cu	0.992231	-0.115020	0.091277
Cu9	Cu	0.992256	-0.114997	-0.091110
O10	O	0.985555	-0.237293	0.077186
C11	C	0.838675	-0.121132	0.000069
C12	C	0.745429	-0.119470	0.000060
C13	C	0.530572	-0.035565	0.000084
C14	C	0.469563	-0.074518	-0.075959
C15	C	0.574703	-0.116462	0.000071
C16	C	0.469564	-0.074556	0.076093
C17	C	0.409790	-0.113551	0.000086
C18	C	0.514922	-0.155437	-0.076035
C19	C	0.514929	-0.155464	0.076086
C20	C	0.453937	-0.194476	0.000024
C21	C	0.669705	-0.118137	0.000062
C22	C	0.314789	-0.111883	0.000089
C23	C	0.998367	0.038561	0.000092
C24	C	0.996705	0.131807	0.000093
C25	C	1.145813	-0.108885	0.000096
C26	C	1.239059	-0.110547	0.000098
C27	C	0.986120	-0.268577	0.000072
C28	C	0.987782	-0.361823	0.000066
N29	N	0.992219	-0.115035	0.219558
C30	C	0.912801	0.346663	0.000072
C31	C	0.951753	0.407671	0.076117
C32	C	0.993698	0.302533	0.000085
C33	C	0.951793	0.407674	-0.075935
C34	C	0.990787	0.467445	0.000074
C35	C	1.032672	0.362312	0.076193
C36	C	1.032701	0.362308	-0.075927
C37	C	1.071711	0.423298	0.000136
C38	C	0.995372	0.207530	0.000092
C39	C	0.989119	0.562446	0.000073
N40	N	0.992275	-0.114975	-0.219392
C41	C	0.932581	-0.174636	0.469202
C42	C	1.008481	-0.190943	0.531011
C43	C	0.992240	-0.115015	0.408719
C44	C	0.916359	-0.098727	0.531005
C45	C	0.992253	-0.114997	0.591441
C46	C	1.068178	-0.131360	0.469167
C47	C	0.976007	-0.039111	0.469156
C48	C	1.051961	-0.055386	0.530936
C49	C	0.992231	-0.115027	0.303458
C50	C	0.992270	-0.114985	0.696700
H51	H	0.534918	-0.189620	-0.140394
O52	O	0.445524	-0.033833	-0.152722
C53	C	0.362402	-0.043234	-0.292649
C54	C	0.389562	-0.089421	-0.205767
H55	H	0.317138	-0.088152	-0.335551
H56	H	0.420428	-0.020769	-0.335981
H57	H	0.329486	0.013440	-0.270696
H58	H	0.422460	-0.146127	-0.227637
H59	H	0.331505	-0.111824	-0.162457
O60	O	1.024735	-0.267569	0.563388
C61	C	0.980269	-0.417053	0.568622
C62	C	0.961759	-0.330324	0.531916
H63	H	0.929374	-0.467816	0.543176
H64	H	0.980687	-0.416169	0.647667
H65	H	1.044494	-0.431384	0.542144
H66	H	0.897532	-0.315938	0.558326
H67	H	0.961396	-0.331252	0.452873
H68	H	0.962240	0.025051	0.441965
O69	O	0.839838	-0.082338	0.563564
C70	C	0.754394	-0.063131	0.698064
C71	C	0.841089	-0.081709	0.661322
H72	H	0.755381	-0.062599	0.777105
H73	H	0.703575	-0.114042	0.672770
H74	H	0.740060	0.001067	0.671506
H75	H	0.855503	-0.145883	0.687864
H76	H	0.891859	-0.030747	0.686608
O77	O	0.910966	0.431788	-0.152564
C78	C	0.864412	0.547371	-0.238880
C79	C	0.910658	0.520181	-0.152056
H80	H	0.864162	0.618840	-0.238508
H81	H	0.796650	0.515625	-0.238786
H82	H	0.898241	0.527773	-0.303665
H83	H	0.876899	0.539774	-0.087225
H84	H	0.978421	0.551920	-0.152232
H85	H	0.563905	0.031573	-0.000005
O86	O	0.872469	-0.234765	0.436697
C87	C	0.804678	-0.301713	0.302249
C88	C	0.872764	-0.233572	0.338937
H89	H	0.804906	-0.300782	0.223205
H90	H	0.740083	-0.288479	0.328674
H91	H	0.818681	-0.366370	0.327716
H92	H	0.858841	-0.168887	0.313485
H93	H	0.937337	-0.246878	0.312518
O94	O	1.151933	0.462745	0.000069
C95	C	1.285636	0.483389	-0.079377
C96	C	1.194811	0.438660	-0.079410
H97	H	1.320324	0.463948	-0.143638
H98	H	1.320000	0.464734	-0.014548
H99	H	1.283803	0.554656	-0.079946
H100	H	1.196567	0.367386	-0.078874
H101	H	1.160484	0.457384	-0.144233
O102	O	0.414276	-0.274611	-0.000151
C103	C	0.318077	-0.377788	-0.079771
C104	C	0.362924	-0.287010	-0.079670
H105	H	0.276562	-0.387848	-0.144065
H106	H	0.277280	-0.388315	-0.014975
H107	H	0.367241	-0.424429	-0.080374
H108	H	0.313818	-0.240312	-0.079100
H109	H	0.403737	-0.276554	-0.144461
O110	O	1.144679	-0.147962	0.436751
C111	C	1.230493	-0.166609	0.302400
C112	C	1.143827	-0.147780	0.338987
H113	H	1.229838	-0.166451	0.223354
H114	H	1.244415	-0.231129	0.328385
H115	H	1.281412	-0.116123	0.328386
H116	H	1.092852	-0.198212	0.313016
H117	H	1.129977	-0.083235	0.313009
H118	H	1.102474	-0.004956	0.557872
O119	O	0.538923	-0.196136	0.152871
C120	C	0.543249	-0.199512	0.319838
C121	C	0.516044	-0.153368	0.232947
H122	H	0.524746	-0.164963	0.384601
H123	H	0.614573	-0.200891	0.318790
H124	H	0.510511	-0.266888	0.320444
H125	H	0.548722	-0.085972	0.232284
H126	H	0.444712	-0.152057	0.234029
O127	O	0.445702	-0.033620	0.152761
C128	C	0.457915	0.096438	0.239352
C129	C	0.485019	0.050165	0.152507
H130	H	0.489677	0.164191	0.239166
H131	H	0.477495	0.062667	0.304187
H132	H	0.386450	0.096721	0.238964
H133	H	0.556481	0.049868	0.152805
H134	H	0.465377	0.083951	0.087712
H135	H	0.917527	0.427771	0.140401
O136	O	0.832682	0.306959	0.000313
C137	C	0.699526	0.284939	0.080725
C138	C	0.790241	0.329942	0.080573
H139	H	0.665181	0.303518	0.145598
H140	H	0.701487	0.213689	0.080121
H141	H	0.664733	0.304340	0.016521
H142	H	0.825086	0.310611	0.144766
H143	H	0.788219	0.401183	0.081128
H144	H	1.066897	0.342186	-0.140214
O145	O	1.073390	0.338314	0.152950
C146	C	1.120679	0.222961	0.239037
C147	C	1.074535	0.250024	0.152083
H148	H	1.121636	0.151580	0.238356
H149	H	1.086418	0.241964	0.303789
H150	H	1.188204	0.255323	0.239307
H151	H	1.007009	0.217675	0.151723
H152	H	1.108861	0.231036	0.087371
