data_functionalizedCrystal
_audit_creation_method	'MofGen! by Chris Wilmer'
_symmetry_space_group_name_H-M	'P1'
_symmetry_Int_Tables_number	1
_symmetry_cell_setting	triclinic
loop_
_symmetry_equiv_pos_as_xyz
  x,y,z
_cell_length_a	12.594516
_cell_length_b	10.686154
_cell_length_c	10.685880
_cell_angle_alpha	90.360073
_cell_angle_beta	94.341733
_cell_angle_gamma	85.605258
loop_
_atom_site_label
_atom_site_type_symbol
_atom_site_fract_x
_atom_site_fract_y
_atom_site_fract_z
Zn1	Zn	-0.332339	-1.972254	-0.562452
Zn2	Zn	-0.497850	-1.956034	-0.352706
Zn3	Zn	-0.334499	-1.746383	-0.368767
Zn4	Zn	-0.524896	-1.762450	-0.578473
O5	O	-0.422396	-1.859280	-0.465600
O6	O	-0.342072	-2.145646	-0.521202
O7	O	-0.465766	-1.914711	-0.179295
O8	O	-0.185263	-1.776410	-0.394476
O9	O	-0.463672	-2.133729	-0.367103
O10	O	-0.183677	-1.942356	-0.536776
O11	O	-0.345753	-1.760681	-0.191095
O12	O	-0.371978	-1.572971	-0.410012
O13	O	-0.509768	-1.803794	-0.751890
O14	O	-0.511862	-1.584776	-0.564082
O15	O	-0.368297	-1.957936	-0.740119
O16	O	-0.650387	-1.930290	-0.382638
O17	O	-0.670257	-1.788065	-0.548508
C18	C	-0.445090	-1.533357	-0.490529
C19	C	-0.454826	-1.393928	-0.501223
C20	C	-0.698942	-1.859197	-0.465594
C21	C	-0.817244	-1.859280	-0.465624
C22	C	-0.897341	-1.781911	-0.555783
C23	C	-0.963510	-1.742565	-0.443656
C24	C	-0.961867	-1.898741	-0.577762
C25	C	-0.881856	-1.819869	-0.353442
C26	C	-0.880207	-1.976104	-0.487621
C27	C	-0.946337	-1.936796	-0.375412
C28	C	-0.144770	-1.859400	-0.465631
C29	C	-0.026462	-1.859451	-0.465644
C30	C	-0.441809	-1.884466	-0.792793
C31	C	-0.450081	-1.895199	-0.932224
C32	C	-0.399604	-1.186476	-0.440566
C33	C	-0.389863	-1.325905	-0.429877
C34	C	-0.402977	-1.834265	-0.139673
C35	C	-0.394388	-1.823775	-0.000225
H36	H	-0.517901	-1.345491	-0.570485
O37	O	-0.868349	-1.695077	-0.656649
H38	H	-0.901867	-1.598220	-0.638084
O39	O	-1.011709	-1.611801	-0.418997
H40	H	-0.992404	-1.547680	-0.493946
H41	H	-0.340381	-1.754405	-0.951777
O42	O	-0.835698	-1.775590	-0.227808
H43	H	-0.747623	-1.775816	-0.228804
O44	O	-0.306327	-1.390060	-0.338126
H45	H	-0.320353	-1.357387	-0.241540
O46	O	-0.521631	-1.987097	-0.996389
H47	H	-0.517116	-1.981407	-1.099507
H48	H	-0.996860	-1.932048	-0.672587
O49	O	-0.975048	-2.023560	-0.274334
H50	H	-0.942741	-1.990591	-0.181415
H51	H	-0.843805	-2.074802	-0.506262
