data_functionalizedCrystal
_audit_creation_method	'MofGen! by Chris Wilmer'
_symmetry_space_group_name_H-M	'P1'
_symmetry_Int_Tables_number	1
_symmetry_cell_setting	triclinic
loop_
_symmetry_equiv_pos_as_xyz
  x,y,z
_cell_length_a	10.654550
_cell_length_b	12.503552
_cell_length_c	10.654550
_cell_angle_alpha	93.553931
_cell_angle_beta	95.515069
_cell_angle_gamma	93.554123
loop_
_atom_site_label
_atom_site_type_symbol
_atom_site_fract_x
_atom_site_fract_y
_atom_site_fract_z
O1	O	1.675022	0.089240	-0.169209
O2	O	2.008355	0.422573	0.164125
O3	O	2.341689	0.755907	0.497458
O4	O	1.309545	0.089260	-0.186013
O5	O	1.642879	0.422593	0.147320
O6	O	1.976212	0.755926	0.480653
O7	O	1.500686	0.089243	0.005128
O8	O	1.834019	0.422576	0.338461
O9	O	2.167353	0.755909	0.671794
O10	O	1.483881	0.089257	-0.360350
O11	O	1.817215	0.422590	-0.027016
O12	O	2.150548	0.755924	0.306317
O13	O	1.486295	-0.089398	-0.009260
O14	O	1.819628	0.243935	0.324074
O15	O	2.152961	0.577268	0.657407
O16	O	1.295154	-0.089381	-0.200401
O17	O	1.628487	0.243952	0.132933
O18	O	1.961820	0.577285	0.466266
O19	O	1.660631	-0.089401	-0.183596
O20	O	1.993964	0.243932	0.149737
O21	O	2.327297	0.577266	0.483070
Cu22	Cu	1.476578	-0.105703	-0.193312
Cu23	Cu	1.809911	0.227631	0.140021
Cu24	Cu	2.143245	0.560964	0.473355
Cu25	Cu	1.493598	0.105561	-0.176297
Cu26	Cu	1.826931	0.438895	0.157036
Cu27	Cu	2.160264	0.772228	0.490369
O28	O	1.469490	-0.089384	-0.374737
O29	O	1.802823	0.243949	-0.041404
O30	O	2.136156	0.577283	0.291930
C31	C	1.255552	-0.000058	-0.191973
C32	C	1.588885	0.333275	0.141361
C33	C	1.922218	0.666608	0.474694
C34	C	1.116109	-0.000051	-0.188280
C35	C	1.449442	0.333282	0.145053
C36	C	1.782776	0.666616	0.478386
N37	N	1.464617	-0.254294	-0.205279
N38	N	1.797950	0.079039	0.128055
N39	N	2.131283	0.412372	0.461388
C40	C	1.036624	-0.000050	-0.300822
C41	C	1.369957	0.333284	0.032512
C42	C	1.703290	0.666617	0.365845
C43	C	0.905601	-0.000068	-0.297347
C44	C	1.238935	0.333265	0.035987
C45	C	1.572268	0.666598	0.369320
C46	C	0.933563	-0.000086	-0.068779
C47	C	1.266896	0.333248	0.264555
C48	C	1.600230	0.666581	0.597888
C49	C	1.064582	-0.000074	-0.072256
C50	C	1.397916	0.333259	0.261078
C51	C	1.731249	0.666592	0.594411
C52	C	1.523159	-0.526733	-0.146713
C53	C	1.856492	-0.193399	0.186620
C54	C	2.189825	0.139934	0.519953
C55	C	1.447031	-0.473402	-0.222882
C56	C	1.780365	-0.140068	0.110451
C57	C	2.113698	0.193265	0.443784
C58	C	1.456818	-0.351479	-0.213085
C59	C	1.790152	-0.018146	0.120248
C60	C	2.123485	0.315188	0.453582
C61	C	1.513373	-0.648666	-0.156509
C62	C	1.846706	-0.315333	0.176825
C63	C	2.180040	0.018000	0.510158
C64	C	1.714624	-0.000081	-0.177636
C65	C	2.047958	0.333253	0.155697
C66	C	2.381291	0.666586	0.489030
C67	C	1.854068	-0.000081	-0.181328
C68	C	2.187401	0.333252	0.152005
C69	C	2.520734	0.666586	0.485338
C70	C	1.492256	-0.000077	0.044732
C71	C	1.825590	0.333256	0.378065
C72	C	2.158923	0.666589	0.711399
C73	C	1.488565	-0.000075	0.184175
C74	C	1.821898	0.333258	0.517509
C75	C	2.155231	0.666591	0.850842
N76	N	1.505569	0.254153	-0.164321
N77	N	1.838902	0.587486	0.169013
N78	N	2.172236	0.920820	0.502346
C79	C	1.477920	-0.000062	-0.414341
C80	C	1.811253	0.333272	-0.081008
C81	C	2.144586	0.666605	0.252325
C82	C	1.481612	-0.000057	-0.553784
C83	C	1.814945	0.333277	-0.220451
C84	C	2.148279	0.666610	0.112883
C85	C	1.601106	-0.000081	0.263661
C86	C	1.934439	0.333252	0.596994
C87	C	2.267772	0.666586	0.930327
C88	C	1.597630	-0.000068	0.394682
C89	C	1.930964	0.333266	0.728016
C90	C	2.264297	0.666599	1.061349
C91	C	1.369063	-0.000048	0.366721
C92	C	1.702396	0.333286	0.700054
C93	C	2.035729	0.666619	1.033387
C94	C	1.372540	-0.000053	0.235702
C95	C	1.705873	0.333280	0.569035
C96	C	2.039207	0.666613	0.902369
H97	H	1.078571	-0.000039	-0.395297
H98	H	1.411905	0.333295	-0.061964
H99	H	1.745238	0.666628	0.271370
H100	H	1.274599	-0.000032	0.408690
H101	H	1.607932	0.333302	0.742024
H102	H	1.941265	0.666635	1.075357
H103	H	1.595679	-0.480829	-0.074151
H104	H	1.929013	-0.147496	0.259182
H105	H	2.262346	0.185838	0.592516
H106	H	0.891593	-0.000111	0.025684
H107	H	1.224926	0.333222	0.359018
H108	H	1.558260	0.666556	0.692351
H109	H	1.129303	-0.000079	0.019395
H110	H	1.462636	0.333255	0.352728
H111	H	1.795970	0.666588	0.686061
H112	H	1.374507	-0.519311	-0.295451
H113	H	1.707841	-0.185978	0.037882
H114	H	2.041174	0.147356	0.371216
H115	H	1.695581	-0.000097	0.221712
H116	H	2.028914	0.333237	0.555046
H117	H	2.362247	0.666570	0.888379
H118	H	1.689273	-0.000070	0.459395
H119	H	2.022606	0.333263	0.792728
H120	H	2.355940	0.666597	1.126062
H121	H	0.840888	-0.000070	-0.388990
H122	H	1.174222	0.333264	-0.055656
H123	H	1.507555	0.666597	0.277677
H124	H	1.280890	-0.000045	0.170982
H125	H	1.614223	0.333288	0.504315
H126	H	1.947556	0.666621	0.837648
