data_functionalizedCrystal
_audit_creation_method	'MofGen! by Chris Wilmer'
_symmetry_space_group_name_H-M	'P1'
_symmetry_Int_Tables_number	1
_symmetry_cell_setting	triclinic
loop_
_symmetry_equiv_pos_as_xyz
  x,y,z
_cell_length_a	14.519709
_cell_length_b	10.723024
_cell_length_c	9.798715
_cell_angle_alpha	90.001978
_cell_angle_beta	90.001928
_cell_angle_gamma	95.925993
loop_
_atom_site_label
_atom_site_type_symbol
_atom_site_fract_x
_atom_site_fract_y
_atom_site_fract_z
O1	O	1.224702	-0.163572	-0.113310
O2	O	1.724702	0.336428	0.386690
O3	O	0.956324	-0.182835	-0.113351
O4	O	1.456324	0.317165	0.386649
O5	O	1.096703	0.008431	-0.113324
O6	O	1.596703	0.508431	0.386676
O7	O	1.084322	-0.354837	-0.113336
O8	O	1.584322	0.145163	0.386664
O9	O	1.096693	0.008431	0.113658
O10	O	1.596693	0.508431	0.613658
O11	O	0.956313	-0.182834	0.113631
O12	O	1.456313	0.317166	0.613631
O13	O	1.224692	-0.163571	0.113673
O14	O	1.724692	0.336429	0.613673
Zn15	Zn	1.090501	-0.173203	0.149690
Zn16	Zn	1.590501	0.326797	0.649690
Zn17	Zn	1.090515	-0.173203	-0.149369
Zn18	Zn	1.590515	0.326797	0.350631
O19	O	1.084312	-0.354837	0.113646
O20	O	1.584312	0.145163	0.613646
C21	C	0.921954	-0.181937	0.000135
C22	C	1.421954	0.318063	0.500135
C23	C	0.819559	-0.179246	0.000119
C24	C	1.319559	0.320754	0.500119
C25	C	1.095797	0.054922	0.000165
C26	C	1.595797	0.554922	0.500165
C27	C	1.093101	0.193451	0.000160
C28	C	1.593101	0.693451	0.500160
C29	C	1.085218	-0.401328	0.000154
C30	C	1.585218	0.098672	0.500154
C31	C	1.087914	-0.539857	0.000150
C32	C	1.587914	-0.039857	0.500150
C33	C	0.444613	-0.169343	0.000182
C34	C	0.944613	0.330657	0.500182
C35	C	0.548935	-0.172093	0.000164
C36	C	1.048935	0.327907	0.500164
C37	C	0.632082	-0.174294	0.000149
C38	C	1.132082	0.325706	0.500149
C39	C	0.736411	-0.177045	0.000134
C40	C	1.236411	0.322955	0.500134
C41	C	1.259061	-0.164469	0.000184
C42	C	1.759061	0.335531	0.500184
C43	C	1.361456	-0.167159	0.000191
C44	C	1.861456	0.332841	0.500191
C45	C	1.009365	0.384426	0.000140
C46	C	1.509365	0.884426	0.500140
C47	C	1.012149	0.241248	0.000145
C48	C	1.512149	0.741248	0.500145
N49	N	1.090498	-0.173201	0.353790
N50	N	1.590498	0.326799	0.853790
N51	N	1.090525	-0.173194	-0.353468
N52	N	1.590525	0.326806	0.146532
C53	C	1.149440	-0.092543	0.421578
C54	C	1.649440	0.407457	0.921578
C55	C	1.149454	-0.092538	0.578741
C56	C	1.649454	0.407462	1.078741
H57	H	0.940055	0.425600	0.000119
H58	H	1.440055	0.925600	0.500119
C59	C	1.181552	0.404525	0.000170
C60	C	1.681552	0.904525	0.500170
N61	N	1.252083	0.362636	0.000189
N62	N	1.752083	0.862636	0.500189
C63	C	0.921301	0.153356	0.000132
C64	C	1.421301	0.653356	0.500132
N65	N	0.852872	0.087152	0.000119
N66	N	1.352872	0.587152	0.500119
C67	C	1.217584	0.000767	0.342802
C68	C	1.717584	0.500767	0.842802
N69	N	1.268907	0.071057	0.283470
N70	N	1.768907	0.571057	0.783470
C71	C	1.022347	-0.266491	0.567789
C72	C	1.522347	0.233509	1.067789
N73	N	0.970994	-0.336761	0.508470
N74	N	1.470994	0.163239	1.008470
H75	H	1.160349	0.258505	0.000175
H76	H	1.660349	0.758505	0.500175
H77	H	1.199920	-0.023488	0.637035
H78	H	1.699920	0.476512	1.137035
H79	H	1.040043	-0.242249	0.412105
H80	H	1.540043	0.257751	0.912105
