data_functionalizedCrystal
_audit_creation_method	'MofGen! by Chris Wilmer'
_symmetry_space_group_name_H-M	'P1'
_symmetry_Int_Tables_number	1
_symmetry_cell_setting	triclinic
loop_
_symmetry_equiv_pos_as_xyz
  x,y,z
_cell_length_a	14.519731
_cell_length_b	12.996460
_cell_length_c	10.723024
_cell_angle_alpha	89.999097
_cell_angle_beta	84.078361
_cell_angle_gamma	90.006310
loop_
_atom_site_label
_atom_site_type_symbol
_atom_site_fract_x
_atom_site_fract_y
_atom_site_fract_z
O1	O	1.224694	0.085566	0.163692
O2	O	1.474694	0.335566	0.413692
O3	O	1.724694	0.585566	0.663692
O4	O	1.974694	0.835566	0.913692
O5	O	0.956318	0.085568	0.182928
O6	O	1.206318	0.335568	0.432928
O7	O	1.456318	0.585568	0.682928
O8	O	1.706318	0.835568	0.932928
O9	O	1.096697	0.085563	-0.008323
O10	O	1.346697	0.335563	0.241677
O11	O	1.596697	0.585563	0.491677
O12	O	1.846697	0.835563	0.741677
O13	O	1.084316	0.085571	0.354944
O14	O	1.334316	0.335571	0.604944
O15	O	1.584316	0.585571	0.854944
O16	O	1.834316	0.835571	1.104944
O17	O	1.096679	-0.085571	-0.008312
O18	O	1.346679	0.164429	0.241688
O19	O	1.596679	0.414429	0.491688
O20	O	1.846679	0.664429	0.741688
O21	O	0.956300	-0.085566	0.182939
O22	O	1.206300	0.164434	0.432939
O23	O	1.456300	0.414434	0.682939
O24	O	1.706300	0.664434	0.932939
O25	O	1.224676	-0.085567	0.163704
O26	O	1.474676	0.164433	0.413704
O27	O	1.724676	0.414433	0.663704
O28	O	1.974676	0.664433	0.913704
Cu29	Cu	1.090487	-0.101193	0.173322
Cu30	Cu	1.340487	0.148807	0.423322
Cu31	Cu	1.590487	0.398807	0.673322
Cu32	Cu	1.840487	0.648807	0.923322
Cu33	Cu	1.090508	0.101193	0.173309
Cu34	Cu	1.340508	0.351193	0.423309
Cu35	Cu	1.590508	0.601193	0.673309
Cu36	Cu	1.840508	0.851193	0.923309
O37	O	1.084298	-0.085563	0.354955
O38	O	1.334298	0.164437	0.604955
O39	O	1.584298	0.414437	0.854955
O40	O	1.834298	0.664437	1.104955
C41	C	0.921945	0.000001	0.182032
C42	C	1.171945	0.250001	0.432032
C43	C	1.421945	0.500001	0.682032
C44	C	1.671945	0.750001	0.932032
C45	C	0.819551	0.000001	0.179331
C46	C	1.069551	0.250001	0.429331
C47	C	1.319551	0.500001	0.679331
C48	C	1.569551	0.750001	0.929331
C49	C	0.736396	0.000006	0.177137
C50	C	0.986396	0.250006	0.427137
C51	C	1.236396	0.500006	0.677137
C52	C	1.486396	0.750006	0.927137
C53	C	0.632073	0.000006	0.174395
C54	C	0.882073	0.250006	0.424395
C55	C	1.132073	0.500006	0.674395
C56	C	1.382073	0.750006	0.924395
C57	C	0.548923	0.000006	0.172218
C58	C	0.798923	0.250006	0.422218
C59	C	1.048923	0.500006	0.672218
C60	C	1.298923	0.750006	0.922218
C61	C	0.444594	0.000008	0.169476
C62	C	0.694594	0.250008	0.419476
C63	C	0.944594	0.500008	0.669476
C64	C	1.194594	0.750008	0.919476
N65	N	1.090478	-0.243540	0.173331
N66	N	1.340478	0.006460	0.423331
N67	N	1.590478	0.256460	0.673331
N68	N	1.840478	0.506460	0.923331
C69	C	1.090483	-0.336646	0.173334
C70	C	1.340483	-0.086646	0.423334
C71	C	1.590483	0.163354	0.673334
C72	C	1.840483	0.413354	0.923334
C73	C	1.090491	-0.453451	0.173325
C74	C	1.340491	-0.203451	0.423325
C75	C	1.590491	0.046549	0.673325
C76	C	1.840491	0.296549	0.923325
C77	C	1.090502	-0.546549	0.173312
C78	C	1.340502	-0.296549	0.423312
C79	C	1.590502	-0.046549	0.673312
C80	C	1.840502	0.203451	0.923312
C81	C	1.090512	-0.663362	0.173305
C82	C	1.340512	-0.413362	0.423305
C83	C	1.590512	-0.163362	0.673305
C84	C	1.840512	0.086638	0.923305
C85	C	1.259049	0.000002	0.164599
C86	C	1.509049	0.250002	0.414599
C87	C	1.759049	0.500002	0.664599
C88	C	2.009049	0.750002	0.914599
C89	C	1.361443	0.000008	0.167300
C90	C	1.611443	0.250008	0.417300
C91	C	1.861443	0.500008	0.667300
C92	C	2.111443	0.750008	0.917300
C93	C	1.095787	-0.000003	-0.054809
C94	C	1.345787	0.249997	0.195191
C95	C	1.595787	0.499997	0.445191
C96	C	1.845787	0.749997	0.695191
C97	C	1.093091	0.000001	-0.193338
C98	C	1.343091	0.250001	0.056662
C99	C	1.593091	0.500001	0.306662
C100	C	1.843091	0.750001	0.556662
N101	N	1.090524	0.243540	0.173291
N102	N	1.340524	0.493540	0.423291
N103	N	1.590524	0.743540	0.673291
N104	N	1.840524	0.993540	0.923291
C105	C	1.171640	0.000002	-0.269047
C106	C	1.421640	0.250002	-0.019047
C107	C	1.671640	0.500002	0.230953
C108	C	1.921640	0.750002	0.480953
C109	C	1.168855	0.000006	-0.412225
C110	C	1.418855	0.250006	-0.162225
C111	C	1.668855	0.500006	0.087775
C112	C	1.918855	0.750006	0.337775
C113	C	1.085208	0.000005	0.401440
C114	C	1.335208	0.250005	0.651440
C115	C	1.585208	0.500005	0.901440
C116	C	1.835208	0.750005	1.151440
C117	C	1.087904	0.000008	0.539970
C118	C	1.337904	0.250008	0.789970
C119	C	1.587904	0.500008	1.039970
C120	C	1.837904	0.750008	1.289970
H121	H	1.240949	-0.000004	-0.227866
H122	H	1.490949	0.249996	0.022134
H123	H	1.740949	0.499996	0.272134
H124	H	1.990949	0.749996	0.522134
H125	H	1.236099	0.000002	-0.477280
H126	H	1.486099	0.250002	-0.227280
H127	H	1.736099	0.500002	0.022720
H128	H	1.986099	0.750002	0.272720
H129	H	1.020656	0.000000	-0.394983
H130	H	1.270656	0.250000	-0.144983
H131	H	1.520656	0.500000	0.105017
H132	H	1.770656	0.750000	0.355017
H133	H	1.023782	0.000008	-0.234520
H134	H	1.273782	0.250008	0.015480
H135	H	1.523782	0.500008	0.265480
H136	H	1.773782	0.750008	0.515480
