data_functionalizedCrystal
_audit_creation_method	'MofGen! by Chris Wilmer'
_symmetry_space_group_name_H-M	'P1'
_symmetry_Int_Tables_number	1
_symmetry_cell_setting	triclinic
loop_
_symmetry_equiv_pos_as_xyz
  x,y,z
_cell_length_a	14.044220
_cell_length_b	17.038272
_cell_length_c	12.503572
_cell_angle_alpha	93.777379
_cell_angle_beta	86.164750
_cell_angle_gamma	92.150217
loop_
_atom_site_label
_atom_site_type_symbol
_atom_site_fract_x
_atom_site_fract_y
_atom_site_fract_z
O1	O	1.278116	0.185401	-0.089207
O2	O	1.778116	0.685401	0.410793
O3	O	1.001597	0.178559	-0.089234
O4	O	1.501597	0.678559	0.410766
O5	O	1.138213	0.068050	-0.089212
O6	O	1.638213	0.568050	0.410788
O7	O	1.141501	0.295910	-0.089229
O8	O	1.641501	0.795910	0.410771
O9	O	1.127940	0.076376	0.089428
O10	O	1.627940	0.576376	0.589428
O11	O	0.991324	0.186885	0.089406
O12	O	1.491324	0.686885	0.589406
O13	O	1.267843	0.193727	0.089433
O14	O	1.767843	0.693727	0.589433
Cu15	Cu	1.128646	0.191066	0.105731
Cu16	Cu	1.628646	0.691066	0.605731
Cu17	Cu	1.140795	0.181220	-0.105532
Cu18	Cu	1.640795	0.681220	0.394468
O19	O	1.131228	0.304236	0.089411
O20	O	1.631228	0.804236	0.589411
C21	C	0.960905	0.179728	0.000083
C22	C	1.460905	0.679728	0.500083
C23	C	0.854959	0.170796	0.000072
C24	C	1.354959	0.670796	0.500072
C25	C	1.130087	0.042876	0.000108
C26	C	1.630087	0.542876	0.500108
C27	C	1.121168	-0.044541	0.000106
C28	C	1.621168	0.455459	0.500106
C29	C	0.660980	0.154469	0.000095
C30	C	1.160980	0.654469	0.500095
C31	C	0.608455	0.217814	0.000095
C32	C	1.108455	0.717814	0.500095
C33	C	0.500518	0.208729	0.000107
C34	C	1.000518	0.708729	0.500107
C35	C	0.768927	0.163552	0.000082
C36	C	1.268927	0.663552	0.500082
C37	C	1.203055	-0.088926	0.000115
C38	C	1.703055	0.411074	0.500115
C39	C	1.194670	-0.171064	0.000104
C40	C	1.694670	0.328936	0.500104
C41	C	1.104395	-0.208815	0.000092
C42	C	1.604395	0.291185	0.500092
C43	C	1.022502	-0.164424	0.000080
C44	C	1.522502	0.335576	0.500080
C45	C	1.030888	-0.082288	0.000083
C46	C	1.530888	0.417712	0.500083
C47	C	1.074766	-0.456646	0.000074
C48	C	1.574766	0.043354	0.500074
C49	C	1.066385	-0.538788	0.000074
C50	C	1.566385	-0.038788	0.500074
C51	C	1.238555	-0.545422	0.000097
C52	C	1.738555	-0.045422	0.500097
C53	C	1.246933	-0.463284	0.000107
C54	C	1.746933	0.036716	0.500107
C55	C	1.165040	-0.418901	0.000089
C56	C	1.665040	0.081099	0.500089
C57	C	1.095822	-0.292772	0.000084
C58	C	1.595822	0.207228	0.500084
C59	C	1.173615	-0.334945	0.000089
C60	C	1.673615	0.165055	0.500089
C61	C	1.308536	0.192558	0.000114
C62	C	1.808536	0.692558	0.500114
C63	C	1.414481	0.201490	0.000117
C64	C	1.914481	0.701490	0.500117
C65	C	1.139354	0.329410	0.000089
C66	C	1.639354	0.829410	0.500089
C67	C	1.148273	0.416827	0.000083
C68	C	1.648273	0.916827	0.500083
N69	N	1.120107	0.197992	0.254322
N70	N	1.620107	0.697992	0.754322
N71	N	1.149340	0.174289	-0.254123
N72	N	1.649340	0.674289	0.245877
C73	C	1.107548	0.208186	0.473435
C74	C	1.607548	0.708186	0.973435
C75	C	1.161896	0.164097	0.526771
C76	C	1.661896	0.664097	1.026771
C77	C	1.154908	0.169769	0.648693
C78	C	1.654908	0.669769	1.148693
C79	C	1.114535	0.202515	0.351502
C80	C	1.614535	0.702515	0.851502
H81	H	0.624887	0.093419	0.000105
H82	H	1.124887	0.593419	0.500105
O83	O	0.986435	-0.408786	0.000081
O84	O	1.486435	0.091214	0.500081
H85	H	0.947725	-0.426356	-0.072725
H86	H	1.447725	0.073644	0.427275
H87	H	0.964206	-0.046150	0.000075
H88	H	1.464206	0.453850	0.500075
H89	H	1.320444	-0.432554	0.000117
H90	H	1.820444	0.067446	0.500117
O91	O	1.270978	-0.294227	0.000102
O92	O	1.770978	0.205773	0.500102
H93	H	1.314836	-0.314965	-0.072708
H94	H	1.814836	0.185035	0.427292
O95	O	1.230489	0.108458	0.465973
O96	O	1.730489	0.608458	0.965973
H97	H	1.212061	0.047314	0.487479
H98	H	1.712061	0.547314	0.987479
O99	O	1.038975	0.263836	0.534226
O100	O	1.538975	0.763836	1.034226
H101	H	1.044190	0.259621	0.621836
H102	H	1.544190	0.759621	1.121836
H103	H	1.022319	-0.323518	0.000076
H104	H	1.522319	0.176482	0.500076
H105	H	0.644550	0.278868	0.000085
H106	H	1.144550	0.778868	0.500085
O107	O	1.300424	-0.048210	0.000119
O108	O	1.800424	0.451790	0.500119
H109	H	1.355957	-0.092877	0.000109
H110	H	1.855957	0.407123	0.500109
H111	H	1.261352	-0.207199	0.000114
H112	H	1.761352	0.292801	0.500114
O113	O	1.326881	-0.593291	0.000110
O114	O	1.826881	-0.093291	0.500110
H115	H	1.305888	-0.656748	0.000098
H116	H	1.805888	-0.156748	0.500098
H117	H	0.992868	-0.569521	0.000081
H118	H	1.492868	-0.069521	0.500081
H119	H	0.948998	-0.195167	0.000063
H120	H	1.448998	0.304833	0.500063
