data_functionalizedCrystal
_audit_creation_method	'MofGen! by Chris Wilmer'
_symmetry_space_group_name_H-M	'P1'
_symmetry_Int_Tables_number	1
_symmetry_cell_setting	triclinic
loop_
_symmetry_equiv_pos_as_xyz
  x,y,z
_cell_length_a	15.944551
_cell_length_b	15.944551
_cell_length_c	14.421503
_cell_angle_alpha	89.995753
_cell_angle_beta	89.996059
_cell_angle_gamma	96.501262
loop_
_atom_site_label
_atom_site_type_symbol
_atom_site_fract_x
_atom_site_fract_y
_atom_site_fract_z
O1	O	1.114530	-0.108319	-0.077017
O2	O	1.364530	0.141681	0.172983
O3	O	1.614530	0.391681	0.422983
O4	O	1.864530	0.641681	0.672983
O5	O	0.869981	-0.121675	-0.077040
O6	O	1.119981	0.128325	0.172960
O7	O	1.369981	0.378325	0.422960
O8	O	1.619981	0.628325	0.672960
O9	O	0.998934	0.007277	-0.077020
O10	O	1.248934	0.257277	0.172980
O11	O	1.498934	0.507277	0.422980
O12	O	1.748934	0.757277	0.672980
O13	O	0.985577	-0.237272	-0.077038
O14	O	1.235577	0.012728	0.172962
O15	O	1.485577	0.262728	0.422962
O16	O	1.735577	0.512728	0.672962
O17	O	0.998910	0.007256	0.077204
O18	O	1.248910	0.257256	0.327204
O19	O	1.498910	0.507256	0.577204
O20	O	1.748910	0.757256	0.827204
O21	O	0.869957	-0.121697	0.077183
O22	O	1.119957	0.128303	0.327183
O23	O	1.369957	0.378303	0.577183
O24	O	1.619957	0.628303	0.827183
O25	O	1.114507	-0.108341	0.077206
O26	O	1.364507	0.141659	0.327206
O27	O	1.614507	0.391659	0.577206
O28	O	1.864507	0.641659	0.827206
Cu29	Cu	0.992230	-0.115021	0.091277
Cu30	Cu	1.242230	0.134979	0.341277
Cu31	Cu	1.492230	0.384979	0.591277
Cu32	Cu	1.742230	0.634979	0.841277
Cu33	Cu	0.992258	-0.114995	-0.091110
Cu34	Cu	1.242258	0.135005	0.158890
Cu35	Cu	1.492258	0.385005	0.408890
Cu36	Cu	1.742258	0.635005	0.658890
O37	O	0.985554	-0.237294	0.077186
O38	O	1.235554	0.012706	0.327186
O39	O	1.485554	0.262706	0.577186
O40	O	1.735554	0.512706	0.827186
C41	C	0.838675	-0.121132	0.000069
C42	C	1.088675	0.128868	0.250069
C43	C	1.338675	0.378868	0.500069
C44	C	1.588675	0.628868	0.750069
C45	C	0.745429	-0.119470	0.000060
C46	C	0.995429	0.130530	0.250060
C47	C	1.245429	0.380530	0.500060
C48	C	1.495429	0.630530	0.750060
C49	C	0.998367	0.038561	0.000092
C50	C	1.248367	0.288561	0.250092
C51	C	1.498367	0.538561	0.500092
C52	C	1.748367	0.788561	0.750092
C53	C	0.996705	0.131807	0.000093
C54	C	1.246705	0.381807	0.250093
C55	C	1.496705	0.631807	0.500093
C56	C	1.746705	0.881807	0.750093
C57	C	0.530572	-0.035565	0.000084
C58	C	0.780572	0.214435	0.250084
C59	C	1.030572	0.464435	0.500084
C60	C	1.280572	0.714435	0.750084
C61	C	0.469564	-0.074517	-0.075959
C62	C	0.719564	0.175483	0.174041
C63	C	0.969564	0.425483	0.424041
C64	C	1.219564	0.675483	0.674041
C65	C	0.574703	-0.116462	0.000071
C66	C	0.824703	0.133538	0.250071
C67	C	1.074703	0.383538	0.500071
C68	C	1.324703	0.633538	0.750071
C69	C	0.469563	-0.074557	0.076093
C70	C	0.719563	0.175443	0.326093
C71	C	0.969563	0.425443	0.576093
C72	C	1.219563	0.675443	0.826093
C73	C	0.409790	-0.113551	0.000086
C74	C	0.659790	0.136449	0.250086
C75	C	0.909790	0.386449	0.500086
C76	C	1.159790	0.636449	0.750086
C77	C	0.514923	-0.155436	-0.076035
C78	C	0.764923	0.094564	0.173965
C79	C	1.014923	0.344564	0.423965
C80	C	1.264923	0.594564	0.673965
C81	C	0.514928	-0.155465	0.076086
C82	C	0.764928	0.094535	0.326086
C83	C	1.014928	0.344535	0.576086
C84	C	1.264928	0.594535	0.826086
C85	C	0.453937	-0.194476	0.000024
C86	C	0.703937	0.055524	0.250024
C87	C	0.953937	0.305524	0.500024
C88	C	1.203937	0.555524	0.750024
C89	C	0.669705	-0.118137	0.000062
C90	C	0.919705	0.131863	0.250062
C91	C	1.169705	0.381863	0.500062
C92	C	1.419705	0.631863	0.750062
C93	C	0.314789	-0.111883	0.000089
C94	C	0.564789	0.138117	0.250089
C95	C	0.814789	0.388117	0.500089
C96	C	1.064789	0.638117	0.750089
C97	C	1.145813	-0.108885	0.000096
C98	C	1.395813	0.141115	0.250096
C99	C	1.645813	0.391115	0.500096
C100	C	1.895813	0.641115	0.750096
C101	C	1.239059	-0.110547	0.000098
C102	C	1.489059	0.139453	0.250098
C103	C	1.739059	0.389453	0.500098
C104	C	1.989059	0.639453	0.750098
C105	C	0.986120	-0.268577	0.000072
C106	C	1.236120	-0.018577	0.250072
C107	C	1.486120	0.231423	0.500072
C108	C	1.736120	0.481423	0.750072
C109	C	0.987782	-0.361823	0.000066
C110	C	1.237782	-0.111823	0.250066
C111	C	1.487782	0.138177	0.500066
C112	C	1.737782	0.388177	0.750066
N113	N	0.992216	-0.115038	0.219558
N114	N	1.242216	0.134962	0.469558
N115	N	1.492216	0.384962	0.719558
N116	N	1.742216	0.634962	0.969558
C117	C	0.912801	0.346663	0.000072
C118	C	1.162801	0.596663	0.250072
C119	C	1.412801	0.846663	0.500072
C120	C	1.662801	1.096663	0.750072
C121	C	0.951752	0.407670	0.076117
C122	C	1.201752	0.657670	0.326117
C123	C	1.451752	0.907670	0.576117
C124	C	1.701752	1.157670	0.826117
C125	C	0.993698	0.302533	0.000085
C126	C	1.243698	0.552533	0.250085
C127	C	1.493698	0.802533	0.500085
C128	C	1.743698	1.052533	0.750085
C129	C	0.951794	0.407675	-0.075935
C130	C	1.201794	0.657675	0.174065
C131	C	1.451794	0.907675	0.424065
C132	C	1.701794	1.157675	0.674065
C133	C	0.990787	0.467445	0.000074
C134	C	1.240787	0.717445	0.250074
C135	C	1.490787	0.967445	0.500074
C136	C	1.740787	1.217445	0.750074
C137	C	1.032671	0.362311	0.076193
C138	C	1.282671	0.612311	0.326193
C139	C	1.532671	0.862311	0.576193
C140	C	1.782671	1.112311	0.826193
C141	C	1.032702	0.362309	-0.075927
C142	C	1.282702	0.612309	0.174073
C143	C	1.532702	0.862309	0.424073
C144	C	1.782702	1.112309	0.674073
C145	C	1.071711	0.423298	0.000136
C146	C	1.321711	0.673298	0.250136
C147	C	1.571711	0.923298	0.500136
C148	C	1.821711	1.173298	0.750136
C149	C	0.995372	0.207530	0.000092
C150	C	1.245372	0.457530	0.250092
C151	C	1.495372	0.707530	0.500092
C152	C	1.745372	0.957530	0.750092
C153	C	0.989119	0.562446	0.000073
C154	C	1.239119	0.812446	0.250073
C155	C	1.489119	1.062446	0.500073
C156	C	1.739119	1.312446	0.750073
C157	C	0.932574	-0.174643	0.469202
C158	C	1.182574	0.075357	0.719202
C159	C	1.432574	0.325357	0.969202
C160	C	1.682574	0.575357	1.219202
C161	C	1.008473	-0.190952	0.531011
C162	C	1.258473	0.059048	0.781011
C163	C	1.508473	0.309048	1.031011
C164	C	1.758473	0.559048	1.281011
C165	C	0.992234	-0.115021	0.408719
C166	C	1.242234	0.134979	0.658719
C167	C	1.492234	0.384979	0.908719
C168	C	1.742234	0.634979	1.158719
C169	C	0.916352	-0.098736	0.531005
C170	C	1.166352	0.151264	0.781005
C171	C	1.416352	0.401264	1.031005
C172	C	1.666352	0.651264	1.281005
C173	C	0.992244	-0.115007	0.591441
C174	C	1.242244	0.134993	0.841441
C175	C	1.492244	0.384993	1.091441
C176	C	1.742244	0.634993	1.341441
C177	C	1.068171	-0.131367	0.469167
C178	C	1.318171	0.118633	0.719167
C179	C	1.568171	0.368633	0.969167
C180	C	1.818171	0.618633	1.219167
C181	C	0.976000	-0.039118	0.469156
C182	C	1.226000	0.210882	0.719156
C183	C	1.476000	0.460882	0.969156
C184	C	1.726000	0.710882	1.219156
C185	C	1.051954	-0.055394	0.530936
C186	C	1.301954	0.194606	0.780936
C187	C	1.551954	0.444606	1.030936
C188	C	1.801954	0.694606	1.280936
C189	C	0.992227	-0.115032	0.303458
C190	C	1.242227	0.134968	0.553458
C191	C	1.492227	0.384968	0.803458
C192	C	1.742227	0.634968	1.053458
C193	C	0.992260	-0.114996	0.696700
C194	C	1.242260	0.135004	0.946700
C195	C	1.492260	0.385004	1.196700
C196	C	1.742260	0.635004	1.446700
N197	N	0.992263	-0.114987	0.780608
N198	N	1.242263	0.135013	1.030608
N199	N	1.492263	0.385013	1.280608
N200	N	1.742263	0.635013	1.530608
H201	H	0.563905	0.031573	-0.000005
H202	H	0.813905	0.281573	0.249995
H203	H	1.063905	0.531573	0.499995
H204	H	1.313905	0.781573	0.749995
O205	O	0.957764	0.045871	0.433134
O206	O	1.207764	0.295871	0.683134
O207	O	1.457764	0.545871	0.933134
O208	O	1.707764	0.795871	1.183134
H209	H	1.006667	0.095449	0.458948
H210	H	1.256667	0.345449	0.708948
H211	H	1.506667	0.595449	0.958948
H212	H	1.756667	0.845449	1.208948
O213	O	0.906471	0.434306	-0.161090
O214	O	1.156471	0.684306	0.088910
O215	O	1.406471	0.934306	0.338910
O216	O	1.656471	1.184306	0.588910
H217	H	0.939460	0.415257	-0.224144
H218	H	1.189460	0.665257	0.025856
H219	H	1.439460	0.915257	0.275856
H220	H	1.689460	1.165257	0.525856
H221	H	0.845652	0.313356	0.000141
H222	H	1.095652	0.563356	0.250141
H223	H	1.345652	0.813356	0.500141
H224	H	1.595652	1.063356	0.750141
H225	H	0.917525	0.427769	0.140401
H226	H	1.167525	0.677769	0.390401
H227	H	1.417525	0.927769	0.640401
H228	H	1.667525	1.177769	0.890401
O229	O	1.026693	-0.275954	0.567026
O230	O	1.276693	-0.025954	0.817026
O231	O	1.526693	0.224046	1.067026
O232	O	1.776693	0.474046	1.317026
H233	H	1.027136	-0.274950	0.643982
H234	H	1.277136	-0.024950	0.893982
H235	H	1.527136	0.225050	1.143982
H236	H	1.777136	0.475050	1.393982
H237	H	0.535050	-0.189662	0.140373
H238	H	0.785050	0.060338	0.390373
H239	H	1.035050	0.310338	0.640373
H240	H	1.285050	0.560338	0.890373
H241	H	0.420779	-0.261683	-0.000023
H242	H	0.670779	-0.011683	0.249977
H243	H	0.920779	0.238317	0.499977
H244	H	1.170779	0.488317	0.749977
O245	O	0.442947	-0.029239	0.161257
O246	O	0.692947	0.220761	0.411257
O247	O	0.942947	0.470761	0.661257
O248	O	1.192947	0.720761	0.911257
H249	H	0.473951	0.036697	0.161096
H250	H	0.723951	0.286697	0.411096
H251	H	0.973951	0.536697	0.661096
H252	H	1.223951	0.786697	0.911096
O253	O	0.831347	-0.080486	0.566987
O254	O	1.081347	0.169514	0.816987
O255	O	1.331347	0.419514	1.066987
O256	O	1.581347	0.669514	1.316987
H257	H	0.781937	-0.130070	0.542252
H258	H	1.031937	0.119930	0.792252
H259	H	1.281937	0.369930	1.042252
H260	H	1.531937	0.619930	1.292252
O261	O	1.118855	0.011403	0.566636
O262	O	1.368855	0.261403	0.816636
O263	O	1.618855	0.511403	1.066636
O264	O	1.868855	0.761403	1.316636
H265	H	1.181747	-0.002316	0.541738
H266	H	1.431747	0.247684	0.791738
H267	H	1.681747	0.497684	1.041738
H268	H	1.931747	0.747684	1.291738
O269	O	1.077940	0.335831	0.161453
O270	O	1.327940	0.585831	0.411453
O271	O	1.577940	0.835831	0.661453
O272	O	1.827940	1.085831	0.911453
H273	H	1.078784	0.266322	0.160807
H274	H	1.328784	0.516322	0.410807
H275	H	1.578784	0.766322	0.660807
H276	H	1.828784	1.016322	0.910807
O277	O	0.865813	-0.241479	0.433294
O278	O	1.115813	0.008521	0.683294
O279	O	1.365813	0.258521	0.933294
O280	O	1.615813	0.508521	1.183294
H281	H	0.819484	-0.211217	0.390960
H282	H	1.069484	0.038783	0.640960
H283	H	1.319484	0.288783	0.890960
H284	H	1.569484	0.538783	1.140960
H285	H	1.066899	0.342188	-0.140214
H286	H	1.316899	0.592188	0.109786
H287	H	1.566899	0.842188	0.359786
H288	H	1.816899	1.092188	0.609786
O289	O	0.442921	-0.029187	-0.161106
O290	O	0.692921	0.220813	0.088894
O291	O	0.942921	0.470813	0.338894
O292	O	1.192921	0.720813	0.588894
H293	H	0.473905	0.036757	-0.160945
H294	H	0.723905	0.286757	0.089055
H295	H	0.973905	0.536757	0.339055
H296	H	1.223905	0.786757	0.589055
O297	O	1.153204	-0.149707	0.433354
O298	O	1.403204	0.100293	0.683354
O299	O	1.653204	0.350293	0.933354
O300	O	1.903204	0.600293	1.183354
H301	H	1.145283	-0.207909	0.390538
H302	H	1.395283	0.042091	0.640538
H303	H	1.645283	0.292091	0.890538
H304	H	1.895283	0.542091	1.140538
O305	O	0.541404	-0.200683	-0.161310
O306	O	0.791404	0.049317	0.088690
O307	O	1.041404	0.299317	0.338690
O308	O	1.291404	0.549317	0.588690
H309	H	0.610914	-0.201519	-0.160671
H310	H	0.860914	0.048481	0.089329
H311	H	1.110914	0.298481	0.339329
H312	H	1.360914	0.548481	0.589329
H313	H	1.138919	0.456457	0.000186
H314	H	1.388919	0.706457	0.250186
H315	H	1.638919	0.956457	0.500186
H316	H	1.888919	1.206457	0.750186
