data_functionalizedCrystal
_audit_creation_method	'MofGen! by Chris Wilmer'
_symmetry_space_group_name_H-M	'P1'
_symmetry_Int_Tables_number	1
_symmetry_cell_setting	triclinic
loop_
_symmetry_equiv_pos_as_xyz
  x,y,z
_cell_length_a	15.944551
_cell_length_b	17.699083
_cell_length_c	16.176319
_cell_angle_alpha	90.007696
_cell_angle_beta	90.002924
_cell_angle_gamma	83.390876
loop_
_atom_site_label
_atom_site_type_symbol
_atom_site_fract_x
_atom_site_fract_y
_atom_site_fract_z
O1	O	-1.114322	-0.097616	-0.068662
O2	O	-0.614322	0.402384	0.431338
O3	O	-0.869747	-0.109651	-0.068683
O4	O	-0.369747	0.390349	0.431317
O5	O	-0.998945	0.006544	-0.068665
O6	O	-0.498945	0.506544	0.431335
O7	O	-0.985125	-0.213811	-0.068680
O8	O	-0.485125	0.286189	0.431320
O9	O	-0.998927	0.006551	0.068829
O10	O	-0.498927	0.506551	0.568829
O11	O	-0.869729	-0.109643	0.068810
O12	O	-0.369729	0.390357	0.568810
O13	O	-1.114304	-0.097609	0.068831
O14	O	-0.614304	0.402391	0.568831
Cu15	Cu	-0.992015	-0.103625	0.081375
Cu16	Cu	-0.492015	0.396375	0.581375
Cu17	Cu	-0.992036	-0.103634	-0.081227
Cu18	Cu	-0.492036	0.396366	0.418773
O19	O	-0.985107	-0.213803	0.068813
O20	O	-0.485107	0.286197	0.568813
C21	C	-0.838445	-0.109147	0.000061
C22	C	-0.338445	0.390853	0.500061
C23	C	-0.745203	-0.107650	0.000054
C24	C	-0.245203	0.392350	0.500054
C25	C	-0.998440	0.034746	0.000082
C26	C	-0.498440	0.534746	0.500082
C27	C	-0.996955	0.118766	0.000082
C28	C	-0.496955	0.618766	0.500082
C29	C	-1.145606	-0.098112	0.000085
C30	C	-0.645606	0.401888	0.500085
C31	C	-1.238849	-0.099610	0.000088
C32	C	-0.738849	0.400390	0.500088
C33	C	-0.530505	-0.032046	0.000075
C34	C	-0.030505	0.467954	0.500075
C35	C	-0.469420	-0.067158	-0.067719
C36	C	0.030580	0.432842	0.432281
C37	C	-0.574482	-0.104940	0.000063
C38	C	-0.074482	0.395060	0.500063
C39	C	-0.469424	-0.067168	0.067839
C40	C	0.030576	0.432832	0.567839
C41	C	-0.409575	-0.102317	0.000077
C42	C	0.090425	0.397683	0.500077
C43	C	-0.514625	-0.140071	-0.067786
C44	C	-0.014625	0.359929	0.432214
C45	C	-0.514636	-0.140071	0.067832
C46	C	-0.014636	0.359929	0.567832
C47	C	-0.453569	-0.175235	0.000022
C48	C	0.046431	0.324765	0.500022
C49	C	-0.669481	-0.106449	0.000055
C50	C	-0.169481	0.393551	0.500055
C51	C	-0.314577	-0.100814	0.000079
C52	C	0.185423	0.399186	0.500079
C53	C	-0.985611	-0.242005	0.000064
C54	C	-0.485611	0.257995	0.500064
C55	C	-0.987097	-0.326026	0.000059
C56	C	-0.487097	0.173974	0.500059
N57	N	-0.992007	-0.103619	0.195740
N58	N	-0.492007	0.396381	0.695740
C59	C	-1.072791	0.167258	0.000090
C60	C	-0.572791	0.667258	0.500090
C61	C	-1.071390	0.246203	0.000083
C62	C	-0.571390	0.746203	0.500083
C63	C	-0.994152	0.276656	0.000073
C64	C	-0.494152	0.776656	0.500073
C65	C	-0.918310	0.228158	0.000063
C66	C	-0.418310	0.728158	0.500063
C67	C	-0.919712	0.149214	0.000065
C68	C	-0.419712	0.649214	0.500065
C69	C	-0.912656	0.546531	0.000056
C70	C	-0.412656	1.046531	0.500056
C71	C	-0.911260	0.625481	0.000057
C72	C	-0.411260	1.125481	0.500057
C73	C	-1.064334	0.643520	0.000074
C74	C	-0.564334	1.143520	0.500074
C75	C	-1.065735	0.564576	0.000075
C76	C	-0.565735	1.064576	0.500075
C77	C	-0.989894	0.516085	0.000061
C78	C	-0.489894	1.016085	0.500061
C79	C	-0.991414	0.430484	0.000067
C80	C	-0.491414	0.930484	0.500067
C81	C	-0.992632	0.362256	0.000073
C82	C	-0.492632	0.862256	0.500073
N83	N	-0.992052	-0.103635	-0.195592
N84	N	-0.492052	0.396365	0.304408
C85	C	-1.049232	-0.052189	0.239013
C86	C	-0.549232	0.447811	0.739013
C87	C	-1.049237	-0.052188	0.325560
C88	C	-0.549237	0.447812	0.825560
C89	C	-0.992019	-0.103621	0.368833
C90	C	-0.492019	0.396379	0.868833
C91	C	-0.934787	-0.155054	0.325554
C92	C	-0.434787	0.344946	0.825554
C93	C	-0.934779	-0.155050	0.239009
C94	C	-0.434779	0.344950	0.739009
C95	C	-0.934815	-0.155068	0.674583
C96	C	-0.434815	0.344932	1.174583
C97	C	-0.934829	-0.155069	0.761134
C98	C	-0.434829	0.344931	1.261134
C99	C	-1.049273	-0.052205	0.761133
C100	C	-0.549273	0.447795	1.261133
C101	C	-1.049265	-0.052202	0.674588
C102	C	-0.549265	0.447798	1.174588
C103	C	-0.992031	-0.103631	0.631317
C104	C	-0.492031	0.396369	1.131317
C105	C	-0.992026	-0.103631	0.537473
C106	C	-0.492026	0.396369	1.037473
C107	C	-0.992027	-0.103626	0.462675
C108	C	-0.492027	0.396374	0.962675
H109	H	-0.563965	0.028449	-0.000005
H110	H	-0.063965	0.528449	0.499995
H111	H	-0.449396	-0.036320	0.125151
H112	H	0.050604	0.463680	0.625151
H113	H	-0.888232	-0.196954	0.796366
H114	H	-0.388232	0.303046	1.296366
H115	H	-1.128630	0.539786	0.000087
H116	H	-0.628630	1.039786	0.500087
H117	H	-0.534696	-0.170873	0.125145
H118	H	-0.034696	0.329127	0.625145
H119	H	-0.850901	0.507059	0.000045
H120	H	-0.350901	1.007059	0.500045
H121	H	-1.126087	0.683011	0.000081
H122	H	-0.626087	1.183011	0.500081
H123	H	-0.534556	-0.170882	-0.125163
H124	H	-0.034556	0.329118	0.374837
H125	H	-1.135687	0.142470	0.000102
H126	H	-0.635687	0.642470	0.500102
H127	H	-0.888179	-0.196929	0.203777
H128	H	-0.388179	0.303071	0.703777
H129	H	-0.449382	-0.036330	-0.125030
H130	H	0.050618	0.463670	0.374970
H131	H	-0.857958	0.109733	0.000058
H132	H	-0.357958	0.609733	0.500058
H133	H	-1.133144	0.285683	0.000091
H134	H	-0.633144	0.785683	0.500091
H135	H	-0.855422	0.252959	0.000051
H136	H	-0.355422	0.752959	0.500051
H137	H	-0.848360	0.650272	0.000051
H138	H	-0.348360	1.150272	0.500051
H139	H	-1.095829	-0.010309	0.203785
H140	H	-0.595829	0.489691	0.703785
H141	H	-0.420283	-0.235793	-0.000021
H142	H	0.079717	0.264207	0.499979
H143	H	-1.095834	-0.010309	0.360791
H144	H	-0.595834	0.489691	0.860791
H145	H	-1.095874	-0.010326	0.796374
H146	H	-0.595874	0.489674	1.296374
H147	H	-1.095860	-0.010323	0.639357
H148	H	-0.595860	0.489677	1.139357
H149	H	-0.888215	-0.196945	0.639358
H150	H	-0.388215	0.303055	1.139358
H151	H	-0.888194	-0.196929	0.360793
H152	H	-0.388194	0.303071	0.860793
