data_functionalizedCrystal
_audit_creation_method	'MofGen! by Chris Wilmer'
_symmetry_space_group_name_H-M	'P1'
_symmetry_Int_Tables_number	1
_symmetry_cell_setting	triclinic
loop_
_symmetry_equiv_pos_as_xyz
  x,y,z
_cell_length_a	14.044220
_cell_length_b	14.044220
_cell_length_c	12.503572
_cell_angle_alpha	86.156832
_cell_angle_beta	86.160255
_cell_angle_gamma	86.811123
loop_
_atom_site_label
_atom_site_type_symbol
_atom_site_fract_x
_atom_site_fract_y
_atom_site_fract_z
O1	O	1.282207	-0.225110	-0.089324
O2	O	1.615540	0.108224	0.244010
O3	O	1.948873	0.441557	0.577343
O4	O	1.005535	-0.216804	-0.089326
O5	O	1.338869	0.116529	0.244007
O6	O	1.672202	0.449863	0.577340
O7	O	1.139717	-0.082622	-0.089314
O8	O	1.473051	0.250712	0.244019
O9	O	1.806384	0.584045	0.577352
O10	O	1.148024	-0.359292	-0.089336
O11	O	1.481358	-0.025959	0.243998
O12	O	1.814691	0.307375	0.577331
O13	O	1.129628	-0.092731	0.089327
O14	O	1.462961	0.240602	0.422660
O15	O	1.796294	0.573935	0.755993
O16	O	0.995445	-0.226913	0.089315
O17	O	1.328779	0.106420	0.422648
O18	O	1.662112	0.439753	0.755981
O19	O	1.272117	-0.235219	0.089317
O20	O	1.605450	0.098114	0.422651
O21	O	1.938783	0.431447	0.755984
Cu22	Cu	1.132860	-0.231989	0.105627
Cu23	Cu	1.466193	0.101344	0.438961
Cu24	Cu	1.799526	0.434677	0.772294
Cu25	Cu	1.144792	-0.220034	-0.105636
Cu26	Cu	1.478125	0.113300	0.227697
Cu27	Cu	1.811459	0.446633	0.561030
O28	O	1.137934	-0.369402	0.089305
O29	O	1.471268	-0.036068	0.422639
O30	O	1.804601	0.297265	0.755972
C31	C	1.131037	-0.052055	0.000007
C32	C	1.464370	0.281279	0.333340
C33	C	1.797704	0.614612	0.666673
C34	C	1.120192	0.054088	0.000008
C35	C	1.453526	0.387421	0.333341
C36	C	1.786859	0.720755	0.666674
C37	C	0.964868	-0.218223	-0.000006
C38	C	1.298202	0.115110	0.333327
C39	C	1.631535	0.448444	0.666661
C40	C	0.858726	-0.207378	-0.000007
C41	C	1.192059	0.125955	0.333327
C42	C	1.525392	0.459288	0.666660
C43	C	1.312784	-0.233800	-0.000005
C44	C	1.646117	0.099533	0.333328
C45	C	1.979450	0.432867	0.666661
C46	C	1.418927	-0.244644	-0.000012
C47	C	1.752260	0.088689	0.333321
C48	C	2.085593	0.422022	0.666655
C49	C	1.613264	-0.264470	-0.000012
C50	C	1.946598	0.068863	0.333321
C51	C	2.279931	0.402196	0.666654
C52	C	1.664394	-0.187556	-0.000006
C53	C	1.997727	0.145777	0.333327
C54	C	2.331061	0.479110	0.666661
C55	C	1.772530	-0.198588	-0.000006
C56	C	2.105863	0.134745	0.333327
C57	C	2.439197	0.468079	0.666660
C58	C	1.505118	-0.253440	-0.000012
C59	C	1.838452	0.079893	0.333321
C60	C	2.171785	0.413226	0.666655
C61	C	1.146615	-0.399968	-0.000018
C62	C	1.479949	-0.066635	0.333315
C63	C	1.813282	0.266698	0.666649
C64	C	1.157460	-0.506111	-0.000026
C65	C	1.490794	-0.172777	0.333307
C66	C	1.824127	0.160556	0.666641
N67	N	1.124474	-0.240398	0.254219
N68	N	1.457807	0.092935	0.587552
N69	N	1.791141	0.426268	0.920886
C70	C	1.100367	0.248427	-0.000008
C71	C	1.433700	0.581760	0.333325
C72	C	1.767034	0.915093	0.666659
C73	C	1.177281	0.299557	-0.000010
C74	C	1.510615	0.632890	0.333323
C75	C	1.843948	0.966223	0.666656
C76	C	1.166250	0.407693	-0.000019
C77	C	1.499584	0.741027	0.333314
C78	C	1.832917	1.074360	0.666647
C79	C	1.111396	0.140280	0.000001
C80	C	1.444730	0.473613	0.333334
C81	C	1.778063	0.806947	0.666667
N82	N	1.153185	-0.211618	-0.254228
N83	N	1.486518	0.121716	0.079105
N84	N	1.819851	0.455049	0.412439
C85	C	1.112139	-0.252777	0.473333
C86	C	1.445473	0.080557	0.806666
C87	C	1.778806	0.413890	1.140000
C88	C	1.165517	-0.199243	0.526665
C89	C	1.498850	0.134091	0.859998
C90	C	1.832183	0.467424	1.193332
C91	C	1.158653	-0.206130	0.648587
C92	C	1.491987	0.127203	0.981921
C93	C	1.825320	0.460537	1.315254
C94	C	1.119001	-0.245890	0.351399
C95	C	1.452335	0.087443	0.684733
C96	C	1.785668	0.420776	1.018066
H97	H	1.626959	-0.113419	-0.000078
H98	H	1.960292	0.219914	0.333255
H99	H	2.293626	0.553248	0.666588
H100	H	1.026239	0.285864	-0.000011
H101	H	1.359573	0.619197	0.333322
H102	H	1.692906	0.952530	0.666655
O103	O	1.265765	0.254998	0.000147
O104	O	1.599098	0.588331	0.333481
O105	O	1.932432	0.921664	0.666814
C106	C	1.310400	0.276495	0.092686
C107	C	1.643734	0.609828	0.426019
C108	C	1.977067	0.943161	0.759352
H109	H	1.276911	0.346065	0.123518
H110	H	1.610244	0.679398	0.456851
H111	H	1.943577	1.012732	0.790184
H112	H	1.389932	0.284638	0.071890
H113	H	1.723265	0.617971	0.405223
H114	H	2.056598	0.951305	0.738556
H115	H	1.300453	0.216165	0.157477
H116	H	1.633786	0.549499	0.490810
H117	H	1.967120	0.882832	0.824144
H118	H	1.650702	-0.338598	-0.000019
H119	H	1.984035	-0.005264	0.333314
H120	H	2.317368	0.328069	0.666648
H121	H	1.216370	-0.148239	0.480756
H122	H	1.549703	0.185094	0.814090
H123	H	1.883037	0.518428	1.147423
H124	H	1.061291	-0.303778	0.519236
H125	H	1.394624	0.029555	0.852569
H126	H	1.727957	0.362889	1.185903
