data_functionalizedCrystal
_audit_creation_method	'MofGen! by Chris Wilmer'
_symmetry_space_group_name_H-M	'P1'
_symmetry_Int_Tables_number	1
_symmetry_cell_setting	triclinic
loop_
_symmetry_equiv_pos_as_xyz
  x,y,z
_cell_length_a	15.995288
_cell_length_b	7.681481
_cell_length_c	8.597278
_cell_angle_alpha	103.491538
_cell_angle_beta	95.594583
_cell_angle_gamma	95.719886
loop_
_atom_site_label
_atom_site_type_symbol
_atom_site_fract_x
_atom_site_fract_y
_atom_site_fract_z
O1	O	-1.103094	0.179904	0.220090
O2	O	-0.859313	0.183751	0.245564
O3	O	-0.987870	0.146620	0.000784
O4	O	-0.974537	0.217034	0.464871
O5	O	-1.003693	-0.150818	-0.029413
O6	O	-0.875136	-0.113687	0.215368
O7	O	-1.118918	-0.117534	0.189893
Zn8	Zn	-0.999539	-0.162836	0.197836
Zn9	Zn	-0.978691	0.229052	0.237622
O10	O	-0.990360	-0.080404	0.434674
C11	C	-0.836029	0.034873	0.229430
C12	C	-0.743076	0.034395	0.226325
C13	C	-0.572892	0.033534	0.220592
C14	C	-0.525424	0.059973	0.394877
C15	C	-0.428699	0.060169	0.391775
C16	C	-0.405334	0.032685	0.214949
C17	C	-0.437449	0.189083	0.145688
C18	C	-0.534076	0.189891	0.150104
C19	C	-0.552350	-0.148755	0.113184
C20	C	-0.455523	-0.150977	0.112982
C21	C	-0.310637	0.032210	0.211751
C22	C	-0.667588	0.034021	0.223786
N23	N	-1.013773	-0.430289	0.170683
C24	C	-0.142200	0.031345	0.206048
C25	C	-0.235149	0.031825	0.209216
C26	C	-0.995231	-0.011106	-0.073700
C27	C	-0.993581	-0.037943	-0.250650
N28	N	-0.964464	0.496503	0.264762
C29	C	-0.982999	0.077326	0.509158
C30	C	-0.984649	0.104175	0.686110
H31	H	-0.550380	-0.050942	0.452576
H32	H	-0.565965	0.177717	0.022860
H33	H	-0.914129	-0.413733	0.360789
H34	H	-0.999962	-0.180154	-0.331880
H35	H	-1.064118	-0.520060	0.074661
H36	H	-0.978255	0.246396	-0.232649
H37	H	-0.584219	-0.169881	-0.015480
H38	H	-0.538575	0.191821	0.476194
H39	H	-0.394348	0.192658	0.471835
H40	H	-0.406698	-0.051011	0.447386
H41	H	-0.423041	0.175205	0.016402
H42	H	-0.402327	0.324707	0.217826
H43	H	-0.579687	-0.268574	0.157512
H44	H	-0.545628	0.326543	0.225333
H45	H	-0.434854	-0.266808	0.163395
H46	H	-0.440758	-0.181267	-0.016978
