data_functionalizedCrystal
_audit_creation_method	'MofGen! by Chris Wilmer'
_symmetry_space_group_name_H-M	'P1'
_symmetry_Int_Tables_number	1
_symmetry_cell_setting	triclinic
loop_
_symmetry_equiv_pos_as_xyz
  x,y,z
_cell_length_a	17.038272
_cell_length_b	22.610064
_cell_length_c	17.019448
_cell_angle_alpha	86.121092
_cell_angle_beta	87.247973
_cell_angle_gamma	90.003146
loop_
_atom_site_label
_atom_site_type_symbol
_atom_site_fract_x
_atom_site_fract_y
_atom_site_fract_z
O1	O	1.037236	0.040398	0.171273
O2	O	0.809608	0.040554	0.168554
O3	O	0.929765	0.046291	0.055509
O4	O	0.917079	0.034661	0.284318
O5	O	0.929744	-0.052079	0.055525
O6	O	0.809586	-0.057816	0.168570
O7	O	1.037215	-0.057972	0.171290
Zn8	Zn	0.923397	-0.073512	0.169932
Zn9	Zn	0.923425	0.056095	0.169911
O10	O	0.917058	-0.063709	0.284334
C11	C	0.780471	-0.008503	0.166088
C12	C	0.693684	-0.008121	0.158708
N13	N	0.923384	-0.161965	0.169947
C14	C	0.643516	-0.011565	0.226467
C15	C	0.561971	-0.011221	0.219528
C16	C	0.530595	-0.007427	0.144829
C17	C	0.580770	-0.003984	0.077065
C18	C	0.662313	-0.004333	0.084004
C19	C	0.284857	-0.006197	0.120311
C20	C	0.203307	-0.005847	0.113376
C21	C	0.184514	-0.013084	0.255840
C22	C	0.266059	-0.013429	0.262774
C23	C	0.316227	-0.009989	0.195009
C24	C	0.447243	-0.007073	0.137734
C25	C	0.399577	-0.010348	0.202105
C26	C	0.976633	-0.568065	0.119863
C27	C	0.976637	-0.629984	0.119858
O28	O	1.021879	-0.659842	0.077284
N29	N	0.923425	-0.663500	0.169894
C30	C	0.870199	-0.635092	0.219934
O31	O	0.824938	-0.669285	0.262494
C32	C	0.870192	-0.573173	0.219935
C33	C	0.923414	-0.539661	0.169901
C34	C	1.029850	-0.534553	0.069832
C35	C	1.029847	-0.472638	0.069839
C36	C	0.976627	-0.444234	0.119876
C37	C	0.923410	-0.477746	0.169907
C38	C	0.816964	-0.544767	0.269970
C39	C	0.816961	-0.482843	0.269967
C40	C	0.870182	-0.449331	0.219932
C41	C	0.870187	-0.387427	0.219952
N42	N	0.923400	-0.353912	0.169915
C43	C	0.976620	-0.382315	0.119877
C44	C	0.870217	-0.765125	0.219928
C45	C	0.870228	-0.827043	0.219932
C46	C	0.976665	-0.821931	0.119854
C47	C	0.976658	-0.760012	0.119854
C48	C	0.923430	-0.731610	0.169891
C49	C	0.976610	-0.252289	0.119896
C50	C	0.976604	-0.190369	0.119909
C51	C	0.870164	-0.195486	0.219984
C52	C	0.870172	-0.257401	0.219974
C53	C	0.923398	-0.285801	0.169923
O54	O	0.824967	-0.357529	0.262501
O55	O	1.021867	-0.348115	0.077318
C56	C	1.066352	-0.008913	0.173755
C57	C	1.153139	-0.009291	0.181135
C58	C	0.929271	-0.001397	0.026096
C59	C	0.927821	0.003064	-0.061570
N60	N	0.923445	0.144548	0.169891
C61	C	0.919691	0.031044	-0.557395
C62	C	0.921046	0.026841	-0.475023
C63	C	0.921706	-0.028882	-0.433844
C64	C	0.921019	-0.080406	-0.475042
C65	C	0.919669	-0.076202	-0.557413
C66	C	0.925784	-0.044256	-0.185139
C67	C	0.927131	-0.048456	-0.102762
C68	C	0.927160	0.058791	-0.102748
C69	C	0.925806	0.062990	-0.185120
C70	C	0.925123	0.011466	-0.226312
C71	C	0.923088	-0.033179	-0.349647
C72	C	0.923746	0.015764	-0.310508
C73	C	0.917552	-0.016019	0.313747
C74	C	0.919002	-0.020476	0.401413
H75	H	0.669055	-0.014654	0.287295
H76	H	1.019946	-0.163085	0.079165
N77	N	0.815851	-0.736127	0.271063
N78	N	0.816849	-0.746768	0.344041
H79	H	0.778452	-0.726292	0.380156
H80	H	1.019998	-0.845068	0.079109
H81	H	0.927645	-0.093835	-0.069235
N82	N	0.133257	-0.016610	0.325047
N83	N	0.085659	-0.058690	0.337072
H84	H	0.049458	-0.061182	0.385951
N85	N	0.925062	-0.096887	-0.227201
N86	N	0.869221	-0.106684	-0.269597
H87	H	0.868708	-0.143857	-0.299305
H88	H	0.826898	-0.854325	0.260683
H89	H	0.921609	0.068794	-0.441488
N90	N	0.921674	-0.137325	-0.432979
N91	N	0.866427	-0.172931	-0.438620
H92	H	0.866886	-0.213132	-0.408913
H93	H	0.425126	-0.013440	0.262924
H94	H	0.919147	0.076420	-0.590916
H95	H	0.923213	0.061134	-0.344039
N96	N	1.030987	-0.725790	0.068698
N97	N	1.078473	-0.751164	0.024001
H98	H	1.116830	-0.726997	-0.012148
N99	N	0.918968	-0.128834	-0.599480
N100	N	0.919557	-0.178584	-0.562707
H101	H	0.919064	-0.215758	-0.592416
H102	H	0.177765	-0.002757	0.052544
N103	N	0.925127	0.119914	-0.227168
N104	N	0.925741	0.165911	-0.190379
H105	H	0.925258	0.206116	-0.220075
N106	N	1.084222	-0.438435	0.018712
N107	N	1.059514	-0.401310	-0.031958
H108	H	1.097927	-0.377167	-0.068072
N109	N	0.336083	-0.002680	0.051086
N110	N	0.308056	0.000710	-0.015603
H111	H	0.344237	0.003195	-0.064497
H112	H	0.923624	-0.078549	-0.316110
H113	H	0.521127	-0.014025	0.274705
H114	H	0.291599	-0.016512	0.323601
N115	N	0.927857	0.111412	-0.060660
N116	N	0.929060	0.107654	0.012884
H117	H	0.929554	0.144820	0.042610
N118	N	1.084209	-0.563553	0.018698
N119	N	1.083212	-0.552907	-0.054279
H120	H	1.121609	-0.573382	-0.090395
H121	H	1.019950	-0.275405	0.079139
N122	N	0.762598	-0.578979	0.321091
N123	N	0.715088	-0.553599	0.365757
H124	H	0.676690	-0.577761	0.401866
N125	N	0.548710	-0.000116	0.000767
N126	N	0.475903	0.000196	-0.005421
H127	H	0.453261	0.002929	-0.059308
H128	H	0.703160	-0.001528	0.028828
H129	H	0.773614	-0.459721	0.310711
N130	N	0.415191	-0.003205	0.061433
N131	N	0.371787	-0.043669	0.041678
H132	H	0.349147	-0.040939	-0.012210
H133	H	0.826835	-0.172350	0.260726
N134	N	0.815807	-0.291628	0.271089
N135	N	0.768293	-0.266257	0.315761
H136	H	0.729890	-0.290424	0.351856
