data_functionalizedCrystal
_audit_creation_method	'MofGen! by Chris Wilmer'
_symmetry_space_group_name_H-M	'P1'
_symmetry_Int_Tables_number	1
_symmetry_cell_setting	triclinic
loop_
_symmetry_equiv_pos_as_xyz
  x,y,z
_cell_length_a	17.077404
_cell_length_b	14.908520
_cell_length_c	17.077396
_cell_angle_alpha	93.268321
_cell_angle_beta	89.980499
_cell_angle_gamma	93.320938
loop_
_atom_site_label
_atom_site_type_symbol
_atom_site_fract_x
_atom_site_fract_y
_atom_site_fract_z
Zn1	Zn	1.182024	-0.359154	-0.461868
Zn2	Zn	1.682024	0.140846	0.038132
Zn3	Zn	1.174357	-0.510026	-0.338173
Zn4	Zn	1.674357	-0.010026	0.161827
Zn5	Zn	1.050754	-0.359186	-0.330617
Zn6	Zn	1.550754	0.140814	0.169383
Zn7	Zn	1.043152	-0.509972	-0.469394
Zn8	Zn	1.543152	-0.009972	0.030606
O9	O	1.112572	-0.434584	-0.400013
O10	O	1.612572	0.065416	0.099987
O11	O	1.290853	-0.379177	-0.445472
O12	O	1.790853	0.120823	0.054528
O13	O	1.157933	-0.490052	-0.227326
O14	O	1.657933	0.009948	0.272674
O15	O	1.074557	-0.232937	-0.341715
O16	O	1.574557	0.267063	0.158285
O17	O	1.285220	-0.490021	-0.354594
O18	O	1.785220	0.009979	0.145406
O19	O	1.171001	-0.232913	-0.438145
O20	O	1.671001	0.267087	0.061855
O21	O	1.067123	-0.379231	-0.221774
O22	O	1.567123	0.120769	0.278226
O23	O	0.939899	-0.379179	-0.349014
O24	O	1.439899	0.120821	0.150986
O25	O	1.061601	-0.489930	-0.578241
O26	O	1.561601	0.010070	-0.078241
O27	O	0.934314	-0.489961	-0.450973
O28	O	1.434314	0.010039	0.049027
O29	O	1.163629	-0.379125	-0.572711
O30	O	1.663629	0.120875	-0.072711
O31	O	1.150562	-0.636263	-0.361892
O32	O	1.650562	-0.136263	0.138108
O33	O	1.054166	-0.636224	-0.458300
O34	O	1.554166	-0.136224	0.041700
C35	C	0.908625	-0.434568	-0.399990
C36	C	1.408625	0.065432	0.100010
C37	C	0.821374	-0.434583	-0.400001
C38	C	1.321374	0.065417	0.099999
C39	C	0.777492	-0.492354	-0.453014
C40	C	1.277492	0.007646	0.046986
C41	C	0.695511	-0.492356	-0.453027
C42	C	1.195511	0.007644	0.046973
C43	C	0.657414	-0.434591	-0.400022
C44	C	1.157414	0.065409	0.099978
C45	C	0.701302	-0.376813	-0.347005
C46	C	1.201302	0.123187	0.152995
C47	C	0.783282	-0.376807	-0.346997
C48	C	1.283282	0.123193	0.153003
C49	C	0.530432	-0.376831	-0.347025
C50	C	1.030432	0.123169	0.152975
C51	C	0.448447	-0.376837	-0.347032
C52	C	0.948447	0.123163	0.152968
C53	C	0.442661	-0.492380	-0.453055
C54	C	0.942661	0.007620	0.046945
C55	C	0.524640	-0.492374	-0.453047
C56	C	1.024640	0.007626	0.046953
C57	C	0.568523	-0.434597	-0.400029
C58	C	1.068523	0.065403	0.099971
C59	C	1.100728	-0.668978	-0.411750
C60	C	1.600728	-0.168978	0.088250
C61	C	1.095734	-0.769252	-0.416797
C62	C	1.595734	-0.269252	0.083203
C63	C	1.186828	-0.957658	-0.325973
C64	C	1.686828	-0.457658	0.174027
C65	C	1.182137	-1.051875	-0.330713
C66	C	1.682137	-0.551875	0.169287
C67	C	1.081667	-1.051904	-0.431020
C68	C	1.581667	-0.551904	0.068980
C69	C	1.086357	-0.957687	-0.426280
C70	C	1.586357	-0.457687	0.073720
C71	C	1.138939	-0.910568	-0.373754
C72	C	1.638939	-0.410568	0.126246
C73	C	1.143625	-0.816349	-0.369011
C74	C	1.643625	-0.316349	0.130989
C75	C	1.043159	-0.816380	-0.469321
C76	C	1.543159	-0.316380	0.030679
C77	C	1.038468	-0.910597	-0.474061
C78	C	1.538468	-0.410597	0.025939
C79	C	1.317315	-0.434601	-0.400036
C80	C	1.817315	0.065399	0.099964
C81	C	1.404564	-0.434609	-0.400046
C82	C	1.904564	0.065391	0.099954
C83	C	1.112622	-0.434518	-0.604754
C84	C	1.612622	0.065482	-0.104754
C85	C	1.112644	-0.434490	-0.692002
C86	C	1.612644	0.065510	-0.192002
C87	C	1.124482	-0.199276	-0.388248
C88	C	1.624482	0.300724	0.111752
C89	C	1.129558	-0.099001	-0.383234
C90	C	1.629558	0.400999	0.116766
C91	C	1.165772	-0.376788	-0.730114
C92	C	1.665772	0.123212	-0.230114
C93	C	1.165783	-0.376758	-0.812093
C94	C	1.665783	0.123242	-0.312093
C95	C	1.112669	-0.434435	-0.855959
C96	C	1.612669	0.065565	-0.355959
C97	C	1.059535	-0.492138	-0.817842
C98	C	1.559535	0.007862	-0.317842
C99	C	1.059521	-0.492163	-0.735864
C100	C	1.559521	0.007837	-0.235864
C101	C	1.059569	-0.492084	-0.988709
C102	C	1.559569	0.007916	-0.488709
C103	C	1.059584	-0.492061	-1.070693
C104	C	1.559584	0.007939	-0.570693
C105	C	1.165832	-0.376679	-1.064938
C106	C	1.665832	0.123321	-0.564938
C107	C	1.165818	-0.376704	-0.982961
C108	C	1.665818	0.123296	-0.482961
C109	C	1.112684	-0.434409	-0.944849
C110	C	1.612684	0.065591	-0.444849
C111	C	1.112569	-0.434585	-0.196065
C112	C	1.612569	0.065415	0.303935
C113	C	1.112713	-0.434360	-0.108804
C114	C	1.612713	0.065640	0.391196
H115	H	0.406928	-0.539421	-0.496226
H116	H	0.906928	-0.039421	0.003774
H117	H	1.209072	-0.329744	-0.947247
H118	H	1.709072	0.170256	-0.447247
H119	H	1.038863	-1.090285	-0.473789
H120	H	1.538863	-0.590285	0.026211
H121	H	1.016251	-0.539140	-0.704834
H122	H	1.516251	-0.039140	-0.204834
O123	O	0.981750	-0.961427	-0.530700
O124	O	1.481750	-0.461427	-0.030700
H125	H	1.014716	-1.004297	-0.572827
H126	H	1.514716	-0.504297	-0.072827
O127	O	1.233787	-1.102678	-0.279184
O128	O	1.733787	-0.602678	0.220816
H129	H	1.221260	-1.084666	-0.216654
H130	H	1.721260	-0.584666	0.283346
H131	H	1.209027	-0.329824	-0.694404
H132	H	1.709027	0.170176	-0.194404
H133	H	0.808504	-0.539396	-0.496175
H134	H	1.308504	-0.039396	0.003825
H135	H	1.186437	-0.777985	-0.326240
H136	H	1.686437	-0.277985	0.173760
O137	O	0.991503	-0.765592	-0.520865
O138	O	1.491503	-0.265592	-0.020865
H139	H	1.003599	-0.692161	-0.508750
H140	H	1.503599	-0.192161	-0.008750
H141	H	1.209048	-0.329774	-0.843120
H142	H	1.709048	0.170226	-0.343120
H143	H	1.209094	-0.329692	-1.095973
H144	H	1.709094	0.170308	-0.595973
O145	O	1.002285	-0.554258	-1.118001
O146	O	1.502285	-0.054258	-0.618001
H147	H	0.964412	-0.513850	-1.153325
H148	H	1.464412	-0.013850	-0.653325
O149	O	0.407351	-0.314526	-0.289872
O150	O	0.907351	0.185474	0.210128
H151	H	0.451637	-0.274338	-0.253013
H152	H	0.951637	0.225662	0.246987
O153	O	1.002258	-0.554316	-0.947598
O154	O	1.502258	-0.054316	-0.447598
H155	H	0.965330	-0.594422	-0.991871
H156	H	1.465330	-0.094422	-0.491871
O157	O	0.577766	-0.314525	-0.289836
O158	O	1.077766	0.185475	0.210164
H159	H	0.537504	-0.274367	-0.252971
H160	H	1.037504	0.225633	0.247029
H161	H	1.016286	-0.539096	-0.853564
H162	H	1.516286	-0.039096	-0.353564
H163	H	0.555656	-0.539416	-0.496205
H164	H	1.055656	-0.039416	0.003795
O165	O	0.648169	-0.554838	-0.510064
O166	O	1.148169	-0.054838	-0.010064
H167	H	0.688430	-0.595075	-0.546862
H168	H	1.188430	-0.095075	-0.046862
H169	H	1.229636	-0.919293	-0.283199
H170	H	1.729636	-0.419293	0.216801
H171	H	0.670278	-0.329775	-0.303850
H172	H	1.170278	0.170225	0.196150
O173	O	0.830618	-0.314508	-0.289810
O174	O	1.330618	0.185492	0.210190
H175	H	0.790355	-0.274349	-0.252945
H176	H	1.290355	0.225651	0.247055
