data_functionalizedCrystal
_audit_creation_method	'MofGen! by Chris Wilmer'
_symmetry_space_group_name_H-M	'P1'
_symmetry_Int_Tables_number	1
_symmetry_cell_setting	triclinic
loop_
_symmetry_equiv_pos_as_xyz
  x,y,z
_cell_length_a	15.995350
_cell_length_b	10.654550
_cell_length_c	9.730223
_cell_angle_alpha	89.999807
_cell_angle_beta	90.003443
_cell_angle_gamma	83.988639
loop_
_atom_site_label
_atom_site_type_symbol
_atom_site_fract_x
_atom_site_fract_y
_atom_site_fract_z
O1	O	1.111921	0.161868	-0.114170
O2	O	0.868261	0.181857	-0.114198
O3	O	0.995693	-0.010950	-0.114178
O4	O	0.984489	0.354675	-0.114190
O5	O	0.995692	-0.010945	0.114402
O6	O	0.868260	0.181862	0.114382
O7	O	1.111919	0.161872	0.114410
Zn8	Zn	0.990089	0.171868	0.150688
Zn9	Zn	0.990091	0.171861	-0.150476
O10	O	0.984487	0.354680	0.114390
C11	C	0.994870	-0.057735	0.000110
C12	C	0.992409	-0.197146	0.000105
C13	C	0.837061	0.181033	0.000089
C14	C	0.744096	0.178555	0.000078
C15	C	1.067438	-0.277612	0.000118
C16	C	1.065121	-0.408603	0.000108
C17	C	0.912737	-0.378648	0.000078
C18	C	0.915055	-0.247660	0.000078
C19	C	1.144792	-0.227098	0.000145
C20	C	1.219828	-0.307565	0.000159
C21	C	1.217510	-0.438555	0.000149
C22	C	1.140156	-0.489079	0.000125
C23	C	0.406297	0.169658	0.000107
C24	C	0.452934	0.032344	0.000621
C25	C	0.549639	0.034822	0.000096
C26	C	0.573883	0.174071	0.000093
C27	C	0.533190	0.241796	-0.130434
C28	C	0.436535	0.238347	-0.130533
C29	C	0.436211	0.241189	0.129405
C30	C	0.533156	0.241157	0.131120
C31	C	0.668595	0.176573	0.000081
C32	C	0.311585	0.167161	0.000110
C33	C	1.143119	0.162696	0.000121
C34	C	1.236084	0.165174	0.000122
C35	C	0.985311	0.401464	0.000099
C36	C	0.987772	0.540875	0.000095
N37	N	0.990094	0.171871	0.356225
N38	N	0.990093	0.171848	-0.356012
C39	C	1.046536	0.086525	0.428159
C40	C	1.046533	0.086510	0.572042
C41	C	0.933646	0.257198	0.572043
C42	C	0.933644	0.257206	0.428163
C43	C	1.102985	0.001190	0.356221
C44	C	1.159432	-0.084162	0.428156
C45	C	1.159430	-0.084177	0.572039
C46	C	1.102981	0.001160	0.643987
H47	H	1.146687	-0.120440	0.000157
H48	H	1.138275	-0.595741	0.000102
C49	C	0.427641	-0.040865	0.125308
C50	C	0.340799	-0.048441	0.122398
C51	C	0.317463	-0.115884	0.237231
H52	H	0.441938	0.001156	0.206761
H53	H	0.456417	-0.123512	0.123711
H54	H	0.312033	0.034191	0.124007
H55	H	0.326481	-0.090472	0.040971
H56	H	0.346238	-0.198532	0.235634
H57	H	0.331764	-0.073857	0.318675
H58	H	0.258539	-0.121044	0.235265
H59	H	0.561292	0.194753	-0.227572
C60	C	0.872407	0.350051	0.649976
C61	C	0.886679	0.473474	0.614959
C62	C	0.830275	0.559046	0.686706
H63	H	0.880432	0.338002	0.745990
H64	H	0.816433	0.336438	0.626361
H65	H	0.942640	0.487082	0.638583
H66	H	0.878648	0.485564	0.518957
H67	H	0.774302	0.545433	0.663091
H68	H	0.838305	0.546985	0.782716
H69	H	0.839946	0.642798	0.662948
C70	C	0.833623	-0.160224	-0.000214
C71	C	0.830501	-0.084174	-0.117832
C72	C	0.755493	-0.003622	-0.118164
H73	H	0.831281	-0.108383	0.079402
H74	H	0.787197	-0.209020	-0.000294
H75	H	0.876914	-0.035382	-0.117740
H76	H	0.832828	-0.135981	-0.197467
H77	H	0.709067	-0.052418	-0.118244
H78	H	0.753157	0.048210	-0.038543
H79	H	0.753360	0.047979	-0.197972
C80	C	0.394466	0.372850	-0.138537
C81	C	0.456109	0.456860	-0.143255
C82	C	0.417392	0.580769	-0.150662
H83	H	0.360057	0.390358	-0.059862
H84	H	0.360805	0.382413	-0.219059
H85	H	0.489757	0.447302	-0.062742
H86	H	0.490522	0.439393	-0.221927
H87	H	0.383731	0.590332	-0.231184
H88	H	0.382984	0.598263	-0.071985
H89	H	0.459211	0.637784	-0.153878
H90	H	0.887684	0.326702	0.369593
C91	C	0.394812	0.376276	0.130526
C92	C	0.456891	0.459592	0.126260
C93	C	0.418788	0.584039	0.127266
H94	H	0.362479	0.390598	0.211970
H95	H	0.359195	0.389861	0.052634
H96	H	0.492493	0.446013	0.204145
H97	H	0.489228	0.445310	0.044821
H98	H	0.383171	0.597624	0.049374
H99	H	0.386456	0.598348	0.208712
H100	H	0.460902	0.640584	0.124359
H101	H	1.282806	-0.266420	0.000144
C102	C	1.220802	-0.176900	0.649894
C103	C	1.270248	-0.251606	0.556092
C104	C	1.326805	-0.337023	0.627758
H105	H	1.190482	-0.229334	0.706017
H106	H	1.255960	-0.131726	0.706001
H107	H	1.235095	-0.296777	0.500008
H108	H	1.300586	-0.199207	0.499965
H109	H	1.361962	-0.291849	0.683865
H110	H	1.296478	-0.389448	0.683879
H111	H	1.360366	-0.387713	0.564124
C112	C	1.102890	0.001448	0.200006
C113	C	1.041392	0.094479	0.152404
C114	C	1.041289	0.094772	0.008509
H115	H	1.090943	-0.078747	0.167265
H116	H	1.156486	0.018761	0.167426
H117	H	0.987809	0.077158	0.184970
H118	H	1.053325	0.174688	0.185108
H119	H	1.094885	0.112085	-0.024071
H120	H	1.029344	0.014572	-0.024219
H121	H	0.999570	0.157899	-0.023807
H122	H	0.547909	0.344099	-0.135289
H123	H	0.577758	-0.018413	0.093664
C124	C	0.408722	0.181374	0.261505
C125	C	0.479710	0.139574	0.339687
C126	C	0.454450	0.084482	0.461414
H127	H	0.378512	0.111771	0.239998
H128	H	0.373652	0.241975	0.312567
H129	H	0.514767	0.078977	0.288635
H130	H	0.509929	0.209152	0.361231
H131	H	0.419380	0.145083	0.512476
H132	H	0.424240	0.014884	0.439893
H133	H	0.502611	0.056124	0.514481
C134	C	0.586445	-0.036833	-0.124712
C135	C	0.643241	-0.138051	-0.081442
C136	C	0.677155	-0.204096	-0.196383
H137	H	0.614881	0.018122	-0.180698
H138	H	0.542483	-0.067951	-0.176037
H139	H	0.687197	-0.106933	-0.030138
H140	H	0.614825	-0.193035	-0.025470
H141	H	0.633193	-0.235214	-0.247709
H142	H	0.705587	-0.149131	-0.252362
H143	H	0.715689	-0.272786	-0.167040
H144	H	1.278608	-0.504069	0.000147
H145	H	0.560185	0.191718	0.227684
C146	C	0.411561	0.172573	-0.260577
C147	C	0.324332	0.168792	-0.262064
C148	C	0.301299	0.108223	-0.381848
H149	H	0.438792	0.088972	-0.262734
H150	H	0.427866	0.217671	-0.338673
H151	H	0.308035	0.123692	-0.183989
H152	H	0.297081	0.252375	-0.259929
H153	H	0.317605	0.153321	-0.459945
H154	H	0.328535	0.024627	-0.383995
H155	H	0.242112	0.105660	-0.382880
H156	H	0.849759	-0.419796	0.000061
H157	H	0.549111	0.342702	0.139002
H158	H	0.433024	-0.022292	-0.092466
H159	H	1.205386	-0.153648	0.369569
H160	H	1.102978	0.001132	0.761146
