data_functionalizedCrystal
_audit_creation_method	'MofGen! by Chris Wilmer'
_symmetry_space_group_name_H-M	'P1'
_symmetry_Int_Tables_number	1
_symmetry_cell_setting	triclinic
loop_
_symmetry_equiv_pos_as_xyz
  x,y,z
_cell_length_a	15.944493
_cell_length_b	19.188924
_cell_length_c	18.266242
_cell_angle_alpha	90.006564
_cell_angle_beta	90.005061
_cell_angle_gamma	83.308504
loop_
_atom_site_label
_atom_site_type_symbol
_atom_site_fract_x
_atom_site_fract_y
_atom_site_fract_z
O1	O	1.114217	0.089855	0.060875
O2	O	1.614217	0.589855	0.560875
O3	O	0.869619	0.100999	0.060879
O4	O	1.369619	0.600999	0.560879
O5	O	0.998979	-0.006212	0.060868
O6	O	1.498979	0.493788	0.560868
O7	O	0.984856	0.197066	0.060885
O8	O	1.484856	0.697066	0.560885
O9	O	0.998966	-0.006214	-0.060894
O10	O	1.498966	0.493786	0.439106
O11	O	0.869605	0.100997	-0.060883
O12	O	1.369605	0.600997	0.439117
O13	O	1.114203	0.089853	-0.060887
O14	O	1.614203	0.589853	0.439113
Zn15	Zn	0.991902	0.095424	-0.080218
Zn16	Zn	1.491902	0.595424	0.419782
Zn17	Zn	0.991920	0.095428	0.080209
Zn18	Zn	1.491920	0.595428	0.580209
O19	O	0.984842	0.197064	-0.060877
O20	O	1.484842	0.697064	0.439123
C21	C	0.838319	0.100543	-0.000002
C22	C	1.338319	0.600543	0.499998
C23	C	0.745075	0.099177	-0.000001
C24	C	1.245075	0.599177	0.499999
C25	C	0.509077	0.162284	0.000005
C26	C	1.009077	0.662284	0.500005
C27	C	0.458640	0.128252	-0.060036
C28	C	0.958640	0.628252	0.439964
C29	C	0.574364	0.096647	-0.000002
C30	C	1.074364	0.596647	0.499998
C31	C	0.458659	0.128239	0.060012
C32	C	0.958659	0.628239	0.560012
C33	C	0.409463	0.094207	-0.000001
C34	C	0.909463	0.594207	0.499999
C35	C	0.525155	0.062632	-0.060093
C36	C	1.025155	0.562632	0.439907
C37	C	0.525177	0.062629	0.060009
C38	C	1.025177	0.562629	0.560009
C39	C	0.474773	0.028548	-0.000047
C40	C	0.974773	0.528548	0.499953
C41	C	0.669358	0.098054	-0.000004
C42	C	1.169358	0.598054	0.499996
C43	C	0.314472	0.092795	-0.000004
C44	C	0.814472	0.592795	0.499996
C45	C	0.998516	-0.032225	-0.000014
C46	C	1.498516	0.467775	0.499986
C47	C	0.997146	-0.109733	-0.000016
C48	C	1.497146	0.390267	0.499984
C49	C	0.996514	-0.146132	0.066357
C50	C	1.496514	0.353868	0.566357
C51	C	0.995215	-0.218958	0.066363
C52	C	1.495215	0.281042	0.566363
C53	C	0.994565	-0.255384	-0.000008
C54	C	1.494565	0.244616	0.499992
C55	C	0.995192	-0.218976	-0.066390
C56	C	1.495192	0.281024	0.433610
C57	C	0.996482	-0.146150	-0.066393
C58	C	1.496482	0.353850	0.433607
N59	N	1.040333	-0.374938	-0.049407
N60	N	1.540333	0.125062	0.450593
N61	N	1.039109	-0.444119	-0.049399
N62	N	1.539109	0.055881	0.450601
C63	C	0.990674	-0.474803	-0.000001
C64	C	1.490674	0.025197	0.499999
N65	N	0.943520	-0.433692	0.049400
N66	N	1.443520	0.066308	0.549400
N67	N	0.944748	-0.364505	0.049394
N68	N	1.444748	0.135495	0.549394
C69	C	0.993164	-0.334351	-0.000012
C70	C	1.493164	0.165649	0.499988
C71	C	0.988632	-0.590168	0.066382
C72	C	1.488632	-0.090168	0.566382
C73	C	0.987328	-0.662994	0.066385
C74	C	1.487328	-0.162994	0.566385
C75	C	0.987313	-0.663011	-0.066369
C76	C	1.487313	-0.163011	0.433631
C77	C	0.988609	-0.590185	-0.066370
C78	C	1.488609	-0.090185	0.433630
C79	C	0.989272	-0.553768	0.000008
C80	C	1.489272	-0.053768	0.500008
C81	C	1.145503	0.090309	-0.000005
C82	C	1.645503	0.590309	0.499995
C83	C	1.238747	0.091675	-0.000002
C84	C	1.738747	0.591675	0.499998
C85	C	0.985306	0.223077	0.000007
C86	C	1.485306	0.723077	0.500007
C87	C	0.986676	0.300585	0.000013
C88	C	1.486676	0.800585	0.500013
N89	N	0.991895	0.095422	-0.189705
N90	N	1.491895	0.595422	0.310295
C91	C	1.049215	0.047965	-0.771987
C92	C	1.549215	0.547965	-0.271987
C93	C	1.049217	0.047966	-0.695342
C94	C	1.549217	0.547966	-0.195342
C95	C	0.991921	0.095421	-0.657017
C96	C	1.491921	0.595421	-0.157017
C97	C	0.934634	0.142890	-0.695344
C98	C	1.434634	0.642890	-0.195344
C99	C	0.934640	0.142892	-0.771987
C100	C	1.434640	0.642892	-0.271987
N101	N	0.917556	0.104290	-0.536689
N102	N	1.417556	0.604290	-0.036689
N103	N	0.917553	0.104284	-0.463881
N104	N	1.417553	0.604284	0.036119
C105	C	0.991900	0.095420	-0.426095
C106	C	1.491900	0.595420	0.073905
N107	N	1.066253	0.086548	-0.463867
N108	N	1.566253	0.586548	0.036133
N109	N	1.066256	0.086550	-0.536682
N110	N	1.566256	0.586550	-0.036682
C111	C	0.991908	0.095425	-0.573910
C112	C	1.491908	0.595425	-0.073910
C113	C	1.049188	0.047959	-0.304670
C114	C	1.549188	0.547959	0.195330
C115	C	1.049191	0.047965	-0.228024
C116	C	1.549191	0.547965	0.271976
C117	C	0.934601	0.142886	-0.228028
C118	C	1.434601	0.642886	0.271972
C119	C	0.934606	0.142883	-0.304672
C120	C	1.434606	0.642883	0.195328
C121	C	0.991899	0.095416	-0.342989
C122	C	1.491899	0.595416	0.157011
N123	N	0.991933	0.095425	0.189696
N124	N	1.491933	0.595425	0.689696
H125	H	0.524488	0.218823	-0.000046
H126	H	1.024488	0.718823	0.499954
F127	F	0.986616	-0.701773	-0.137007
F128	F	1.486616	-0.201773	0.362993
H129	H	0.459520	-0.028034	-0.000087
H130	H	0.959520	0.471966	0.499913
F131	F	0.997216	-0.107378	0.137002
F132	F	1.497216	0.392622	0.637002
H133	H	0.989130	-0.560549	-0.120418
H134	H	1.489130	-0.060549	0.379582
F135	F	0.986649	-0.701732	0.137032
F136	F	1.486649	-0.201732	0.637032
F137	F	0.994542	-0.257705	0.137008
F138	F	1.494542	0.242295	0.637008
F139	F	0.563167	0.026432	0.126352
F140	F	1.063167	0.526432	0.626352
F141	F	0.562960	0.026422	-0.126507
F142	F	1.062960	0.526422	0.373493
F143	F	0.420706	0.164487	0.126350
F144	F	0.920706	0.664487	0.626350
F145	F	1.110165	-0.002547	-0.187242
F146	F	1.610165	0.497453	0.312758
H147	H	0.994660	-0.248638	-0.120429
H148	H	1.494660	0.251362	0.379571
H149	H	1.095842	0.009310	-0.335869
H150	H	1.595842	0.509310	0.164131
F151	F	0.873670	0.193407	-0.812769
F152	F	1.373670	0.693407	-0.312769
F153	F	0.873635	0.193393	-0.345456
F154	F	1.373635	0.693393	0.154544
H155	H	1.095868	0.009316	-0.803182
H156	H	1.595868	0.509316	-0.303182
F157	F	1.110187	-0.002550	-0.654555
F158	F	1.610187	0.497450	-0.154555
F159	F	0.873628	0.193395	-0.187243
F160	F	1.373628	0.693395	0.312757
F161	F	0.420671	0.164480	-0.126375
F162	F	0.920671	0.664480	0.373625
F163	F	0.997153	-0.107410	-0.137039
F164	F	1.497153	0.392590	0.362961
H165	H	0.989167	-0.560515	0.120431
H166	H	1.489167	-0.060515	0.620431
F167	F	0.873659	0.193398	-0.654556
F168	F	1.373659	0.693398	-0.154556
