data_functionalizedCrystal
_audit_creation_method	'MofGen! by Chris Wilmer'
_symmetry_space_group_name_H-M	'P1'
_symmetry_Int_Tables_number	1
_symmetry_cell_setting	triclinic
loop_
_symmetry_equiv_pos_as_xyz
  x,y,z
_cell_length_a	10.654545
_cell_length_b	10.654550
_cell_length_c	9.130313
_cell_angle_alpha	89.996647
_cell_angle_beta	89.996934
_cell_angle_gamma	84.483991
loop_
_atom_site_label
_atom_site_type_symbol
_atom_site_fract_x
_atom_site_fract_y
_atom_site_fract_z
O1	O	1.667843	0.176372	-0.121781
O2	O	1.302364	0.193184	-0.121786
O3	O	1.493506	0.002038	-0.121778
O4	O	1.476700	0.367517	-0.121789
O5	O	1.493493	0.002033	0.121821
O6	O	1.302350	0.193178	0.121812
O7	O	1.667830	0.176366	0.121818
Cu8	Cu	1.485089	0.184772	0.144058
Cu9	Cu	1.485104	0.184778	-0.144026
O10	O	1.476687	0.367511	0.121810
C11	C	1.255559	0.191948	0.000012
C12	C	1.116115	0.188258	0.000010
C13	C	1.050604	0.186518	0.132797
C14	C	0.919584	0.183030	0.132797
C15	C	0.919599	0.183028	-0.132788
C16	C	1.050617	0.186507	-0.132787
C17	C	1.492266	-0.044762	0.000020
C18	C	1.488574	-0.184206	0.000014
C19	C	1.601115	-0.263693	0.000021
C20	C	1.597639	-0.394714	0.000010
C21	C	1.369069	-0.366747	-0.000006
C22	C	1.372547	-0.235729	-0.000006
C23	C	1.717142	-0.212170	0.000041
C24	C	1.829693	-0.291659	0.000049
C25	C	1.826217	-0.422680	0.000039
C26	C	1.710189	-0.474212	0.000021
C27	C	1.714634	0.177602	0.000016
C28	C	1.854078	0.181292	0.000009
C29	C	1.477927	0.414312	0.000009
C30	C	1.481619	0.553755	0.000004
N31	N	1.485087	0.184766	0.346680
N32	N	1.485116	0.184774	-0.346649
C33	C	1.569754	0.100163	0.423336
C34	C	1.569766	0.100163	0.576673
C35	C	1.400440	0.269381	0.576685
C36	C	1.400423	0.269374	0.423351
H37	H	1.103928	0.187944	0.240928
H38	H	1.719986	-0.105488	0.000054
H39	H	1.274605	-0.408715	-0.000019
N40	N	1.661102	0.008931	0.659353
H41	H	1.714736	-0.044659	0.587511
H42	H	1.717032	0.057555	0.722943
N43	N	1.309089	0.360618	0.340659
H44	H	1.255462	0.414222	0.412494
H45	H	1.357635	0.416586	0.277014
N46	N	1.954832	-0.236087	0.000068
H47	H	1.939960	-0.141026	0.000081
H48	H	2.004113	-0.265108	0.090378
N49	N	1.309128	0.360633	0.659380
H50	H	1.321987	0.347804	0.768149
H51	H	1.324400	0.449864	0.632559
H52	H	1.638690	0.031269	0.360914
N53	N	0.848925	0.181148	0.276017
H54	H	0.910409	0.181899	0.360133
H55	H	0.785657	0.257877	0.282244
N56	N	1.947602	-0.508417	0.000034
H57	H	2.021626	-0.455891	0.000048
H58	H	1.951126	-0.563392	0.090338
H59	H	1.707368	-0.580899	-0.000003
N60	N	1.251178	-0.149967	-0.000003
H61	H	1.200608	-0.166639	-0.090305
H62	H	1.200700	-0.166687	0.090359
N63	N	0.848955	0.181138	-0.276013
H64	H	0.756014	0.178672	-0.255867
H65	H	0.862350	0.259462	-0.334009
H66	H	1.103959	0.187920	-0.240924
