data_functionalizedCrystal
_audit_creation_method	'MofGen! by Chris Wilmer'
_symmetry_space_group_name_H-M	'P1'
_symmetry_Int_Tables_number	1
_symmetry_cell_setting	triclinic
loop_
_symmetry_equiv_pos_as_xyz
  x,y,z
_cell_length_a	19.077105
_cell_length_b	19.121063
_cell_length_c	19.076919
_cell_angle_alpha	85.393653
_cell_angle_beta	89.923776
_cell_angle_gamma	90.263052
loop_
_atom_site_label
_atom_site_type_symbol
_atom_site_fract_x
_atom_site_fract_y
_atom_site_fract_z
Zn1	Zn	1.043169	-0.339734	0.454309
Zn2	Zn	1.543169	0.160266	0.954309
Zn3	Zn	1.042790	-0.452646	0.341419
Zn4	Zn	1.542790	0.047354	0.841419
Zn5	Zn	0.930805	-0.330327	0.331718
Zn6	Zn	1.430805	0.169673	0.831718
Zn7	Zn	0.920631	-0.452222	0.454155
Zn8	Zn	1.420631	0.047778	0.954155
O9	O	0.984349	-0.393732	0.395400
O10	O	1.484349	0.106268	0.895400
O11	O	1.141268	-0.358826	0.443459
O12	O	1.641268	0.141174	0.943459
O13	O	1.032035	-0.432660	0.241647
O14	O	1.532035	0.067340	0.741647
O15	O	0.950127	-0.233307	0.343985
O16	O	1.450127	0.266693	0.843985
O17	O	1.140989	-0.441782	0.360519
O18	O	1.640989	0.058218	0.860519
O19	O	1.032681	-0.240219	0.434052
O20	O	1.532681	0.259781	0.934052
O21	O	0.949760	-0.342793	0.234520
O22	O	1.449760	0.157207	0.734520
O23	O	0.831307	-0.342382	0.343835
O24	O	1.331307	0.157618	0.843835
O25	O	0.932786	-0.441060	0.552660
O26	O	1.432786	0.058940	1.052660
O27	O	0.823831	-0.431938	0.433788
O28	O	1.323831	0.068062	0.933788
O29	O	1.022815	-0.358416	0.552774
O30	O	1.522815	0.141584	1.052774
O31	O	1.022169	-0.550857	0.360369
O32	O	1.522169	-0.050857	0.860369
O33	O	0.932419	-0.550546	0.443195
O34	O	1.432419	-0.050546	0.943195
C35	C	0.802120	-0.386094	0.387742
C36	C	1.302120	0.113906	0.887742
C37	C	0.724160	-0.382844	0.384484
C38	C	1.224160	0.117156	0.884484
C39	C	0.683661	-0.428009	0.429719
C40	C	1.183661	0.071991	0.929719
C41	C	0.610410	-0.424946	0.426660
C42	C	1.110410	0.075054	0.926660
C43	C	0.577659	-0.376721	0.378362
C44	C	1.077659	0.123279	0.878362
C45	C	0.618164	-0.331551	0.333125
C46	C	1.118164	0.168449	0.833125
C47	C	0.691414	-0.334611	0.336188
C48	C	1.191414	0.165389	0.836188
C49	C	0.359002	-0.362559	0.364190
C50	C	0.859002	0.137441	0.864190
C51	C	0.285746	-0.359503	0.361130
C52	C	0.785746	0.140497	0.861130
C53	C	0.277998	-0.452898	0.454666
C54	C	0.777998	0.047102	0.954666
C55	C	0.351249	-0.455957	0.457722
C56	C	0.851249	0.044043	0.957722
C57	C	0.391747	-0.410784	0.412487
C58	C	0.891747	0.089216	0.912487
N59	N	0.502785	-0.373590	0.375233
N60	N	1.002785	0.126410	0.875233
N61	N	0.466620	-0.413912	0.415620
N62	N	0.966620	0.086088	0.915620
C63	C	0.976167	-0.576182	0.402834
C64	C	1.476167	-0.076182	0.902834
C65	C	0.972730	-0.654239	0.406041
C66	C	1.472730	-0.154239	0.906041
C67	C	1.017877	-0.691052	0.364463
C68	C	1.517877	-0.191052	0.864463
C69	C	1.014648	-0.764395	0.367483
C70	C	1.514648	-0.264395	0.867483
C71	C	0.966269	-0.800923	0.412078
C72	C	1.466269	-0.300923	0.912078
C73	C	0.921120	-0.764105	0.453660
C74	C	1.421120	-0.264105	0.953660
C75	C	0.924353	-0.690764	0.450644
C76	C	1.424353	-0.190764	0.950644
C77	C	0.954173	-1.022359	0.423346
C78	C	1.454173	-0.522359	0.923346
C79	C	0.950942	-1.095705	0.426358
C80	C	1.450942	-0.595705	0.926358
C81	C	1.044471	-1.095990	0.340181
C82	C	1.544471	-0.595990	0.840181
C83	C	1.047697	-1.022647	0.337165
C84	C	1.547697	-0.522647	0.837165
C85	C	1.002551	-0.985836	0.378750
C86	C	1.502551	-0.485836	0.878750
C87	C	0.962966	-0.875891	0.415164
C88	C	1.462966	-0.375891	0.915164
C89	C	1.005857	-0.910869	0.375667
C90	C	1.505857	-0.410869	0.875667
C91	C	1.167289	-0.401401	0.403088
C92	C	1.667289	0.098599	0.903088
C93	C	1.245247	-0.404669	0.406365
C94	C	1.745247	0.095331	0.906365
C95	C	0.976708	-0.400740	0.578967
C96	C	1.476708	0.099260	1.078967
C97	C	0.973452	-0.403726	0.657192
C98	C	1.473452	0.096274	1.157192
C99	C	0.992581	-0.210571	0.387953
C100	C	1.492581	0.289429	0.887953
C101	C	0.996089	-0.132518	0.384780
C102	C	1.496089	0.367482	0.884780
C103	C	0.992003	-0.386702	0.212547
C104	C	1.492003	0.113298	0.712547
C105	C	0.995403	-0.383524	0.134320
C106	C	1.495403	0.116476	0.634320
C107	C	1.018793	-0.362103	0.694003
C108	C	1.518793	0.137897	1.194003
C109	C	1.015725	-0.364906	0.767503
C110	C	1.515725	0.135094	1.267503
C111	C	0.967319	-0.409336	0.804192
C112	C	1.467319	0.090664	1.304192
C113	C	0.921973	-0.450962	0.767376
C114	C	1.421973	0.049038	1.267376
C115	C	0.925038	-0.448154	0.693877
C116	C	1.425038	0.051846	1.193877
C117	C	0.953123	-0.422342	1.024005
C118	C	1.453123	0.077658	1.524005
C119	C	0.950063	-0.425148	1.097510
C120	C	1.450063	0.074852	1.597510
C121	C	1.043814	-0.339090	1.097632
C122	C	1.543814	0.160910	1.597632
C123	C	1.046877	-0.336290	1.024131
C124	C	1.546877	0.163710	1.524131
C125	C	1.001529	-0.377913	0.987321
C126	C	1.501529	0.122087	1.487321
N127	N	0.964183	-0.412204	0.879321
N128	N	1.464183	0.087796	1.379321
N129	N	1.004662	-0.375041	0.912193
N130	N	1.504662	0.124959	1.412193
H131	H	0.377909	-0.495228	0.497049
H132	H	0.877909	0.004772	0.997049
N133	N	0.252282	-0.310246	0.311792
N134	N	0.752282	0.189754	0.811792
N135	N	0.212165	-0.331464	0.266199
N136	N	0.712165	0.168536	0.766199
H137	H	0.188530	-0.296679	0.231354
H138	H	0.688530	0.203321	0.731354
H139	H	1.051411	-0.794364	0.333625
H140	H	1.551411	-0.294364	0.833625
H141	H	1.080733	-0.305203	1.127610
H142	H	1.580733	0.194797	1.627610
N143	N	0.400353	-0.316417	0.317977
N144	N	0.900353	0.183583	0.817977
N145	N	0.371100	-0.273367	0.274854
N146	N	0.871100	0.226633	0.774854
H147	H	0.400306	-0.240779	0.242211
H148	H	0.900306	0.259221	0.742211
H149	H	0.917412	-0.992393	0.457205
H150	H	1.417412	-0.492393	0.957205
N151	N	0.584701	-0.282288	0.283799
N152	N	1.084701	0.217712	0.783799
N153	N	0.519300	-0.279562	0.281069
N154	N	1.019300	0.220438	0.781069
H155	H	0.495667	-0.244770	0.246231
H156	H	0.995667	0.255230	0.746231
N157	N	0.872516	-0.496330	0.804856
N158	N	1.372516	0.003670	1.304856
N159	N	0.827229	-0.471304	0.842983
N160	N	1.327229	0.028696	1.342983
H161	H	0.792299	-0.503344	0.869455
H162	H	1.292299	-0.003344	1.369455
N163	N	1.097117	-0.985347	0.291606
N164	N	1.597117	-0.485347	0.791606
N165	N	1.137423	-1.018225	0.254485
N166	N	1.637423	-0.518225	0.754485
H167	H	1.172325	-0.991882	0.222305
H168	H	1.672325	-0.491882	0.722305
H169	H	1.057269	-0.661315	0.328146
H170	H	1.557269	-0.161315	0.828146
N171	N	1.096333	-0.290908	0.986668
N172	N	1.596333	0.209092	1.486668
N173	N	1.136816	-0.253749	1.019544
N174	N	1.636816	0.246251	1.519544
H175	H	1.171749	-0.221700	0.993087
H176	H	1.671749	0.278300	1.493087
N177	N	0.900589	-0.470515	1.134975
N178	N	1.400589	0.029485	1.634975
N179	N	0.860088	-0.507658	1.102101
N180	N	1.360088	-0.007658	1.602101
H181	H	0.825141	-0.539689	1.128559
H182	H	1.325141	-0.039689	1.628559
N183	N	0.732775	-0.288464	0.289983
N184	N	1.232775	0.211536	0.789983
N185	N	0.703527	-0.245406	0.246865
N186	N	1.203527	0.254594	0.746865
H187	H	0.732737	-0.212809	0.214234
H188	H	1.232737	0.287191	0.714234
N189	N	0.878725	-0.490663	0.656261
N190	N	1.378725	0.009337	1.156261
N191	N	0.836855	-0.462512	0.612363
N192	N	1.336855	0.037488	1.112363
H193	H	0.804143	-0.492532	0.585796
H194	H	1.304143	0.007468	1.085796
H195	H	1.081228	-1.125969	0.306326
H196	H	1.581228	-0.625969	0.806326
H197	H	0.911554	-1.125446	0.462685
H198	H	1.411554	-0.625446	0.962685
N199	N	0.871691	-0.801404	0.499210
N200	N	1.371691	-0.301404	0.999210
N201	N	0.831383	-0.768524	0.536327
N202	N	1.331383	-0.268524	1.036327
H203	H	0.796470	-0.794865	0.568496
H204	H	1.296470	-0.294865	1.068496
H205	H	0.887591	-0.660792	0.484502
H206	H	1.387591	-0.160792	0.984502
H207	H	1.045250	-0.881126	0.339361
H208	H	1.545250	-0.381126	0.839361
N209	N	0.913546	-0.913218	0.460702
N210	N	1.413546	-0.413218	0.960702
N211	N	0.868107	-0.951379	0.435704
N212	N	1.368107	-0.451379	0.935704
H213	H	0.833205	-0.977745	0.467865
H214	H	1.333205	-0.477745	0.967865
N215	N	1.068247	-0.316718	0.656541
N216	N	1.568247	0.183282	1.156541
N217	N	1.108725	-0.279557	0.689420
N218	N	1.608725	0.220443	1.189420
H219	H	1.143653	-0.247501	0.662965
H220	H	1.643653	0.252499	1.162965
N221	N	1.062044	-0.322383	0.805093
N222	N	1.562044	0.177617	1.305093
N223	N	1.105264	-0.282720	0.772328
N224	N	1.605264	0.217280	1.272328
H225	H	1.137980	-0.252686	0.798875
H226	H	1.637980	0.247314	1.298875
N227	N	0.906798	-0.464862	0.986422
N228	N	1.406798	0.035138	1.486422
N229	N	0.863584	-0.504530	1.019191
N230	N	1.363584	-0.004530	1.519191
H231	H	0.830865	-0.534562	0.992646
H232	H	1.330865	-0.034562	1.492646
H233	H	0.710321	-0.467281	0.469046
H234	H	1.210321	0.032719	0.969046
H235	H	0.245016	-0.489674	0.491494
H236	H	0.745016	0.010326	0.991494
N237	N	0.569052	-0.471082	0.472876
N238	N	1.069052	0.028918	0.972876
N239	N	0.598302	-0.514138	0.515995
N240	N	1.098302	-0.014138	1.015995
H241	H	0.569093	-0.546723	0.548639
H242	H	1.069093	-0.046723	1.048639
