data_functionalizedCrystal
_audit_creation_method	'MofGen! by Chris Wilmer'
_symmetry_space_group_name_H-M	'P1'
_symmetry_Int_Tables_number	1
_symmetry_cell_setting	triclinic
loop_
_symmetry_equiv_pos_as_xyz
  x,y,z
_cell_length_a	10.654541
_cell_length_b	10.540539
_cell_length_c	9.730217
_cell_angle_alpha	89.998866
_cell_angle_beta	89.999932
_cell_angle_gamma	84.504710
loop_
_atom_site_label
_atom_site_type_symbol
_atom_site_fract_x
_atom_site_fract_y
_atom_site_fract_z
O1	O	1.667901	0.178284	-0.114241
O2	O	1.302428	0.195274	-0.114252
O3	O	1.493503	0.002070	-0.114244
O4	O	1.476827	0.371489	-0.114248
O5	O	1.493497	0.002068	0.114336
O6	O	1.302422	0.195273	0.114328
O7	O	1.667895	0.178282	0.114339
Zn8	Zn	1.485158	0.186777	0.150626
Zn9	Zn	1.485166	0.186779	-0.150538
O10	O	1.476821	0.371487	0.114332
C11	C	1.255627	0.194027	0.000036
C12	C	1.116182	0.190296	0.000032
C13	C	1.492249	-0.045234	0.000043
C14	C	1.488508	-0.186180	0.000036
C15	C	1.088292	0.421325	0.000012
C16	C	1.008838	0.535081	-0.000003
C17	C	0.877819	0.531569	-0.000004
C18	C	0.826252	0.414286	0.000014
C19	C	0.905707	0.300530	0.000029
C20	C	1.036727	0.304055	0.000026
C21	C	0.933596	0.069504	0.000059
C22	C	1.064615	0.073014	0.000050
C23	C	0.882029	-0.047778	0.000077
C24	C	0.961484	-0.161538	0.000082
C25	C	1.092511	-0.158020	0.000082
C26	C	1.144070	-0.040742	0.000065
C27	C	1.345136	-0.369555	-0.000482
C28	C	1.348929	-0.222938	0.000033
C29	C	1.555676	-0.247864	0.130568
C30	C	1.550912	-0.394407	0.130678
C31	C	1.553758	-0.394924	-0.129260
C32	C	1.555043	-0.247942	-0.130986
C33	C	1.714697	0.179530	0.000048
C34	C	1.854142	0.183260	0.000043
C35	C	1.478074	0.418790	0.000041
C36	C	1.481816	0.559737	0.000040
N37	N	1.485162	0.186775	0.356162
N38	N	1.485172	0.186772	-0.356075
C39	C	1.654428	0.015742	0.356160
C40	C	1.739070	-0.069770	0.428098
C41	C	1.739082	-0.069771	0.571978
C42	C	1.654442	0.015747	0.643922
C43	C	1.569800	0.101260	0.571984
C44	C	1.569799	0.101254	0.428101
C45	C	1.400530	0.272284	0.571986
C46	C	1.400521	0.272293	0.428107
C47	C	1.315890	0.357803	0.643931
C48	C	1.231252	0.443324	0.571992
C49	C	1.231244	0.443322	0.428104
C50	C	1.315880	0.357806	0.356168
H51	H	1.194974	0.424197	-0.000017
N52	N	1.825399	-0.157265	0.354630
N53	N	1.900869	-0.233703	0.418879
H54	H	1.961785	-0.295554	0.366998
N55	N	1.825538	-0.157136	0.645447
N56	N	1.901094	-0.233490	0.581206
H57	H	1.962154	-0.295194	0.633092
N58	N	1.654431	0.015712	0.790891
N59	N	1.632786	-0.082575	0.855092
H60	H	1.632776	-0.082606	0.958891
N61	N	1.488612	-0.429790	0.253056
N62	N	1.473828	-0.544211	0.275260
H63	H	1.429823	-0.569197	0.361690
H64	H	1.162314	0.512952	0.369539
H65	H	1.315885	0.357801	0.239014
H66	H	0.719568	0.411436	0.000029
N67	N	1.497090	-0.434503	-0.253365
N68	N	1.402982	-0.496616	-0.248019
H69	H	1.362950	-0.524573	-0.335661
N70	N	1.276213	-0.407374	0.116283
N71	N	1.176749	-0.459513	0.099780
H72	H	1.128070	-0.486212	0.182250
H73	H	1.509012	-0.205248	0.227703
H74	H	1.290002	-0.398134	-0.094089
H75	H	1.250751	-0.037867	0.000049
N76	N	1.682714	-0.217629	-0.140854
N77	N	1.770904	-0.304836	-0.141187
H78	H	1.861078	-0.283429	-0.148142
H79	H	0.919487	-0.257019	0.000096
H80	H	1.050838	0.630571	-0.000014
H81	H	1.296077	-0.180314	-0.093538
N82	N	1.315906	0.357779	0.790900
N83	N	1.391483	0.281425	0.855117
H84	H	1.391496	0.281410	0.958916
N85	N	1.144801	0.530650	0.645501
N86	N	1.144814	0.530625	0.773964
H87	H	1.083757	0.592301	0.825886
N88	N	1.282156	-0.170540	0.117613
N89	N	1.232612	-0.242272	0.199555
H90	H	1.185453	-0.205269	0.282604
H91	H	1.651295	-0.442412	0.136603
H92	H	1.658178	-0.225548	0.135424
N93	N	0.796651	0.647764	0.000010
N94	N	0.801937	0.725506	0.096359
H95	H	0.744611	0.807569	0.096372
H96	H	0.775346	-0.050630	0.000083
N97	N	1.654397	0.015756	0.209191
N98	N	1.578816	0.092110	0.144977
H99	H	1.578794	0.092120	0.041178
H100	H	1.157196	-0.250655	0.000100
N101	N	1.493460	-0.196564	-0.252121
N102	N	1.400913	-0.114760	-0.242102
H103	H	1.357416	-0.078466	-0.327652
H104	H	1.654575	-0.442187	-0.130135
