data_functionalizedCrystal
_audit_creation_method	'MofGen! by Chris Wilmer'
_symmetry_space_group_name_H-M	'P1'
_symmetry_Int_Tables_number	1
_symmetry_cell_setting	triclinic
loop_
_symmetry_equiv_pos_as_xyz
  x,y,z
_cell_length_a	17.699104
_cell_length_b	14.421503
_cell_length_c	17.699083
_cell_angle_alpha	90.000692
_cell_angle_beta	96.712734
_cell_angle_gamma	89.993796
loop_
_atom_site_label
_atom_site_type_symbol
_atom_site_fract_x
_atom_site_fract_y
_atom_site_fract_z
O1	O	1.004054	0.077132	-0.095781
O2	O	1.504054	0.577132	0.404219
O3	O	0.783678	0.077130	-0.108217
O4	O	1.283678	0.577130	0.391783
O5	O	0.900092	0.077123	0.008190
O6	O	1.400092	0.577123	0.508190
O7	O	0.887640	0.077139	-0.212187
O8	O	1.387640	0.577139	0.287813
O9	O	0.900106	-0.077100	0.008183
O10	O	1.400106	0.422900	0.508183
O11	O	0.783692	-0.077093	-0.108224
O12	O	1.283692	0.422907	0.391776
O13	O	1.004068	-0.077091	-0.095788
O14	O	1.504068	0.422909	0.404212
Cu15	Cu	0.893881	-0.091174	-0.102007
Cu16	Cu	1.393881	0.408826	0.397993
Cu17	Cu	0.893864	0.091213	-0.101998
Cu18	Cu	1.393864	0.591213	0.398002
O19	O	0.887654	-0.077084	-0.212195
O20	O	1.387654	0.422916	0.287805
C21	C	0.755488	0.000018	-0.107772
C22	C	1.255488	0.500018	0.392228
C23	C	0.671471	0.000017	-0.106427
C24	C	1.171471	0.500017	0.393573
N25	N	0.893898	-0.219455	-0.102013
N26	N	1.393898	0.280545	0.397987
C27	C	0.146600	0.000031	-0.167171
C28	C	0.646600	0.500031	0.332829
C29	C	0.225543	0.000034	-0.168430
C30	C	0.725543	0.500034	0.331570
C31	C	0.274161	0.000029	-0.100095
C32	C	0.774161	0.500029	0.399905
C33	C	0.243831	0.000030	-0.030496
C34	C	0.743831	0.500030	0.469504
C35	C	0.164889	0.000034	-0.029238
C36	C	0.664889	0.500034	0.470762
C37	C	0.562197	0.000016	-0.035569
C38	C	1.062197	0.500016	0.464431
C39	C	0.641144	0.000009	-0.036833
C40	C	1.141144	0.500009	0.463167
C41	C	0.622852	0.000016	-0.174762
C42	C	1.122852	0.500016	0.325238
C43	C	0.543909	0.000020	-0.173503
C44	C	1.043909	0.500020	0.326497
C45	C	0.513587	0.000026	-0.103905
C46	C	1.013587	0.500026	0.396095
C47	C	0.427987	0.000025	-0.102541
C48	C	0.927987	0.500025	0.397459
C49	C	0.359759	0.000023	-0.101459
C50	C	0.859759	0.500023	0.398541
C51	C	0.947740	-0.469087	-0.048174
C52	C	1.447740	0.030913	0.451826
C53	C	0.879378	-0.530886	-0.033596
C54	C	1.379378	-0.030886	0.466404
C55	C	0.893881	-0.408617	-0.102004
C56	C	1.393881	0.091383	0.397996
C57	C	0.962227	-0.530912	-0.116538
C58	C	1.462227	-0.030912	0.383462
C59	C	0.893871	-0.591338	-0.101993
C60	C	1.393871	-0.091338	0.398007
C61	C	0.825485	-0.469055	-0.087391
C62	C	1.325485	0.030945	0.412609
C63	C	0.908379	-0.469075	-0.170363
C64	C	1.408379	0.030925	0.329637
C65	C	0.839968	-0.530846	-0.155813
C66	C	1.339968	-0.030846	0.344187
C67	C	0.893888	-0.303356	-0.102008
C68	C	1.393888	0.196644	0.397992
C69	C	0.893857	-0.696597	-0.101989
C70	C	1.393857	-0.196597	0.398011
C71	C	1.032258	0.000023	-0.096233
C72	C	1.532258	0.500023	0.403767
C73	C	1.116275	0.000030	-0.097578
C74	C	1.616275	0.500030	0.402422
C75	C	0.899653	0.000011	0.036383
C76	C	1.399653	0.500011	0.536383
C77	C	0.898314	0.000011	0.120402
C78	C	1.398314	0.500011	0.620402
N79	N	0.893853	0.219494	-0.101986
N80	N	1.393853	0.719494	0.398014
C81	C	0.888093	0.000030	-0.240388
C82	C	1.388093	0.500030	0.259612
C83	C	0.889431	0.000036	-0.324406
C84	C	1.389431	0.500036	0.175594
C85	C	0.966647	0.000010	0.169017
C86	C	1.466647	0.500010	0.669017
C87	C	0.965385	0.000018	0.247961
C88	C	1.465385	0.500018	0.747961
C89	C	0.895789	0.000021	0.278287
C90	C	1.395789	0.500021	0.778287
C91	C	0.827451	0.000024	0.229665
C92	C	1.327451	0.500024	0.729665
C93	C	0.828714	0.000023	0.150723
C94	C	1.328714	0.500023	0.650723
C95	C	0.822356	0.000032	0.548028
C96	C	1.322356	0.500032	1.048028
C97	C	0.821098	0.000030	0.626976
C98	C	1.321098	0.500030	1.126976
C99	C	0.959026	0.000027	0.645266
C100	C	1.459026	0.500027	1.145266
C101	C	0.960289	0.000026	0.566324
C102	C	1.460289	0.500026	1.066324
C103	C	0.891952	0.000034	0.517709
C104	C	1.391952	0.500034	1.017709
C105	C	0.893321	0.000027	0.432110
C106	C	1.393321	0.500027	0.932110
C107	C	0.894419	0.000021	0.363885
C108	C	1.394419	0.500021	0.863885
H109	H	0.107020	0.000029	-0.222818
H110	H	0.607020	0.500029	0.277182
Cl111	Cl	0.742806	0.000027	0.089605
Cl112	Cl	1.242806	0.500027	0.589605
Cl113	Cl	0.736445	0.000044	0.486922
Cl114	Cl	1.236445	0.500044	0.986922
Cl115	Cl	0.263662	0.000041	-0.255923
Cl116	Cl	0.763662	0.500041	0.244077
Cl117	Cl	0.860423	-0.572798	0.055664
Cl118	Cl	1.360423	-0.072798	0.555664
Cl119	Cl	0.736221	-0.427287	-0.068300
Cl120	Cl	1.236221	0.072713	0.431700
H121	H	0.504328	0.000019	-0.229149
H122	H	1.004328	0.500019	0.270851
Cl123	Cl	1.017987	-0.427216	0.022143
Cl124	Cl	1.517987	0.072784	0.522143
Cl125	Cl	1.047784	0.000026	0.528205
Cl126	Cl	1.547784	0.500026	1.028205
Cl127	Cl	0.733599	0.000035	0.665099
Cl128	Cl	1.233599	0.500035	1.165099
Cl129	Cl	0.304951	0.000026	0.055412
Cl130	Cl	0.804951	0.500026	0.555412
Cl131	Cl	0.126766	0.000032	0.058255
Cl132	Cl	0.626766	0.500032	0.558255
Cl133	Cl	0.927362	-0.427116	-0.259595
Cl134	Cl	1.427362	0.072884	0.240405
H135	H	0.794368	-0.557791	-0.201334
H136	H	1.294368	-0.057791	0.298666
H137	H	1.020031	-0.558083	-0.128836
H138	H	1.520031	-0.058083	0.371164
Cl139	Cl	1.054144	-0.000002	0.130902
Cl140	Cl	1.554144	0.499998	0.630902
H141	H	0.537518	0.000018	0.021102
H142	H	1.037518	0.500018	0.521102
H143	H	1.021028	0.000016	0.287541
H144	H	1.521028	0.500016	0.787541
H145	H	0.647550	0.000015	-0.231432
H146	H	1.147550	0.500015	0.268568
H147	H	0.770785	0.000032	0.254362
H148	H	1.270785	0.500032	0.754362
Cl149	Cl	1.044938	0.000021	0.706387
Cl150	Cl	1.544938	0.500021	1.206387
H151	H	0.680728	0.000007	0.018817
H152	H	1.180728	0.500007	0.518817
