data_functionalizedCrystal
_audit_creation_method	'MofGen! by Chris Wilmer'
_symmetry_space_group_name_H-M	'P1'
_symmetry_Int_Tables_number	1
_symmetry_cell_setting	triclinic
loop_
_symmetry_equiv_pos_as_xyz
  x,y,z
_cell_length_a	11.026607
_cell_length_b	10.908878
_cell_length_c	9.482944
_cell_angle_alpha	102.129163
_cell_angle_beta	98.185432
_cell_angle_gamma	84.335404
loop_
_atom_site_label
_atom_site_type_symbol
_atom_site_fract_x
_atom_site_fract_y
_atom_site_fract_z
O1	O	1.519249	0.534560	0.120895
O2	O	2.019249	1.034560	0.620895
O3	O	1.177749	0.476059	0.120897
O4	O	1.677749	0.976059	0.620897
O5	O	1.393768	0.328841	0.120890
O6	O	1.893768	0.828841	0.620890
O7	O	1.303229	0.681778	0.120902
O8	O	1.803229	1.181778	0.620902
O9	O	1.368223	0.287231	-0.120903
O10	O	1.868223	0.787231	0.379097
O11	O	1.152204	0.434449	-0.120896
O12	O	1.652204	0.934449	0.379104
O13	O	1.493704	0.492950	-0.120898
O14	O	1.993704	0.992950	0.379102
Cu15	Cu	1.320621	0.459900	-0.142975
Cu16	Cu	1.820621	0.959900	0.357025
Cu17	Cu	1.350831	0.509109	0.142973
Cu18	Cu	1.850831	1.009109	0.642973
O19	O	1.277684	0.640168	-0.120891
O20	O	1.777684	1.140168	0.379109
C21	C	1.121943	0.444462	0.000001
C22	C	1.621943	0.944462	0.500001
C23	C	0.993722	0.412289	0.000001
C24	C	1.493722	0.912289	0.500001
C25	C	1.389457	0.262151	-0.000005
C26	C	1.889457	0.762151	0.499995
C27	C	1.414656	0.125424	0.000000
C28	C	1.914656	0.625424	0.500000
C29	C	1.322712	0.055162	0.000003
C30	C	1.822712	0.555162	0.500003
C31	C	1.348754	-0.086152	0.000008
C32	C	1.848754	0.413848	0.500008
C33	C	0.901989	0.501124	0.000005
C34	C	1.401989	1.001124	0.500005
C35	C	0.769465	0.467874	0.000006
C36	C	1.269465	0.967874	0.500006
C37	C	1.549509	0.524548	0.000001
C38	C	2.049509	1.024548	0.500001
C39	C	1.677731	0.556723	0.000010
C40	C	2.177731	1.056723	0.500010
C41	C	1.281995	0.706859	0.000007
C42	C	1.781995	1.206859	0.500007
C43	C	1.256797	0.843587	0.000011
C44	C	1.756797	1.343587	0.500011
N45	N	1.299382	0.425291	-0.344095
N46	N	1.799382	0.925291	0.155905
C47	C	1.344558	0.498898	-0.416294
C48	C	1.844558	0.998898	0.083706
C49	C	1.326899	0.470093	-0.583711
C50	C	1.826899	0.970093	-0.083711
N51	N	1.372082	0.543711	0.344094
N52	N	1.872082	1.043711	0.844094
H53	H	1.446757	-0.130614	0.000003
H54	H	1.946757	0.369386	0.500003
H55	H	0.921564	0.601794	0.000000
H56	H	1.421564	1.101794	0.500000
H57	H	0.974150	0.311624	0.000035
H58	H	1.474150	0.811624	0.500035
O59	O	1.413102	0.610632	-0.334014
O60	O	1.913102	1.110632	0.165986
H61	H	1.416205	0.615731	-0.215429
H62	H	1.916205	1.115731	0.284571
H63	H	1.275148	0.385742	-0.645838
H64	H	1.775148	0.885742	-0.145838
O65	O	1.440633	0.655449	-0.573635
O66	O	1.940633	1.155449	-0.073635
H67	H	1.443738	0.660550	-0.455049
H68	H	1.943738	1.160550	0.044951
O69	O	0.743563	0.334510	0.000002
O70	O	1.243563	0.834510	0.500002
H71	H	0.643540	0.329323	0.000012
H72	H	1.143540	0.829323	0.500012
O73	O	1.230835	0.313554	-0.426359
O74	O	1.730835	0.813554	0.073641
H75	H	1.149473	0.346240	-0.495716
H76	H	1.649473	0.846240	0.004284
O77	O	1.192897	0.114041	-0.000002
O78	O	1.692897	0.614041	0.499998
H79	H	1.192814	0.215797	0.000002
H80	H	1.692814	0.715797	0.500002
O81	O	0.703648	0.690081	0.000006
O82	O	1.203648	1.190081	0.500006
H83	H	0.652732	0.719420	-0.098552
H84	H	1.152732	1.219420	0.401448
O85	O	1.126975	-0.097540	0.000014
O86	O	1.626975	0.402460	0.500014
H87	H	1.126890	0.004217	0.000021
H88	H	1.626890	0.504217	0.500021
O89	O	1.544471	0.066544	-0.000002
O90	O	2.044471	0.566544	0.499998
H91	H	1.544555	-0.035209	0.000010
H92	H	2.044555	0.464791	0.500010
