data_functionalizedCrystal
_audit_creation_method	'MofGen! by Chris Wilmer'
_symmetry_space_group_name_H-M	'P1'
_symmetry_Int_Tables_number	1
_symmetry_cell_setting	triclinic
loop_
_symmetry_equiv_pos_as_xyz
  x,y,z
_cell_length_a	11.169417
_cell_length_b	11.169416
_cell_length_c	11.169409
_cell_angle_alpha	90.030816
_cell_angle_beta	90.022388
_cell_angle_gamma	90.008562
loop_
_atom_site_label
_atom_site_type_symbol
_atom_site_fract_x
_atom_site_fract_y
_atom_site_fract_z
Zn1	Zn	-1.834971	0.477768	-0.678613
Zn2	Zn	-1.501638	0.811101	-0.345280
Zn3	Zn	-1.168304	1.144434	-0.011947
Zn4	Zn	-1.834858	0.678508	-0.477935
Zn5	Zn	-1.501525	1.011841	-0.144602
Zn6	Zn	-1.168191	1.345175	0.188731
Zn7	Zn	-1.634254	0.477831	-0.477941
Zn8	Zn	-1.300921	0.811165	-0.144608
Zn9	Zn	-0.967588	1.144498	0.188725
Zn10	Zn	-1.634264	0.678401	-0.678574
Zn11	Zn	-1.300931	1.011734	-0.345241
Zn12	Zn	-0.967598	1.345068	-0.011907
O13	O	-1.734587	0.578127	-0.578266
O14	O	-1.401254	0.911460	-0.244933
O15	O	-1.067920	1.244794	0.088401
O16	O	-2.002906	0.504414	-0.652007
O17	O	-1.669572	0.837748	-0.318674
O18	O	-1.336239	1.171081	0.014660
O19	O	-1.808196	0.651959	-0.309986
O20	O	-1.474862	0.985292	0.023347
O21	O	-1.141529	1.318626	0.356680
O22	O	-1.660923	0.309873	-0.504580
O23	O	-1.327590	0.643206	-0.171247
O24	O	-0.994256	0.976540	0.162087
O25	O	-2.002823	0.651897	-0.504570
O26	O	-1.669489	0.985231	-0.171236
O27	O	-1.336156	1.318564	0.162097
O28	O	-1.808389	0.309826	-0.652013
O29	O	-1.475055	0.643160	-0.318679
O30	O	-1.141722	0.976493	0.014654
O31	O	-1.660813	0.504523	-0.309991
O32	O	-1.327480	0.837856	0.023343
O33	O	-0.994147	1.171189	0.356676
O34	O	-1.466306	0.504419	-0.504542
O35	O	-1.132973	0.837752	-0.171208
O36	O	-0.799639	1.171086	0.162125
O37	O	-1.660940	0.651715	-0.846529
O38	O	-1.327607	0.985049	-0.513196
O39	O	-0.994274	1.318382	-0.179862
O40	O	-1.466313	0.651777	-0.651945
O41	O	-1.132980	0.985110	-0.318612
O42	O	-0.799647	1.318444	0.014721
O43	O	-1.808399	0.504311	-0.846558
O44	O	-1.475065	0.837644	-0.513225
O45	O	-1.141732	1.170977	-0.179891
O46	O	-1.808206	0.846443	-0.504531
O47	O	-1.474872	1.179777	-0.171198
O48	O	-1.141539	1.513110	0.162135
O49	O	-1.660830	0.846365	-0.651940
O50	O	-1.327497	1.179698	-0.318606
O51	O	-0.994164	1.513032	0.014727
C52	C	-1.422762	0.578094	-0.578241
C53	C	-1.089429	0.911428	-0.244907
C54	C	-0.756096	1.244761	0.088426
C55	C	-1.289362	0.578109	-0.578258
C56	C	-0.956029	0.911443	-0.244925
C57	C	-0.622696	1.244776	0.088408
C58	C	-1.734539	0.889952	-0.578257
C59	C	-1.401206	1.223285	-0.244923
C60	C	-1.067873	1.556618	0.088410
C61	C	-1.734629	1.023352	-0.578293
C62	C	-1.401296	1.356685	-0.244960
C63	C	-1.067962	1.690018	0.088374
C64	C	-1.734683	0.577994	-0.891309
C65	C	-1.401350	0.911327	-0.557975
C66	C	-1.068016	1.244661	-0.224642
C67	C	-1.734724	0.577937	-1.024709
C68	C	-1.401391	0.911271	-0.691375
C69	C	-1.068057	1.244604	-0.358042
C70	C	-1.047629	0.578149	-0.578284
C71	C	-0.714296	0.911482	-0.244951
C72	C	-0.380963	1.244816	0.088383
C73	C	-1.181029	0.578129	-0.578271
C74	C	-0.847696	0.911462	-0.244938
C75	C	-0.514363	1.244795	0.088395
C76	C	-1.734667	0.265085	-0.578301
C77	C	-1.401334	0.598418	-0.244968
C78	C	-1.068001	0.931751	0.088365
C79	C	-1.734702	0.131685	-0.578316
C80	C	-1.401368	0.465018	-0.244983
C81	C	-1.068035	0.798351	0.088350
C82	C	-1.734560	0.578173	-0.266441
C83	C	-1.401227	0.911506	0.066892
C84	C	-1.067894	1.244839	0.400225
C85	C	-1.734752	0.577891	-0.133042
C86	C	-1.401418	0.911225	0.200292
C87	C	-1.068085	1.244558	0.533625
