data_functionalizedCrystal
_audit_creation_method	'MofGen! by Chris Wilmer'
_symmetry_space_group_name_H-M	'P1'
_symmetry_Int_Tables_number	1
_symmetry_cell_setting	triclinic
loop_
_symmetry_equiv_pos_as_xyz
  x,y,z
_cell_length_a	19.805405
_cell_length_b	21.395362
_cell_length_c	21.395356
_cell_angle_alpha	90.047076
_cell_angle_beta	89.970920
_cell_angle_gamma	89.955329
loop_
_atom_site_label
_atom_site_type_symbol
_atom_site_fract_x
_atom_site_fract_y
_atom_site_fract_z
Zn1	Zn	-0.269150	-0.957872	-0.354648
Zn2	Zn	0.230850	-0.457872	0.145352
Zn3	Zn	-0.382338	-0.957784	-0.249868
Zn4	Zn	0.117662	-0.457784	0.250132
Zn5	Zn	-0.269205	-0.853089	-0.249842
Zn6	Zn	0.230795	-0.353089	0.250158
Zn7	Zn	-0.382339	-0.853064	-0.354565
Zn8	Zn	0.117661	-0.353064	0.145435
O9	O	-0.325758	-0.905453	-0.302231
O10	O	0.174242	-0.405453	0.197769
O11	O	-0.284142	-1.045539	-0.340794
O12	O	0.215858	-0.545539	0.159206
O13	O	-0.367353	-0.943870	-0.162187
O14	O	0.132647	-0.443870	0.337813
O15	O	-0.174481	-0.867036	-0.263768
O16	O	0.325519	-0.367036	0.236232
O17	O	-0.367301	-1.045474	-0.263813
O18	O	0.132699	-0.545474	0.236187
O19	O	-0.174441	-0.944020	-0.340769
O20	O	0.325559	-0.444020	0.159231
O21	O	-0.284235	-0.866951	-0.162167
O22	O	0.215765	-0.366951	0.337833
O23	O	-0.284235	-0.765408	-0.263688
O24	O	0.215765	-0.265408	0.236312
O25	O	-0.367302	-0.866994	-0.442254
O26	O	0.132698	-0.366994	0.057746
O27	O	-0.367354	-0.765390	-0.340628
O28	O	0.132646	-0.265390	0.159372
O29	O	-0.284143	-0.943996	-0.442315
O30	O	0.215857	-0.443996	0.057685
O31	O	-0.477055	-0.943846	-0.263733
O32	O	0.022945	-0.443846	0.236267
O33	O	-0.477055	-0.866909	-0.340653
O34	O	0.022945	-0.366909	0.159347
C35	C	-0.325801	-0.742665	-0.302146
C36	C	0.174199	-0.242665	0.197854
C37	C	-0.325836	-0.673024	-0.302125
C38	C	0.174164	-0.173024	0.197875
C39	C	-0.501614	-0.905382	-0.302200
C40	C	-0.001614	-0.405382	0.197800
C41	C	-0.576846	-0.905409	-0.302208
C42	C	-0.076846	-0.405409	0.197792
C43	C	-0.369175	-0.640317	-0.342126
C44	C	0.130825	-0.140317	0.157874
C45	C	-0.369161	-0.574882	-0.342149
C46	C	0.130839	-0.074882	0.157851
C47	C	-0.325816	-0.542155	-0.302161
C48	C	0.174184	-0.042155	0.197839
C49	C	-0.282468	-0.574869	-0.262158
C50	C	0.217532	-0.074869	0.237842
C51	C	-0.282478	-0.640303	-0.262140
C52	C	0.217522	-0.140303	0.237860
C53	C	-0.320377	-0.438431	-0.245748
C54	C	0.179623	0.061569	0.254252
C55	C	-0.320372	-0.372998	-0.245765
C56	C	0.179628	0.127002	0.254235
C57	C	-0.325781	-0.340335	-0.302215
C58	C	0.174219	0.159665	0.197785
C59	C	-0.331209	-0.373112	-0.358651
C60	C	0.168791	0.126888	0.141349
C61	C	-0.331219	-0.438546	-0.358633
C62	C	0.168781	0.061454	0.141367
C63	C	-0.325800	-0.471203	-0.302175
C64	C	0.174200	0.028797	0.197825
C65	C	-0.369107	-0.236676	-0.342244
C66	C	0.130893	0.263324	0.157756
C67	C	-0.369089	-0.171239	-0.342268
C68	C	0.130911	0.328761	0.157732
C69	C	-0.282399	-0.171228	-0.262272
C70	C	0.217601	0.328772	0.237728
C71	C	-0.282414	-0.236663	-0.262253
C72	C	0.217586	0.263337	0.237747
C73	C	-0.325772	-0.269383	-0.302238
C74	C	0.174228	0.230617	0.197762
C75	C	-0.612168	-0.945509	-0.262198
C76	C	-0.112168	-0.445509	0.237802
C77	C	-0.682856	-0.945536	-0.262212
C78	C	-0.182856	-0.445536	0.237788
C79	C	-0.718222	-0.905459	-0.302234
C80	C	-0.218222	-0.405459	0.197766
C81	C	-0.682895	-0.865357	-0.342249
C82	C	-0.182895	-0.365357	0.157751
C83	C	-0.612208	-0.865334	-0.342237
C84	C	-0.112208	-0.365334	0.157763
C85	C	-0.967968	-0.865449	-0.342295
C86	C	-0.467968	-0.365449	0.157705
C87	C	-1.038660	-0.865474	-0.342302
C88	C	-0.538660	-0.365474	0.157698
C89	C	-1.038616	-0.945651	-0.262269
C90	C	-0.538616	-0.445651	0.237731
C91	C	-0.967929	-0.945628	-0.262258
C92	C	-0.467929	-0.445628	0.237742
C93	C	-0.932609	-0.905529	-0.302275
C94	C	-0.432609	-0.405529	0.197725
C95	C	-0.855961	-0.905502	-0.302261
C96	C	-0.355961	-0.405502	0.197739
C97	C	-0.794869	-0.905483	-0.302245
C98	C	-0.294869	-0.405483	0.197755
C99	C	-0.149215	-0.905540	-0.302275
C100	C	0.350785	-0.405540	0.197725
C101	C	-0.073983	-0.905578	-0.302294
C102	C	0.426017	-0.405578	0.197706
C103	C	-0.325716	-0.905502	-0.465654
C104	C	0.174284	-0.405502	0.034346
C105	C	-0.325698	-0.905523	-0.535295
C106	C	0.174302	-0.405523	-0.035295
C107	C	-0.325727	-0.068876	-0.302298
C108	C	0.174273	0.431124	0.197702
C109	C	-0.325742	-0.138517	-0.302281
C110	C	0.174258	0.361483	0.197719
C111	C	-0.282413	-0.865482	-0.567989
C112	C	0.217587	-0.365482	-0.067989
C113	C	-0.282401	-0.865480	-0.633424
C114	C	0.217599	-0.365480	-0.133424
C115	C	-0.325666	-0.905530	-0.666164
C116	C	0.174334	-0.405530	-0.166164
C117	C	-0.368959	-0.945574	-0.633463
C118	C	0.131041	-0.445574	-0.133463
C119	C	-0.368975	-0.945570	-0.568029
C120	C	0.131025	-0.445570	-0.068029
C121	C	-0.330968	-0.961982	-0.769873
C122	C	0.169032	-0.461982	-0.269873
C123	C	-0.330947	-0.961987	-0.835306
C124	C	0.169053	-0.461987	-0.335306
C125	C	-0.325620	-0.905540	-0.867985
C126	C	0.174380	-0.405540	-0.367985
C127	C	-0.320300	-0.849087	-0.835222
C128	C	0.179700	-0.349087	-0.335222
C129	C	-0.320316	-0.849084	-0.769788
C130	C	0.179684	-0.349084	-0.269788
C131	C	-0.325654	-0.905538	-0.737116
C132	C	0.174346	-0.405538	-0.237116
C133	C	-0.282320	-0.865493	-0.971631
C134	C	0.217680	-0.365493	-0.471631
C135	C	-0.282312	-0.865490	-1.037067
C136	C	0.217688	-0.365490	-0.537067
C137	C	-0.368867	-0.945590	-1.037105
C138	C	0.131133	-0.445590	-0.537105
C139	C	-0.368878	-0.945587	-0.971669
C140	C	0.131122	-0.445587	-0.471669
C141	C	-0.325601	-0.905540	-0.938936
C142	C	0.174399	-0.405540	-0.438936
C143	C	-0.325751	-0.905439	-0.139443
C144	C	0.174249	-0.405439	0.360557
C145	C	-0.325578	-0.905540	-0.069802
C146	C	0.174422	-0.405540	0.430198
H147	H	-0.404453	-0.548247	-0.374724
H148	H	0.095547	-0.048247	0.125276
O149	O	-0.411223	-0.139396	-0.381040
O150	O	0.088777	0.360604	0.118960
C151	C	-0.502629	-0.065474	-0.389326
C152	C	-0.002629	0.434526	0.110674
C153	C	-0.454944	-0.101487	-0.345347
C154	C	0.045056	0.398513	0.154653
H155	H	-0.538000	-0.034826	-0.360485
H156	H	-0.038000	0.465174	0.139515
H157	H	-0.471635	-0.034862	-0.422141
H158	H	0.028365	0.465138	0.077859
H159	H	-0.533588	-0.100113	-0.417913
H160	H	-0.033588	0.399887	0.082087
H161	H	-0.423976	-0.066893	-0.316719
H162	H	0.076024	0.433107	0.183281
H163	H	-0.485978	-0.132109	-0.312573
H164	H	0.014022	0.367891	0.187427
O165	O	-0.240373	-0.139348	-0.223431
O166	O	0.259627	0.360652	0.276569
C167	C	-0.201944	-0.038538	-0.187998
C168	C	0.298056	0.461462	0.312002
C169	C	-0.249577	-0.074567	-0.232015
C170	C	0.250423	0.425433	0.267985
H171	H	-0.209359	0.013843	-0.194932
H172	H	0.290641	0.513843	0.305068
H173	H	-0.213785	-0.051302	-0.137446
H174	H	0.286215	0.448698	0.362554
H175	H	-0.147384	-0.051490	-0.199061
H176	H	0.352616	0.448510	0.300939
H177	H	-0.304153	-0.061635	-0.221008
H178	H	0.195847	0.438365	0.278992
H179	H	-0.237679	-0.061800	-0.282553
H180	H	0.262321	0.438200	0.217447
O181	O	-0.240475	-0.826544	-0.536126
O182	O	0.259525	-0.326544	-0.036126
C183	C	-0.231412	-0.741920	-0.462223
C184	C	0.268588	-0.241920	0.037777
C185	C	-0.278980	-0.785989	-0.498258
C186	C	0.221020	-0.285989	0.001742
H187	H	-0.262525	-0.709112	-0.431609
H188	H	0.237475	-0.209112	0.068391
H189	H	-0.196029	-0.770664	-0.431576
H190	H	0.303971	-0.270664	0.068424
H191	H	-0.200459	-0.713330	-0.496849
H192	H	0.299541	-0.213330	0.003151
H193	H	-0.309976	-0.814589	-0.463678
H194	H	0.190024	-0.314589	0.036322
H195	H	-0.314318	-0.757210	-0.528915
H196	H	0.185682	-0.257210	-0.028915
O197	O	-1.072911	-0.826524	-0.381244
O198	O	-0.572911	-0.326524	0.118756
C199	C	-1.065500	-0.746975	-0.460609
C200	C	-0.565500	-0.246975	0.039391
C201	C	-1.026627	-0.791060	-0.416553
C202	C	-0.526627	-0.291060	0.083447
H203	H	-1.028096	-0.718282	-0.489159
H204	H	-0.528096	-0.218282	0.010841
H205	H	-1.098518	-0.775710	-0.493450
H206	H	-0.598518	-0.275710	0.006550
H207	H	-1.098672	-0.714264	-0.431796
H208	H	-0.598672	-0.214264	0.068204
H209	H	-0.993418	-0.823780	-0.445316
H210	H	-0.493418	-0.323780	0.054684
H211	H	-0.993652	-0.762287	-0.383711
H212	H	-0.493652	-0.262287	0.116289
O213	O	-0.240269	-0.543108	-0.223378
O214	O	0.259731	-0.043108	0.276622
C215	C	-0.125093	-0.523174	-0.193137
C216	C	0.374907	-0.023174	0.306863
C217	C	-0.172810	-0.559171	-0.237102
C218	C	0.327190	-0.059171	0.262898
H219	H	-0.070543	-0.536157	-0.204208
H220	H	0.429457	-0.036157	0.295792
H221	H	-0.132475	-0.470781	-0.200023
H222	H	0.367525	0.029219	0.299977
H223	H	-0.136944	-0.535968	-0.142596
H224	H	0.363056	-0.035968	0.357404
H225	H	-0.160988	-0.546429	-0.287660
H226	H	0.339012	-0.046429	0.212340
H227	H	-0.165419	-0.611555	-0.230163
H228	H	0.334581	-0.111555	0.269837
O229	O	-0.336149	-1.016875	-0.867032
O230	O	0.163851	-0.516875	-0.367032
C231	C	-0.346682	-1.128858	-0.860208
C232	C	0.153318	-0.628858	-0.360208
C233	C	-0.340810	-1.066739	-0.824203
C234	C	0.159190	-0.566739	-0.324203
H235	H	-0.350438	-1.169190	-0.825597
H236	H	0.149562	-0.669190	-0.325597
H237	H	-0.393774	-1.127903	-0.890814
H238	H	0.106226	-0.627903	-0.390814
H239	H	-0.300129	-1.135468	-0.890875
H240	H	0.199871	-0.635468	-0.390875
H241	H	-0.387328	-1.060090	-0.793502
H242	H	0.112672	-0.560090	-0.293502
H243	H	-0.293690	-1.067723	-0.793637
H244	H	0.206310	-0.567723	-0.293637
O245	O	-0.240286	-0.826564	-0.665095
O246	O	0.259714	-0.326564	-0.165095
C247	C	-0.154456	-0.747100	-0.658157
C248	C	0.345544	-0.247100	-0.158157
C249	C	-0.202106	-0.791149	-0.622215
C250	C	0.297894	-0.291149	-0.122215
H251	H	-0.123585	-0.718446	-0.623505
H252	H	0.376415	-0.218446	-0.123505
H253	H	-0.119009	-0.775862	-0.688804
H254	H	0.380991	-0.275862	-0.188804
H255	H	-0.185540	-0.714351	-0.688777
H256	H	0.314460	-0.214351	-0.188777
H257	H	-0.171077	-0.823907	-0.591561
H258	H	0.328923	-0.323907	-0.091561
H259	H	-0.237555	-0.762349	-0.591608
H260	H	0.262445	-0.262349	-0.091608
H261	H	-0.583377	-0.978142	-0.229605
H262	H	-0.083377	-0.478142	0.270395
O263	O	-0.336482	-0.341489	-0.413547
O264	O	0.163518	0.158511	0.086453
C265	C	-0.347157	-0.348511	-0.525519
C266	C	0.152843	0.151489	-0.025519
C267	C	-0.341211	-0.384406	-0.463396
C268	C	0.158789	0.115594	0.036604
H269	H	-0.350968	-0.383194	-0.565840
H270	H	0.149032	0.116806	-0.065840
H271	H	-0.394244	-0.317843	-0.524533
H272	H	0.105756	0.182157	-0.024533
H273	H	-0.300609	-0.317917	-0.532176
H274	H	0.199391	0.182083	-0.032176
H275	H	-0.387724	-0.415034	-0.456701
H276	H	0.112276	0.084966	0.043299
H277	H	-0.294096	-0.415035	-0.464411
H278	H	0.205904	0.084965	0.035589
H279	H	-0.939137	-0.978261	-0.229667
H280	H	-0.439137	-0.478261	0.270333
O281	O	-0.240297	-0.268341	-0.223332
O282	O	0.259703	0.231659	0.276668
C283	C	-0.154284	-0.261422	-0.144018
C284	C	0.345716	0.238578	0.355982
C285	C	-0.201962	-0.225470	-0.188053
C286	C	0.298038	0.274530	0.311947
H287	H	-0.123268	-0.226777	-0.115492
H288	H	0.376732	0.273223	0.384508
H289	H	-0.185284	-0.291977	-0.111154
H290	H	0.314716	0.208023	0.388846
H291	H	-0.118968	-0.292135	-0.172846
H292	H	0.381032	0.207865	0.327154
H293	H	-0.237288	-0.194723	-0.159275
H294	H	0.262712	0.305277	0.340725
H295	H	-0.170920	-0.194955	-0.220919
H296	H	0.329080	0.305045	0.279081
H297	H	-0.335637	-0.465231	-0.404585
H298	H	0.164363	0.034769	0.095415
H299	H	-1.067382	-0.978305	-0.229688
H300	H	-0.567382	-0.478305	0.270312
H301	H	-0.315958	-0.803123	-0.861828
H302	H	0.184042	-0.303123	-0.361828
H303	H	-0.315986	-0.803118	-0.743115
H304	H	0.184014	-0.303118	-0.243115
O305	O	-0.410952	-0.984567	-0.665194
O306	O	0.089048	-0.484567	-0.165194
C307	C	-0.443749	-1.091132	-0.685314
C308	C	0.056251	-0.591132	-0.185314
C309	C	-0.396156	-1.047043	-0.649330
C310	C	0.103844	-0.547043	-0.149330
H311	H	-0.431793	-1.141653	-0.672511
H312	H	0.068207	-0.641653	-0.172511
H313	H	-0.498344	-1.080152	-0.672415
H314	H	0.001656	-0.580152	-0.172415
H315	H	-0.436313	-1.084226	-0.737695
H316	H	0.063687	-0.584226	-0.237695
H317	H	-0.403531	-1.053924	-0.596941
H318	H	0.096469	-0.553924	-0.096941
H319	H	-0.341578	-1.058034	-0.662281
H320	H	0.158422	-0.558034	-0.162281
H321	H	-0.939216	-0.832798	-0.374877
H322	H	-0.439216	-0.332798	0.125123
O323	O	-0.717352	-0.826445	-0.381067
O324	O	-0.217352	-0.326445	0.118933
C325	C	-0.826266	-0.790968	-0.416579
C326	C	-0.326266	-0.290968	0.083421
C327	C	-0.787331	-0.835059	-0.372576
C328	C	-0.287331	-0.335059	0.127424
H329	H	-0.882851	-0.797927	-0.409739
H330	H	-0.382851	-0.297927	0.090261
H331	H	-0.812486	-0.740434	-0.405506
H332	H	-0.312486	-0.240434	0.094494
H333	H	-0.812278	-0.801934	-0.467107
H334	H	-0.312278	-0.301934	0.032893
H335	H	-0.801298	-0.824150	-0.322034
H336	H	-0.301298	-0.324150	0.177966
H337	H	-0.801114	-0.885580	-0.383703
H338	H	-0.301114	-0.385580	0.116297
O339	O	-0.411116	-0.984440	-0.536336
O340	O	0.088884	-0.484440	-0.036336
C341	C	-0.526247	-1.014769	-0.516273
C342	C	-0.026247	-0.514769	-0.016273
C343	C	-0.478601	-0.970719	-0.552216
C344	C	0.021399	-0.470719	-0.052216
H345	H	-0.580819	-1.003682	-0.529089
H346	H	-0.080819	-0.503682	-0.029089
H347	H	-0.514402	-1.065307	-0.529194
H348	H	-0.014402	-0.565307	-0.029194
H349	H	-0.518789	-1.007899	-0.463886
H350	H	-0.018789	-0.507899	0.036114
H351	H	-0.486032	-0.977533	-0.604612
H352	H	0.013968	-0.477533	-0.104612
H353	H	-0.490457	-0.920197	-0.539243
H354	H	0.009543	-0.420197	-0.039243
O355	O	-0.577999	-0.826323	-0.381125
O356	O	-0.077999	-0.326323	0.118875
C357	C	-0.585499	-0.746832	-0.460546
C358	C	-0.085499	-0.246832	0.039454
C359	C	-0.624323	-0.790966	-0.416521
C360	C	-0.124323	-0.290966	0.083479
H361	H	-0.622934	-0.718244	-0.489184
H362	H	-0.122934	-0.218244	0.010816
H363	H	-0.552480	-0.714031	-0.431767
H364	H	-0.052480	-0.214031	0.068233
H365	H	-0.552331	-0.775587	-0.493311
H366	H	-0.052331	-0.275587	0.006689
H367	H	-0.657527	-0.762262	-0.383746
H368	H	-0.157527	-0.262262	0.116254
H369	H	-0.657298	-0.823769	-0.445338
H370	H	-0.157298	-0.323769	0.054662
H371	H	-0.315956	-0.346316	-0.199811
H372	H	0.184044	0.153684	0.300189
O373	O	-0.240363	-0.826497	-0.939855
O374	O	0.259637	-0.326497	-0.439855
C375	C	-0.207524	-0.719935	-0.919784
C376	C	0.292476	-0.219935	-0.419784
C377	C	-0.255089	-0.764027	-0.955795
C378	C	0.244911	-0.264027	-0.455795
H379	H	-0.219403	-0.669419	-0.932668
H380	H	0.280597	-0.169419	-0.432668
H381	H	-0.214971	-0.726760	-0.867393
H382	H	0.285029	-0.226760	-0.367393
H383	H	-0.152943	-0.730993	-0.932665
H384	H	0.347057	-0.230993	-0.432665
H385	H	-0.309688	-0.752996	-0.942967
H386	H	0.190312	-0.252996	-0.442967
H387	H	-0.247583	-0.757194	-1.008177
H388	H	0.252417	-0.257194	-0.508177
O389	O	-0.411214	-0.672071	-0.381061
O390	O	0.088786	-0.172071	0.118939
C391	C	-0.444253	-0.692140	-0.487578
C392	C	0.055747	-0.192140	0.012422
C393	C	-0.396592	-0.656152	-0.443553
C394	C	0.103408	-0.156152	0.056447
H395	H	-0.432457	-0.679273	-0.538111
H396	H	0.067543	-0.179273	-0.038111
H397	H	-0.436816	-0.744535	-0.480753
H398	H	0.063184	-0.244535	0.019247
H399	H	-0.498808	-0.679222	-0.476453
H400	H	0.001192	-0.179222	0.023547
H401	H	-0.342019	-0.669017	-0.454651
H402	H	0.157981	-0.169017	0.045349
H403	H	-0.404087	-0.603766	-0.450386
H404	H	0.095913	-0.103766	0.049614
O405	O	-0.717146	-0.984639	-0.223480
O406	O	-0.217146	-0.484639	0.276520
C407	C	-0.796719	-1.069387	-0.215329
C408	C	-0.296719	-0.569387	0.284671
C409	C	-0.757950	-1.025093	-0.259235
C410	C	-0.257950	-0.525093	0.240765
H411	H	-0.829730	-1.102096	-0.244219
H412	H	-0.329730	-0.602096	0.255781
H413	H	-0.759272	-1.098065	-0.186793
H414	H	-0.259272	-0.598065	0.313207
H415	H	-0.829894	-1.040754	-0.182463
H416	H	-0.329894	-0.540754	0.317537
H417	H	-0.724775	-1.053677	-0.292138
H418	H	-0.224775	-0.553677	0.207862
H419	H	-0.795434	-0.996412	-0.287727
H420	H	-0.295434	-0.496412	0.212273
H421	H	-0.335300	-1.007952	-0.743272
H422	H	0.164700	-0.507952	-0.243272
O423	O	-0.240453	-0.672049	-0.223189
O424	O	0.259547	-0.172049	0.276811
C425	C	-0.207424	-0.691953	-0.116662
C426	C	0.292576	-0.191953	0.383338
C427	C	-0.255069	-0.655972	-0.160704
C428	C	0.244931	-0.155972	0.339296
H429	H	-0.219214	-0.678957	-0.066135
H430	H	0.280786	-0.178957	0.433865
H431	H	-0.214883	-0.744349	-0.123462
H432	H	0.285117	-0.244349	0.376538
H433	H	-0.152864	-0.679158	-0.127793
H434	H	0.347136	-0.179158	0.372207
H435	H	-0.309647	-0.668715	-0.149601
H436	H	0.190353	-0.168715	0.350399
H437	H	-0.247551	-0.603585	-0.153896
H438	H	0.252449	-0.103585	0.346104
O439	O	-0.240236	-0.826675	-1.068900
O440	O	0.259764	-0.326675	-0.568900
C441	C	-0.148823	-0.818292	-1.142779
C442	C	0.351177	-0.318292	-0.642779
C443	C	-0.196438	-0.862322	-1.106776
C444	C	0.303562	-0.362322	-0.606776
H445	H	-0.113391	-0.847095	-1.173400
H446	H	0.386609	-0.347095	-0.673400
H447	H	-0.179869	-0.785527	-1.173417
H448	H	0.320131	-0.285527	-0.673417
H449	H	-0.117927	-0.789653	-1.108133
H450	H	0.382073	-0.289653	-0.608133
H451	H	-0.227344	-0.891001	-1.141377
H452	H	0.272656	-0.391001	-0.641377
H453	H	-0.165354	-0.895046	-1.076129
H454	H	0.334646	-0.395046	-0.576129
H455	H	-0.404093	-0.978201	-1.063761
H456	H	0.095907	-0.478201	-0.563761
H457	H	-0.404408	-0.263318	-0.374806
H458	H	0.095592	0.236682	0.125194
H459	H	-0.315970	-0.465020	-0.199776
H460	H	0.184030	0.034980	0.300224
O461	O	-0.410940	-0.984549	-0.940004
O462	O	0.089060	-0.484549	-0.440004
C463	C	-0.496814	-1.063972	-0.946949
C464	C	0.003186	-0.563972	-0.446949
C465	C	-0.449198	-1.019889	-0.982886
C466	C	0.050802	-0.519889	-0.482886
H467	H	-0.527767	-1.092546	-0.981603
H468	H	-0.027767	-0.592546	-0.481603
H469	H	-0.465768	-1.096789	-0.916366
H470	H	0.034232	-0.596789	-0.416366
H471	H	-0.532191	-1.035178	-0.916264
H472	H	-0.032191	-0.535178	-0.416264
H473	H	-0.413811	-1.048632	-1.013605
H474	H	0.086189	-0.548632	-0.513605
H475	H	-0.480286	-0.987071	-1.013430
H476	H	0.019714	-0.487071	-0.513430
