data_functionalizedCrystal
_audit_creation_method	'MofGen! by Chris Wilmer'
_symmetry_space_group_name_H-M	'P1'
_symmetry_Int_Tables_number	1
_symmetry_cell_setting	triclinic
loop_
_symmetry_equiv_pos_as_xyz
  x,y,z
_cell_length_a	19.288864
_cell_length_b	16.176319
_cell_length_c	19.288865
_cell_angle_alpha	90.012037
_cell_angle_beta	83.136245
_cell_angle_gamma	90.021265
loop_
_atom_site_label
_atom_site_type_symbol
_atom_site_fract_x
_atom_site_fract_y
_atom_site_fract_z
O1	O	0.921351	0.069021	0.086649
O2	O	0.719090	0.068966	0.098338
O3	O	0.826065	0.068979	-0.008637
O4	O	0.814376	0.069008	0.193624
O5	O	0.826050	-0.068515	-0.008643
O6	O	0.719076	-0.068527	0.098331
O7	O	0.921336	-0.068472	0.086643
Cu8	Cu	0.820205	-0.081054	0.092486
Cu9	Cu	0.820222	0.081548	0.092494
O10	O	0.814362	-0.068485	0.193617
C11	C	0.693207	0.000212	0.097959
C12	C	0.616103	0.000190	0.096830
N13	N	0.820198	-0.195419	0.092480
C14	C	0.571407	0.000212	0.159598
C15	C	0.498960	0.000221	0.158537
C16	C	0.471212	0.000225	0.094705
C17	C	0.515918	0.000198	0.031929
C18	C	0.588364	0.000181	0.032991
C19	C	0.362955	0.048415	0.044528
C20	C	0.290511	0.048437	0.043468
C21	C	0.247767	0.000274	0.091425
C22	C	0.277474	-0.047901	0.140454
C23	C	0.349920	-0.047918	0.141516
C24	C	0.392658	0.000243	0.093546
C25	C	0.124514	0.000305	0.153047
C26	C	0.052066	0.000309	0.151984
C27	C	0.069026	0.000294	0.025374
C28	C	0.141473	0.000281	0.026439
C29	C	0.169212	0.000291	0.090278
C30	C	0.867580	-0.238678	0.045131
C31	C	0.867584	-0.325225	0.045130
C32	C	0.820207	-0.368512	0.092483
C33	C	0.772820	-0.325247	0.139834
C34	C	0.772814	-0.238702	0.139831
C35	C	0.772844	-0.674276	0.139847
C36	C	0.772855	-0.760827	0.139848
C37	C	0.867614	-0.760799	0.045147
C38	C	0.867607	-0.674253	0.045143
C39	C	0.820218	-0.630996	0.092492
C40	C	0.820214	-0.537152	0.092491
C41	C	0.820214	-0.462354	0.092487
C42	C	0.947220	0.000284	0.087022
C43	C	1.024324	0.000311	0.088151
N44	N	0.820235	0.195913	0.092495
C45	C	0.825682	0.000229	-0.034516
C46	C	0.824553	0.000222	-0.111620
C47	C	0.887321	0.000235	-0.156316
C48	C	0.886260	0.000248	-0.228763
C49	C	0.822428	0.000231	-0.256511
C50	C	0.759652	0.000222	-0.211805
C51	C	0.760714	0.000218	-0.139359
C52	C	0.772243	-0.047944	-0.364801
C53	C	0.771183	-0.047944	-0.437245
C54	C	0.819148	0.000248	-0.479956
C55	C	0.868185	0.048431	-0.450216
C56	C	0.869247	0.048427	-0.377770
C57	C	0.821269	0.000236	-0.335065
C58	C	0.880770	0.000277	-0.603209
C59	C	0.879707	0.000295	-0.675657
C60	C	0.753097	0.000261	-0.658697
C61	C	0.754162	0.000251	-0.586250
C62	C	0.818001	0.000255	-0.558511
C63	C	0.814745	0.000266	0.219497
C64	C	0.815874	0.000279	0.296601
H65	H	0.593987	0.000222	0.211580
H66	H	0.242673	-0.087121	0.179505
H67	H	0.939303	0.000241	-0.133736
O68	O	0.725740	-0.094814	-0.323253
C69	C	0.709307	-0.205349	-0.239161
C70	C	0.762046	-0.152319	-0.286164
H71	H	0.738639	-0.251866	-0.209173
H72	H	0.676157	-0.163730	-0.200681
H73	H	0.674072	-0.239748	-0.272875
H74	H	0.797326	-0.117913	-0.252506
H75	H	0.795146	-0.193981	-0.324648
H76	H	0.734258	-0.639062	0.178401
H77	H	0.906188	-0.639011	0.006587
H78	H	0.909173	0.087660	-0.353559
H79	H	0.462561	0.000237	0.209652
H80	H	0.374105	-0.087146	0.181435
H81	H	0.907242	0.087675	-0.484990
H82	H	0.266328	0.087668	0.003549
O83	O	0.151350	0.000269	0.215117
C84	C	0.126884	0.000332	0.340583
C85	C	0.096402	0.000354	0.270338
H86	H	0.082474	0.000418	0.385247
H87	H	0.160328	-0.057227	0.344289
H88	H	0.160425	0.057854	0.344211
H89	H	0.062830	-0.057129	0.266662
H90	H	0.062998	0.057951	0.266662
O91	O	0.913521	-0.367278	-0.000931
C92	C	0.928633	-0.465038	-0.095808
C93	C	0.876530	-0.417453	-0.043690
H94	H	0.898746	-0.505629	-0.130382
H95	H	0.962484	-0.419266	-0.129696
H96	H	0.963248	-0.505492	-0.065891
H97	H	0.841868	-0.376998	-0.073551
H98	H	0.842727	-0.463270	-0.009803
O99	O	0.947299	0.000221	-0.272093
C100	C	1.072989	0.000288	-0.281275
C101	C	1.003915	0.000300	-0.232128
H102	H	1.118781	0.000369	-0.248983
H103	H	1.075692	-0.057264	-0.315613
H104	H	1.075627	0.057817	-0.315619
H105	H	1.001231	-0.057190	-0.197740
H106	H	1.001242	0.057890	-0.197837
O107	O	0.184866	0.000417	-0.034554
C108	C	0.221527	0.071606	-0.142454
C109	C	0.172358	0.071569	-0.073395
H110	H	0.211422	0.129118	-0.173883
H111	H	0.278086	0.071647	-0.130773
H112	H	0.211442	0.014039	-0.173854
H113	H	0.182381	0.129126	-0.041961
H114	H	0.115815	0.071485	-0.085125
H115	H	0.734229	-0.203481	0.178387
O116	O	0.913613	-0.802731	-0.000951
C117	C	0.954668	-0.829258	-0.121834
C118	C	0.902548	-0.781706	-0.069708
H119	H	0.945730	-0.812290	-0.177436
H120	H	1.010284	-0.812196	-0.112983
H121	H	0.946542	-0.898545	-0.113667
H122	H	0.910610	-0.712408	-0.077844
H123	H	0.846951	-0.798837	-0.078573
H124	H	0.734242	-0.360497	0.178387
O125	O	0.942763	0.000145	-0.576226
C126	C	1.017422	-0.071045	-0.504262
C127	C	0.947198	-0.071011	-0.534783
H128	H	1.021024	-0.128560	-0.470737
H129	H	1.062130	-0.071078	-0.548631
H130	H	1.021079	-0.013481	-0.470784
H131	H	0.943472	-0.128565	-0.568253
H132	H	0.902524	-0.070935	-0.490381
H133	H	0.397753	0.087640	0.005474
H134	H	0.493322	0.000212	-0.020044
H135	H	0.930822	0.000310	-0.712049
O136	O	0.726759	-0.802750	0.185871
C137	C	0.632785	-0.793650	0.279823
C138	C	0.684935	-0.746070	0.227734
H139	H	0.598966	-0.747845	0.313693
H140	H	0.598145	-0.834176	0.249953
H141	H	0.662675	-0.834163	0.314420
H142	H	0.655102	-0.705512	0.193124
H143	H	0.719574	-0.705597	0.257648
H144	H	0.701123	0.000251	-0.681288
O145	O	0.693124	0.000191	-0.542927
C146	C	0.567435	0.000205	-0.533753
C147	C	0.636511	0.000251	-0.582895
H148	H	0.521645	0.000271	-0.566047
H149	H	0.564714	-0.057353	-0.499437
H150	H	0.564811	0.057729	-0.499384
H151	H	0.639181	-0.057233	-0.617307
H152	H	0.639203	0.057847	-0.617163
O153	O	0.042114	0.000150	-0.036651
C154	C	0.034441	-0.071065	-0.145208
C155	C	0.064957	-0.071011	-0.074982
H156	H	0.052910	-0.128583	-0.176225
H157	H	-0.025019	-0.071104	-0.135226
H158	H	0.052880	-0.013505	-0.176184
H159	H	0.046572	-0.128561	-0.043970
H160	H	0.124414	-0.070928	-0.085013
O161	O	0.697689	0.000315	-0.238838
C162	C	0.623004	0.071557	-0.310743
C163	C	0.693210	0.071540	-0.280189
H164	H	0.619354	0.129144	-0.344170
H165	H	0.619323	0.014055	-0.344292
H166	H	0.578334	0.071506	-0.266338
H167	H	0.737921	0.071619	-0.324550
H168	H	0.696830	0.129036	-0.246622
H169	H	0.015674	0.000322	0.203099
O170	O	0.631687	0.000201	-0.028049
C171	C	0.640864	0.000137	-0.153738
C172	C	0.591720	0.000130	-0.084663
H173	H	0.608570	0.000061	-0.199529
H174	H	0.675216	0.057685	-0.156451
H175	H	0.675195	-0.057396	-0.156369
H176	H	0.557345	0.057624	-0.081986
H177	H	0.557415	-0.057457	-0.081980
O178	O	0.723487	-0.094768	-0.466016
C179	C	0.627409	-0.190390	-0.445506
C180	C	0.681377	-0.137385	-0.412833
H181	H	0.593358	-0.224873	-0.402525
H182	H	0.593213	-0.148750	-0.474884
H183	H	0.655739	-0.236834	-0.483312
H184	H	0.653105	-0.090935	-0.374998
H185	H	0.715570	-0.179076	-0.383499
H186	H	0.906162	-0.203439	0.006574
H187	H	0.709599	0.000207	-0.102967
