data_functionalizedCrystal
_audit_creation_method	'MofGen! by Chris Wilmer'
_symmetry_space_group_name_H-M	'P1'
_symmetry_Int_Tables_number	1
_symmetry_cell_setting	triclinic
loop_
_symmetry_equiv_pos_as_xyz
  x,y,z
_cell_length_a	17.077404
_cell_length_b	19.805405
_cell_length_c	17.077396
_cell_angle_alpha	89.967516
_cell_angle_beta	89.982756
_cell_angle_gamma	90.026635
loop_
_atom_site_label
_atom_site_type_symbol
_atom_site_fract_x
_atom_site_fract_y
_atom_site_fract_z
Zn1	Zn	1.200018	-0.269454	-0.443825
Zn2	Zn	1.700018	0.230546	0.056175
Zn3	Zn	1.199922	-0.382648	-0.312552
Zn4	Zn	1.699922	0.117352	0.187448
Zn5	Zn	1.068755	-0.269479	-0.312573
Zn6	Zn	1.568755	0.230521	0.187427
Zn7	Zn	1.068710	-0.382606	-0.443776
Zn8	Zn	1.568710	0.117394	0.056224
O9	O	1.134351	-0.326047	-0.378182
O10	O	1.634351	0.173953	0.121818
O11	O	1.309852	-0.284476	-0.426424
O12	O	1.809852	0.215524	0.073576
O13	O	1.182501	-0.367664	-0.202708
O14	O	1.682501	0.132336	0.297292
O15	O	1.086226	-0.174759	-0.330014
O16	O	1.586226	0.325241	0.169986
O17	O	1.309782	-0.367640	-0.329978
O18	O	1.809782	0.132360	0.170022
O19	O	1.182665	-0.174740	-0.426444
O20	O	1.682665	0.325260	0.073556
O21	O	1.086133	-0.284519	-0.202724
O22	O	1.586133	0.215481	0.297276
O23	O	0.958902	-0.284479	-0.329966
O24	O	1.458902	0.215521	0.170034
O25	O	1.086149	-0.367568	-0.553629
O26	O	1.586149	0.132432	-0.053629
O27	O	0.958869	-0.367593	-0.426360
O28	O	1.458869	0.132407	0.073640
O29	O	1.182621	-0.284435	-0.553666
O30	O	1.682621	0.215565	-0.053666
O31	O	1.182457	-0.477359	-0.329930
O32	O	1.682457	0.022641	0.170070
O33	O	1.086056	-0.477329	-0.426339
O34	O	1.586056	0.022671	0.073661
C35	C	0.930403	-0.326035	-0.378160
C36	C	1.430403	0.173965	0.121840
C37	C	0.843153	-0.326046	-0.378169
C38	C	1.343153	0.173954	0.121831
C39	C	0.802167	-0.369388	-0.428281
C40	C	1.302167	0.130612	0.071719
C41	C	0.720186	-0.369390	-0.428294
C42	C	1.220186	0.130610	0.071706
C43	C	0.679194	-0.326051	-0.378190
C44	C	1.179194	0.173949	0.121810
C45	C	0.720187	-0.282704	-0.328076
C46	C	1.220187	0.217296	0.171924
C47	C	0.802166	-0.282699	-0.328068
C48	C	1.302166	0.217301	0.171932
C49	C	0.549317	-0.282717	-0.328095
C50	C	1.049317	0.217283	0.171905
C51	C	0.467332	-0.282722	-0.328102
C52	C	0.967332	0.217278	0.171898
C53	C	0.467337	-0.369408	-0.428321
C54	C	0.967337	0.130592	0.071679
C55	C	0.549316	-0.369403	-0.428313
C56	C	1.049316	0.130597	0.071687
C57	C	0.590303	-0.326056	-0.378197
C58	C	1.090303	0.173944	0.121803
C59	C	1.134263	-0.501903	-0.378144
C60	C	1.634263	-0.001903	0.121856
C61	C	1.134297	-0.577135	-0.378154
C62	C	1.634297	-0.077135	0.121846
C63	C	1.184542	-0.612472	-0.328006
C64	C	1.684542	-0.112472	0.171994
C65	C	1.184575	-0.683161	-0.328023
C66	C	1.684575	-0.183161	0.171977
C67	C	1.134359	-0.718510	-0.378185
C68	C	1.634359	-0.218510	0.121815
C69	C	1.084112	-0.683168	-0.428338
C70	C	1.584112	-0.183168	0.071662
C71	C	1.084083	-0.612481	-0.428324
C72	C	1.584083	-0.112481	0.071676
C73	C	1.084228	-0.968241	-0.428397
C74	C	1.584228	-0.468241	0.071603
C75	C	1.084259	-1.038933	-0.428405
C76	C	1.584259	-0.538933	0.071595
C77	C	1.184720	-1.038921	-0.328095
C78	C	1.684720	-0.538921	0.171905
C79	C	1.184691	-0.968234	-0.328081
C80	C	1.684691	-0.468234	0.171919
C81	C	1.134447	-0.932898	-0.378237
C82	C	1.634447	-0.432898	0.121763
C83	C	1.134413	-0.856249	-0.378219
C84	C	1.634413	-0.356249	0.121781
C85	C	1.134389	-0.795157	-0.378200
C86	C	1.634389	-0.295157	0.121800
C87	C	1.339095	-0.326060	-0.378204
C88	C	1.839095	0.173940	0.121796
C89	C	1.426345	-0.326065	-0.378213
C90	C	1.926345	0.173935	0.121787
C91	C	1.134391	-0.325994	-0.582926
C92	C	1.634391	0.174006	-0.082926
C93	C	1.134407	-0.325972	-0.670176
C94	C	1.634407	0.174028	-0.170176
C95	C	1.134461	-0.149504	-0.378237
C96	C	1.634461	0.350496	0.121763
C97	C	1.134508	-0.074272	-0.378261
C98	C	1.634508	0.425728	0.121739
C99	C	1.084244	-0.282673	-0.711174
C100	C	1.584244	0.217327	-0.211174
C101	C	1.084257	-0.282658	-0.793154
C102	C	1.584257	0.217342	-0.293154
C103	C	1.134438	-0.325938	-0.834135
C104	C	1.634438	0.174062	-0.334135
C105	C	1.184603	-0.369242	-0.793132
C106	C	1.684603	0.130758	-0.293132
C107	C	1.184586	-0.369260	-0.711153
C108	C	1.684586	0.130740	-0.211153
C109	C	1.184637	-0.369200	-0.964002
C110	C	1.684637	0.130800	-0.464002
C111	C	1.184656	-0.369181	-1.045987
C112	C	1.684656	0.130819	-0.545987
C113	C	1.084308	-0.282597	-1.046003
C114	C	1.584308	0.217403	-0.546003
C115	C	1.084291	-0.282616	-0.964024
C116	C	1.584291	0.217384	-0.464024
C117	C	1.134458	-0.325918	-0.923026
C118	C	1.634458	0.174082	-0.423026
C119	C	1.134357	-0.326050	-0.174234
C120	C	1.634357	0.173950	0.325766
C121	C	1.134492	-0.325882	-0.086984
C122	C	1.634492	0.174118	0.413016
H123	H	0.433959	-0.247424	-0.287312
H124	H	0.933959	0.252576	0.212688
O125	O	0.593529	-0.235972	-0.274036
O126	O	1.093529	0.264028	0.225964
H127	H	0.551254	-0.205843	-0.239188
H128	H	1.051254	0.294157	0.260812
O129	O	1.238718	-0.574352	-0.273911
O130	O	1.738718	-0.074352	0.226089
H131	H	1.230258	-0.519261	-0.282324
H132	H	1.730258	-0.019261	0.217676
O133	O	0.846368	-0.416129	-0.482335
O134	O	1.346368	0.083871	0.017665
H135	H	0.883746	-0.385868	-0.522327
H136	H	1.383746	0.114132	-0.022327
O137	O	1.238753	-0.415899	-0.919783
O138	O	1.738753	0.084101	-0.419783
H139	H	1.225271	-0.469018	-0.935500
H140	H	1.725271	0.030982	-0.435500
H141	H	1.043461	-0.247338	-1.079388
H142	H	1.543461	0.252662	-0.579388
H143	H	1.043228	-0.711955	-0.469184
H144	H	1.543228	-0.211955	0.030816
O145	O	1.238763	-0.721278	-0.273931
O146	O	1.738763	-0.221278	0.226069
H147	H	1.273667	-0.684822	-0.239040
H148	H	1.773667	-0.184822	0.260960
O149	O	1.238856	-0.930105	-0.273984
O150	O	1.738856	-0.430105	0.226016
H151	H	1.273808	-0.966554	-0.239121
H152	H	1.773808	-0.466554	0.260879
H153	H	1.043432	-0.247370	-0.930659
H154	H	1.543432	0.252630	-0.430659
O155	O	1.030121	-0.235986	-0.666979
O156	O	1.530121	0.264014	-0.166979
H157	H	1.038540	-0.243266	-0.603086
H158	H	1.538540	0.256734	-0.103086
O159	O	1.238772	-0.415864	-1.090193
O160	O	1.738772	0.084136	-0.590193
H161	H	1.273645	-0.445987	-1.047914
H162	H	1.773645	0.054013	-0.547914
O163	O	1.029879	-0.574366	-0.482405
O164	O	1.529879	-0.074366	0.017595
H165	H	1.043302	-0.587890	-0.544029
H166	H	1.543302	-0.087890	-0.044029
O167	O	0.846379	-0.235951	-0.274020
O168	O	1.346379	0.264049	0.225980
H169	H	0.883705	-0.266201	-0.234021
H170	H	1.383705	0.233799	0.265979
O171	O	1.238923	-1.077029	-0.274000
O172	O	1.738923	-0.577029	0.226000
H173	H	1.300513	-1.063396	-0.287514
H174	H	1.800513	-0.563396	0.212486
O175	O	0.675987	-0.235956	-0.274029
O176	O	1.175987	0.264044	0.225971
H177	H	0.691707	-0.247498	-0.212400
H178	H	1.191707	0.252502	0.287600
O179	O	1.030101	-1.077064	-0.482516
O180	O	1.530101	-0.577064	0.017484
H181	H	0.995164	-1.040618	-0.517397
H182	H	1.495164	-0.540618	-0.017397
H183	H	1.043316	-0.939476	-0.469234
H184	H	1.543316	-0.439476	0.030766
H185	H	0.433962	-0.404700	-0.469128
H186	H	0.933962	0.095300	0.030872
O187	O	1.030159	-0.235952	-0.837376
O188	O	1.530159	0.264048	-0.337376
H189	H	0.995272	-0.205851	-0.795107
H190	H	1.495272	0.294149	-0.295107
O191	O	1.238728	-0.415928	-0.837325
O192	O	1.738728	0.084072	-0.337325
H193	H	1.278699	-0.385630	-0.874683
H194	H	1.778699	0.114370	-0.374683
O195	O	1.238701	-0.415955	-0.666933
O196	O	1.738701	0.084045	-0.166933
H197	H	1.225215	-0.469073	-0.682653
H198	H	1.725215	0.030927	-0.182653
O199	O	0.676057	-0.416266	-0.482260
O200	O	1.176057	0.083734	0.017740
H201	H	0.691812	-0.404824	-0.543918
H202	H	1.191812	0.095176	-0.043918
O203	O	0.593534	-0.416143	-0.482354
O204	O	1.093534	0.083857	0.017646
H205	H	0.551263	-0.446280	-0.517210
H206	H	1.051263	0.053720	-0.017210
