data_functionalizedCrystal
_audit_creation_method	'MofGen! by Chris Wilmer'
_symmetry_space_group_name_H-M	'P1'
_symmetry_Int_Tables_number	1
_symmetry_cell_setting	triclinic
loop_
_symmetry_equiv_pos_as_xyz
  x,y,z
_cell_length_a	23.532407
_cell_length_b	15.021413
_cell_length_c	23.532357
_cell_angle_alpha	89.998468
_cell_angle_beta	82.838485
_cell_angle_gamma	89.998075
loop_
_atom_site_label
_atom_site_type_symbol
_atom_site_fract_x
_atom_site_fract_y
_atom_site_fract_z
O1	O	0.755250	-0.073932	0.069129
O2	O	1.255250	0.426068	0.569129
O3	O	0.589385	-0.073959	0.079132
O4	O	1.089385	0.426041	0.579132
O5	O	0.677334	-0.073926	-0.008803
O6	O	1.177334	0.426074	0.491197
O7	O	0.667301	-0.073965	0.157064
O8	O	1.167301	0.426035	0.657064
O9	O	0.677320	0.074138	-0.008791
O10	O	1.177320	0.574138	0.491209
O11	O	0.589371	0.074105	0.079145
O12	O	1.089371	0.574105	0.579145
O13	O	0.755236	0.074133	0.069141
O14	O	1.255236	0.574133	0.569141
Zn15	Zn	0.672302	0.097627	0.074145
Zn16	Zn	1.172302	0.597627	0.574145
Zn17	Zn	0.672320	-0.097454	0.074129
Zn18	Zn	1.172320	0.402546	0.574129
O19	O	0.667287	0.074100	0.157077
O20	O	1.167287	0.574100	0.657077
C21	C	0.568162	0.000070	0.078884
C22	C	1.068162	0.500070	0.578884
C23	C	0.504945	0.000060	0.078118
C24	C	1.004945	0.500060	0.578118
N25	N	0.672293	0.230765	0.074156
N26	N	1.172293	0.730765	0.574156
N27	N	0.672333	-0.230591	0.074113
N28	N	1.172333	0.269409	0.574113
C29	C	0.105834	0.000089	0.125353
C30	C	0.605834	0.500089	0.625353
C31	C	0.046434	0.000095	0.124641
C32	C	0.546434	0.500095	0.624641
O33	O	0.009681	0.000117	0.168428
O34	O	0.509681	0.500117	0.668428
N35	N	0.023817	0.000106	0.072364
N36	N	0.523817	0.500106	0.572364
C37	C	0.060604	0.000120	0.020794
C38	C	0.560604	0.500120	0.520794
O39	O	0.035912	0.000130	-0.023737
O40	O	0.535912	0.500130	0.476263
C41	C	0.120003	0.000120	0.021506
C42	C	0.620003	0.500120	0.521506
C43	C	0.142616	0.000101	0.073787
C44	C	0.642616	0.500101	0.573787
C45	C	0.128448	0.000071	0.177629
C46	C	0.628448	0.500071	0.677629
C47	C	0.187844	0.000063	0.178341
C48	C	0.687844	0.500063	0.678341
C49	C	0.224626	0.000075	0.126775
C50	C	0.724626	0.500075	0.626775
C51	C	0.202012	0.000093	0.074498
C52	C	0.702012	0.500093	0.574498
C53	C	0.156788	0.000141	-0.030063
C54	C	0.656788	0.500141	0.469937
C55	C	0.216191	0.000142	-0.029346
C56	C	0.716191	0.500142	0.470654
C57	C	0.238804	0.000122	0.022935
C58	C	0.738804	0.500122	0.522935
C59	C	0.298190	0.000097	0.023644
C60	C	0.798190	0.500097	0.523644
N61	N	0.320807	0.000087	0.075922
N62	N	0.820807	0.500087	0.575922
C63	C	0.284025	0.000076	0.127487
C64	C	0.784025	0.500076	0.627487
C65	C	-0.064139	0.000119	0.019303
C66	C	0.435861	0.500119	0.519303
C67	C	-0.123536	0.000112	0.018590
C68	C	0.376464	0.500112	0.518590
C69	C	-0.137702	0.000089	0.122437
C70	C	0.362298	0.500089	0.622437
C71	C	-0.078303	0.000090	0.123149
C72	C	0.421697	0.500090	0.623149
C73	C	-0.041522	0.000109	0.071580
C74	C	0.458478	0.500109	0.571580
C75	C	0.408761	0.000060	0.128977
C76	C	0.908761	0.500060	0.628977
C77	C	0.468163	0.000049	0.129684
C78	C	0.968163	0.500049	0.629684
C79	C	0.482324	0.000076	0.025837
C80	C	0.982324	0.500076	0.525837
C81	C	0.422927	0.000082	0.025130
C82	C	0.922927	0.500082	0.525130
C83	C	0.386147	0.000077	0.076704
C84	C	0.886147	0.500077	0.576704
O85	O	0.334977	0.000079	-0.020120
O86	O	0.834977	0.500079	0.479880
O87	O	0.308725	0.000077	0.172011
O88	O	0.808725	0.500077	0.672011
C89	C	0.776459	0.000102	0.069390
C90	C	1.276459	0.500102	0.569390
C91	C	0.839676	0.000106	0.070156
C92	C	1.339676	0.500106	0.570156
C93	C	0.677076	0.000109	-0.030013
C94	C	1.177076	0.500109	0.469987
C95	C	0.676322	0.000117	-0.093232
C96	C	1.176322	0.500117	0.406768
C97	C	0.631619	0.470433	0.114798
C98	C	1.131619	0.970433	0.614798
C99	C	0.683017	0.529773	0.125561
C100	C	1.183017	1.029773	0.625561
C101	C	0.672308	0.412372	0.074142
C102	C	1.172308	0.912372	0.574142
C103	C	0.620924	0.529773	0.063392
C104	C	1.120924	1.029773	0.563392
C105	C	0.672317	0.587796	0.074129
C106	C	1.172317	1.087796	0.574129
C107	C	0.723731	0.470405	0.084930
C108	C	1.223731	0.970405	0.584930
C109	C	0.661605	0.470401	0.022738
C110	C	1.161605	0.970401	0.522738
C111	C	0.713039	0.529714	0.033479
C112	C	1.213039	1.029714	0.533479
C113	C	0.672301	0.311314	0.074150
C114	C	1.172301	0.811314	0.574150
C115	C	0.672330	0.688851	0.074120
C116	C	1.172330	1.188851	0.574120
C117	C	0.671593	-0.080642	-0.485250
C118	C	1.171593	0.419358	0.014750
C119	C	0.670875	-0.080647	-0.544650
C120	C	1.170875	0.419353	-0.044650
O121	O	0.670492	-0.149288	-0.575372
O122	O	1.170492	0.350712	-0.075372
N123	N	0.670512	0.000062	-0.574354
N124	N	1.170512	0.500062	-0.074354
C125	C	0.670860	0.080781	-0.544655
C126	C	1.170860	0.580781	-0.044655
O127	O	0.670485	0.149429	-0.575375
O128	O	1.170485	0.649429	-0.075375
C129	C	0.671573	0.080785	-0.485256
C130	C	1.171573	0.580785	0.014744
C131	C	0.671943	0.000071	-0.455556
C132	C	1.171943	0.500071	0.044444
C133	C	0.671961	-0.161349	-0.455550
C134	C	1.171961	0.338651	0.044450
C135	C	0.672679	-0.161344	-0.396154
C136	C	1.172679	0.338656	0.103846
C137	C	0.673029	-0.080631	-0.366460
C138	C	1.173029	0.419369	0.133540
C139	C	0.672661	0.000077	-0.396160
C140	C	1.172661	0.500077	0.103840
C141	C	0.671917	0.161503	-0.455558
C142	C	1.171917	0.661503	0.044442
C143	C	0.672630	0.161500	-0.396155
C144	C	1.172630	0.661500	0.103845
C145	C	0.672999	0.080787	-0.366454
C146	C	1.172999	0.580787	0.133546
C147	C	0.673729	0.080795	-0.307071
C148	C	1.173729	0.580795	0.192929
N149	N	0.674092	0.000086	-0.277366
N150	N	1.174092	0.500086	0.222634
C151	C	0.673742	-0.080627	-0.307061
C152	C	1.173742	0.419373	0.192939
C153	C	0.669362	0.080766	-0.669397
C154	C	1.169362	0.580766	-0.169397
C155	C	0.668653	0.080762	-0.728795
C156	C	1.168653	0.580762	-0.228795
C157	C	0.668667	-0.080666	-0.728785
C158	C	1.168667	0.419334	-0.228785
C159	C	0.669380	-0.080662	-0.669386
C160	C	1.169380	0.419338	-0.169386
C161	C	0.669725	0.000057	-0.639692
C162	C	1.169725	0.500057	-0.139692
C163	C	0.675251	-0.080609	-0.182327
C164	C	1.175251	0.419391	0.317673
C165	C	0.675972	-0.080596	-0.122927
C166	C	1.175972	0.419404	0.377073
C167	C	0.675955	0.080831	-0.122941
C168	C	1.175955	0.580831	0.377059
C169	C	0.675237	0.080819	-0.182336
C170	C	1.175237	0.580819	0.317664
C171	C	0.674883	0.000092	-0.212027
C172	C	1.174883	0.500092	0.287973
O173	O	0.674111	0.149401	-0.276310
O174	O	1.174111	0.649401	0.223690
O175	O	0.674110	-0.149263	-0.276332
O176	O	1.174110	0.350737	0.223668
C177	C	0.667545	0.000063	0.178287
C178	C	1.167545	0.500063	0.678287
C179	C	0.668300	0.000049	0.241506
C180	C	1.168300	0.500049	0.741506
H181	H	0.486571	0.000032	0.172259
H182	H	0.986571	0.500032	0.672259
H183	H	0.767199	0.444437	0.094069
H184	H	1.267199	0.944437	0.594069
F185	F	0.211902	0.000047	0.233986
F186	F	0.711902	0.500047	0.733986
H187	H	0.577466	0.555854	0.054305
H188	H	1.077466	1.055854	0.554305
F189	F	0.676366	-0.166507	-0.091321
F190	F	1.176366	0.333493	0.408679
F191	F	0.369625	0.000054	0.183869
F192	F	0.869625	0.500054	0.683869
F193	F	0.674855	0.166723	-0.213948
F194	F	1.174855	0.666723	0.286052
H195	H	0.747490	0.555579	-0.000911
H196	H	1.247490	1.055579	0.499089
F197	F	0.674875	-0.166528	-0.213918
F198	F	1.174875	0.333472	0.286082
H199	H	0.672978	-0.227069	-0.371977
H200	H	1.172978	0.272931	0.128023
F201	F	0.649740	0.436284	-0.034056
F202	F	1.149740	0.936284	0.465944
H203	H	0.668380	-0.146387	-0.752973
H204	H	1.168380	0.353613	-0.252973
F205	F	0.669734	0.166683	-0.637799
F206	F	1.169734	0.666683	-0.137799
F207	F	0.089309	0.000059	0.232518
F208	F	0.589309	0.500059	0.732518
F209	F	0.671588	-0.247263	-0.487144
F210	F	1.171588	0.252737	0.012856
H211	H	-0.141942	0.000114	-0.023982
H212	H	0.358058	0.500114	0.476018
H213	H	0.668361	0.146488	-0.752973
H214	H	1.168361	0.646488	-0.252973
F215	F	0.669772	-0.166567	-0.637782
F216	F	1.169772	0.333433	-0.137782
H217	H	0.597245	0.444404	0.149208
H218	H	1.097245	0.944404	0.649208
H219	H	0.671618	0.227229	-0.479730
H220	H	1.171618	0.727229	0.020270
F221	F	0.672997	0.247415	-0.364555
F222	F	1.172997	0.747415	0.135445
F223	F	0.676328	0.166727	-0.091328
F224	F	1.176328	0.666727	0.408672
H225	H	-0.059896	0.000079	0.165721
H226	H	0.440104	0.500079	0.665721
H227	H	-0.167662	0.000084	0.164425
H228	H	0.332338	0.500084	0.664425
F229	F	0.398860	0.000104	-0.030513
F230	F	0.898860	0.500104	0.469487
F231	F	0.132735	0.000149	-0.085708
F232	F	0.632735	0.500149	0.414292
F233	F	-0.024997	0.000131	-0.035588
F234	F	0.475003	0.500131	0.464412
H235	H	0.246136	0.000158	-0.071341
H236	H	0.746136	0.500158	0.428659
F237	F	0.694862	0.563861	0.182373
F238	F	1.194862	1.063861	0.682373
H239	H	0.512282	0.000082	-0.016147
H240	H	1.012282	0.500082	0.483853
