data_functionalizedCrystal
_audit_creation_method	'MofGen! by Chris Wilmer'
_symmetry_space_group_name_H-M	'P1'
_symmetry_Int_Tables_number	1
_symmetry_cell_setting	triclinic
loop_
_symmetry_equiv_pos_as_xyz
  x,y,z
_cell_length_a	12.759401
_cell_length_b	16.120484
_cell_length_c	12.759401
_cell_angle_alpha	87.114147
_cell_angle_beta	90.006940
_cell_angle_gamma	92.926992
loop_
_atom_site_label
_atom_site_type_symbol
_atom_site_fract_x
_atom_site_fract_y
_atom_site_fract_z
Zn1	Zn	1.584822	-0.332025	0.615194
Zn2	Zn	2.084822	0.167975	1.115194
Zn3	Zn	1.575814	-0.471408	0.448404
Zn4	Zn	2.075814	0.028592	0.948404
Zn5	Zn	1.409164	-0.332014	0.439529
Zn6	Zn	1.909164	0.167986	0.939529
Zn7	Zn	1.400171	-0.471405	0.624041
Zn8	Zn	1.900171	0.028595	1.124041
O9	O	1.492493	-0.401713	0.531792
O10	O	1.992493	0.098287	1.031792
O11	O	1.730648	-0.350520	0.593081
O12	O	2.230648	0.149480	1.093081
O13	O	1.553702	-0.452914	0.300205
O14	O	2.053702	0.047086	0.800205
O15	O	1.439999	-0.215348	0.455415
O16	O	1.939999	0.284652	0.955415
O17	O	1.724030	-0.452924	0.470541
O18	O	2.224030	0.047076	0.970541
O19	O	1.569054	-0.215355	0.584476
O20	O	2.069054	0.284645	1.084476
O21	O	1.431265	-0.350502	0.293685
O22	O	1.931265	0.149498	0.793685
O23	O	1.260951	-0.350499	0.463993
O24	O	1.760951	0.149501	0.963993
O25	O	1.424672	-0.452919	0.769888
O26	O	1.924672	0.047081	1.269888
O27	O	1.254343	-0.452908	0.599553
O28	O	1.754343	0.047092	1.099553
O29	O	1.560334	-0.350517	0.763389
O30	O	2.060334	0.149483	1.263389
O31	O	1.544982	-0.588075	0.479119
O32	O	2.044982	-0.088075	0.979119
O33	O	1.415937	-0.588073	0.608158
O34	O	1.915937	-0.088073	1.108158
C35	C	1.219526	-0.401703	0.531771
C36	C	1.719526	0.098297	1.031771
C37	C	1.102749	-0.401718	0.531788
C38	C	1.602749	0.098282	1.031788
C39	C	1.044469	-0.455124	0.602273
C40	C	1.544469	0.044876	1.102273
C41	C	0.934744	-0.455127	0.602294
C42	C	1.434744	0.044873	1.102294
C43	C	0.941590	-0.348317	0.461335
C44	C	1.441590	0.151683	0.961335
C45	C	1.051312	-0.348310	0.461320
C46	C	1.551312	0.151690	0.961320
C47	C	1.478535	-0.618325	0.545584
C48	C	1.978535	-0.118325	1.045584
C49	C	1.472660	-0.710992	0.551520
C50	C	1.972660	-0.210992	1.051520
C51	C	1.461939	-0.880657	0.562378
C52	C	1.961939	-0.380657	1.062378
C53	C	1.523235	-0.921928	0.501223
C54	C	2.023235	-0.421928	1.001223
C55	C	1.517270	-1.016336	0.507265
C56	C	2.017270	-0.516336	1.007265
C57	C	1.467903	-0.786241	0.556338
C58	C	1.967903	-0.286241	1.056338
C59	C	1.766525	-0.401724	0.531814
C60	C	2.266525	0.098276	1.031814
C61	C	1.883302	-0.401728	0.531824
C62	C	2.383302	0.098272	1.031824
C63	C	1.492504	-0.401718	0.805826
C64	C	1.992504	0.098282	1.305826
C65	C	1.492509	-0.401721	0.922602
C66	C	1.992509	0.098279	1.422602
C67	C	1.506534	-0.184255	0.517969
C68	C	2.006534	0.315745	1.017969
C69	C	1.512518	-0.091588	0.512078
C70	C	2.012518	0.408412	1.012078
C71	C	1.563139	-0.348409	0.974082
C72	C	2.063139	0.151591	1.474082
C73	C	1.563130	-0.348407	1.083806
C74	C	2.063130	0.151593	1.583806
C75	C	1.421857	-0.455037	1.090561
C76	C	1.921857	0.044963	1.590561
C77	C	1.421862	-0.455034	0.980839
C78	C	1.921862	0.044966	1.480839
C79	C	1.492480	-0.401726	1.258825
C80	C	1.992480	0.098274	1.758825
C81	C	1.492495	-0.401723	1.142049
C82	C	1.992495	0.098277	1.642049
H83	H	0.899697	-0.304835	0.403961
H84	H	1.399697	0.195165	0.903961
C85	C	1.344158	-0.513684	1.154620
C86	C	1.844158	-0.013684	1.654620
H87	H	1.302088	-0.545429	1.108242
H88	H	1.802088	-0.045429	1.608242
H89	H	1.382000	-0.550013	1.199737
H90	H	1.882000	-0.050013	1.699737
H91	H	1.300436	-0.481786	1.195388
H92	H	1.800436	0.018214	1.695388
C93	C	1.640834	-0.289757	0.910025
C94	C	2.140834	0.210243	1.410025
H95	H	1.682889	-0.258000	0.956403
H96	H	2.182889	0.242000	1.456403
H97	H	1.684557	-0.321644	0.869253
H98	H	2.184557	0.178356	1.369253
H99	H	1.602981	-0.253426	0.864912
H100	H	2.102981	0.246574	1.364912
H101	H	1.364339	-0.498446	0.938923
H102	H	1.864339	0.001554	1.438923
C103	C	1.600175	-0.873889	0.424355
C104	C	2.100175	-0.373889	0.924355
H105	H	1.637852	-0.912200	0.386782
H106	H	2.137852	-0.412200	0.886782
H107	H	1.562117	-0.839964	0.376418
H108	H	2.062117	-0.339964	0.876418
H109	H	1.648035	-0.839871	0.462453
H110	H	2.148035	-0.339871	0.962453
C111	C	1.115424	-0.289562	0.383781
C112	C	1.615424	0.210438	0.883781
H113	H	1.069077	-0.257763	0.341805
H114	H	1.569077	0.242237	0.841805
H115	H	1.160574	-0.253286	0.421732
H116	H	1.660574	0.246714	0.921732
H117	H	1.156164	-0.321400	0.339956
H118	H	1.656164	0.178600	0.839956
C119	C	1.384995	-0.928696	0.639230
C120	C	1.884995	-0.428696	1.139230
H121	H	1.347321	-0.890389	0.676814
H122	H	1.847321	-0.390389	1.176814
H123	H	1.337148	-0.962715	0.601129
H124	H	1.837148	-0.462715	1.101129
H125	H	1.423054	-0.962621	0.687176
H126	H	1.923054	-0.462621	1.187176
C127	C	1.101046	-0.513863	0.679793
C128	C	1.601046	-0.013863	1.179793
H129	H	1.050618	-0.545663	0.721781
H130	H	1.550618	-0.045663	1.221781
H131	H	1.141504	-0.550137	0.641837
H132	H	1.641504	-0.050137	1.141837
H133	H	1.145908	-0.482018	0.723606
H134	H	1.645908	0.017982	1.223606
C135	C	0.870641	-0.513872	0.679830
C136	C	1.370641	-0.013872	1.179830
H137	H	0.916993	-0.545679	0.721790
H138	H	1.416993	-0.045679	1.221790
H139	H	0.829905	-0.482039	0.723654
H140	H	1.329905	0.017961	1.223654
H141	H	0.825488	-0.550152	0.641879
H142	H	1.325488	-0.050152	1.141879
H143	H	1.620643	-0.304994	1.125716
H144	H	2.120643	0.195006	1.625716
