data_functionalizedCrystal
_audit_creation_method	'MofGen! by Chris Wilmer'
_symmetry_space_group_name_H-M	'P1'
_symmetry_Int_Tables_number	1
_symmetry_cell_setting	triclinic
loop_
_symmetry_equiv_pos_as_xyz
  x,y,z
_cell_length_a	14.044220
_cell_length_b	11.026607
_cell_length_c	9.482944
_cell_angle_alpha	98.184571
_cell_angle_beta	99.591696
_cell_angle_gamma	100.887447
loop_
_atom_site_label
_atom_site_type_symbol
_atom_site_fract_x
_atom_site_fract_y
_atom_site_fract_z
O1	O	0.420767	1.672672	0.120890
O2	O	0.920767	2.172672	0.620890
O3	O	0.374719	1.314383	0.120896
O4	O	0.874719	1.814383	0.620896
O5	O	0.258839	1.488147	0.120879
O6	O	0.758839	1.988147	0.620879
O7	O	0.536647	1.498908	0.120907
O8	O	1.036647	1.998908	0.620907
O9	O	0.226086	1.450660	-0.120916
O10	O	0.726086	1.950660	0.379084
O11	O	0.341966	1.276895	-0.120898
O12	O	0.841966	1.776895	0.379102
O13	O	0.388014	1.635185	-0.120904
O14	O	0.888014	2.135185	0.379096
Cu15	Cu	0.362000	1.452617	-0.142979
Cu16	Cu	0.862000	1.952617	0.357021
Cu17	Cu	0.400733	1.496950	0.142971
Cu18	Cu	0.900733	1.996950	0.642971
O19	O	0.503894	1.461420	-0.120887
O20	O	1.003894	1.961420	0.379113
C21	C	0.206344	1.464695	-0.000019
C22	C	0.706344	1.964695	0.499981
C23	C	0.098722	1.450651	-0.000020
C24	C	0.598722	1.950651	0.499980
C25	C	0.349848	1.249508	-0.000001
C26	C	0.849848	1.749508	0.499999
C27	C	0.324524	1.112053	0.000001
C28	C	0.824524	1.612053	0.500001
C29	C	0.412886	1.700059	-0.000004
C30	C	0.912886	2.200059	0.499996
C31	C	0.438211	1.837516	0.000003
C32	C	0.938211	2.337516	0.500003
C33	C	-0.098317	1.424979	0.000001
C34	C	0.401683	1.924979	0.500001
C35	C	-0.138955	1.524584	0.000004
C36	C	0.361045	2.024584	0.500004
C37	C	-0.248594	1.510300	0.000016
C38	C	0.251406	2.010300	0.500016
C39	C	0.011332	1.439262	-0.000011
C40	C	0.511332	1.939262	0.499989
C41	C	0.556389	1.484873	0.000014
C42	C	1.056389	1.984873	0.500014
C43	C	0.664013	1.498918	0.000025
C44	C	1.164013	1.998918	0.500025
N45	N	0.334757	1.421444	-0.344101
N46	N	0.834757	1.921444	0.155899
C47	C	0.368286	1.903752	-0.000002
C48	C	0.868286	2.403752	0.499998
C49	C	0.394459	2.045820	0.000006
C50	C	0.894459	2.545820	0.500006
C51	C	0.392696	1.487747	-0.416297
C52	C	0.892696	1.987747	0.083703
C53	C	0.370022	1.461820	-0.583715
C54	C	0.870022	1.961820	-0.083715
N55	N	0.427970	1.528132	0.344093
N56	N	0.927970	2.028132	0.844093
H57	H	-0.091389	1.620602	0.000100
H58	H	0.408611	2.120602	0.500100
F59	F	-0.160466	1.299506	0.000011
F60	F	0.339534	1.799506	0.500011
F61	F	0.264707	1.840402	-0.000025
F62	F	0.764707	2.340402	0.499975
H63	H	0.303627	1.385859	-0.645845
H64	H	0.803627	1.885859	-0.145845
F65	F	0.498040	2.109161	0.000009
F66	F	0.998040	2.609161	0.500009
H67	H	0.494362	1.604099	-0.593780
H68	H	0.994362	2.104099	-0.093780
H69	H	0.268366	1.345488	-0.406236
H70	H	0.768366	1.845488	0.093764
H71	H	0.245289	2.063604	0.000086
H72	H	0.745289	2.563604	0.500086
F73	F	0.479469	1.587039	-0.335089
F74	F	0.979469	2.087039	0.164911
F75	F	0.541787	1.900862	0.000006
F76	F	1.041787	2.400862	0.500006
