data_functionalizedCrystal
_audit_creation_method	'MofGen! by Chris Wilmer'
_symmetry_space_group_name_H-M	'P1'
_symmetry_Int_Tables_number	1
_symmetry_cell_setting	triclinic
loop_
_symmetry_equiv_pos_as_xyz
  x,y,z
_cell_length_a	17.699083
_cell_length_b	12.996460
_cell_length_c	17.699092
_cell_angle_alpha	90.004461
_cell_angle_beta	83.284691
_cell_angle_gamma	89.999557
loop_
_atom_site_label
_atom_site_type_symbol
_atom_site_fract_x
_atom_site_fract_y
_atom_site_fract_z
O1	O	1.004080	0.085419	0.095712
O2	O	1.504080	0.585419	0.595712
O3	O	0.783702	0.085452	0.108165
O4	O	1.283702	0.585452	0.608165
O5	O	0.900114	0.085432	-0.008250
O6	O	1.400114	0.585432	0.491750
O7	O	0.887668	0.085439	0.212127
O8	O	1.387668	0.585439	0.712127
O9	O	0.900102	-0.085702	-0.008257
O10	O	1.400102	0.414298	0.491743
O11	O	0.783690	-0.085682	0.108158
O12	O	1.283690	0.414318	0.608158
O13	O	1.004068	-0.085715	0.095706
O14	O	1.504068	0.414285	0.595706
Cu15	Cu	0.893877	-0.101324	0.101931
Cu16	Cu	1.393877	0.398676	0.601931
Cu17	Cu	0.893892	0.101061	0.101939
Cu18	Cu	1.393892	0.601061	0.601939
O19	O	0.887656	-0.085695	0.212121
O20	O	1.387656	0.414305	0.712121
C21	C	0.755499	-0.000111	0.107715
C22	C	1.255499	0.499889	0.607715
C23	C	0.671480	-0.000098	0.106377
C24	C	1.171480	0.499902	0.606377
C25	C	0.622862	-0.000096	0.174710
C26	C	1.122862	0.499904	0.674710
C27	C	0.543918	-0.000109	0.173448
C28	C	1.043918	0.499891	0.673448
C29	C	0.513595	-0.000117	0.103851
C30	C	1.013595	0.499883	0.603851
C31	C	0.562220	-0.000122	0.035513
C32	C	1.062220	0.499878	0.535513
C33	C	0.641162	-0.000116	0.036776
C34	C	1.141162	0.499884	0.536776
C35	C	0.243857	-0.000148	0.030418
C36	C	0.743857	0.499852	0.530418
C37	C	0.164909	-0.000151	0.029160
C38	C	0.664909	0.499849	0.529160
C39	C	0.146613	-0.000141	0.167089
C40	C	0.646613	0.499859	0.667089
C41	C	0.225555	-0.000135	0.168352
C42	C	0.725555	0.499865	0.668352
C43	C	0.274173	-0.000145	0.100014
C44	C	0.774173	0.499855	0.600014
C45	C	0.359772	-0.000133	0.101384
C46	C	0.859772	0.499867	0.601384
C47	C	0.427998	-0.000122	0.102481
C48	C	0.927998	0.499878	0.602481
N49	N	0.893873	-0.243671	0.101926
N50	N	1.393873	0.256329	0.601926
C51	C	0.893891	-0.663486	0.101940
C52	C	1.393891	-0.163486	0.601940
C53	C	0.893883	-0.546681	0.101938
C54	C	1.393883	-0.046681	0.601938
C55	C	0.893882	-0.453582	0.101933
C56	C	1.393882	0.046418	0.601933
C57	C	0.893874	-0.336770	0.101931
C58	C	1.393874	0.163230	0.601931
C59	C	1.032271	-0.000150	0.096155
C60	C	1.532271	0.499850	0.596155
C61	C	1.116289	-0.000156	0.097494
C62	C	1.616289	0.499844	0.597494
N63	N	0.893902	0.243408	0.101939
N64	N	1.393902	0.743408	0.601939
C65	C	0.899661	-0.000133	-0.036450
C66	C	1.399661	0.499867	0.463550
C67	C	0.898319	-0.000128	-0.120468
C68	C	1.398319	0.499872	0.379532
C69	C	0.897698	0.093158	-0.159932
C70	C	1.397698	0.593158	0.340068
C71	C	0.896433	0.093159	-0.238875
C72	C	1.396433	0.593159	0.261125
C73	C	0.895795	-0.000126	-0.278353
C74	C	1.395795	0.499874	0.221647
C75	C	0.896415	-0.093420	-0.238884
C76	C	1.396415	0.406580	0.261116
C77	C	0.897674	-0.093420	-0.159941
C78	C	1.397674	0.406580	0.340059
C79	C	0.891334	-0.093421	-0.557249
C80	C	1.391334	0.406579	-0.057249
C81	C	0.890077	-0.093413	-0.636197
C82	C	1.390077	0.406587	-0.136197
C83	C	0.890093	0.093159	-0.636182
C84	C	1.390093	0.593159	-0.136182
C85	C	0.891352	0.093159	-0.557240
C86	C	1.391352	0.593159	-0.057240
C87	C	0.891968	-0.000134	-0.517777
C88	C	1.391968	0.499866	-0.017777
C89	C	0.893338	-0.000134	-0.432178
C90	C	1.393338	0.499866	0.067822
C91	C	0.894430	-0.000127	-0.363952
C92	C	1.394430	0.499873	0.136048
C93	C	0.888109	-0.000128	0.240321
C94	C	1.388109	0.499872	0.740321
C95	C	0.889450	-0.000126	0.324339
C96	C	1.389450	0.499874	0.824339
H97	H	0.680748	-0.000117	-0.018868
H98	H	1.180748	0.499883	0.481132
H99	H	0.898170	-0.169384	-0.127809
H100	H	1.398170	0.330616	0.372191
Cl101	Cl	0.898505	0.210439	-0.110311
Cl102	Cl	1.398505	0.710439	0.389689
H103	H	0.283433	-0.000157	-0.025227
H104	H	0.783433	0.499843	0.474773
Cl105	Cl	0.482800	-0.000101	0.259356
Cl106	Cl	0.982800	0.499899	0.759356
Cl107	Cl	0.126791	-0.000161	-0.058339
Cl108	Cl	0.626791	0.499839	0.441661
H109	H	0.647544	-0.000089	0.231383
H110	H	1.147544	0.499911	0.731383
Cl111	Cl	0.263670	-0.000120	0.255848
Cl112	Cl	0.763670	0.499880	0.755848
H113	H	0.895930	0.169123	-0.271004
H114	H	1.395930	0.669123	0.228996
H115	H	0.889556	-0.169382	-0.668337
H116	H	1.389556	0.330618	-0.168337
Cl117	Cl	0.892158	0.210437	-0.507615
Cl118	Cl	1.392158	0.710437	-0.007615
Cl119	Cl	0.889317	0.210444	-0.685798
Cl120	Cl	1.389317	0.710444	-0.185798
H121	H	0.107018	-0.000138	0.222733
H122	H	0.607018	0.499862	0.722733
H123	H	0.537525	-0.000143	-0.021154
H124	H	1.037525	0.499857	0.478846
Cl125	Cl	0.892096	-0.210704	-0.507646
Cl126	Cl	1.392096	0.289296	-0.007646
Cl127	Cl	0.895604	-0.210695	-0.288512
Cl128	Cl	1.395604	0.289305	0.211488
