data_functionalizedCrystal
_audit_creation_method	'MofGen! by Chris Wilmer'
_symmetry_space_group_name_H-M	'P1'
_symmetry_Int_Tables_number	1
_symmetry_cell_setting	triclinic
loop_
_symmetry_equiv_pos_as_xyz
  x,y,z
_cell_length_a	23.532355
_cell_length_b	22.610064
_cell_length_c	23.532407
_cell_angle_alpha	89.999397
_cell_angle_beta	82.838088
_cell_angle_gamma	89.997644
loop_
_atom_site_label
_atom_site_type_symbol
_atom_site_fract_x
_atom_site_fract_y
_atom_site_fract_z
O1	O	0.755283	-0.049110	0.068986
O2	O	0.589415	-0.049130	0.079020
O3	O	0.677351	-0.049108	-0.008929
O4	O	0.667347	-0.049131	0.156936
O5	O	0.677335	0.049261	-0.008916
O6	O	0.589400	0.049239	0.079033
O7	O	0.755267	0.049259	0.068999
Zn8	Zn	0.672331	0.064868	0.074018
Zn9	Zn	0.672351	-0.064738	0.074001
O10	O	0.667332	0.049238	0.156949
C11	C	0.568191	0.000052	0.078776
C12	C	0.504972	0.000045	0.078022
C13	C	0.677088	0.000078	-0.030139
C14	C	0.676322	0.000082	-0.093356
C15	C	0.112950	0.053692	0.073291
C16	C	0.053550	0.053694	0.072573
O17	O	0.022825	0.099296	0.072189
N18	N	0.023850	0.000074	0.072211
C19	C	0.053554	-0.053553	0.072560
O20	O	0.022837	-0.099162	0.072185
C21	C	0.112953	-0.053555	0.073273
C22	C	0.142649	0.000069	0.073641
C23	C	0.142646	0.107312	0.073659
C24	C	0.202041	0.107309	0.074377
C25	C	0.231740	0.053687	0.074728
C26	C	0.202044	0.000067	0.074360
C27	C	0.142655	-0.107181	0.073618
C28	C	0.202058	-0.107178	0.074331
C29	C	0.231754	-0.053554	0.074699
C30	C	0.291138	-0.053558	0.075429
N31	N	0.320838	0.000062	0.075792
C32	C	0.291139	0.053685	0.075441
C33	C	-0.071188	-0.053545	0.071061
C34	C	-0.130586	-0.053544	0.070351
C35	C	-0.130585	0.053703	0.070364
C36	C	-0.071186	0.053702	0.071077
C37	C	-0.041488	0.000075	0.071423
C38	C	0.415873	0.053675	0.076951
C39	C	0.475273	0.053668	0.077671
C40	C	0.475267	-0.053579	0.077656
C41	C	0.415872	-0.053572	0.076938
C42	C	0.386177	0.000060	0.076583
O43	O	0.321902	-0.099137	0.075812
O44	O	0.321864	0.099286	0.075809
C45	C	0.776491	0.000076	0.069244
C46	C	0.839710	0.000079	0.069998
N47	N	0.672321	0.153320	0.074029
N48	N	0.672366	-0.153191	0.073986
C49	C	0.711291	0.561971	0.035063
C50	C	0.711294	0.623891	0.035059
O51	O	0.744403	0.655917	0.001937
N52	N	0.672351	0.654857	0.073990
C53	C	0.633399	0.623900	0.112923
O54	O	0.600275	0.655926	0.146036
C55	C	0.633394	0.561982	0.112924
C56	C	0.672343	0.531018	0.073995
C57	C	0.750237	0.531007	-0.003863
C58	C	0.750234	0.469092	-0.003858
C59	C	0.711286	0.438139	0.035073
C60	C	0.672340	0.469103	0.074000
C61	C	0.594439	0.531026	0.151854
C62	C	0.594437	0.469103	0.151851
C63	C	0.633386	0.438140	0.112922
C64	C	0.633390	0.376235	0.112936
N65	N	0.672333	0.345268	0.074006
C66	C	0.711281	0.376221	0.035074
C67	C	0.633412	0.753934	0.112917
C68	C	0.633419	0.815852	0.112919
C69	C	0.711314	0.815838	0.035055
C70	C	0.711309	0.753919	0.035056
C71	C	0.672355	0.722968	0.073987
C72	C	0.711273	0.246193	0.035088
C73	C	0.711269	0.184272	0.035098
C74	C	0.633373	0.184292	0.112960
C75	C	0.633379	0.246207	0.112953
C76	C	0.672331	0.277157	0.074012
O77	O	0.600296	0.344169	0.146040
O78	O	0.744395	0.344188	0.001962
C79	C	0.723557	0.000055	-0.492468
C80	C	0.722845	0.000051	-0.551868
O81	O	0.766632	0.000034	-0.588620
N82	N	0.670568	0.000045	-0.574484
C83	C	0.618998	0.000038	-0.537697
O84	O	0.574467	0.000032	-0.562388
C85	C	0.619710	0.000038	-0.478298
C86	C	0.671991	0.000050	-0.455685
C87	C	0.775834	0.000066	-0.469854
C88	C	0.776545	0.000072	-0.410458
C89	C	0.724979	0.000067	-0.373676
C90	C	0.672703	0.000055	-0.396289
C91	C	0.568141	0.000027	-0.441512
C92	C	0.568858	0.000026	-0.382110
C93	C	0.621139	0.000038	-0.359497
C94	C	0.621848	0.000056	-0.300110
N95	N	0.674126	0.000061	-0.277494
C96	C	0.725691	0.000067	-0.314277
C97	C	0.617507	0.000036	-0.662439
C98	C	0.616794	0.000040	-0.721837
C99	C	0.720642	0.000052	-0.736004
C100	C	0.721354	0.000052	-0.676605
C101	C	0.669784	0.000042	-0.639823
C102	C	0.727181	0.000079	-0.189540
C103	C	0.727888	0.000087	-0.130138
C104	C	0.624041	0.000072	-0.115977
C105	C	0.623334	0.000067	-0.175373
C106	C	0.674909	0.000069	-0.212154
O107	O	0.578084	0.000070	-0.263323
O108	O	0.770216	0.000065	-0.289577
C109	C	0.667594	0.000050	0.178158
C110	C	0.668360	0.000042	0.241375
H111	H	0.499449	0.097337	0.077973
C112	C	0.551589	0.435060	0.194680
H113	H	0.528399	0.462373	0.217864
H114	H	0.527998	0.410905	0.174320
H115	H	0.571942	0.410908	0.218286
H116	H	0.499459	-0.097237	0.077943
C117	C	0.109962	0.166300	0.073432
H118	H	0.070325	0.158632	0.072999
H119	H	0.115220	0.188219	0.106816
H120	H	0.124169	0.188440	0.040379
H121	H	0.391701	0.097348	0.076667
C122	C	0.590532	0.150239	0.155782
H123	H	0.567337	0.177544	0.178971
H124	H	0.566945	0.126085	0.135416
H125	H	0.610885	0.126084	0.179386
C126	C	0.754151	0.849893	-0.007775
H127	H	0.748568	0.891203	-0.002202
H128	H	0.792126	0.839747	-0.001796
H129	H	0.748175	0.839746	-0.045754
C130	C	0.832559	0.000071	-0.510309
H131	H	0.824658	0.000065	-0.548927
H132	H	0.854003	0.034377	-0.503480
H133	H	0.854013	-0.034234	-0.503480
H134	H	0.391691	-0.097238	0.076647
C135	C	0.834053	0.000081	-0.385588
H136	H	0.827099	0.000087	-0.344944
H137	H	0.855275	-0.034219	-0.398237
H138	H	0.855262	0.034392	-0.398239
H139	H	0.769178	0.000078	-0.219481
H140	H	0.601709	0.841058	0.144625
H141	H	-0.154777	0.097366	0.070078
H142	H	0.118487	-0.150848	0.073317
H143	H	0.763925	0.000061	-0.658198
C144	C	0.559285	0.000032	-0.746705
H145	H	0.528680	0.000025	-0.716286
H146	H	0.556839	0.034332	-0.769585
H147	H	0.556854	-0.034280	-0.769577
C148	C	-0.038526	-0.112538	0.071453
H149	H	-0.064726	-0.144468	0.071140
H150	H	-0.010819	-0.114771	0.038517
H151	H	-0.019892	-0.114772	0.104953
C152	C	0.590568	0.719893	0.155752
H153	H	0.567382	0.747207	0.178938
H154	H	0.566972	0.695739	0.135396
H155	H	0.610921	0.695739	0.179356
C156	C	0.754112	0.150216	-0.007728
H157	H	0.777304	0.177522	-0.030918
H158	H	0.777703	0.126060	0.012633
H159	H	0.733757	0.126063	-0.031330
H160	H	-0.047012	0.097367	0.071378
C161	C	0.512132	0.000016	-0.341650
H162	H	0.520039	0.000015	-0.303034
H163	H	0.490673	0.034313	-0.348476
H164	H	0.490692	-0.034298	-0.348474
H165	H	0.742991	0.271385	0.003378
H166	H	0.781948	0.443885	-0.035559
C167	C	0.510631	0.000009	-0.466373
H168	H	0.480028	-0.000002	-0.435952
H169	H	0.508179	0.034309	-0.489252
H170	H	0.508202	-0.034303	-0.489246
C171	C	0.551599	0.565072	0.194682
H172	H	0.528404	0.537762	0.217862
H173	H	0.571950	0.589223	0.218284
H174	H	0.528004	0.589230	0.174321
C175	C	0.234723	-0.166169	0.074716
H176	H	0.208525	-0.198101	0.074399
H177	H	0.262431	-0.168396	0.041781
H178	H	0.253355	-0.168405	0.108217
H179	H	0.781953	0.556203	-0.035569
H180	H	0.601668	0.271418	0.144658
C181	C	-0.163247	-0.112531	0.069953
H182	H	-0.137046	-0.144464	0.070261
H183	H	-0.190954	-0.114767	0.102888
H184	H	-0.181880	-0.114757	0.036452
H185	H	0.580762	0.000074	-0.193785
H186	H	0.743024	0.728712	0.003356
C187	C	0.785399	0.000097	-0.105267
H188	H	0.816006	0.000093	-0.135684
H189	H	0.787833	0.034402	-0.082392
H190	H	0.787840	-0.034209	-0.082390
C191	C	0.777363	0.000047	-0.776472
H192	H	0.769447	0.000037	-0.815085
H193	H	0.798816	0.034350	-0.769657
H194	H	0.798814	-0.034261	-0.769647
C195	C	0.560777	0.000036	-0.621983
H196	H	0.529544	0.000038	-0.643965
H197	H	0.558895	-0.034266	-0.598515
H198	H	0.558891	0.034345	-0.598520
C199	C	0.567322	0.000063	-0.075511
H200	H	0.536081	0.000059	-0.097483
H201	H	0.565454	-0.034241	-0.052046
H202	H	0.565434	0.034371	-0.052046
C203	C	0.234700	0.166296	0.074780
H204	H	0.208499	0.198228	0.074464
H205	H	0.253337	0.168525	0.108275
H206	H	0.262405	0.168534	0.041839
