data_functionalizedCrystal
_audit_creation_method	'MofGen! by Chris Wilmer'
_symmetry_space_group_name_H-M	'P1'
_symmetry_Int_Tables_number	1
_symmetry_cell_setting	triclinic
loop_
_symmetry_equiv_pos_as_xyz
  x,y,z
_cell_length_a	12.827893
_cell_length_b	18.050589
_cell_length_c	12.827885
_cell_angle_alpha	90.029551
_cell_angle_beta	90.019462
_cell_angle_gamma	90.028191
loop_
_atom_site_label
_atom_site_type_symbol
_atom_site_fract_x
_atom_site_fract_y
_atom_site_fract_z
Zn1	Zn	1.597578	-0.295624	0.590850
Zn2	Zn	1.597433	-0.419832	0.416111
Zn3	Zn	1.422819	-0.295660	0.416124
Zn4	Zn	1.422766	-0.419777	0.590811
O5	O	1.510149	-0.357723	0.503474
O6	O	1.743795	-0.312109	0.567682
O7	O	1.574231	-0.403399	0.269877
O8	O	1.446085	-0.191731	0.439323
O9	O	1.743688	-0.403364	0.439302
O10	O	1.574479	-0.191704	0.567694
O11	O	1.445943	-0.312170	0.269886
O12	O	1.276576	-0.312117	0.439286
O13	O	1.445994	-0.403269	0.737053
O14	O	1.276537	-0.403304	0.567628
O15	O	1.574428	-0.312055	0.737081
O16	O	1.574180	-0.523749	0.439264
O17	O	1.445853	-0.523709	0.567615
C18	C	1.238639	-0.357709	0.503454
C19	C	1.122486	-0.357721	0.503471
C20	C	1.070710	-0.402914	0.566880
C21	C	0.950659	-0.402927	0.566899
C22	C	1.510023	-0.550675	0.503457
C23	C	1.510065	-0.633221	0.503484
C24	C	1.440349	-0.832677	0.573257
C25	C	1.414872	-0.882124	0.477900
C26	C	1.510167	-0.784351	0.503498
C27	C	1.535696	-0.881986	0.598866
C28	C	1.510264	-0.930337	0.503520
C29	C	1.484640	-0.832712	0.408091
C30	C	1.605508	-0.832569	0.529120
C31	C	1.580067	-0.881994	0.433698
C32	C	1.510109	-0.700253	0.503487
C33	C	1.510323	-1.014433	0.503520
C34	C	1.782719	-0.357738	0.503495
C35	C	1.898872	-0.357745	0.503504
C36	C	1.510221	-0.357652	0.776045
C37	C	1.510252	-0.357622	0.892198
C38	C	1.510304	-0.164018	0.503515
C39	C	1.510370	-0.081472	0.503532
C40	C	1.510137	-0.357741	0.231964
C41	C	1.510309	-0.357562	0.115812
C42	C	1.573770	-0.402713	1.064022
C43	C	1.573740	-0.402746	0.943972
H44	H	0.943392	-0.319054	0.449210
H45	H	1.077937	-0.319036	0.449201
Br46	Br	1.341803	-0.796581	0.671448
Br47	Br	1.664309	-0.467173	0.869747
Br48	Br	1.280558	-0.918400	0.441779
H49	H	0.906133	-0.441621	0.621183
Br50	Br	1.144950	-0.467392	0.657343
Br51	Br	1.664358	-0.467114	1.138244
H52	H	1.557249	-0.903630	0.679509
Br53	Br	1.739788	-0.796263	0.565283
Br54	Br	1.448566	-0.796791	0.273640
H55	H	1.455953	-0.318932	1.071274
H56	H	1.639152	-0.903512	0.374645
H57	H	1.455923	-0.318960	0.936729
