data_functionalizedCrystal
_audit_creation_method	'MofGen! by Chris Wilmer'
_symmetry_space_group_name_H-M	'P1'
_symmetry_Int_Tables_number	1
_symmetry_cell_setting	triclinic
loop_
_symmetry_equiv_pos_as_xyz
  x,y,z
_cell_length_a	10.654550
_cell_length_b	16.109301
_cell_length_c	14.586319
_cell_angle_alpha	89.998390
_cell_angle_beta	89.990587
_cell_angle_gamma	83.973192
loop_
_atom_site_label
_atom_site_type_symbol
_atom_site_fract_x
_atom_site_fract_y
_atom_site_fract_z
O1	O	-1.666261	-0.116768	0.076319
O2	O	-1.300631	-0.127894	0.076305
O3	O	-1.493490	-0.001360	0.076303
O4	O	-1.473402	-0.243302	0.076321
O5	O	-1.493466	-0.001367	-0.076178
O6	O	-1.300608	-0.127901	-0.076176
O7	O	-1.666237	-0.116776	-0.076162
Cu8	Cu	-1.483420	-0.122339	-0.090092
Cu9	Cu	-1.483448	-0.122330	0.090234
O10	O	-1.473378	-0.243310	-0.076160
C11	C	-1.253832	-0.127080	0.000062
C12	C	-1.114422	-0.124636	0.000056
C13	C	-1.492665	0.029616	0.000062
C14	C	-1.490225	0.121926	0.000061
C15	C	-1.713036	-0.117589	0.000083
C16	C	-1.852446	-0.120033	0.000094
C17	C	-1.033926	-0.199138	0.000075
C18	C	-0.902936	-0.196836	0.000091
C19	C	-0.932952	-0.045526	0.000073
C20	C	-1.063939	-0.047828	0.000050
C21	C	-1.084409	-0.275946	0.000081
C22	C	-1.003911	-0.350453	0.000101
C23	C	-0.872921	-0.348152	0.000117
C24	C	-0.822430	-0.271343	0.000113
C25	C	-1.474204	-0.274286	0.000083
C26	C	-1.476643	-0.366595	0.000090
N27	N	-1.483410	-0.122345	-0.216923
C28	C	-1.598991	0.343552	0.000079
C29	C	-1.596689	0.430286	0.000087
C30	C	-1.367868	0.411772	0.000074
C31	C	-1.370172	0.325040	0.000073
C32	C	-1.485737	0.290932	0.000071
C33	C	-1.481131	0.464399	0.000080
C34	C	-1.478634	0.558440	0.000088
C35	C	-1.488234	0.196885	0.000065
C36	C	-1.559572	-0.173226	-0.451923
C37	C	-1.559585	-0.173220	-0.547904
C38	C	-1.407303	-0.071431	-0.547928
C39	C	-1.407297	-0.071433	-0.451948
C40	C	-1.483430	-0.122335	-0.403948
C41	C	-1.483448	-0.122328	-0.595909
C42	C	-1.483462	-0.122321	-0.699976
C43	C	-1.483418	-0.122341	-0.299874
N44	N	-1.483468	-0.122318	0.217066
H45	H	-1.045031	-0.412988	0.000097
O46	O	-1.333210	-0.021972	-0.405482
C47	C	-1.266030	0.022967	-0.468427
H48	H	-1.258683	-0.011403	-0.536846
H49	H	-1.167287	0.028730	-0.440705
H50	H	-1.317793	0.087910	-0.478628
H51	H	-1.621565	-0.214674	-0.412844
O52	O	-1.633727	-0.222612	-0.594404
C53	C	-1.761200	-0.200347	-0.570943
H54	H	-1.766597	-0.168135	-0.501255
H55	H	-1.812599	-0.258875	-0.567648
H56	H	-1.807481	-0.156027	-0.624953
O57	O	-1.333375	-0.022069	-0.594696
C58	C	-1.349649	-0.033009	-0.689699
H59	H	-1.385376	-0.096217	-0.702786
H60	H	-1.255510	-0.030330	-0.726157
H61	H	-1.421220	0.018672	-0.716977
O62	O	-1.142191	0.024519	-0.000126
C63	C	-1.218834	0.027700	-0.079099
H64	H	-1.170811	-0.014541	-0.134285
H65	H	-1.233581	0.094583	-0.105613
H66	H	-1.314084	0.005629	-0.061260
H67	H	-0.715768	-0.269475	0.000111
H68	H	-1.693091	0.315785	0.000080
O69	O	-1.211620	-0.278332	0.000024
C70	C	-1.238921	-0.362097	0.000058
H71	H	-1.154926	-0.403617	-0.028793
H72	H	-1.325621	-0.368239	-0.044220
H73	H	-1.258294	-0.382171	0.073212
H74	H	-1.277941	0.282194	0.000069
O75	O	-0.794904	-0.420601	0.000172
C76	C	-0.867557	-0.488883	0.000148
H77	H	-0.965343	-0.468340	0.029000
H78	H	-0.819238	-0.541125	0.044430
H79	H	-0.876837	-0.512397	-0.073003
H80	H	-0.891831	0.017008	0.000084
H81	H	-1.273779	0.439553	0.000074
O82	O	-1.706672	0.481434	0.000256
C83	C	-1.712186	0.532166	0.079219
H84	H	-1.647962	0.500773	0.134410
H85	H	-1.813351	0.541332	0.105732
H86	H	-1.679706	0.595415	0.061368
