data_functionalizedCrystal
_audit_creation_method	'MofGen! by Chris Wilmer'
_symmetry_space_group_name_H-M	'P1'
_symmetry_Int_Tables_number	1
_symmetry_cell_setting	triclinic
loop_
_symmetry_equiv_pos_as_xyz
  x,y,z
_cell_length_a	16.992694
_cell_length_b	13.339070
_cell_length_c	16.053802
_cell_angle_alpha	93.267614
_cell_angle_beta	87.249047
_cell_angle_gamma	103.148759
loop_
_atom_site_label
_atom_site_type_symbol
_atom_site_fract_x
_atom_site_fract_y
_atom_site_fract_z
O1	O	1.090314	0.214289	-0.069315
O2	O	0.861508	0.211892	-0.069340
O3	O	0.949651	0.063704	-0.069328
O4	O	1.002170	0.362477	-0.069327
O5	O	0.944792	0.071825	0.069530
O6	O	0.856649	0.220013	0.069518
O7	O	1.085454	0.222410	0.069543
Zn8	Zn	0.970280	0.222501	0.091577
Zn9	Zn	0.976682	0.211801	-0.091374
O10	O	0.997311	0.370598	0.069531
C11	C	0.829196	0.212871	0.000086
C12	C	0.740151	0.203676	0.000076
C13	C	0.709211	0.292389	0.000077
C14	C	0.625543	0.283745	0.000089
C15	C	0.572817	0.186385	0.000093
C16	C	0.603763	0.097665	0.000095
C17	C	0.687429	0.106311	0.000090
C18	C	0.321423	0.150552	0.000116
C19	C	0.237752	0.141912	0.000119
C20	C	0.259538	0.327993	0.000114
C21	C	0.343205	0.336630	0.000103
C22	C	0.374143	0.247910	0.000109
N23	N	0.487295	0.177547	0.000103
N24	N	0.459663	0.256750	0.000106
C25	C	0.938350	0.029358	0.000099
C26	C	0.911906	-0.085082	0.000093
C27	C	1.117519	-0.433251	0.000116
C28	C	1.142367	-0.325729	0.000126
C29	C	1.084754	-0.265562	0.000118
C30	C	1.002289	-0.312928	0.000099
C31	C	0.977439	-0.420460	0.000095
C32	C	0.944673	-0.252771	0.000097
C33	C	0.862209	-0.300136	0.000078
C34	C	0.837363	-0.407658	0.000074
C35	C	0.894976	-0.467825	0.000082
C36	C	0.969524	-0.145239	0.000101
C37	C	0.829443	-0.132447	0.000080
C38	C	0.804596	-0.239970	0.000070
C39	C	1.117767	0.221431	0.000115
C40	C	1.206811	0.230626	0.000120
C41	C	1.008612	0.404944	0.000102
C42	C	1.035056	0.519384	0.000103
N43	N	0.965916	0.229803	0.216437
N44	N	0.981051	0.204492	-0.216234
C45	C	1.003445	0.166774	0.260136
C46	C	1.000402	0.171892	0.347543
C47	C	0.959834	0.240045	0.391248
C48	C	0.922300	0.303076	0.347543
C49	C	0.925339	0.297952	0.260138
C50	C	0.946555	0.262399	0.652656
C51	C	0.943522	0.267520	0.740067
C52	C	1.021623	0.136334	0.740060
C53	C	1.024662	0.131221	0.652654
C54	C	0.987124	0.194248	0.608956
N55	N	0.956725	0.245281	0.480592
N56	N	0.990229	0.189006	0.519615
H57	H	0.712618	0.034071	0.000088
O58	O	1.179648	-0.498147	0.000133
H59	H	1.241166	-0.447151	0.000150
H60	H	0.894777	0.349276	0.224559
O61	O	1.231305	-0.274649	0.000146
H62	H	1.238906	-0.189771	0.000157
O63	O	1.058464	-0.094166	0.000110
H64	H	1.071161	-0.042181	0.056711
H65	H	1.036484	0.111281	0.224557
O66	O	0.226164	0.423676	0.000115
H67	H	0.276884	0.492827	0.000106
O68	O	1.111548	-0.149591	0.000121
H69	H	1.178569	-0.126763	0.000127
H70	H	1.030961	0.120569	0.383122
O71	O	0.180877	0.036899	0.000132
H72	H	0.216445	-0.023341	0.000144
H73	H	0.874749	-0.555379	0.000071
O74	O	0.748420	-0.458751	0.000064
H75	H	0.712532	-0.398854	0.000054
O76	O	0.767293	-0.067569	0.000068
H77	H	0.798427	0.015157	0.000064
H78	H	0.737452	-0.278550	0.000055
H79	H	1.052183	0.085019	0.775647
O80	O	0.766078	0.397400	0.000070
H81	H	0.802749	0.409095	0.056661
O82	O	1.068408	0.057704	0.605513
H83	H	1.093987	0.014726	0.650585
H84	H	0.910485	0.323023	0.775648
H85	H	0.915992	0.313720	0.617084
H86	H	0.889264	0.358564	0.383133
H87	H	0.600356	0.355985	0.000088
H88	H	0.346602	0.078309	0.000121
O89	O	0.400065	0.441646	0.000117
H90	H	0.391197	0.481301	-0.056471
O91	O	0.546899	-0.007348	0.000103
H92	H	0.483522	0.001542	0.000099
