data_functionalizedCrystal
_audit_creation_method	'MofGen! by Chris Wilmer'
_symmetry_space_group_name_H-M	'P1'
_symmetry_Int_Tables_number	1
_symmetry_cell_setting	triclinic
loop_
_symmetry_equiv_pos_as_xyz
  x,y,z
_cell_length_a	17.077404
_cell_length_b	19.805405
_cell_length_c	17.077404
_cell_angle_alpha	89.987700
_cell_angle_beta	89.991486
_cell_angle_gamma	90.024796
loop_
_atom_site_label
_atom_site_type_symbol
_atom_site_fract_x
_atom_site_fract_y
_atom_site_fract_z
Zn1	Zn	-1.199941	0.269633	0.443839
Zn2	Zn	-1.199863	0.382792	0.312570
Zn3	Zn	-1.068699	0.269616	0.312587
Zn4	Zn	-1.068630	0.382780	0.443793
O5	O	-1.134283	0.326205	0.378197
O6	O	-1.309778	0.284656	0.426438
O7	O	-1.182460	0.367776	0.202725
O8	O	-1.086170	0.174902	0.330024
O9	O	-1.309720	0.367793	0.329996
O10	O	-1.182593	0.174914	0.426454
O11	O	-1.086094	0.284627	0.202738
O12	O	-0.958843	0.284615	0.329979
O13	O	-1.086053	0.367773	0.553646
O14	O	-0.958792	0.367756	0.426376
O15	O	-1.182527	0.284645	0.553680
O16	O	-1.182393	0.477507	0.329951
O17	O	-1.085977	0.477498	0.426360
C18	C	-0.930336	0.326183	0.378175
C19	C	-0.843086	0.326190	0.378184
C20	C	-1.134190	0.502061	0.378166
C21	C	-1.134222	0.577293	0.378179
C22	C	-0.802126	0.282977	0.428477
C23	C	-0.720146	0.282980	0.428479
C24	C	-0.679126	0.326201	0.378191
C25	C	-0.720092	0.369415	0.327892
C26	C	-0.802071	0.369408	0.327887
C27	C	-0.549222	0.369429	0.327907
C28	C	-0.467237	0.369437	0.327913
C29	C	-0.467297	0.283001	0.428500
C30	C	-0.549276	0.282994	0.428495
C31	C	-0.590235	0.326209	0.378196
C32	C	-0.339028	0.326224	0.378214
C33	C	-0.426277	0.326224	0.378207
C34	C	-1.184474	0.612619	0.328032
C35	C	-1.184506	0.683308	0.328052
C36	C	-1.134281	0.718669	0.378215
C37	C	-1.084027	0.683338	0.428367
C38	C	-1.084000	0.612651	0.428350
C39	C	-1.084135	0.968411	0.428436
C40	C	-1.084164	1.039103	0.428447
C41	C	-1.184641	1.039068	0.328137
C42	C	-1.184614	0.968381	0.328121
C43	C	-1.134363	0.933056	0.378275
C44	C	-1.134331	0.856408	0.378254
C45	C	-1.134309	0.795316	0.378233
C46	C	-1.134291	0.326209	0.582942
C47	C	-1.134294	0.326211	0.670191
C48	C	-1.134391	1.149662	0.378255
C49	C	-1.134420	1.074431	0.378304
C50	C	-1.184522	0.282934	0.711200
C51	C	-1.184515	0.282933	0.793181
C52	C	-1.134284	0.326213	0.834151
C53	C	-1.084051	0.369493	0.793136
C54	C	-1.084054	0.369490	0.711157
C55	C	-1.084049	0.369497	0.964006
C56	C	-1.084047	0.369501	1.045991
C57	C	-1.184510	0.282940	1.046030
C58	C	-1.184514	0.282937	0.964051
C59	C	-1.134281	0.326218	0.923042
C60	C	-1.134272	0.326219	1.174249
C61	C	-1.134275	0.326224	1.087000
H62	H	-0.686800	0.247793	0.469435
O63	O	-1.233488	1.073279	0.279348
C64	C	-1.333178	1.065782	0.179881
C65	C	-1.277891	1.026957	0.235081
H66	H	-1.369105	1.028347	0.144089
H67	H	-1.297223	1.098897	0.138759
H68	H	-1.374178	1.098852	0.215977
H69	H	-1.236880	0.993849	0.199049
H70	H	-1.313896	0.993884	0.276206
O71	O	-1.233478	0.717498	0.279380
C72	C	-1.367097	0.738915	0.241497
C73	C	-1.311687	0.700175	0.296654
H74	H	-1.430342	0.724934	0.255455
H75	H	-1.353437	0.725013	0.178175
H76	H	-1.358528	0.795522	0.250062
H77	H	-1.320225	0.643560	0.288159
H78	H	-1.325361	0.714133	0.359956
H79	H	-0.433841	0.404631	0.286965
O80	O	-1.035352	1.073349	0.477256
C81	C	-0.935663	1.065928	0.576729
C82	C	-0.990911	1.027061	0.521510
H83	H	-0.899706	1.028521	0.612511
H84	H	-0.971652	1.098967	0.617860
H85	H	-0.894690	1.099080	0.540649
H86	H	-1.031896	0.993873	0.557527
H87	H	-0.954874	0.994065	0.480377
O88	O	-1.035183	0.411558	0.832810
C89	C	-0.935575	0.497447	0.824112
C90	C	-0.990864	0.449828	0.779087
H91	H	-0.899740	0.528411	0.780697
H92	H	-0.894496	0.466404	0.862475
H93	H	-0.971604	0.532816	0.862508
H94	H	-0.954897	0.414450	0.740649
H95	H	-1.031944	0.480914	0.740773
O96	O	-1.035428	0.934075	0.477233
C97	C	-1.024736	0.854218	0.583164
C98	C	-1.079992	0.893074	0.527961
H99	H	-1.060743	0.821049	0.624181
H100	H	-0.988858	0.891610	0.619069
H101	H	-0.983689	0.821194	0.547065
H102	H	-1.121087	0.926099	0.564000
H103	H	-1.115814	0.855646	0.492054
H104	H	-1.043136	0.712134	0.469214
O105	O	-0.588889	0.411475	0.279026
C106	C	-0.580183	0.497190	0.179238
C107	C	-0.535162	0.449616	0.234561
H108	H	-0.536764	0.528030	0.143262
H109	H	-0.618533	0.532671	0.215169
H110	H	-0.618591	0.466050	0.138287
H111	H	-0.496711	0.480702	0.275523
H112	H	-0.496861	0.414134	0.198581
H113	H	-1.225410	0.247698	1.079423
O114	O	-1.035378	0.411565	0.671227
C115	C	-1.024773	0.502965	0.578669
C116	C	-1.079989	0.455349	0.623828
H117	H	-1.060820	0.538385	0.540348
H118	H	-0.983765	0.471919	0.540237
H119	H	-0.988852	0.533873	0.622041
H120	H	-1.115962	0.424430	0.580512
H121	H	-1.120946	0.486433	0.662272
O122	O	-1.233290	0.934003	0.279309
C123	C	-1.243907	0.854193	0.173353
C124	C	-1.188688	0.893095	0.228569
H125	H	-1.207870	0.821099	0.132327
H126	H	-1.279817	0.891555	0.137458
H127	H	-1.284926	0.821090	0.209441
H128	H	-1.147622	0.926199	0.192542
H129	H	-1.152833	0.855696	0.264467
H130	H	-0.433944	0.247811	0.469453
H131	H	-1.043132	0.404730	0.930619
H132	H	-0.835519	0.247784	0.469430
H133	H	-1.043081	0.583889	0.469186
O134	O	-0.841740	0.411452	0.279010
C135	C	-0.833034	0.497159	0.179212
C136	C	-0.788012	0.449592	0.234542
H137	H	-0.789615	0.527997	0.143234
H138	H	-0.871387	0.532641	0.215138
H139	H	-0.871439	0.466014	0.138263
H140	H	-0.749565	0.480682	0.275502
H141	H	-0.749709	0.414108	0.198568
H142	H	-1.225418	0.247693	0.826567
O143	O	-1.233343	0.240826	0.671527
C144	C	-1.333017	0.154995	0.680228
C145	C	-1.277756	0.202639	0.725252
H146	H	-1.368951	0.124118	0.723645
H147	H	-1.297040	0.119553	0.641873
H148	H	-1.374011	0.186083	0.641825
H149	H	-1.236751	0.171605	0.763698
H150	H	-1.313781	0.238083	0.763558
O151	O	-1.233333	0.240832	0.924372
C152	C	-1.333011	0.155003	0.933057
C153	C	-1.277752	0.202642	0.978090
H154	H	-1.368950	0.124125	0.976469
H155	H	-1.297033	0.119562	0.894702
H156	H	-1.374001	0.186095	0.894654
H157	H	-1.236752	0.171605	1.016537
H158	H	-1.313779	0.238085	1.016396
O159	O	-1.035288	0.411630	1.085709
C160	C	-0.997119	0.526753	1.110812
C161	C	-1.052375	0.479121	1.065765
H162	H	-1.010926	0.581330	1.094717
H163	H	-0.933819	0.514908	1.094677
H164	H	-1.005742	0.519281	1.176443
H165	H	-1.043823	0.486567	1.000124
H166	H	-1.115655	0.490978	1.081965
H167	H	-0.686687	0.404603	0.286942
O168	O	-0.589002	0.240947	0.477369
C169	C	-0.580416	0.155240	0.577167
C170	C	-0.535328	0.202814	0.521847
H171	H	-0.537040	0.124408	0.613154
H172	H	-0.618780	0.119753	0.541234
H173	H	-0.618815	0.186380	0.618109
H174	H	-0.496886	0.171729	0.480894
H175	H	-0.497013	0.238304	0.557829
H176	H	-1.225370	0.583833	0.287180
