data_functionalizedCrystal
_audit_creation_method	'MofGen! by Chris Wilmer'
_symmetry_space_group_name_H-M	'P1'
_symmetry_Int_Tables_number	1
_symmetry_cell_setting	triclinic
loop_
_symmetry_equiv_pos_as_xyz
  x,y,z
_cell_length_a	14.519731
_cell_length_b	14.044209
_cell_length_c	13.596369
_cell_angle_alpha	90.008322
_cell_angle_beta	90.006374
_cell_angle_gamma	91.561597
loop_
_atom_site_label
_atom_site_type_symbol
_atom_site_fract_x
_atom_site_fract_y
_atom_site_fract_z
O1	O	1.233871	-0.124370	-0.081800
O2	O	1.567204	0.208964	0.251533
O3	O	1.900538	0.542297	0.584866
O4	O	0.966576	-0.138983	-0.081803
O5	O	1.299909	0.194350	0.251531
O6	O	1.633242	0.527683	0.584864
O7	O	1.096212	0.006315	-0.081787
O8	O	1.429546	0.339649	0.251546
O9	O	1.762879	0.672982	0.584879
O10	O	1.104234	-0.269668	-0.081815
O11	O	1.437568	0.063665	0.251518
O12	O	1.770901	0.396998	0.584851
O13	O	1.096229	0.006323	0.081795
O14	O	1.429562	0.339657	0.415129
O15	O	1.762896	0.672990	0.748462
O16	O	0.966592	-0.138975	0.081780
O17	O	1.299926	0.194358	0.415114
O18	O	1.633259	0.527691	0.748447
O19	O	1.233888	-0.124362	0.081783
O20	O	1.567221	0.208971	0.415116
O21	O	1.900555	0.542305	0.748449
Zn22	Zn	1.100243	-0.131667	0.107754
Zn23	Zn	1.433576	0.201666	0.441087
Zn24	Zn	1.766909	0.534999	0.774421
Zn25	Zn	1.100221	-0.131678	-0.107774
Zn26	Zn	1.433554	0.201655	0.225560
Zn27	Zn	1.766887	0.534989	0.558893
O28	O	1.104251	-0.269661	0.081768
O29	O	1.437584	0.063673	0.415101
O30	O	1.770918	0.397006	0.748434
C31	C	0.932169	-0.138295	-0.000011
C32	C	1.265503	0.195039	0.333322
C33	C	1.598836	0.528372	0.666655
C34	C	0.829624	-0.136243	-0.000012
C35	C	1.162957	0.197091	0.333322
C36	C	1.496290	0.530424	0.666655
C37	C	0.746345	-0.134576	-0.000015
C38	C	1.079678	0.198758	0.333318
C39	C	1.413012	0.532091	0.666651
C40	C	0.641868	-0.132492	-0.000015
C41	C	0.975201	0.200841	0.333318
C42	C	1.308535	0.534174	0.666651
C43	C	0.558596	-0.130839	-0.000015
C44	C	0.891929	0.202494	0.333318
C45	C	1.225262	0.535828	0.666651
C46	C	0.454112	-0.128756	-0.000017
C47	C	0.787446	0.204577	0.333316
C48	C	1.120779	0.537911	0.666649
C49	C	1.092709	0.041640	0.000006
C50	C	1.426042	0.374973	0.333339
C51	C	1.759375	0.708307	0.666672
C52	C	1.082232	0.146884	0.000010
C53	C	1.415566	0.480218	0.333343
C54	C	1.748899	0.813551	0.666677
C55	C	1.063079	0.339580	0.000002
C56	C	1.396413	0.672913	0.333335
C57	C	1.729746	1.006247	0.666668
C58	C	1.137388	0.397081	0.000001
C59	C	1.470721	0.730415	0.333334
C60	C	1.804054	1.063748	0.666668
C61	C	1.126731	0.504304	-0.000004
C62	C	1.460064	0.837637	0.333330
C63	C	1.793397	1.170971	0.666663
C64	C	1.073735	0.232347	0.000006
C65	C	1.407068	0.565681	0.333340
C66	C	1.740402	0.899014	0.666673
C67	C	1.268294	-0.125051	-0.000011
C68	C	1.601628	0.208283	0.333323
C69	C	1.934961	0.541616	0.666656
C70	C	1.370840	-0.127102	-0.000017
C71	C	1.704173	0.206231	0.333316
C72	C	2.037507	0.539564	0.666650
C73	C	1.107757	0.695015	-0.000020
C74	C	1.441090	1.028348	0.333314
C75	C	1.774424	1.361682	0.666647
C76	C	1.118239	0.589771	-0.000007
C77	C	1.451572	0.923105	0.333326
C78	C	1.784906	1.256438	0.666659
N79	N	1.100206	-0.131678	-0.254866
N80	N	1.433539	0.201655	0.078468
N81	N	1.766872	0.534989	0.411801
C82	C	1.100209	-0.131679	-0.343863
C83	C	1.433542	0.201654	-0.010530
C84	C	1.766876	0.534988	0.322803
C85	C	1.100222	-0.131677	-0.455515
C86	C	1.433555	0.201657	-0.122181
C87	C	1.766889	0.534990	0.211152
C88	C	1.100237	-0.131670	-0.544505
C89	C	1.433571	0.201663	-0.211172
C90	C	1.766904	0.534997	0.122161
C91	C	1.100249	-0.131666	-0.656164
C92	C	1.433583	0.201667	-0.322830
C93	C	1.766916	0.535000	0.010503
N94	N	1.100265	-0.131660	0.254846
N95	N	1.433598	0.201674	0.588179
N96	N	1.766931	0.535007	0.921512
H97	H	1.209009	0.365783	-0.000066
H98	H	1.542342	0.699117	0.333268
H99	H	1.875675	1.032450	0.666601
H100	H	0.991464	0.370876	-0.000000
H101	H	1.324798	0.704210	0.333333
H102	H	1.658131	1.037543	0.666666
