data_functionalizedCrystal
_audit_creation_method	'MofGen! by Chris Wilmer'
_symmetry_space_group_name_H-M	'P1'
_symmetry_Int_Tables_number	1
_symmetry_cell_setting	triclinic
loop_
_symmetry_equiv_pos_as_xyz
  x,y,z
_cell_length_a	10.654558
_cell_length_b	10.654550
_cell_length_c	7.681459
_cell_angle_alpha	84.204081
_cell_angle_beta	95.779341
_cell_angle_gamma	84.486610
loop_
_atom_site_label
_atom_site_type_symbol
_atom_site_fract_x
_atom_site_fract_y
_atom_site_fract_z
O1	O	1.656068	0.188231	-0.146400
O2	O	1.290590	0.205027	-0.146409
O3	O	1.481732	0.013890	-0.146398
O4	O	1.464925	0.379369	-0.146411
O5	O	1.505255	-0.009687	0.146462
O6	O	1.314113	0.181451	0.146451
O7	O	1.679591	0.164655	0.146459
Zn8	Zn	1.500587	0.169309	0.192952
Zn9	Zn	1.469594	0.200373	-0.192902
O10	O	1.488448	0.355792	0.146448
C11	C	1.255553	0.192004	0.000020
C12	C	1.116110	0.188308	0.000017
C13	C	0.906749	0.195964	-0.159621
C14	C	1.037772	0.199426	-0.159623
C15	C	1.063422	0.173714	0.159668
C16	C	0.932403	0.170244	0.159668
C17	C	0.828415	0.207096	-0.319271
C18	C	0.881095	0.221687	-0.478923
C19	C	1.012117	0.225148	-0.478925
C20	C	1.090460	0.214019	-0.319274
C21	C	1.492260	-0.044696	0.000030
C22	C	1.488567	-0.184139	0.000024
C23	C	1.601109	-0.263622	0.000032
C24	C	1.597631	-0.394642	0.000019
C25	C	1.369061	-0.366684	-0.000002
C26	C	1.372539	-0.235665	-0.000002
C27	C	1.717137	-0.212096	0.000057
C28	C	1.829688	-0.291580	0.000067
C29	C	1.826211	-0.422600	0.000055
C30	C	1.710182	-0.474136	0.000032
C31	C	1.714627	0.177679	0.000027
C32	C	1.854069	0.181375	0.000018
C33	C	1.477920	0.414379	0.000017
C34	C	1.481612	0.553823	0.000011
N35	N	1.521747	0.148109	0.456288
N36	N	1.448433	0.221573	0.543763
H37	H	0.817301	0.230739	-0.608904
H38	H	0.721728	0.204282	-0.319287
N39	N	1.620902	0.048790	0.555893
H40	H	1.618506	0.051206	0.686630
H41	H	1.602935	-0.037846	0.523771
H42	H	1.707358	-0.580821	0.000003
N43	N	1.243924	-0.422263	-0.000021
H44	H	1.258799	-0.517324	-0.000015
H45	H	1.203346	-0.401999	0.108544
H46	H	1.719982	-0.105415	0.000073
H47	H	1.055006	0.237017	-0.608921
N48	N	1.231780	0.217735	-0.319270
H49	H	1.253270	0.228659	-0.444628
H50	H	1.258789	0.291233	-0.256514
H51	H	1.924151	-0.249607	0.000041
H52	H	1.917854	-0.487312	0.000045
H53	H	1.127218	0.164656	0.289648
H54	H	1.373595	0.296557	0.468561
N55	N	1.251158	-0.149926	-0.000020
H56	H	1.177128	-0.202447	-0.000024
H57	H	1.256340	-0.103695	0.108543
H58	H	0.889507	0.158388	0.289661
