data_functionalizedCrystal
_audit_creation_method	'MofGen! by Chris Wilmer'
_symmetry_space_group_name_H-M	'P1'
_symmetry_Int_Tables_number	1
_symmetry_cell_setting	triclinic
loop_
_symmetry_equiv_pos_as_xyz
  x,y,z
_cell_length_a	10.723024
_cell_length_b	9.130307
_cell_length_c	10.723024
_cell_angle_alpha	89.997858
_cell_angle_beta	95.532131
_cell_angle_gamma	90.001221
loop_
_atom_site_label
_atom_site_type_symbol
_atom_site_fract_x
_atom_site_fract_y
_atom_site_fract_z
O1	O	1.657183	0.121786	-0.175025
O2	O	1.294031	0.121791	-0.191778
O3	O	1.483984	0.121783	-0.001826
O4	O	1.467230	0.121794	-0.364978
O5	O	1.483978	-0.121816	-0.001824
O6	O	1.294025	-0.121808	-0.191777
O7	O	1.657177	-0.121813	-0.175023
Cu8	Cu	1.475600	-0.144053	-0.183400
Cu9	Cu	1.475608	0.144031	-0.183402
O10	O	1.467224	-0.121805	-0.364976
C11	C	1.247528	-0.000008	-0.190558
C12	C	1.108974	-0.000007	-0.186911
N13	N	1.475604	-0.346676	-0.183397
C14	C	1.033991	-0.000002	-0.293198
C15	C	0.890788	-0.000001	-0.289431
C16	C	1.643877	-0.346673	-0.015244
C17	C	1.728021	-0.423338	0.068830
C18	C	1.728034	-0.576672	0.068830
C19	C	1.643890	-0.653343	-0.015249
C20	C	1.559746	-0.576678	-0.099322
C21	C	1.559745	-0.423341	-0.099316
C22	C	1.391469	-0.576681	-0.267468
C23	C	1.391461	-0.423348	-0.267477
C24	C	1.307325	-0.653353	-0.351547
C25	C	1.223185	-0.576688	-0.435628
C26	C	1.223177	-0.423345	-0.435626
C27	C	1.307316	-0.346683	-0.351550
C28	C	1.703680	-0.000011	-0.176243
C29	C	1.842234	-0.000003	-0.179891
C30	C	1.482762	-0.000015	0.044675
C31	C	1.479114	-0.000010	0.183229
N32	N	1.475614	0.346654	-0.183394
C33	C	1.468447	-0.000004	-0.411477
C34	C	1.472094	0.000000	-0.550031
C35	C	1.585401	-0.000009	0.258212
C36	C	1.581634	-0.000004	0.401415
H37	H	1.075814	-0.000008	-0.386984
H38	H	0.906659	0.000003	-0.088896
Br39	Br	1.307321	-0.138586	-0.351548
Br40	Br	1.322788	0.000013	0.252921
Br41	Br	1.741727	0.000004	0.188520
Br42	Br	1.842205	-0.319284	0.182941
Br43	Br	1.643889	-0.138576	-0.015257
Br44	Br	1.733301	-0.000020	0.508799
H45	H	1.796547	-0.639093	0.137295
H46	H	1.154676	-0.639123	-0.504074
H47	H	1.067152	0.000028	-0.093125
H48	H	1.643895	-0.778196	-0.015232
Br49	Br	1.307328	-0.861450	-0.351542
H50	H	0.826355	0.000009	-0.380421
Br51	Br	1.108963	-0.319313	-0.549723
H52	H	1.381099	-0.000010	0.385544
