data_functionalizedCrystal
_audit_creation_method	'MofGen! by Chris Wilmer'
_symmetry_space_group_name_H-M	'P1'
_symmetry_Int_Tables_number	1
_symmetry_cell_setting	triclinic
loop_
_symmetry_equiv_pos_as_xyz
  x,y,z
_cell_length_a	18.050590
_cell_length_b	18.050588
_cell_length_c	19.805399
_cell_angle_alpha	90.025240
_cell_angle_beta	90.002950
_cell_angle_gamma	90.018727
loop_
_atom_site_label
_atom_site_type_symbol
_atom_site_fract_x
_atom_site_fract_y
_atom_site_fract_z
Zn1	Zn	1.135313	-0.295891	0.382430
Zn2	Zn	1.635313	0.204109	0.882430
Zn3	Zn	1.135212	-0.420084	0.269247
Zn4	Zn	1.635212	0.079916	0.769247
Zn5	Zn	1.011124	-0.295888	0.269288
Zn6	Zn	1.511124	0.204112	0.769288
Zn7	Zn	1.011077	-0.420021	0.382426
Zn8	Zn	1.511077	0.079979	0.882426
O9	O	1.073182	-0.357971	0.325848
O10	O	1.573182	0.142029	0.825848
O11	O	1.239224	-0.312393	0.367401
O12	O	1.739224	0.187607	0.867401
O13	O	1.118729	-0.403634	0.174536
O14	O	1.618729	0.096366	0.674536
O15	O	1.027659	-0.191964	0.284315
O16	O	1.527659	0.308036	0.784315
O17	O	1.239150	-0.403637	0.284245
O18	O	1.739150	0.096363	0.784245
O19	O	1.118900	-0.191966	0.367441
O20	O	1.618900	0.308034	0.867441
O21	O	1.027562	-0.312388	0.174566
O22	O	1.527562	0.187612	0.674566
O23	O	0.907193	-0.312327	0.284311
O24	O	1.407193	0.187673	0.784311
O25	O	1.027580	-0.403530	0.477143
O26	O	1.527580	0.096470	0.977143
O27	O	0.907159	-0.403527	0.367434
O28	O	1.407159	0.096473	0.867434
O29	O	1.118855	-0.312332	0.477146
O30	O	1.618855	0.187668	0.977146
O31	O	1.118684	-0.524000	0.284241
O32	O	1.618684	-0.024000	0.784241
O33	O	1.027482	-0.523954	0.367394
O34	O	1.527482	-0.023954	0.867394
C35	C	1.073087	-0.550923	0.325828
C36	C	1.573087	-0.050923	0.825828
C37	C	1.073115	-0.633469	0.325842
C38	C	1.573115	-0.133469	0.825842
C39	C	0.880229	-0.357920	0.325877
C40	C	1.380229	0.142080	0.825877
C41	C	0.797684	-0.357917	0.325905
C42	C	1.297684	0.142083	0.825905
C43	C	1.023598	-0.882296	0.371060
C44	C	1.523598	-0.382296	0.871060
C45	C	1.091315	-0.832839	0.387653
C46	C	1.591315	-0.332839	0.887653
C47	C	1.073269	-0.930589	0.325879
C48	C	1.573269	-0.430589	0.825879
C49	C	1.005479	-0.832965	0.309300
C50	C	1.505479	-0.332965	0.809300
C51	C	1.073190	-0.784604	0.325862
C52	C	1.573190	-0.284604	0.825862
C53	C	1.141023	-0.882219	0.342504
C54	C	1.641023	-0.382219	0.842504
C55	C	1.055142	-0.882349	0.264122
C56	C	1.555142	-0.382349	0.764122
C57	C	1.122906	-0.832914	0.280691
C58	C	1.622906	-0.332914	0.780691
C59	C	1.073314	-1.014688	0.325891
C60	C	1.573314	-0.514688	0.825891
C61	C	1.073153	-0.700508	0.325851
C62	C	1.573153	-0.200508	0.825851
C63	C	0.598236	-0.407653	0.371000
C64	C	1.098236	0.092347	0.871000
C65	C	0.548845	-0.339937	0.387654
C66	C	1.048845	0.160063	0.887654
C67	C	0.646553	-0.357958	0.325872
C68	C	1.146553	0.142042	0.825872
C69	C	0.548862	-0.425713	0.309217
C70	C	1.048862	0.074287	0.809217
C71	C	0.500568	-0.358004	0.325842
C72	C	1.000568	0.141996	0.825842
C73	C	0.598250	-0.290206	0.342559
C74	C	1.098250	0.209794	0.842559
C75	C	0.598271	-0.376028	0.264093
C76	C	1.098271	0.123972	0.764093
C77	C	0.548903	-0.308265	0.280724
C78	C	1.048903	0.191735	0.780724
C79	C	0.730652	-0.357932	0.325892
C80	C	1.230652	0.142068	0.825892
C81	C	0.416472	-0.358022	0.325822
C82	C	0.916472	0.141978	0.825822
C83	C	1.266887	-0.358023	0.325819
C84	C	1.766887	0.141977	0.825819
C85	C	1.349433	-0.358044	0.325807
C86	C	1.849433	0.141956	0.825807
C87	C	1.073223	-0.357924	0.502391
C88	C	1.573223	0.142076	1.002391
C89	C	1.073241	-0.357904	0.577623
C90	C	1.573241	0.142096	1.077623
C91	C	1.073296	-0.164265	0.325883
C92	C	1.573296	0.335735	0.825883
C93	C	1.073345	-0.081720	0.325898
C94	C	1.573345	0.418280	0.825898
C95	C	1.073183	-0.357964	0.149992
C96	C	1.573183	0.142036	0.649992
C97	C	1.073309	-0.357775	0.074760
C98	C	1.573309	0.142225	0.574760
C99	C	1.120769	-0.310416	0.612969
C100	C	1.620769	0.189584	1.112969
C101	C	1.120777	-0.310394	0.683658
C102	C	1.620777	0.189606	1.183658
C103	C	1.073259	-0.357866	0.718998
C104	C	1.573259	0.142134	1.218998
C105	C	1.025726	-0.405356	0.683647
C106	C	1.525726	0.094644	1.183647
C107	C	1.025715	-0.405374	0.612959
C108	C	1.525715	0.094626	1.112959
C109	C	1.025768	-0.405287	0.968720
C110	C	1.525768	0.094713	1.468720
C111	C	1.025784	-0.405268	1.039412
C112	C	1.525784	0.094732	1.539412
C113	C	1.120829	-0.310308	1.039419
C114	C	1.620829	0.189692	1.539419
C115	C	1.120819	-0.310325	0.968731
C116	C	1.620819	0.189675	1.468731
C117	C	1.073283	-0.357813	0.933386
C118	C	1.573283	0.142187	1.433386
C119	C	1.073274	-0.357834	0.856737
C120	C	1.573274	0.142166	1.356737
C121	C	1.073271	-0.357848	0.795645
C122	C	1.573271	0.142152	1.295645
H123	H	1.106619	-0.811094	0.439872
H124	H	1.606619	-0.311094	0.939872
C125	C	0.974022	-0.456816	0.574549
C126	C	1.474022	0.043184	1.074549
C127	C	0.926424	-0.414767	0.533993
C128	C	1.426424	0.085233	1.033993
C129	C	0.878785	-0.462130	0.498610
C130	C	1.378785	0.037870	0.998610
H131	H	1.002320	-0.489205	0.546910
H132	H	1.502320	0.010795	1.046910
H133	H	0.945684	-0.485072	0.605702
H134	H	1.445684	0.014928	1.105702
H135	H	0.954759	-0.386523	0.502844
H136	H	1.454759	0.113477	1.002844
H137	H	0.898110	-0.382380	0.561615
H138	H	1.398110	0.117620	1.061615
H139	H	0.850447	-0.490386	0.529763
H140	H	1.350447	0.009614	1.029763
H141	H	0.907088	-0.494517	0.470975
H142	H	1.407088	0.005483	0.970975
H143	H	0.846479	-0.433607	0.471094
H144	H	1.346479	0.066393	0.971094
H145	H	0.619998	-0.391317	0.211876
H146	H	1.119998	0.108683	0.711876
H147	H	1.039818	-0.904112	0.211918
H148	H	1.539818	-0.404112	0.711918
C149	C	0.967802	-0.911177	0.422159
C150	C	1.467802	-0.411177	0.922159
C151	C	0.987093	-0.886103	0.486719
C152	C	1.487093	-0.386103	0.986719
C153	C	0.935723	-0.912703	0.533809
C154	C	1.435723	-0.412703	1.033809
H155	H	0.919766	-0.893607	0.410910
H156	H	1.419766	-0.393607	0.910910
H157	H	0.967918	-0.963806	0.421565
H158	H	1.467918	-0.463806	0.921565
H159	H	0.986970	-0.833485	0.487310
H160	H	1.486970	-0.333485	0.987310
H161	H	1.035121	-0.903671	0.497989
H162	H	1.535121	-0.403671	0.997989
H163	H	0.935838	-0.965332	0.533216
H164	H	1.435838	-0.465332	1.033216
H165	H	0.887689	-0.895131	0.522554
H166	H	1.387689	-0.395131	1.022554
H167	H	0.948808	-0.895700	0.577619
H168	H	1.448808	-0.395700	1.077619
C169	C	1.172340	-0.258712	0.721942
C170	C	1.672340	0.241288	1.221942
C171	C	1.156225	-0.185236	0.704741
C172	C	1.656225	0.314764	1.204741
C173	C	1.203718	-0.137602	0.739985
C174	C	1.703718	0.362398	1.239985
H175	H	1.165592	-0.265390	0.769114
H176	H	1.665592	0.234610	1.269114
H177	H	1.222242	-0.269557	0.710335
H178	H	1.722242	0.230443	1.210335
H179	H	1.106335	-0.174395	0.716352
H180	H	1.606335	0.325605	1.216352
H181	H	1.162977	-0.178535	0.657575
H182	H	1.662977	0.321465	1.157575
H183	H	1.253619	-0.148447	0.728378
H184	H	1.753619	0.351553	1.228378
H185	H	1.196966	-0.144287	0.787155
H186	H	1.696966	0.355713	1.287155
H187	H	1.192794	-0.087744	0.728314
H188	H	1.692794	0.412256	1.228314
C189	C	0.929122	-0.803976	0.290653
C190	C	1.429122	-0.303976	0.790653
C191	C	0.930245	-0.726418	0.290313
C192	C	1.430245	-0.226418	0.790313
C193	C	0.859913	-0.699695	0.273155
C194	C	1.359913	-0.199695	0.773155
H195	H	0.915861	-0.821579	0.247091
H196	H	1.415861	-0.321579	0.747091
H197	H	0.893910	-0.820847	0.322817
H198	H	1.393910	-0.320847	0.822817
H199	H	0.965445	-0.709554	0.258149
H200	H	1.465445	-0.209554	0.758149
H201	H	0.943493	-0.708795	0.333868
H202	H	1.443493	-0.208795	0.833868
H203	H	0.824702	-0.716566	0.305319
H204	H	1.324702	-0.216566	0.805319
H205	H	0.846658	-0.717303	0.229594
H206	H	1.346658	-0.217303	0.729594
H207	H	0.860664	-0.647069	0.272927
H208	H	1.360664	-0.147069	0.772927
H209	H	0.619854	-0.232909	0.356692
H210	H	1.119854	0.267091	0.856692
C211	C	1.179049	-0.804218	0.229825
C212	C	1.679049	-0.304218	0.729825
C213	C	1.249836	-0.829294	0.247487
C214	C	1.749836	-0.329294	0.747487
C215	C	1.301576	-0.802864	0.200654
C216	C	1.801576	-0.302864	0.700654
H217	H	1.166710	-0.821903	0.186066
H218	H	1.666710	-0.321903	0.686066
H219	H	1.178476	-0.751588	0.229843
H220	H	1.678476	-0.251588	0.729843
H221	H	1.250406	-0.881913	0.247462
H222	H	1.750406	-0.381913	0.747462
H223	H	1.262198	-0.811611	0.291238
H224	H	1.762198	-0.311611	0.791238
H225	H	1.301003	-0.750234	0.200672
H226	H	1.801003	-0.250234	0.700672
H227	H	1.289229	-0.820550	0.156898
H228	H	1.789229	-0.320550	0.656898
H229	H	1.349611	-0.819868	0.212635
H230	H	1.849611	-0.319868	0.712635
C231	C	0.520033	-0.319603	0.457353
C232	C	1.020033	0.180397	0.957353
C233	C	0.579942	-0.307574	0.500911
C234	C	1.079942	0.192426	1.000911
C235	C	0.553430	-0.288859	0.565126
C236	C	1.053430	0.211141	1.065126
H237	H	0.491096	-0.275776	0.454447
H238	H	0.991096	0.224224	0.954447
H239	H	0.490356	-0.358906	0.474278
H240	H	0.990356	0.141094	0.974278
H241	H	0.609607	-0.268275	0.483991
H242	H	1.109607	0.231725	0.983991
H243	H	0.608884	-0.351392	0.503838
H244	H	1.108884	0.148608	1.003838
H245	H	0.523753	-0.328161	0.582051
H246	H	1.023753	0.171839	1.082051
H247	H	0.524493	-0.245033	0.562213
H248	H	1.024493	0.254967	1.062213
H249	H	0.594073	-0.280701	0.594690
H250	H	1.094073	0.219299	1.094690
H251	H	1.198335	-0.903766	0.356580
H252	H	1.698335	-0.403766	0.856580
H253	H	0.619899	-0.449604	0.409206
H254	H	1.119899	0.050396	0.909206
H255	H	0.527378	-0.266211	0.242548
H256	H	1.027378	0.233789	0.742548
C257	C	1.172239	-0.258827	0.574518
C258	C	1.672239	0.241173	1.074518
C259	C	1.130210	-0.211239	0.533938
C260	C	1.630210	0.288761	1.033938
C261	C	1.177597	-0.163708	0.498503
C262	C	1.677597	0.336292	0.998503
H263	H	1.200560	-0.230470	0.605620
H264	H	1.700560	0.269530	1.105620
H265	H	1.204567	-0.287227	0.546895
H266	H	1.704567	0.212773	1.046895
H267	H	1.097894	-0.182842	0.561559
H268	H	1.597894	0.317158	1.061559
H269	H	1.101890	-0.239576	0.502824
H270	H	1.601890	0.260424	1.002824
H271	H	1.209925	-0.192108	0.470880
H272	H	1.709925	0.307892	0.970880
H273	H	1.205916	-0.135356	0.529610
H274	H	1.705916	0.364644	1.029610
H275	H	1.149088	-0.131418	0.470961
H276	H	1.649088	0.368582	0.970961
C277	C	0.520030	-0.502153	0.290543
C278	C	1.020030	-0.002153	0.790543
C279	C	0.545039	-0.553925	0.337967
C280	C	1.045039	-0.053925	0.837967
C281	C	0.518501	-0.624350	0.320789
C282	C	1.018501	-0.124350	0.820789
H283	H	0.467410	-0.501604	0.290277
H284	H	0.967410	-0.001604	0.790277
H285	H	0.537697	-0.515360	0.246986
H286	H	1.037697	-0.015360	0.746986
H287	H	0.527368	-0.540721	0.381512
H288	H	1.027368	-0.040721	0.881512
H289	H	0.597656	-0.554497	0.338240
H290	H	1.097656	-0.054497	0.838240
H291	H	0.536169	-0.637557	0.277233
H292	H	1.036169	-0.137557	0.777233
H293	H	0.465882	-0.623794	0.320523
H294	H	0.965882	-0.123794	0.820523
H295	H	0.535472	-0.659487	0.352960
H296	H	1.035472	-0.159487	0.852960
H297	H	1.159515	-0.271671	0.939961
H298	H	1.659515	0.228329	1.439961
H299	H	1.159533	-0.271638	1.068205
H300	H	1.659533	0.228362	1.568205
H301	H	0.987086	-0.443926	1.068184
H302	H	1.487086	0.056074	1.568184
C303	C	0.974120	-0.456914	0.930473
C304	C	1.474120	0.043086	1.430473
C305	C	0.932521	-0.498491	0.976555
C306	C	1.432521	0.001509	1.476555
C307	C	0.884934	-0.546061	0.941343
C308	C	1.384934	-0.046061	1.441343
H309	H	0.941711	-0.428573	0.902912
H310	H	1.441711	0.071427	1.402912
H311	H	1.002473	-0.489333	0.902895
H312	H	1.502473	0.010667	1.402895
H313	H	0.904170	-0.466077	1.004121
H314	H	1.404170	0.033923	1.504121
H315	H	0.964910	-0.526847	1.004117
H316	H	1.464910	-0.026847	1.504117
H317	H	0.913286	-0.578479	0.913766
H318	H	1.413286	-0.078479	1.413766
H319	H	0.852530	-0.517714	0.913784
H320	H	1.352530	-0.017714	1.413784
H321	H	0.856708	-0.574281	0.972604
H322	H	1.356708	-0.074281	1.472604
H323	H	0.987034	-0.444006	0.712426
H324	H	1.487034	0.055994	1.212426
