data_functionalizedCrystal
_audit_creation_method	'MofGen! by Chris Wilmer'
_symmetry_space_group_name_H-M	'P1'
_symmetry_Int_Tables_number	1
_symmetry_cell_setting	triclinic
loop_
_symmetry_equiv_pos_as_xyz
  x,y,z
_cell_length_a	12.759401
_cell_length_b	21.295417
_cell_length_c	12.759393
_cell_angle_alpha	89.961880
_cell_angle_beta	89.981287
_cell_angle_gamma	90.032032
loop_
_atom_site_label
_atom_site_type_symbol
_atom_site_fract_x
_atom_site_fract_y
_atom_site_fract_z
Zn1	Zn	1.606128	-0.250553	-0.593965
Zn2	Zn	1.605977	-0.355835	-0.418261
Zn3	Zn	1.430433	-0.250587	-0.418300
Zn4	Zn	1.430370	-0.355791	-0.593899
O5	O	1.518227	-0.303191	-0.506106
O6	O	1.753129	-0.264523	-0.570669
O7	O	1.582655	-0.341906	-0.271245
O8	O	1.453829	-0.162493	-0.441646
O9	O	1.753018	-0.341874	-0.441580
O10	O	1.582911	-0.162468	-0.570706
O11	O	1.453683	-0.264580	-0.271274
O12	O	1.283404	-0.264538	-0.441582
O13	O	1.453721	-0.341799	-0.740929
O14	O	1.283357	-0.341831	-0.570594
O15	O	1.582850	-0.264481	-0.740977
O16	O	1.582593	-0.443919	-0.441516
O17	O	1.453575	-0.443886	-0.570556
C18	C	1.245260	-0.303184	-0.506085
C19	C	1.128483	-0.303196	-0.506101
C20	C	1.518089	-0.466743	-0.506048
C21	C	1.518127	-0.536711	-0.506058
C22	C	1.073624	-0.343503	-0.573172
C23	C	0.963900	-0.343506	-0.573193
C24	C	0.963903	-0.262891	-0.439063
C25	C	1.073626	-0.262886	-0.439048
C26	C	0.813989	-0.366093	-0.697048
C27	C	0.759127	-0.406411	-0.764110
C28	C	0.794696	-0.467844	-0.780044
C29	C	0.885125	-0.488971	-0.728901
C30	C	0.939982	-0.448657	-0.661832
C31	C	0.904415	-0.387215	-0.645918
C32	C	1.223539	-0.240305	-0.315192
C33	C	1.278397	-0.199993	-0.248116
C34	C	1.242831	-0.138559	-0.232171
C35	C	1.152398	-0.117434	-0.283295
C36	C	1.097539	-0.157746	-0.350371
C37	C	1.133113	-0.219179	-0.366317
C38	C	1.585366	-0.569574	-0.438936
C39	C	1.585415	-0.635316	-0.438960
C40	C	1.518206	-0.668194	-0.506094
C41	C	1.450962	-0.635323	-0.573230
C42	C	1.450922	-0.569582	-0.573212
N43	N	1.426299	-0.771460	-0.514097
N44	N	1.426340	-0.833912	-0.514108
C45	C	1.518324	-0.866268	-0.506155
N46	N	1.610268	-0.833814	-0.498169
N47	N	1.610226	-0.771357	-0.498153
C48	C	1.518243	-0.739479	-0.506122
C49	C	1.585622	-0.970416	-0.439054
C50	C	1.585673	-1.036160	-0.439085
C51	C	1.451211	-1.036166	-0.573350
C52	C	1.451170	-0.970423	-0.573325
C53	C	1.518374	-0.937553	-0.506171
C54	C	1.792260	-0.303200	-0.506128
C55	C	1.909037	-0.303203	-0.506137
C56	C	1.518295	-0.303131	-0.780140
C57	C	1.518324	-0.303105	-0.896916
C58	C	1.518394	-0.139001	-0.506188
C59	C	1.518465	-0.069033	-0.506222
C60	C	1.451110	-0.343346	-0.951755
C61	C	1.451147	-0.343322	-1.061479
C62	C	1.585617	-0.262812	-1.061517
C63	C	1.585584	-0.262839	-0.951794
C64	C	1.413576	-0.417523	-1.211397
C65	C	1.346345	-0.457758	-1.266239
C66	C	1.243810	-0.467428	-1.230621
C67	C	1.208485	-0.436853	-1.140163
C68	C	1.275710	-0.396613	-1.085327
C69	C	1.378260	-0.386956	-1.120943
C70	C	1.623144	-0.188638	-0.801875
C71	C	1.690365	-0.148394	-0.747036
C72	C	1.792901	-0.138718	-0.782652
C73	C	1.828223	-0.169282	-0.873113
C74	C	1.761002	-0.209526	-0.927952
C75	C	1.658466	-0.219202	-0.892329
C76	C	1.518220	-0.303206	-0.233139
C77	C	1.518395	-0.303055	-0.116363
H78	H	1.118286	-0.376325	-0.627773
C79	C	1.941014	-0.158643	-0.912293
H80	H	1.975992	-0.130304	-0.866672
H81	H	1.939249	-0.141515	-0.981031
H82	H	1.977393	-0.197549	-0.913327
C83	C	1.376950	-0.533432	-0.647043
H84	H	1.336925	-0.562425	-0.687029
H85	H	1.417096	-0.507738	-0.692845
H86	H	1.331175	-0.507835	-0.606796
C87	C	1.659299	-0.533419	-0.365082
H88	H	1.699359	-0.562411	-0.325117
H89	H	1.619126	-0.507816	-0.319262
H90	H	1.705044	-0.507732	-0.405315
H91	H	1.661594	-0.123503	-0.673383
C92	C	1.377284	-1.072320	-0.647202
H93	H	1.337234	-1.043329	-0.687180
H94	H	1.331546	-1.098014	-0.606984
H95	H	1.417473	-1.097917	-0.693027
H96	H	1.189070	-0.500188	-1.275282
C97	C	1.866840	-0.094447	-0.722334
H98	H	1.831123	-0.077627	-0.663357
H99	H	1.888433	-0.061190	-0.767065
H100	H	1.926578	-0.117219	-0.699351
H101	H	1.640173	-0.662078	-0.384301
H102	H	1.352033	-0.217199	-0.206488
C103	C	0.659668	-0.383170	-0.820372
H104	H	0.646349	-0.340803	-0.801295
H105	H	0.601772	-0.408593	-0.800494
H106	H	0.669532	-0.385769	-0.894043
C107	C	1.377033	-0.671485	-0.647074
H108	H	1.386678	-0.715346	-0.637464
H109	H	1.392361	-0.660670	-0.717676
H110	H	1.306441	-0.660756	-0.631626
H111	H	1.640348	-0.943652	-0.384377
C112	C	1.377192	-0.934273	-0.647147
H113	H	1.337164	-0.963267	-0.687128
H114	H	1.417335	-0.908580	-0.692953
H115	H	1.331420	-0.908675	-0.606898
C116	C	1.377137	-0.387639	-0.891387
H117	H	1.386734	-0.381889	-0.818186
H118	H	1.392473	-0.429930	-0.909351
H119	H	1.306558	-0.378415	-0.909373
C120	C	1.659640	-1.072309	-0.365246
H121	H	1.699648	-1.043314	-0.325246
H122	H	1.705415	-1.097909	-0.405478
H123	H	1.619480	-1.098000	-0.319443
H124	H	0.914071	-0.538998	-0.741872
C125	C	1.659584	-0.218517	-1.121886
H126	H	1.649970	-0.224258	-1.195087
H127	H	1.730161	-0.227733	-1.103906
H128	H	1.644236	-0.176224	-1.103917
C129	C	1.236871	-0.362982	-0.985830
H130	H	1.291595	-0.337633	-0.958275
H131	H	1.216595	-0.393297	-0.935067
H132	H	1.178467	-0.337260	-1.002772
H133	H	0.919225	-0.230073	-0.384470
C134	C	1.095689	-0.447483	-1.100996
H135	H	1.060713	-0.475830	-1.146607
H136	H	1.059318	-0.408578	-1.099964
H137	H	1.097450	-0.464612	-1.032253
C138	C	1.526371	-0.406894	-1.250568
H139	H	1.561357	-0.378558	-1.204947
H140	H	1.524613	-0.389767	-1.319306
H141	H	1.562739	-0.445803	-1.251599
C142	C	1.113266	-0.049858	-0.265764
H143	H	1.051546	-0.043053	-0.305812
H144	H	1.165914	-0.020996	-0.287102
H145	H	1.098176	-0.043840	-0.193552
C146	C	1.799850	-0.243150	-1.027456
H147	H	1.745128	-0.268499	-1.055017
H148	H	1.858263	-0.268862	-1.010525
H149	H	1.820108	-0.212829	-1.078225
C150	C	0.998070	-0.134507	-0.406616
H151	H	0.984746	-0.092144	-0.387522
H152	H	0.940180	-0.159936	-0.386746
H153	H	1.007932	-0.137095	-0.480289
H154	H	1.539650	-0.196515	-0.772864
H155	H	1.375116	-0.482652	-1.339890
H156	H	1.013607	-0.465858	-0.620192
H157	H	0.750019	-0.500670	-0.834648
C158	C	1.303175	-0.094218	-0.158387
H159	H	1.362128	-0.115595	-0.130220
H160	H	1.258446	-0.081270	-0.102943
H161	H	1.326194	-0.058435	-0.196493
C162	C	1.262670	-0.307882	-0.332736
H163	H	1.324376	-0.314692	-0.292670
H164	H	1.277760	-0.313901	-0.404941
H165	H	1.210014	-0.336744	-0.311396
C166	C	0.774872	-0.298514	-0.679532
H167	H	0.820500	-0.277525	-0.632277
H168	H	0.706127	-0.299573	-0.650981
H169	H	0.773873	-0.276746	-0.744537
