data_functionalizedCrystal
_audit_creation_method	'MofGen! by Chris Wilmer'
_symmetry_space_group_name_H-M	'P1'
_symmetry_Int_Tables_number	1
_symmetry_cell_setting	triclinic
loop_
_symmetry_equiv_pos_as_xyz
  x,y,z
_cell_length_a	10.685980
_cell_length_b	29.839131
_cell_length_c	10.686551
_cell_angle_alpha	94.418204
_cell_angle_beta	98.408259
_cell_angle_gamma	94.400858
loop_
_atom_site_label
_atom_site_type_symbol
_atom_site_fract_x
_atom_site_fract_y
_atom_site_fract_z
Zn1	Zn	1.995682	-0.100700	0.866627
Zn2	Zn	1.979174	-0.182090	0.654301
Zn3	Zn	1.767096	-0.113204	0.638082
Zn4	Zn	1.783297	-0.182047	0.850212
O5	O	1.881312	-0.144510	0.752305
O6	O	2.171131	-0.106282	0.852119
O7	O	1.937352	-0.178204	0.474514
O8	O	1.797547	-0.048673	0.668481
O9	O	2.159003	-0.166079	0.696124
O10	O	1.965488	-0.039486	0.836392
O11	O	1.781539	-0.127594	0.462597
O12	O	1.591606	-0.127551	0.652564
O13	O	1.825160	-0.166004	1.030025
O14	O	1.603509	-0.178129	0.808414
O15	O	1.981198	-0.106239	1.042085
O16	O	1.953062	-0.244957	0.680207
O17	O	1.809152	-0.244925	0.824142
C18	C	1.551498	-0.154193	0.726948
C19	C	1.410404	-0.158345	0.716131
C20	C	1.881110	-0.261242	0.752184
C21	C	1.881143	-0.311175	0.752183
C22	C	1.968750	-0.615989	0.839851
C23	C	1.968894	-0.803656	0.839938
O24	O	2.043185	-0.823823	0.914383
N25	N	1.881539	-0.831942	0.752463
C26	C	1.794136	-0.813308	0.664965
O27	O	1.719829	-0.841673	0.590573
C28	C	1.793987	-0.625643	0.664885
C29	C	1.881357	-0.597359	0.752358
C30	C	2.056112	-0.587706	0.927317
C31	C	2.056080	-0.540792	0.927290
C32	C	1.968686	-0.522162	0.839797
C33	C	1.881324	-0.550445	0.752331
C34	C	1.706579	-0.607010	0.577395
C35	C	1.706548	-0.560090	0.577385
C36	C	1.793917	-0.531806	0.664857
C37	C	1.793898	-0.484901	0.664810
N38	N	1.881254	-0.456615	0.752285
C39	C	1.968648	-0.475245	0.839779
C40	C	1.794221	-0.911835	0.665012
C41	C	1.794260	-0.958752	0.665030
C42	C	1.969017	-0.949096	0.840005
C43	C	1.968984	-0.902179	0.839979
C44	C	1.881577	-0.883550	0.752487
C45	C	1.968574	-0.376723	0.839714
C46	C	1.968537	-0.329806	0.839676
C47	C	1.793776	-0.339466	0.664707
C48	C	1.793817	-0.386379	0.664740
C49	C	1.881220	-0.405006	0.752254
O50	O	1.719637	-0.464703	0.590414
O51	O	2.042924	-0.446873	0.914178
C52	C	1.968783	-0.662903	0.839878
C53	C	1.881421	-0.691186	0.752412
C54	C	1.794027	-0.672556	0.664919
C55	C	1.881460	-0.738103	0.752430
C56	C	1.968853	-0.756733	0.839923
C57	C	2.056209	-0.728447	0.927399
C58	C	2.056176	-0.681534	0.927371
C59	C	1.706672	-0.700842	0.577444
C60	C	1.706712	-0.747755	0.577477
C61	C	1.794106	-0.766386	0.664970
C62	C	2.212415	-0.134790	0.777762
C63	C	2.353511	-0.130648	0.788610
C64	C	1.906828	-0.134722	1.083402
C65	C	1.917701	-0.130551	1.224496
C66	C	1.881552	-0.027321	0.752458
C67	C	1.881654	0.022618	0.752523
C68	C	1.855969	-0.154226	0.422502
C69	C	1.845342	-0.158263	0.281428
H70	H	2.039688	-0.306778	0.910907
O71	O	1.424097	-0.098509	0.872383
C72	C	1.389704	-0.055470	0.842468
H73	H	1.345349	-0.057205	0.738301
H74	H	1.477829	-0.030415	0.860145
H75	H	1.318125	-0.043987	0.904767
O76	O	1.339702	-0.190472	0.632395
C77	C	1.268522	-0.219621	0.698686
H78	H	1.316268	-0.218330	0.801685
H79	H	1.263288	-0.255582	0.652458
H80	H	1.168456	-0.208524	0.695519
O81	O	1.761656	-0.190435	1.210877
C82	C	1.791755	-0.233455	1.245281
H83	H	1.895942	-0.231676	1.289609
H84	H	1.774141	-0.258522	1.157168
H85	H	1.729523	-0.244953	1.316882
H86	H	1.987978	-0.103635	1.283702
O87	O	2.053595	-0.394739	0.924779
C88	C	2.130661	-0.359708	1.001987
H89	H	2.131062	-0.327684	0.950304
H90	H	2.231729	-0.369885	1.023319
H91	H	2.091511	-0.353228	1.094769
O92	O	1.708911	-0.413904	0.579934
C93	C	1.632420	-0.441318	0.645846
H94	H	1.684530	-0.444153	0.745524
H95	H	1.611487	-0.476353	0.592844
H96	H	1.539393	-0.425615	0.652466
O97	O	2.140995	-0.513385	1.012391
C98	C	2.218147	-0.539898	1.089589
H99	H	2.166497	-0.574755	1.089944
H100	H	2.239306	-0.522971	1.190649
H101	H	2.311022	-0.543406	1.050601
H102	H	2.127279	-0.602869	0.998572
H103	H	2.040127	-0.879153	0.911207
H104	H	2.040178	-0.964273	0.911244
O105	O	1.709276	-0.986159	0.580000
C106	C	1.632157	-0.959649	0.502760
H107	H	1.631710	-0.924791	0.554404
H108	H	1.531109	-0.976576	0.481453
H109	H	1.671291	-0.956142	0.409968
O110	O	1.621949	-0.682695	0.492396
C111	C	1.687957	-0.655859	0.415989
H112	H	1.787568	-0.644637	0.468232
H113	H	1.634921	-0.624913	0.394926
H114	H	1.694756	-0.676328	0.323026
O115	O	1.709487	-0.893689	0.579961
C116	C	1.775487	-0.866850	0.503558
H117	H	1.875097	-0.855626	0.555801
H118	H	1.722444	-0.835904	0.482501
H119	H	1.782289	-0.887316	0.410591
O120	O	1.621579	-0.634413	0.492378
C121	C	1.544462	-0.607899	0.415149
H122	H	1.544032	-0.573040	0.466796
H123	H	1.443409	-0.624822	0.393853
H124	H	1.583585	-0.604394	0.322350
O125	O	1.621810	-0.541943	0.492340
C126	C	1.687804	-0.515106	0.415926
H127	H	1.787420	-0.503884	0.468157
H128	H	1.634765	-0.484158	0.394876
H129	H	1.694590	-0.535572	0.322957
H130	H	1.722625	-0.324289	0.593467
H131	H	2.127372	-0.743624	0.998635
O132	O	2.141092	-0.654127	1.012472
C133	C	2.218244	-0.680640	1.089670
H134	H	2.166594	-0.715496	1.090025
H135	H	2.239404	-0.663713	1.190730
H136	H	2.311119	-0.684148	1.050682
H137	H	1.635567	-0.770781	0.506234
