data_functionalizedCrystal
_audit_creation_method	'MofGen! by Chris Wilmer'
_symmetry_space_group_name_H-M	'P1'
_symmetry_Int_Tables_number	1
_symmetry_cell_setting	triclinic
loop_
_symmetry_equiv_pos_as_xyz
  x,y,z
_cell_length_a	19.188933
_cell_length_b	19.288865
_cell_length_c	18.366186
_cell_angle_alpha	90.011479
_cell_angle_beta	89.992367
_cell_angle_gamma	96.859092
loop_
_atom_site_label
_atom_site_type_symbol
_atom_site_fract_x
_atom_site_fract_y
_atom_site_fract_z
O1	O	0.926142	-0.086724	-0.060534
O2	O	1.426142	0.413276	0.439466
O3	O	0.722830	-0.098396	-0.060542
O4	O	1.222830	0.401604	0.439458
O5	O	0.830361	0.008570	-0.060523
O6	O	1.330361	0.508570	0.439477
O7	O	0.818611	-0.193690	-0.060552
O8	O	1.318611	0.306310	0.439448
O9	O	0.830342	0.008575	0.060576
O10	O	1.330342	0.508575	0.560576
O11	O	0.722812	-0.098391	0.060558
O12	O	1.222812	0.401609	0.560558
O13	O	0.926124	-0.086719	0.060566
O14	O	1.426124	0.413281	0.560566
Zn15	Zn	0.824465	-0.092554	0.079789
Zn16	Zn	1.324465	0.407446	0.579789
Zn17	Zn	0.824489	-0.092561	-0.079765
Zn18	Zn	1.324489	0.407439	0.420235
O19	O	0.818593	-0.193685	0.060547
O20	O	1.318593	0.306315	0.560547
C21	C	0.696810	-0.098015	0.000007
C22	C	1.196810	0.401985	0.500007
C23	C	0.619305	-0.096880	0.000005
C24	C	1.119305	0.403120	0.500005
C25	C	0.066061	-0.088780	-0.065997
C26	C	0.566061	0.411220	0.434003
C27	C	0.138885	-0.089842	-0.066000
C28	C	0.638885	0.410158	0.434000
C29	C	0.175292	-0.090374	0.000011
C30	C	0.675292	0.409626	0.500011
C31	C	0.138871	-0.089825	0.066029
C32	C	0.638871	0.410175	0.566029
C33	C	0.066049	-0.088756	0.066031
C34	C	0.566049	0.411244	0.566031
N35	N	0.284301	-0.131576	0.049140
N36	N	0.784301	0.368424	0.549140
N37	N	0.353479	-0.132594	0.049134
N38	N	0.853479	0.367406	0.549134
C39	C	0.394700	-0.093595	0.000011
C40	C	0.894700	0.406405	0.500011
N41	N	0.364130	-0.053549	-0.049117
N42	N	0.864130	0.446451	0.450883
N43	N	0.294945	-0.052535	-0.049113
N44	N	0.794945	0.447465	0.450887
C45	C	0.254255	-0.091534	0.000017
C46	C	0.754255	0.408466	0.500017
C47	C	0.510077	-0.095291	-0.066006
C48	C	1.010077	0.404709	0.433994
C49	C	0.582903	-0.096350	-0.066007
C50	C	1.082903	0.403650	0.433993
C51	C	0.582887	-0.096339	0.066025
C52	C	1.082887	0.403661	0.566025
C53	C	0.510063	-0.095274	0.066023
C54	C	1.010063	0.404726	0.566023
C55	C	0.473662	-0.094754	0.000006
C56	C	0.973662	0.405246	0.500006
C57	C	0.829973	0.034449	0.000029
C58	C	1.329973	0.534449	0.500029
C59	C	0.828839	0.111552	0.000035
C60	C	1.328839	0.611552	0.500035
C61	C	0.952144	-0.087100	0.000015
C62	C	1.452144	0.412900	0.500015
C63	C	1.029648	-0.088235	0.000013
C64	C	1.529648	0.411765	0.500013
C65	C	0.818980	-0.219564	-0.000006
C66	C	1.318980	0.280436	0.499994
C67	C	0.820115	-0.296668	-0.000018
C68	C	1.320115	0.203332	0.499982
N69	N	0.824453	-0.092549	0.188680
N70	N	1.324453	0.407451	0.688680
C71	C	0.891933	0.156244	0.000041
C72	C	1.391933	0.656244	0.500041
C73	C	0.890867	0.228691	0.000030
C74	C	1.390867	0.728691	0.500030
C75	C	0.826703	0.256443	0.000027
C76	C	1.326703	0.756443	0.500027
C77	C	0.763600	0.211742	0.000017
C78	C	1.263600	0.711742	0.500017
C79	C	0.764668	0.139297	0.000021
C80	C	1.264668	0.639297	0.500021
C81	C	0.776256	0.364737	0.042443
C82	C	1.276256	0.864737	0.542443
C83	C	0.775190	0.437181	0.042443
C84	C	1.275190	0.937181	0.542443
C85	C	0.823406	0.479889	0.000010
C86	C	1.323406	0.979889	0.500010
C87	C	0.872699	0.450145	-0.042414
C88	C	1.372699	0.950145	0.457586
C89	C	0.873767	0.377700	-0.042409
C90	C	1.373767	0.877700	0.457591
C91	C	0.825537	0.334998	0.000022
C92	C	1.325537	0.834998	0.500022
C93	C	0.885348	0.603137	0.000003
C94	C	1.385348	1.103137	0.500003
C95	C	0.884279	0.675585	-0.000013
C96	C	1.384279	1.175585	0.499987
C97	C	0.757011	0.658635	-0.000019
C98	C	1.257011	1.158635	0.499981
C99	C	0.758082	0.586188	-0.000010
C100	C	1.258082	1.086188	0.499990
C101	C	0.822252	0.558444	0.000004
C102	C	1.322252	1.058444	0.500004
N103	N	0.824506	-0.092561	-0.188656
N104	N	1.324506	0.407439	0.311344
C105	C	0.872084	-0.045208	0.226789
C106	C	1.372084	0.454792	0.726789
C107	C	0.872088	-0.045205	0.303016
C108	C	1.372088	0.454795	0.803016
C109	C	0.824469	-0.092555	0.341133
C110	C	1.324469	0.407445	0.841133
C111	C	0.776830	-0.139900	0.303015
C112	C	1.276830	0.360100	0.803015
C113	C	0.776822	-0.139897	0.226789
C114	C	1.276822	0.360103	0.726789
C115	C	0.815122	-0.155842	0.461884
C116	C	1.315122	0.344158	0.961884
C117	C	0.815135	-0.155846	0.538109
C118	C	1.315135	0.344154	1.038109
C119	C	0.824489	-0.092563	0.576240
C120	C	1.324489	0.407437	1.076240
C121	C	0.833845	-0.029275	0.538138
C122	C	1.333845	0.470725	1.038138
C123	C	0.833837	-0.029272	0.461911
C124	C	1.333837	0.470728	0.961911
C125	C	0.824472	-0.092563	0.423787
C126	C	1.324472	0.407437	0.923787
C127	C	0.872126	-0.045215	0.697004
C128	C	1.372126	0.454785	1.197004
C129	C	0.872126	-0.045211	0.773233
C130	C	1.372126	0.454789	1.273233
C131	C	0.776871	-0.139912	0.773230
C132	C	1.276871	0.360088	1.273230
C133	C	0.776868	-0.139910	0.697002
C134	C	1.276868	0.360090	1.197002
C135	C	0.824500	-0.092562	0.658894
C136	C	1.324500	0.407438	1.158894
H137	H	0.036402	-0.088315	0.119786
H138	H	0.536402	0.411685	0.619786
H139	H	0.168518	-0.090257	0.119776
H140	H	0.668518	0.409743	0.619776
F141	F	0.843805	0.038080	0.578714
F142	F	1.343805	0.538080	1.078714
H143	H	0.713288	0.102909	0.000016
H144	H	1.213288	0.602909	0.500016
F145	F	0.926223	0.346046	-0.087562
F146	F	1.426223	0.846046	0.412438
H147	H	0.910866	-0.006653	0.195763
H148	H	1.410866	0.493347	0.695763
H149	H	0.910910	-0.006656	0.804262
H150	H	1.410910	0.493344	1.304262
H151	H	0.480416	-0.094833	0.119776
H152	H	0.980416	0.405167	0.619776
H153	H	0.944185	0.133659	0.000050
H154	H	1.444185	0.633659	0.500050
F155	F	0.177645	-0.090423	-0.136260
F156	F	0.677645	0.409577	0.363740
F157	F	0.951437	0.723149	-0.000012
F158	F	1.451437	1.223149	0.499988
H159	H	0.942247	0.265085	0.000032
H160	H	1.442247	0.765085	0.500032
F161	F	0.471335	-0.094733	-0.136267
F162	F	0.971335	0.405267	0.363733
H163	H	0.612550	-0.096788	-0.119762
H164	H	1.112550	0.403212	0.380238
H165	H	0.911960	0.484917	-0.076967
H166	H	1.411960	0.984917	0.423033
F167	F	0.621631	-0.096896	0.136280
F168	F	1.121631	0.403104	0.636280
H169	H	0.910909	-0.006659	0.665975
H170	H	1.410909	0.493341	1.165975
H171	H	0.704768	0.681230	-0.000025
H172	H	1.204768	1.181230	0.499975
H173	H	0.937600	0.580546	0.000011
H174	H	1.437600	1.080546	0.500011
F175	F	0.726177	-0.190300	0.656441
F176	F	1.226177	0.309700	1.156441
F177	F	0.922785	0.005185	0.343581
F178	F	1.422785	0.505185	0.843581
F179	F	0.726187	-0.190301	0.813793
F180	F	1.226187	0.309699	1.313793
F181	F	0.690928	0.538623	-0.000014
F182	F	1.190928	1.038623	0.499986
F183	F	0.843788	0.038082	0.421362
F184	F	1.343788	0.538082	0.921362
F185	F	0.805182	-0.223202	0.578653
F186	F	1.305182	0.276798	1.078653
F187	F	0.805217	-0.223201	0.421309
F188	F	1.305217	0.276799	0.921309
F189	F	0.722732	0.468831	0.087597
F190	F	1.222732	0.968831	0.587597
F191	F	0.724936	0.319290	0.087611
F192	F	1.224936	0.819290	0.587611
H193	H	0.711357	0.234343	0.000013
H194	H	1.211357	0.734343	0.500013
F195	F	0.726126	-0.190286	0.186229
F196	F	1.226126	0.309714	0.686229
F197	F	0.027325	-0.088222	-0.136260
F198	F	0.527325	0.411778	0.363740
F199	F	0.726148	-0.190291	0.343581
F200	F	1.226148	0.309709	0.843581
