data_functionalizedCrystal
_audit_creation_method	'MofGen! by Chris Wilmer'
_symmetry_space_group_name_H-M	'P1'
_symmetry_Int_Tables_number	1
_symmetry_cell_setting	triclinic
loop_
_symmetry_equiv_pos_as_xyz
  x,y,z
_cell_length_a	25.639242
_cell_length_b	25.639239
_cell_length_c	12.759393
_cell_angle_alpha	90.037052
_cell_angle_beta	90.029872
_cell_angle_gamma	90.033587
loop_
_atom_site_label
_atom_site_type_symbol
_atom_site_fract_x
_atom_site_fract_y
_atom_site_fract_z
Zn1	Zn	0.799268	-0.208191	0.594260
Zn2	Zn	0.799179	-0.295638	0.418563
Zn3	Zn	0.711832	-0.208210	0.418565
Zn4	Zn	0.711789	-0.295589	0.594170
O5	O	0.755517	-0.251907	0.506389
O6	O	0.872421	-0.219803	0.570991
O7	O	0.787572	-0.284069	0.271542
O8	O	0.723485	-0.135043	0.441909
O9	O	0.872356	-0.284050	0.441907
O10	O	0.787724	-0.135028	0.570992
O11	O	0.723399	-0.219836	0.271543
O12	O	0.638661	-0.219789	0.441822
O13	O	0.723413	-0.283968	0.741203
O14	O	0.638630	-0.283986	0.570838
O15	O	0.787683	-0.219756	0.741269
O16	O	0.787531	-0.368797	0.441820
O17	O	0.723327	-0.368761	0.570837
C18	C	0.619674	-0.251885	0.506321
C19	C	0.561560	-0.251888	0.506317
C20	C	0.310374	-0.218424	0.439327
C21	C	0.364979	-0.218419	0.439313
O22	O	0.393221	-0.189936	0.382297
N23	N	0.392286	-0.251895	0.506370
C24	C	0.364987	-0.285374	0.573451
O25	O	0.393229	-0.313846	0.630487
C26	C	0.310384	-0.285375	0.573469
C27	C	0.283079	-0.251901	0.506401
C28	C	0.283069	-0.184952	0.372265
C29	C	0.228469	-0.184958	0.372277
C30	C	0.201173	-0.218435	0.439351
C31	C	0.228478	-0.251907	0.506413
C32	C	0.283085	-0.318851	0.640555
C33	C	0.228478	-0.318850	0.640567
C34	C	0.201173	-0.285376	0.573499
C35	C	0.146582	-0.285390	0.573499
N36	N	0.119274	-0.251914	0.506443
C37	C	0.146570	-0.218437	0.439369
C38	C	0.479658	-0.285367	0.573410
C39	C	0.534260	-0.285368	0.573387
C40	C	0.534248	-0.218412	0.439251
C41	C	0.479644	-0.218414	0.439269
C42	C	0.452350	-0.251891	0.506353
C43	C	0.031905	-0.218452	0.439399
C44	C	-0.022701	-0.218462	0.439414
C45	C	-0.022684	-0.285415	0.573554
C46	C	0.031917	-0.285407	0.573536
C47	C	0.059210	-0.251921	0.506455
O48	O	0.118305	-0.313857	0.630490
O49	O	0.118322	-0.189964	0.382352
C50	C	0.755429	-0.387750	0.506341
C51	C	0.755439	-0.445864	0.506356
C52	C	0.789035	-0.806233	0.439325
C53	C	0.789056	-0.860837	0.439339
O54	O	0.817529	-0.889079	0.382293
N55	N	0.755609	-0.888146	0.506459
C56	C	0.722143	-0.860848	0.573577
O57	O	0.693696	-0.889091	0.630671
C58	C	0.722126	-0.806245	0.573568
C59	C	0.755571	-0.778939	0.506435
C60	C	0.822479	-0.778926	0.372199
C61	C	0.822457	-0.724326	0.372183
C62	C	0.788993	-0.697032	0.439294
C63	C	0.755550	-0.724338	0.506420
C64	C	0.688663	-0.778948	0.640691
C65	C	0.688649	-0.724341	0.640676
C66	C	0.722095	-0.697035	0.573544
C67	C	0.722065	-0.642443	0.573516
N68	N	0.755512	-0.615134	0.506396
C69	C	0.788976	-0.642428	0.439285
C70	C	0.722182	-0.975519	0.573594
C71	C	0.722197	-1.030121	0.573599
C72	C	0.789110	-1.030106	0.439361
C73	C	0.789093	-0.975503	0.439351
C74	C	0.755629	-0.948210	0.506473
C75	C	0.788929	-0.527763	0.439257
C76	C	0.788903	-0.473158	0.439245
C77	C	0.721992	-0.473178	0.573486
C78	C	0.722015	-0.527778	0.573495
C79	C	0.755488	-0.555070	0.506377
O80	O	0.693607	-0.614167	0.630535
O81	O	0.817423	-0.614179	0.382211
C82	C	0.891890	-0.251930	0.506459
C83	C	0.950004	-0.251939	0.506488
C84	C	0.755553	-0.251854	0.780423
C85	C	0.755569	-0.251832	0.897200
C86	C	0.755619	-0.115534	0.506461
C87	C	0.755663	-0.057420	0.506491
C88	C	0.755510	-0.251922	0.233422
C89	C	0.755596	-0.251797	0.116646
C90	C	0.789039	-0.218394	0.952098
C91	C	0.789052	-0.218375	1.061822
C92	C	0.722122	-0.285237	1.061740
C93	C	0.722108	-0.285252	0.952018
C94	C	0.827682	-0.179793	0.952146
C95	C	0.827694	-0.179775	1.061870
H96	H	0.305287	-0.157688	0.317645
H97	H	0.816360	-1.052339	0.384719
H98	H	0.816866	-0.139301	0.922394
H99	H	0.868184	-0.190623	1.091663
H100	H	0.305308	-0.346110	0.695168
O101	O	0.686120	-1.059572	0.645998
H102	H	0.662852	-1.031413	0.692662
H103	H	0.457416	-0.191155	0.384660
O104	O	0.686032	-0.321281	1.120865
H105	H	0.709415	-0.347882	1.170848
H106	H	-0.044930	-0.191202	0.384796
H107	H	0.054120	-0.191182	0.384780
H108	H	0.866130	-0.194313	0.918123
H109	H	0.816327	-0.953273	0.384687
O110	O	0.563688	-0.182300	0.366901
H111	H	0.588591	-0.155722	0.414017
O112	O	-0.052128	-0.321519	0.645904
H113	H	-0.094683	-0.315890	0.634649
H114	H	0.694744	-0.450946	0.628124
H115	H	0.661426	-0.801171	0.695352
O116	O	0.808536	-0.128811	1.106989
H117	H	0.798371	-0.101805	1.042176
H118	H	0.849732	-0.801143	0.317548
O119	O	0.199021	-0.148847	0.299953
H120	H	0.227182	-0.125566	0.253325
H121	H	0.556487	-0.312631	0.627990
H122	H	0.457438	-0.312632	0.628036
H123	H	0.206258	-0.346109	0.695201
O124	O	0.686075	-0.946081	0.645967
H125	H	0.662817	-0.974249	0.692624
H126	H	0.661400	-0.702121	0.695338
H127	H	0.816138	-0.450927	0.384574
O128	O	0.061373	-0.321511	0.645868
H129	H	0.033217	-0.344789	0.692513
H130	H	0.694783	-0.550012	0.628163
H131	H	0.694851	-0.312479	0.907324
H132	H	0.816187	-0.549977	0.384606
H133	H	0.849693	-0.702096	0.317522
