data_functionalizedCrystal
_audit_creation_method	'MofGen! by Chris Wilmer'
_symmetry_space_group_name_H-M	'P1'
_symmetry_Int_Tables_number	1
_symmetry_cell_setting	triclinic
loop_
_symmetry_equiv_pos_as_xyz
  x,y,z
_cell_length_a	13.330367
_cell_length_b	16.992694
_cell_length_c	16.992695
_cell_angle_alpha	90.668223
_cell_angle_beta	89.995303
_cell_angle_gamma	89.998112
loop_
_atom_site_label
_atom_site_type_symbol
_atom_site_fract_x
_atom_site_fract_y
_atom_site_fract_z
O1	O	0.083299	-1.050854	-0.166916
O2	O	0.083328	-0.822454	-0.165085
O3	O	0.083306	-0.935738	-0.051801
O4	O	0.083321	-0.937570	-0.280201
O5	O	-0.083541	-0.935721	-0.051797
O6	O	-0.083519	-0.822436	-0.165081
O7	O	-0.083548	-1.050836	-0.166913
Cu8	Cu	-0.098768	-0.936635	-0.165997
Cu9	Cu	0.098548	-0.936656	-0.166001
O10	O	-0.083526	-0.937552	-0.280197
C11	C	-0.000092	-0.793085	-0.162727
C12	C	-0.000081	-0.705600	-0.155699
C13	C	-0.000118	-0.933374	-0.022439
C14	C	-0.000116	-0.926345	0.065046
N15	N	-0.237550	-0.936626	-0.165993
C16	C	-0.710163	-0.886490	-0.216142
C17	C	-0.710151	-0.986842	-0.115855
C18	C	-0.605132	-0.986833	-0.115852
C19	C	-0.552624	-0.936653	-0.165996
C20	C	-0.605134	-0.886481	-0.216142
C21	C	-0.552614	-1.037010	-0.065712
C22	C	-0.447589	-1.037004	-0.065708
C23	C	-0.395079	-0.986818	-0.115848
C24	C	-0.447596	-0.936644	-0.165996
C25	C	-0.395088	-0.886463	-0.216140
C26	C	-0.447603	-0.836284	-0.266284
C27	C	-0.552624	-0.836295	-0.266283
C28	C	-0.290058	-0.986807	-0.115850
C29	C	-0.290060	-0.886454	-0.216140
N30	N	0.237329	-0.936671	-0.165998
C31	C	-0.000126	-1.080205	-0.169270
C32	C	-0.000131	-1.167690	-0.176299
C33	C	-0.000077	-0.659610	-0.223517
C34	C	-0.000091	-0.577409	-0.216908
C35	C	-0.000102	-0.541201	-0.142480
C36	C	-0.000109	-0.587198	-0.074657
C37	C	-0.000102	-0.669397	-0.081267
C38	C	-0.000131	-0.295886	-0.115086
C39	C	-0.000135	-0.213681	-0.108481
C40	C	-0.000119	-0.203898	-0.250732
C41	C	-0.000106	-0.286099	-0.257336
C42	C	-0.000118	-0.332089	-0.189512
N43	N	-0.000113	-0.457178	-0.135723
N44	N	-0.000113	-0.416110	-0.196270
C45	C	-0.000100	-0.939917	-0.309559
C46	C	-0.000095	-0.946945	-0.397044
C47	C	-0.000126	-0.994163	0.111037
C48	C	-0.000116	-0.987554	0.193238
C49	C	-0.000103	-0.913127	0.229446
C50	C	-0.000090	-0.845303	0.183449
C51	C	-0.000093	-0.851913	0.101250
C52	C	-0.000085	-0.885732	0.474760
C53	C	-0.000085	-0.879127	0.556966
C54	C	-0.000109	-1.021379	0.566749
C55	C	-0.000118	-1.027982	0.484547
C56	C	-0.000100	-0.960159	0.438558
N57	N	-0.000095	-0.906369	0.313468
N58	N	-0.000101	-0.966917	0.354537
H59	H	-0.247314	-0.845587	-0.256970
H60	H	-0.404838	-1.077861	-0.024877
Br61	Br	-0.000134	-1.113419	0.629167
Br62	Br	-0.000051	-0.708741	-0.324531
Br63	Br	-0.376331	-0.768191	-0.334342
Br64	Br	-0.218794	-1.054909	-0.047809
H65	H	-0.000087	-0.539966	-0.272133
H66	H	-0.000129	-1.088589	0.455073
H67	H	-0.000073	-0.784703	0.212936
H68	H	-0.000126	-1.042779	0.230680
Br69	Br	-0.000078	-0.778112	0.606105
H70	H	-0.000085	-0.315574	-0.317942
Br71	Br	-0.781425	-0.818387	-0.284188
Br72	Br	-0.000054	-0.793685	0.412356
H73	H	-0.752906	-1.027702	-0.075033
H74	H	-0.595389	-0.795442	-0.307109
Br75	Br	-0.623871	-1.105118	0.002331
H76	H	-0.000111	-0.166444	-0.305950
Br77	Br	-0.000072	-0.759871	0.038832
Br78	Br	-0.000171	-0.164541	-0.007465
H79	H	-0.000141	-0.333322	-0.059859
H80	H	-0.000132	-0.557710	-0.014056
H81	H	-0.000104	-0.706842	-0.026042
H82	H	-0.000143	-1.054770	0.081563
