data_functionalizedCrystal
_audit_creation_method	'MofGen! by Chris Wilmer'
_symmetry_space_group_name_H-M	'P1'
_symmetry_Int_Tables_number	1
_symmetry_cell_setting	triclinic
loop_
_symmetry_equiv_pos_as_xyz
  x,y,z
_cell_length_a	18.050589
_cell_length_b	16.959455
_cell_length_c	16.959447
_cell_angle_alpha	89.984772
_cell_angle_beta	90.026643
_cell_angle_gamma	89.977010
loop_
_atom_site_label
_atom_site_type_symbol
_atom_site_fract_x
_atom_site_fract_y
_atom_site_fract_z
Zn1	Zn	-0.295748	-1.208339	0.446948
Zn2	Zn	-0.419950	-1.208243	0.314778
Zn3	Zn	-0.295767	-1.076167	0.314783
Zn4	Zn	-0.419890	-1.076113	0.446914
O5	O	-0.357839	-1.142216	0.380856
O6	O	-0.312241	-1.318937	0.429427
O7	O	-0.403510	-1.190705	0.204168
O8	O	-0.191840	-1.093763	0.332332
O9	O	-0.403492	-1.318866	0.332322
O10	O	-0.191826	-1.190869	0.429432
O11	O	-0.312273	-1.093670	0.204172
O12	O	-0.312215	-0.965549	0.332299
O13	O	-0.403389	-1.093671	0.557530
O14	O	-0.403407	-0.965510	0.429375
O15	O	-0.312183	-1.190817	0.557554
O16	O	-0.523867	-1.190653	0.332290
O17	O	-0.523822	-1.093578	0.429370
C18	C	-0.357807	-0.936849	0.380835
C19	C	-0.357811	-0.848993	0.380844
C20	C	-0.310292	-0.477513	0.330403
C21	C	-0.405399	-0.477521	0.431333
C22	C	-0.405391	-0.560067	0.431329
C23	C	-0.357834	-0.601340	0.380861
C24	C	-0.310285	-0.560067	0.330397
C25	C	-0.452945	-0.601346	0.481787
C26	C	-0.452940	-0.683897	0.481785
C27	C	-0.405379	-0.725171	0.431320
C28	C	-0.357827	-0.683893	0.380854
C29	C	-0.310269	-0.725166	0.330386
C30	C	-0.262713	-0.683890	0.279924
C31	C	-0.262723	-0.601342	0.279932
C32	C	-0.405368	-0.807720	0.431312
C33	C	-0.310262	-0.807720	0.330380
C34	C	-0.550791	-1.142120	0.380843
C35	C	-0.633337	-1.142152	0.380864
C36	C	-0.832790	-1.089414	0.433637
C37	C	-0.882233	-1.070151	0.361510
C38	C	-0.784467	-1.142229	0.380874
C39	C	-0.882106	-1.161531	0.453009
C40	C	-0.930452	-1.142303	0.380890
C41	C	-0.832822	-1.122929	0.308708
C42	C	-0.832692	-1.214342	0.400256
C43	C	-0.882112	-1.195106	0.328080
C44	C	-0.700369	-1.142185	0.380866
C45	C	-1.014549	-1.142347	0.380890
C46	C	-0.164133	-1.142333	0.380886
C47	C	-0.081587	-1.142383	0.380899
C48	C	-0.357777	-1.142249	0.587024
C49	C	-0.357751	-1.142263	0.674881
C50	C	-0.357862	-0.348384	0.380874
C51	C	-0.357849	-0.436240	0.380871
C52	C	-0.357846	-1.142228	0.175490
C53	C	-0.357663	-1.142368	0.087633
C54	C	-0.405160	-1.091778	1.046346
C55	C	-0.310186	-1.192936	1.046367
C56	C	-0.310202	-1.192915	0.963821
C57	C	-0.357698	-1.142326	0.922534
C58	C	-0.405178	-1.091757	0.963793
C59	C	-0.262728	-1.243489	0.922556
C60	C	-0.262742	-1.243470	0.840005
C61	C	-0.310235	-1.192876	0.798717
C62	C	-0.357717	-1.142305	0.839980
C63	C	-0.405213	-1.091715	0.798693
C64	C	-0.452691	-1.041139	0.839956
C65	C	-0.452671	-1.041162	0.922504
C66	C	-0.310255	-1.192852	0.716168
C67	C	-0.405232	-1.091694	0.716140
H68	H	-0.444090	-0.841323	0.472395
N69	N	-0.259064	-1.247402	0.671658
H70	H	-0.205992	-1.235174	0.686028
H71	H	-0.266352	-1.239682	0.613115
N72	N	-0.456459	-1.037133	0.671603
H73	H	-0.426277	-1.000517	0.637358
H74	H	-0.486523	-1.005149	0.710314
H75	H	-0.223995	-0.717505	0.238830
N76	N	-0.910619	-1.254311	0.268919
H77	H	-0.942176	-1.226469	0.228348
H78	H	-0.941345	-1.295392	0.296988
H79	H	-0.271530	-0.841319	0.289287
N80	N	-0.804092	-1.030178	0.492662
H81	H	-0.847222	-1.002969	0.519092
H82	H	-0.772562	-0.989772	0.464622
H83	H	-0.491328	-0.999989	0.956107
H84	H	-0.491669	-0.567735	0.522869
N85	N	-0.504220	-0.728410	0.536221
H86	H	-0.496998	-0.786968	0.528563
H87	H	-0.557248	-0.713964	0.523826
N88	N	-0.456352	-1.037214	1.090843
H89	H	-0.449131	-1.044895	1.149403
H90	H	-0.509402	-1.049468	1.076410
N91	N	-0.803838	-1.295053	0.421998
H92	H	-0.773058	-1.316600	0.377190
H93	H	-0.846937	-1.331554	0.432406
N94	N	-0.910791	-1.183120	0.533802
H95	H	-0.892850	-1.143157	0.573605
H96	H	-0.891991	-1.237187	0.548778
H97	H	-0.224006	-0.567727	0.238847
N98	N	-0.211529	-1.298005	0.795500
H99	H	-0.241719	-1.334608	0.761240
H100	H	-0.181446	-1.330004	0.834229
N101	N	-0.503910	-0.986568	0.795419
H102	H	-0.533982	-0.954528	0.834079
H103	H	-0.538292	-1.018712	0.761161
H104	H	-0.904010	-1.009203	0.345131
N105	N	-0.258965	-1.247504	1.090893
H106	H	-0.266159	-1.239845	1.149449
H107	H	-0.205926	-1.235228	1.076480
N108	N	-0.804274	-1.101252	0.227885
H109	H	-0.748322	-1.101335	0.228383
H110	H	-0.822787	-1.046999	0.213179
H111	H	-0.224063	-1.284681	0.956178
H112	H	-0.271571	-0.443903	0.289320
H113	H	-0.444122	-0.443911	0.472417
