data_functionalizedCrystal
_audit_creation_method	'MofGen! by Chris Wilmer'
_symmetry_space_group_name_H-M	'P1'
_symmetry_Int_Tables_number	1
_symmetry_cell_setting	triclinic
loop_
_symmetry_equiv_pos_as_xyz
  x,y,z
_cell_length_a	27.732048
_cell_length_b	27.732064
_cell_length_c	8.965430
_cell_angle_alpha	89.998122
_cell_angle_beta	90.007911
_cell_angle_gamma	82.646039
loop_
_atom_site_label
_atom_site_type_symbol
_atom_site_fract_x
_atom_site_fract_y
_atom_site_fract_z
O1	O	-0.640926	-0.057518	0.123835
O2	O	-0.500133	-0.066263	0.123878
O3	O	-0.574898	0.008505	0.123861
O4	O	-0.566161	-0.132287	0.123852
O5	O	-0.574901	0.008511	-0.124218
O6	O	-0.500136	-0.066258	-0.124201
O7	O	-0.640929	-0.057513	-0.124244
Cu8	Cu	-0.570533	-0.061885	-0.146874
Cu9	Cu	-0.570529	-0.061891	0.146508
O10	O	-0.566164	-0.132282	-0.124227
C11	C	-0.482127	-0.066077	-0.000156
C12	C	-0.428473	-0.065524	-0.000139
C13	C	-0.574715	0.026515	-0.000174
C14	C	-0.574159	0.080169	-0.000160
C15	C	-0.658934	-0.057699	-0.000207
C16	C	-0.712589	-0.058252	-0.000214
C17	C	-0.089660	-0.106228	-0.000206
C18	C	0.112000	-0.104177	-0.000219
O19	O	0.143253	-0.141397	-0.000286
N20	N	0.131126	-0.059842	-0.000213
C21	C	0.099834	-0.016017	-0.000214
O22	O	0.120729	0.021740	-0.000225
C23	C	-0.101825	-0.018068	-0.000212
C24	C	-0.120948	-0.062406	-0.000202
C25	C	-0.108784	-0.150562	-0.000198
C26	C	-0.159196	-0.151074	-0.000186
C27	C	-0.190484	-0.107252	-0.000183
C28	C	-0.171360	-0.062918	-0.000191
C29	C	-0.133116	0.025756	-0.000224
C30	C	-0.183533	0.025240	-0.000227
C31	C	-0.202656	-0.019098	-0.000217
C32	C	-0.253060	-0.019609	-0.000176
N33	N	-0.272186	-0.063944	-0.000181
C34	C	-0.240898	-0.107765	-0.000185
C35	C	0.205708	-0.014943	-0.000213
C36	C	0.256123	-0.014430	-0.000211
C37	C	0.268285	-0.102590	-0.000218
C38	C	0.217870	-0.103103	-0.000209
C39	C	0.186582	-0.059278	-0.000218
C40	C	-0.346768	-0.108838	-0.000160
C41	C	-0.397185	-0.109346	-0.000142
C42	C	-0.409342	-0.021186	-0.000143
C43	C	-0.358930	-0.020678	-0.000152
C44	C	-0.327643	-0.064507	-0.000166
O45	O	-0.284342	0.017592	-0.000126
O46	O	-0.261803	-0.145516	-0.000207
C47	C	-0.039248	-0.105716	-0.000217
C48	C	-0.020124	-0.061381	-0.000225
C49	C	-0.051412	-0.017560	-0.000222
C50	C	0.030290	-0.060868	-0.000223
C51	C	0.061578	-0.104690	-0.000227
C52	C	0.042452	-0.149025	-0.000232
C53	C	-0.007960	-0.149537	-0.000221
C54	C	-0.032286	0.026775	-0.000216
C55	C	0.018127	0.027284	-0.000226
C56	C	0.049415	-0.016538	-0.000229
C57	C	-0.566347	-0.150291	-0.000189
C58	C	-0.566903	-0.203945	-0.000193
C59	C	-0.526192	0.457242	-0.000139
C60	C	-0.528238	0.255582	-0.000138
O61	O	-0.491017	0.224329	-0.000067
N62	N	-0.572572	0.236454	-0.000151
C63	C	-0.616398	0.267745	-0.000155
O64	O	-0.654154	0.246849	-0.000151
C65	C	-0.614351	0.469405	-0.000146
C66	C	-0.570014	0.488529	-0.000147
C67	C	-0.481858	0.476367	-0.000139
C68	C	-0.481347	0.526779	-0.000148
C69	C	-0.525170	0.558066	-0.000156
C70	C	-0.569503	0.538941	-0.000156
C71	C	-0.658177	0.500695	-0.000139
C72	C	-0.657661	0.551112	-0.000133
C73	C	-0.613324	0.570237	-0.000135
C74	C	-0.612814	0.620640	-0.000173
N75	N	-0.568480	0.639768	-0.000159
C76	C	-0.524658	0.608481	-0.000151
C77	C	-0.617469	0.161871	-0.000163
C78	C	-0.617981	0.111456	-0.000168
C79	C	-0.529821	0.099296	-0.000148
C80	C	-0.529310	0.149712	-0.000154
C81	C	-0.573135	0.180998	-0.000150
C82	C	-0.523588	0.714350	-0.000170
C83	C	-0.523080	0.764767	-0.000185
C84	C	-0.611241	0.776923	-0.000197
C85	C	-0.611748	0.726511	-0.000190
C86	C	-0.567918	0.695225	-0.000172
O87	O	-0.650016	0.651921	-0.000227
O88	O	-0.486907	0.629387	-0.000122
C89	C	-0.526703	0.406830	-0.000131
C90	C	-0.571036	0.387705	-0.000131
C91	C	-0.614859	0.418992	-0.000139
C92	C	-0.571548	0.337290	-0.000136
C93	C	-0.527726	0.306003	-0.000127
C94	C	-0.483391	0.325131	-0.000114
C95	C	-0.482880	0.375543	-0.000122
C96	C	-0.659193	0.399865	-0.000152
C97	C	-0.659701	0.349452	-0.000146
C98	C	-0.615878	0.318165	-0.000137
N99	N	-0.570526	-0.061892	0.352857
N100	N	-0.570540	-0.061880	-0.353223
C101	C	-0.535883	-0.096405	0.450162
C102	C	-0.526939	-0.052758	0.549586
C103	C	-0.579462	-0.105524	0.549561
C104	C	-0.561561	-0.018223	0.450092
C105	C	-0.614102	-0.071018	0.450059
C106	C	-0.605177	-0.027339	0.549438
H107	H	-0.321299	-0.144528	-0.000175
O108	O	-0.702761	0.330854	-0.000407
C109	C	-0.705702	0.302045	-0.128858
H110	H	-0.680539	0.313781	-0.218672
H111	H	-0.694250	0.262202	-0.099797
C112	C	-0.789282	0.294125	-0.076792
C113	C	-0.758380	0.308543	-0.187108
H114	H	-0.821776	0.298131	-0.112721
H115	H	-0.787301	0.313533	0.009751
H116	H	-0.779733	0.260924	-0.052585
H117	H	-0.767926	0.341745	-0.211300
H118	H	-0.760364	0.289141	-0.273657
H119	H	-0.650935	-0.078759	0.406306
O120	O	-0.701289	0.482206	-0.000066
C121	C	-0.739851	0.520640	-0.000101
H122	H	-0.726554	0.554791	0.046860
H123	H	-0.753357	0.527876	-0.119116
C124	C	-0.798027	0.464775	0.039515
C125	C	-0.781696	0.506718	0.097206
H126	H	-0.823840	0.456187	0.099532
H127	H	-0.772047	0.438881	0.039533
H128	H	-0.809278	0.470810	-0.059663
H129	H	-0.770440	0.500681	0.196374
H130	H	-0.807675	0.532611	0.097207
O131	O	-0.640078	0.007548	0.601308
C132	C	-0.618338	0.040846	0.689789
H133	H	-0.581908	0.022651	0.733688
H134	H	-0.612325	0.073825	0.619563
C135	C	-0.696668	0.079596	0.768086
C136	C	-0.651926	0.057247	0.822014
H137	H	-0.717387	0.089715	0.849646
H138	H	-0.711316	0.057164	0.708471
H139	H	-0.691651	0.107076	0.709565
H140	H	-0.656943	0.029765	0.880519
H141	H	-0.637280	0.079676	0.881643
H142	H	-0.587020	-0.142429	0.593226
O143	O	-0.177688	-0.194187	-0.000261
C144	C	-0.139254	-0.232750	-0.000234
H145	H	-0.105105	-0.219453	-0.047193
H146	H	-0.132015	-0.246254	0.118778
C147	C	-0.195121	-0.290925	-0.039862
C148	C	-0.153180	-0.274594	-0.097550
H149	H	-0.203712	-0.316738	-0.099885
H150	H	-0.221016	-0.264945	-0.039875
H151	H	-0.189083	-0.302175	0.059313
H152	H	-0.159221	-0.263339	-0.196716
H153	H	-0.127287	-0.300574	-0.097556
O154	O	-0.062723	0.069315	-0.000003
C155	C	-0.092229	0.071660	0.128510
H156	H	-0.094504	0.033311	0.171333
H157	H	-0.075788	0.093601	0.218479
C158	C	-0.140801	0.143487	0.036913
C159	C	-0.143599	0.096386	0.089502
H160	H	-0.172488	0.158741	0.012856
H161	H	-0.120921	0.141908	-0.049666
H162	H	-0.127098	0.161765	0.111897
H163	H	-0.157295	0.078107	0.014513
H164	H	-0.163482	0.097962	0.176069
H165	H	-0.447710	0.299648	-0.000116
H166	H	-0.412752	-0.145453	-0.000133
O167	O	-0.078347	-0.193103	0.000007
C168	C	-0.048827	-0.195454	0.128517
H169	H	-0.046545	-0.157107	0.171340
H170	H	-0.065259	-0.217398	0.218488
C171	C	-0.000268	-0.267280	0.036914
C172	C	0.002537	-0.220181	0.089503
H173	H	0.031415	-0.282534	0.012853
H174	H	-0.020157	-0.265697	-0.049663
H175	H	-0.013964	-0.285560	0.111899
H176	H	0.016227	-0.201900	0.014512
H177	H	0.022430	-0.221761	0.176067
O178	O	-0.438291	0.545378	-0.000391
C179	C	-0.435356	0.574188	-0.128846
H180	H	-0.460524	0.562453	-0.218667
H181	H	-0.446805	0.614030	-0.099796
C182	C	-0.351772	0.582105	-0.076752
C183	C	-0.382681	0.567689	-0.187076
H184	H	-0.319280	0.578099	-0.112668
H185	H	-0.353750	0.562697	0.009795
H186	H	-0.361320	0.615306	-0.052554
H187	H	-0.373137	0.534487	-0.211258
H188	H	-0.380701	0.587092	-0.273628
H189	H	-0.647851	0.710939	-0.000210
O190	O	-0.500844	-0.131141	0.398220
C191	C	-0.454970	-0.121332	0.448971
H192	H	-0.456733	-0.081037	0.476838
H193	H	-0.444399	-0.143852	0.553052
C194	C	-0.414591	-0.184120	0.291945
C195	C	-0.416756	-0.134628	0.326159
H196	H	-0.391018	-0.192323	0.216193
H197	H	-0.445498	-0.190730	0.257756
H198	H	-0.405784	-0.202880	0.378689
H199	H	-0.425569	-0.115868	0.239421
H200	H	-0.385850	-0.128015	0.360331
H201	H	-0.490095	-0.045032	0.593312
H202	H	0.180238	0.020747	-0.000220
O203	O	-0.552414	0.025777	0.398128
C204	C	-0.509825	0.019721	0.310636
H205	H	-0.486441	-0.015484	0.343726
H206	H	-0.520060	0.018024	0.187760
C207	C	-0.509788	0.106193	0.295708
C208	C	-0.481065	0.062956	0.336359
H209	H	-0.492048	0.132863	0.311568
H210	H	-0.538482	0.110274	0.354648
H211	H	-0.518315	0.104772	0.193313
H212	H	-0.472544	0.064375	0.438755
H213	H	-0.452369	0.058877	0.277436
O214	O	0.199376	-0.146214	-0.000276
C215	C	0.237808	-0.184779	-0.000234
H216	H	0.271958	-0.171486	-0.047195
H217	H	0.245045	-0.198279	0.118783
C218	C	0.181937	-0.242952	-0.039848
C219	C	0.223880	-0.226626	-0.097537
H220	H	0.173346	-0.268766	-0.099863
H221	H	0.156044	-0.216971	-0.039871
H222	H	0.187973	-0.254199	0.059332
H223	H	0.217842	-0.215374	-0.196708
H224	H	0.249772	-0.252607	-0.097534
O225	O	0.274638	0.028670	-0.000004
C226	C	0.258632	0.055352	0.128497
H227	H	0.223761	0.042441	0.171333
H228	H	0.287854	0.049533	0.218464
C229	C	0.291605	0.125658	0.036855
C230	C	0.248774	0.109803	0.089460
H231	H	0.285526	0.159247	0.012779
H232	H	0.302390	0.107682	-0.049717
H233	H	0.315952	0.120805	0.111836
H234	H	0.224430	0.114651	0.014472
H235	H	0.237984	0.127782	0.176018
O236	O	-0.700203	0.581552	-0.000331
C237	C	-0.702559	0.611070	-0.128835
H238	H	-0.664214	0.613346	-0.171671
H239	H	-0.724512	0.594640	-0.218801
C240	C	-0.774373	0.659639	-0.037200
C241	C	-0.727277	0.662438	-0.089805
H242	H	-0.789622	0.691324	-0.013129
H243	H	-0.772787	0.639751	0.049373
H244	H	-0.792661	0.645945	-0.112181
H245	H	-0.708989	0.676125	-0.014818
H246	H	-0.728860	0.682329	-0.176365
O247	O	-0.114488	0.068795	-0.000437
C248	C	-0.085709	0.071738	-0.128944
H249	H	-0.072872	0.033545	-0.171769
H250	H	-0.108149	0.093289	-0.218915
C251	C	-0.057067	0.144345	-0.037331
C252	C	-0.041297	0.097434	-0.089922
H253	H	-0.029673	0.160197	-0.013265
H254	H	-0.076458	0.142364	0.049244
H255	H	-0.075767	0.162297	-0.112316
H256	H	-0.022603	0.079481	-0.014931
H257	H	-0.021903	0.099413	-0.176484
H258	H	0.293769	-0.138272	-0.000221
O259	O	0.072831	-0.191607	0.000028
C260	C	0.064217	-0.218561	0.128488
H261	H	0.046802	-0.192916	0.218299
H262	H	0.038750	-0.246347	0.099441
C263	C	0.134126	-0.276607	0.076426
C264	C	0.112740	-0.245109	0.186737
H265	H	0.164057	-0.292985	0.112354
H266	H	0.139929	-0.258449	-0.010124
H267	H	0.112899	-0.299758	0.052229
H268	H	0.133965	-0.221956	0.210918
H269	H	0.106943	-0.263264	0.273292
H270	H	-0.694879	0.425334	-0.000158
H271	H	-0.654085	0.095890	-0.000190
O272	O	-0.213906	0.067825	0.000037
C273	C	-0.205267	0.094769	0.128496
H274	H	-0.187845	0.069117	0.218296
H275	H	-0.179797	0.122550	0.099441
C276	C	-0.275173	0.152833	0.076472
C277	C	-0.253777	0.121325	0.186770
H278	H	-0.305095	0.169216	0.112416
H279	H	-0.280992	0.134681	-0.010077
H280	H	-0.253942	0.175979	0.052269
H281	H	-0.275005	0.098176	0.210958
H282	H	-0.247963	0.139473	0.273325
O283	O	0.036722	0.070345	0.000033
C284	C	0.065540	0.073280	0.128485
H285	H	0.053810	0.048110	0.218299
H286	H	0.105381	0.061831	0.099425
C287	C	0.073451	0.156864	0.076419
C288	C	0.059042	0.125954	0.186735
H289	H	0.069445	0.189356	0.112348
H290	H	0.054038	0.154887	-0.010124
H291	H	0.106651	0.147318	0.052213
H292	H	0.025841	0.135496	0.210926
H293	H	0.078449	0.127934	0.273284
O294	O	-0.439798	0.394093	0.000152
C295	C	-0.413103	0.378057	0.128622
H296	H	-0.439036	0.367761	0.218417
H297	H	-0.385921	0.344998	0.099581
C298	C	-0.353777	0.431755	0.076603
C299	C	-0.385629	0.419112	0.186895
H300	H	-0.336828	0.457078	0.112546
H301	H	-0.371761	0.442557	-0.009953
H302	H	-0.331130	0.404202	0.052412
H303	H	-0.408279	0.446663	0.211070
H304	H	-0.367648	0.408315	0.273457
O305	O	-0.340406	0.022420	0.000053
C306	C	-0.356403	0.049103	0.128562
H307	H	-0.391274	0.036197	0.171413
H308	H	-0.327178	0.043278	0.218517
C309	C	-0.323423	0.119404	0.036908
C310	C	-0.366254	0.103555	0.089531
H311	H	-0.329497	0.152992	0.012836
H312	H	-0.312644	0.101427	-0.049668
H313	H	-0.299072	0.114546	0.111880
H314	H	-0.390602	0.108407	0.014554
H315	H	-0.377038	0.121534	0.176094
O316	O	-0.439317	0.445930	-0.000333
C317	C	-0.436970	0.416417	-0.128840
H318	H	-0.475318	0.414138	-0.171675
H319	H	-0.415029	0.432854	-0.218805
C320	C	-0.365142	0.367853	-0.037212
C321	C	-0.412243	0.365050	-0.089816
H322	H	-0.349888	0.336168	-0.013144
H323	H	-0.366722	0.387737	0.049363
H324	H	-0.346864	0.381552	-0.112192
H325	H	-0.430522	0.351357	-0.014830
H326	H	-0.410666	0.345163	-0.176378
H327	H	-0.434826	0.014492	-0.000134
H328	H	-0.023525	-0.185642	-0.000215
H329	H	-0.486974	0.780335	-0.000193
H330	H	-0.487897	0.688883	-0.000154
H331	H	-0.493206	0.165279	-0.000161
H332	H	-0.646920	0.802406	-0.000211
H333	H	-0.653160	0.187341	-0.000162
H334	H	-0.494139	0.073813	-0.000148
