data_functionalizedCrystal
_audit_creation_method	'MofGen! by Chris Wilmer'
_symmetry_space_group_name_H-M	'P1'
_symmetry_Int_Tables_number	1
_symmetry_cell_setting	triclinic
loop_
_symmetry_equiv_pos_as_xyz
  x,y,z
_cell_length_a	16.992694
_cell_length_b	19.188924
_cell_length_c	16.053802
_cell_angle_alpha	92.554672
_cell_angle_beta	87.249047
_cell_angle_gamma	86.905094
loop_
_atom_site_label
_atom_site_type_symbol
_atom_site_fract_x
_atom_site_fract_y
_atom_site_fract_z
O1	O	1.043192	0.145268	-0.069331
O2	O	0.814914	0.143643	-0.069355
O3	O	0.935643	0.043185	-0.069333
O4	O	0.922463	0.245725	-0.069354
O5	O	0.928998	0.048691	0.069525
O6	O	0.808269	0.149148	0.069502
O7	O	1.036547	0.150773	0.069527
Zn8	Zn	0.921353	0.150834	0.091561
Zn9	Zn	0.930108	0.143581	-0.091390
O10	O	0.915818	0.251230	0.069504
C11	C	0.782386	0.144306	0.000070
C12	C	0.695364	0.138073	0.000062
C13	C	0.931894	0.019902	0.000097
C14	C	0.930616	-0.057678	0.000099
C15	C	0.644916	0.198212	0.000056
C16	C	0.563149	0.192352	0.000068
C17	C	0.531832	0.126352	0.000080
C18	C	0.582286	0.066208	0.000088
C19	C	0.664051	0.072069	0.000082
C20	C	0.288317	0.102060	0.000105
C21	C	0.206546	0.096203	0.000108
C22	C	0.187414	0.222348	0.000090
C23	C	0.269181	0.228203	0.000079
C24	C	0.319628	0.168060	0.000091
N25	N	0.448253	0.120360	0.000090
N26	N	0.403205	0.174052	0.000088
C27	C	0.933641	-0.097112	-0.075592
C28	C	0.932429	-0.170006	-0.075599
C29	C	0.928207	-0.203463	0.000090
C30	C	0.925176	-0.164019	0.075792
C31	C	0.926381	-0.091126	0.075796
N32	N	0.968231	-0.318393	0.056429
N33	N	0.967089	-0.387639	0.056420
C34	C	0.924576	-0.423085	0.000082
N35	N	0.883259	-0.386672	-0.056259
N36	N	0.884405	-0.317420	-0.056252
C37	C	0.926900	-0.282503	0.000094
C38	C	0.926286	-0.541560	-0.075622
C39	C	0.925069	-0.614455	-0.075625
C40	C	0.917824	-0.608467	0.075768
C41	C	0.919034	-0.535573	0.075769
C42	C	0.923269	-0.502124	0.000072
C43	C	1.069075	0.150109	0.000099
C44	C	1.156097	0.156342	0.000103
C45	C	0.919567	0.274514	0.000073
C46	C	0.920846	0.352093	0.000065
N47	N	0.915383	0.155785	0.216420
N48	N	0.936084	0.138626	-0.216249
C49	C	0.966772	0.113057	0.260124
C50	C	0.962604	0.116527	0.347530
C51	C	0.907049	0.162728	0.391231
C52	C	0.855655	0.205457	0.347521
C53	C	0.859820	0.201983	0.260117
C54	C	0.888855	0.177882	0.652637
C55	C	0.884695	0.181354	0.740047
C56	C	0.991643	0.092422	0.740050
C57	C	0.995807	0.088955	0.652644
C58	C	0.944410	0.131682	0.608942
N59	N	0.902789	0.166277	0.480574
N60	N	0.948667	0.128128	0.519601
H61	H	0.670407	0.251957	0.000046
H62	H	0.937087	-0.069883	-0.137231
N63	N	0.174545	0.028785	0.000114
N64	N	0.133849	0.009123	-0.058417
H65	H	0.111247	-0.038489	-0.058416
H66	H	0.847006	0.212673	0.617062
N67	N	0.301186	0.295614	0.000066
N68	N	0.347473	0.310631	-0.058470
H69	H	0.370080	0.358240	-0.058482
H70	H	0.929730	-0.514324	-0.137259
H71	H	0.329382	0.053086	0.000116
H72	H	0.556781	0.012469	0.000109
H73	H	0.817973	0.236776	0.224534
N74	N	0.827941	0.228538	0.784701
N75	N	0.824235	0.231632	0.862740
H76	H	0.784156	0.264955	0.894279
H77	H	0.810417	0.243073	0.383107
H78	H	0.522077	0.241324	0.000062
N79	N	0.715574	0.010631	0.000097
N80	N	0.687605	-0.048294	0.000111
H81	H	0.723991	-0.091687	0.000127
H82	H	0.146331	0.271313	0.000081
N83	N	0.935517	-0.210288	-0.152927
N84	N	0.939295	-0.180414	-0.220505
H85	H	0.941476	-0.208860	-0.275119
H86	H	0.921736	-0.191265	0.137419
N87	N	1.015070	0.072849	0.392163
N88	N	0.987999	0.030045	0.440918
H89	H	1.025048	-0.000819	0.472433
H90	H	0.923914	-0.059018	0.137435
H91	H	0.927529	-0.646562	-0.137265
H92	H	1.041044	0.051334	0.617065
H93	H	0.914380	-0.635707	0.137396
N94	N	1.044124	0.048775	0.784705
N95	N	1.017076	0.005983	0.833490
H96	H	1.054140	-0.024847	0.865029
N97	N	0.915945	-0.495298	0.153095
N98	N	0.912172	-0.525176	0.220671
H99	H	0.909987	-0.496732	0.275287
H100	H	1.012014	0.075438	0.224549
