data_functionalizedCrystal
_audit_creation_method	'MofGen! by Chris Wilmer'
_symmetry_space_group_name_H-M	'P1'
_symmetry_Int_Tables_number	1
_symmetry_cell_setting	triclinic
loop_
_symmetry_equiv_pos_as_xyz
  x,y,z
_cell_length_a	18.101398
_cell_length_b	21.295417
_cell_length_c	18.101390
_cell_angle_alpha	89.962939
_cell_angle_beta	89.975319
_cell_angle_gamma	90.025773
loop_
_atom_site_label
_atom_site_type_symbol
_atom_site_fract_x
_atom_site_fract_y
_atom_site_fract_z
Zn1	Zn	1.132127	-0.250665	-0.418817
Zn2	Zn	1.465460	0.082669	-0.085484
Zn3	Zn	1.798793	0.416002	0.247849
Zn4	Zn	1.132023	-0.355945	-0.294967
Zn5	Zn	1.465356	-0.022611	0.038366
Zn6	Zn	1.798690	0.310722	0.371700
Zn7	Zn	1.008285	-0.250685	-0.294979
Zn8	Zn	1.341618	0.082649	0.038355
Zn9	Zn	1.674952	0.415982	0.371688
Zn10	Zn	1.008238	-0.355891	-0.418755
Zn11	Zn	1.341571	-0.022558	-0.085422
Zn12	Zn	1.674904	0.310775	0.247911
O13	O	1.070168	-0.303296	-0.356880
O14	O	1.403501	0.030037	-0.023546
O15	O	1.736835	0.363370	0.309787
O16	O	1.235746	-0.264644	-0.402409
O17	O	1.569079	0.068689	-0.069076
O18	O	1.902412	0.402022	0.264257
O19	O	1.115585	-0.342013	-0.191335
O20	O	1.448919	-0.008679	0.141998
O21	O	1.782252	0.324654	0.475331
O22	O	1.024776	-0.162593	-0.311437
O23	O	1.358109	0.170741	0.021897
O24	O	1.691443	0.504074	0.355230
O25	O	1.235670	-0.341993	-0.311417
O26	O	1.569003	-0.008660	0.021916
O27	O	1.902336	0.324674	0.355250
O28	O	1.115762	-0.162578	-0.402421
O29	O	1.449095	0.170755	-0.069087
O30	O	1.782429	0.504089	0.264246
O31	O	1.024675	-0.264679	-0.191344
O32	O	1.358009	0.068655	0.141989
O33	O	1.691342	0.401988	0.475323
O34	O	0.904646	-0.264627	-0.311377
O35	O	1.237979	0.068707	0.021957
O36	O	1.571312	0.402040	0.355290
O37	O	1.024695	-0.341902	-0.522397
O38	O	1.358029	-0.008569	-0.189063
O39	O	1.691362	0.324765	0.144270
O40	O	0.904611	-0.341921	-0.402315
O41	O	1.237944	-0.008588	-0.068982
O42	O	1.571278	0.324745	0.264352
O43	O	1.115716	-0.264592	-0.522442
O44	O	1.449049	0.068741	-0.189109
O45	O	1.782383	0.402074	0.144225
O46	O	1.115540	-0.444027	-0.311357
O47	O	1.448873	-0.110694	0.021976
O48	O	1.782206	0.222640	0.355310
O49	O	1.024595	-0.443988	-0.402304
O50	O	1.357928	-0.110654	-0.068971
O51	O	1.691262	0.222679	0.264363
C52	C	0.877758	-0.303271	-0.356841
C53	C	1.211091	0.030063	-0.023508
C54	C	1.544424	0.363396	0.309826
C55	C	0.795443	-0.303275	-0.356842
C56	C	1.128777	0.030058	-0.023509
C57	C	1.462110	0.363392	0.309825
C58	C	0.496352	-0.303314	-0.356904
C59	C	0.829686	0.030019	-0.023571
C60	C	1.163019	0.363352	0.309762
C61	C	0.527675	-0.254439	-0.299967
C62	C	0.861008	0.078894	0.033366
C63	C	1.194341	0.412227	0.366699
C64	C	0.613293	-0.254571	-0.299724
C65	C	0.946626	0.078763	0.033609
C66	C	1.279960	0.412096	0.366942
C67	C	0.644735	-0.303294	-0.356873
C68	C	0.978068	0.030039	-0.023540
C69	C	1.311402	0.363372	0.309793
C70	C	0.613618	-0.369607	-0.335543
C71	C	0.946951	-0.036273	-0.002210
C72	C	1.280284	0.297060	0.331124
C73	C	0.527972	-0.369335	-0.335147
C74	C	0.861306	-0.036002	-0.001814
C75	C	1.194639	0.297332	0.331519
C76	C	0.527967	-0.286453	-0.435305
C77	C	0.861301	0.046880	-0.101972
C78	C	1.194634	0.380213	0.231362
C79	C	0.613618	-0.284977	-0.434877
C80	C	0.946951	0.048357	-0.101544
C81	C	1.280285	0.381690	0.231789
C82	C	0.728594	-0.303287	-0.356857
C83	C	1.061928	0.030046	-0.023524
C84	C	1.395261	0.363380	0.309810
C85	C	0.412493	-0.303326	-0.356919
C86	C	0.745826	0.030007	-0.023585
C87	C	1.079160	0.363341	0.309748
C88	C	1.070071	-0.466848	-0.356839
C89	C	1.403404	-0.133515	-0.023505
C90	C	1.736738	0.199819	0.309828
C91	C	1.070097	-0.536816	-0.356846
C92	C	1.403431	-0.203483	-0.023512
C93	C	1.736764	0.129851	0.309821
C94	C	1.117494	-0.569682	-0.309538
C95	C	1.450827	-0.236349	0.023795
C96	C	1.784161	0.096984	0.357128
C97	C	1.117529	-0.635425	-0.309555
C98	C	1.450862	-0.302091	0.023778
C99	C	1.784196	0.031242	0.357112
C100	C	1.070153	-0.668299	-0.356871
C101	C	1.403487	-0.334965	-0.023538
C102	C	1.736820	-0.001632	0.309795
C103	C	1.022753	-0.635424	-0.404188
C104	C	1.356086	-0.302091	-0.070855
C105	C	1.689420	0.031242	0.262479
C106	C	1.022725	-0.569683	-0.404175
C107	C	1.356058	-0.236350	-0.070842
C108	C	1.689392	0.096984	0.262491
N109	N	1.005369	-0.771559	-0.362504
N110	N	1.338703	-0.438226	-0.029171
N111	N	1.672036	-0.104893	0.304163
N112	N	1.005398	-0.834011	-0.362512
N113	N	1.338731	-0.500677	-0.029178
N114	N	1.672065	-0.167344	0.304155
C115	C	1.070236	-0.866373	-0.356914
C116	C	1.403570	-0.533040	-0.023580
C117	C	1.736903	-0.199707	0.309753
N118	N	1.135046	-0.833925	-0.351293
N119	N	1.468380	-0.500592	-0.017960
N120	N	1.801713	-0.167258	0.315374
N121	N	1.135017	-0.771468	-0.351282
N122	N	1.468350	-0.438135	-0.017948
N123	N	1.801683	-0.104801	0.315385
C124	C	1.070179	-0.739584	-0.356891
C125	C	1.403512	-0.406251	-0.023557
C126	C	1.736846	-0.072917	0.309776
C127	C	1.117675	-0.970525	-0.309622
C128	C	1.451008	-0.637192	0.023712
C129	C	1.784342	-0.303858	0.357045
C130	C	1.117711	-1.036269	-0.309644
C131	C	1.451044	-0.702935	0.023690
C132	C	1.784378	-0.369602	0.357023
C133	C	1.022929	-1.036267	-0.404273
C134	C	1.356262	-0.702934	-0.070940
C135	C	1.689595	-0.369600	0.262394
C136	C	1.022899	-0.970525	-0.404255
C137	C	1.356233	-0.637191	-0.070922
C138	C	1.689566	-0.303858	0.262412
C139	C	1.070271	-0.937658	-0.356925
C140	C	1.403605	-0.604324	-0.023592
C141	C	1.736938	-0.270991	0.309741
C142	C	1.263330	-0.303322	-0.356919
C143	C	1.596663	0.030011	-0.023585
C144	C	1.929997	0.363344	0.309748
C145	C	1.345644	-0.303334	-0.356936
C146	C	1.678977	0.030000	-0.023602
C147	C	2.012311	0.363333	0.309731
C148	C	1.070212	-0.303239	-0.550042
C149	C	1.403545	0.030094	-0.216708
C150	C	1.736879	0.363428	0.116625
C151	C	1.070231	-0.303214	-0.632356
C152	C	1.403564	0.030119	-0.299022
C153	C	1.736898	0.363452	0.034311
C154	C	1.070286	-0.139106	-0.356937
C155	C	1.403619	0.194227	-0.023604
C156	C	1.736952	0.527561	0.309730
C157	C	1.070336	-0.069138	-0.356961
C158	C	1.403669	0.264195	-0.023628
C159	C	1.737003	0.597529	0.309705
C160	C	1.070271	-0.303175	-0.931447
C161	C	1.403604	0.030158	-0.598114
C162	C	1.736937	0.363492	-0.264780
C163	C	1.127727	-0.254705	-0.900150
C164	C	1.461060	0.078628	-0.566817
C165	C	1.794394	0.411961	-0.233484
C166	C	1.127548	-0.254525	-0.814532
C167	C	1.460881	0.078808	-0.481199
C168	C	1.794215	0.412141	-0.147865
C169	C	1.070252	-0.303195	-0.783064
C170	C	1.403585	0.030139	-0.449731
C171	C	1.736918	0.363472	-0.116398
C172	C	0.992235	-0.285166	-0.814132
C173	C	1.325568	0.048167	-0.480799
C174	C	1.658901	0.381501	-0.147466
C175	C	0.992579	-0.284803	-0.899778
C176	C	1.325912	0.048531	-0.566444
C177	C	1.659245	0.381864	-0.233111
C178	C	1.090144	-0.369798	-0.899855
C179	C	1.423478	-0.036465	-0.566522
C180	C	1.756811	0.296869	-0.233189
C181	C	1.091857	-0.369458	-0.814205
C182	C	1.425190	-0.036125	-0.480872
C183	C	1.758523	0.297208	-0.147539
C184	C	1.070236	-0.303207	-0.699205
C185	C	1.403569	0.030127	-0.365871
C186	C	1.736903	0.363460	-0.032538
C187	C	1.070281	-0.303162	-1.015306
C188	C	1.403615	0.030172	-0.681973
C189	C	1.736948	0.363505	-0.348640
C190	C	1.070167	-0.303308	-0.164469
C191	C	1.403500	0.030025	0.168864
C192	C	1.736834	0.363359	0.502198
C193	C	1.070292	-0.303155	-0.082155
C194	C	1.403625	0.030178	0.251178
C195	C	1.736958	0.363511	0.584511
H196	H	0.507251	-0.406984	-0.374809
H197	H	0.840584	-0.073651	-0.041475
H198	H	1.173918	0.259683	0.291858
H199	H	0.634333	-0.205397	-0.313095
H200	H	0.967666	0.127936	0.020238
H201	H	1.301000	0.461269	0.353571
H202	H	0.975081	-0.237006	-0.792697
H203	H	1.308414	0.096327	-0.459363
H204	H	1.641747	0.429661	-0.126030
H205	H	0.635032	-0.384153	-0.278847
H206	H	0.968365	-0.050820	0.054486
H207	H	1.301699	0.282514	0.387820
H208	H	1.048300	-0.405914	-0.920098
H209	H	1.381633	-0.072580	-0.586765
H210	H	1.714966	0.260753	-0.253432
H211	H	0.633983	-0.406998	-0.375715
H212	H	0.967316	-0.073665	-0.042382
H213	H	1.300649	0.259669	0.290952
H214	H	0.984128	-0.542923	-0.442700
H215	H	1.317461	-0.209590	-0.109366
H216	H	1.650795	0.123744	0.223967
H217	H	1.185768	-0.265856	-0.920757
H218	H	1.519101	0.067477	-0.587423
H219	H	1.852434	0.400810	-0.254090
H220	H	0.984181	-0.662194	-0.442715
H221	H	1.317514	-0.328861	-0.109381
H222	H	1.650848	0.004472	0.223952
H223	H	0.507712	-0.322052	-0.477728
H224	H	0.841045	0.011282	-0.144395
H225	H	1.174378	0.344615	0.188938
H226	H	0.984358	-1.063032	-0.442802
H227	H	1.317691	-0.729699	-0.109469
H228	H	1.651024	-0.396366	0.223865
H229	H	0.984301	-0.943763	-0.442774
H230	H	1.317634	-0.610430	-0.109441
H231	H	1.650968	-0.277096	0.223893
H232	H	0.506395	-0.238940	-0.454697
H233	H	0.839728	0.094394	-0.121364
H234	H	1.173062	0.427727	0.211969
H235	H	1.156251	-0.943764	-0.271085
H236	H	1.489584	-0.610430	0.062248
H237	H	1.822917	-0.277097	0.395581
H238	H	0.633962	-0.236178	-0.450961
H239	H	0.967295	0.097155	-0.117628
H240	H	1.300628	0.430489	0.215706
H241	H	1.114739	-0.205625	-0.921691
H242	H	1.448072	0.127708	-0.588358
H243	H	1.781406	0.461042	-0.255024
H244	H	1.156312	-1.063027	-0.271122
H245	H	1.489645	-0.729694	0.062212
H246	H	1.822978	-0.396361	0.395545
H247	H	1.156128	-0.662190	-0.271032
H248	H	1.489461	-0.328856	0.062302
H249	H	1.822794	0.004477	0.395635
H250	H	0.635024	-0.317980	-0.479573
H251	H	0.968357	0.015353	-0.146240
H252	H	1.301691	0.348687	0.187093
H253	H	0.507960	-0.383634	-0.277832
H254	H	0.841294	-0.050300	0.055501
H255	H	1.174627	0.283033	0.388834
H256	H	1.156069	-0.542924	-0.271002
H257	H	1.489402	-0.209591	0.062332
H258	H	1.822736	0.123743	0.395665
H259	H	1.185399	-0.265816	-0.793528
H260	H	1.518733	0.067517	-0.460195
H261	H	1.852066	0.400851	-0.126861
H262	H	1.114393	-0.205170	-0.794062
H263	H	1.447726	0.128164	-0.460729
H264	H	1.781060	0.461497	-0.127396
H265	H	0.975731	-0.236102	-0.919771
H266	H	1.309064	0.097232	-0.586438
H267	H	1.642398	0.430565	-0.253105
H268	H	1.146037	-0.386213	-0.921503
H269	H	1.479370	-0.052880	-0.588170
H270	H	1.812703	0.280453	-0.254836
H271	H	1.149270	-0.383053	-0.793899
H272	H	1.482603	-0.049720	-0.460566
H273	H	1.815937	0.283614	-0.127233
H274	H	1.053051	-0.407513	-0.792781
H275	H	1.386385	-0.074180	-0.459448
H276	H	1.719718	0.259154	-0.126115
H277	H	0.948313	-0.318570	-0.920478
H278	H	1.281646	0.014763	-0.587145
H279	H	1.614980	0.348097	-0.253812
H280	H	0.948263	-0.319382	-0.793747
H281	H	1.281597	0.013951	-0.460413
H282	H	1.614930	0.347285	-0.127080
H283	H	0.507104	-0.205116	-0.313191
H284	H	0.840437	0.128217	0.020142
H285	H	1.173771	0.461551	0.353476
H286	H	0.506125	-0.265460	-0.242211
H287	H	0.839459	0.067873	0.091122
H288	H	1.172792	0.401206	0.424455
H289	H	0.633746	-0.265717	-0.241630
H290	H	0.967080	0.067616	0.091703
H291	H	1.300413	0.400949	0.425036
