data_functionalizedCrystal
_audit_creation_method	'MofGen! by Chris Wilmer'
_symmetry_space_group_name_H-M	'P1'
_symmetry_Int_Tables_number	1
_symmetry_cell_setting	triclinic
loop_
_symmetry_equiv_pos_as_xyz
  x,y,z
_cell_length_a	16.625548
_cell_length_b	18.101395
_cell_length_c	18.101389
_cell_angle_alpha	89.983159
_cell_angle_beta	89.981016
_cell_angle_gamma	90.032172
loop_
_atom_site_label
_atom_site_type_symbol
_atom_site_fract_x
_atom_site_fract_y
_atom_site_fract_z
Zn1	Zn	1.232619	-0.294886	-0.418741
Zn2	Zn	1.565953	0.038447	-0.085408
Zn3	Zn	1.899286	0.371780	0.247925
Zn4	Zn	1.232506	-0.418712	-0.294903
Zn5	Zn	1.565839	-0.085379	0.038430
Zn6	Zn	1.899173	0.247955	0.371763
Zn7	Zn	1.097785	-0.294891	-0.294914
Zn8	Zn	1.431118	0.038442	0.038419
Zn9	Zn	1.764452	0.371776	0.371753
Zn10	Zn	1.097731	-0.418693	-0.418703
Zn11	Zn	1.431065	-0.085359	-0.085370
Zn12	Zn	1.764398	0.247974	0.247963
O13	O	1.165160	-0.356795	-0.356815
O14	O	1.498494	-0.023462	-0.023482
O15	O	1.831827	0.309871	0.309851
O16	O	1.345437	-0.311318	-0.402325
O17	O	1.678770	0.022015	-0.068992
O18	O	2.012103	0.355349	0.264341
O19	O	1.214610	-0.402297	-0.191272
O20	O	1.547943	-0.068963	0.142062
O21	O	1.881277	0.264370	0.475395
O22	O	1.115741	-0.191257	-0.311360
O23	O	1.449074	0.142076	0.021973
O24	O	1.782408	0.475409	0.355306
O25	O	1.345353	-0.402292	-0.311342
O26	O	1.678687	-0.068959	0.021991
O27	O	2.012020	0.264375	0.355325
O28	O	1.214803	-0.191254	-0.402336
O29	O	1.548137	0.142079	-0.069002
O30	O	1.881470	0.475413	0.264331
O31	O	1.115631	-0.311326	-0.191280
O32	O	1.448964	0.022007	0.142054
O33	O	1.782298	0.355340	0.475387
O34	O	0.984945	-0.311308	-0.311324
O35	O	1.318279	0.022026	0.022010
O36	O	1.651612	0.355359	0.355343
O37	O	1.115650	-0.402259	-0.522341
O38	O	1.448983	-0.068926	-0.189008
O39	O	1.782316	0.264407	0.144325
O40	O	0.984906	-0.402264	-0.402271
O41	O	1.318239	-0.068931	-0.068938
O42	O	1.651573	0.264403	0.264396
O43	O	1.214751	-0.311299	-0.522369
O44	O	1.548085	0.022034	-0.189036
O45	O	1.881418	0.355367	0.144297
O46	O	1.214558	-0.522342	-0.311305
O47	O	1.547891	-0.189009	0.022028
O48	O	1.881225	0.144324	0.355362
O49	O	1.115540	-0.522328	-0.402261
O50	O	1.448873	-0.188995	-0.068927
O51	O	1.782206	0.144339	0.264406
C52	C	0.955670	-0.356785	-0.356795
C53	C	1.289003	-0.023452	-0.023461
C54	C	1.622336	0.309882	0.309872
C55	C	0.866048	-0.356798	-0.356803
C56	C	1.199382	-0.023465	-0.023470
C57	C	1.532715	0.309869	0.309863
C58	C	0.537873	-0.356803	-0.356835
C59	C	0.871206	-0.023470	-0.023502
C60	C	1.204540	0.309864	0.309832
C61	C	0.629181	-0.356800	-0.356824
C62	C	0.962515	-0.023466	-0.023491
C63	C	1.295848	0.309867	0.309843
C64	C	0.701958	-0.356801	-0.356819
C65	C	1.035291	-0.023468	-0.023485
C66	C	1.368624	0.309866	0.309848
C67	C	0.793272	-0.356797	-0.356809
C68	C	1.126605	-0.023463	-0.023475
C69	C	1.459939	0.309870	0.309858
C70	C	1.165053	-0.549206	-0.356794
C71	C	1.498386	-0.215873	-0.023460
C72	C	1.831719	0.117461	0.309873
C73	C	1.165080	-0.631520	-0.356809
C74	C	1.498414	-0.298187	-0.023476
C75	C	1.831747	0.035147	0.309858
C76	C	1.165257	-0.930611	-0.356849
C77	C	1.498590	-0.597278	-0.023516
C78	C	1.831924	-0.263944	0.309818
C79	C	1.103102	-0.899308	-0.414218
C80	C	1.436435	-0.565974	-0.080884
C81	C	1.769769	-0.232641	0.252449
C82	C	1.102807	-0.813690	-0.414038
C83	C	1.436140	-0.480357	-0.080705
C84	C	1.769473	-0.147023	0.252628
C85	C	1.165169	-0.782229	-0.356830
C86	C	1.498503	-0.448895	-0.023497
C87	C	1.831836	-0.115562	0.309837
C88	C	1.142164	-0.813366	-0.278780
C89	C	1.475498	-0.480033	0.054553
C90	C	1.808831	-0.146699	0.387886
C91	C	1.141764	-0.899011	-0.279124
C92	C	1.475097	-0.565678	0.054210
C93	C	1.808430	-0.232345	0.387543
C94	C	1.250553	-0.898957	-0.376843
C95	C	1.583887	-0.565624	-0.043509
C96	C	1.917220	-0.232290	0.289824
C97	C	1.250052	-0.813306	-0.378554
C98	C	1.583385	-0.479973	-0.045221
C99	C	1.916718	-0.146639	0.288112
C100	C	1.165121	-0.698369	-0.356814
C101	C	1.498454	-0.365036	-0.023481
C102	C	1.831788	-0.031702	0.309852
C103	C	1.165303	-1.014470	-0.356859
C104	C	1.498637	-0.681137	-0.023526
C105	C	1.831970	-0.347804	0.309807
C106	C	1.375469	-0.356807	-0.356837
C107	C	1.708803	-0.023473	-0.023503
C108	C	2.042136	0.309860	0.309830
C109	C	1.465090	-0.356811	-0.356846
C110	C	1.798424	-0.023478	-0.023512
C111	C	2.131757	0.309855	0.309821
C112	C	1.165207	-0.356777	-0.549977
C113	C	1.498540	-0.023443	-0.216644
C114	C	1.831874	0.309890	0.116689
C115	C	1.165227	-0.356769	-0.632292
C116	C	1.498560	-0.023435	-0.298958
C117	C	1.831894	0.309898	0.034375
C118	C	1.165291	-0.163633	-0.356854
C119	C	1.498624	0.169700	-0.023520
C120	C	1.831957	0.503033	0.309813
C121	C	1.165346	-0.081319	-0.356870
C122	C	1.498680	0.252014	-0.023536
C123	C	1.832013	0.585347	0.309797
C124	C	1.165274	-0.356630	-0.931383
C125	C	1.498607	-0.023297	-0.598049
C126	C	1.831941	0.310037	-0.264716
C127	C	1.102707	-0.413678	-0.900040
C128	C	1.436040	-0.080344	-0.566707
C129	C	1.769374	0.252989	-0.233373
C130	C	1.102876	-0.413942	-0.814422
C131	C	1.436210	-0.080609	-0.481088
C132	C	1.769543	0.252724	-0.147755
C133	C	1.165250	-0.356699	-0.783000
C134	C	1.498583	-0.023365	-0.449667
C135	C	1.831917	0.309968	-0.116333
C136	C	1.250202	-0.377881	-0.814099
C137	C	1.583535	-0.044548	-0.480766
C138	C	1.916868	0.288785	-0.147432
C139	C	1.249853	-0.378256	-0.899744
C140	C	1.583186	-0.044923	-0.566411
C141	C	1.916520	0.288411	-0.233077
C142	C	1.143628	-0.278273	-0.899807
C143	C	1.476961	0.055061	-0.566473
C144	C	1.810294	0.388394	-0.233140
C145	C	1.141737	-0.278725	-0.814156
C146	C	1.475071	0.054608	-0.480823
C147	C	1.808404	0.387941	-0.147489
C148	C	1.165242	-0.356736	-0.699141
C149	C	1.498575	-0.023403	-0.365807
C150	C	1.831908	0.309930	-0.032474
C151	C	1.165288	-0.356594	-1.015242
C152	C	1.498621	-0.023261	-0.681909
C153	C	1.831955	0.310073	-0.348576
C154	C	1.165160	-0.356761	-0.164405
C155	C	1.498494	-0.023427	0.168928
C156	C	1.831827	0.309906	0.502262
C157	C	1.165297	-0.356560	-0.082091
C158	C	1.498630	-0.023227	0.251242
C159	C	1.831964	0.310107	0.584575
H160	H	1.117199	-0.792636	-0.471911
H161	H	1.450533	-0.459303	-0.138578
H162	H	1.783866	-0.125969	0.194755
F163	F	1.060267	-0.925208	-0.256987
F164	F	1.393600	-0.591875	0.076347
F165	F	1.726934	-0.258542	0.409680
F166	F	1.272729	-0.786705	-0.453633
F167	F	1.606062	-0.453371	-0.120300
F168	F	1.939396	-0.120038	0.213034
H169	H	1.185071	-0.919720	-0.234922
H170	H	1.518405	-0.586386	0.098411
H171	H	1.851738	-0.253053	0.431745
F172	F	1.203191	-0.222717	-0.926301
F173	F	1.536525	0.110616	-0.592968
F174	F	1.869858	0.443949	-0.259634
H175	H	1.116856	-0.471404	-0.921566
H176	H	1.450189	-0.138071	-0.588232
H177	H	1.783523	0.195263	-0.254899
F178	F	1.312816	-0.326271	-0.926849
F179	F	1.646149	0.007063	-0.593516
F180	F	1.979482	0.340396	-0.260182
F181	F	1.199474	-0.786731	-0.221385
F182	F	1.532807	-0.453398	0.111948
F183	F	1.866141	-0.120064	0.445282
H184	H	1.080474	-0.791979	-0.261540
H185	H	1.413807	-0.458646	0.071793
H186	H	1.747141	-0.125312	0.405127
H187	H	1.271527	-0.920515	-0.432786
H188	H	1.604860	-0.587181	-0.099453
H189	H	1.938194	-0.253848	0.233880
H190	H	1.117167	-0.472023	-0.793940
H191	H	1.450501	-0.138690	-0.460606
H192	H	1.783834	0.194644	-0.127273
H193	H	1.082758	-0.258973	-0.921397
H194	H	1.416091	0.074360	-0.588064
H195	H	1.749424	0.407693	-0.254731
H196	H	1.298070	-0.337636	-0.793748
H197	H	1.631404	-0.004303	-0.460415
H198	H	1.964737	0.329031	-0.127081
H199	H	1.268869	-0.434553	-0.792657
H200	H	1.602203	-0.101219	-0.459324
H201	H	1.935536	0.232114	-0.125990
F202	F	1.060019	-0.257848	-0.787596
F203	F	1.393352	0.075485	-0.454262
F204	F	1.726686	0.408819	-0.120929
H205	H	1.298810	-0.791886	-0.339816
H206	H	1.632144	-0.458552	-0.006482
H207	H	1.965477	-0.125219	0.326851
F208	F	1.311084	-0.925425	-0.322238
F209	F	1.644418	-0.592092	0.011096
F210	F	1.977751	-0.258759	0.344429
H211	H	1.039881	-0.400687	-0.793394
H212	H	1.373214	-0.067354	-0.460061
H213	H	1.706548	0.265980	-0.126727
F214	F	1.196961	-0.220220	-0.786208
F215	F	1.530295	0.113113	-0.452875
F216	F	1.863628	0.446446	-0.119541
H217	H	1.040263	-0.920893	-0.401141
H218	H	1.373596	-0.587560	-0.067807
H219	H	1.706929	-0.254226	0.265526
H220	H	1.039583	-0.793265	-0.400795
H221	H	1.372916	-0.459932	-0.067461
H222	H	1.706250	-0.126599	0.265872
H223	H	1.039522	-0.400558	-0.920631
H224	H	1.372856	-0.067225	-0.587297
H225	H	1.706189	0.266109	-0.253964
F226	F	1.121724	-0.926180	-0.490109
F227	F	1.455057	-0.592847	-0.156775
F228	F	1.788390	-0.259513	0.176558
H229	H	1.268204	-0.435536	-0.919727
H230	H	1.601537	-0.102202	-0.586394
H231	H	1.934870	0.231131	-0.253061
