data_functionalizedCrystal
_audit_creation_method	'MofGen! by Chris Wilmer'
_symmetry_space_group_name_H-M	'P1'
_symmetry_Int_Tables_number	1
_symmetry_cell_setting	triclinic
loop_
_symmetry_equiv_pos_as_xyz
  x,y,z
_cell_length_a	11.792241
_cell_length_b	11.792254
_cell_length_c	9.130313
_cell_angle_alpha	89.998555
_cell_angle_beta	90.003954
_cell_angle_gamma	84.196007
loop_
_atom_site_label
_atom_site_type_symbol
_atom_site_fract_x
_atom_site_fract_y
_atom_site_fract_z
O1	O	1.506909	0.155562	-0.121658
O2	O	2.006909	0.655562	0.378342
O3	O	1.176569	0.171595	-0.121692
O4	O	1.676569	0.671595	0.378308
O5	O	1.349748	-0.001591	-0.121664
O6	O	1.849748	0.498409	0.378336
O7	O	1.333730	0.328748	-0.121686
O8	O	1.833730	0.828748	0.378314
O9	O	1.349746	-0.001587	0.121935
O10	O	1.849746	0.498413	0.621935
O11	O	1.176567	0.171599	0.121907
O12	O	1.676567	0.671599	0.621907
O13	O	1.506907	0.155567	0.121941
O14	O	2.006907	0.655567	0.621941
Cu15	Cu	1.341737	0.163583	0.144166
Cu16	Cu	1.841737	0.663583	0.644166
Cu17	Cu	1.341739	0.163578	-0.143917
Cu18	Cu	1.841739	0.663578	0.356083
O19	O	1.333728	0.328753	0.121913
O20	O	1.833728	0.828753	0.621913
C21	C	1.134277	0.170590	0.000103
C22	C	1.634277	0.670590	0.500103
C23	C	1.008263	0.167576	0.000090
C24	C	1.508263	0.667576	0.500090
C25	C	0.777551	0.162033	0.000133
C26	C	1.277551	0.662033	0.500133
C27	C	0.905936	0.165112	0.000109
C28	C	1.405936	0.665112	0.500109
C29	C	1.348738	-0.043880	0.000135
C30	C	1.848738	0.456120	0.500135
C31	C	1.345718	-0.169893	0.000134
C32	C	1.845718	0.330107	0.500134
C33	C	1.343264	-0.272229	0.000128
C34	C	1.843264	0.227771	0.500128
C35	C	1.340196	-0.400616	0.000114
C36	C	1.840196	0.099384	0.500114
C37	C	1.549199	0.156571	0.000143
C38	C	2.049199	0.656571	0.500143
C39	C	1.675213	0.159586	0.000146
C40	C	2.175213	0.659586	0.500146
C41	C	1.334738	0.371041	0.000111
C42	C	1.834738	0.871041	0.500111
C43	C	1.337758	0.497054	0.000103
C44	C	1.837758	0.997054	0.500103
N45	N	1.341743	0.163587	0.346789
N46	N	1.841743	0.663587	0.846789
N47	N	1.341742	0.163566	-0.346540
N48	N	1.841742	0.663566	0.153460
C49	C	1.418447	0.086926	0.423454
C50	C	1.918447	0.586926	0.923454
C51	C	1.418444	0.086912	0.576790
C52	C	1.918444	0.586912	1.076790
C53	C	1.265030	0.240230	0.576785
C54	C	1.765030	0.740230	1.076785
C55	C	1.265029	0.240237	0.423451
C56	C	1.765029	0.740237	0.923451
C57	C	1.507022	-0.001588	0.423458
C58	C	2.007022	0.498412	0.923458
C59	C	1.507019	-0.001601	0.576795
C60	C	2.007019	0.498399	1.076795
H61	H	1.202561	0.302650	0.361032
H62	H	1.702561	0.802650	0.861032
C63	C	1.180647	0.324539	0.661127
C64	C	1.680647	0.824539	1.161127
N65	N	1.117087	0.388043	0.724652
N66	N	1.617087	0.888043	1.224652
C67	C	1.481130	-0.119374	0.367229
C68	C	1.981130	0.380626	0.867229
N69	N	1.461625	-0.208088	0.324878
N70	N	1.961625	0.291912	0.824878
H71	H	1.479650	-0.083973	0.624344
H72	H	1.979650	0.416027	1.124344
C73	C	1.618259	0.035466	0.359210
C74	C	2.118259	0.535466	0.859210
N75	N	1.702044	0.063375	0.310818
N76	N	2.202044	0.563375	0.810818
H77	H	1.594193	0.017623	0.618419
H78	H	2.094193	0.517623	1.118419
