data_functionalizedCrystal
_audit_creation_method	'MofGen! by Chris Wilmer'
_symmetry_space_group_name_H-M	'P1'
_symmetry_Int_Tables_number	1
_symmetry_cell_setting	triclinic
loop_
_symmetry_equiv_pos_as_xyz
  x,y,z
_cell_length_a	14.519709
_cell_length_b	9.798715
_cell_length_c	10.723024
_cell_angle_alpha	90.001978
_cell_angle_beta	95.925993
_cell_angle_gamma	90.001928
loop_
_atom_site_label
_atom_site_type_symbol
_atom_site_fract_x
_atom_site_fract_y
_atom_site_fract_z
O1	O	1.224702	-0.113310	-0.163572
O2	O	0.956324	-0.113351	-0.182835
O3	O	1.096703	-0.113324	0.008431
O4	O	1.084322	-0.113336	-0.354837
O5	O	1.096693	0.113658	0.008431
O6	O	0.956313	0.113631	-0.182834
O7	O	1.224692	0.113673	-0.163571
Zn8	Zn	1.090501	0.149690	-0.173203
Zn9	Zn	1.090515	-0.149369	-0.173203
O10	O	1.084312	0.113646	-0.354837
C11	C	0.921954	0.000135	-0.181937
C12	C	0.819559	0.000119	-0.179246
N13	N	1.090498	0.353790	-0.173201
N14	N	1.090525	-0.353468	-0.173194
C15	C	0.444613	0.000182	-0.169343
C16	C	0.548935	0.000164	-0.172093
C17	C	0.632082	0.000149	-0.174294
C18	C	0.736411	0.000134	-0.177045
C19	C	1.259061	0.000184	-0.164469
C20	C	1.361456	0.000191	-0.167159
C21	C	1.095797	0.000165	0.054922
C22	C	1.093101	0.000160	0.193451
C23	C	1.149440	0.421578	-0.092543
C24	C	1.149454	0.578741	-0.092538
C25	C	1.085218	0.000154	-0.401328
C26	C	1.087914	0.000150	-0.539857
C27	C	1.171651	0.000170	0.269169
C28	C	1.168866	0.000165	0.412346
H29	H	1.199920	0.637035	-0.023488
O30	O	1.030178	0.423287	-0.255459
C31	C	0.938667	0.388457	-0.235302
H32	H	0.937353	0.349086	-0.135463
H33	H	0.892560	0.482495	-0.249598
H34	H	0.912090	0.305628	-0.304545
O35	O	1.249118	0.000415	0.489903
C36	C	1.300827	0.117960	0.467108
H37	H	1.252454	0.200121	0.422660
H38	H	1.337145	0.157420	0.559421
H39	H	1.354695	0.091390	0.400813
H40	H	1.199888	0.363265	-0.023486
O41	O	1.007708	-0.000104	0.382491
C42	C	1.004240	-0.117639	0.306297
H43	H	1.051066	-0.199798	0.353925
H44	H	0.930051	-0.157113	0.291703
H45	H	1.028796	-0.091052	0.211653
O46	O	1.010354	0.000324	0.242411
C47	C	0.959889	0.117891	0.201790
H48	H	0.985498	0.157095	0.111406
H49	H	0.883198	0.091439	0.184032
H50	H	0.970164	0.200205	0.277081
O51	O	1.030445	0.576856	-0.255638
C52	C	1.080537	0.494223	-0.332513
H53	H	1.152317	0.472947	-0.282755
H54	H	1.042255	0.393692	-0.352195
H55	H	1.087545	0.549209	-0.424750
H56	H	1.240961	0.000189	0.227995
