data_functionalizedCrystal
_audit_creation_method	'MofGen! by Chris Wilmer'
_symmetry_space_group_name_H-M	'P1'
_symmetry_Int_Tables_number	1
_symmetry_cell_setting	triclinic
loop_
_symmetry_equiv_pos_as_xyz
  x,y,z
_cell_length_a	27.731994
_cell_length_b	27.731996
_cell_length_c	26.210047
_cell_angle_alpha	89.998501
_cell_angle_beta	89.997128
_cell_angle_gamma	82.620961
loop_
_atom_site_label
_atom_site_type_symbol
_atom_site_fract_x
_atom_site_fract_y
_atom_site_fract_z
O1	O	0.640938	0.057387	-0.042363
O2	O	0.974271	0.390720	0.290971
O3	O	1.307604	0.724053	0.624304
O4	O	0.500139	0.066160	-0.042381
O5	O	0.833472	0.399493	0.290953
O6	O	1.166805	0.732827	0.624286
O7	O	0.574924	-0.008626	-0.042360
O8	O	0.908258	0.324707	0.290973
O9	O	1.241591	0.658041	0.624307
O10	O	0.566152	0.132173	-0.042383
O11	O	0.899485	0.465506	0.290950
O12	O	1.232819	0.798839	0.624283
O13	O	0.574910	-0.008614	0.042498
O14	O	0.908243	0.324719	0.375831
O15	O	1.241576	0.658052	0.709165
O16	O	0.500124	0.066172	0.042477
O17	O	0.833458	0.399505	0.375811
O18	O	1.166791	0.732838	0.709144
O19	O	0.640923	0.057398	0.042495
O20	O	0.974257	0.390732	0.375829
O21	O	1.307590	0.724065	0.709162
Cu22	Cu	0.570522	0.061786	0.050235
Cu23	Cu	0.903856	0.395119	0.383568
Cu24	Cu	1.237189	0.728453	0.716901
Cu25	Cu	0.570540	0.061772	-0.050120
Cu26	Cu	0.903873	0.395106	0.283213
Cu27	Cu	1.237206	0.728439	0.616547
O28	O	0.566138	0.132184	0.042475
O29	O	0.899471	0.465518	0.375808
O30	O	1.232804	0.798851	0.709141
C31	C	0.482124	0.065986	0.000046
C32	C	0.815458	0.399319	0.333380
C33	C	1.148791	0.732652	0.666713
C34	C	0.428468	0.065443	0.000040
C35	C	0.761801	0.398777	0.333373
C36	C	1.095135	0.732110	0.666707
C37	C	0.095742	0.062034	0.046316
C38	C	0.429076	0.395367	0.379650
C39	C	0.762409	0.728700	0.712983
C40	C	-0.105915	0.059972	0.046322
C41	C	0.227418	0.393305	0.379656
C42	C	0.560751	0.726639	0.712989
O43	O	-0.131995	0.059690	0.085661
O44	O	0.201339	0.393024	0.418995
O45	O	0.534672	0.726357	0.752328
N46	N	-0.131122	0.059710	0.000066
N47	N	0.202211	0.393043	0.333400
N48	N	0.535544	0.726376	0.666733
C49	C	-0.105911	0.059960	-0.046195
C50	C	0.227422	0.393293	0.287139
C51	C	0.560755	0.726626	0.620472
O52	O	-0.131978	0.059684	-0.085538
O53	O	0.201356	0.393017	0.247795
O54	O	0.534689	0.726351	0.581129
C55	C	0.095746	0.062018	-0.046200
C56	C	0.429079	0.395351	0.287133
C57	C	0.762413	0.728684	0.620467
C58	C	0.120950	0.062285	0.000059
C59	C	0.454283	0.395618	0.333392
C60	C	0.787616	0.728952	0.666726
C61	C	0.120946	0.062301	0.092572
C62	C	0.454279	0.395634	0.425905
C63	C	0.787613	0.728967	0.759238
C64	C	0.171357	0.062819	0.092570
C65	C	0.504690	0.396152	0.425903
C66	C	0.838024	0.729485	0.759236
C67	C	0.196564	0.063070	0.046312
C68	C	0.529898	0.396403	0.379646
C69	C	0.863231	0.729737	0.712979
C70	C	0.171361	0.062803	0.000057
C71	C	0.504694	0.396136	0.333390
C72	C	0.838027	0.729470	0.666724
C73	C	0.120957	0.062264	-0.092460
C74	C	0.454290	0.395597	0.240873
C75	C	0.787623	0.728931	0.574206
C76	C	0.171374	0.062777	-0.092458
C77	C	0.504708	0.396111	0.240876
C78	C	0.838041	0.729444	0.574209
C79	C	0.196578	0.063045	-0.046199
C80	C	0.529911	0.396378	0.287135
C81	C	0.863245	0.729711	0.620468
C82	C	0.246979	0.063572	-0.046202
C83	C	0.580312	0.396906	0.287131
C84	C	0.913646	0.730239	0.620464
N85	N	0.272186	0.063835	0.000054
N86	N	0.605519	0.397168	0.333387
N87	N	0.938853	0.730502	0.666720
C88	C	0.246979	0.063584	0.046311
C89	C	0.580312	0.396917	0.379644
C90	C	0.913645	0.730250	0.712978
C91	C	-0.211784	0.058880	-0.046188
C92	C	0.121549	0.392213	0.287145
C93	C	0.454882	0.725547	0.620478
C94	C	-0.262199	0.058366	-0.046187
C95	C	0.071135	0.391700	0.287146
C96	C	0.404468	0.725033	0.620480
C97	C	-0.262199	0.058378	0.046330
C98	C	0.071134	0.391711	0.379663
C99	C	0.404467	0.725045	0.712997
C100	C	-0.211785	0.058895	0.046328
C101	C	0.121549	0.392228	0.379662
C102	C	0.454882	0.725562	0.712995
C103	C	-0.186578	0.059142	0.000068
C104	C	0.146756	0.392476	0.333401
C105	C	0.480089	0.725809	0.666734
C106	C	0.352845	0.064672	0.046303
C107	C	0.686179	0.398005	0.379637
C108	C	1.019512	0.731339	0.712970
C109	C	0.403261	0.065192	0.046297
C110	C	0.736594	0.398525	0.379631
C111	C	1.069927	0.731859	0.712964
C112	C	0.403257	0.065178	-0.046220
C113	C	0.736590	0.398511	0.287114
C114	C	1.069924	0.731844	0.620447
C115	C	0.352846	0.064660	-0.046214
C116	C	0.686179	0.397994	0.287120
C117	C	1.019513	0.731327	0.620453
C118	C	0.327642	0.064406	0.000052
C119	C	0.660975	0.397739	0.333385
C120	C	0.994308	0.731072	0.666718
O121	O	0.273090	0.063849	-0.085521
O122	O	0.606423	0.397183	0.247813
O123	O	0.939757	0.730516	0.581146
O124	O	0.273055	0.063848	0.085649
O125	O	0.606389	0.397182	0.418982
O126	O	0.939722	0.730515	0.752315
C127	C	0.045331	0.061516	0.046318
C128	C	0.378665	0.394849	0.379652
C129	C	0.711998	0.728182	0.712985
C130	C	0.020127	0.061249	0.000063
C131	C	0.353461	0.394582	0.333396
C132	C	0.686794	0.727916	0.666730
C133	C	0.045335	0.061500	-0.046194
C134	C	0.378668	0.394834	0.287139
C135	C	0.712001	0.728167	0.620472
C136	C	-0.030287	0.060735	0.000064
C137	C	0.303047	0.394069	0.333398
C138	C	0.636380	0.727402	0.666731
C139	C	-0.055494	0.060484	0.046322
C140	C	0.277839	0.393817	0.379655
C141	C	0.611173	0.727151	0.712988
C142	C	-0.030287	0.060746	0.092578
C143	C	0.303046	0.394080	0.425911
C144	C	0.636380	0.727413	0.759244
C145	C	0.020124	0.061264	0.092576
C146	C	0.353457	0.394598	0.425909
C147	C	0.686791	0.727931	0.759242
C148	C	0.020128	0.061238	-0.092450
C149	C	0.353461	0.394571	0.240883
C150	C	0.686795	0.727905	0.574216
C151	C	-0.030283	0.060720	-0.092445
C152	C	0.303050	0.394054	0.240889
C153	C	0.636383	0.727387	0.574222
C154	C	-0.055491	0.060469	-0.046187
C155	C	0.277843	0.393802	0.287146
C156	C	0.611176	0.727136	0.620479
C157	C	0.574737	-0.026628	0.000071
C158	C	0.908070	0.306706	0.333404
C159	C	1.241403	0.640039	0.666737
C160	C	0.574194	-0.080284	0.000076
C161	C	0.907527	0.253050	0.333409
C162	C	1.240861	0.586383	0.666742
C163	C	0.570787	-0.413006	-0.046206
C164	C	0.904120	-0.079672	0.287128
C165	C	1.237454	0.253661	0.620461
C166	C	0.568726	-0.614664	-0.046215
C167	C	0.902059	-0.281330	0.287118
C168	C	1.235393	0.052003	0.620452
O169	O	0.568445	-0.640740	-0.085554
O170	O	0.901779	-0.307406	0.247779
O171	O	1.235112	0.025927	0.581112
N172	N	0.568462	-0.639874	0.000041
N173	N	0.901795	-0.306541	0.333374
N174	N	1.235129	0.026792	0.666707
C175	C	0.568710	-0.614667	0.046302
C176	C	0.902044	-0.281334	0.379635
C177	C	1.235377	0.052000	0.712969
O178	O	0.568434	-0.640737	0.085645
O179	O	0.901767	-0.307403	0.418978
O180	O	1.235100	0.025930	0.752312
C181	C	0.570768	-0.413010	0.046311
C182	C	0.904101	-0.079676	0.379644
C183	C	1.237435	0.253657	0.712977
C184	C	0.571037	-0.387802	0.000052
C185	C	0.904370	-0.054469	0.333385
C186	C	1.237703	0.278864	0.666719
C187	C	0.571055	-0.387798	-0.092461
C188	C	0.904389	-0.054465	0.240873
C189	C	1.237722	0.278868	0.574206
C190	C	0.571573	-0.337387	-0.092458
C191	C	0.904907	-0.004054	0.240875
C192	C	1.238240	0.329280	0.574209
C193	C	0.571823	-0.312184	-0.046200
C194	C	0.905156	0.021150	0.287133
C195	C	1.238490	0.354483	0.620466
C196	C	0.571555	-0.337391	0.000055
C197	C	0.904888	-0.004058	0.333388
C198	C	1.238221	0.329276	0.666721
C199	C	0.571013	-0.387803	0.092571
C200	C	0.904346	-0.054469	0.425905
C201	C	1.237679	0.278864	0.759238
C202	C	0.571526	-0.337385	0.092569
C203	C	0.904859	-0.004052	0.425903
C204	C	1.238193	0.329282	0.759236
C205	C	0.571795	-0.312178	0.046311
C206	C	0.905128	0.021156	0.379644
C207	C	1.238461	0.354489	0.712977
C208	C	0.572322	-0.261777	0.046315
C209	C	0.905656	0.071557	0.379649
C210	C	1.238989	0.404890	0.712982
N211	N	0.572586	-0.236566	0.000060
N212	N	0.905919	0.096768	0.333393
N213	N	1.239253	0.430101	0.666726
C214	C	0.572336	-0.261769	-0.046198
C215	C	0.905670	0.071564	0.287135
C216	C	1.239003	0.404897	0.620469
C217	C	0.567631	-0.720540	0.046294
C218	C	0.900964	-0.387207	0.379627
C219	C	1.234298	-0.053874	0.712961
C220	C	0.567118	-0.770954	0.046292
C221	C	0.900451	-0.437621	0.379625
C222	C	1.233784	-0.104288	0.712959
C223	C	0.567132	-0.770947	-0.046225
C224	C	0.900466	-0.437614	0.287108
C225	C	1.233799	-0.104281	0.620442
C226	C	0.567649	-0.720533	-0.046222
C227	C	0.900983	-0.387199	0.287111
C228	C	1.234316	-0.053866	0.620444
C229	C	0.567895	-0.695329	0.000038
C230	C	0.901228	-0.361996	0.333372
C231	C	1.234562	-0.028663	0.666705
C232	C	0.573424	-0.155903	-0.046189
C233	C	0.906758	0.177431	0.287145
C234	C	1.240091	0.510764	0.620478
C235	C	0.573944	-0.105487	-0.046182
C236	C	0.907278	0.227846	0.287151
C237	C	1.240611	0.561179	0.620485
C238	C	0.573927	-0.105498	0.046335
C239	C	0.907260	0.227835	0.379668
C240	C	1.240594	0.561168	0.713002
C241	C	0.573410	-0.155910	0.046328
C242	C	0.906743	0.177424	0.379662
C243	C	1.240076	0.510757	0.712995
C244	C	0.573157	-0.181110	0.000062
C245	C	0.906490	0.152223	0.333396
C246	C	1.239823	0.485556	0.666729
O247	O	0.572598	-0.235669	0.085634
O248	O	0.905931	0.097665	0.418967
O249	O	1.239264	0.430998	0.752301
O250	O	0.572602	-0.235689	-0.085535
O251	O	0.905936	0.097644	0.247798
O252	O	1.239269	0.430977	0.581131
C253	C	0.570269	-0.463417	-0.046209
C254	C	0.903603	-0.130083	0.287125
C255	C	1.236936	0.203250	0.620458
C256	C	0.570001	-0.488624	0.000046
C257	C	0.903334	-0.155291	0.333380
C258	C	1.236668	0.178042	0.666713
C259	C	0.570251	-0.463421	0.046304
C260	C	0.903584	-0.130087	0.379637
C261	C	1.236917	0.203246	0.712971
C262	C	0.569487	-0.539039	0.000044
C263	C	0.902821	-0.205705	0.333378
C264	C	1.236154	0.127628	0.666711
C265	C	0.569238	-0.564242	-0.046213
C266	C	0.902571	-0.230909	0.287120
C267	C	1.235904	0.102425	0.620453
C268	C	0.569502	-0.539031	-0.092469
C269	C	0.902835	-0.205698	0.240864
C270	C	1.236168	0.127635	0.574198
C271	C	0.570020	-0.488620	-0.092466
C272	C	0.903353	-0.155287	0.240867
C273	C	1.236686	0.178046	0.574200
C274	C	0.569987	-0.488632	0.092560
C275	C	0.903320	-0.155298	0.425893
C276	C	1.236653	0.178035	0.759226
C277	C	0.569469	-0.539043	0.092553
C278	C	0.902803	-0.205709	0.425887
C279	C	1.236136	0.127624	0.759220
C280	C	0.569220	-0.564246	0.046296
C281	C	0.902553	-0.230913	0.379629
C282	C	1.235886	0.102420	0.712962
C283	C	0.658938	0.057573	0.000067
C284	C	0.992271	0.390906	0.333401
C285	C	1.325604	0.724239	0.666734
C286	C	0.712594	0.058115	0.000070
C287	C	1.045927	0.391448	0.333404
C288	C	1.379261	0.724782	0.666737
C289	C	0.566325	0.150186	0.000043
C290	C	0.899658	0.483519	0.333376
C291	C	1.232992	0.816853	0.666710
C292	C	0.566868	0.203842	0.000034
C293	C	0.900201	0.537175	0.333368
C294	C	1.233535	0.870509	0.666701
N295	N	0.570514	0.061795	0.120818
N296	N	0.903847	0.395129	0.454152
N297	N	1.237181	0.728462	0.787485
N298	N	0.570552	0.061759	-0.120704
N299	N	0.903885	0.395092	0.212629
N300	N	1.237219	0.728426	0.545963
C301	C	0.603651	0.028664	0.473342
C302	C	0.936984	0.361998	0.806675
C303	C	1.270318	0.695331	1.140008
C304	C	0.603662	0.028658	0.687000
C305	C	0.936995	0.361991	1.020334
C306	C	1.270328	0.695324	1.353667
O307	O	0.631818	0.000491	0.714630
O308	O	0.965151	0.333824	1.047963
O309	O	1.298484	0.667157	1.381297
N310	N	0.570542	0.061762	0.713712
N311	N	0.903875	0.395095	1.047046
N312	N	1.237209	0.728428	1.380379
C313	C	0.537415	0.094867	0.687007
C314	C	0.870749	0.428201	1.020340
C315	C	1.204082	0.761534	1.353673
O316	O	0.509242	0.123021	0.714630
O317	O	0.842575	0.456354	1.047963
O318	O	1.175909	0.789688	1.381296
C319	C	0.537403	0.094872	0.473349
C320	C	0.870736	0.428205	0.806682
C321	C	1.204069	0.761538	1.140016
C322	C	0.570528	0.061769	0.446640
C323	C	0.903861	0.395102	0.779973
C324	C	1.237195	0.728435	1.113306
C325	C	0.636773	-0.004436	0.446632
C326	C	0.970106	0.328897	0.779965
C327	C	1.303440	0.662231	1.113299
C328	C	0.636772	-0.004432	0.393221
C329	C	0.970105	0.328901	0.726554
C330	C	1.303439	0.662234	1.059887
C331	C	0.603649	0.028672	0.366519
C332	C	0.936982	0.362005	0.699852
C333	C	1.270315	0.695339	1.033185
C334	C	0.570527	0.061773	0.393228
C335	C	0.903860	0.395106	0.726562
C336	C	1.237193	0.728439	1.059895
C337	C	0.504274	0.127975	0.446644
C338	C	0.837607	0.461308	0.779978
C339	C	1.170941	0.794641	1.113311
C340	C	0.504273	0.127972	0.393226
C341	C	0.837606	0.461305	0.726560
C342	C	1.170940	0.794639	1.059893
C343	C	0.537398	0.094869	0.366517
C344	C	0.870731	0.428203	0.699850
C345	C	1.204065	0.761536	1.033184
C346	C	0.537402	0.094881	0.313115
C347	C	0.870735	0.428214	0.646448
C348	C	1.204069	0.761547	0.979781
N349	N	0.570522	0.061777	0.286403
N350	N	0.903855	0.395110	0.619736
N351	N	1.237188	0.728443	0.953069
C352	C	0.603645	0.028672	0.313105
C353	C	0.936978	0.362006	0.646438
C354	C	1.270312	0.695339	0.979771
C355	C	0.537425	0.094864	0.799180
C356	C	0.870758	0.428197	1.132513
C357	C	1.204092	0.761530	1.465847
C358	C	0.537429	0.094863	0.852594
C359	C	0.870762	0.428197	1.185927
C360	C	1.204095	0.761530	1.519261
C361	C	0.603675	0.028653	0.852584
C362	C	0.937008	0.361986	1.185917
C363	C	1.270341	0.695319	1.519251
C364	C	0.603673	0.028656	0.799169
C365	C	0.937006	0.361989	1.132502
C366	C	1.270339	0.695322	1.465836
C367	C	0.570545	0.061760	0.772468
C368	C	0.903878	0.395093	1.105801
C369	C	1.237211	0.728426	1.439134
C370	C	0.603640	0.028683	0.200937
C371	C	0.936973	0.362016	0.534270
C372	C	1.270307	0.695350	0.867603
C373	C	0.603637	0.028691	0.147520
C374	C	0.936971	0.362024	0.480854
C375	C	1.270304	0.695358	0.814187
C376	C	0.537390	0.094900	0.147535
C377	C	0.870723	0.428233	0.480869
C378	C	1.204056	0.761566	0.814202
C379	C	0.537394	0.094894	0.200947
C380	C	0.870727	0.428227	0.534280
C381	C	1.204061	0.761560	0.867613
C382	C	0.570521	0.061781	0.227646
C383	C	0.903855	0.395115	0.560979
C384	C	1.237188	0.728448	0.894313
O385	O	0.509257	0.123029	0.285452
O386	O	0.842591	0.456362	0.618785
O387	O	1.175924	0.789696	0.952119
O388	O	0.631807	0.000516	0.285472
O389	O	0.965140	0.333849	0.618806
O390	O	1.298474	0.667183	0.952139
C391	C	0.603652	0.028661	0.526753
C392	C	0.936986	0.361994	0.860086
C393	C	1.270319	0.695327	1.193420
C394	C	0.570530	0.061761	0.553463
C395	C	0.903864	0.395095	0.886796
C396	C	1.237197	0.728428	1.220129
C397	C	0.537407	0.094865	0.526761
C398	C	0.870740	0.428199	0.860094
C399	C	1.204074	0.761532	1.193427
C400	C	0.570534	0.061761	0.606877
C401	C	0.903867	0.395094	0.940210
C402	C	1.237201	0.728428	1.273543
C403	C	0.603657	0.028657	0.633579
C404	C	0.936991	0.361990	0.966912
C405	C	1.270324	0.695323	1.300245
C406	C	0.636777	-0.004447	0.606867
C407	C	0.970110	0.328886	0.940200
C408	C	1.303444	0.662219	1.273533
C409	C	0.636776	-0.004444	0.553455
C410	C	0.970109	0.328890	0.886788
C411	C	1.303442	0.662223	1.220122
C412	C	0.504287	0.127969	0.553473
C413	C	0.837621	0.461303	0.886806
C414	C	1.170954	0.794636	1.220139
C415	C	0.504292	0.127963	0.606884
C416	C	0.837625	0.461297	0.940218
C417	C	1.170958	0.794630	1.273551
C418	C	0.537415	0.094859	0.633586
C419	C	0.870748	0.428192	0.966920
C420	C	1.204082	0.761526	1.300253
H421	H	0.423790	0.065384	-0.083881
H422	H	0.757123	0.398718	0.249452
H423	H	1.090456	0.732051	0.582786
C424	C	0.532917	-0.043043	0.099982
C425	C	0.866251	0.290290	0.433315
C426	C	1.199584	0.623623	0.766648
C427	C	0.574195	-0.077783	0.097178
C428	C	0.907529	0.255550	0.430511
C429	C	1.240862	0.588883	0.763844
H430	H	0.533079	-0.025933	0.131371
H431	H	0.866412	0.307400	0.464704
H432	H	1.199745	0.640733	0.798038
H433	H	0.533157	-0.020825	0.072431
H434	H	0.866490	0.312508	0.405764
H435	H	1.199823	0.645842	0.739098
H436	H	0.504522	-0.058814	0.098053
H437	H	0.837855	0.274520	0.431387
H438	H	1.171188	0.607853	0.764720
H439	H	0.602591	-0.062012	0.099102
H440	H	0.935924	0.271321	0.432436
H441	H	1.269258	0.604654	0.765769
H442	H	0.573960	-0.100005	0.124736
H443	H	0.907294	0.233328	0.458069
H444	H	1.240627	0.566662	0.791403
H445	H	0.570238	-0.468101	-0.130135
H446	H	0.903571	-0.134768	0.203199
H447	H	1.236905	0.198566	0.536532
C448	C	-0.160849	0.101022	-0.099877
C449	C	0.172484	0.434356	0.233456
C450	C	0.505817	0.767689	0.566790
C451	C	-0.184081	0.059157	-0.097042
C452	C	0.149252	0.392490	0.236291
C453	C	0.482585	0.725824	0.569624
H454	H	-0.143747	0.101193	-0.131271
H455	H	0.189587	0.434526	0.202062
H456	H	0.522920	0.767859	0.535395
H457	H	-0.184421	0.129016	-0.097954
H458	H	0.148913	0.462349	0.235379
H459	H	0.482246	0.795683	0.568712
H460	H	-0.138619	0.101246	-0.072331
H461	H	0.194714	0.434579	0.261003
H462	H	0.528048	0.767912	0.594336
H463	H	-0.206314	0.058935	-0.124587
H464	H	0.127019	0.392269	0.208747
H465	H	0.460352	0.725602	0.542080
H466	H	-0.160507	0.031156	-0.098970
H467	H	0.172826	0.364489	0.234363
H468	H	0.506159	0.697823	0.567697
H469	H	0.477318	0.154924	0.628627
H470	H	0.810652	0.488257	0.961961
H471	H	1.143985	0.821590	1.295294
H472	H	0.571719	-0.316866	0.130242
H473	H	0.905052	0.016467	0.463575
H474	H	1.238385	0.349800	0.796908
H475	H	0.040647	0.061441	-0.130119
H476	H	0.373980	0.394774	0.203214
H477	H	0.707313	0.728108	0.536547
H478	H	0.423779	0.065411	0.083969
H479	H	0.757112	0.398745	0.417302
H480	H	1.090446	0.732078	0.750635
H481	H	0.569301	-0.559561	-0.130134
H482	H	0.902634	-0.226228	0.203200
H483	H	1.235967	0.107105	0.536533
H484	H	0.567833	-0.700025	0.083967
H485	H	0.901167	-0.366691	0.417301
H486	H	1.234500	-0.033358	0.750634
C487	C	0.126045	0.062284	-0.183906
C488	C	0.459379	0.395617	0.149427
C489	C	0.792712	0.728951	0.482761
C490	C	0.093263	0.061962	-0.143311
C491	C	0.426596	0.395295	0.190022
C492	C	0.759930	0.728629	0.523356
H493	H	0.108949	0.062093	-0.215300
H494	H	0.442282	0.395426	0.118033
H495	H	0.775615	0.728759	0.451366
H496	H	0.141799	0.090686	-0.181990
H497	H	0.475132	0.424019	0.151343
H498	H	0.808466	0.757353	0.484677
H499	H	0.149617	0.034286	-0.181962
H500	H	0.482951	0.367619	0.151371
H501	H	0.816284	0.700953	0.484705
H502	H	0.069693	0.089962	-0.145253
H503	H	0.403026	0.423295	0.188081
H504	H	0.736360	0.756629	0.521414
H505	H	0.077502	0.033557	-0.145228
H506	H	0.410835	0.366890	0.188106
H507	H	0.744168	0.700224	0.521439
C508	C	0.571033	-0.382722	0.184017
C509	C	0.904367	-0.049389	0.517350
C510	C	1.237700	0.283945	0.850684
C511	C	0.570712	-0.415501	0.143421
C512	C	0.904045	-0.082168	0.476755
C513	C	1.237378	0.251166	0.810088
H514	H	0.570843	-0.399822	0.215411
H515	H	0.904177	-0.066488	0.548744
H516	H	1.237510	0.266845	0.882078
H517	H	0.599435	-0.366967	0.182099
H518	H	0.932768	-0.033634	0.515432
H519	H	1.266101	0.299699	0.848765
H520	H	0.543035	-0.359151	0.182076
H521	H	0.876368	-0.025818	0.515409
H522	H	1.209701	0.307516	0.848743
H523	H	0.598713	-0.439070	0.145360
H524	H	0.932046	-0.105737	0.478694
H525	H	1.265379	0.227597	0.812027
H526	H	0.542307	-0.431264	0.145341
H527	H	0.875641	-0.097930	0.478674
H528	H	1.208974	0.235403	0.812007
H529	H	0.510423	0.121854	0.125786
H530	H	0.843756	0.455188	0.459120
H531	H	1.177089	0.788521	0.792453
H532	H	0.510460	0.121824	0.874337
H533	H	0.843794	0.455157	1.207671
H534	H	1.177127	0.788490	1.541004
C535	C	0.616070	-0.054520	-0.099861
C536	C	0.949404	0.278813	0.233472
C537	C	1.282737	0.612147	0.566806
C538	C	0.574213	-0.077764	-0.097025
C539	C	0.907546	0.255570	0.236308
C540	C	1.240879	0.588903	0.569641
H541	H	0.616228	-0.037404	-0.131248
H542	H	0.949561	0.295929	0.202086
H543	H	1.282895	0.629263	0.535419
H544	H	0.616298	-0.032305	-0.072307
H545	H	0.949632	0.301028	0.261026
H546	H	1.282965	0.634362	0.594360
H547	H	0.644072	-0.078090	-0.097959
H548	H	0.977406	0.255243	0.235374
H549	H	1.310739	0.588576	0.568707
H550	H	0.546210	-0.054193	-0.098923
H551	H	0.879544	0.279140	0.234410
H552	H	1.212877	0.612474	0.567743
H553	H	0.573980	-0.099981	-0.124587
H554	H	0.907313	0.233353	0.208746
H555	H	1.240647	0.566686	0.542080
C556	C	-0.025205	0.060752	-0.183896
C557	C	0.308128	0.394085	0.149437
C558	C	0.641462	0.727419	0.482771
C559	C	-0.057983	0.060425	-0.143298
C560	C	0.275350	0.393759	0.190036
C561	C	0.608683	0.727092	0.523369
H562	H	-0.042305	0.060564	-0.215289
H563	H	0.291028	0.393897	0.118045
H564	H	0.624362	0.727230	0.451378
H565	H	-0.009452	0.089154	-0.181979
H566	H	0.323881	0.422488	0.151354
H567	H	0.657215	0.755821	0.484688
H568	H	-0.001633	0.032754	-0.181957
H569	H	0.331701	0.366088	0.151376
H570	H	0.665034	0.699421	0.484710
H571	H	-0.081554	0.088425	-0.145235
H572	H	0.251779	0.421758	0.188099
H573	H	0.585113	0.755092	0.521432
H574	H	-0.073744	0.032020	-0.145216
H575	H	0.259589	0.365353	0.188117
H576	H	0.592922	0.698687	0.521451
H577	H	0.573216	-0.176415	-0.083863
H578	H	0.906549	0.156919	0.249470
H579	H	1.239883	0.490252	0.582804
C580	C	0.290399	0.105668	0.099978
C581	C	0.623732	0.439001	0.433311
C582	C	0.957065	0.772334	0.766644
C583	C	0.325144	0.064395	0.097158
C584	C	0.658477	0.397728	0.430491
C585	C	0.991810	0.731061	0.763824
H586	H	0.273295	0.105496	0.131372
H587	H	0.606629	0.438829	0.464705
H588	H	0.939962	0.772162	0.798038
H589	H	0.306161	0.134063	0.098047
H590	H	0.639494	0.467397	0.431380
H591	H	0.972828	0.800730	0.764713
H592	H	0.268171	0.105429	0.072431
H593	H	0.601504	0.438762	0.405764
H594	H	0.934838	0.772096	0.739098
H595	H	0.347374	0.064635	0.124703
H596	H	0.680707	0.397968	0.458036
H597	H	1.014040	0.731302	0.791369
H598	H	0.309381	0.035992	0.099094
H599	H	0.642714	0.369325	0.432427
H600	H	0.976047	0.702658	0.765760
C601	C	0.573446	-0.150850	0.137778
C602	C	0.906780	0.182483	0.471111
C603	C	1.240113	0.515817	0.804444
C604	C	0.573117	-0.183621	0.097176
C605	C	0.906450	0.149712	0.430509
C606	C	1.239783	0.483046	0.763842
H607	H	0.573259	-0.167955	0.169168
H608	H	0.906592	0.165378	0.502502
H609	H	1.239926	0.498711	0.835835
H610	H	0.601849	-0.135097	0.135859
H611	H	0.935182	0.198236	0.469192
H612	H	1.268516	0.531569	0.802526
H613	H	0.545449	-0.127276	0.135844
H614	H	0.878782	0.206057	0.469178
H615	H	1.212116	0.539390	0.802511
H616	H	0.601116	-0.207192	0.099107
H617	H	0.934449	0.126141	0.432440
H618	H	1.267783	0.459474	0.765773
H619	H	0.544711	-0.199381	0.099095
H620	H	0.878044	0.133952	0.432428
H621	H	1.211378	0.467285	0.765762
H622	H	0.191895	0.062979	-0.130130
H623	H	0.525228	0.396312	0.203204
H624	H	0.858562	0.729646	0.536537
H625	H	0.477295	0.154929	0.371489
H626	H	0.810628	0.488262	0.704822
H627	H	1.143961	0.821596	1.038156
C628	C	-0.313137	0.016225	0.100000
C629	C	0.020197	0.349558	0.433333
C630	C	0.353530	0.682891	0.766666
C631	C	-0.289910	0.058094	0.097179
C632	C	0.043424	0.391427	0.430513
C633	C	0.376757	0.724761	0.763846
H634	H	-0.330242	0.016045	0.131392
H635	H	0.003092	0.349379	0.464725
H636	H	0.336425	0.682712	0.798059
H637	H	-0.335359	0.016002	0.072453
H638	H	-0.002026	0.349336	0.405786
H639	H	0.331307	0.682669	0.739120
H640	H	-0.289558	-0.011769	0.098076
H641	H	0.043775	0.321564	0.431409
H642	H	0.377109	0.654897	0.764743
H643	H	-0.313489	0.086088	0.099099
H644	H	0.019844	0.419422	0.432433
H645	H	0.353178	0.752755	0.765766
H646	H	-0.267685	0.058321	0.124734
H647	H	0.065648	0.391654	0.458067
H648	H	0.398982	0.724988	0.791400
H649	H	0.663746	-0.031396	0.468368
H650	H	0.997079	0.301938	0.801702
H651	H	1.330413	0.635271	1.135035
C652	C	0.571528	-0.342459	-0.183904
C653	C	0.904861	-0.009125	0.149429
C654	C	1.238195	0.324208	0.482763
C655	C	0.571860	-0.309682	-0.143307
C656	C	0.905193	0.023651	0.190026
C657	C	1.238527	0.356984	0.523359
H658	H	0.571700	-0.325355	-0.215298
H659	H	0.905034	0.007978	0.118036
H660	H	1.238367	0.341311	0.451369
H661	H	0.599526	-0.366023	-0.181977
H662	H	0.932860	-0.032690	0.151356
H663	H	1.266193	0.300643	0.484690
H664	H	0.543126	-0.358219	-0.181974
H665	H	0.876459	-0.024886	0.151360
H666	H	1.209793	0.308447	0.484693
H667	H	0.600264	-0.293924	-0.145236
H668	H	0.933597	0.039409	0.188098
H669	H	1.266931	0.372743	0.521431
H670	H	0.543859	-0.286109	-0.145236
H671	H	0.877192	0.047225	0.188098
H672	H	1.210526	0.380558	0.521431
C673	C	0.015044	0.061220	0.184022
C674	C	0.348378	0.394554	0.517355
C675	C	0.681711	0.727887	0.850688
C676	C	0.047824	0.061553	0.143426
C677	C	0.381158	0.394886	0.476759
C678	C	0.714491	0.728219	0.810092
H679	H	0.032145	0.061394	0.215416
H680	H	0.365478	0.394728	0.548749
H681	H	0.698811	0.728061	0.882082
H682	H	-0.008521	0.089218	0.182091
H683	H	0.324812	0.422551	0.515425
H684	H	0.658145	0.755884	0.848758
H685	H	-0.000715	0.032818	0.182094
H686	H	0.332618	0.366151	0.515427
H687	H	0.665952	0.699484	0.848761
H688	H	0.063581	0.089957	0.145351
H689	H	0.396914	0.423291	0.478685
H690	H	0.730248	0.756624	0.812018
H691	H	0.071399	0.033552	0.145357
H692	H	0.404732	0.366886	0.478690
H693	H	0.738065	0.700219	0.812024
C694	C	0.569498	-0.533972	0.184005
C695	C	0.902831	-0.200639	0.517338
C696	C	1.236165	0.132695	0.850671
C697	C	0.569173	-0.566747	0.143406
C698	C	0.902506	-0.233414	0.476739
C699	C	1.235839	0.099920	0.810073
H700	H	0.569308	-0.551074	0.215397
H701	H	0.902642	-0.217741	0.548730
H702	H	1.235975	0.115592	0.882064
H703	H	0.597900	-0.518219	0.182087
H704	H	0.931234	-0.184885	0.515420
H705	H	1.264567	0.148448	0.848754
H706	H	0.541500	-0.510399	0.182067
H707	H	0.874833	-0.177066	0.515400
H708	H	1.208167	0.156267	0.848734
H709	H	0.597172	-0.590318	0.145342
H710	H	0.930506	-0.256984	0.478675
H711	H	1.263839	0.076349	0.812008
H712	H	0.540767	-0.582508	0.145325
H713	H	0.874101	-0.249175	0.478658
H714	H	1.207434	0.084159	0.811991
H715	H	0.477301	0.154930	0.468384
H716	H	0.810634	0.488263	0.801717
H717	H	1.143967	0.821596	1.135050
H718	H	0.570850	-0.408313	-0.130131
H719	H	0.904184	-0.074980	0.203202
H720	H	1.237517	0.258353	0.536535
C721	C	-0.216860	0.058853	0.137775
C722	C	0.116473	0.392186	0.471109
C723	C	0.449806	0.725519	0.804442
C724	C	-0.184082	0.059182	0.097177
C725	C	0.149251	0.392515	0.430511
C726	C	0.482584	0.725849	0.763844
H727	H	-0.199758	0.059026	0.169168
H728	H	0.133575	0.392359	0.502501
H729	H	0.466908	0.725692	0.835835
H730	H	-0.240424	0.086852	0.135846
H731	H	0.092909	0.420185	0.469179
H732	H	0.426243	0.753519	0.802512
H733	H	-0.232622	0.030452	0.135849
H734	H	0.100711	0.363785	0.469182
H735	H	0.434044	0.697118	0.802516
H736	H	-0.168323	0.087585	0.099101
H737	H	0.165010	0.420919	0.432435
H738	H	0.498344	0.754252	0.765768
H739	H	-0.160510	0.031180	0.099108
H740	H	0.172824	0.364513	0.432441
H741	H	0.506157	0.697847	0.765774
H742	H	-0.050820	0.060544	0.130242
H743	H	0.282513	0.393878	0.463575
H744	H	0.615847	0.727211	0.796909
C745	C	0.567611	-0.725601	-0.137670
C746	C	0.900945	-0.392268	0.195664
C747	C	1.234278	-0.058934	0.528997
C748	C	0.567939	-0.692826	-0.097071
C749	C	0.901272	-0.359493	0.236262
C750	C	1.234605	-0.026160	0.569596
H751	H	0.567786	-0.708497	-0.169062
H752	H	0.901119	-0.375163	0.164271
H753	H	1.234453	-0.041830	0.497605
H754	H	0.595610	-0.749165	-0.135741
H755	H	0.928943	-0.415832	0.197593
H756	H	1.262277	-0.082499	0.530926
H757	H	0.539210	-0.741363	-0.135743
H758	H	0.872543	-0.408030	0.197590
H759	H	1.205877	-0.074696	0.530924
H760	H	0.596342	-0.677067	-0.098995
H761	H	0.929676	-0.343734	0.234338
H762	H	1.263009	-0.010400	0.567671
H763	H	0.539937	-0.669253	-0.099001
H764	H	0.873271	-0.335920	0.234333
H765	H	1.206604	-0.002587	0.567666
H766	H	0.510425	0.121854	0.222694
H767	H	0.843759	0.455187	0.556027
H768	H	1.177092	0.788520	0.889361
H769	H	0.570191	-0.468116	0.130229
H770	H	0.903524	-0.134783	0.463563
H771	H	1.236858	0.198551	0.796896
C772	C	0.669123	-0.036762	0.195547
C773	C	1.002456	0.296572	0.528880
C774	C	1.335790	0.629905	0.862213
C775	C	0.640054	-0.007714	0.230279
C776	C	0.973388	0.325620	0.563613
C777	C	1.306721	0.658953	0.896946
H778	H	0.691606	-0.059228	0.213663
H779	H	1.024939	0.274106	0.546996
H780	H	1.358272	0.607439	0.880329
H781	H	0.649134	-0.054004	0.174716
H782	H	0.982467	0.279330	0.508049
H783	H	1.315800	0.612663	0.841382
H784	H	0.686350	-0.016753	0.174712
H785	H	1.019684	0.316581	0.508046
H786	H	1.353017	0.649914	0.841379
H787	H	0.622824	-0.027722	0.251111
H788	H	0.956157	0.305611	0.584445
H789	H	1.289491	0.638944	0.917778
H790	H	0.660046	0.009530	0.251119
H791	H	0.993380	0.342863	0.584452
H792	H	1.326713	0.676196	0.917786
C793	C	0.566343	-0.848229	-0.087300
C794	C	0.899676	-0.514895	0.246033
C795	C	1.233010	-0.181562	0.579367
C796	C	0.566853	-0.798657	-0.097073
C797	C	0.900186	-0.465323	0.236260
C798	C	1.233519	-0.131990	0.569594
H799	H	0.566164	-0.865335	-0.118690
H800	H	0.899498	-0.532002	0.214643
H801	H	1.232831	-0.198668	0.547977
H802	H	0.594457	-0.860392	-0.068298
H803	H	0.927790	-0.527058	0.265036
H804	H	1.261123	-0.193725	0.598369
H805	H	0.538056	-0.852578	-0.068291
H806	H	0.871390	-0.519245	0.265043
H807	H	1.204723	-0.185912	0.598376
H808	H	0.595141	-0.794307	-0.116079
H809	H	0.928474	-0.460974	0.217254
H810	H	1.261808	-0.127640	0.550588
H811	H	0.538736	-0.786490	-0.116083
H812	H	0.872069	-0.453157	0.217250
H813	H	1.205403	-0.119823	0.550583
H814	H	0.566906	-0.791475	0.083961
H815	H	0.900239	-0.458142	0.417294
H816	H	1.233573	-0.124808	0.750627
H817	H	0.663744	-0.031389	0.371477
H818	H	0.997077	0.301945	0.704810
H819	H	1.330410	0.635278	1.038144
H820	H	0.630613	0.001735	0.125775
H821	H	0.963947	0.335068	0.459109
H822	H	1.297280	0.668401	0.792442
H823	H	0.332323	0.064450	-0.083882
H824	H	0.665656	0.397784	0.249452
H825	H	0.998990	0.731117	0.582785
H826	H	0.630646	0.001700	0.777425
H827	H	0.963979	0.335034	1.110759
H828	H	1.297312	0.668367	1.444092
H829	H	0.630646	0.001699	0.874334
H830	H	0.963979	0.335032	1.207667
H831	H	1.297312	0.668365	1.541000
C832	C	0.702253	-0.069890	0.558827
C833	C	1.035586	0.263443	0.892160
C834	C	1.368919	0.596777	1.225494
C835	C	0.673185	-0.040835	0.524101
C836	C	1.006518	0.292498	0.857434
C837	C	1.339851	0.625831	1.190767
H838	H	0.724728	-0.092360	0.540706
H839	H	1.058062	0.240973	0.874040
H840	H	1.391395	0.574306	1.207373
H841	H	0.719484	-0.049890	0.579656
H842	H	1.052817	0.283444	0.912990
H843	H	1.386150	0.616777	1.246323
H844	H	0.682258	-0.087132	0.579664
H845	H	1.015592	0.246202	0.912997
H846	H	1.348925	0.579535	1.246330
H847	H	0.693179	-0.023591	0.503266
H848	H	1.026512	0.309743	0.836599
H849	H	1.359845	0.643076	1.169933
H850	H	0.655952	-0.060839	0.503263
H851	H	0.989286	0.272495	0.836596
H852	H	1.322619	0.605828	1.169929
C853	C	0.166278	0.062772	0.184016
C854	C	0.499611	0.396105	0.517349
C855	C	0.832945	0.729439	0.850682
C856	C	0.199058	0.063105	0.143420
C857	C	0.532391	0.396438	0.476753
C858	C	0.865724	0.729772	0.810086
H859	H	0.183378	0.062944	0.215410
H860	H	0.516712	0.396278	0.548743
H861	H	0.850045	0.729611	0.882076
H862	H	0.142713	0.090770	0.182087
H863	H	0.476046	0.424103	0.515420
H864	H	0.809379	0.757437	0.848753
H865	H	0.150518	0.034370	0.182087
H866	H	0.483851	0.367703	0.515420
H867	H	0.817184	0.701036	0.848753
H868	H	0.214815	0.091509	0.145347
H869	H	0.548149	0.424843	0.478680
H870	H	0.881482	0.758176	0.812013
H871	H	0.222631	0.035104	0.145350
H872	H	0.555965	0.368438	0.478683
H873	H	0.889298	0.701771	0.812016
H874	H	0.510447	0.121822	0.777444
H875	H	0.843781	0.455155	1.110777
H876	H	1.177114	0.788489	1.444110
H877	H	0.663749	-0.031401	0.628616
H878	H	0.997082	0.301933	0.961949
H879	H	1.330416	0.635266	1.295283
C880	C	0.438813	0.193417	0.558859
C881	C	0.772146	0.526750	0.892192
C882	C	1.105480	0.860083	1.225525
C883	C	0.467878	0.164364	0.524127
C884	C	0.801212	0.497697	0.857460
C885	C	1.134545	0.831031	1.190794
H886	H	0.416338	0.215890	0.540742
H887	H	0.749671	0.549223	0.874076
H888	H	1.083005	0.882556	1.207409
H889	H	0.421582	0.173415	0.579689
H890	H	0.754915	0.506748	0.913023
H891	H	1.088248	0.840082	1.246356
H892	H	0.458810	0.210655	0.579694
H893	H	0.792143	0.543988	0.913027
H894	H	1.125476	0.877322	1.246360
H895	H	0.447882	0.147123	0.503294
H896	H	0.781215	0.480456	0.836628
H897	H	1.114549	0.813789	1.169961
H898	H	0.485111	0.184368	0.503288
H899	H	0.818444	0.517701	0.836621
H900	H	1.151778	0.851035	1.169954
H901	H	-0.282716	0.058156	-0.083856
H902	H	0.050617	0.391490	0.249477
H903	H	0.383950	0.724823	0.582811
H904	H	0.100428	0.062095	0.130242
H905	H	0.433761	0.395428	0.463575
H906	H	0.767094	0.728762	0.796909
