data_functionalizedCrystal
_audit_creation_method	'MofGen! by Chris Wilmer'
_symmetry_space_group_name_H-M	'P1'
_symmetry_Int_Tables_number	1
_symmetry_cell_setting	triclinic
loop_
_symmetry_equiv_pos_as_xyz
  x,y,z
_cell_length_a	15.944551
_cell_length_b	15.944493
_cell_length_c	15.021413
_cell_angle_alpha	89.992728
_cell_angle_beta	89.988701
_cell_angle_gamma	83.486891
loop_
_atom_site_label
_atom_site_type_symbol
_atom_site_fract_x
_atom_site_fract_y
_atom_site_fract_z
O1	O	1.114489	0.108329	0.073927
O2	O	1.614489	0.608329	0.573927
O3	O	0.869936	0.121686	0.073948
O4	O	1.369936	0.621686	0.573948
O5	O	0.998916	-0.007271	0.073945
O6	O	1.498916	0.492729	0.573945
O7	O	0.985509	0.237285	0.073931
O8	O	1.485509	0.737285	0.573931
O9	O	0.998931	-0.007263	-0.074120
O10	O	1.498931	0.492737	0.425880
O11	O	0.869951	0.121694	-0.074116
O12	O	1.369951	0.621694	0.425884
O13	O	1.114504	0.108337	-0.074137
O14	O	1.614504	0.608337	0.425863
Zn15	Zn	0.992230	0.115017	-0.097635
Zn16	Zn	1.492230	0.615017	0.402365
Zn17	Zn	0.992210	0.115006	0.097446
Zn18	Zn	1.492210	0.615006	0.597446
O19	O	0.985524	0.237293	-0.074133
O20	O	1.485524	0.737293	0.425867
C21	C	0.838650	0.121135	-0.000081
C22	C	1.338650	0.621135	0.499919
C23	C	0.745404	0.119473	-0.000073
C24	C	1.245404	0.619473	0.499927
C25	C	0.530565	0.035566	-0.000085
C26	C	1.030565	0.535566	0.499915
C27	C	0.469529	0.074526	0.072916
C28	C	0.969529	0.574526	0.572916
C29	C	0.574679	0.116465	-0.000083
C30	C	1.074679	0.616465	0.499917
C31	C	0.469566	0.074553	-0.073064
C32	C	0.969566	0.574553	0.426936
C33	C	0.409767	0.113555	-0.000097
C34	C	0.909767	0.613555	0.499903
C35	C	0.514871	0.155447	0.072979
C36	C	1.014871	0.655447	0.572979
C37	C	0.514915	0.155463	-0.073067
C38	C	1.014915	0.655463	0.426933
C39	C	0.453897	0.194481	-0.000048
C40	C	0.953897	0.694481	0.499952
C41	C	0.669681	0.118140	-0.000074
C42	C	1.169681	0.618140	0.499926
C43	C	0.314766	0.111886	-0.000099
C44	C	0.814766	0.611886	0.499901
C45	C	0.998375	-0.038562	-0.000084
C46	C	1.498375	0.461438	0.499916
C47	C	0.996733	-0.131810	-0.000072
C48	C	1.496733	0.368190	0.499928
C49	C	1.072653	-0.367570	-0.000095
C50	C	1.572653	0.132430	0.499905
C51	C	1.031705	-0.418142	0.072911
C52	C	1.531705	0.081858	0.572911
C53	C	0.993689	-0.302531	-0.000083
C54	C	1.493689	0.197469	0.499917
C55	C	1.031701	-0.418110	-0.073069
C56	C	1.531701	0.081890	0.426931
C57	C	0.990754	-0.467441	-0.000097
C58	C	1.490754	0.032559	0.499903
C59	C	0.952761	-0.351875	0.072984
C60	C	1.452761	0.148125	0.572984
C61	C	0.952769	-0.351840	-0.073061
C62	C	1.452769	0.148160	0.426939
C63	C	0.911763	-0.402379	-0.000037
C64	C	1.411763	0.097621	0.499963
C65	C	0.995381	-0.207531	-0.000074
C66	C	1.495381	0.292469	0.499926
C67	C	0.989055	-0.562438	-0.000100
C68	C	1.489055	-0.062438	0.499900
C69	C	1.145790	0.108888	-0.000106
C70	C	1.645790	0.608888	0.499894
C71	C	1.239036	0.110550	-0.000108
C72	C	1.739036	0.610550	0.499892
C73	C	0.986064	0.268584	-0.000103
C74	C	1.486064	0.768584	0.499897
C75	C	0.987707	0.361833	-0.000109
C76	C	1.487707	0.861833	0.499891
N77	N	0.992249	0.115023	-0.230772
N78	N	1.492249	0.615023	0.269228
C79	C	1.051901	0.055380	-0.470433
C80	C	1.551901	0.555380	0.029567
C81	C	0.976005	0.039062	-0.529755
C82	C	1.476005	0.539062	-0.029755
C83	C	0.992230	0.115013	-0.412379
C84	C	1.492230	0.615013	0.087621
C85	C	1.068108	0.131281	-0.529800
C86	C	1.568108	0.631281	-0.029800
C87	C	0.992218	0.115001	-0.587803
C88	C	1.492218	0.615001	-0.087803
C89	C	0.916295	0.098657	-0.470394
C90	C	1.416295	0.598657	0.029606
C91	C	1.008448	0.190909	-0.470434
C92	C	1.508448	0.690909	0.029566
C93	C	0.932497	0.174623	-0.529728
C94	C	1.432497	0.674623	-0.029728
C95	C	0.992238	0.115018	-0.311322
C96	C	1.492238	0.615018	0.188678
C97	C	0.992201	0.114996	-0.688859
C98	C	1.492201	0.614996	-0.188859
N99	N	0.992197	0.114993	0.230584
N100	N	1.492197	0.614993	0.730584
H101	H	0.563912	-0.031574	0.000009
H102	H	1.063912	0.468426	0.500009
C103	C	0.541844	0.201627	0.156449
C104	C	1.041844	0.701627	0.656449
H105	H	0.493445	0.219871	0.191262
H106	H	0.993445	0.719871	0.691262
H107	H	0.579884	0.164341	0.190577
H108	H	1.079884	0.664341	0.690577
H109	H	0.568834	0.249172	0.138997
H110	H	1.068834	0.749172	0.638997
H111	H	0.852107	0.084819	-0.444410
H112	H	1.352107	0.584819	0.055590
H113	H	1.132281	0.145047	-0.555894
H114	H	1.632281	0.645047	-0.055894
C115	C	0.442354	0.028299	0.156291
C116	C	0.942354	0.528299	0.656291
H117	H	0.468866	-0.028153	0.156207
H118	H	0.968866	0.471847	0.656207
H119	H	0.458623	0.056490	0.208132
H120	H	0.958623	0.556490	0.708132
H121	H	0.382805	0.028026	0.155957
H122	H	0.882805	0.528026	0.655957
C123	C	1.027021	0.277592	-0.435195
C124	C	1.527021	0.777592	0.064805
H125	H	0.980698	0.301760	-0.400399
H126	H	1.480698	0.801760	0.099601
H127	H	1.076508	0.270782	-0.399514
H128	H	1.576508	0.770782	0.100486
H129	H	1.035309	0.313720	-0.483938
H130	H	1.535309	0.813720	0.016062
H131	H	0.881974	0.225051	-0.555599
H132	H	1.381974	0.725051	-0.055599
H133	H	0.420724	0.261690	-0.000011
H134	H	0.920724	0.761690	0.499989
C135	C	0.907744	-0.312956	0.156463
C136	C	1.407744	0.187044	0.656463
H137	H	0.909108	-0.253544	0.155975
H138	H	1.409108	0.246456	0.655975
H139	H	0.850771	-0.325072	0.156683
H140	H	1.350771	0.174928	0.656683
H141	H	0.935599	-0.336232	0.208236
H142	H	1.435599	0.163768	0.708236
H143	H	0.535045	0.189655	-0.134791
H144	H	1.035045	0.689655	0.365209
H145	H	1.102311	0.004923	-0.444397
H146	H	1.602311	0.504923	0.055603
H147	H	0.449494	0.040324	-0.134778
H148	H	0.949494	0.540324	0.365222
C149	C	0.957460	-0.047646	-0.564966
C150	C	1.457460	0.452354	-0.064966
H151	H	0.999912	-0.089951	-0.544670
H152	H	1.499912	0.410049	-0.044670
H153	H	0.903964	-0.059619	-0.543753
H154	H	1.403964	0.440381	-0.043753
H155	H	0.957084	-0.046863	-0.628203
H156	H	1.457084	0.453137	-0.128203
H157	H	1.065046	-0.447091	0.134628
H158	H	1.565046	0.052909	0.634628
C159	C	1.164534	-0.346449	-0.000012
C160	C	1.664534	0.153551	0.499988
H161	H	1.174391	-0.314942	-0.051909
H162	H	1.674391	0.185058	0.448091
H163	H	1.174004	-0.314091	0.051362
H164	H	1.674004	0.185909	0.551362
H165	H	1.201892	-0.397292	0.000547
H166	H	1.701892	0.102708	0.500547
C167	C	0.819810	-0.423281	0.000022
C168	C	1.319810	0.076719	0.500022
H169	H	0.791888	-0.400381	0.051930
H170	H	1.291888	0.099619	0.551930
H171	H	0.791574	-0.399573	-0.051342
H172	H	1.291574	0.100427	0.448658
H173	H	0.819245	-0.482795	-0.000464
H174	H	1.319245	0.017205	0.499536
C175	C	0.907771	-0.312703	-0.156436
C176	C	1.407771	0.187297	0.343564
H177	H	0.935926	-0.335494	-0.208262
H178	H	1.435926	0.164506	0.291738
H179	H	0.850929	-0.325223	-0.156958
H180	H	1.350929	0.174777	0.343042
H181	H	0.908717	-0.253242	-0.155537
H182	H	1.408717	0.246758	0.344463
C183	C	1.076774	-0.457180	-0.156449
C184	C	1.576774	0.042820	0.343551
H185	H	1.133897	-0.445517	-0.156357
H186	H	1.633897	0.054483	0.343643
H187	H	1.074944	-0.516521	-0.156143
H188	H	1.574944	-0.016521	0.343857
H189	H	1.049296	-0.433587	-0.208288
H190	H	1.549296	0.066413	0.291712
