data_functionalizedCrystal
_audit_creation_method	'MofGen! by Chris Wilmer'
_symmetry_space_group_name_H-M	'P1'
_symmetry_Int_Tables_number	1
_symmetry_cell_setting	triclinic
loop_
_symmetry_equiv_pos_as_xyz
  x,y,z
_cell_length_a	11.169417
_cell_length_b	12.594516
_cell_length_c	11.169409
_cell_angle_alpha	89.968704
_cell_angle_beta	89.979436
_cell_angle_gamma	90.016931
loop_
_atom_site_label
_atom_site_type_symbol
_atom_site_fract_x
_atom_site_fract_y
_atom_site_fract_z
Zn1	Zn	1.834923	-0.423632	-0.678551
Zn2	Zn	2.334923	0.076368	-0.178551
Zn3	Zn	1.834790	-0.601658	-0.477871
Zn4	Zn	2.334790	-0.101658	0.022129
Zn5	Zn	1.634207	-0.423696	-0.477885
Zn6	Zn	2.134207	0.076304	0.022115
Zn7	Zn	1.634197	-0.601571	-0.678516
Zn8	Zn	2.134197	-0.101571	-0.178516
O9	O	1.734529	-0.512639	-0.578206
O10	O	2.234529	-0.012639	-0.078206
O11	O	2.002855	-0.447256	-0.651939
O12	O	2.502855	0.052744	-0.151939
O13	O	1.808131	-0.578114	-0.309923
O14	O	2.308131	-0.078114	0.190077
O15	O	1.660892	-0.274742	-0.504524
O16	O	2.160892	0.225258	-0.004524
O17	O	2.002758	-0.578051	-0.504501
O18	O	2.502758	-0.078051	-0.004501
O19	O	1.808358	-0.274694	-0.651953
O20	O	2.308358	0.225306	-0.151953
O21	O	1.660763	-0.447366	-0.309934
O22	O	2.160763	0.052634	0.190066
O23	O	1.466256	-0.447283	-0.504491
O24	O	1.966256	0.052717	-0.004491
O25	O	1.660875	-0.577904	-0.846471
O26	O	2.160875	-0.077904	-0.346471
O27	O	1.466248	-0.577967	-0.651893
O28	O	1.966248	-0.077967	-0.151893
O29	O	1.808348	-0.447172	-0.846496
O30	O	2.308348	0.052828	-0.346496
O31	O	1.808121	-0.750592	-0.504467
O32	O	2.308121	-0.250592	-0.004467
O33	O	1.660746	-0.750528	-0.651880
O34	O	2.160746	-0.250528	-0.151880
C35	C	1.422705	-0.512623	-0.578190
C36	C	1.922705	-0.012623	-0.078190
C37	C	1.289305	-0.512642	-0.578212
C38	C	1.789305	-0.012642	-0.078212
C39	C	1.734451	-0.789180	-0.578194
C40	C	2.234451	-0.289180	-0.078194
C41	C	1.734527	-0.907486	-0.578229
C42	C	2.234527	-0.407486	-0.078229
C43	C	1.654362	-0.976743	-0.658351
C44	C	2.154362	-0.476743	-0.158351
C45	C	1.625114	-1.047617	-0.548838
C46	C	2.125114	-0.547617	-0.048838
C47	C	1.763884	-1.047410	-0.687761
C48	C	2.263884	-0.547410	-0.187761
C49	C	1.705221	-0.976802	-0.468658
C50	C	2.205221	-0.476802	0.031342
C51	C	1.844042	-0.976588	-0.607656
C52	C	2.344042	-0.476588	-0.107656
C53	C	1.814836	-1.047431	-0.498067
C54	C	2.314836	-0.547431	0.001933
C55	C	2.047572	-0.512656	-0.578222
C56	C	2.547572	-0.012656	-0.078222
C57	C	2.180972	-0.512663	-0.578229
C58	C	2.680972	-0.012663	-0.078229
C59	C	1.734625	-0.512521	-0.891249
C60	C	2.234625	-0.012521	-0.391249
C61	C	1.734666	-0.512471	-1.024649
C62	C	2.234666	-0.012471	-0.524649
C63	C	1.734641	-0.235018	-0.578244
C64	C	2.234641	0.264982	-0.078244
C65	C	1.734689	-0.116713	-0.578260
C66	C	2.234689	0.383287	-0.078260
C67	C	1.734503	-0.512680	-0.266381
C68	C	2.234503	-0.012680	0.233619
C69	C	1.734694	-0.512430	-0.132982
C70	C	2.234694	-0.012430	0.367018
H71	H	1.586447	-0.945704	-0.726008
H72	H	2.086447	-0.445704	-0.226008
C73	C	1.905302	-1.088779	-0.407744
C74	C	2.405302	-0.588779	0.092256
C75	C	1.905125	-1.199937	-0.409430
C76	C	2.405125	-0.699937	0.090570
C77	C	1.988449	-1.238067	-0.326249
C78	C	2.488449	-0.738067	0.173751
H79	H	1.884415	-1.064586	-0.329959
H80	H	2.384415	-0.564586	0.170041
H81	H	1.982844	-1.063445	-0.427977
H82	H	2.482844	-0.563445	0.072023
H83	H	1.827601	-1.225261	-0.389190
H84	H	2.327601	-0.725261	0.110810
H85	H	1.926025	-1.224158	-0.487196
H86	H	2.426025	-0.724158	0.012804
H87	H	2.065991	-1.212733	-0.346482
H88	H	2.565991	-0.712733	0.153518
H89	H	1.967555	-1.213867	-0.248470
H90	H	2.467555	-0.713867	0.251530
H91	H	1.988348	-1.313491	-0.327390
H92	H	2.488348	-0.813491	0.172610
C93	C	1.967338	-0.934743	-0.640788
C94	C	2.467338	-0.434743	-0.140788
C95	C	1.965861	-0.823592	-0.639222
C96	C	2.465861	-0.323592	-0.139222
C97	C	2.079424	-0.785006	-0.669734
C98	C	2.579424	-0.285006	-0.169734
H99	H	1.988150	-0.958759	-0.718663
H100	H	2.488150	-0.458759	-0.218663
H101	H	2.024566	-0.959941	-0.584652
H102	H	2.524566	-0.459941	-0.084652
H103	H	1.908651	-0.798404	-0.695355
H104	H	2.408651	-0.298404	-0.195355
H105	H	1.945071	-0.799548	-0.561357
H106	H	2.445071	-0.299548	-0.061357
H107	H	2.136652	-0.810203	-0.613598
H108	H	2.636652	-0.310203	-0.113598
H109	H	2.100226	-0.809029	-0.747608
H110	H	2.600226	-0.309029	-0.247608
H111	H	2.078440	-0.709587	-0.668665
H112	H	2.578440	-0.209587	-0.168665
C113	C	1.501731	-1.089371	-0.515850
C114	C	2.001731	-0.589371	-0.015850
C115	C	1.457704	-1.152060	-0.609499
C116	C	1.957704	-0.652060	-0.109499
C117	C	1.344053	-1.190547	-0.579157
C118	C	1.844053	-0.690547	-0.079157
H119	H	1.449034	-1.031384	-0.502519
H120	H	1.949034	-0.531384	-0.002519
H121	H	1.507206	-1.130962	-0.445077
H122	H	2.007206	-0.630962	0.054923
H123	H	1.452222	-1.110471	-0.680252
H124	H	1.952222	-0.610471	-0.180252
H125	H	1.510369	-1.210062	-0.622843
H126	H	2.010369	-0.710062	-0.122843
H127	H	1.349528	-1.232138	-0.508383
H128	H	1.849528	-0.732138	-0.008383
H129	H	1.291366	-1.132554	-0.565825
H130	H	1.791366	-0.632554	-0.065825
H131	H	1.314171	-1.233094	-0.642687
H132	H	1.814171	-0.733094	-0.142687
H133	H	1.788649	-1.078426	-0.780379
H134	H	2.288649	-0.578426	-0.280379
H135	H	1.680349	-0.945914	-0.376015
H136	H	2.180349	-0.445914	0.123985
