data_functionalizedCrystal
_audit_creation_method	'MofGen! by Chris Wilmer'
_symmetry_space_group_name_H-M	'P1'
_symmetry_Int_Tables_number	1
_symmetry_cell_setting	triclinic
loop_
_symmetry_equiv_pos_as_xyz
  x,y,z
_cell_length_a	17.699097
_cell_length_b	17.019294
_cell_length_c	16.776229
_cell_angle_alpha	86.114377
_cell_angle_beta	89.989262
_cell_angle_gamma	83.341215
loop_
_atom_site_label
_atom_site_type_symbol
_atom_site_fract_x
_atom_site_fract_y
_atom_site_fract_z
O1	O	1.004141	0.099807	-0.073204
O2	O	0.783773	0.112774	-0.074081
O3	O	0.900104	-0.008554	-0.065756
O4	O	0.887810	0.221135	-0.081529
O5	O	0.900089	-0.008561	0.066821
O6	O	0.783757	0.112767	0.058496
O7	O	1.004125	0.099799	0.059373
Zn8	Zn	0.893939	0.106282	0.079984
Zn9	Zn	0.893959	0.106292	-0.094692
O10	O	0.887794	0.221128	0.051048
C11	C	0.755568	0.112304	-0.007759
C12	C	0.671549	0.110905	-0.007658
C13	C	0.899630	-0.037946	0.002549
C14	C	0.898231	-0.125514	0.008558
C15	C	0.155834	0.102332	-0.079369
C16	C	0.234779	0.103641	-0.079455
C17	C	0.274237	0.104293	-0.007229
C18	C	0.234747	0.103628	0.065088
C19	C	0.155804	0.102313	0.065174
C20	C	0.553114	0.108930	0.064745
C21	C	0.632062	0.110247	0.064654
C22	C	0.632089	0.110259	-0.079883
C23	C	0.553146	0.108944	-0.079798
C24	C	0.513664	0.108274	-0.007481
C25	C	0.428063	0.106853	-0.007388
C26	C	0.359835	0.105720	-0.007321
C27	C	0.897584	-0.166645	-0.060886
C28	C	0.896265	-0.248924	-0.055238
C29	C	0.895598	-0.290071	0.019855
C30	C	0.896243	-0.248934	0.089305
C31	C	0.897557	-0.166656	0.083656
C32	C	0.891626	-0.538497	0.040527
C33	C	0.890314	-0.620781	0.046171
C34	C	0.890335	-0.620766	-0.098372
C35	C	0.891653	-0.538487	-0.104015
C36	C	0.892294	-0.497356	-0.034565
C37	C	0.894252	-0.374173	0.025631
C38	C	0.893634	-0.413254	-0.040341
C39	C	1.032330	0.100270	-0.006951
C40	C	1.116349	0.101669	-0.007057
C41	C	0.888268	0.250520	-0.017259
C42	C	0.889667	0.338088	-0.023273
N43	N	0.893931	0.106275	0.199196
N44	N	0.893974	0.106293	-0.213903
C45	C	0.945458	0.052573	0.244598
C46	C	0.945462	0.052572	0.328050
C47	C	0.893942	0.106278	0.366098
C48	C	0.842409	0.159983	0.320690
C49	C	0.842402	0.159979	0.237240
C50	C	0.842437	0.159998	0.657236
C51	C	0.842449	0.159999	0.740693
C52	C	0.945497	0.052591	0.748046
C53	C	0.945489	0.052587	0.664596
C54	C	0.893954	0.106289	0.619195
C55	C	0.893949	0.106288	0.528707
C56	C	0.893950	0.106283	0.456585
H57	H	0.266924	0.104176	-0.138338
H58	H	0.889767	-0.654280	0.107324
O59	O	0.894349	-0.368881	-0.121335
H60	H	0.946511	-0.338524	-0.126877
O61	O	0.510589	0.108189	0.142774
H62	H	0.532593	0.054689	0.181065
O63	O	0.674673	0.110974	-0.157887
H64	H	0.666320	0.056984	-0.188838
H65	H	0.892197	-0.504990	-0.165164
O66	O	0.786847	0.217914	0.361729
H67	H	0.751013	0.255253	0.316135
O68	O	0.892321	-0.494138	0.115429
H69	H	0.944476	-0.463771	0.116794
H70	H	0.123712	0.101807	-0.138184
H71	H	0.123655	0.101781	0.124057
O72	O	0.898297	-0.122265	-0.141881
H73	H	0.897616	-0.164691	-0.189220
O74	O	0.510589	0.108214	-0.157696
H75	H	0.551311	0.108878	-0.207993
H76	H	0.889812	-0.654263	-0.154914
H77	H	0.800477	0.203725	0.620278
H78	H	0.987419	0.008843	0.365016
O79	O	0.786831	0.217904	0.188264
H80	H	0.751012	0.255255	0.228739
H81	H	0.664187	0.110778	0.123473
H82	H	0.987457	0.008862	0.785021
O83	O	0.277298	0.104336	0.142993
H84	H	0.338825	0.105372	0.130786
H85	H	0.895695	-0.282441	0.150447
H86	H	0.895741	-0.282410	-0.111787
H87	H	0.898073	-0.133166	0.140205
H88	H	0.893712	-0.407685	0.086772
O89	O	1.001023	-0.005356	0.203560
H90	H	1.036847	-0.042705	0.249155
O91	O	1.001052	-0.005342	0.623556
H92	H	1.036878	-0.042692	0.669148
H93	H	0.800493	0.203735	0.771670
