data_functionalizedCrystal
_audit_creation_method	'MofGen! by Chris Wilmer'
_symmetry_space_group_name_H-M	'P1'
_symmetry_Int_Tables_number	1
_symmetry_cell_setting	triclinic
loop_
_symmetry_equiv_pos_as_xyz
  x,y,z
_cell_length_a	27.732048
_cell_length_b	27.732064
_cell_length_c	16.176319
_cell_angle_alpha	89.997275
_cell_angle_beta	89.998071
_cell_angle_gamma	82.646039
loop_
_atom_site_label
_atom_site_type_symbol
_atom_site_fract_x
_atom_site_fract_y
_atom_site_fract_z
O1	O	0.640932	0.057518	-0.068633
O2	O	0.974266	0.390851	0.264700
O3	O	1.307599	0.724184	0.598033
O4	O	0.500140	0.066263	-0.068657
O5	O	0.833473	0.399596	0.264676
O6	O	1.166806	0.732930	0.598009
O7	O	0.574905	-0.008506	-0.068648
O8	O	0.908238	0.324828	0.264686
O9	O	1.241571	0.658161	0.598019
O10	O	0.566167	0.132287	-0.068643
O11	O	0.899501	0.465620	0.264691
O12	O	1.232834	0.798953	0.598024
O13	O	0.574894	-0.008510	0.068845
O14	O	0.908228	0.324823	0.402179
O15	O	1.241561	0.658156	0.735512
O16	O	0.500129	0.066258	0.068836
O17	O	0.833463	0.399592	0.402169
O18	O	1.166796	0.732925	0.735503
O19	O	0.640922	0.057513	0.068860
O20	O	0.974256	0.390846	0.402193
O21	O	1.307589	0.724180	0.735527
Cu22	Cu	0.570525	0.061885	0.081402
Cu23	Cu	0.903858	0.395219	0.414736
Cu24	Cu	1.237192	0.728552	0.748069
Cu25	Cu	0.570537	0.061891	-0.081199
Cu26	Cu	0.903870	0.395224	0.252134
Cu27	Cu	1.237204	0.728558	0.585467
O28	O	0.566157	0.132282	0.068850
O29	O	0.899491	0.465615	0.402184
O30	O	1.232824	0.798949	0.735517
C31	C	0.482127	0.066077	0.000086
C32	C	0.815461	0.399411	0.333420
C33	C	1.148794	0.732744	0.666753
C34	C	0.428473	0.065524	0.000077
C35	C	0.761806	0.398858	0.333410
C36	C	1.095139	0.732191	0.666743
C37	C	0.574715	-0.026515	0.000096
C38	C	0.908048	0.306818	0.333430
C39	C	1.241381	0.640152	0.666763
C40	C	0.574159	-0.080169	0.000088
C41	C	0.907492	0.253164	0.333422
C42	C	1.240825	0.586497	0.666755
C43	C	0.526192	-0.457242	0.000077
C44	C	0.859525	-0.123909	0.333410
C45	C	1.192858	0.209425	0.666744
C46	C	0.528238	-0.255582	0.000076
C47	C	0.861571	0.077752	0.333410
C48	C	1.194905	0.411085	0.666743
O49	O	0.491017	-0.224329	0.000037
O50	O	0.824350	0.109004	0.333370
O51	O	1.157684	0.442338	0.666704
N52	N	0.572572	-0.236454	0.000084
N53	N	0.905906	0.096879	0.333417
N54	N	1.239239	0.430212	0.666750
C55	C	0.616398	-0.267745	0.000086
C56	C	0.949731	0.065588	0.333419
C57	C	1.283065	0.398921	0.666753
O58	O	0.654154	-0.246849	0.000084
O59	O	0.987487	0.086484	0.333417
O60	O	1.320821	0.419818	0.666750
C61	C	0.614351	-0.469405	0.000081
C62	C	0.947685	-0.136071	0.333414
C63	C	1.281018	0.197262	0.666747
C64	C	0.570014	-0.488529	0.000082
C65	C	0.903347	-0.155196	0.333415
C66	C	1.236681	0.178138	0.666748
C67	C	0.481858	-0.476367	0.000077
C68	C	0.815191	-0.143034	0.333410
C69	C	1.148525	0.190300	0.666744
C70	C	0.481347	-0.526779	0.000082
C71	C	0.814680	-0.193446	0.333415
C72	C	1.148014	0.139888	0.666748
C73	C	0.525169	-0.558066	0.000086
C74	C	0.858503	-0.224733	0.333420
C75	C	1.191836	0.108600	0.666753
C76	C	0.569503	-0.538941	0.000086
C77	C	0.902836	-0.205608	0.333420
C78	C	1.236170	0.127725	0.666753
C79	C	0.658177	-0.500695	0.000077
C80	C	0.991510	-0.167361	0.333410
C81	C	1.324843	0.165972	0.666744
C82	C	0.657661	-0.551112	0.000074
C83	C	0.990994	-0.217779	0.333407
C84	C	1.324328	0.115554	0.666740
C85	C	0.613324	-0.570237	0.000075
C86	C	0.946657	-0.236903	0.333408
C87	C	1.279991	0.096430	0.666741
C88	C	0.612814	-0.620640	0.000096
C89	C	0.946148	-0.287307	0.333429
C90	C	1.279481	0.046026	0.666762
N91	N	0.568480	-0.639768	0.000088
N92	N	0.901813	-0.306435	0.333422
N93	N	1.235147	0.026899	0.666755
C94	C	0.524658	-0.608481	0.000084
C95	C	0.857991	-0.275147	0.333417
C96	C	1.191324	0.058186	0.666750
C97	C	0.617469	-0.161871	0.000090
C98	C	0.950803	0.171462	0.333424
C99	C	1.284136	0.504796	0.666757
C100	C	0.617981	-0.111456	0.000093
C101	C	0.951315	0.221877	0.333426
C102	C	1.284648	0.555210	0.666760
C103	C	0.529821	-0.099296	0.000082
C104	C	0.863154	0.234037	0.333415
C105	C	1.196488	0.567370	0.666749
C106	C	0.529310	-0.149712	0.000085
C107	C	0.862643	0.183622	0.333418
C108	C	1.195976	0.516955	0.666752
C109	C	0.573135	-0.180998	0.000083
C110	C	0.906469	0.152335	0.333416
C111	C	1.239802	0.485668	0.666750
C112	C	0.523588	-0.714350	0.000094
C113	C	0.856921	-0.381017	0.333428
C114	C	1.190254	-0.047684	0.666761
C115	C	0.523080	-0.764767	0.000102
C116	C	0.856414	-0.431434	0.333436
C117	C	1.189747	-0.098101	0.666769
C118	C	0.611241	-0.776923	0.000109
C119	C	0.944574	-0.443590	0.333443
C120	C	1.277907	-0.110257	0.666776
C121	C	0.611748	-0.726511	0.000105
C122	C	0.945081	-0.393177	0.333439
C123	C	1.278415	-0.059844	0.666772
C124	C	0.567918	-0.695225	0.000095
C125	C	0.901251	-0.361891	0.333428
C126	C	1.234584	-0.028558	0.666762
O127	O	0.650016	-0.651921	0.000126
O128	O	0.983349	-0.318588	0.333459
O129	O	1.316682	0.014745	0.666792
O130	O	0.486907	-0.629387	0.000068
O131	O	0.820241	-0.296053	0.333401
O132	O	1.153574	0.037280	0.666734
C133	C	0.526703	-0.406830	0.000072
C134	C	0.860036	-0.073497	0.333406
C135	C	1.193369	0.259837	0.666739
C136	C	0.571036	-0.387705	0.000072
C137	C	0.904370	-0.054372	0.333406
C138	C	1.237703	0.278962	0.666739
C139	C	0.614859	-0.418992	0.000077
C140	C	0.948192	-0.085659	0.333410
C141	C	1.281525	0.247675	0.666744
C142	C	0.571548	-0.337290	0.000075
C143	C	0.904881	-0.003957	0.333408
C144	C	1.238215	0.329376	0.666742
C145	C	0.527726	-0.306003	0.000070
C146	C	0.861059	0.027330	0.333404
C147	C	1.194392	0.360663	0.666737
C148	C	0.483391	-0.325131	0.000063
C149	C	0.816725	0.008203	0.333396
C150	C	1.150058	0.341536	0.666730
C151	C	0.482880	-0.375543	0.000068
C152	C	0.816214	-0.042209	0.333401
C153	C	1.149547	0.291124	0.666734
C154	C	0.659193	-0.399865	0.000084
C155	C	0.992526	-0.066531	0.333418
C156	C	1.325860	0.266802	0.666751
C157	C	0.659701	-0.349452	0.000081
C158	C	0.993034	-0.016119	0.333414
C159	C	1.326367	0.317215	0.666747
C160	C	0.615878	-0.318165	0.000076
C161	C	0.949211	0.015169	0.333409
C162	C	1.282545	0.348502	0.666743
C163	C	0.089660	0.106228	0.000114
C164	C	0.422993	0.439561	0.333447
C165	C	0.756327	0.772895	0.666781
C166	C	-0.112000	0.104177	0.000121
C167	C	0.221334	0.437510	0.333455
C168	C	0.554667	0.770844	0.666788
O169	O	-0.143253	0.141397	0.000158
O170	O	0.190080	0.474731	0.333492
O171	O	0.523413	0.808064	0.666825
N172	N	-0.131126	0.059842	0.000118
N173	N	0.202207	0.393175	0.333452
N174	N	0.535540	0.726509	0.666785
C175	C	-0.099834	0.016017	0.000119
C176	C	0.233499	0.349350	0.333452
C177	C	0.566833	0.682683	0.666786
O178	O	-0.120730	-0.021740	0.000125
O179	O	0.212604	0.311594	0.333458
O180	O	0.545937	0.644927	0.666792
C181	C	0.101825	0.018068	0.000117
C182	C	0.435158	0.351402	0.333451
C183	C	0.768491	0.684735	0.666784
C184	C	0.120948	0.062406	0.000112
C185	C	0.454281	0.395739	0.333445
C186	C	0.787615	0.729073	0.666779
C187	C	0.108784	0.150562	0.000110
C188	C	0.442117	0.483895	0.333443
C189	C	0.775451	0.817229	0.666776
C190	C	0.159196	0.151074	0.000103
C191	C	0.492529	0.484408	0.333437
C192	C	0.825862	0.817741	0.666770
C193	C	0.190484	0.107252	0.000101
C194	C	0.523817	0.440586	0.333435
C195	C	0.857151	0.773919	0.666768
C196	C	0.171360	0.062918	0.000106
C197	C	0.504693	0.396252	0.333439
C198	C	0.838027	0.729585	0.666772
C199	C	0.133116	-0.025756	0.000124
C200	C	0.466449	0.307577	0.333457
C201	C	0.799782	0.640910	0.666791
C202	C	0.183533	-0.025240	0.000126
C203	C	0.516866	0.308094	0.333459
C204	C	0.850200	0.641427	0.666792
C205	C	0.202656	0.019098	0.000120
C206	C	0.535990	0.352431	0.333454
C207	C	0.869323	0.685765	0.666787
C208	C	0.253060	0.019609	0.000098
C209	C	0.586393	0.352942	0.333431
C210	C	0.919727	0.686275	0.666764
N211	N	0.272186	0.063944	0.000101
N212	N	0.605520	0.397277	0.333434
N213	N	0.938853	0.730610	0.666767
C214	C	0.240898	0.107765	0.000102
C215	C	0.574232	0.441099	0.333436
C216	C	0.907565	0.774432	0.666769
C217	C	-0.205708	0.014943	0.000118
C218	C	0.127625	0.348276	0.333451
C219	C	0.460958	0.681610	0.666785
C220	C	-0.256123	0.014430	0.000117
C221	C	0.077211	0.347763	0.333450
C222	C	0.410544	0.681097	0.666783
C223	C	-0.268285	0.102590	0.000121
C224	C	0.065048	0.435923	0.333454
C225	C	0.398382	0.769257	0.666787
C226	C	-0.217870	0.103103	0.000116
C227	C	0.115464	0.436436	0.333449
C228	C	0.448797	0.769769	0.666783
C229	C	-0.186582	0.059278	0.000121
C230	C	0.146751	0.392611	0.333454
C231	C	0.480085	0.725944	0.666788
C232	C	0.346768	0.108838	0.000088
C233	C	0.680101	0.442171	0.333422
C234	C	1.013434	0.775505	0.666755
C235	C	0.397185	0.109346	0.000079
C236	C	0.730518	0.442680	0.333412
C237	C	1.063851	0.776013	0.666745
C238	C	0.409342	0.021186	0.000079
C239	C	0.742676	0.354520	0.333412
C240	C	1.076009	0.687853	0.666746
C241	C	0.358930	0.020678	0.000084
C242	C	0.692263	0.354011	0.333418
C243	C	1.025596	0.687344	0.666751
C244	C	0.327643	0.064507	0.000092
C245	C	0.660976	0.397841	0.333425
C246	C	0.994310	0.731174	0.666759
O247	O	0.284342	-0.017592	0.000070
O248	O	0.617675	0.315742	0.333403
O249	O	0.951008	0.649075	0.666736
O250	O	0.261803	0.145516	0.000115
O251	O	0.595136	0.478850	0.333448
O252	O	0.928470	0.812183	0.666781
C253	C	0.039248	0.105716	0.000120
C254	C	0.372581	0.439049	0.333454
C255	C	0.705915	0.772382	0.666787
C256	C	0.020124	0.061381	0.000125
C257	C	0.353457	0.394715	0.333458
C258	C	0.686791	0.728048	0.666791
C259	C	0.051412	0.017560	0.000123
C260	C	0.384745	0.350893	0.333456
C261	C	0.718079	0.684226	0.666790
C262	C	-0.030290	0.060868	0.000124
C263	C	0.303043	0.394202	0.333457
C264	C	0.636376	0.727535	0.666790
C265	C	-0.061578	0.104690	0.000126
C266	C	0.271755	0.438024	0.333459
C267	C	0.605088	0.771357	0.666792
C268	C	-0.042452	0.149025	0.000129
C269	C	0.290881	0.482359	0.333462
C270	C	0.624215	0.815692	0.666795
C271	C	0.007960	0.149537	0.000122
C272	C	0.341293	0.482871	0.333456
C273	C	0.674627	0.816204	0.666789
C274	C	0.032286	-0.026775	0.000120
C275	C	0.365619	0.306558	0.333453
C276	C	0.698952	0.639891	0.666786
C277	C	-0.018127	-0.027284	0.000125
C278	C	0.315207	0.306049	0.333459
C279	C	0.648540	0.639383	0.666792
C280	C	-0.049415	0.016538	0.000127
C281	C	0.283918	0.349871	0.333460
C282	C	0.617252	0.683205	0.666794
C283	C	0.658934	0.057699	0.000115
C284	C	0.992268	0.391032	0.333448
C285	C	1.325601	0.724366	0.666781
C286	C	0.712589	0.058252	0.000119
C287	C	1.045923	0.391585	0.333452
C288	C	1.379256	0.724918	0.666785
C289	C	0.566347	0.150291	0.000105
C290	C	0.899680	0.483624	0.333438
C291	C	1.233014	0.816958	0.666771
C292	C	0.566903	0.203945	0.000107
C293	C	0.900236	0.537279	0.333440
C294	C	1.233570	0.870612	0.666774
N295	N	0.570520	0.061881	0.195767
N296	N	0.903853	0.395214	0.529101
N297	N	1.237187	0.728548	0.862434
N298	N	0.570546	0.061891	-0.195565
N299	N	0.903879	0.395225	0.137769
N300	N	1.237212	0.728558	0.471102
C301	C	0.603636	0.028787	0.239036
C302	C	0.936969	0.362120	0.572369
C303	C	1.270302	0.695454	0.905702
C304	C	0.603638	0.028786	0.325583
C305	C	0.936971	0.362120	0.658916
C306	C	1.270305	0.695453	0.992250
C307	C	0.570527	0.061883	0.368860
C308	C	0.903860	0.395216	0.702193
C309	C	1.237193	0.728549	1.035527
C310	C	0.537407	0.094979	0.325586
C311	C	0.870741	0.428312	0.658919
C312	C	1.204074	0.761645	0.992252
C313	C	0.537403	0.094976	0.239040
C314	C	0.870736	0.428310	0.572373
C315	C	1.204070	0.761643	0.905707
C316	C	0.537424	0.094988	0.674614
C317	C	0.870757	0.428321	1.007947
C318	C	1.204091	0.761654	1.341280
C319	C	0.537432	0.094988	0.761165
C320	C	0.870765	0.428321	1.094499
C321	C	1.204099	0.761655	1.427832
C322	C	0.603659	0.028797	0.761157
C323	C	0.936992	0.362131	1.094490
C324	C	1.270326	0.695464	1.427823
C325	C	0.603655	0.028795	0.674611
C326	C	0.936988	0.362129	1.007944
C327	C	1.270321	0.695462	1.341278
C328	C	0.570534	0.061889	0.631344
C329	C	0.903867	0.395223	0.964678
C330	C	1.237201	0.728556	1.298011
C331	C	0.570531	0.061889	0.537500
C332	C	0.903864	0.395222	0.870833
C333	C	1.237198	0.728555	1.204167
C334	C	0.570532	0.061886	0.462703
C335	C	0.903865	0.395219	0.796036
C336	C	1.237198	0.728553	1.129369
H337	H	0.487897	-0.688883	0.000086
H338	H	0.821230	-0.355550	0.333419
H339	H	1.154563	-0.022216	0.666752
N340	N	0.639382	-0.006898	0.807826
N341	N	0.972715	0.326435	1.141159
N342	N	1.306049	0.659768	1.474493
H343	H	0.621077	-0.028177	0.843740
H344	H	0.954410	0.305156	1.177073
H345	H	1.287743	0.638489	1.510407
H346	H	0.660350	-0.027829	0.767224
H347	H	0.993683	0.305504	1.100557
H348	H	1.327016	0.638838	1.433890
H349	H	0.510467	0.121940	0.796400
H350	H	0.843800	0.455274	1.129734
H351	H	1.177133	0.788607	1.463067
H352	H	0.446171	-0.450897	0.000071
H353	H	0.779504	-0.117564	0.333404
H354	H	1.112837	0.215769	0.666737
N355	N	0.639352	-0.006908	0.192361
N356	N	0.972685	0.326426	0.525695
N357	N	1.306019	0.659759	0.859028
H358	H	0.660330	-0.027873	0.232908
H359	H	0.993663	0.305460	0.566241
H360	H	1.326997	0.638794	0.899574
H361	H	0.621005	-0.028152	0.156460
H362	H	0.954339	0.305182	0.489793
H363	H	1.287672	0.638515	0.823126
H364	H	-0.033692	-0.063392	0.000123
H365	H	0.299642	0.269942	0.333456
H366	H	0.632975	0.603275	0.666790
H367	H	0.023525	0.185642	0.000119
H368	H	0.356858	0.518975	0.333452
H369	H	0.690192	0.852308	0.666786
N370	N	0.481490	-0.170337	0.000089
N371	N	0.814823	0.162996	0.333423
N372	N	1.148156	0.496329	0.666756
H373	H	0.453809	-0.142863	0.000090
H374	H	0.787142	0.190471	0.333424
H375	H	1.120475	0.523804	0.666757
H376	H	0.479355	-0.190987	-0.050882
H377	H	0.812689	0.142347	0.282451
H378	H	1.146022	0.475680	0.615784
N379	N	0.639372	-0.006892	0.372252
N380	N	0.972705	0.326442	0.705585
N381	N	1.306039	0.659775	1.038919
H382	H	0.660355	-0.027850	0.331704
H383	H	0.993688	0.305483	0.665037
H384	H	1.327022	0.638816	0.998370
H385	H	0.660595	0.011489	0.408137
H386	H	0.993928	0.344822	0.741470
H387	H	1.327261	0.678156	1.074803
H388	H	0.694879	-0.425334	0.000087
H389	H	1.028213	-0.092001	0.333421
H390	H	1.361546	0.241332	0.666754
N391	N	0.501693	0.130672	0.372265
N392	N	0.835026	0.464006	0.705598
N393	N	1.168360	0.797339	1.038932
H394	H	0.520006	0.151950	0.408164
H395	H	0.853339	0.485283	0.741497
H396	H	1.186673	0.818617	1.074830
H397	H	0.480720	0.151604	0.331670
H398	H	0.814054	0.484937	0.665004
H399	H	1.147387	0.818271	0.998337
H400	H	0.654085	-0.095890	0.000105
H401	H	0.987418	0.237443	0.333439
H402	H	1.320752	0.570777	0.666772
N403	N	-0.197251	0.150926	0.000118
N404	N	0.136083	0.484259	0.333452
N405	N	0.469416	0.817593	0.666785
H406	H	-0.176607	0.153105	0.051088
H407	H	0.156726	0.486439	0.384422
H408	H	0.490059	0.819772	0.717755
H409	H	-0.176627	0.153080	-0.050883
H410	H	0.156706	0.486414	0.282450
H411	H	0.490039	0.819747	0.615784
H412	H	0.494139	-0.073813	0.000082
H413	H	0.827472	0.259520	0.333415
H414	H	1.160806	0.592853	0.666748
H415	H	0.117555	-0.061861	0.000129
H416	H	0.450888	0.271472	0.333462
H417	H	0.784221	0.604806	0.666796
H418	H	0.083313	0.186249	0.000114
H419	H	0.416647	0.519582	0.333447
H420	H	0.749980	0.852916	0.666781
N421	N	-0.076203	0.196291	0.000125
N422	N	0.257130	0.529624	0.333459
N423	N	0.590463	0.862958	0.666792
H424	H	-0.111041	0.189234	0.000129
H425	H	0.222292	0.522567	0.333463
H426	H	0.555626	0.855900	0.666796
H427	H	-0.070050	0.215628	0.051096
H428	H	0.263284	0.548961	0.384430
H429	H	0.596617	0.882295	0.717763
N430	N	0.313035	0.156115	0.000093
N431	N	0.646368	0.489448	0.333426
N432	N	0.979702	0.822782	0.666759
H433	H	0.291845	0.157875	-0.050873
H434	H	0.625179	0.491208	0.282460
H435	H	0.958512	0.824542	0.615793
H436	H	0.291879	0.157846	0.051098
H437	H	0.625213	0.491179	0.384431
H438	H	0.958546	0.824513	0.717765
H439	H	0.630619	0.001847	0.639378
H440	H	0.963952	0.335180	0.972711
H441	H	1.297285	0.668513	1.306044
N442	N	-0.276749	-0.033389	0.000113
N443	N	0.056584	0.299944	0.333446
N444	N	0.389918	0.633277	0.666779
H445	H	-0.265314	-0.052570	-0.050855
H446	H	0.068020	0.280763	0.282478
H447	H	0.401353	0.614097	0.615812
H448	H	-0.265310	-0.052532	0.051116
H449	H	0.068023	0.280802	0.384450
H450	H	0.401356	0.614135	0.717783
N451	N	0.664741	-0.195613	0.000094
N452	N	0.998075	0.137720	0.333427
N453	N	1.331408	0.471054	0.666761
H454	H	0.692901	-0.175841	0.000103
H455	H	1.026234	0.157492	0.333436
H456	H	1.359567	0.490826	0.666769
H457	H	0.666447	-0.216796	0.051065
H458	H	0.999780	0.116538	0.384399
H459	H	1.333114	0.449871	0.717732
H460	H	0.693350	-0.576584	0.000067
H461	H	1.026683	-0.243251	0.333401
H462	H	1.360017	0.090083	0.666734
H463	H	-0.293769	0.138272	0.000123
H464	H	0.039565	0.471605	0.333456
H465	H	0.372898	0.804938	0.666789
N466	N	-0.171965	-0.032328	0.000127
N467	N	0.161368	0.301005	0.333460
N468	N	0.494701	0.634338	0.666794
H469	H	-0.191737	-0.060488	0.000124
H470	H	0.141597	0.272845	0.333458
H471	H	0.474930	0.606179	0.666791
H472	H	-0.150781	-0.034038	-0.050842
H473	H	0.182553	0.299295	0.282491
H474	H	0.515886	0.632628	0.615825
H475	H	0.647851	-0.710939	0.000117
H476	H	0.981184	-0.377605	0.333450
H477	H	1.314518	-0.044272	0.666783
N478	N	0.435059	-0.396166	0.000075
N479	N	0.768393	-0.062833	0.333409
N480	N	1.101726	0.270500	0.666742
H481	H	0.407380	-0.368690	0.000073
H482	H	0.740713	-0.035357	0.333406
H483	H	1.074046	0.297976	0.666740
H484	H	0.432923	-0.416818	-0.050893
H485	H	0.766257	-0.083485	0.282440
H486	H	1.099590	0.249848	0.615774
N487	N	0.501700	0.130677	0.627954
N488	N	0.835034	0.464011	0.961287
N489	N	1.168367	0.797344	1.294620
H490	H	0.480727	0.151643	0.668504
H491	H	0.814060	0.484977	1.001838
H492	H	1.147393	0.818310	1.335171
H493	H	0.520039	0.151922	0.592033
H494	H	0.853372	0.485255	0.925366
H495	H	1.186705	0.818588	1.258699
N496	N	0.066023	-0.074046	0.000110
N497	N	0.399357	0.259287	0.333444
N498	N	0.732690	0.592621	0.666777
H499	H	0.087209	-0.075798	-0.050862
H500	H	0.420542	0.257535	0.282471
H501	H	0.753876	0.590868	0.615804
H502	H	0.087183	-0.075780	0.051109
H503	H	0.420516	0.257554	0.384442
H504	H	0.753849	0.590887	0.717776
H505	H	0.209006	-0.060928	0.000130
H506	H	0.542339	0.272405	0.333464
H507	H	0.875672	0.605739	0.666797
N508	N	0.338300	-0.027142	0.000074
N509	N	0.671633	0.306191	0.333408
N510	N	1.004967	0.639525	0.666741
H511	H	0.365773	-0.054825	0.000068
H512	H	0.699106	0.278509	0.333401
H513	H	1.032439	0.611842	0.666735
H514	H	0.317651	-0.029278	0.051050
H515	H	0.650984	0.304055	0.384383
H516	H	0.984318	0.637389	0.717716
N517	N	0.443093	-0.026077	0.000077
N518	N	0.776427	0.307256	0.333411
N519	N	1.109760	0.640590	0.666744
H520	H	0.477931	-0.019021	0.000078
H521	H	0.811265	0.314313	0.333411
H522	H	1.144598	0.647646	0.666744
H523	H	0.436938	-0.045414	0.051052
H524	H	0.770271	0.287920	0.384385
H525	H	1.103605	0.621253	0.717719
H526	H	0.646920	-0.802406	0.000117
H527	H	0.980253	-0.469073	0.333450
H528	H	1.313586	-0.135739	0.666784
N529	N	0.501682	0.130671	0.192374
N530	N	0.835016	0.464004	0.525707
N531	N	1.168349	0.797337	0.859040
H532	H	0.506992	0.164942	0.207425
H533	H	0.840325	0.498275	0.540759
H534	H	1.173659	0.831608	0.874092
H535	H	0.506719	0.125605	0.130996
H536	H	0.840052	0.458938	0.464329
H537	H	1.173386	0.792271	0.797662
N538	N	0.475255	-0.785389	0.000109
N539	N	0.808589	-0.452056	0.333443
N540	N	1.141922	-0.118722	0.666776
H541	H	0.456076	-0.773956	-0.050862
H542	H	0.789409	-0.440623	0.282472
H543	H	1.122743	-0.107290	0.615805
H544	H	0.481615	-0.822071	0.000148
H545	H	0.814949	-0.488738	0.333481
H546	H	1.148282	-0.155405	0.666814
N547	N	0.433526	-0.547403	0.000089
N548	N	0.766859	-0.214069	0.333422
N549	N	1.100193	0.119264	0.666755
H550	H	0.405846	-0.519927	0.000086
H551	H	0.739180	-0.186593	0.333419
H552	H	1.072513	0.146740	0.666753
H553	H	0.431390	-0.568054	-0.050880
H554	H	0.764724	-0.234721	0.282453
H555	H	1.098057	0.098612	0.615787
H556	H	0.694281	-0.485133	0.000076
H557	H	1.027614	-0.151800	0.333409
H558	H	1.360947	0.181534	0.666742
H559	H	0.447710	-0.299648	0.000064
H560	H	0.781043	0.033686	0.333398
H561	H	1.114376	0.367019	0.666731
H562	H	0.174761	0.187179	0.000099
H563	H	0.508094	0.520512	0.333432
H564	H	0.841428	0.853845	0.666765
H565	H	0.412752	0.145453	0.000074
H566	H	0.746085	0.478786	0.333407
H567	H	1.079418	0.812120	0.666740
N568	N	0.707524	-0.328828	0.000088
N569	N	1.040858	0.004505	0.333421
N570	N	1.374191	0.337839	0.666755
H571	H	0.735206	-0.356302	0.000090
H572	H	1.068539	-0.022969	0.333424
H573	H	1.401872	0.310364	0.666757
H574	H	0.709660	-0.308177	-0.050886
H575	H	1.042993	0.025156	0.282448
H576	H	1.376327	0.358489	0.615781
