data_functionalizedCrystal
_audit_creation_method	'MofGen! by Chris Wilmer'
_symmetry_space_group_name_H-M	'P1'
_symmetry_Int_Tables_number	1
_symmetry_cell_setting	triclinic
loop_
_symmetry_equiv_pos_as_xyz
  x,y,z
_cell_length_a	18.050583
_cell_length_b	12.759401
_cell_length_c	12.759400
_cell_angle_alpha	89.985155
_cell_angle_beta	89.970966
_cell_angle_gamma	90.015033
loop_
_atom_site_label
_atom_site_type_symbol
_atom_site_fract_x
_atom_site_fract_y
_atom_site_fract_z
Zn1	Zn	-0.419867	-1.606220	-0.418226
Zn2	Zn	-0.295684	-1.606125	-0.593937
Zn3	Zn	-0.295698	-1.430532	-0.418273
Zn4	Zn	-0.419840	-1.430510	-0.593864
O5	O	-0.357772	-1.518347	-0.506075
O6	O	-0.403399	-1.753228	-0.441545
O7	O	-0.191761	-1.582801	-0.570685
O8	O	-0.312186	-1.453886	-0.271246
O9	O	-0.312163	-1.753158	-0.570640
O10	O	-0.403413	-1.582963	-0.271211
O11	O	-0.191771	-1.453794	-0.441626
O12	O	-0.312160	-1.283508	-0.441555
O13	O	-0.523768	-1.453849	-0.570515
O14	O	-0.403366	-1.283492	-0.570561
O15	O	-0.523788	-1.582942	-0.441474
O16	O	-0.312137	-1.582780	-0.740949
O17	O	-0.403353	-1.453757	-0.740895
C18	C	-0.357757	-1.518284	-0.779043
C19	C	-0.357775	-1.518354	-0.895819
C20	C	-0.357762	-1.245379	-0.506056
C21	C	-0.357775	-1.128603	-0.506073
C22	C	-0.551478	-1.518404	-0.505981
C23	C	-0.634024	-1.518428	-0.505941
C24	C	-0.882860	-1.588694	-0.435698
C25	C	-0.833449	-1.614354	-0.531562
C26	C	-0.931144	-1.518496	-0.505874
C27	C	-0.833473	-1.492852	-0.410049
C28	C	-0.785159	-1.518465	-0.505902
C29	C	-0.882820	-1.544205	-0.601789
C30	C	-0.882849	-1.422659	-0.480211
C31	C	-0.833460	-1.448282	-0.576141
C32	C	-1.015243	-1.518516	-0.505857
C33	C	-0.701062	-1.518444	-0.505930
C34	C	-0.164820	-1.518350	-0.506093
C35	C	-0.082275	-1.518530	-0.505837
C36	C	-0.357783	-1.792380	-0.506095
C37	C	-0.357787	-1.909157	-0.506104
C38	C	-0.405188	-1.073760	-0.573354
C39	C	-0.405196	-0.964036	-0.573367
C40	C	-0.310372	-0.964007	-0.438816
C41	C	-0.310369	-1.073729	-0.438798
C42	C	-0.452595	-1.128633	-0.640629
C43	C	-0.500011	-1.073790	-0.707916
C44	C	-0.500019	-0.964066	-0.707929
C45	C	-0.452611	-0.909185	-0.640655
C46	C	-0.310331	-1.585611	-0.950674
C47	C	-0.310354	-1.585675	-1.060398
C48	C	-0.405267	-1.451217	-1.060402
C49	C	-0.405247	-1.451158	-0.950680
C50	C	-0.262859	-1.652806	-0.895813
C51	C	-0.215411	-1.720067	-0.950668
C52	C	-0.215433	-1.720132	-1.060392
C53	C	-0.262905	-1.652935	-1.115261
C54	C	-0.357804	-1.518438	-0.232042
C55	C	-0.357818	-1.518477	-0.115265
H56	H	-0.811748	-1.695387	-0.553285
H57	H	-0.271767	-1.118383	-0.384004
H58	H	-0.262833	-1.652758	-0.806470
C59	C	-0.163246	-1.794118	-1.120736
C60	C	-0.195487	-1.876623	-1.196062
C61	C	-0.143295	-1.950608	-1.256404
C62	C	-0.058861	-1.942088	-1.241422
C63	C	-0.026616	-1.859580	-1.166093
C64	C	-0.078808	-1.785595	-1.105750
H65	H	-0.257994	-1.882933	-1.207156
H66	H	-0.167166	-2.011686	-1.312168
H67	H	-0.020226	-1.996856	-1.286091
H68	H	0.035891	-1.853270	-1.154999
H69	H	-0.054937	-1.724517	-1.049987
C70	C	-0.552159	-1.134154	-0.781911
C71	C	-0.604316	-1.073825	-0.855915
C72	C	-0.656466	-1.134185	-0.929912
C73	C	-0.656459	-1.254875	-0.929904
C74	C	-0.604301	-1.315211	-0.855897
C75	C	-0.552150	-1.254850	-0.781901
H76	H	-0.604322	-0.984477	-0.855923
H77	H	-0.695077	-1.089520	-0.984696
H78	H	-0.695064	-1.299558	-0.984681
H79	H	-0.604294	-1.404559	-0.855889
H80	H	-0.513539	-1.299516	-0.727116
H81	H	-0.443915	-1.396508	-1.105085
H82	H	-0.811795	-1.471177	-0.329000
H83	H	-0.904550	-1.648117	-0.376414
C84	C	-0.911953	-1.573644	-0.711320
C85	C	-0.961255	-1.496350	-0.772333
C86	C	-0.990379	-1.525802	-0.881863
C87	C	-0.970201	-1.632547	-0.930379
C88	C	-0.920897	-1.709847	-0.869366
C89	C	-0.891773	-1.680395	-0.759836
H90	H	-0.976194	-1.417325	-0.736418
H91	H	-1.026877	-1.468579	-0.927028
H92	H	-0.991761	-1.654349	-1.011460
H93	H	-0.905958	-1.788872	-0.905281
H94	H	-0.855275	-1.737619	-0.714671
H95	H	-0.538632	-0.919416	-0.762710
H96	H	-0.176765	-1.774783	-0.905988
H97	H	-0.452628	-0.819840	-0.640663
H98	H	-0.271775	-0.919314	-0.384045
H99	H	-0.443881	-1.396393	-0.906017
H100	H	-0.904565	-1.341649	-0.458457
C101	C	-0.804335	-1.368066	-0.656415
C102	C	-0.823988	-1.379870	-0.773248
C103	C	-0.794861	-1.299660	-0.853524
C104	C	-0.746082	-1.207645	-0.816967
C105	C	-0.726427	-1.195837	-0.700128
C106	C	-0.755553	-1.276048	-0.619852
H107	H	-0.860099	-1.447988	-0.800315
H108	H	-0.809411	-1.308401	-0.940016
H109	H	-0.724521	-1.148269	-0.876392
H110	H	-0.690315	-1.127719	-0.673061
H111	H	-0.741003	-1.267306	-0.533360
H112	H	-0.452592	-1.217976	-0.640627
H113	H	-0.262925	-1.653001	-1.204606
