data_functionalizedCrystal
_audit_creation_method	'MofGen! by Chris Wilmer'
_symmetry_space_group_name_H-M	'P1'
_symmetry_Int_Tables_number	1
_symmetry_cell_setting	triclinic
loop_
_symmetry_equiv_pos_as_xyz
  x,y,z
_cell_length_a	15.944551
_cell_length_b	14.519731
_cell_length_c	12.996460
_cell_angle_alpha	89.992872
_cell_angle_beta	89.998907
_cell_angle_gamma	83.593796
loop_
_atom_site_label
_atom_site_type_symbol
_atom_site_fract_x
_atom_site_fract_y
_atom_site_fract_z
O1	O	1.114706	0.118942	-0.085462
O2	O	0.870179	0.133606	-0.085488
O3	O	0.998916	-0.007974	-0.085465
O4	O	0.985969	0.260523	-0.085485
O5	O	0.998903	-0.007982	0.085669
O6	O	0.870165	0.133598	0.085646
O7	O	1.114693	0.118934	0.085672
Cu8	Cu	0.992428	0.126266	0.101285
Cu9	Cu	0.992444	0.126275	-0.101101
O10	O	0.985955	0.260515	0.085649
C11	C	0.838877	0.132993	0.000076
C12	C	0.745628	0.131168	0.000066
C13	C	0.998303	-0.042337	0.000102
C14	C	0.996485	-0.144714	0.000103
C15	C	0.530632	0.039048	0.000093
C16	C	0.469683	0.081829	-0.084288
C17	C	0.574898	0.127867	0.000079
C18	C	0.469692	0.081843	0.084437
C19	C	0.409980	0.124671	0.000095
C20	C	0.515177	0.170673	-0.084372
C21	C	0.515193	0.170674	0.084428
C22	C	0.454262	0.213520	0.000026
C23	C	0.669903	0.129705	0.000068
C24	C	0.314976	0.122839	0.000098
C25	C	0.995008	-0.227855	0.000100
C26	C	0.993162	-0.332161	0.000092
C27	C	0.991697	-0.415297	0.000085
C28	C	0.989851	-0.519609	0.000079
C29	C	1.145994	0.119547	0.000106
C30	C	1.239243	0.121372	0.000109
C31	C	0.986569	0.294877	0.000080
C32	C	0.988386	0.397254	0.000072
N33	N	0.992423	0.126258	0.243632
N34	N	0.992455	0.126275	-0.243448
C35	C	0.992443	0.126276	0.663446
C36	C	0.992435	0.126274	0.546641
C37	C	0.992433	0.126268	0.453543
C38	C	0.992424	0.126265	0.336730
H39	H	0.563852	-0.034665	-0.000006
H40	H	0.535228	0.208214	-0.155788
H41	H	0.449521	0.044266	-0.155621
H42	H	0.449543	0.044256	0.155772
H43	H	0.535375	0.208206	0.155764
H44	H	0.421216	0.287308	-0.000026
