data_functionalizedCrystal
_audit_creation_method	'MofGen! by Chris Wilmer'
_symmetry_space_group_name_H-M	'P1'
_symmetry_Int_Tables_number	1
_symmetry_cell_setting	triclinic
loop_
_symmetry_equiv_pos_as_xyz
  x,y,z
_cell_length_a	14.971486
_cell_length_b	13.930277
_cell_length_c	14.971487
_cell_angle_alpha	90.005378
_cell_angle_beta	96.385734
_cell_angle_gamma	90.001649
loop_
_atom_site_label
_atom_site_type_symbol
_atom_site_fract_x
_atom_site_fract_y
_atom_site_fract_z
O1	O	1.186949	0.079719	-0.116550
O2	O	1.686949	0.579719	0.383450
O3	O	0.926549	0.079745	-0.130509
O4	O	1.426549	0.579745	0.369491
O5	O	1.063728	0.079727	0.006671
O6	O	1.563728	0.579727	0.506671
O7	O	1.049770	0.079737	-0.253729
O8	O	1.549770	0.579737	0.246271
O9	O	1.063708	-0.079935	0.006650
O10	O	1.563708	0.420065	0.506650
O11	O	0.926529	-0.079917	-0.130530
O12	O	1.426529	0.420083	0.369470
O13	O	1.186929	-0.079943	-0.116571
O14	O	1.686929	0.420057	0.383429
Zn15	Zn	1.056726	-0.105280	-0.123554
Zn16	Zn	1.556726	0.394720	0.376446
Zn17	Zn	1.056752	0.105082	-0.123526
Zn18	Zn	1.556752	0.605082	0.376474
O19	O	1.049750	-0.079925	-0.253750
O20	O	1.549750	0.420075	0.246250
C21	C	0.893214	-0.000083	-0.129895
C22	C	1.393214	0.499917	0.370105
C23	C	0.793917	-0.000073	-0.128024
C24	C	1.293917	0.499927	0.371976
N25	N	1.056714	-0.248846	-0.123572
N26	N	1.556714	0.251154	0.376428
C27	C	0.736692	-0.000071	-0.208614
C28	C	1.236692	0.499929	0.291386
C29	C	0.643393	-0.000085	-0.206850
C30	C	1.143393	0.499915	0.293150
C31	C	0.607320	-0.000095	-0.124497
C32	C	1.107320	0.499905	0.375503
C33	C	0.664552	-0.000100	-0.043902
C34	C	1.164552	0.499900	0.456098
C35	C	0.757850	-0.000092	-0.045666
C36	C	1.257850	0.499908	0.454334
C37	C	0.470090	-0.000113	-0.040231
C38	C	0.970090	0.499887	0.459769
C39	C	0.376786	-0.000119	-0.038466
C40	C	0.876786	0.499881	0.461534
C41	C	0.355632	-0.000106	-0.201415
C42	C	0.855632	0.499894	0.298585
C43	C	0.448930	-0.000099	-0.203179
C44	C	0.948930	0.499901	0.296821
C45	C	0.506156	-0.000102	-0.122584
C46	C	1.006156	0.499898	0.377416
C47	C	1.111068	-0.701108	-0.177849
C48	C	1.611068	-0.201108	0.322151
C49	C	1.002464	-0.701091	-0.069167
C50	C	1.502464	-0.201091	0.430833
C51	C	1.002450	-0.600595	-0.069181
C52	C	1.502450	-0.100595	0.430819
C53	C	1.056747	-0.550352	-0.123529
C54	C	1.556747	-0.050352	0.376471
C55	C	1.111058	-0.600603	-0.177863
C56	C	1.611058	-0.100603	0.322137
C57	C	0.948148	-0.550336	-0.014842
C58	C	1.448148	-0.050336	0.485158
C59	C	0.948133	-0.449834	-0.014853
C60	C	1.448133	0.050166	0.485147
C61	C	1.002426	-0.399589	-0.069207
C62	C	1.502426	0.100411	0.430793
C63	C	1.056738	-0.449847	-0.123543
C64	C	1.556738	0.050153	0.376457
C65	C	1.111035	-0.399603	-0.177892
C66	C	1.611035	0.100397	0.322108
C67	C	1.165343	-0.449859	-0.232234
C68	C	1.665343	0.050141	0.267766
C69	C	1.165351	-0.550358	-0.232217
C70	C	1.665351	-0.050358	0.267783
C71	C	1.002417	-0.299090	-0.069224
C72	C	1.502417	0.200910	0.430776
C73	C	1.111025	-0.299098	-0.177906
C74	C	1.611025	0.200902	0.322094
C75	C	1.220264	-0.000113	-0.117185
C76	C	1.720264	0.499887	0.382815
C77	C	1.319561	-0.000117	-0.119056
C78	C	1.819561	0.499883	0.380944
C79	C	1.063094	-0.000103	0.039985
C80	C	1.563094	0.499897	0.539985
C81	C	1.061223	-0.000101	0.139282
C82	C	1.561223	0.499899	0.639282
N83	N	1.056771	0.248648	-0.123501
N84	N	1.556771	0.748648	0.376499
C85	C	1.141812	-0.000108	0.196507
C86	C	1.641812	0.499892	0.696507
C87	C	1.140049	-0.000097	0.289807
C88	C	1.640049	0.499903	0.789807
C89	C	1.057695	-0.000084	0.325879
C90	C	1.557695	0.499916	0.825879
C91	C	0.977100	-0.000074	0.268646
C92	C	1.477100	0.499926	0.768646
C93	C	0.978864	-0.000078	0.175349
C94	C	1.478864	0.499922	0.675349
C95	C	0.973428	-0.000066	0.463109
C96	C	1.473428	0.499934	0.963109
C97	C	0.971664	-0.000064	0.556413
C98	C	1.471664	0.499936	1.056413
C99	C	1.134613	-0.000085	0.577567
C100	C	1.634613	0.499915	1.077567
C101	C	1.136377	-0.000090	0.484269
C102	C	1.636377	0.499910	0.984269
C103	C	1.055781	-0.000081	0.427043
C104	C	1.555781	0.499919	0.927043
C105	C	1.050384	-0.000088	0.712935
C106	C	1.550384	0.499912	1.212935
C107	C	1.052253	-0.000071	0.613638
C108	C	1.552253	0.499929	1.113638
H109	H	0.766054	-0.000063	-0.275675
H110	H	1.266054	0.499937	0.224325
H111	H	1.209555	-0.408937	-0.276480
H112	H	1.709555	0.091063	0.223520
H113	H	1.208873	-0.000124	0.167145
H114	H	1.708873	0.499876	0.667145
H115	H	0.903950	-0.591252	0.029413
H116	H	1.403950	-0.091252	0.529413
O117	O	0.943901	-0.244857	-0.010588
O118	O	1.443901	0.255143	0.489412
H119	H	0.895871	-0.199057	-0.053366
H120	H	1.395871	0.300943	0.446634
H121	H	1.203436	-0.000107	0.454902
H122	H	1.703436	0.499893	0.954902
O123	O	0.337881	-0.000147	0.050359
O124	O	0.837881	0.499853	0.550359
H125	H	0.263391	-0.000144	0.038041
H126	H	0.763391	0.499856	0.538041
H127	H	1.205672	-0.000105	0.336396
H128	H	1.705672	0.499895	0.836396
H129	H	0.804443	-0.000093	0.019958
H130	H	1.304443	0.499907	0.519958
H131	H	0.516682	-0.000117	0.025399
H132	H	1.016682	0.499883	0.525399
H133	H	0.958264	-0.742006	-0.024913
H134	H	1.458264	-0.242006	0.475087
H135	H	1.209568	-0.591285	-0.276457
H136	H	1.709568	-0.091285	0.223543
O137	O	1.221545	-0.000085	0.639281
O138	O	1.721545	0.499915	1.139281
H139	H	1.206487	-0.000066	0.710217
H140	H	1.706487	0.499934	1.210217
O141	O	0.625652	-0.000118	0.044925
O142	O	1.125652	0.499882	0.544925
H143	H	0.583657	0.064958	0.049644
H144	H	1.083657	0.564958	0.549644
O145	O	0.581668	-0.000084	-0.293771
O146	O	1.081668	0.499916	0.206229
H147	H	0.622425	-0.000065	-0.351332
H148	H	1.122425	0.499935	0.148668
H149	H	0.904604	-0.000069	0.585779
H150	H	1.404604	0.499931	1.085779
H151	H	1.155236	-0.258196	-0.222168
H152	H	1.655236	0.241804	0.277832
O153	O	0.886503	-0.000066	0.401381
O154	O	1.386503	0.499934	0.901381
H155	H	0.828940	-0.000070	0.442136
H156	H	1.328940	0.499930	0.942136
O157	O	0.891942	-0.000083	0.113624
O158	O	1.391942	0.499917	0.613624
H159	H	0.852538	0.064992	0.126466
H160	H	1.352538	0.564992	0.626466
H161	H	1.155281	-0.742031	-0.222095
H162	H	1.655281	-0.242031	0.277905
H163	H	0.309034	-0.000108	-0.267039
H164	H	0.809034	0.499892	0.232961
O165	O	0.888275	-0.000071	0.307552
O166	O	1.388275	0.499929	0.807552
H167	H	0.883582	0.064999	0.349567
H168	H	1.383582	0.564999	0.849567
O169	O	0.487843	-0.000101	-0.292000
O170	O	0.987843	0.499899	0.208000
H171	H	0.432378	-0.000114	-0.347747
H172	H	0.932378	0.499886	0.152253
O173	O	0.889552	-0.395630	0.043744
O174	O	1.389552	0.104370	0.543744
H175	H	0.851793	-0.447453	0.081532
H176	H	1.351793	0.052547	0.581532
