data_functionalizedCrystal
_audit_creation_method	'MofGen! by Chris Wilmer'
_symmetry_space_group_name_H-M	'P1'
_symmetry_Int_Tables_number	1
_symmetry_cell_setting	triclinic
loop_
_symmetry_equiv_pos_as_xyz
  x,y,z
_cell_length_a	19.288864
_cell_length_b	17.699083
_cell_length_c	17.766277
_cell_angle_alpha	89.992740
_cell_angle_beta	89.976791
_cell_angle_gamma	83.209630
loop_
_atom_site_label
_atom_site_type_symbol
_atom_site_fract_x
_atom_site_fract_y
_atom_site_fract_z
O1	O	0.921465	0.094417	-0.062837
O2	O	1.421465	0.594417	0.437163
O3	O	0.719219	0.107154	-0.062786
O4	O	1.219219	0.607154	0.437214
O5	O	0.826056	-0.009412	-0.062806
O6	O	1.326056	0.490588	0.437194
O7	O	0.814628	0.210983	-0.062817
O8	O	1.314628	0.710983	0.437183
O9	O	0.826037	-0.009417	0.062382
O10	O	1.326037	0.490583	0.562382
O11	O	0.719201	0.107148	0.062403
O12	O	1.219201	0.607148	0.562403
O13	O	0.921446	0.094411	0.062351
O14	O	1.421446	0.594411	0.562351
Cu15	Cu	0.820322	0.100779	0.073808
Cu16	Cu	1.320322	0.600779	0.573808
Cu17	Cu	0.820344	0.100786	-0.074242
Cu18	Cu	1.320344	0.600786	0.425758
O19	O	0.814609	0.210977	0.062372
O20	O	1.314609	0.710977	0.562372
C21	C	0.693333	0.106741	-0.000185
C22	C	1.193333	0.606741	0.499815
C23	C	0.616228	0.105511	-0.000165
C24	C	1.116228	0.605511	0.499835
C25	C	0.571613	0.173906	-0.000180
C26	C	1.071613	0.673906	0.499820
C27	C	0.499164	0.172751	-0.000188
C28	C	0.999164	0.672751	0.499812
C29	C	0.471334	0.103196	-0.000197
C30	C	0.971334	0.603196	0.499803
C31	C	0.515959	0.034791	-0.000177
C32	C	1.015959	0.534791	0.499823
C33	C	0.588406	0.035949	-0.000162
C34	C	1.088406	0.535949	0.499838
C35	C	0.363014	0.048520	-0.044079
C36	C	0.863014	0.548520	0.455921
C37	C	0.290568	0.047365	-0.044099
C38	C	0.790568	0.547365	0.455901
C39	C	0.247884	0.099622	-0.000242
C40	C	0.747884	0.599622	0.499758
C41	C	0.277654	0.153047	0.043625
C42	C	0.777654	0.653047	0.543625
C43	C	0.350101	0.154204	0.043641
C44	C	0.850101	0.654204	0.543641
C45	C	0.392779	0.101932	-0.000213
C46	C	0.892779	0.601932	0.499787
C47	C	0.124712	0.166769	-0.000265
C48	C	0.624712	0.666769	0.499735
C49	C	0.052262	0.165610	-0.000269
C50	C	0.552262	0.665610	0.499731
C51	C	0.069059	0.027649	-0.000265
C52	C	0.569059	0.527649	0.499735
C53	C	0.141507	0.028809	-0.000254
C54	C	0.641507	0.528809	0.499746
C55	C	0.169329	0.098371	-0.000258
C56	C	0.669329	0.598371	0.499742
C57	C	0.825637	-0.037611	-0.000212
C58	C	1.325637	0.462389	0.499788
C59	C	0.824409	-0.121627	-0.000211
C60	C	1.324409	0.378373	0.499789
C61	C	0.887120	-0.170336	-0.000226
C62	C	1.387120	0.329664	0.499774
C63	C	0.885961	-0.249278	-0.000232
C64	C	1.385961	0.250722	0.499768
C65	C	0.822091	-0.279509	-0.000219
C66	C	1.322091	0.220491	0.499781
C67	C	0.759375	-0.230794	-0.000206
C68	C	1.259375	0.269206	0.499794
C69	C	0.760535	-0.151854	-0.000205
C70	C	1.260535	0.348146	0.499795
C71	C	0.754699	-0.549150	-0.000211
C72	C	1.254699	-0.049150	0.499789
C73	C	0.753545	-0.628097	-0.000210
C74	C	1.253545	-0.128097	0.499790
C75	C	0.880126	-0.646575	-0.000238
C76	C	1.380126	-0.146575	0.499762
C77	C	0.881285	-0.567635	-0.000237
C78	C	1.381285	-0.067635	0.499763
C79	C	0.818570	-0.518926	-0.000229
C80	C	1.318570	-0.018926	0.499771
C81	C	0.819827	-0.433329	-0.000223
C82	C	1.319827	0.066671	0.499777
C83	C	0.820834	-0.365105	-0.000219
C84	C	1.320834	0.134895	0.499781
C85	C	0.947332	0.094824	-0.000251
C86	C	1.447332	0.594824	0.499749
C87	C	1.024437	0.096054	-0.000276
C88	C	1.524437	0.596054	0.499724
C89	C	0.815028	0.239176	-0.000224
C90	C	1.315028	0.739176	0.499776
C91	C	0.816257	0.323193	-0.000230
C92	C	1.316257	0.823193	0.499770
N93	N	0.820311	0.100774	0.177938
N94	N	1.320311	0.600774	0.677938
N95	N	0.820360	0.100786	-0.178372
N96	N	1.320360	0.600786	0.321628
C97	C	0.867634	0.049184	0.217316
C98	C	1.367634	0.549184	0.717316
C99	C	0.867638	0.049180	0.296118
C100	C	1.367638	0.549180	0.796118
C101	C	0.820326	0.100780	0.335539
C102	C	1.320326	0.600780	0.835539
C103	C	0.772994	0.152374	0.296151
C104	C	1.272994	0.652374	0.796151
C105	C	0.772987	0.152371	0.217351
C106	C	1.272987	0.652371	0.717351
C107	C	0.811109	0.169742	0.460375
C108	C	1.311109	0.669742	0.960375
C109	C	0.811121	0.169746	0.539174
C110	C	1.311121	0.669746	1.039174
C111	C	0.820344	0.100789	0.578585
C112	C	1.320344	0.600789	1.078585
C113	C	0.829570	0.031825	0.539188
C114	C	1.329570	0.531825	1.039188
C115	C	0.829563	0.031822	0.460388
C116	C	1.329563	0.531822	0.960388
C117	C	0.820328	0.100789	0.420984
C118	C	1.320328	0.600789	0.920984
C119	C	0.867674	0.049191	0.703409
C120	C	1.367674	0.549191	1.203409
C121	C	0.867673	0.049186	0.782212
C122	C	1.367673	0.549186	1.282212
C123	C	0.773033	0.152386	0.782244
C124	C	1.273033	0.652386	1.282244
C125	C	0.773030	0.152384	0.703442
C126	C	1.273030	0.652384	1.203442
C127	C	0.820355	0.100787	0.664029
C128	C	1.320355	0.600787	1.164029
H129	H	0.493296	-0.021841	-0.000195
H130	H	0.993296	0.478159	0.499805
N131	N	0.956010	-0.137736	-0.000239
N132	N	1.456010	0.362264	0.499761
H133	H	0.947231	-0.080336	-0.000232
H134	H	1.447231	0.419664	0.499768
H135	H	0.983435	-0.155579	0.046165
H136	H	1.483435	0.344421	0.546165
N137	N	0.918671	-0.006467	0.174806
N138	N	1.418671	0.493533	0.674806
H139	H	0.948650	-0.039151	0.211715
H140	H	1.448650	0.460849	0.711715
H141	H	0.892137	-0.039857	0.142134
H142	H	1.392137	0.460143	0.642134
N143	N	0.950176	-0.535035	-0.000254
N144	N	1.450176	-0.035035	0.499746
H145	H	0.953484	-0.502689	-0.046662
H146	H	1.453484	-0.002689	0.453338
H147	H	0.953432	-0.502738	0.046184
H148	H	1.453432	-0.002738	0.546184
H149	H	0.703632	-0.509501	-0.000204
H150	H	1.203632	-0.009501	0.499796
N151	N	0.947772	-0.699110	-0.000248
N152	N	1.447772	-0.199110	0.499752
H153	H	0.937350	-0.753707	-0.000248
H154	H	1.437350	-0.253707	0.499752
H155	H	0.975624	-0.689341	-0.046660
H156	H	1.475624	-0.189341	0.453340
N157	N	0.636536	-0.037821	-0.000155
N158	N	1.136536	0.462179	0.499845
H159	H	0.666945	-0.040416	0.046258
H160	H	1.166945	0.459584	0.546258
H161	H	0.607869	-0.082021	-0.000188
H162	H	1.107869	0.417979	0.499812
H163	H	0.707371	-0.255414	-0.000199
H164	H	1.207371	0.244586	0.499801
H165	H	0.266336	0.003866	-0.079822
H166	H	0.766336	0.503866	0.420178
H167	H	0.906206	0.007175	0.671318
H168	H	1.406206	0.507175	1.171318
H169	H	0.594260	0.230549	-0.000184
H170	H	1.094260	0.730549	0.499816
N171	N	0.801165	0.244124	0.581661
N172	N	1.301165	0.744124	1.081661
H173	H	0.802573	0.233664	0.637560
H174	H	1.302573	0.733664	1.137560
H175	H	0.839719	0.275543	0.567858
H176	H	1.339719	0.775543	1.067858
N177	N	0.918728	-0.006447	0.824688
N178	N	1.418728	0.493553	1.324688
H179	H	0.948710	-0.039125	0.787760
H180	H	1.448710	0.460875	1.287760
H181	H	0.949374	0.022466	0.857354
H182	H	1.449374	0.522466	1.357354
H183	H	0.397762	0.005964	-0.079797
H184	H	0.897762	0.505964	0.420203
N185	N	0.189637	-0.044958	-0.000252
N186	N	0.689637	0.455042	0.499748
H187	H	0.220045	-0.047554	0.046161
H188	H	0.720045	0.452446	0.546161
H189	H	0.160971	-0.089157	-0.000289
H190	H	0.660971	0.410843	0.499711
H191	H	0.242902	0.195599	0.079339
H192	H	0.742902	0.695599	0.579339
H193	H	0.709469	-0.112195	-0.000193
H194	H	1.209469	0.387805	0.499807
N195	N	0.953598	-0.301816	-0.000241
N196	N	1.453598	0.198184	0.499759
H197	H	0.981483	-0.292111	-0.046651
H198	H	1.481483	0.207889	0.453349
H199	H	0.981401	-0.292097	0.046195
H200	H	1.481401	0.207903	0.546195
H201	H	0.837073	-0.024330	0.428314
H202	H	1.337073	0.475670	0.928314
N203	N	0.684654	-0.660705	-0.000190
N204	N	1.184654	-0.160705	0.499810
H205	H	0.645099	-0.617871	-0.000185
H206	H	1.145099	-0.117871	0.499815
H207	H	0.681426	-0.693055	-0.046596
H208	H	1.181426	-0.193055	0.453404
H209	H	0.906175	0.007168	0.328185
H210	H	1.406175	0.507168	0.828185
N211	N	0.721997	0.208036	0.824751
N212	N	1.221997	0.708036	1.324751
H213	H	0.729180	0.200209	0.880646
H214	H	1.229180	0.700209	1.380646
H215	H	0.729924	0.261708	0.810965
H216	H	1.229924	0.761708	1.310965
H217	H	0.837081	-0.024326	0.571275
H218	H	1.337081	0.475674	1.071275
N219	N	0.721989	0.208028	0.660964
N220	N	1.221989	0.708028	1.160964
H221	H	0.692016	0.240716	0.697892
H222	H	1.192016	0.740716	1.197892
H223	H	0.748515	0.241415	0.628247
H224	H	1.248515	0.741415	1.128247
H225	H	0.015936	0.221308	-0.000277
H226	H	0.515936	0.721308	0.499723
N227	N	0.154727	0.241791	-0.000265
N228	N	0.654727	0.741791	0.499735
H229	H	0.115466	0.284946	-0.000270
H230	H	0.615466	0.784946	0.499730
H231	H	0.184397	0.245273	0.046148
H232	H	0.684397	0.745273	0.546148
H233	H	0.803586	0.225898	0.428293
H234	H	1.303586	0.725898	0.928293
H235	H	0.046401	-0.028984	-0.000319
H236	H	0.546401	0.471016	0.499681
H237	H	0.734471	0.194386	0.328252
H238	H	1.234471	0.694386	0.828252
N239	N	0.721942	0.208014	0.174873
N240	N	1.221942	0.708014	0.674873
H241	H	0.691967	0.240701	0.211801
H242	H	1.191967	0.740701	0.711801
H243	H	0.748469	0.241402	0.142159
H244	H	1.248469	0.741402	0.642159
H245	H	0.374336	0.197702	0.079362
H246	H	0.874336	0.697702	0.579362
N247	N	0.451031	0.246522	-0.000206
N248	N	0.951031	0.746522	0.499794
H249	H	0.479649	0.290764	-0.000206
H250	H	0.979649	0.790764	0.499794
H251	H	0.420636	0.249039	-0.046624
H252	H	0.920636	0.749039	0.453376
