data_functionalizedCrystal
_audit_creation_method	'MofGen! by Chris Wilmer'
_symmetry_space_group_name_H-M	'P1'
_symmetry_Int_Tables_number	1
_symmetry_cell_setting	triclinic
loop_
_symmetry_equiv_pos_as_xyz
  x,y,z
_cell_length_a	23.532361
_cell_length_b	22.010155
_cell_length_c	9.065218
_cell_angle_alpha	89.997969
_cell_angle_beta	83.922777
_cell_angle_gamma	89.988125
loop_
_atom_site_label
_atom_site_type_symbol
_atom_site_fract_x
_atom_site_fract_y
_atom_site_fract_z
O1	O	0.756599	-0.050462	0.178742
O2	O	1.256599	0.449538	0.678742
O3	O	0.590923	-0.050476	0.204724
O4	O	1.090923	0.449524	0.704724
O5	O	0.677185	-0.050468	-0.023080
O6	O	1.177185	0.449532	0.476920
O7	O	0.670336	-0.050471	0.406546
O8	O	1.170336	0.449529	0.906546
O9	O	0.677158	0.050583	-0.023077
O10	O	1.177158	0.550583	0.476923
O11	O	0.590895	0.050574	0.204726
O12	O	1.090895	0.550574	0.704726
O13	O	0.756572	0.050588	0.178744
O14	O	1.256572	0.550588	0.678744
Cu15	Cu	0.673731	0.059808	0.191736
Cu16	Cu	1.173731	0.559808	0.691736
Cu17	Cu	0.673763	-0.059696	0.191733
Cu18	Cu	1.173763	0.440304	0.691733
O19	O	0.670309	0.050580	0.406548
O20	O	1.170309	0.550580	0.906548
C21	C	0.569688	0.000047	0.204075
C22	C	1.069688	0.500047	0.704075
C23	C	0.506455	0.000042	0.202118
C24	C	1.006455	0.500042	0.702118
N25	N	0.673713	0.143860	0.191736
N26	N	1.173713	0.643860	0.691736
C27	C	0.233163	-0.055037	0.193561
C28	C	0.733163	0.444963	0.693561
C29	C	0.292576	-0.055039	0.195412
C30	C	0.792576	0.444961	0.695412
O31	O	0.323322	-0.101883	0.196318
O32	O	0.823322	0.398117	0.696318
N33	N	0.322274	0.000044	0.196349
N34	N	0.822274	0.500044	0.696349
C35	C	0.292556	0.055132	0.195419
C36	C	0.792556	0.555132	0.695419
O37	O	0.323272	0.101984	0.196384
O38	O	0.823272	0.601984	0.696384
C39	C	0.233144	0.055133	0.193556
C40	C	0.733144	0.555133	0.693556
C41	C	0.203449	0.000046	0.192635
C42	C	0.703449	0.500046	0.692635
C43	C	0.203468	-0.110119	0.192637
C44	C	0.703468	0.389881	0.692637
C45	C	0.144058	-0.110117	0.190788
C46	C	0.644058	0.389883	0.690788
C47	C	0.114344	-0.055034	0.189863
C48	C	0.614344	0.444966	0.689863
C49	C	0.144040	0.000048	0.190786
C50	C	0.644040	0.500048	0.690786
C51	C	0.203428	0.110220	0.192615
C52	C	0.703428	0.610220	0.692615
C53	C	0.144012	0.110216	0.190752
C54	C	0.644012	0.610216	0.690752
C55	C	0.114317	0.055130	0.189830
C56	C	0.614317	0.555130	0.689830
C57	C	0.054916	0.055134	0.188011
C58	C	0.554916	0.555134	0.688011
N59	N	0.025218	0.000051	0.187075
N60	N	0.525218	0.500051	0.687075
C61	C	0.054933	-0.055033	0.188000
C62	C	0.554933	0.444967	0.688000
C63	C	0.417325	0.055126	0.199327
C64	C	0.917325	0.555126	0.699327
C65	C	0.476735	0.055126	0.201200
C66	C	0.976735	0.555126	0.701200
C67	C	0.476752	-0.055045	0.201191
C68	C	0.976752	0.444955	0.701191
C69	C	0.417340	-0.055044	0.199329
C70	C	0.917340	0.444956	0.699329
C71	C	0.387627	0.000043	0.198391
C72	C	0.887627	0.500043	0.698391
C73	C	-0.069832	-0.055025	0.184119
C74	C	0.430168	0.444975	0.684119
C75	C	-0.129246	-0.055018	0.182276
C76	C	0.370754	0.444982	0.682276
C77	C	-0.129257	0.055152	0.182277
C78	C	0.370743	0.555152	0.682277
C79	C	-0.069848	0.055146	0.184128
C80	C	0.430152	0.555146	0.684128
C81	C	-0.040136	0.000052	0.185044
C82	C	0.459864	0.500052	0.685044
O83	O	0.024134	0.101954	0.187098
O84	O	0.524134	0.601954	0.687098
O85	O	0.024210	-0.101877	0.187015
O86	O	0.524210	0.398123	0.687015
C87	C	0.708758	0.563642	0.280732
C88	C	1.208758	1.063642	0.780732
C89	C	0.708764	0.627250	0.280730
C90	C	1.208764	1.127250	0.780730
O91	O	0.738543	0.660144	0.356381
O92	O	1.238543	1.160144	0.856381
N93	N	0.673768	0.659068	0.191731
N94	N	1.173768	1.159068	0.691731
C95	C	0.638768	0.627274	0.102718
C96	C	1.138768	1.127274	0.602718
O97	O	0.609003	0.660178	0.027017
O98	O	1.109003	1.160178	0.527017
C99	C	0.638766	0.563668	0.102714
C100	C	1.138766	1.063668	0.602714
C101	C	0.673759	0.531854	0.191729
C102	C	1.173759	1.031854	0.691729
C103	C	0.743749	0.531828	0.369739
C104	C	1.243749	1.031828	0.869739
C105	C	0.743742	0.468225	0.369744
C106	C	1.243742	0.968225	0.869744
C107	C	0.708744	0.436436	0.280740
C108	C	1.208744	0.936436	0.780740
C109	C	0.673752	0.468250	0.191733
C110	C	1.173752	0.968250	0.691733
C111	C	0.603769	0.531876	0.013693
C112	C	1.103769	1.031876	0.513693
C113	C	0.603770	0.468265	0.013696
C114	C	1.103770	0.968265	0.513696
C115	C	0.638764	0.436451	0.102711
C116	C	1.138764	0.936451	0.602711
C117	C	0.638747	0.372858	0.102734
C118	C	1.138747	0.872858	0.602734
N119	N	0.673742	0.341041	0.191733
N120	N	1.173742	0.841041	0.691733
C121	C	0.708741	0.372830	0.280736
C122	C	1.208741	0.872830	0.780736
C123	C	0.638778	0.760852	0.102733
C124	C	1.138778	1.260852	0.602733
C125	C	0.638777	0.824457	0.102744
C126	C	1.138777	1.324457	0.602744
C127	C	0.708773	0.824429	0.280754
C128	C	1.208773	1.324429	0.780754
C129	C	0.708771	0.760822	0.280750
C130	C	1.208771	1.260822	0.780750
C131	C	0.673773	0.729034	0.191731
C132	C	1.173773	1.229034	0.691731
C133	C	0.708723	0.239258	0.280739
C134	C	1.208723	0.739258	0.780739
C135	C	0.708711	0.175649	0.280739
C136	C	1.208711	0.675649	0.780739
C137	C	0.638717	0.175684	0.102724
C138	C	1.138717	0.675684	0.602724
C139	C	0.638727	0.239287	0.102729
C140	C	1.138727	0.739287	0.602729
C141	C	0.673734	0.271073	0.191740
C142	C	1.173734	0.771073	0.691740
O143	O	0.608985	0.339924	0.027118
O144	O	1.108985	0.839924	0.527118
O145	O	0.738507	0.339918	0.356410
O146	O	1.238507	0.839918	0.856410
C147	C	0.777807	0.000064	0.179394
C148	C	1.277807	0.500064	0.679394
C149	C	0.841039	0.000065	0.181350
C150	C	1.341039	0.500065	0.681350
C151	C	0.676513	0.000057	-0.078032
C152	C	1.176513	0.500057	0.421968
C153	C	0.674545	0.000054	-0.241777
C154	C	1.174545	0.500054	0.258223
N155	N	0.673778	0.856252	0.191742
N156	N	1.173778	1.356252	0.691742
C157	C	0.670981	0.000054	0.461501
C158	C	1.170981	0.500054	0.961501
C159	C	0.672949	0.000053	0.625246
C160	C	1.172949	0.500053	1.125246
H161	H	-0.153422	-0.099878	0.181530
H162	H	0.346578	0.400122	0.681530
O163	O	0.111838	0.169570	0.190301
O164	O	0.611838	0.669570	0.690301
H165	H	0.089222	0.172305	0.089093
H166	H	0.589222	0.672305	0.589093
O167	O	0.600979	0.273605	0.006737
O168	O	1.100979	0.773605	0.506737
H169	H	0.627875	0.302576	-0.072916
H170	H	1.127875	0.802576	0.427084
O171	O	0.601008	0.141392	0.006628
O172	O	1.101008	0.641392	0.506628
H173	H	0.606904	0.091819	0.021545
H174	H	1.106904	0.591819	0.521545
O175	O	0.235444	0.169638	0.193603
O176	O	0.735444	0.669638	0.693603
H177	H	0.281751	0.160395	0.195061
H178	H	0.781751	0.660395	0.695061
O179	O	0.746481	0.273530	0.376750
O180	O	1.246481	0.773530	0.876750
H181	H	0.776734	0.302494	0.305621
H182	H	1.276734	0.802494	0.805621
H183	H	0.575271	0.442387	-0.058797
H184	H	1.075271	0.942387	0.441203
O185	O	0.781491	0.433919	0.465748
O186	O	1.281491	0.933919	0.965748
H187	H	0.775611	0.384347	0.450819
H188	H	1.275611	0.884347	0.950819
H189	H	-0.045670	0.100002	0.184908
H190	H	0.454330	0.600002	0.684908
H191	H	0.393166	-0.099901	0.198578
H192	H	0.893166	0.400099	0.698578
H193	H	-0.045647	-0.099887	0.184866
H194	H	0.454353	0.400113	0.684866
H195	H	0.500956	-0.099897	0.201944
H196	H	1.000956	0.400103	0.701944
H197	H	0.610275	0.850355	0.030276
H198	H	1.110275	1.350355	0.530276
O199	O	0.112036	-0.169532	0.189712
O200	O	0.612036	0.330468	0.689712
H201	H	0.142689	-0.207830	0.190628
H202	H	0.642689	0.292170	0.690628
O203	O	0.746526	0.858722	0.376748
O204	O	1.246526	1.358722	0.876748
H205	H	0.791873	0.846497	0.344032
H206	H	1.291873	1.346497	0.844032
O207	O	0.601019	0.726567	0.006739
O208	O	1.101019	1.226567	0.506739
H209	H	0.576683	0.759382	-0.055127
H210	H	1.076683	1.259382	0.444873
O211	O	0.566036	0.566191	-0.082325
O212	O	1.066036	1.066191	0.417675
H213	H	0.592943	0.595162	-0.161955
H214	H	1.092943	1.095162	0.338045
O215	O	-0.161485	0.114475	0.182013
O216	O	0.338515	0.614475	0.682013
H217	H	-0.184136	0.117231	0.080868
H218	H	0.315864	0.617231	0.580868
O219	O	0.235512	-0.169535	0.193647
O220	O	0.735512	0.330465	0.693647
H221	H	0.204872	-0.207831	0.192703
H222	H	0.704872	0.292169	0.692703
H223	H	0.500907	0.099983	0.201975
H224	H	1.000907	0.599983	0.701975
H225	H	0.393136	0.099988	0.198583
H226	H	0.893136	0.599988	0.698583
H227	H	0.737207	0.149749	0.353234
H228	H	1.237207	0.649749	0.853234
H229	H	0.772252	0.557704	0.442217
H230	H	1.272252	1.057704	0.942217
O231	O	0.746516	0.726509	0.376748
O232	O	1.246516	1.226509	0.876748
H233	H	0.770853	0.759306	0.438628
H234	H	1.270853	1.259306	0.938628
