data_functionalizedCrystal
_audit_creation_method	'MofGen! by Chris Wilmer'
_symmetry_space_group_name_H-M	'P1'
_symmetry_Int_Tables_number	1
_symmetry_cell_setting	triclinic
loop_
_symmetry_equiv_pos_as_xyz
  x,y,z
_cell_length_a	19.805405
_cell_length_b	19.805407
_cell_length_c	19.805399
_cell_angle_alpha	89.982197
_cell_angle_beta	89.970699
_cell_angle_gamma	90.023727
loop_
_atom_site_label
_atom_site_type_symbol
_atom_site_fract_x
_atom_site_fract_y
_atom_site_fract_z
Zn1	Zn	-0.269527	1.034736	-0.382680
Zn2	Zn	-0.382716	1.034650	-0.269488
Zn3	Zn	-0.269541	0.921550	-0.269508
Zn4	Zn	-0.382674	0.921514	-0.382638
O5	O	-0.326115	0.978113	-0.326078
O6	O	-0.284554	1.129441	-0.367674
O7	O	-0.367726	1.019627	-0.174774
O8	O	-0.174822	0.936615	-0.284546
O9	O	-0.367713	1.129378	-0.284512
O10	O	-0.174813	1.019772	-0.367693
O11	O	-0.284576	0.936533	-0.174788
O12	O	-0.284536	0.826829	-0.284506
O13	O	-0.367642	0.936553	-0.477360
O14	O	-0.367655	0.826802	-0.367622
O15	O	-0.284514	1.019737	-0.477391
O16	O	-0.477427	1.019592	-0.284472
O17	O	-0.477397	0.936471	-0.367603
C18	C	-0.326093	0.802257	-0.326062
C19	C	-0.326101	0.727025	-0.326071
C20	C	-0.282876	0.691714	-0.369439
C21	C	-0.282880	0.621025	-0.369442
C22	C	-0.326112	0.585649	-0.326079
C23	C	-0.369338	0.620965	-0.282706
C24	C	-0.369330	0.691652	-0.282701
C25	C	-0.369368	0.335892	-0.282727
C26	C	-0.369374	0.265199	-0.282737
C27	C	-0.282918	0.265265	-0.369468
C28	C	-0.282910	0.335952	-0.369462
C29	C	-0.326134	0.371262	-0.326087
C30	C	-0.326128	0.447910	-0.326084
C31	C	-0.326121	0.509002	-0.326085
C32	C	-0.501971	0.978036	-0.326046
C33	C	-0.577203	0.978066	-0.326054
C34	C	-0.612540	1.021389	-0.282813
C35	C	-0.683228	1.021418	-0.282828
C36	C	-0.718578	0.978119	-0.326081
C37	C	-0.683236	0.934794	-0.369327
C38	C	-0.612549	0.934769	-0.369315
C39	C	-0.968309	0.934894	-0.369377
C40	C	-1.039001	0.934921	-0.369384
C41	C	-1.038989	1.021542	-0.282890
C42	C	-0.968302	1.021517	-0.282878
C43	C	-0.932965	0.978195	-0.326126
C44	C	-0.856317	0.978165	-0.326110
C45	C	-0.795225	0.978145	-0.326094
C46	C	-0.149572	0.978207	-0.326126
C47	C	-0.074340	0.978248	-0.326146
C48	C	-0.326072	0.978151	-0.502621
C49	C	-0.326054	0.978167	-0.577853
C50	C	-0.326136	1.154655	-0.326095
C51	C	-0.326146	1.229887	-0.326102
C52	C	-0.282767	1.021481	-0.613214
C53	C	-0.282747	1.021488	-0.683903
C54	C	-0.326018	0.978184	-0.719229
C55	C	-0.369308	0.934864	-0.683863
C56	C	-0.369323	0.934854	-0.613176
C57	C	-0.369244	0.934902	-0.968936
C58	C	-0.369227	0.934917	-1.039628
C59	C	-0.282668	1.021536	-1.039663
C60	C	-0.282684	1.021527	-0.968976
C61	C	-0.325970	0.978205	-0.933616
C62	C	-0.325990	0.978197	-0.856968
C63	C	-0.326002	0.978194	-0.795876
C64	C	-0.326108	0.978114	-0.150222
C65	C	-0.325936	0.978229	-0.074991
H66	H	-0.404564	0.364632	-0.247409
C67	C	-0.250082	0.357770	-0.484133
C68	C	-0.235387	0.374835	-0.417127
H69	H	-0.220738	0.381772	-0.513557
H70	H	-0.295564	0.369349	-0.493952
H71	H	-0.243899	0.310617	-0.490334
H72	H	-0.241575	0.421988	-0.410924
H73	H	-0.189894	0.363261	-0.407305
C74	C	-0.704954	0.901770	-0.483915
C75	C	-0.722092	0.887202	-0.416874
H76	H	-0.728946	0.872389	-0.513267
H77	H	-0.657804	0.895552	-0.490093
H78	H	-0.716501	0.947247	-0.493853
H79	H	-0.710541	0.841726	-0.406934
H80	H	-0.769253	0.893415	-0.410692
H81	H	-0.247500	1.056761	-0.712691
C82	C	-0.590834	1.054421	-0.168226
C83	C	-0.573687	1.068984	-0.235266
H84	H	-0.566851	1.083810	-0.138874
H85	H	-0.579287	1.008952	-0.158282
H86	H	-0.637991	1.060638	-0.162055
H87	H	-0.526530	1.062762	-0.241438
H88	H	-0.585230	1.114464	-0.245214
H89	H	-0.247721	0.236507	-0.404783
H90	H	-0.404580	0.236398	-0.247424
H91	H	-0.404565	0.899576	-0.584385
H92	H	-0.404465	0.899650	-1.068389
C93	C	-1.060662	1.136189	-0.250025
C94	C	-1.077824	1.069177	-0.235355
H95	H	-1.084631	1.165594	-0.220675
H96	H	-1.072214	1.146067	-0.295506
H97	H	-1.013501	1.142352	-0.243831
H98	H	-1.124984	1.063013	-0.241554
H99	H	-1.066276	1.059295	-0.189863
H100	H	-0.404535	0.592156	-0.247397
C101	C	-0.454800	0.684492	-0.196977
C102	C	-0.416849	0.730469	-0.235034
H103	H	-0.484138	0.708457	-0.167551
H104	H	-0.425280	0.656923	-0.171143
H105	H	-0.480729	0.656923	-0.226430
H106	H	-0.390915	0.758034	-0.205581
H107	H	-0.446372	0.758049	-0.260870
H108	H	-0.247420	1.056809	-1.068462
H109	H	-0.583777	0.899492	-0.404527
H110	H	-0.711997	1.056695	-0.247617
H111	H	-0.939522	1.056773	-0.247655
C112	C	-0.859962	0.896393	-0.407776
C113	C	-0.929472	0.887272	-0.416911
H114	H	-0.835986	0.866994	-0.437126
H115	H	-0.848417	0.886508	-0.362294
H116	H	-0.848343	0.941862	-0.417723
H117	H	-0.941092	0.841804	-0.406959
H118	H	-0.941023	0.897153	-0.462403
H119	H	-0.247532	1.056747	-0.584457
H120	H	-0.247684	0.592278	-0.404757
C121	C	-1.031917	0.849302	-0.454900
C122	C	-1.077859	0.887330	-0.416938
H123	H	-1.055908	0.819927	-0.484258
H124	H	-1.004387	0.823415	-0.425387
H125	H	-1.004305	0.878777	-0.480808
H126	H	-1.105468	0.857855	-0.391025
H127	H	-1.105400	0.913218	-0.446454
C128	C	-0.197113	1.107145	-0.976113
C129	C	-0.235116	1.069126	-0.930147
H130	H	-0.167742	1.136526	-0.952140
H131	H	-0.226599	1.133025	-1.003676
H132	H	-0.171216	1.077665	-1.003688
H133	H	-0.261017	1.098606	-0.902574
H134	H	-0.205627	1.043244	-0.902571
C135	C	-0.454789	0.849268	-0.976012
C136	C	-0.416816	0.887275	-0.930075
H137	H	-0.484158	0.819863	-0.952017
H138	H	-0.425285	0.823413	-1.003593
H139	H	-0.480687	0.878753	-1.003573
H140	H	-0.390914	0.857790	-0.902517
H141	H	-0.446324	0.913132	-0.902482
H142	H	-0.404538	0.899602	-0.712631
H143	H	-0.247674	0.720512	-0.404752
