data_functionalizedCrystal
_audit_creation_method	'MofGen! by Chris Wilmer'
_symmetry_space_group_name_H-M	'P1'
_symmetry_Int_Tables_number	1
_symmetry_cell_setting	triclinic
loop_
_symmetry_equiv_pos_as_xyz
  x,y,z
_cell_length_a	12.827893
_cell_length_b	12.827892
_cell_length_c	12.827885
_cell_angle_alpha	90.029786
_cell_angle_beta	89.983682
_cell_angle_gamma	89.981825
loop_
_atom_site_label
_atom_site_type_symbol
_atom_site_fract_x
_atom_site_fract_y
_atom_site_fract_z
Zn1	Zn	1.597670	0.415905	-0.590766
Zn2	Zn	1.597564	0.590682	-0.416027
Zn3	Zn	1.422911	0.415964	-0.416049
Zn4	Zn	1.422896	0.590613	-0.590736
O5	O	1.510260	0.503291	-0.503394
O6	O	1.743892	0.439094	-0.567590
O7	O	1.574357	0.567559	-0.269793
O8	O	1.446144	0.269720	-0.439248
O9	O	1.743814	0.567502	-0.439210
O10	O	1.574538	0.269677	-0.567612
O11	O	1.446041	0.439195	-0.269810
O12	O	1.276673	0.439128	-0.439218
O13	O	1.446118	0.567384	-0.736976
O14	O	1.276662	0.567441	-0.567560
O15	O	1.574524	0.439026	-0.736998
O16	O	1.574343	0.736909	-0.439180
O17	O	1.446016	0.736858	-0.567538
C18	C	1.238750	0.503284	-0.503388
C19	C	1.122597	0.503307	-0.503411
C20	C	1.510195	0.774801	-0.503376
C21	C	1.510262	0.890954	-0.503403
C22	C	1.510331	0.503191	-0.775965
C23	C	1.510362	0.503148	-0.892118
C24	C	1.782830	0.503299	-0.503401
C25	C	1.898983	0.503302	-0.503404
C26	C	1.950807	0.439770	-0.566925
C27	C	2.070857	0.439771	-0.566929
C28	C	1.510354	0.230721	-0.503436
C29	C	1.510394	0.114568	-0.503453
C30	C	1.573838	0.942729	-0.439958
C31	C	1.573910	1.062780	-0.439984
C32	C	1.573907	0.439620	-0.943914
C33	C	1.573940	0.439575	-1.063964
C34	C	1.510249	0.503316	-0.231884
C35	C	1.510422	0.503064	-0.115732
H36	H	1.906298	0.385380	-0.621309
O37	O	1.438321	0.575145	-0.951099
H38	H	1.391760	0.621681	-0.894896
O39	O	1.957934	0.575353	-0.431366
H40	H	1.901711	0.621896	-0.384838
H41	H	2.078037	0.557700	-0.449023
O42	O	2.129876	0.367716	-0.638973
H43	H	2.214906	0.379030	-0.627676
O44	O	1.645895	0.883734	-0.367997
H45	H	1.634538	0.798699	-0.379276
H46	H	1.628348	0.385190	-1.108507
H47	H	1.455890	0.935504	-0.557744
H48	H	1.628336	1.107305	-0.385664
H49	H	1.455957	1.070050	-0.557770
O50	O	1.645953	0.367622	-0.884941
H51	H	1.634630	0.378965	-0.799903
O52	O	1.438332	0.575109	-1.056758
H53	H	1.485101	0.628257	-1.007013
