data_functionalizedCrystal
_audit_creation_method	'MofGen! by Chris Wilmer'
_symmetry_space_group_name_H-M	'P1'
_symmetry_Int_Tables_number	1
_symmetry_cell_setting	triclinic
loop_
_symmetry_equiv_pos_as_xyz
  x,y,z
_cell_length_a	8.597340
_cell_length_b	17.019294
_cell_length_c	7.088929
_cell_angle_alpha	79.934307
_cell_angle_beta	103.954719
_cell_angle_gamma	84.889715
loop_
_atom_site_label
_atom_site_type_symbol
_atom_site_fract_x
_atom_site_fract_y
_atom_site_fract_z
O1	O	2.099265	0.109255	0.168841
O2	O	1.634332	0.122242	0.090111
O3	O	1.881731	-0.000067	0.151012
O4	O	1.851867	0.231565	0.107940
O5	O	1.914794	-0.016450	0.477132
O6	O	1.667395	0.105860	0.416231
O7	O	2.132328	0.092873	0.494961
Cu8	Cu	1.902881	0.097870	0.485373
Cu9	Cu	1.863780	0.117245	0.099699
O10	O	1.884930	0.215182	0.434060
C11	C	1.591410	0.113569	0.243456
C12	C	1.414256	0.112123	0.214510
C13	C	1.897782	-0.037896	0.318871
C14	C	1.896332	-0.126207	0.333165
C15	C	1.877632	-0.158761	0.162115
C16	C	1.876260	-0.241738	0.175551
C17	C	1.893600	-0.292160	0.360041
C18	C	1.912296	-0.259601	0.531104
C19	C	1.913657	-0.176624	0.517664
C20	C	1.890384	-0.543141	0.409512
C21	C	1.889027	-0.626123	0.422940
C22	C	1.852987	-0.608254	0.067385
C23	C	1.854359	-0.525278	0.053963
C24	C	1.873047	-0.492725	0.225024
C25	C	1.892203	-0.376977	0.373780
C26	C	1.874432	-0.407909	0.211281
C27	C	2.175250	0.101546	0.341612
C28	C	2.352402	0.102993	0.370545
C29	C	1.868878	0.253011	0.266197
C30	C	1.870327	0.341323	0.251889
N31	N	1.930394	0.084243	0.756638
N32	N	1.836279	0.130865	-0.171563
H33	H	1.863521	-0.117713	0.011885
H34	H	1.434976	0.096277	0.526286
C35	C	2.060363	0.019704	0.897301
C36	C	2.030769	-0.055945	0.856304
C37	C	2.150469	-0.115416	0.985824
H38	H	2.058605	0.020528	1.030412
H39	H	2.163403	0.029849	0.879829
H40	H	1.927756	-0.066088	0.873793
H41	H	2.032542	-0.056796	0.723218
H42	H	2.253509	-0.105271	0.968352
H43	H	2.148701	-0.114585	1.118927
H44	H	2.130414	-0.166750	0.958014
H45	H	1.331675	0.118834	0.058760
H46	H	1.903139	-0.667175	0.573180
H47	H	1.861039	-0.268240	0.036264
H48	H	1.840241	-0.484229	-0.096268
H49	H	1.837769	-0.634768	-0.071883
C50	C	1.706174	0.195357	0.687872
C51	C	1.623821	0.236181	0.797888
C52	C	1.503971	0.295604	0.668456
H53	H	1.631979	0.170903	0.601594
H54	H	1.754944	0.232440	0.611741
H55	H	1.575052	0.199104	0.873985
H56	H	1.697972	0.260653	0.884159
H57	H	1.552741	0.332687	0.592325
H58	H	1.429788	0.271142	0.582185
H59	H	1.448090	0.323315	0.743083
C60	C	1.910936	-0.507705	0.595105
C61	C	2.050148	-0.469617	0.621848
C62	C	2.069128	-0.436948	0.792783
H63	H	1.921180	-0.549538	0.707079
H64	H	1.819135	-0.469534	0.580923
H65	H	2.141927	-0.507784	0.636045
H66	H	2.039937	-0.427774	0.509918
H67	H	1.977327	-0.398777	0.778601
H68	H	2.079366	-0.478786	0.904744
H69	H	2.163575	-0.411095	0.810941
C70	C	1.855348	-0.353063	0.011054
C71	C	1.717688	-0.295854	-0.031137
C72	C	1.700064	-0.245304	-0.215560
H73	H	1.843916	-0.384232	-0.089088
H74	H	1.948205	-0.326397	0.014728
H75	H	1.624853	-0.322518	-0.034826
H76	H	1.729087	-0.264666	0.068956
H77	H	1.792921	-0.218638	-0.211885
H78	H	1.688638	-0.276480	-0.315686
H79	H	1.606671	-0.206478	-0.244202
H80	H	1.926405	-0.300660	0.681318
H81	H	1.928862	-0.150119	0.656948
H82	H	1.906326	-0.418040	0.523994
