data_functionalizedCrystal
_audit_creation_method	'MofGen! by Chris Wilmer'
_symmetry_space_group_name_H-M	'P1'
_symmetry_Int_Tables_number	1
_symmetry_cell_setting	triclinic
loop_
_symmetry_equiv_pos_as_xyz
  x,y,z
_cell_length_a	16.120530
_cell_length_b	18.101395
_cell_length_c	16.120256
_cell_angle_alpha	92.874436
_cell_angle_beta	90.128265
_cell_angle_gamma	87.126665
loop_
_atom_site_label
_atom_site_type_symbol
_atom_site_fract_x
_atom_site_fract_y
_atom_site_fract_z
Zn1	Zn	1.247384	-0.375205	-0.534567
Zn2	Zn	1.254317	-0.493093	-0.395509
Zn3	Zn	1.115376	-0.362686	-0.388485
Zn4	Zn	1.108274	-0.492415	-0.527479
O5	O	1.181338	-0.430850	-0.461510
O6	O	1.364669	-0.396365	-0.522027
O7	O	1.241760	-0.470839	-0.278212
O8	O	1.132958	-0.260718	-0.407890
O9	O	1.369763	-0.482978	-0.419862
O10	O	1.229944	-0.269915	-0.515216
O11	O	1.139681	-0.375030	-0.273051
O12	O	0.998069	-0.374372	-0.401017
O13	O	1.120853	-0.481821	-0.644785
O14	O	0.992850	-0.469683	-0.503135
O15	O	1.223057	-0.395708	-0.649993
O16	O	1.234873	-0.596632	-0.412989
O17	O	1.127576	-0.596133	-0.509947
C18	C	0.965287	-0.420596	-0.450545
C19	C	0.872859	-0.416229	-0.445874
C20	C	0.703630	-0.408237	-0.437352
C21	C	0.659882	-0.453519	-0.485729
C22	C	0.565718	-0.449073	-0.480988
C23	C	0.797803	-0.412683	-0.442092
C24	C	1.181228	-0.623254	-0.461480
C25	C	1.181255	-0.705570	-0.461499
C26	C	1.181435	-1.004672	-0.461553
C27	C	1.114068	-0.973078	-0.522723
C28	C	1.113773	-0.887437	-0.522506
C29	C	1.181346	-0.856284	-0.461527
C30	C	1.162064	-0.882558	-0.372687
C31	C	1.161631	-0.968200	-0.373052
C32	C	1.268265	-0.978145	-0.488458
C33	C	1.267650	-0.892552	-0.490354
C34	C	1.181297	-0.772421	-0.461507
C35	C	1.181483	-1.088534	-0.461567
C36	C	1.398232	-0.441144	-0.472519
C37	C	1.490659	-0.445530	-0.477210
C38	C	1.170389	-0.440085	-0.678405
C39	C	1.165723	-0.444021	-0.770833
C40	C	1.181470	-0.237696	-0.461560
C41	C	1.181526	-0.155385	-0.461581
C42	C	1.205667	-0.410307	-0.983817
C43	C	1.157177	-0.451174	-0.940053
C44	C	1.161934	-0.447193	-0.845890
C45	C	1.200912	-0.414287	-1.077988
C46	C	1.192292	-0.421599	-0.245461
C47	C	1.197118	-0.417462	-0.153042
H48	H	1.125322	-0.869858	-0.588241
H49	H	1.250750	-0.372332	-0.950568
C50	C	1.335235	-1.005387	-0.429198
C51	C	1.412245	-0.981401	-0.453788
C52	C	1.473947	-1.006477	-0.399208
H53	H	1.337263	-1.057959	-0.430192
H54	H	1.322827	-0.986081	-0.374495
H55	H	1.424650	-1.000710	-0.508476
H56	H	1.410244	-0.928832	-0.452789
H57	H	1.461539	-0.987171	-0.344505
H58	H	1.475968	-1.059049	-0.400207
H59	H	1.526204	-0.990200	-0.415880
H60	H	0.693148	-0.495625	-0.530708
H61	H	1.049324	-0.863287	-0.504333
C62	C	0.659130	-0.352173	-0.377402
C63	C	0.573228	-0.358877	-0.384542
C64	C	0.532197	-0.307252	-0.329321
H65	H	0.672624	-0.303572	-0.390307
H66	H	0.676065	-0.361217	-0.322188
H67	H	0.556299	-0.349827	-0.439744
H68	H	0.559709	-0.407466	-0.371629
H69	H	0.549133	-0.316297	-0.274106
H70	H	0.545699	-0.258655	-0.342231
H71	H	0.473909	-0.311798	-0.334152
H72	H	1.098292	-0.984382	-0.350778
C73	C	1.225743	-0.855338	-0.310109
C74	C	1.283598	-0.814376	-0.350334
C75	C	1.342266	-0.789280	-0.292714
H76	H	1.253554	-0.896556	-0.286087
H77	H	1.198481	-0.824869	-0.267763
H78	H	1.310858	-0.844845	-0.392665
H79	H	1.255813	-0.773148	-0.374353
H80	H	1.315003	-0.758811	-0.250368
H81	H	1.370069	-0.830503	-0.268694
H82	H	1.381523	-0.761479	-0.319996
C83	C	1.129357	-1.005241	-0.610583
C84	C	1.199585	-1.054026	-0.611368
C85	C	1.213688	-1.083684	-0.692289
H86	H	1.138214	-0.966319	-0.646446
H87	H	1.082429	-1.031203	-0.629076
H88	H	1.246503	-1.028065	-0.592887
H89	H	1.190746	-1.092961	-0.575523
H90	H	1.166759	-1.109646	-0.710782
H91	H	1.222541	-1.044757	-0.728145
H92	H	1.261333	-1.116792	-0.692832
H93	H	1.282271	-0.875798	-0.555757
C94	C	1.097206	-0.501929	-0.984429
C95	C	1.141804	-0.553704	-1.036667
C96	C	1.086595	-0.600481	-1.077553
H97	H	1.059288	-0.473387	-1.016542
H98	H	1.067427	-0.527094	-0.944609
H99	H	1.171568	-0.528541	-1.076482
H100	H	1.179718	-0.582264	-1.004575
H101	H	1.056817	-0.625646	-1.037733
H102	H	1.048681	-0.571932	-1.109661
H103	H	1.116847	-0.635620	-1.112995
C104	C	1.028711	-0.997070	-0.498752
C105	C	1.028618	-1.074512	-0.502830
C106	C	0.950008	-1.096641	-0.480739
H107	H	0.988301	-0.977827	-0.535979
H108	H	1.015867	-0.978801	-0.443761
H109	H	1.041452	-1.092773	-0.557813
H110	H	1.069011	-1.093774	-0.465604
H111	H	0.937163	-1.078373	-0.425748
H112	H	0.909603	-1.077394	-0.517968
H113	H	0.949936	-1.149187	-0.483496
C114	C	1.224422	-0.995782	-0.309762
C115	C	1.202770	-0.965238	-0.230787
C116	C	1.260582	-0.990640	-0.172464
H117	H	1.278165	-0.981259	-0.324016
H118	H	1.224571	-1.048262	-0.309507
H119	H	1.202629	-0.912769	-0.231043
H120	H	1.149036	-0.979758	-0.216507
H121	H	1.260731	-1.043120	-0.172210
H122	H	1.314321	-0.976115	-0.186726
H123	H	1.245894	-0.969925	-0.118872
C124	C	1.078490	-0.849073	-0.342524
C125	C	1.025548	-0.905906	-0.327397
C126	C	0.948555	-0.875090	-0.299605
H127	H	1.054694	-0.818842	-0.383738
H128	H	1.085973	-0.819855	-0.292705
H129	H	1.018063	-0.935112	-0.377211
H130	H	1.049318	-0.936142	-0.286178
H131	H	0.956037	-0.845872	-0.249786
H132	H	0.924766	-0.844860	-0.340823
H133	H	0.912626	-0.913647	-0.289331
H134	H	1.286710	-1.003408	-0.552370
H135	H	1.320141	-0.871660	-0.449403
