data_functionalizedCrystal
_audit_creation_method	'MofGen! by Chris Wilmer'
_symmetry_space_group_name_H-M	'P1'
_symmetry_Int_Tables_number	1
_symmetry_cell_setting	triclinic
loop_
_symmetry_equiv_pos_as_xyz
  x,y,z
_cell_length_a	13.897449
_cell_length_b	18.101395
_cell_length_c	13.897441
_cell_angle_alpha	89.970274
_cell_angle_beta	89.981404
_cell_angle_gamma	90.032384
loop_
_atom_site_label
_atom_site_type_symbol
_atom_site_fract_x
_atom_site_fract_y
_atom_site_fract_z
Zn1	Zn	1.474592	-0.294788	-0.545380
Zn2	Zn	1.724592	-0.044788	-0.295380
Zn3	Zn	1.974592	0.205212	-0.045380
Zn4	Zn	2.224592	0.455212	0.204620
Zn5	Zn	1.474455	-0.418641	-0.384082
Zn6	Zn	1.724455	-0.168641	-0.134082
Zn7	Zn	1.974455	0.081359	0.115918
Zn8	Zn	2.224455	0.331359	0.365918
Zn9	Zn	1.313288	-0.294821	-0.384099
Zn10	Zn	1.563288	-0.044821	-0.134099
Zn11	Zn	1.813288	0.205179	0.115901
Zn12	Zn	2.063288	0.455179	0.365901
Zn13	Zn	1.313225	-0.418595	-0.545334
Zn14	Zn	1.563225	-0.168595	-0.295334
Zn15	Zn	1.813225	0.081405	-0.045334
Zn16	Zn	2.063225	0.331405	0.204666
O17	O	1.393890	-0.356711	-0.464724
O18	O	1.643890	-0.106711	-0.214724
O19	O	1.893890	0.143289	0.035276
O20	O	2.143890	0.393289	0.285276
O21	O	1.609556	-0.311223	-0.523996
O22	O	1.859556	-0.061223	-0.273996
O23	O	2.109556	0.188777	-0.023996
O24	O	2.359556	0.438777	0.226004
O25	O	1.453044	-0.402250	-0.249102
O26	O	1.703044	-0.152250	0.000898
O27	O	1.953044	0.097750	0.250898
O28	O	2.203044	0.347750	0.500898
O29	O	1.334769	-0.191184	-0.405520
O30	O	1.584769	0.058816	-0.155520
O31	O	1.834769	0.308816	0.094480
O32	O	2.084769	0.558816	0.344480
O33	O	1.609455	-0.402218	-0.405490
O34	O	1.859455	-0.152218	-0.155490
O35	O	2.109455	0.097782	0.094510
O36	O	2.359455	0.347782	0.344510
O37	O	1.453279	-0.191159	-0.524013
O38	O	1.703279	0.058841	-0.274013
O39	O	1.953279	0.308841	-0.024013
O40	O	2.203279	0.558841	0.225987
O41	O	1.334635	-0.311279	-0.249115
O42	O	1.584635	-0.061279	0.000885
O43	O	1.834635	0.188721	0.250885
O44	O	2.084635	0.438721	0.500885
O45	O	1.178298	-0.311234	-0.405475
O46	O	1.428298	-0.061234	-0.155475
O47	O	1.678298	0.188766	0.094525
O48	O	1.928298	0.438766	0.344525
O49	O	1.334663	-0.402138	-0.680322
O50	O	1.584663	-0.152138	-0.430322
O51	O	1.834663	0.097862	-0.180322
O52	O	2.084663	0.347862	0.069678
O53	O	1.178252	-0.402170	-0.523934
O54	O	1.428252	-0.152170	-0.273934
O55	O	1.678252	0.097830	-0.023934
O56	O	1.928252	0.347830	0.226066
O57	O	1.453218	-0.311178	-0.680356
O58	O	1.703218	-0.061178	-0.430356
O59	O	1.953218	0.188822	-0.180356
O60	O	2.203218	0.438822	0.069644
O61	O	1.452984	-0.522268	-0.405445
O62	O	1.702984	-0.272268	-0.155445
O63	O	1.952984	-0.022268	0.094555
O64	O	2.202984	0.227732	0.344555
O65	O	1.334529	-0.522234	-0.523917
O66	O	1.584529	-0.272234	-0.273917
O67	O	1.834529	-0.022234	-0.023917
O68	O	2.084529	0.227766	0.226083
C69	C	1.143276	-0.356701	-0.464702
C70	C	1.393276	-0.106701	-0.214702
C71	C	1.643276	0.143299	0.035298
C72	C	1.893276	0.393299	0.285298
C73	C	1.036062	-0.356715	-0.464715
C74	C	1.286062	-0.106715	-0.214715
C75	C	1.536062	0.143285	0.035285
C76	C	1.786062	0.393285	0.285285
C77	C	0.839767	-0.356718	-0.464741
C78	C	1.089767	-0.106718	-0.214741
C79	C	1.339767	0.143282	0.035259
C80	C	1.589767	0.393282	0.285259
C81	C	0.948999	-0.356714	-0.464724
C82	C	1.198999	-0.106714	-0.214724
C83	C	1.448999	0.143286	0.035276
C84	C	1.698999	0.393286	0.285276
C85	C	1.393761	-0.549122	-0.464695
C86	C	1.643761	-0.299122	-0.214695
C87	C	1.893761	-0.049122	0.035305
C88	C	2.143761	0.200878	0.285305
C89	C	1.393794	-0.631436	-0.464716
C90	C	1.643794	-0.381436	-0.214716
C91	C	1.893794	-0.131436	0.035284
C92	C	2.143794	0.118564	0.285284
C93	C	1.394006	-0.930527	-0.464767
C94	C	1.644006	-0.680527	-0.214767
C95	C	1.894006	-0.430527	0.035233
C96	C	2.144006	-0.180527	0.285233
C97	C	1.319650	-0.899211	-0.539492
C98	C	1.569650	-0.649211	-0.289492
C99	C	1.819650	-0.399211	-0.039492
C100	C	2.069650	-0.149211	0.210508
C101	C	1.319297	-0.813593	-0.539258
C102	C	1.569297	-0.563593	-0.289258
C103	C	1.819297	-0.313593	-0.039258
C104	C	2.069297	-0.063593	0.210742
C105	C	1.393901	-0.782144	-0.464743
C106	C	1.643901	-0.532144	-0.214743
C107	C	1.893901	-0.282144	0.035257
C108	C	2.143901	-0.032144	0.285257
C109	C	1.366379	-0.813299	-0.363084
C110	C	1.616379	-0.563299	-0.113084
C111	C	1.866379	-0.313299	0.136916
C112	C	2.116379	-0.063299	0.386916
C113	C	1.365899	-0.898945	-0.363531
C114	C	1.615899	-0.648945	-0.113531
C115	C	1.865899	-0.398945	0.136469
C116	C	2.115899	-0.148945	0.386469
C117	C	1.496046	-0.898868	-0.490807
C118	C	1.746046	-0.648868	-0.240807
C119	C	1.996046	-0.398868	0.009193
C120	C	2.246046	-0.148868	0.259193
C121	C	1.495446	-0.813217	-0.493037
C122	C	1.745446	-0.563217	-0.243037
C123	C	1.995446	-0.313217	0.006963
C124	C	2.245446	-0.063217	0.256963
C125	C	1.393843	-0.698285	-0.464722
C126	C	1.643843	-0.448285	-0.214722
C127	C	1.893843	-0.198285	0.035278
C128	C	2.143843	0.051715	0.285278
C129	C	1.394061	-1.014386	-0.464781
C130	C	1.644061	-0.764386	-0.214781
C131	C	1.894061	-0.514386	0.035219
C132	C	2.144061	-0.264386	0.285219
C133	C	1.645483	-0.356722	-0.464746
C134	C	1.895483	-0.106722	-0.214746
C135	C	2.145483	0.143278	0.035254
C136	C	2.395483	0.393278	0.285254
C137	C	1.752697	-0.356726	-0.464756
C138	C	2.002697	-0.106726	-0.214756
C139	C	2.252697	0.143274	0.035244
C140	C	2.502697	0.393274	0.285244
C141	C	1.393949	-0.356649	-0.716317
C142	C	1.643949	-0.106649	-0.466317
C143	C	1.893949	0.143351	-0.216317
C144	C	2.143949	0.393351	0.033683
C145	C	1.393974	-0.356623	-0.823531
C146	C	1.643974	-0.106623	-0.573531
C147	C	1.893974	0.143377	-0.323531
C148	C	2.143974	0.393377	-0.073531
C149	C	1.394046	-0.163549	-0.464773
C150	C	1.644046	0.086451	-0.214773
C151	C	1.894046	0.336451	0.035227
C152	C	2.144046	0.586451	0.285227
C153	C	1.394112	-0.081235	-0.464795
C154	C	1.644112	0.168765	-0.214795
C155	C	1.894112	0.418765	0.035205
C156	C	2.144112	0.668765	0.285205
C157	C	1.393994	-0.356602	-0.910601
C158	C	1.643994	-0.106602	-0.660601
C159	C	1.893994	0.143398	-0.410601
C160	C	2.143994	0.393398	-0.160601
C161	C	1.394022	-0.356568	-1.019833
C162	C	1.644022	-0.106568	-0.769833
C163	C	1.894022	0.143432	-0.519833
C164	C	2.144022	0.393432	-0.269833
C165	C	1.393887	-0.356720	-0.214109
C166	C	1.643887	-0.106720	0.035891
C167	C	1.893887	0.143280	0.285891
C168	C	2.143887	0.393280	0.535891
C169	C	1.394048	-0.356538	-0.106896
C170	C	1.644048	-0.106538	0.143104
C171	C	1.894048	0.143462	0.393104
C172	C	2.144048	0.393462	0.643104
H173	H	1.336699	-0.919756	-0.615115
H174	H	1.586699	-0.669756	-0.365115
H175	H	1.836699	-0.419756	-0.115115
H176	H	2.086699	-0.169756	0.134885
N177	N	1.267097	-0.925507	-0.334324
N178	N	1.517097	-0.675507	-0.084324
N179	N	1.767097	-0.425507	0.165676
N180	N	2.017097	-0.175507	0.415676
H181	H	1.272315	-0.956615	-0.274200
H182	H	1.522315	-0.706615	-0.024200
H183	H	1.772315	-0.456615	0.225800
H184	H	2.022315	-0.206615	0.475800
H185	H	1.224315	-0.881544	-0.321330
H186	H	1.474315	-0.631544	-0.071330
H187	H	1.724315	-0.381544	0.178670
H188	H	1.974315	-0.131544	0.428670
N189	N	1.268614	-0.784991	-0.333344
N190	N	1.518614	-0.534991	-0.083344
N191	N	1.768614	-0.284991	0.166656
N192	N	2.018614	-0.034991	0.416656
H193	H	1.251545	-0.805347	-0.267843
H194	H	1.501545	-0.555347	-0.017843
H195	H	1.751545	-0.305347	0.232157
H196	H	2.001545	-0.055347	0.482157
H197	H	1.270018	-0.729249	-0.330545
H198	H	1.520018	-0.479249	-0.080545
H199	H	1.770018	-0.229249	0.169455
H200	H	2.020018	0.020751	0.419455
N201	N	1.572719	-0.784854	-0.426209
N202	N	1.822719	-0.534854	-0.176209
N203	N	2.072719	-0.284854	0.073791
N204	N	2.322719	-0.034854	0.323791
H205	H	1.542862	-0.751314	-0.376420
H206	H	1.792862	-0.501314	-0.126420
H207	H	2.042862	-0.251314	0.123580
H208	H	2.292862	-0.001314	0.373580
H209	H	1.604854	-0.827936	-0.393057
H210	H	1.854854	-0.577936	-0.143057
H211	H	2.104854	-0.327936	0.106943
H212	H	2.354854	-0.077936	0.356943
H213	H	1.417707	-0.919663	-0.305957
H214	H	1.667707	-0.669663	-0.055957
H215	H	1.917707	-0.419663	0.194043
H216	H	2.167707	-0.169663	0.444043
N217	N	1.529291	-0.927404	-0.587324
N218	N	1.779291	-0.677404	-0.337324
N219	N	2.029291	-0.427404	-0.087324
N220	N	2.279291	-0.177404	0.162676
H221	H	1.478537	-0.961149	-0.615148
H222	H	1.728537	-0.711149	-0.365148
H223	H	1.978537	-0.461149	-0.115148
H224	H	2.228537	-0.211149	0.134852
H225	H	1.540276	-0.884415	-0.632368
H226	H	1.790276	-0.634415	-0.382368
H227	H	2.040276	-0.384415	-0.132368
H228	H	2.290276	-0.134415	0.117632
N229	N	1.220067	-0.927794	-0.516935
N230	N	1.470067	-0.677794	-0.266935
N231	N	1.720067	-0.427794	-0.016935
N232	N	1.970067	-0.177794	0.233065
H233	H	1.194842	-0.956765	-0.573675
H234	H	1.444842	-0.706765	-0.323675
H235	H	1.694842	-0.456765	-0.073675
H236	H	1.944842	-0.206765	0.176325
H237	H	1.222984	-0.960911	-0.458501
H238	H	1.472984	-0.710911	-0.208501
H239	H	1.722984	-0.460911	0.041499
H240	H	1.972984	-0.210911	0.291499
H241	H	1.551443	-0.919119	-0.436383
H242	H	1.801443	-0.669119	-0.186383
H243	H	2.051443	-0.419119	0.063617
H244	H	2.301443	-0.169119	0.313617
H245	H	1.516200	-0.792851	-0.567852
H246	H	1.766200	-0.542851	-0.317852
H247	H	2.016200	-0.292851	-0.067852
H248	H	2.266200	-0.042851	0.182148
N249	N	1.219115	-0.786534	-0.516404
N250	N	1.469115	-0.536534	-0.266404
N251	N	1.719115	-0.286534	-0.016404
N252	N	1.969115	-0.036534	0.233596
H253	H	1.175013	-0.830242	-0.506436
H254	H	1.425013	-0.580242	-0.256436
H255	H	1.675013	-0.330242	-0.006436
H256	H	1.925013	-0.080242	0.243564
H257	H	1.220848	-0.755681	-0.455898
H258	H	1.470848	-0.505681	-0.205898
H259	H	1.720848	-0.255681	0.044102
H260	H	1.970848	-0.005681	0.294102
N261	N	1.342094	-0.785679	-0.639104
N262	N	1.592094	-0.535679	-0.389104
N263	N	1.842094	-0.285679	-0.139104
N264	N	2.092094	-0.035679	0.110896
H265	H	1.407651	-0.804086	-0.659296
H266	H	1.657651	-0.554086	-0.409296
H267	H	1.907651	-0.304086	-0.159296
H268	H	2.157651	-0.054086	0.090704
H269	H	1.291943	-0.804377	-0.685704
H270	H	1.541943	-0.554377	-0.435704
H271	H	1.791943	-0.304377	-0.185704
H272	H	2.041943	-0.054377	0.064296
H273	H	1.418832	-0.792930	-0.305891
H274	H	1.668832	-0.542930	-0.055891
H275	H	1.918832	-0.292930	0.194109
H276	H	2.168832	-0.042930	0.444109
