data_functionalizedCrystal
_audit_creation_method	'MofGen! by Chris Wilmer'
_symmetry_space_group_name_H-M	'P1'
_symmetry_Int_Tables_number	1
_symmetry_cell_setting	triclinic
loop_
_symmetry_equiv_pos_as_xyz
  x,y,z
_cell_length_a	12.827893
_cell_length_b	16.625545
_cell_length_c	12.827885
_cell_angle_alpha	90.033151
_cell_angle_beta	89.980728
_cell_angle_gamma	89.975802
loop_
_atom_site_label
_atom_site_type_symbol
_atom_site_fract_x
_atom_site_fract_y
_atom_site_fract_z
Zn1	Zn	1.597609	0.320958	-0.590820
Zn2	Zn	2.097609	0.820958	-0.090820
Zn3	Zn	1.597476	0.455812	-0.416071
Zn4	Zn	2.097476	0.955812	0.083929
Zn5	Zn	1.422850	0.320998	-0.416095
Zn6	Zn	1.922850	0.820998	0.083905
Zn7	Zn	1.422809	0.455752	-0.590771
Zn8	Zn	1.922809	0.955752	-0.090771
O9	O	1.510186	0.388380	-0.503439
O10	O	2.010186	0.888380	-0.003439
O11	O	1.743827	0.338855	-0.567650
O12	O	2.243827	0.838855	-0.067650
O13	O	1.574273	0.437971	-0.269838
O14	O	2.074273	0.937971	0.230162
O15	O	1.446104	0.208160	-0.439303
O16	O	1.946104	0.708160	0.060697
O17	O	1.743730	0.437932	-0.439262
O18	O	2.243730	0.937932	0.060738
O19	O	1.574499	0.208131	-0.567673
O20	O	2.074499	0.708131	-0.067673
O21	O	1.445976	0.338923	-0.269855
O22	O	1.945976	0.838923	0.230145
O23	O	1.276608	0.338865	-0.439255
O24	O	1.776608	0.838865	0.060745
O25	O	1.446035	0.437830	-0.737014
O26	O	1.946035	0.937830	-0.237014
O27	O	1.276578	0.437869	-0.567590
O28	O	1.776578	0.937869	-0.067590
O29	O	1.574460	0.338797	-0.737050
O30	O	2.074460	0.838797	-0.237050
O31	O	1.574233	0.568637	-0.439215
O32	O	2.074233	1.068637	0.060785
O33	O	1.445906	0.568593	-0.567567
O34	O	1.945906	1.068593	-0.067567
C35	C	1.238676	0.388365	-0.503420
C36	C	1.738676	0.888365	-0.003420
C37	C	1.122523	0.388378	-0.503437
C38	C	1.622523	0.888378	-0.003437
C39	C	0.950707	0.437457	-0.566859
C40	C	1.450707	0.937457	-0.066859
C41	C	1.070757	0.437445	-0.566843
C42	C	1.570757	0.937445	-0.066843
C43	C	1.510080	0.597871	-0.503406
C44	C	2.010080	1.097871	-0.003406
C45	C	1.510130	0.687492	-0.503426
C46	C	2.010130	1.187492	-0.003426
C47	C	1.510300	1.015668	-0.503551
C48	C	2.010300	1.515668	-0.003551
C49	C	1.510249	0.924359	-0.503519
C50	C	2.010249	1.424359	-0.003519
C51	C	1.510214	0.851583	-0.503488
C52	C	2.010214	1.351583	-0.003488
C53	C	1.510165	0.760268	-0.503458
C54	C	2.010165	1.260268	-0.003458
C55	C	1.782756	0.388395	-0.503459
C56	C	2.282756	0.888395	-0.003459
C57	C	1.898909	0.388402	-0.503467
C58	C	2.398909	0.888402	-0.003467
C59	C	1.510258	0.388302	-0.776010
C60	C	2.010258	0.888302	-0.276010
C61	C	1.510289	0.388269	-0.892163
C62	C	2.010289	0.888269	-0.392163
C63	C	1.510312	1.178071	-0.503508
C64	C	2.010312	1.678071	-0.003508
C65	C	1.510343	1.088450	-0.503569
C66	C	2.010343	1.588450	-0.003569
C67	C	1.573874	0.339221	-1.064010
C68	C	2.073874	0.839221	-0.564010
C69	C	1.573844	0.339254	-0.943959
C70	C	2.073844	0.839254	-0.443959
C71	C	1.510174	0.388400	-0.231929
C72	C	2.010174	0.888400	0.268071
C73	C	1.510346	0.388206	-0.115777
C74	C	2.010346	0.888206	0.384223
H75	H	0.906176	0.479467	-0.621138
H76	H	1.406176	0.979467	-0.121138
C77	C	1.647323	0.282595	-0.883820
C78	C	2.147323	0.782595	-0.383820
N79	N	1.702670	0.239919	-0.838520
N80	N	2.202670	0.739919	-0.338520
H81	H	1.115302	0.479439	-0.621119
H82	H	1.615302	0.979439	-0.121119
C83	C	0.959063	0.331648	-0.430133
C84	C	1.459063	0.831648	0.069867
N85	N	1.004370	0.288897	-0.374898
N86	N	1.504370	0.788897	0.125102
C87	C	1.436802	0.444926	-0.952295
C88	C	1.936802	0.944926	-0.452295
N89	N	1.381452	0.487600	-0.997595
N90	N	1.881452	0.987600	-0.497595
C91	C	1.647378	0.282524	-1.124199
C92	C	2.147378	0.782524	-0.624199
N93	N	1.702739	0.239816	-1.169533
N94	N	2.202739	0.739816	-0.669533
H95	H	1.077985	0.346375	-0.449167
H96	H	1.577985	0.846375	0.050833
H97	H	1.455939	0.430171	-1.071220
H98	H	1.955939	0.930171	-0.571220
