data_functionalizedCrystal
_audit_creation_method	'MofGen! by Chris Wilmer'
_symmetry_space_group_name_H-M	'P1'
_symmetry_Int_Tables_number	1
_symmetry_cell_setting	triclinic
loop_
_symmetry_equiv_pos_as_xyz
  x,y,z
_cell_length_a	11.026607
_cell_length_b	19.188930
_cell_length_c	10.065875
_cell_angle_alpha	98.754308
_cell_angle_beta	79.302338
_cell_angle_gamma	95.865399
loop_
_atom_site_label
_atom_site_type_symbol
_atom_site_fract_x
_atom_site_fract_y
_atom_site_fract_z
O1	O	1.626420	0.284145	-0.113552
O2	O	1.273289	0.250876	-0.113547
O3	O	1.460041	0.167156	-0.113523
O4	O	1.439668	0.367866	-0.113576
O5	O	1.424429	0.183202	0.113461
O6	O	1.237678	0.266922	0.113437
O7	O	1.590808	0.300192	0.113432
Zn8	Zn	1.408589	0.286105	0.149473
Zn9	Zn	1.455509	0.264963	-0.149588
O10	O	1.404057	0.383912	0.113408
C11	C	1.210305	0.252761	-0.000054
C12	C	1.075688	0.234465	-0.000051
C13	C	1.441574	0.149084	-0.000027
C14	C	1.439591	0.071328	-0.000015
C15	C	1.001616	0.284984	-0.000065
C16	C	0.862482	0.266075	-0.000062
C17	C	1.549173	0.040370	-0.000010
C18	C	1.547315	-0.032693	-0.000032
C19	C	1.435865	-0.074793	-0.000031
C20	C	1.326271	-0.043828	-0.000044
C21	C	1.328134	0.029233	-0.000036
N22	N	1.338556	-0.188194	0.077217
N23	N	1.336793	-0.257598	0.077212
C24	C	1.430245	-0.294920	-0.000059
N25	N	1.525543	-0.260215	-0.077308
N26	N	1.527308	-0.190805	-0.077297
C27	C	1.433832	-0.154015	-0.000041
C28	C	1.537819	-0.405101	-0.000080
C29	C	1.535958	-0.478166	-0.000110
C30	C	1.314909	-0.489298	-0.000108
C31	C	1.316775	-0.416236	-0.000092
C32	C	1.428233	-0.374141	-0.000071
C33	C	1.653793	0.298306	-0.000064
C34	C	1.788412	0.316602	-0.000076
C35	C	1.422523	0.401983	-0.000091
C36	C	1.424508	0.479739	-0.000112
N37	N	1.376576	0.300534	0.353575
N38	N	1.487531	0.250529	-0.353689
C39	C	1.444363	0.269978	0.421362
C40	C	1.419734	0.281090	0.578527
H41	H	1.041205	0.342235	-0.000072
N42	N	1.588564	0.204979	0.569076
H43	H	1.670791	0.225470	0.593847
H44	H	1.570644	0.155462	0.593917
N45	N	0.810050	0.190237	-0.000029
H46	H	0.771414	0.174440	-0.084168
H47	H	0.878651	0.159171	0.000033
H48	H	1.235528	-0.078110	-0.000047
N49	N	1.545395	0.224425	0.344152
H50	H	1.527574	0.174900	0.368977
H51	H	1.548633	0.222994	0.242847
N52	N	0.840825	0.392444	-0.000083
H53	H	0.932787	0.395204	-0.000080
H54	H	0.825519	0.410479	-0.084235
N55	N	1.669391	0.085766	-0.000028
H56	H	1.653948	0.136748	-0.000030
H57	H	1.704135	0.081371	0.084112
H58	H	1.238897	0.054438	-0.000039
N59	N	1.275542	0.346078	0.430812
H60	H	1.312639	0.386915	0.490081
H61	H	1.233722	0.364892	0.363896
N62	N	1.023250	0.158630	-0.000018
H63	H	0.984614	0.142833	-0.084157
H64	H	1.091852	0.127564	0.000044
N65	N	1.665510	-0.066096	-0.000030
H66	H	1.736399	-0.028342	-0.000018
H67	H	1.656337	-0.090225	0.084115
H68	H	1.628576	-0.370826	-0.000069
N69	N	1.318701	0.326642	0.655750
H70	H	1.236475	0.306150	0.630976
H71	H	1.315536	0.328108	0.757051
H72	H	1.625197	-0.503370	-0.000113
N73	N	1.194693	-0.534689	-0.000111
H74	H	1.202191	-0.571190	-0.084258
H75	H	1.175850	-0.559263	0.084084
N76	N	1.198582	-0.382839	-0.000089
H77	H	1.127695	-0.420594	-0.000091
H78	H	1.181340	-0.346828	0.084061
