data_functionalizedCrystal
_audit_creation_method	'MofGen! by Chris Wilmer'
_symmetry_space_group_name_H-M	'P1'
_symmetry_Int_Tables_number	1
_symmetry_cell_setting	triclinic
loop_
_symmetry_equiv_pos_as_xyz
  x,y,z
_cell_length_a	9.065218
_cell_length_b	10.654553
_cell_length_c	8.140239
_cell_angle_alpha	90.003187
_cell_angle_beta	90.001686
_cell_angle_gamma	84.751032
loop_
_atom_site_label
_atom_site_type_symbol
_atom_site_fract_x
_atom_site_fract_y
_atom_site_fract_z
O1	O	0.207254	1.668657	0.136625
O2	O	0.226994	1.303257	0.136623
O3	O	0.002440	1.493510	0.136621
O4	O	0.431808	1.478404	0.136627
O5	O	0.002438	1.493499	-0.136606
O6	O	0.226991	1.303246	-0.136604
O7	O	0.207252	1.668646	-0.136602
Zn8	Zn	0.217121	1.485945	-0.179984
Zn9	Zn	0.217124	1.485959	0.180005
O10	O	0.431805	1.478393	-0.136600
C11	C	0.225542	1.256448	0.000010
C12	C	0.221203	1.116988	0.000009
C13	C	0.215076	0.920418	-0.148915
C14	C	0.219162	1.051454	-0.148925
C15	C	0.219173	1.051476	0.148962
C16	C	0.215098	0.920440	0.148970
C17	C	0.215063	0.920407	-0.320899
C18	C	0.219149	1.051444	-0.320908
C19	C	-0.052540	1.492053	0.000010
C20	C	-0.216359	1.487712	0.000018
C21	C	0.486785	1.479851	0.000015
C22	C	0.650604	1.484191	0.000018
C23	C	0.208703	1.715455	0.000015
C24	C	0.213042	1.854915	0.000026
N25	N	0.217118	1.485944	-0.425666
N26	N	0.217116	1.485969	0.425687
H27	H	0.326763	1.081433	-0.374274
H28	H	0.107453	0.890405	-0.374258
H29	H	0.317024	0.874524	-0.386933
H30	H	0.220849	1.104842	0.270227
H31	H	0.213461	0.867112	0.270253
H32	H	0.117178	1.097322	-0.386935
