data_functionalizedCrystal
_audit_creation_method	'MofGen! by Chris Wilmer'
_symmetry_space_group_name_H-M	'P1'
_symmetry_Int_Tables_number	1
_symmetry_cell_setting	triclinic
loop_
_symmetry_equiv_pos_as_xyz
  x,y,z
_cell_length_a	19.121321
_cell_length_b	19.120786
_cell_length_c	19.805399
_cell_angle_alpha	87.531070
_cell_angle_beta	92.422685
_cell_angle_gamma	90.133760
loop_
_atom_site_label
_atom_site_type_symbol
_atom_site_fract_x
_atom_site_fract_y
_atom_site_fract_z
Zn1	Zn	1.059816	-0.324787	-0.325736
Zn2	Zn	1.054728	-0.442030	-0.207934
Zn3	Zn	0.942584	-0.319813	-0.217591
Zn4	Zn	0.937550	-0.437001	-0.326111
O5	O	0.998669	-0.380908	-0.269343
O6	O	1.157242	-0.344526	-0.305911
O7	O	1.039830	-0.425840	-0.114498
O8	O	0.962371	-0.222363	-0.235821
O9	O	1.153505	-0.430663	-0.219363
O10	O	1.048501	-0.226018	-0.315275
O11	O	0.957438	-0.336048	-0.121593
O12	O	0.843815	-0.331173	-0.236184
O13	O	0.953791	-0.422093	-0.420778
O14	O	0.840116	-0.417270	-0.315913
O15	O	1.043619	-0.339650	-0.420502
O16	O	1.034948	-0.539472	-0.219726
O17	O	0.948857	-0.535778	-0.306550
C18	C	0.816529	-0.373136	-0.277138
C19	C	0.738607	-0.369829	-0.280488
C20	C	0.298000	-0.348819	-0.301732
C21	C	0.371215	-0.351940	-0.298580
C22	C	0.405870	-0.398274	-0.251876
C23	C	0.367307	-0.441495	-0.208325
C24	C	0.294093	-0.438377	-0.211481
C25	C	0.626830	-0.409931	-0.240093
C26	C	0.700049	-0.413045	-0.236939
C27	C	0.703952	-0.323491	-0.327195
C28	C	0.630737	-0.320374	-0.330344
C29	C	0.592180	-0.363597	-0.286796
C30	C	0.480708	-0.401464	-0.248651
C31	C	0.517344	-0.360410	-0.290024
C32	C	0.990823	-0.563065	-0.262145
C33	C	0.987531	-0.640995	-0.259085
C34	C	1.030794	-0.679448	-0.299052
C35	C	1.027697	-0.752671	-0.296178
C36	C	0.981341	-0.787441	-0.253334
C37	C	0.938073	-0.748983	-0.213366
C38	C	0.941167	-0.675761	-0.216243
C39	C	0.969756	-1.008433	-0.242578
C40	C	0.966667	-1.081661	-0.239702
C41	C	1.056290	-1.085344	-0.322516
C42	C	1.059383	-1.012120	-0.325386
C43	C	1.016113	-0.973668	-0.285421
C44	C	0.978176	-0.862287	-0.250394
C45	C	1.019274	-0.898823	-0.288364
C46	C	1.181521	-0.388710	-0.261518
C47	C	1.259442	-0.392035	-0.258184
C48	C	0.998711	-0.380865	-0.445886
C49	C	0.998728	-0.380847	-0.521118
C50	C	1.006565	-0.198040	-0.276583
C51	C	1.009930	-0.120113	-0.279669
C52	C	1.045503	-0.337917	-0.556320
C53	C	1.045511	-0.337897	-0.627009
C54	C	0.998747	-0.380811	-0.662494
C55	C	0.951967	-0.423743	-0.627287
C56	C	0.951956	-0.423759	-0.556600
C57	C	0.952010	-0.423680	-0.912362
C58	C	0.952026	-0.423662	-0.983054
C59	C	1.045564	-0.337817	-0.982770
C60	C	1.045553	-0.337833	-0.912083
C61	C	0.998771	-0.380762	-0.876883
C62	C	0.998762	-0.380783	-0.800234
C63	C	0.998759	-0.380795	-0.739141
C64	C	0.998671	-0.380901	-0.093487
C65	C	0.998798	-0.380728	-0.018257
H66	H	0.395529	-0.479223	-0.170300
H67	H	0.262700	-0.473569	-0.176020
H68	H	0.900326	-0.777298	-0.178484
H69	H	0.402606	-0.316751	-0.334044
O70	O	0.733747	-0.457961	-0.191500
C71	C	0.777806	-0.419788	-0.147610
H72	H	0.758117	-0.363625	-0.146649
H73	H	0.833408	-0.419762	-0.166242
C74	C	0.801601	-0.522973	-0.076978
C75	C	0.777415	-0.453994	-0.075793
H76	H	0.801363	-0.544074	-0.032678
H77	H	0.771920	-0.548692	-0.106548
H78	H	0.847934	-0.522942	-0.092508
H79	H	0.731080	-0.454027	-0.060272
H80	H	0.807088	-0.428277	-0.046219
O81	O	0.596997	-0.275462	-0.375751
C82	C	0.552964	-0.313641	-0.419658
H83	H	0.539691	-0.366270	-0.394072
H84	H	0.580875	-0.322621	-0.468278
C85	C	0.501389	-0.207482	-0.467927
C86	C	0.485083	-0.272119	-0.436500
H87	H	0.459518	-0.181869	-0.478320
H88	H	0.531057	-0.181760	-0.438349
H89	H	0.524650	-0.214975	-0.508440
H90	H	0.461831	-0.264625	-0.395984
H91	H	0.455410	-0.297839	-0.466073
O92	O	1.090998	-0.296331	-0.521814
C93	C	1.134538	-0.338182	-0.477396
H94	H	1.136492	-0.393581	-0.496324
H95	H	1.112748	-0.339685	-0.424654
C96	C	1.206491	-0.238993	-0.451304
C97	C	1.208896	-0.307033	-0.474555
H98	H	1.252358	-0.219777	-0.449548
H99	H	1.177156	-0.210795	-0.481227
H100	H	1.188330	-0.240254	-0.407354
H101	H	1.227048	-0.305769	-0.518507
H102	H	1.238236	-0.335229	-0.444639
O103	O	0.741512	-0.281581	-0.369470
C104	C	0.813564	-0.294253	-0.356662
H105	H	0.821223	-0.348752	-0.331837
H106	H	0.836116	-0.253498	-0.321439
C107	C	0.842055	-0.222594	-0.454276
C108	C	0.851462	-0.289533	-0.423791
H109	H	0.865433	-0.219679	-0.495684
H110	H	0.793512	-0.214054	-0.462905
H111	H	0.860847	-0.188638	-0.424917
H112	H	0.832661	-0.323486	-0.453146
H113	H	0.900002	-0.298078	-0.415169
O114	O	1.091071	-0.296089	-1.016859
C115	C	1.132332	-0.258205	-0.970380
H116	H	1.133511	-0.287041	-0.918753
H117	H	1.108960	-0.203864	-0.966065
C118	C	1.205938	-0.215862	-1.058590
C119	C	1.207390	-0.251281	-0.995181
H120	H	1.252236	-0.211588	-1.073889
H121	H	1.178138	-0.241382	-1.089904
H122	H	1.186458	-0.170582	-1.054985
H123	H	1.226862	-0.296564	-0.998788
H124	H	1.235195	-0.225768	-0.963867
O125	O	0.483602	-0.315497	-0.335424
C126	C	0.439567	-0.353675	-0.379330
H127	H	0.426305	-0.406308	-0.353749
H128	H	0.467473	-0.362644	-0.427955
C129	C	0.387974	-0.247516	-0.427579
C130	C	0.371680	-0.312159	-0.396158
H131	H	0.346099	-0.221907	-0.437963
H132	H	0.417642	-0.221795	-0.398001
H133	H	0.411230	-0.255000	-0.468097
H134	H	0.348432	-0.304675	-0.355638
H135	H	0.342006	-0.337879	-0.425730
O136	O	0.514451	-0.446504	-0.203370
C137	C	0.554854	-0.493655	-0.238217
H138	H	0.566903	-0.469472	-0.290055
H139	H	0.524407	-0.544425	-0.244723
C140	C	0.609042	-0.538951	-0.133799
C141	C	0.623846	-0.509246	-0.197466
H142	H	0.651599	-0.548571	-0.108662
H143	H	0.581820	-0.507187	-0.110322
H144	H	0.583668	-0.581255	-0.139231
H145	H	0.649212	-0.466938	-0.192034
H146	H	0.651074	-0.541004	-0.220942
O147	O	1.075841	-0.645784	-0.340732
C148	C	1.113371	-0.695430	-0.375380
H149	H	1.082449	-0.746425	-0.376874
H150	H	1.166304	-0.705454	-0.348055
C151	C	1.162614	-0.604597	-0.446287
C152	C	1.124632	-0.667230	-0.448126
H153	H	1.169563	-0.587202	-0.491159
H154	H	1.137331	-0.571150	-0.422942
H155	H	1.206720	-0.612960	-0.423513
H156	H	1.080524	-0.658865	-0.470892
H157	H	1.149908	-0.700675	-0.471477
O158	O	0.906630	-0.465480	-0.878204
C159	C	0.918915	-0.536007	-0.892068
H160	H	0.974774	-0.541944	-0.908950
H161	H	0.880554	-0.552709	-0.933992
C162	C	0.840088	-0.575173	-0.807042
C163	C	0.908697	-0.582466	-0.827771
H164	H	0.833782	-0.603832	-0.767382
H165	H	0.831809	-0.527658	-0.797703
H166	H	0.808128	-0.589090	-0.841983
H167	H	0.940655	-0.568540	-0.792833
H168	H	0.916981	-0.629980	-0.837103
O169	O	1.091018	-0.296178	-0.661097
C170	C	1.132282	-0.258296	-0.614619
H171	H	1.133459	-0.287129	-0.562991
H172	H	1.108913	-0.203953	-0.610306
C173	C	1.205889	-0.215960	-0.702831
C174	C	1.207340	-0.251377	-0.639421
H175	H	1.252188	-0.211689	-0.718130
H176	H	1.178088	-0.241480	-0.734144
H177	H	1.186412	-0.170678	-0.699227
H178	H	1.226809	-0.296661	-0.643027
H179	H	1.235147	-0.225865	-0.608108
H180	H	1.083636	-0.302890	-0.883194
H181	H	0.913942	-0.458610	-1.011944
H182	H	1.062932	-0.783976	-0.328718
H183	H	1.097130	-0.983812	-0.360273
H184	H	0.595446	-0.445125	-0.204631
H185	H	1.091518	-1.116659	-0.355054
H186	H	0.928915	-1.109968	-0.204813
O187	O	0.927707	-0.971195	-0.203681
C188	C	0.886123	-1.017588	-0.165258
H189	H	0.912637	-1.070983	-0.159666
H190	H	0.832531	-1.023136	-0.191968
C191	C	0.844714	-0.923061	-0.101628
C192	C	0.877281	-0.988641	-0.094755
H193	H	0.839257	-0.905205	-0.058139
H194	H	0.872727	-0.891805	-0.127516
H195	H	0.800058	-0.927694	-0.123888
H196	H	0.921940	-0.984006	-0.072503
H197	H	0.849275	-1.019896	-0.068862
H198	H	0.905937	-0.644453	-0.183699
H199	H	1.057015	-0.870511	-0.323251
H200	H	0.913889	-0.458682	-0.656185
H201	H	0.940435	-0.890605	-0.215509
H202	H	0.913861	-0.458710	-0.527940
H203	H	0.269789	-0.311085	-0.339760
