data_functionalizedCrystal
_audit_creation_method	'MofGen! by Chris Wilmer'
_symmetry_space_group_name_H-M	'P1'
_symmetry_Int_Tables_number	1
_symmetry_cell_setting	triclinic
loop_
_symmetry_equiv_pos_as_xyz
  x,y,z
_cell_length_a	11.026607
_cell_length_b	11.892095
_cell_length_c	10.967829
_cell_angle_alpha	98.166711
_cell_angle_beta	96.380563
_cell_angle_gamma	94.755027
loop_
_atom_site_label
_atom_site_type_symbol
_atom_site_fract_x
_atom_site_fract_y
_atom_site_fract_z
O1	O	1.630391	0.193478	0.510659
O2	O	1.275648	0.182016	0.451808
O3	O	1.458343	0.153162	0.303714
O4	O	1.447697	0.222332	0.658754
O5	O	1.443109	-0.032445	0.316037
O6	O	1.260415	-0.003591	0.464132
O7	O	1.615158	0.007872	0.522983
Zn8	Zn	1.435368	-0.027329	0.495514
Zn9	Zn	1.455438	0.217216	0.479277
O10	O	1.432464	0.036725	0.671077
C11	C	1.222556	0.087098	0.447113
C12	C	1.087051	0.080794	0.414748
N13	N	1.421679	-0.194224	0.506596
C14	C	1.015428	0.098205	0.504113
C15	C	0.875377	0.091690	0.470664
C16	C	1.564387	-0.453394	0.391000
C17	C	1.554828	-0.570224	0.398758
C18	C	1.392996	-0.544719	0.529861
C19	C	1.402555	-0.427888	0.522103
C20	C	1.488255	-0.382230	0.452672
C21	C	1.497819	-0.265396	0.444923
C22	C	1.335983	-0.239894	0.576018
C23	C	1.326423	-0.356725	0.583775
C24	C	1.668251	0.102792	0.527678
C25	C	1.803756	0.109103	0.560042
C26	C	1.448801	0.051368	0.263716
C27	C	1.443048	0.024578	0.126172
N28	N	1.469137	0.384109	0.468187
C29	C	1.448375	0.108785	0.058473
C30	C	1.442431	0.081099	-0.083685
C31	C	1.442006	0.138522	0.711075
C32	C	1.447759	0.165319	0.848618
H33	H	1.057792	0.117928	0.605384
O34	O	1.647507	-0.409105	0.323384
C35	C	1.716769	-0.412062	0.122276
C36	C	1.622538	-0.462306	0.198690
H37	H	1.696631	-0.455070	0.021452
H38	H	1.710510	-0.316344	0.127233
H39	H	1.812994	-0.427628	0.161603
H40	H	1.526271	-0.446823	0.159417
H41	H	1.628905	-0.558008	0.193733
O42	O	0.824659	0.068213	0.349898
C43	C	0.638816	0.040203	0.206463
C44	C	0.696096	0.066824	0.343274
H45	H	0.534864	0.039047	0.201064
H46	H	0.675886	0.108553	0.153337
H47	H	0.663300	-0.046789	0.163704
H48	H	0.671635	0.153783	0.386142
H49	H	0.659026	-0.001596	0.396310
O50	O	0.854481	0.132699	0.680801
C51	C	1.040313	0.160618	0.824248
C52	C	0.983029	0.133901	0.687442
H53	H	1.144249	0.161575	0.829664
H54	H	1.015987	0.247663	0.867034
H55	H	1.003089	0.092309	0.877338
H56	H	1.020221	0.202137	0.634250
H57	H	1.007347	0.046823	0.644752
H58	H	1.044689	0.061092	0.313475
H59	H	1.567603	-0.228222	0.388392
H60	H	1.616821	-0.628164	0.348536
H61	H	1.323214	-0.581911	0.586380
H62	H	1.433461	-0.011497	-0.130965
H63	H	1.256645	-0.393914	0.640301
O64	O	1.458205	0.275816	-0.095117
C65	C	1.368732	0.454637	-0.076370
C66	C	1.356754	0.329509	-0.140129
H67	H	1.286735	0.498090	-0.112756
H68	H	1.371541	0.457418	0.028243
H69	H	1.456850	0.501059	-0.097459
H70	H	1.268642	0.283011	-0.119139
H71	H	1.354016	0.326810	-0.244725
H72	H	1.273994	-0.181938	0.626240
O73	O	1.458923	0.219197	0.115009
C74	C	1.369370	0.363124	0.243916
C75	C	1.357275	0.238048	0.179978
H76	H	1.287189	0.378410	0.296438
H77	H	1.457319	0.381376	0.311731
H78	H	1.372524	0.422208	0.170829
H79	H	1.354069	0.178882	0.252976
H80	H	1.269342	0.219890	0.112139
H81	H	1.434079	-0.068011	0.078887
