data_functionalizedCrystal
_audit_creation_method	'MofGen! by Chris Wilmer'
_symmetry_space_group_name_H-M	'P1'
_symmetry_Int_Tables_number	1
_symmetry_cell_setting	triclinic
loop_
_symmetry_equiv_pos_as_xyz
  x,y,z
_cell_length_a	18.050589
_cell_length_b	13.033304
_cell_length_c	13.032268
_cell_angle_alpha	90.922231
_cell_angle_beta	97.149417
_cell_angle_gamma	82.803053
loop_
_atom_site_label
_atom_site_type_symbol
_atom_site_fract_x
_atom_site_fract_y
_atom_site_fract_z
Zn1	Zn	-0.231083	-1.498396	-0.781529
Zn2	Zn	-0.337810	-1.520111	-0.609560
Zn3	Zn	-0.227158	-1.348258	-0.587701
Zn4	Zn	-0.368766	-1.326354	-0.759595
O5	O	-0.291204	-1.423280	-0.684596
O6	O	-0.233928	-1.645198	-0.777045
O7	O	-0.308534	-1.515569	-0.462752
O8	O	-0.123750	-1.368253	-0.613444
O9	O	-0.312340	-1.661151	-0.650699
O10	O	-0.126634	-1.478559	-0.755849
O11	O	-0.227239	-1.389309	-0.446692
O12	O	-0.257256	-1.201431	-0.592175
O13	O	-0.365100	-1.330921	-0.906413
O14	O	-0.361294	-1.185338	-0.718465
O15	O	-0.263945	-1.457320	-0.922528
O16	O	-0.445845	-1.494329	-0.629430
O17	O	-0.468589	-1.351977	-0.739661
C18	C	-0.312209	-1.156067	-0.650569
C19	C	-0.321215	-1.041750	-0.636036
C20	C	-0.286514	-0.982877	-0.692167
C21	C	-0.295821	-0.864724	-0.677148
C22	C	-0.484165	-1.423158	-0.684563
C23	C	-0.566710	-1.423195	-0.684596
C24	C	-0.778548	-1.345855	-0.744524
C25	C	-0.820422	-1.332709	-0.647497
C26	C	-0.717834	-1.423295	-0.684622
C27	C	-0.823038	-1.436490	-0.781666
C28	C	-0.863813	-1.423388	-0.684655
C29	C	-0.758619	-1.410106	-0.587539
C30	C	-0.761235	-1.513922	-0.721777
C31	C	-0.803077	-1.500820	-0.624690
C32	C	-0.633739	-1.423238	-0.684604
C33	C	-0.947905	-1.423445	-0.684663
C34	C	-0.097491	-1.423427	-0.684655
C35	C	-0.014942	-1.423490	-0.684680
C36	C	-0.318413	-1.389255	-0.952828
C37	C	-0.330008	-1.374756	-1.067132
C38	C	-0.270114	-0.691536	-0.718750
C39	C	-0.261115	-0.805853	-0.733287
C40	C	-0.285128	-1.430831	-1.126066
C41	C	-0.297110	-1.415847	-1.244205
C42	C	-0.264043	-1.457231	-0.417416
C43	C	-0.252224	-1.471930	-0.303138
H44	H	-0.249911	-1.019947	-0.751338
H45	H	-0.377298	-1.315648	-1.104138
H46	H	-0.332422	-0.827659	-0.617967
N47	N	-0.212636	-0.854938	-0.811684
H48	H	-0.190758	-0.799415	-0.847080
H49	H	-0.170494	-0.904821	-0.775534
H50	H	-0.767367	-1.280291	-0.795087
N51	N	-0.222493	-1.509144	-1.077063
H52	H	-0.222819	-1.508760	-0.999616
H53	H	-0.230188	-1.580218	-1.105150
H54	H	-0.357813	-1.004681	-0.576859
H55	H	-0.204922	-1.531030	-1.266136
H56	H	-0.846276	-1.256111	-0.616097
H57	H	-0.730665	-1.398892	-0.505449
H58	H	-0.851087	-1.447614	-0.863722
H59	H	-0.814109	-1.566357	-0.573981
H60	H	-0.735388	-1.590496	-0.753220
N61	N	-0.359754	-1.337537	-1.293204
H62	H	-0.359431	-1.337927	-1.370653
H63	H	-0.409656	-1.355851	-1.276510
