data_functionalizedCrystal
_audit_creation_method	'MofGen! by Chris Wilmer'
_symmetry_space_group_name_H-M	'P1'
_symmetry_Int_Tables_number	1
_symmetry_cell_setting	triclinic
loop_
_symmetry_equiv_pos_as_xyz
  x,y,z
_cell_length_a	12.827893
_cell_length_b	19.121063
_cell_length_c	12.827885
_cell_angle_alpha	87.596033
_cell_angle_beta	90.019272
_cell_angle_gamma	92.468878
loop_
_atom_site_label
_atom_site_type_symbol
_atom_site_fract_x
_atom_site_fract_y
_atom_site_fract_z
Zn1	Zn	1.579835	-0.279579	0.608539
Zn2	Zn	1.572236	-0.397046	0.441232
Zn3	Zn	1.405075	-0.279614	0.433815
Zn4	Zn	1.397572	-0.396994	0.615928
O5	O	1.488680	-0.338308	0.524878
O6	O	1.725063	-0.295169	0.586357
O7	O	1.550022	-0.381505	0.294014
O8	O	1.434577	-0.181325	0.450796
O9	O	1.719480	-0.381471	0.463437
O10	O	1.562973	-0.181300	0.579165
O11	O	1.427209	-0.295227	0.288565
O12	O	1.257844	-0.295177	0.457961
O13	O	1.421790	-0.381382	0.761182
O14	O	1.252332	-0.381415	0.591759
O15	O	1.555698	-0.295118	0.755753
O16	O	1.542747	-0.495323	0.470602
O17	O	1.414422	-0.495285	0.598951
C18	C	1.217171	-0.338295	0.524858
C19	C	1.101017	-0.338306	0.524875
C20	C	1.046528	-0.381046	0.590989
C21	C	0.926477	-0.381059	0.591008
C22	C	1.476974	-0.520788	0.536406
C23	C	1.472062	-0.598854	0.541373
C24	C	1.536618	-0.635526	0.476937
C25	C	1.532005	-0.708877	0.481615
C26	C	1.462829	-0.745554	0.550723
C27	C	1.398270	-0.708877	0.615166
C28	C	1.402890	-0.635528	0.610493
C29	C	1.445540	-0.967023	0.568177
C30	C	1.440923	-1.040378	0.572842
C31	C	1.574660	-1.040373	0.439292
C32	C	1.579269	-0.967021	0.434621
C33	C	1.514714	-0.930351	0.499067
C34	C	1.458109	-0.820531	0.555503
C35	C	1.519440	-0.855375	0.494292
C36	C	1.761249	-0.338322	0.524900
C37	C	1.877402	-0.338328	0.524909
C38	C	1.488755	-0.338241	0.797445
C39	C	1.488787	-0.338212	0.913596
C40	C	1.500460	-0.155116	0.513328
C41	C	1.505479	-0.077050	0.508407
C42	C	1.488668	-0.338325	0.253370
C43	C	1.488851	-0.338156	0.137206
C44	C	1.555057	-0.295518	0.962694
C45	C	1.555091	-0.295487	1.082742
H46	H	1.058790	-0.301721	0.468290
H47	H	1.627218	-1.070238	0.386825
C48	C	1.364828	-1.080722	0.648877
N49	N	1.307517	-1.111109	0.706144
C50	C	1.631669	-0.246164	0.899418
N51	N	1.689376	-0.208989	0.851761
C52	C	1.103570	-0.430471	0.667438
N53	N	1.146533	-0.467700	0.725020
H54	H	0.879628	-0.417652	0.647607
C55	C	1.382005	-0.860884	0.631509
N56	N	1.324683	-0.891280	0.688755
C57	C	0.940683	-0.288889	0.448438
N58	N	0.988354	-0.251649	0.390843
H59	H	1.392975	-0.937171	0.620650
H60	H	1.341950	-0.738746	0.671440
H61	H	1.592944	-0.605668	0.420657
C62	C	1.631739	-0.246103	1.139794
N63	N	1.689470	-0.208903	1.182768
C64	C	1.595529	-0.815028	0.418273
N65	N	1.652835	-0.784632	0.361011
H66	H	1.584572	-0.738732	0.429143
H67	H	1.635597	-0.937160	0.378347
H68	H	1.432116	-0.374712	1.094980
H69	H	1.432071	-0.374737	0.960437
H70	H	1.350322	-0.605670	0.662965
