data_functionalizedCrystal
_audit_creation_method	'MofGen! by Chris Wilmer'
_symmetry_space_group_name_H-M	'P1'
_symmetry_Int_Tables_number	1
_symmetry_cell_setting	triclinic
loop_
_symmetry_equiv_pos_as_xyz
  x,y,z
_cell_length_a	14.044220
_cell_length_b	26.210047
_cell_length_c	14.044190
_cell_angle_alpha	89.999837
_cell_angle_beta	93.190328
_cell_angle_gamma	90.004879
loop_
_atom_site_label
_atom_site_type_symbol
_atom_site_fract_x
_atom_site_fract_y
_atom_site_fract_z
O1	O	1.277180	0.042385	0.230155
O2	O	1.000509	0.042398	0.221850
O3	O	1.134688	0.042382	0.087666
O4	O	1.143001	0.042401	0.364339
O5	O	1.134662	-0.042477	0.087687
O6	O	1.000482	-0.042460	0.221870
O7	O	1.277154	-0.042473	0.230176
Cu8	Cu	1.138816	-0.050215	0.226025
Cu9	Cu	1.138847	0.050140	0.226001
O10	O	1.142975	-0.042457	0.364359
C11	C	0.964874	-0.000030	0.218224
C12	C	0.858731	-0.000026	0.207380
N13	N	1.138801	-0.120799	0.226042
C14	C	0.664392	-0.000037	0.187553
C15	C	0.613264	-0.000034	0.264468
C16	C	0.505128	-0.000040	0.253436
C17	C	0.772539	-0.000031	0.198583
C18	C	1.198256	-0.473320	0.166598
C19	C	1.198276	-0.686979	0.166587
O20	O	1.248791	-0.714607	0.116047
N21	N	1.138850	-0.713693	0.225980
C22	C	1.079411	-0.686989	0.285376
O23	O	1.028859	-0.714614	0.335886
C24	C	1.079387	-0.473331	0.285382
C25	C	1.138823	-0.446620	0.225992
C26	C	1.257688	-0.446609	0.107212
C27	C	1.257686	-0.393197	0.107220
C28	C	1.198253	-0.366497	0.166613
C29	C	1.138822	-0.393209	0.225999
C30	C	1.019943	-0.446629	0.344772
C31	C	1.019940	-0.393211	0.344766
C32	C	1.079377	-0.366499	0.285376
C33	C	1.079387	-0.313097	0.285399
N34	N	1.138813	-0.286383	0.226006
C35	C	1.198246	-0.313083	0.166613
C36	C	1.079429	-0.799162	0.285370
C37	C	1.079436	-0.852576	0.285370
C38	C	1.198301	-0.852562	0.166579
C39	C	1.198298	-0.799147	0.166585
C40	C	1.138855	-0.772448	0.225977
C41	C	1.198238	-0.200915	0.166633
C42	C	1.198234	-0.147499	0.166649
C43	C	1.079366	-0.147518	0.285435
C44	C	1.079373	-0.200929	0.285424
C45	C	1.138812	-0.227627	0.226015
O46	O	1.028891	-0.285436	0.335905
O47	O	1.248775	-0.285449	0.116095
C48	C	1.198258	-0.526731	0.166591
C49	C	1.138827	-0.553443	0.225977
C50	C	1.079394	-0.526743	0.285370
C51	C	1.138834	-0.606857	0.225977
C52	C	1.198267	-0.633557	0.166584
C53	C	1.257693	-0.606843	0.107191
C54	C	1.257691	-0.553432	0.107198
C55	C	1.019968	-0.553457	0.344764
C56	C	1.019975	-0.606868	0.344752
C57	C	1.079408	-0.633569	0.285359
C58	C	1.312789	-0.000044	0.233801
C59	C	1.418932	-0.000045	0.244646
C60	C	1.131039	-0.000049	0.052054
C61	C	1.120191	-0.000053	-0.054089
N62	N	1.138869	0.120724	0.225977
C63	C	1.177292	-0.000035	-0.299547
C64	C	1.100375	-0.000035	-0.248422
C65	C	1.111404	-0.000045	-0.140285
C66	C	1.166265	-0.000026	-0.407694
C67	C	1.146624	-0.000025	0.399971
C68	C	1.157472	-0.000018	0.506114
H69	H	0.650706	-0.000026	0.338602
H70	H	1.030979	-0.125770	0.333795
C71	C	1.323063	-0.636220	0.041856
H72	H	1.314540	-0.671856	0.050358
H73	H	1.387659	-0.627467	0.057640
H74	H	1.307298	-0.627467	-0.022748
H75	H	0.626954	-0.000045	0.113425
C76	C	1.263612	-0.118119	0.101312
H77	H	1.298999	-0.141674	0.065933
H78	H	1.306258	-0.097280	0.139037
H79	H	1.225902	-0.097285	0.058643
C80	C	1.323065	-0.524056	0.041861
H81	H	1.358450	-0.547614	0.006486
H82	H	1.365713	-0.503215	0.079580
H83	H	1.285356	-0.503223	-0.000812
H84	H	1.246637	-0.222646	0.118256
H85	H	1.306081	-0.371452	0.058856
H86	H	1.031022	-0.777427	0.333736
H87	H	1.251418	-0.000044	-0.262106
H88	H	1.306085	-0.468343	0.058843
H89	H	1.031048	-0.874321	0.333742
C90	C	1.263669	-0.769769	0.101249
H91	H	1.299059	-0.793326	0.065876
H92	H	1.306313	-0.748927	0.138969
H93	H	1.225958	-0.748939	0.058575
C94	C	0.954570	-0.476000	0.410111
H95	H	0.919174	-0.452441	0.445473
H96	H	0.992272	-0.496832	0.452781
H97	H	0.911917	-0.496840	0.372387
C98	C	0.954586	-0.636245	0.410081
H99	H	0.919185	-0.612689	0.445444
H100	H	0.992273	-0.657085	0.452752
H101	H	0.911938	-0.657079	0.372338
H102	H	1.246695	-0.874311	0.118220
C103	C	1.000226	-0.000030	-0.298993
H104	H	0.953417	-0.000030	-0.252693
H105	H	0.992731	-0.029619	-0.337748
H106	H	0.992743	0.029568	-0.337730
H107	H	0.971531	-0.371475	0.393129
H108	H	1.030985	-0.222678	0.333794
H109	H	0.971569	-0.531722	0.393128
