data_functionalizedCrystal
_audit_creation_method	'MofGen! by Chris Wilmer'
_symmetry_space_group_name_H-M	'P1'
_symmetry_Int_Tables_number	1
_symmetry_cell_setting	triclinic
loop_
_symmetry_equiv_pos_as_xyz
  x,y,z
_cell_length_a	16.625548
_cell_length_b	16.625546
_cell_length_c	12.645323
_cell_angle_alpha	90.031016
_cell_angle_beta	90.024242
_cell_angle_gamma	90.022327
loop_
_atom_site_label
_atom_site_type_symbol
_atom_site_fract_x
_atom_site_fract_y
_atom_site_fract_z
Zn1	Zn	-1.232696	0.320998	-0.599445
Zn2	Zn	-0.732696	0.820998	-0.099445
Zn3	Zn	-1.232594	0.455843	-0.422166
Zn4	Zn	-0.732594	0.955843	0.077834
Zn5	Zn	-1.097853	0.321028	-0.422185
Zn6	Zn	-0.597853	0.821028	0.077815
Zn7	Zn	-1.097828	0.455792	-0.599377
Zn8	Zn	-0.597828	0.955792	-0.099377
O9	O	-1.165243	0.388415	-0.510793
O10	O	-0.665243	0.888415	-0.010793
O11	O	-1.345515	0.338895	-0.575950
O12	O	-0.845515	0.838895	-0.075950
O13	O	-1.214689	0.437993	-0.273821
O14	O	-0.714689	0.937993	0.226179
O15	O	-1.115793	0.208191	-0.445735
O16	O	-0.615793	0.708191	0.054265
O17	O	-1.345440	0.437964	-0.445704
O18	O	-0.845440	0.937964	0.054296
O19	O	-1.214861	0.208170	-0.575968
O20	O	-0.714861	0.708170	-0.075968
O21	O	-1.115695	0.338945	-0.273835
O22	O	-0.615695	0.838945	0.226165
O23	O	-0.985017	0.338896	-0.445669
O24	O	-0.485017	0.838896	0.054331
O25	O	-1.115750	0.437878	-0.747733
O26	O	-0.615750	0.937878	-0.247733
O27	O	-0.984999	0.437907	-0.575851
O28	O	-0.484999	0.937907	-0.075851
O29	O	-1.214837	0.338846	-0.747784
O30	O	-0.714837	0.838846	-0.247784
O31	O	-1.214664	0.568669	-0.445637
O32	O	-0.714664	1.068669	0.054363
O33	O	-1.115652	0.568631	-0.575833
O34	O	-0.615652	1.068631	-0.075833
C35	C	-0.955752	0.388399	-0.510755
C36	C	-0.455752	0.888399	-0.010755
C37	C	-0.866131	0.388412	-0.510764
C38	C	-0.366131	0.888412	-0.010764
C39	C	-0.537955	0.388410	-0.510796
C40	C	-0.037955	0.888410	-0.010796
C41	C	-0.629264	0.388408	-0.510784
C42	C	-0.129264	0.888408	-0.010784
C43	C	-0.702040	0.388412	-0.510779
C44	C	-0.202040	0.888412	-0.010779
C45	C	-0.793354	0.388409	-0.510769
C46	C	-0.293354	0.888409	-0.010769
C47	C	-1.165166	0.597906	-0.510749
C48	C	-0.665166	1.097906	-0.010749
C49	C	-1.165207	0.687527	-0.510765
C50	C	-0.665207	1.187527	-0.010765
C51	C	-0.375552	0.388427	-0.510822
C52	C	0.124448	0.888427	-0.010822
C53	C	-0.465173	0.388418	-0.510808
C54	C	0.034827	0.888418	-0.010808
C55	C	-1.165302	0.388353	-0.787299
C56	C	-0.665302	0.888353	-0.287299
C57	C	-1.165327	0.388326	-0.905129
C58	C	-0.665327	0.888326	-0.405129
C59	C	-1.165341	0.178106	-0.510861
C60	C	-0.665341	0.678106	-0.010861
C61	C	-1.165383	0.088485	-0.510890
C62	C	-0.665383	0.588485	-0.010890
C63	C	-1.165348	1.015703	-0.510876
C64	C	-0.665348	1.515703	-0.010876
C65	C	-1.165306	0.924394	-0.510848
C66	C	-0.665306	1.424394	-0.010848
C67	C	-1.165277	0.851618	-0.510820
C68	C	-0.665277	1.351618	-0.010820
C69	C	-1.165237	0.760304	-0.510793
C70	C	-0.665237	1.260304	-0.010793
C71	C	-1.102800	0.450334	-1.072661
C72	C	-0.602800	0.950334	-0.572661
C73	C	-1.102963	0.450641	-0.950101
C74	C	-0.602963	0.950641	-0.450101
C75	C	-1.250284	0.411387	-0.949649
C76	C	-0.750284	0.911387	-0.449649
C77	C	-1.249941	0.411776	-1.072247
C78	C	-0.749941	0.911776	-0.572247
C79	C	-1.143702	0.302911	-1.072338
C80	C	-0.643702	0.802911	-0.572338
C81	C	-1.141807	0.303423	-0.949731
C82	C	-0.641807	0.803423	-0.449731
C83	C	-1.165230	0.388419	-0.235364
C84	C	-0.665230	0.888419	0.264636
C85	C	-1.165361	0.388219	-0.117534
C86	C	-0.665361	0.888219	0.382466
H87	H	-1.039965	0.436211	-0.919999
H88	H	-0.539965	0.936211	-0.419999
C89	C	-1.121697	0.534072	-1.113943
C90	C	-0.621697	1.034072	-0.613943
C91	C	-1.117779	0.533956	-1.224544
C92	C	-0.617779	1.033956	-0.724544
C93	C	-1.135198	0.611077	-1.262610
C94	C	-0.635198	1.111077	-0.762610
H95	H	-1.083654	0.571306	-1.086573
H96	H	-0.583654	1.071306	-0.586573
H97	H	-1.174226	0.549227	-1.092123
H98	H	-0.674226	1.049227	-0.592123
H99	H	-1.065257	0.518811	-1.246355
H100	H	-0.565257	1.018811	-0.746355
H101	H	-1.155821	0.496739	-1.251942
H102	H	-0.655821	0.996739	-0.751942
H103	H	-1.187727	0.626231	-1.240789
H104	H	-0.687727	1.126231	-0.740789
H105	H	-1.097153	0.648304	-1.235232
H106	H	-0.597153	1.148304	-0.735232
H107	H	-1.132549	0.611006	-1.337656
H108	H	-0.632549	1.111006	-0.837656
C109	C	-1.062615	0.274762	-1.113670
C110	C	-0.562615	0.774762	-0.613670
C111	C	-1.072589	0.202881	-1.169914
C112	C	-0.572589	0.702881	-0.669914
C113	C	-0.997910	0.176939	-1.208016
C114	C	-0.497910	0.676939	-0.708016
H115	H	-1.027103	0.266056	-1.055939
H116	H	-0.527103	0.766056	-0.555939
H117	H	-1.040709	0.314630	-1.159114
H118	H	-0.540709	0.814630	-0.659114
H119	H	-1.094484	0.163022	-1.124472
H120	H	-0.594484	0.663022	-0.624472
H121	H	-1.108088	0.211566	-1.227659
H122	H	-0.608088	0.711566	-0.727659
H123	H	-0.976004	0.216806	-1.253460
H124	H	-0.476004	0.716806	-0.753460
H125	H	-0.962403	0.168237	-1.150279
H126	H	-0.462403	0.668237	-0.650279
H127	H	-1.004668	0.128169	-1.246190
H128	H	-0.504668	0.628169	-0.746190
C129	C	-1.121907	0.534980	-0.910943
C130	C	-0.621907	1.034980	-0.410943
C131	C	-1.057783	0.563307	-0.849510
C132	C	-0.557783	1.063307	-0.349510
C133	C	-1.075207	0.641005	-0.813438
C134	C	-0.575207	1.141005	-0.313438
H135	H	-1.169451	0.533797	-0.869341
H136	H	-0.669451	1.033797	-0.369341
H137	H	-1.129666	0.569659	-0.969757
H138	H	-0.629666	1.069659	-0.469757
H139	H	-1.050034	0.528638	-0.790706
H140	H	-0.550034	1.028638	-0.290706
H141	H	-1.010232	0.564510	-0.891090
H142	H	-0.510232	1.064510	-0.391090
H143	H	-1.082966	0.675684	-0.872252
H144	H	-0.582966	1.175684	-0.372252
H145	H	-1.122752	0.639814	-0.771841
H146	H	-0.622752	1.139814	-0.271841
H147	H	-1.031699	0.660238	-0.771760
H148	H	-0.531699	1.160238	-0.271760
C149	C	-1.204525	0.241195	-1.110830
C150	C	-0.704525	0.741195	-0.610830
C151	C	-1.243040	0.206261	-1.023770
C152	C	-0.743040	0.706261	-0.523770
C153	C	-1.299085	0.149420	-1.059193
C154	C	-0.799085	0.649420	-0.559193
H155	H	-1.177673	0.200646	-1.150248
H156	H	-0.677673	0.700646	-0.650248
H157	H	-1.243280	0.266891	-1.154487
H158	H	-0.743280	0.766891	-0.654487
H159	H	-1.204291	0.180565	-0.980130
H160	H	-0.704291	0.680565	-0.480130
H161	H	-1.269908	0.246790	-0.984342
H162	H	-0.769908	0.746790	-0.484342
H163	H	-1.337840	0.175117	-1.102851
H164	H	-0.837840	0.675117	-0.602851
H165	H	-1.272226	0.108877	-1.098612
H166	H	-0.772226	0.608877	-0.598612
H167	H	-1.325229	0.125716	-1.000130
H168	H	-0.825229	0.625716	-0.500130
C169	C	-1.314143	0.354093	-1.112048
C170	C	-0.814143	0.854093	-0.612048
C171	C	-1.314310	0.353994	-1.222771
C172	C	-0.814310	0.853994	-0.722771
C173	C	-1.373438	0.300866	-1.259468
C174	C	-0.873438	0.800866	-0.759468
H175	H	-1.365320	0.370790	-1.086922
H176	H	-0.865320	0.870790	-0.586922
H177	H	-1.302950	0.301414	-1.086971
H178	H	-0.802950	0.801414	-0.586971
H179	H	-1.325508	0.406662	-1.247837
H180	H	-0.825508	0.906662	-0.747837
H181	H	-1.263147	0.337288	-1.247925
H182	H	-0.763147	0.837288	-0.747925
H183	H	-1.362246	0.248187	-1.234391
H184	H	-0.862246	0.748187	-0.734391
H185	H	-1.424612	0.317569	-1.234335
H186	H	-0.924612	0.817569	-0.734335
H187	H	-1.373555	0.300787	-1.334596
H188	H	-0.873555	0.800787	-0.834596
C189	C	-1.058438	0.280099	-0.911086
C190	C	-0.558438	0.780099	-0.411086
C191	C	-1.038161	0.204325	-0.951397
C192	C	-0.538161	0.704325	-0.451397
C193	C	-0.961364	0.182820	-0.915826
C194	C	-0.461364	0.682820	-0.415826
H195	H	-1.058151	0.278257	-0.836009
H196	H	-0.558151	0.778257	-0.336009
H197	H	-1.020380	0.318752	-0.934709
H198	H	-0.520380	0.818752	-0.434709
H199	H	-1.076209	0.165681	-0.927768
H200	H	-0.576209	0.665681	-0.427768
H201	H	-1.038431	0.206147	-1.026470
H202	H	-0.538431	0.706147	-0.526470
H203	H	-0.923306	0.221473	-0.939448
H204	H	-0.423306	0.721473	-0.439448
H205	H	-0.961084	0.180982	-0.840749
H206	H	-0.461084	0.680982	-0.340749
H207	H	-0.947593	0.131409	-0.943179
H208	H	-0.447593	0.631409	-0.443179
H209	H	-1.298146	0.367576	-0.920521
H210	H	-0.798146	0.867576	-0.420521
C211	C	-1.018479	0.431391	-1.111801
C212	C	-0.518479	0.931391	-0.611801
C213	C	-0.964332	0.487744	-1.070424
C214	C	-0.464332	0.987744	-0.570424
C215	C	-0.886646	0.470313	-1.106456
C216	C	-0.386646	0.970313	-0.606456
H217	H	-1.017433	0.433754	-1.186840
H218	H	-0.517433	0.933754	-0.686840
H219	H	-1.003551	0.378978	-1.089252
H220	H	-0.503551	0.878978	-0.589252
H221	H	-0.979256	0.540143	-1.092979
H222	H	-0.479256	1.040143	-0.592979
H223	H	-0.965352	0.485390	-0.995388
H224	H	-0.465352	0.985390	-0.495388
H225	H	-0.871717	0.417900	-1.083907
H226	H	-0.371717	0.917900	-0.583907
H227	H	-0.885609	0.472676	-1.181494
H228	H	-0.385609	0.972676	-0.681494
H229	H	-0.849896	0.508541	-1.078379
H230	H	-0.349896	1.008541	-0.578379
C231	C	-1.275234	0.493716	-0.908942
C232	C	-0.775234	0.993716	-0.408942
C233	C	-1.287218	0.545661	-0.994621
C234	C	-0.787218	1.045661	-0.494621
C235	C	-1.310208	0.621508	-0.957166
C236	C	-0.810208	1.121508	-0.457166
H237	H	-1.234166	0.514684	-0.864537
H238	H	-0.734166	1.014684	-0.364537
H239	H	-1.323781	0.488961	-0.869831
H240	H	-0.823781	0.988961	-0.369831
H241	H	-1.238678	0.550419	-1.033713
H242	H	-0.738678	1.050419	-0.533713
H243	H	-1.328290	0.524718	-1.039033
H244	H	-0.828290	1.024718	-0.539033
H245	H	-1.358755	0.616753	-0.918056
H246	H	-0.858755	1.116753	-0.418056
H247	H	-1.269137	0.642469	-0.912761
H248	H	-0.769137	1.142469	-0.412761
H249	H	-1.318349	0.656760	-1.015293
H250	H	-0.818349	1.156760	-0.515293
H251	H	-1.268300	0.474137	-1.100849
H252	H	-0.768300	0.974137	-0.600849
H253	H	-1.184045	0.254697	-0.919119
H254	H	-0.684045	0.754697	-0.419119
