data_functionalizedCrystal
_audit_creation_method	'MofGen! by Chris Wilmer'
_symmetry_space_group_name_H-M	'P1'
_symmetry_Int_Tables_number	1
_symmetry_cell_setting	triclinic
loop_
_symmetry_equiv_pos_as_xyz
  x,y,z
_cell_length_a	17.077404
_cell_length_b	14.908520
_cell_length_c	17.077395
_cell_angle_alpha	93.269356
_cell_angle_beta	89.984359
_cell_angle_gamma	93.320938
loop_
_atom_site_label
_atom_site_type_symbol
_atom_site_fract_x
_atom_site_fract_y
_atom_site_fract_z
Zn1	Zn	1.181992	-0.359166	-0.461868
Zn2	Zn	1.681992	0.140834	0.038132
Zn3	Zn	1.174333	-0.510034	-0.338174
Zn4	Zn	1.674333	-0.010034	0.161826
Zn5	Zn	1.050731	-0.359194	-0.330617
Zn6	Zn	1.550731	0.140806	0.169383
Zn7	Zn	1.043120	-0.509984	-0.469395
Zn8	Zn	1.543120	-0.009984	0.030605
O9	O	1.112544	-0.434594	-0.400013
O10	O	1.612544	0.065406	0.099987
O11	O	1.290823	-0.379188	-0.445472
O12	O	1.790823	0.120812	0.054528
O13	O	1.157918	-0.490058	-0.227326
O14	O	1.657918	0.009942	0.272674
O15	O	1.074534	-0.232945	-0.341716
O16	O	1.574534	0.267055	0.158284
O17	O	1.285196	-0.490030	-0.354594
O18	O	1.785196	0.009970	0.145406
O19	O	1.170971	-0.232924	-0.438145
O20	O	1.670971	0.267076	0.061855
O21	O	1.067108	-0.379236	-0.221774
O22	O	1.567108	0.120764	0.278226
O23	O	0.939875	-0.379188	-0.349014
O24	O	1.439875	0.120812	0.150986
O25	O	1.061561	-0.489945	-0.578242
O26	O	1.561561	0.010055	-0.078242
O27	O	0.934283	-0.489972	-0.450973
O28	O	1.434283	0.010028	0.049027
O29	O	1.163590	-0.379139	-0.572712
O30	O	1.663590	0.120861	-0.072712
O31	O	1.150537	-0.636273	-0.361893
O32	O	1.650537	-0.136273	0.138107
O33	O	1.054135	-0.636236	-0.458300
O34	O	1.554135	-0.136236	0.041700
C35	C	0.908597	-0.434578	-0.399991
C36	C	1.408597	0.065422	0.100009
C37	C	0.821347	-0.434593	-0.400001
C38	C	1.321347	0.065407	0.099999
C39	C	0.777461	-0.492365	-0.453015
C40	C	1.277461	0.007635	0.046985
C41	C	0.695480	-0.492367	-0.453028
C42	C	1.195480	0.007633	0.046972
C43	C	0.657387	-0.434601	-0.400022
C44	C	1.157387	0.065399	0.099978
C45	C	0.701279	-0.376822	-0.347006
C46	C	1.201279	0.123178	0.152994
C47	C	0.783258	-0.376816	-0.346997
C48	C	1.283258	0.123184	0.153003
C49	C	0.530408	-0.376839	-0.347025
C50	C	1.030408	0.123161	0.152975
C51	C	0.448423	-0.376846	-0.347032
C52	C	0.948423	0.123154	0.152968
C53	C	0.442630	-0.492391	-0.453056
C54	C	0.942630	0.007609	0.046944
C55	C	0.524609	-0.492385	-0.453047
C56	C	1.024609	0.007615	0.046953
C57	C	0.568495	-0.434607	-0.400030
C58	C	1.068495	0.065393	0.099970
C59	C	1.100700	-0.668988	-0.411750
C60	C	1.600700	-0.168988	0.088250
C61	C	1.095705	-0.769263	-0.416798
C62	C	1.595705	-0.269263	0.083202
C63	C	1.186805	-0.957667	-0.325974
C64	C	1.686805	-0.457667	0.174026
C65	C	1.182115	-1.051883	-0.330714
C66	C	1.682115	-0.551883	0.169286
C67	C	1.081637	-1.051915	-0.431021
C68	C	1.581637	-0.551915	0.068979
C69	C	1.086328	-0.957698	-0.426281
C70	C	1.586328	-0.457698	0.073719
C71	C	1.138913	-0.910577	-0.373755
C72	C	1.638913	-0.410577	0.126245
C73	C	1.143599	-0.816359	-0.369011
C74	C	1.643599	-0.316359	0.130989
C75	C	1.043126	-0.816392	-0.469322
C76	C	1.543126	-0.316392	0.030678
C77	C	1.038436	-0.910609	-0.474062
C78	C	1.538436	-0.410609	0.025938
C79	C	1.317287	-0.434612	-0.400037
C80	C	1.817287	0.065388	0.099963
C81	C	1.404537	-0.434619	-0.400046
C82	C	1.904537	0.065381	0.099954
C83	C	1.112581	-0.434533	-0.604755
C84	C	1.612581	0.065467	-0.104755
C85	C	1.112597	-0.434507	-0.692003
C86	C	1.612597	0.065493	-0.192003
C87	C	1.124456	-0.199286	-0.388248
C88	C	1.624456	0.300714	0.111752
C89	C	1.129532	-0.099011	-0.383234
C90	C	1.629532	0.400989	0.116766
C91	C	1.165816	-0.376688	-1.064934
C92	C	1.665816	0.123312	-0.564934
C93	C	1.165799	-0.376720	-0.982955
C94	C	1.665799	0.123280	-0.482955
C95	C	1.112666	-0.434422	-0.944848
C96	C	1.612666	0.065578	-0.444848
C97	C	1.059552	-0.492102	-0.988725
C98	C	1.559552	0.007898	-0.488725
C99	C	1.059574	-0.492075	-1.070703
C100	C	1.559574	0.007925	-0.570703
C101	C	1.059509	-0.492154	-0.817858
C102	C	1.559509	0.007846	-0.317858
C103	C	1.059485	-0.492181	-0.735874
C104	C	1.559485	0.007819	-0.235874
C105	C	1.165733	-0.376800	-0.730110
C106	C	1.665733	0.123200	-0.230110
C107	C	1.165755	-0.376772	-0.812087
C108	C	1.665755	0.123228	-0.312087
C109	C	1.112640	-0.434452	-0.855959
C110	C	1.612640	0.065548	-0.355959
C111	C	1.112556	-0.434590	-0.196065
C112	C	1.612556	0.065410	0.303935
C113	C	1.112705	-0.434362	-0.108805
C114	C	1.612705	0.065638	0.391195
H115	H	0.417410	-0.329797	-0.303879
H116	H	0.917410	0.170203	0.196121
H117	H	1.016293	-0.539088	-0.957692
H118	H	1.516293	-0.039088	-0.457692
H119	H	0.670257	-0.329783	-0.303851
H120	H	1.170257	0.170217	0.196149
H121	H	1.208980	-0.329833	-0.694385
H122	H	1.708980	0.170167	-0.194385
C123	C	1.001047	-0.555669	-0.693959
C124	C	1.501047	-0.055669	-0.193959
N125	N	0.957034	-0.603494	-0.662389
N126	N	1.457034	-0.103494	-0.162389
H127	H	1.016259	-0.539126	-0.853576
H128	H	1.516259	-0.039126	-0.353576
H129	H	0.818989	-0.329767	-0.303832
H130	H	1.318989	0.170233	0.196168
H131	H	1.221115	-1.090220	-0.291807
H132	H	1.721115	-0.590220	0.208193
C133	C	1.224268	-0.313211	-1.106843
C134	C	1.724268	0.186789	-0.606843
N135	N	1.268298	-0.265400	-1.138407
N136	N	1.768298	0.234600	-0.638407
C137	C	1.224219	-0.313265	-0.934700
C138	C	1.724219	0.186735	-0.434700
N139	N	1.268221	-0.265467	-0.898354
N140	N	1.768221	0.234533	-0.398354
C141	C	0.394354	-0.555943	-0.511379
C142	C	0.894354	-0.055943	-0.011379
N143	N	0.357989	-0.603810	-0.555306
N144	N	0.857989	-0.103810	-0.055306
H145	H	1.038831	-1.090297	-0.473790
H146	H	1.538831	-0.590297	0.026210
H147	H	0.995625	-0.948988	-0.516829
H148	H	1.495625	-0.448988	-0.016829
C149	C	1.001146	-0.555519	-1.118960
C150	C	1.501146	-0.055519	-0.618960
N151	N	0.957137	-0.603308	-1.155307
N152	N	1.457137	-0.103308	-0.655307
C153	C	0.990441	-0.764586	-0.521884
C154	C	1.490441	-0.264586	-0.021884
N155	N	0.950759	-0.725565	-0.561472
N156	N	1.450759	-0.225565	-0.061472
H157	H	0.566138	-0.329782	-0.303859
H158	H	1.066138	0.170218	0.196141
H159	H	1.186414	-0.777994	-0.326240
H160	H	1.686414	-0.277994	0.173760
H161	H	0.808470	-0.539409	-0.496176
H162	H	1.308470	-0.039409	0.003824
C163	C	1.244647	-0.905831	-0.268194
C164	C	1.744647	-0.405831	0.231806
N165	N	1.288215	-0.866791	-0.224674
N166	N	1.788215	-0.366791	0.275326
H167	H	0.659752	-0.539413	-0.496196
H168	H	1.159752	-0.039413	0.003804
H169	H	0.555622	-0.539429	-0.496205
H170	H	1.055622	-0.039429	0.003795
H171	H	1.209018	-0.329782	-0.843111
H172	H	1.709018	0.170218	-0.343111
