data_functionalizedCrystal
_audit_creation_method	'MofGen! by Chris Wilmer'
_symmetry_space_group_name_H-M	'P1'
_symmetry_Int_Tables_number	1
_symmetry_cell_setting	triclinic
loop_
_symmetry_equiv_pos_as_xyz
  x,y,z
_cell_length_a	16.959454
_cell_length_b	16.959455
_cell_length_c	16.959447
_cell_angle_alpha	89.987476
_cell_angle_beta	89.973264
_cell_angle_gamma	90.020960
loop_
_atom_site_label
_atom_site_type_symbol
_atom_site_fract_x
_atom_site_fract_y
_atom_site_fract_z
Zn1	Zn	-0.314647	1.208384	-0.446890
Zn2	Zn	-0.446840	1.208306	-0.314720
Zn3	Zn	-0.314681	1.076212	-0.314732
Zn4	Zn	-0.446790	1.076177	-0.446863
O5	O	-0.380739	1.142270	-0.380801
O6	O	-0.332190	1.318984	-0.429364
O7	O	-0.429344	1.190766	-0.204111
O8	O	-0.204066	1.093792	-0.332280
O9	O	-0.429311	1.318927	-0.332259
O10	O	-0.204041	1.190898	-0.429376
O11	O	-0.332247	1.093717	-0.204120
O12	O	-0.332199	0.965597	-0.332253
O13	O	-0.429226	1.093732	-0.557478
O14	O	-0.429259	0.965571	-0.429329
O15	O	-0.332141	1.190864	-0.557498
O16	O	-0.557444	1.190732	-0.332233
O17	O	-0.557407	1.093657	-0.429317
C18	C	-0.586106	1.142204	-0.380788
C19	C	-0.673962	1.142248	-0.380809
C20	C	-0.380728	0.936904	-0.380790
C21	C	-0.380741	0.849047	-0.380803
C22	C	-1.045449	1.091796	-0.431348
C23	C	-1.045427	1.192964	-0.330335
C24	C	-0.962881	1.192936	-0.330328
C25	C	-0.921615	1.142337	-0.380831
C26	C	-0.962895	1.091765	-0.431341
C27	C	-0.921595	1.243501	-0.279813
C28	C	-0.839044	1.243475	-0.279803
C29	C	-0.797777	1.192879	-0.330311
C30	C	-0.839062	1.142306	-0.380823
C31	C	-0.797796	1.091707	-0.431326
C32	C	-0.839079	1.041137	-0.481843
C33	C	-0.921628	1.041170	-0.481848
C34	C	-0.715228	1.192847	-0.330306
C35	C	-0.715242	1.091676	-0.431319
C36	C	-0.380674	1.142303	-0.586970
C37	C	-0.380646	1.142317	-0.674826
C38	C	-0.174571	1.142358	-0.380832
C39	C	-0.086715	1.142395	-0.380845
C40	C	-0.380752	1.348438	-0.380814
C41	C	-0.380757	1.436295	-0.380819
C42	C	-0.431310	1.807743	-0.330246
C43	C	-0.330176	1.807797	-0.431362
C44	C	-0.330180	1.725251	-0.431367
C45	C	-0.380748	1.683948	-0.380810
C46	C	-0.431313	1.725189	-0.330248
C47	C	-0.279610	1.684003	-0.481923
C48	C	-0.279611	1.601452	-0.481929
C49	C	-0.330183	1.560147	-0.431376
C50	C	-0.380751	1.601394	-0.380812
C51	C	-0.431319	1.560090	-0.330255
C52	C	-0.481891	1.601336	-0.279695
C53	C	-0.481886	1.683884	-0.279694
C54	C	-0.330189	1.477599	-0.431376
C55	C	-0.431322	1.477536	-0.330257
C56	C	-0.431110	1.091839	-1.046294
C57	C	-0.330015	1.192983	-1.046310
C58	C	-0.330032	1.192962	-0.963764
C59	C	-0.380590	1.142380	-0.922479
C60	C	-0.431130	1.091818	-0.963741
C61	C	-0.279498	1.243529	-0.922497
C62	C	-0.279513	1.243510	-0.839946
C63	C	-0.330067	1.192923	-0.798660
C64	C	-0.380610	1.142359	-0.839926
C65	C	-0.431167	1.091776	-0.798641
C66	C	-0.481706	1.041207	-0.839906
C67	C	-0.481684	1.041231	-0.922454
C68	C	-0.330089	1.192899	-0.716111
C69	C	-0.431187	1.091755	-0.716087
C70	C	-0.380748	1.142283	-0.175435
C71	C	-0.380553	1.142422	-0.087579
H72	H	-0.681649	1.050475	-0.472447
C73	C	-0.275139	1.247827	-0.671452
C74	C	-0.230850	1.292119	-0.725276
C75	C	-0.180211	1.342721	-0.684166
H76	H	-0.305299	1.282312	-0.639237
H77	H	-0.240659	1.217615	-0.639278
H78	H	-0.265325	1.322328	-0.757437
H79	H	-0.200674	1.257654	-0.757494
H80	H	-0.145730	1.312509	-0.651992
H81	H	-0.210377	1.377201	-0.651952
H82	H	-0.150149	1.372774	-0.720679
C83	C	-0.224616	1.556632	-0.536696
C84	C	-0.173956	1.509255	-0.491955
C85	C	-0.123282	1.467963	-0.542381
H86	H	-0.254756	1.524368	-0.571148
H87	H	-0.194453	1.593029	-0.566792
H88	H	-0.204116	1.472863	-0.461873
H89	H	-0.143799	1.541500	-0.457505
H90	H	-0.093119	1.504359	-0.572477
H91	H	-0.153428	1.435703	-0.576830
H92	H	-0.088898	1.435818	-0.512031
C93	C	-1.090085	1.247926	-0.275419
C94	C	-1.036263	1.292195	-0.231171
C95	C	-1.077375	1.342830	-0.180566
H96	H	-1.122250	1.282426	-0.305601
H97	H	-1.122309	1.217741	-0.240912
H98	H	-1.004052	1.322378	-0.265674
H99	H	-1.004096	1.257716	-0.200973
H100	H	-1.109600	1.312645	-0.146058
H101	H	-1.109540	1.377325	-0.210754
H102	H	-1.040864	1.372867	-0.150532
C103	C	-0.486126	1.036965	-0.671163
C104	C	-0.536790	1.081690	-0.623748
C105	C	-0.587403	1.031246	-0.582343
H106	H	-0.516296	1.006835	-0.707469
H107	H	-0.455917	1.002545	-0.638919
H108	H	-0.566997	1.116096	-0.655989
H109	H	-0.506642	1.111818	-0.587427
H110	H	-0.557194	0.996826	-0.550100
H111	H	-0.617568	1.001118	-0.618655
H112	H	-0.621780	1.061583	-0.550162
H113	H	-0.238342	1.284715	-0.956117
H114	H	-0.805471	0.999936	-0.522959
H115	H	-0.955200	1.284690	-0.238691
H116	H	-0.289008	1.444020	-0.472535
H117	H	-0.238437	1.717639	-0.523081
C118	C	-0.670264	1.247657	-0.275495
C119	C	-0.589139	1.236790	-0.286285
C120	C	-0.547694	1.287264	-0.235797
H121	H	-0.683653	1.300796	-0.287055
H122	H	-0.683783	1.236116	-0.222361
H123	H	-0.575625	1.248337	-0.339407
H124	H	-0.575726	1.183662	-0.274719
H125	H	-0.561213	1.275723	-0.182663
H126	H	-0.561090	1.340400	-0.247362
H127	H	-0.492647	1.279893	-0.243106
H128	H	-0.522873	1.000026	-0.806281
H129	H	-0.238361	1.284686	-0.806355
H130	H	-1.079065	1.050626	-0.472480
C131	C	-0.966593	0.986293	-0.536598
C132	C	-1.047717	0.997133	-0.525774
C133	C	-1.089166	0.946586	-0.576185
H134	H	-0.953127	0.997767	-0.589750
H135	H	-0.953153	0.933171	-0.524971
H136	H	-1.061151	1.050243	-0.537406
H137	H	-1.061206	0.985654	-0.472633
H138	H	-1.075726	0.893463	-0.564558
H139	H	-1.075694	0.958064	-0.629334
H140	H	-1.144213	0.953928	-0.568843
H141	H	-0.472486	1.841329	-0.289084
H142	H	-0.522833	1.000063	-0.956059
H143	H	-0.805436	1.284651	-0.238671
C144	C	-0.536762	1.556344	-0.224891
C145	C	-0.525946	1.475225	-0.235729
C146	C	-0.576485	1.433751	-0.185267
H147	H	-0.525265	1.569768	-0.171750
H148	H	-0.589886	1.569805	-0.236460
H149	H	-0.472835	1.461770	-0.224154
H150	H	-0.537449	1.461778	-0.288859
H151	H	-0.629608	1.447212	-0.196836
H152	H	-0.564983	1.447182	-0.132130
H153	H	-0.569158	1.378708	-0.192619
C154	C	-0.536696	1.728808	-0.224828
C155	C	-0.525849	1.809940	-0.235631
C156	C	-0.576315	1.851351	-0.185093
H157	H	-0.589835	1.715365	-0.236335
H158	H	-0.525135	1.715313	-0.171705
H159	H	-0.537416	1.823429	-0.288742
H160	H	-0.472720	1.823406	-0.224119
H161	H	-0.564754	1.837857	-0.131970
H162	H	-0.629452	1.837902	-0.196604
H163	H	-0.568958	1.906403	-0.192410
C164	C	-0.275361	1.852781	-0.486219
C165	C	-0.286192	1.933902	-0.475407
C166	C	-0.235716	1.975368	-0.525937
H167	H	-0.222224	1.839361	-0.474711
H168	H	-0.286922	1.839311	-0.539344
H169	H	-0.274625	1.947367	-0.422294
H170	H	-0.339318	1.947345	-0.486920
H171	H	-0.247277	1.961898	-0.579062
H172	H	-0.182582	1.961942	-0.514425
H173	H	-0.243063	2.030412	-0.518613
C174	C	-0.486077	1.037070	-1.091132
C175	C	-0.536745	1.081813	-1.138499
C176	C	-0.587398	1.031387	-1.179807
H177	H	-0.455922	1.002634	-1.123405
H178	H	-0.516236	1.006958	-1.054744
H179	H	-0.506590	1.111911	-1.174882
H180	H	-0.566917	1.116247	-1.106246
H181	H	-0.617557	1.001275	-1.143419
H182	H	-0.557237	0.996953	-1.212075
H183	H	-0.621787	1.061738	-1.211945
C184	C	-0.275225	1.248033	-1.091087
C185	C	-0.292457	1.326227	-1.071012
C186	C	-0.242003	1.376963	-1.112255
H187	H	-0.222090	1.236587	-1.077607
H188	H	-0.282458	1.240860	-1.146168
H189	H	-0.285217	1.333396	-1.015944
H190	H	-0.345582	1.337698	-1.084495
H191	H	-0.249237	1.369790	-1.167336
H192	H	-0.188872	1.365510	-1.098772
H193	H	-0.253693	1.430023	-1.098646
H194	H	-0.472505	1.443913	-0.289090
