data_functionalizedCrystal
_audit_creation_method	'MofGen! by Chris Wilmer'
_symmetry_space_group_name_H-M	'P1'
_symmetry_Int_Tables_number	1
_symmetry_cell_setting	triclinic
loop_
_symmetry_equiv_pos_as_xyz
  x,y,z
_cell_length_a	12.759401
_cell_length_b	13.897447
_cell_length_c	12.759393
_cell_angle_alpha	89.967926
_cell_angle_beta	89.980623
_cell_angle_gamma	90.021237
loop_
_atom_site_label
_atom_site_type_symbol
_atom_site_fract_x
_atom_site_fract_y
_atom_site_fract_z
Zn1	Zn	1.606220	-0.383914	-0.594002
Zn2	Zn	2.106220	0.116086	-0.094002
Zn3	Zn	1.606100	-0.545244	-0.418321
Zn4	Zn	2.106100	-0.045244	0.081679
Zn5	Zn	1.430522	-0.383969	-0.418339
Zn6	Zn	1.930522	0.116031	0.081661
Zn7	Zn	1.430496	-0.545174	-0.593960
Zn8	Zn	1.930496	-0.045174	-0.093960
O9	O	1.518334	-0.464575	-0.506155
O10	O	2.018334	0.035425	-0.006155
O11	O	1.753225	-0.405321	-0.570708
O12	O	2.253225	0.094679	-0.070708
O13	O	1.582769	-0.523902	-0.271302
O14	O	2.082769	-0.023902	0.228698
O15	O	1.453890	-0.248980	-0.441667
O16	O	1.953890	0.251020	0.058333
O17	O	1.753137	-0.523849	-0.441636
O18	O	2.253137	-0.023849	0.058364
O19	O	1.582975	-0.248940	-0.570726
O20	O	2.082975	0.251060	-0.070726
O21	O	1.453773	-0.405415	-0.271316
O22	O	1.953773	0.094585	0.228684
O23	O	1.283498	-0.405347	-0.441625
O24	O	1.783498	0.094653	0.058375
O25	O	1.453846	-0.523730	-0.740986
O26	O	1.953846	-0.023730	-0.240986
O27	O	1.283478	-0.523783	-0.570653
O28	O	1.783478	-0.023783	-0.070653
O29	O	1.582949	-0.405253	-0.741018
O30	O	2.082949	0.094747	-0.241018
O31	O	1.582744	-0.680216	-0.441594
O32	O	2.082744	-0.180216	0.058406
O33	O	1.453729	-0.680165	-0.570635
O34	O	1.953729	-0.180165	-0.070635
C35	C	1.245367	-0.464564	-0.506137
C36	C	1.745367	0.035436	-0.006137
C37	C	1.128590	-0.464583	-0.506154
C38	C	1.628590	0.035417	-0.006154
C39	C	0.964055	-0.402973	-0.573478
C40	C	1.464055	0.097027	-0.073478
C41	C	1.073780	-0.402970	-0.573466
C42	C	1.573780	0.097030	-0.073466
C43	C	1.073672	-0.526209	-0.438856
C44	C	1.573672	-0.026209	0.061144
C45	C	0.963950	-0.526215	-0.438874
C46	C	1.463950	-0.026215	0.061126
C47	C	0.964119	-0.331819	-0.651191
C48	C	1.464119	0.168181	-0.151191
C49	C	1.073843	-0.331816	-0.651179
C50	C	1.573843	0.168184	-0.151179
C51	C	1.518249	-0.715189	-0.506131
C52	C	2.018249	-0.215189	-0.006131
C53	C	1.518309	-0.822403	-0.506156
C54	C	2.018309	-0.322403	-0.006156
C55	C	1.518359	-0.909473	-0.506180
C56	C	2.018359	-0.409473	-0.006180
C57	C	1.518433	-1.018705	-0.506207
C58	C	2.018433	-0.518705	-0.006207
C59	C	1.792368	-0.464587	-0.506175
C60	C	2.292368	0.035413	-0.006175
C61	C	1.909144	-0.464592	-0.506183
C62	C	2.409144	0.035408	-0.006183
C63	C	1.518408	-0.464478	-0.780189
C64	C	2.018408	0.035522	-0.280189
C65	C	1.518439	-0.464436	-0.896966
C66	C	2.018439	0.035564	-0.396966
C67	C	1.518449	-0.212982	-0.506203
C68	C	2.018449	0.287018	-0.006203
C69	C	1.518498	-0.105768	-0.506223
C70	C	2.018498	0.394232	-0.006223
C71	C	1.585673	-0.402740	-0.951846
C72	C	2.085673	0.097260	-0.451846
C73	C	1.585698	-0.402705	-1.061570
C74	C	2.085698	0.097295	-0.561570
C75	C	1.451253	-0.526072	-1.061524
C76	C	1.951253	-0.026072	-0.561524
C77	C	1.451223	-0.526101	-0.951802
C78	C	1.951223	-0.026101	-0.451802
C79	C	1.663297	-0.331518	-0.951873
C80	C	2.163297	0.168482	-0.451873
C81	C	1.663322	-0.331483	-1.061597
C82	C	2.163322	0.168517	-0.561597
C83	C	1.518322	-0.464602	-0.233188
C84	C	2.018322	0.035398	0.266812
C85	C	1.518494	-0.464372	-0.116412
C86	C	2.018494	0.035628	0.383588
H87	H	1.118307	-0.576382	-0.384057
H88	H	1.618307	-0.076382	0.115943
H89	H	0.930095	-0.260826	-0.622184
H90	H	1.430095	0.239174	-0.122184
N91	N	1.378761	-0.592588	-1.120659
N92	N	1.878761	-0.092588	-0.620659
H93	H	1.303699	-0.577603	-1.101554
H94	H	1.803699	-0.077603	-0.601554
H95	H	1.389060	-0.583183	-1.198478
H96	H	1.889060	-0.083183	-0.698478
N97	N	1.771097	-0.357999	-1.101042
N98	N	2.271097	0.142001	-0.601042
H99	H	1.766406	-0.418255	-1.145011
H100	H	2.266406	0.081745	-0.645011
H101	H	1.799865	-0.303595	-1.144992
H102	H	2.299865	0.196405	-0.644992
H103	H	0.934376	-0.351912	-0.732529
H104	H	1.434376	0.148088	-0.232529
N105	N	1.118971	-0.367368	-0.753488
N106	N	1.618971	0.132632	-0.253488
H107	H	1.060073	-0.384545	-0.802932
H108	H	1.560073	0.115455	-0.302932
H109	H	1.163584	-0.315168	-0.785852
H110	H	1.663584	0.184832	-0.285852
H111	H	0.919245	-0.576400	-0.384085
H112	H	1.419245	-0.076400	0.115915
N113	N	1.113321	-0.232832	-0.622493
N114	N	1.613321	0.267168	-0.122493
H115	H	1.051796	-0.188663	-0.609692
H116	H	1.551796	0.311337	-0.109692
H117	H	1.157295	-0.237130	-0.556858
H118	H	1.657295	0.262870	-0.056858
N119	N	1.378668	-0.592607	-0.892608
N120	N	1.878668	-0.092607	-0.392608
H121	H	1.336086	-0.631658	-0.943998
H122	H	1.836086	-0.131658	-0.443998
H123	H	1.421365	-0.637275	-0.847056
H124	H	1.921365	-0.137275	-0.347056
N125	N	1.634484	-0.232571	-0.912445
N126	N	2.134484	0.267429	-0.412445
H127	H	1.621638	-0.188395	-0.973992
H128	H	2.121638	0.311605	-0.473992
H129	H	1.568849	-0.236937	-0.868432
H130	H	2.068849	0.263063	-0.368432
N131	N	1.765547	-0.367219	-0.906777
N132	N	2.265547	0.132781	-0.406777
H133	H	1.814988	-0.384411	-0.965690
H134	H	2.314988	0.115589	-0.465690
H135	H	1.797996	-0.315146	-0.862132
H136	H	2.297996	0.184854	-0.362132
H137	H	1.634215	-0.260505	-1.095645
H138	H	2.134215	0.239495	-0.595645
