data_functionalizedCrystal
_audit_creation_method	'MofGen! by Chris Wilmer'
_symmetry_space_group_name_H-M	'P1'
_symmetry_Int_Tables_number	1
_symmetry_cell_setting	triclinic
loop_
_symmetry_equiv_pos_as_xyz
  x,y,z
_cell_length_a	16.992694
_cell_length_b	8.559649
_cell_length_c	15.455313
_cell_angle_alpha	92.289439
_cell_angle_beta	87.142206
_cell_angle_gamma	80.223444
loop_
_atom_site_label
_atom_site_type_symbol
_atom_site_fract_x
_atom_site_fract_y
_atom_site_fract_z
O1	O	1.023967	0.329735	-0.072017
O2	O	1.523967	0.829735	0.427983
O3	O	0.795905	0.326044	-0.072043
O4	O	1.295905	0.826044	0.427957
O5	O	0.930028	0.097853	-0.072027
O6	O	1.430028	0.597853	0.427973
O7	O	0.889844	0.557925	-0.072033
O8	O	1.389844	1.057925	0.427967
O9	O	0.922362	0.110845	0.072234
O10	O	1.422362	0.610845	0.572234
O11	O	0.788239	0.339035	0.072218
O12	O	1.288239	0.839035	0.572218
O13	O	1.016301	0.342726	0.072244
O14	O	1.516301	0.842726	0.572244
Cu15	Cu	0.901570	0.342067	0.085403
Cu16	Cu	1.401570	0.842067	0.585403
Cu17	Cu	0.910636	0.326703	-0.085202
Cu18	Cu	1.410636	0.826703	0.414798
O19	O	0.882177	0.570917	0.072228
O20	O	1.382177	1.070917	0.572228
C21	C	0.763145	0.327794	0.000084
C22	C	1.263145	0.827794	0.500084
C23	C	0.676954	0.313635	0.000075
C24	C	1.176954	0.813635	0.500075
C25	C	0.929241	0.045208	0.000102
C26	C	1.429241	0.545208	0.500102
C27	C	0.938306	-0.131015	0.000099
C28	C	1.438306	0.368985	0.500099
C29	C	0.618488	0.450242	0.000073
C30	C	1.118488	0.950242	0.500073
C31	C	0.537502	0.436931	0.000086
C32	C	1.037502	0.936931	0.500086
C33	C	0.514985	0.287010	0.000093
C34	C	1.014985	0.787010	0.500093
C35	C	0.573459	0.150392	0.000096
C36	C	1.073459	0.650392	0.500096
C37	C	0.654442	0.163706	0.000090
C38	C	1.154442	0.663706	0.500090
C39	C	0.274709	0.231831	0.000117
C40	C	0.774709	0.731831	0.500117
C41	C	0.193718	0.218527	0.000120
C42	C	0.693718	0.718527	0.500120
C43	C	0.157767	0.505067	0.000111
C44	C	0.657767	1.005067	0.500111
C45	C	0.238755	0.518367	0.000099
C46	C	0.738755	1.018367	0.500099
C47	C	0.297221	0.381750	0.000108
C48	C	0.797221	0.881750	0.500108
N49	N	0.432205	0.273400	0.000102
N50	N	0.932205	0.773400	0.500102
N51	N	0.379998	0.395362	0.000104
N52	N	0.879998	0.895362	0.500104
C53	C	1.049061	0.340976	0.000115
C54	C	1.549061	0.840976	0.500115
C55	C	1.135252	0.355134	0.000119
C56	C	1.635252	0.855134	0.500119
C57	C	0.882965	0.623562	0.000097
C58	C	1.382965	1.123562	0.500097
C59	C	0.873900	0.799784	0.000095
C60	C	1.373900	1.299784	0.500095
N61	N	0.895199	0.352873	0.205398
N62	N	1.395199	0.852873	0.705398
N63	N	0.917014	0.315885	-0.205197
N64	N	1.417014	0.815885	0.294803
C65	C	0.952194	0.255970	0.250799
C66	C	1.452194	0.755970	0.750799
C67	C	0.947382	0.264158	0.341606
C68	C	1.447382	0.764158	0.841606
C69	C	0.885578	0.369258	0.387011
C70	C	1.385578	0.869258	0.887011
C71	C	0.828576	0.466164	0.341604
C72	C	1.328576	0.966164	0.841604
C73	C	0.833386	0.457968	0.250798
C74	C	1.333386	0.957968	0.750798
C75	C	0.864822	0.404595	0.658590
C76	C	1.364822	0.904595	1.158590
C77	C	0.860018	0.412788	0.749402
C78	C	1.360018	0.912788	1.249402
C79	C	0.978824	0.210778	0.749398
C80	C	1.478824	0.710778	1.249398
C81	C	0.983631	0.202598	0.658591
C82	C	1.483631	0.702598	1.158591
C83	C	0.926627	0.299499	0.613191
C84	C	1.426627	0.799499	1.113191
N85	N	0.880659	0.377633	0.479831
N86	N	1.380659	0.877633	0.979831
N87	N	0.931543	0.291114	0.520373
N88	N	1.431543	0.791114	1.020373
H89	H	0.489900	0.548172	0.000084
H90	H	0.989900	1.048172	0.500084
H91	H	0.809687	0.498379	0.786366
H92	H	1.309687	0.998379	1.286366
H93	H	0.811825	-0.124646	0.000091
H94	H	1.311825	0.375354	0.500091
H95	H	0.702046	0.052465	0.000091
H96	H	1.202046	0.552465	0.500091
H97	H	0.778250	0.551733	0.378578
H98	H	1.278250	1.051733	0.878578
O99	O	1.020539	-0.231111	0.000121
O100	O	1.520539	0.268889	0.500121
H101	H	1.056595	-0.209441	-0.058670
H102	H	1.556595	0.290559	0.441330
O103	O	0.803348	0.509129	0.609633
O104	O	1.303348	1.009129	1.109633
H105	H	0.771736	0.433781	0.568279
H106	H	1.271736	0.933781	1.068279
O107	O	1.018853	0.142605	0.201827
O108	O	1.518853	0.642605	0.701827
H109	H	1.057671	0.076586	0.248657
H110	H	1.557671	0.576586	0.748657
O111	O	1.008868	0.159673	0.390578
O112	O	1.508868	0.659673	0.890578
H113	H	1.052662	0.085239	0.343750
H114	H	1.552662	0.585239	0.843750
H115	H	1.033957	0.117017	0.621624
H116	H	1.533957	0.617017	1.121624
O117	O	1.040300	0.106252	0.798362
O118	O	1.540300	0.606252	1.298362
H119	H	1.026571	0.129593	0.869133
H120	H	1.526571	0.629593	1.369133
H121	H	0.175390	0.096437	0.000125
H122	H	0.675390	0.596437	0.500125
H123	H	0.786973	0.536874	0.213833
H124	H	1.286973	1.036874	0.713833
H125	H	0.636813	0.572324	0.000067
H126	H	1.136813	1.072324	0.500067
O127	O	0.337758	0.084478	0.000124
O128	O	0.837758	0.584478	0.500124
H129	H	0.378639	0.078386	-0.058671
H130	H	0.878639	0.578386	0.441329
H131	H	0.110156	0.616293	0.000106
H132	H	0.610156	1.116293	0.500106
O133	O	0.263030	0.680078	0.000112
O134	O	0.763030	1.180078	0.500112
H135	H	0.241975	0.740943	-0.058679
H136	H	0.741975	1.240943	0.441321
O137	O	0.549179	-0.011314	0.000107
O138	O	1.049179	0.488686	0.500107
H139	H	0.483044	0.002374	0.000103
H140	H	0.983044	0.502374	0.500103
