data_functionalizedCrystal
_audit_creation_method	'MofGen! by Chris Wilmer'
_symmetry_space_group_name_H-M	'P1'
_symmetry_Int_Tables_number	1
_symmetry_cell_setting	triclinic
loop_
_symmetry_equiv_pos_as_xyz
  x,y,z
_cell_length_a	16.109301
_cell_length_b	17.699083
_cell_length_c	14.586319
_cell_angle_alpha	89.995320
_cell_angle_beta	89.999213
_cell_angle_gamma	83.372248
loop_
_atom_site_label
_atom_site_type_symbol
_atom_site_fract_x
_atom_site_fract_y
_atom_site_fract_z
O1	O	1.102963	0.097285	-0.076184
O2	O	0.860880	0.109391	-0.076199
O3	O	0.988761	-0.006841	-0.076183
O4	O	0.975082	0.213517	-0.076200
O5	O	0.988752	-0.006843	0.076298
O6	O	0.860872	0.109390	0.076282
O7	O	1.102954	0.097283	0.076297
Cu8	Cu	0.981912	0.103336	0.090212
Cu9	Cu	0.981923	0.103338	-0.090114
O10	O	0.975074	0.213516	0.076281
C11	C	0.829902	0.108900	0.000040
C12	C	0.737609	0.107430	0.000034
C13	C	0.515224	0.172981	0.000040
C14	C	0.428506	0.171594	0.000046
C15	C	0.448618	0.033688	0.000053
C16	C	0.535334	0.035076	0.000053
C17	C	0.568635	0.104725	0.000042
C18	C	0.395200	0.101949	0.000047
C19	C	0.301177	0.100445	0.000054
C20	C	0.662664	0.106230	0.000037
C21	C	0.988267	-0.035040	0.000057
C22	C	0.986796	-0.119060	0.000058
C23	C	1.061860	-0.167574	0.000064
C24	C	1.060473	-0.246519	0.000055
C25	C	0.984022	-0.276949	0.000048
C26	C	0.908953	-0.228429	0.000039
C27	C	0.910341	-0.149485	0.000041
C28	C	0.903356	-0.546800	0.000031
C29	C	0.901974	-0.625750	0.000033
C30	C	1.053488	-0.643834	0.000046
C31	C	1.054876	-0.564890	0.000048
C32	C	0.979807	-0.516377	0.000034
C33	C	0.981312	-0.430776	0.000041
C34	C	0.982517	-0.362549	0.000047
C35	C	1.133933	0.097774	0.000056
C36	C	1.226226	0.099244	0.000055
C37	C	0.975568	0.241714	0.000038
C38	C	0.977039	0.325734	0.000032
N39	N	0.981911	0.103334	0.217044
N40	N	0.981931	0.103334	-0.216946
C41	C	1.038555	0.051884	0.452057
C42	C	1.038558	0.051882	0.548038
C43	C	0.925280	0.154787	0.548034
C44	C	0.925274	0.154785	0.452054
C45	C	0.981917	0.103334	0.404068
C46	C	0.981925	0.103334	0.596029
C47	C	0.981927	0.103333	0.700096
C48	C	0.981914	0.103334	0.299995
H49	H	0.385022	0.227175	0.000046
C50	C	1.151325	-0.089302	0.078459
C51	C	1.145899	-0.134131	0.000072
H52	H	1.203212	-0.068663	0.078463
H53	H	1.106827	-0.049111	0.078451
H54	H	1.147630	-0.119734	0.131625
H55	H	1.149588	-0.103697	-0.053094
H56	H	1.190410	-0.174328	0.000072
C57	C	1.210381	-0.256465	0.000091
C58	C	1.142985	-0.299846	0.000072
H59	H	1.261322	-0.289389	0.000108
H60	H	1.207780	-0.225297	-0.053079
H61	H	1.207753	-0.225299	0.053268
H62	H	1.145609	-0.331008	-0.053109
H63	H	1.145588	-0.331027	0.053248
C64	C	0.477208	-0.102487	0.000059
C65	C	0.412012	-0.042869	0.000054
H66	H	0.454608	-0.149750	0.000063
H67	H	0.510613	-0.099073	-0.053109
H68	H	0.510611	-0.099075	0.053238
H69	H	0.378612	-0.046277	-0.053129
H70	H	0.378593	-0.046284	0.053227
C71	C	1.151736	0.035489	0.655972
C72	C	1.100817	-0.004672	0.600790
H73	H	1.190169	0.000571	0.688542
H74	H	1.181573	0.066995	0.618525
H75	H	1.117997	0.066127	0.698285
H76	H	1.134556	-0.035306	0.558473
H77	H	1.070978	-0.036192	0.638241
H78	H	0.578824	-0.020510	0.000058
C79	C	1.203403	-0.653779	0.000065
C80	C	1.136009	-0.697162	0.000051
H81	H	1.254344	-0.686701	0.000075
H82	H	1.200796	-0.622609	-0.053104
H83	H	1.200779	-0.622615	0.053244
H84	H	1.138629	-0.728322	-0.053132
H85	H	1.138616	-0.728345	0.053225
C86	C	0.812091	0.171182	0.344123
C87	C	0.863015	0.211345	0.399297
H88	H	0.773653	0.206099	0.311557
H89	H	0.845820	0.140544	0.301815
H90	H	0.782252	0.139676	0.381583
H91	H	0.892858	0.242848	0.361835
H92	H	0.829281	0.241997	0.441609
C93	C	1.144334	-0.486595	-0.078330
C94	C	1.138912	-0.531441	0.000053
H95	H	1.196214	-0.465943	-0.078325
H96	H	1.140650	-0.517014	-0.131493
H97	H	1.099822	-0.446406	-0.078321
H98	H	1.183420	-0.571634	0.000040
H99	H	1.142605	-0.501020	0.053230
C100	C	0.752335	-0.599948	-0.000006
C101	C	0.817933	-0.659200	0.000012
H102	H	0.700456	-0.620601	-0.000024
H103	H	0.756013	-0.569537	0.053165
H104	H	0.756041	-0.569530	-0.053182
H105	H	0.814230	-0.689615	0.053192
H106	H	0.814253	-0.689624	-0.053164
C107	C	0.781627	-0.109760	-0.078352
C108	C	0.827828	-0.096156	0.000035
H109	H	0.730684	-0.076839	-0.078354
H110	H	0.812987	-0.100532	-0.131512
H111	H	0.769866	-0.161132	-0.078342
H112	H	0.839595	-0.044785	0.000022
H113	H	0.796461	-0.105378	0.053209
H114	H	1.084675	0.009988	0.412989
C115	C	0.779368	-0.237314	0.078405
C116	C	0.824913	-0.261872	0.000028
H117	H	0.727483	-0.257955	0.078394
H118	H	0.810262	-0.253977	0.131572
H119	H	0.769461	-0.183354	0.078394
H120	H	0.834826	-0.315832	0.000042
H121	H	0.794013	-0.245213	-0.053153
C122	C	0.874998	0.200490	0.695162
C123	C	0.863029	0.211347	0.600783
H124	H	0.836570	0.235414	0.727724
H125	H	0.866068	0.149982	0.710897
H126	H	0.930471	0.208724	0.710874
H127	H	0.807558	0.203108	0.585071
H128	H	0.871952	0.261868	0.585042
H129	H	0.542334	0.229694	0.000038
H130	H	0.842230	-0.507310	0.000021
