data_functionalizedCrystal
_audit_creation_method	'MofGen! by Chris Wilmer'
_symmetry_space_group_name_H-M	'P1'
_symmetry_Int_Tables_number	1
_symmetry_cell_setting	triclinic
loop_
_symmetry_equiv_pos_as_xyz
  x,y,z
_cell_length_a	12.759401
_cell_length_b	19.121063
_cell_length_c	12.759393
_cell_angle_alpha	92.404035
_cell_angle_beta	89.979062
_cell_angle_gamma	92.470439
loop_
_atom_site_label
_atom_site_type_symbol
_atom_site_fract_x
_atom_site_fract_y
_atom_site_fract_z
Zn1	Zn	1.588334	-0.279551	-0.611809
Zn2	Zn	1.580690	-0.397017	-0.443603
Zn3	Zn	1.412630	-0.279588	-0.436146
Zn4	Zn	1.405092	-0.396968	-0.619238
O5	O	1.496686	-0.338281	-0.527699
O6	O	1.734340	-0.295138	-0.589508
O7	O	1.558352	-0.381476	-0.295595
O8	O	1.442291	-0.181299	-0.453218
O9	O	1.728724	-0.381440	-0.465928
O10	O	1.571380	-0.181271	-0.582277
O11	O	1.434879	-0.295201	-0.290117
O12	O	1.264609	-0.295154	-0.460422
O13	O	1.429444	-0.381356	-0.765271
O14	O	1.259071	-0.381393	-0.594938
O15	O	1.564071	-0.295090	-0.759813
O16	O	1.551042	-0.495295	-0.473132
O17	O	1.422032	-0.495259	-0.602169
C18	C	1.223720	-0.338272	-0.527678
C19	C	1.106942	-0.338286	-0.527694
C20	C	1.484918	-0.520761	-0.539289
C21	C	1.479980	-0.598827	-0.544282
C22	C	1.049220	-0.383259	-0.597636
C23	C	0.939495	-0.383261	-0.597657
C24	C	0.945226	-0.293316	-0.457786
C25	C	1.054948	-0.293311	-0.457771
C26	C	1.544881	-0.635498	-0.479500
C27	C	1.540243	-0.708849	-0.484203
C28	C	1.470697	-0.745528	-0.553682
C29	C	1.405794	-0.708852	-0.618471
C30	C	1.410438	-0.635502	-0.613773
C31	C	1.453316	-0.966997	-0.571229
C32	C	1.448675	-1.040352	-0.575920
C33	C	1.583126	-1.040344	-0.441653
C34	C	1.587759	-0.966993	-0.436957
C35	C	1.522860	-0.930323	-0.501749
C36	C	1.465952	-0.820504	-0.558488
C37	C	1.527611	-0.855348	-0.496948
C38	C	1.770719	-0.338290	-0.527721
C39	C	1.887495	-0.338294	-0.527731
C40	C	1.496769	-0.338214	-0.801728
C41	C	1.496805	-0.338185	-0.918503
C42	C	1.508529	-0.155088	-0.516087
C43	C	1.513576	-0.077023	-0.511139
C44	C	1.566910	-0.293259	-0.970524
C45	C	1.566930	-0.293229	-1.080246
C46	C	1.426735	-0.383056	-1.085917
C47	C	1.426711	-0.383083	-0.976196
C48	C	1.496667	-0.338298	-0.254733
C49	C	1.496848	-0.338128	-0.137946
H50	H	0.892502	-0.419882	-0.654611
H51	H	1.644389	-0.937130	-0.380382
H52	H	1.601508	-0.605639	-0.422919
C53	C	1.635728	-1.152780	-0.389253
C54	C	1.654479	-1.080653	-0.370455
H55	H	1.679791	-1.177663	-0.345304
H56	H	1.564394	-1.164849	-0.374572
H57	H	1.650300	-1.164744	-0.460630
H58	H	1.639899	-1.068688	-0.299079
H59	H	1.725829	-1.068578	-0.385128
C60	C	1.317213	-0.884582	-0.580416
C61	C	1.381974	-0.926689	-0.642435
H62	H	1.273173	-0.859692	-0.624378
H63	H	1.275238	-0.913244	-0.536450
H64	H	1.359312	-0.852245	-0.538371
H65	H	1.339875	-0.959030	-0.684474
H66	H	1.423953	-0.898025	-0.686419
H67	H	1.349173	-0.738721	-0.675047
H68	H	1.369615	-0.419666	-0.933840
H69	H	0.902879	-0.256700	-0.400855
H70	H	1.357590	-0.605645	-0.666526
H71	H	1.623982	-0.256698	-0.923553
C72	C	1.288155	-0.471848	-1.080500
C73	C	1.349697	-0.432412	-1.149336
H74	H	1.240592	-0.502316	-1.119653
H75	H	1.332182	-0.498724	-1.039416
H76	H	1.249938	-0.441248	-1.035759
H77	H	1.387920	-0.463012	-1.194073
H78	H	1.305664	-0.405534	-1.190438
H79	H	1.091550	-0.419879	-0.654575
C80	C	1.381848	-1.152797	-0.642724
C81	C	1.372224	-1.080672	-0.652296
H82	H	1.334646	-1.177687	-0.689866
H83	H	1.451665	-1.164767	-0.658929
H84	H	1.365744	-1.164851	-0.572886
H85	H	1.388336	-1.068617	-0.722132
H86	H	1.302392	-1.068697	-0.636098
H87	H	1.624015	-0.256644	-1.122597
H88	H	1.593091	-0.738703	-0.431450
C89	C	1.049600	-0.204406	-0.319501
C90	C	1.118405	-0.243875	-0.380882
H91	H	1.088778	-0.173891	-0.272034
H92	H	1.008559	-0.177580	-0.363642
H93	H	1.004811	-0.234984	-0.281186
H94	H	1.163189	-0.213297	-0.419203
H95	H	1.159465	-0.270703	-0.336735
H96	H	1.584239	-0.825482	-0.440382
H97	H	1.409326	-0.850376	-0.615056
