data_functionalizedCrystal
_audit_creation_method	'MofGen! by Chris Wilmer'
_symmetry_space_group_name_H-M	'P1'
_symmetry_Int_Tables_number	1
_symmetry_cell_setting	triclinic
loop_
_symmetry_equiv_pos_as_xyz
  x,y,z
_cell_length_a	30.570240
_cell_length_b	30.570248
_cell_length_c	30.570296
_cell_angle_alpha	90.001721
_cell_angle_beta	59.996307
_cell_angle_gamma	119.999588
loop_
_atom_site_label
_atom_site_type_symbol
_atom_site_fract_x
_atom_site_fract_y
_atom_site_fract_z
O1	O	-0.385842	-0.372854	0.685934
O2	O	-0.296267	-0.309239	0.532746
O3	O	-0.385843	-0.309241	0.622323
O4	O	-0.296267	-0.372852	0.596357
O5	O	-0.313087	-0.236486	0.622321
O6	O	-0.223512	-0.236484	0.532744
O7	O	-0.313087	-0.300099	0.685932
Zn8	Zn	-0.256748	-0.256740	0.609338
Zn9	Zn	-0.352606	-0.352598	0.609340
O10	O	-0.223511	-0.300097	0.596355
C11	C	-0.481132	-0.159688	0.640816
C12	C	-0.455054	-0.107043	0.641186
C13	C	-0.560341	-0.159685	0.640812
C14	C	-0.534143	-0.107040	0.641181
C15	C	-0.481129	-0.080474	0.640812
C16	C	-0.534146	-0.186134	0.641185
C17	C	-0.474913	-0.239081	0.634392
C18	C	-0.445923	-0.264188	0.630338
C19	C	-0.391725	-0.237122	0.628304
C20	C	-0.360287	-0.264342	0.623906
C21	C	-0.366512	-0.184949	0.630330
C22	C	-0.395502	-0.159844	0.634386
C23	C	-0.449700	-0.186910	0.636415
C24	C	-0.395310	0.005138	0.634385
C25	C	-0.366146	0.059236	0.630327
C26	C	-0.391175	0.086370	0.628288
C27	C	-0.359555	0.145026	0.623885
C28	C	-0.445374	0.059410	0.630313
C29	C	-0.474538	0.005314	0.634373
C30	C	-0.449504	-0.021819	0.636407
C31	C	-0.639525	-0.239075	0.634382
C32	C	-0.689559	-0.264178	0.630316
C33	C	-0.714653	-0.237109	0.628278
C34	C	-0.768906	-0.264325	0.623874
C35	C	-0.689718	-0.184938	0.630301
C36	C	-0.639684	-0.159833	0.634364
C37	C	-0.614590	-0.186904	0.636405
O38	O	-0.913891	-0.372839	0.596334
O39	O	-0.786670	-0.309226	0.622297
O40	O	-0.786659	-0.309227	0.532721
O41	O	-0.913902	-0.372838	0.685910
O42	O	-0.786658	-0.236472	0.532717
O43	O	-0.786669	-0.236471	0.622293
O44	O	-0.913890	-0.300084	0.596330
Zn45	Zn	-0.850279	-0.256726	0.609311
Zn46	Zn	-0.850281	-0.352584	0.609316
O47	O	-0.913901	-0.300083	0.685906
C48	C	-0.049022	-0.080463	0.208692
C49	C	-0.075216	-0.107033	0.261336
C50	C	-0.128228	-0.159681	0.208691
C51	C	-0.154302	-0.186130	0.261335
C52	C	-0.128226	-0.159681	0.287903
C53	C	-0.075218	-0.107032	0.182244
C54	C	0.030153	0.005154	0.129304
C55	C	0.080188	0.059254	0.104200
C56	C	0.105282	0.086388	0.131268
C57	C	0.159531	0.145047	0.104052
C58	C	0.080351	0.059425	0.183440
C59	C	0.030321	0.005327	0.208542
C60	C	0.005222	-0.021806	0.181474
C61	C	-0.134448	-0.159477	0.373516
C62	C	-0.163437	-0.184414	0.427613
C63	C	-0.217632	-0.236582	0.454744
C64	C	-0.249068	-0.263622	0.513401
C65	C	-0.242842	-0.263822	0.427783
C66	C	-0.213853	-0.238887	0.373688
C67	C	-0.159658	-0.186714	0.346557
C68	C	-0.134453	-0.159476	0.129302
C69	C	-0.163449	-0.184410	0.104199
C70	C	-0.217643	-0.236578	0.131265
C71	C	-0.249082	-0.263618	0.104048
C72	C	-0.242852	-0.263816	0.183435
C73	C	-0.213861	-0.238883	0.208540
C74	C	-0.159661	-0.186713	0.181471
C75	C	-0.082271	-0.420654	0.582137
C76	C	-0.028283	-0.393659	0.585850
C77	C	-0.108467	-0.473299	0.581767
C78	C	-0.161488	-0.420657	0.582143
C79	C	-0.192199	-0.393666	0.585861
C80	C	-0.187564	-0.473302	0.581772
C81	C	-0.161484	-0.499868	0.582139
C82	C	-0.192190	-0.557569	0.585853
C83	C	-0.108471	-0.394208	0.581770
C84	C	-0.216999	-0.604186	0.588855
C85	C	0.015333	-0.371851	0.588850
C86	C	-0.217012	-0.371860	0.588866
C87	C	-0.248122	-0.662669	0.592620
C88	C	0.070052	-0.344491	0.592613
C89	C	-0.248140	-0.344503	0.592635
O90	O	-0.296245	0.317557	0.596337
O91	O	-0.385823	0.164373	0.622298
O92	O	-0.296241	0.253942	0.532723
O93	O	-0.385827	0.227987	0.685912
O94	O	-0.223491	0.253938	0.532728
O95	O	-0.313073	0.164368	0.622303
O96	O	-0.223495	0.317553	0.596342
Zn97	Zn	-0.256733	0.240960	0.609323
Zn98	Zn	-0.352585	0.240966	0.609317
O99	O	-0.313077	0.227983	0.685917
O100	O	-0.313098	-0.300102	-0.004460
O101	O	-0.223526	-0.236479	0.059149
O102	O	-0.313113	-0.236497	0.059164
O103	O	-0.223511	-0.300085	-0.004475
O104	O	-0.385860	-0.309256	0.131917
O105	O	-0.296273	-0.309239	0.131902
O106	O	-0.385845	-0.372861	0.068293
Zn107	Zn	-0.352609	-0.352602	0.111648
Zn108	Zn	-0.256762	-0.256738	0.015793
O109	O	-0.296258	-0.372844	0.068278
O110	O	0.304497	0.317581	0.068303
O111	O	0.177289	0.164392	0.131908
O112	O	0.177265	0.253951	0.131925
O113	O	0.304521	0.228022	0.068286
O114	O	0.177264	0.253952	0.059171
O115	O	0.177288	0.164393	0.059154
O116	O	0.304496	0.317581	-0.004451
Zn117	Zn	0.240892	0.240987	0.015800
Zn118	Zn	0.240893	0.240986	0.111657
O119	O	0.304520	0.228023	-0.004468
C120	C	-0.527075	-0.499881	0.947731
C121	C	-0.581063	-0.557583	0.974726
C122	C	-0.500878	-0.473314	0.974178
C123	C	-0.447860	-0.420667	0.868516
C124	C	-0.417150	-0.393673	0.810813
C125	C	-0.421783	-0.394220	0.895084
C126	C	-0.447862	-0.420668	0.947730
C127	C	-0.417154	-0.393676	0.974723
C128	C	-0.500876	-0.473313	0.895085
C129	C	-0.392344	-0.371868	0.996530
C130	C	-0.624679	-0.604200	0.996534
C131	C	-0.392339	-0.371865	0.764195
C132	C	-0.361219	-0.344510	1.023888
C133	C	-0.679397	-0.662684	1.023894
C134	C	-0.361213	-0.344506	0.705711
C135	C	-1.161517	-0.420649	0.947706
C136	C	-1.192228	-0.393656	0.974699
C137	C	-1.187597	-0.473294	0.974155
C138	C	-1.082296	-0.420649	0.868492
C139	C	-1.028304	-0.393656	0.810789
C140	C	-1.108496	-0.473294	0.895062
C141	C	-1.161517	-0.499862	0.947708
C142	C	-1.192227	-0.557563	0.974703
C143	C	-1.108497	-0.394202	0.895059
C144	C	-1.217038	-0.604181	0.996512
C145	C	-1.217041	-0.371849	0.996506
C146	C	-0.984684	-0.371848	0.764170
C147	C	-1.248165	-0.662664	1.023872
C148	C	-1.248168	-0.344490	1.023864
C149	C	-0.929961	-0.344489	0.705686
C150	C	-0.447864	0.213787	0.947715
C151	C	-0.417173	0.217475	0.974718
C152	C	-0.500860	0.213449	0.974154
C153	C	-0.447847	0.213806	0.868494
C154	C	-0.417138	0.217513	0.810793
C155	C	-0.500843	0.213468	0.895053
C156	C	-0.527039	0.213845	0.947697
C157	C	-0.581002	0.217594	0.974681
C158	C	-0.421788	0.213410	0.895071
C159	C	-0.624599	0.220624	0.996480
C160	C	-0.392377	0.220455	0.996532
C161	C	-0.392327	0.220510	0.764175
C162	C	-0.679293	0.224425	1.023828
C163	C	-0.361270	0.224193	1.023900
C164	C	-0.361202	0.224268	0.705692
C165	C	-0.481075	-0.080477	0.208651
C166	C	-0.454996	-0.107046	0.182205
C167	C	-0.560297	-0.159688	0.287868
C168	C	-0.534098	-0.186137	0.261303
C169	C	-0.481077	-0.159691	0.208656
C170	C	-0.534095	-0.107043	0.261297
C171	C	-0.474851	0.005138	0.208851
C172	C	-0.445855	0.059235	0.183913
C173	C	-0.391651	0.086366	0.131748
C174	C	-0.360208	0.145022	0.104707
C175	C	-0.366437	0.059403	0.104512
C176	C	-0.395432	0.005308	0.129447
C177	C	-0.449637	-0.021822	0.181617
C178	C	-0.395252	-0.159488	0.129267
C179	C	-0.366088	-0.184424	0.104163
C180	C	-0.391124	-0.236588	0.131234
C181	C	-0.359503	-0.263627	0.104018
C182	C	-0.445328	-0.263825	0.183408
C183	C	-0.474492	-0.238891	0.208510
C184	C	-0.449452	-0.186723	0.181439
C185	C	-0.639489	-0.159479	0.373481
C186	C	-0.689531	-0.184410	0.427583
C187	C	-0.714631	-0.236574	0.454718
C188	C	-0.768892	-0.263609	0.513377
C189	C	-0.689695	-0.263811	0.427762
C190	C	-0.639654	-0.238883	0.373662
C191	C	-0.614553	-0.186716	0.346525
O192	O	-1.313104	-0.835623	1.059137
O193	O	-1.223532	-0.682439	0.995523
O194	O	-1.313099	-0.772010	0.995520
O195	O	-1.223538	-0.746053	1.059141
O196	O	-1.385862	-0.772012	1.068276
O197	O	-1.296295	-0.682441	1.068280
O198	O	-1.385868	-0.835625	1.131894
Zn199	Zn	-1.352634	-0.759034	1.111638
Zn200	Zn	-1.256765	-0.759031	1.015778
O201	O	-1.296301	-0.746055	1.131897
C202	C	-0.048942	0.272440	0.208662
C203	C	-0.075134	0.272812	0.182210
C204	C	-0.128161	0.272443	0.287873
C205	C	-0.154232	0.272816	0.261301
C206	C	-0.128149	0.272445	0.208655
C207	C	-0.075146	0.272811	0.261308
C208	C	0.030236	0.266006	0.208875
C209	C	0.080277	0.261946	0.183943
C210	C	0.105380	0.259910	0.131778
C211	C	0.159634	0.255505	0.104744
C212	C	0.080451	0.261939	0.104535
C213	C	0.030415	0.266001	0.129464
C214	C	0.005308	0.268032	0.181635
C215	C	-0.134359	0.266018	0.129257
C216	C	-0.163345	0.261963	0.104147
C217	C	-0.217544	0.259931	0.131212
C218	C	-0.248977	0.255531	0.103989
C219	C	-0.242763	0.261958	0.183387
C220	C	-0.213777	0.266015	0.208495
C221	C	-0.159577	0.268043	0.181430
C222	C	-0.134397	0.266014	0.373493
C223	C	-0.163400	0.261951	0.427595
C224	C	-0.217599	0.259918	0.454724
C225	C	-0.249045	0.255517	0.513383
C226	C	-0.242805	0.261944	0.427761
C227	C	-0.213807	0.266005	0.373662
C228	C	-0.159603	0.268040	0.346530
H229	H	-0.556065	-0.085709	0.641767
Cl230	Cl	-0.245553	-0.273124	0.274126
H231	H	-0.466389	0.081182	0.206092
Cl232	Cl	-0.074628	-0.327429	0.580858
Cl233	Cl	-1.074632	-0.327415	0.862130
Cl234	Cl	-1.253470	-0.506229	1.040937
H235	H	-0.379120	-0.350966	0.873750
Cl236	Cl	0.111905	0.093541	0.217468
Cl237	Cl	-0.310904	0.259405	0.217410
Cl238	Cl	-0.389198	-0.074114	0.642114
H239	H	-0.556065	-0.229387	0.641773
Cl240	Cl	-0.355941	0.212464	0.862145
H241	H	-0.142803	0.260317	0.061665
H242	H	-0.522801	-0.494646	0.873756
Cl243	Cl	-0.542666	-0.028576	0.636913
H244	H	-1.086563	-0.494620	0.873732
H245	H	-0.709859	-0.306657	0.628671
Cl246	Cl	-0.534667	0.212587	0.862109
Cl247	Cl	-0.534714	0.212533	1.040937
H248	H	-0.522806	-0.494647	1.017435
Cl249	Cl	-0.607981	-0.273109	0.636949
Cl250	Cl	-0.567947	-0.252916	0.294240
H251	H	-0.412332	-0.085715	0.138949
Cl252	Cl	-0.245494	0.268535	0.274092
Cl253	Cl	-0.567947	-0.074110	0.294228
Cl254	Cl	-0.720876	-0.150166	0.461467
Cl255	Cl	-0.245496	0.268551	0.339765
Cl256	Cl	-0.074623	-0.506234	0.580858
H257	H	-0.619057	-0.117004	0.351387
Cl258	Cl	-0.542996	-0.028968	0.274436
H259	H	-0.322296	0.081502	0.062032
H260	H	0.010138	0.267677	0.107273
H261	H	-0.519046	-0.261124	0.636047
H262	H	-0.466455	-0.306667	0.628690
H263	H	-0.374899	-0.016642	0.107272
Cl264	Cl	-0.363773	-0.093906	0.095231
Cl265	Cl	-0.297951	-0.150183	0.038574
Cl266	Cl	-0.476803	-0.329408	0.217439
Cl267	Cl	-0.542634	-0.273130	0.274095
H268	H	-0.619350	-0.261062	0.351716
H269	H	-0.710133	-0.306288	0.449861
H270	H	-0.286944	0.260285	0.449856
H271	H	-0.196895	0.273410	0.282632
H272	H	-0.053194	0.273418	0.138949
Cl273	Cl	-0.041306	0.273725	0.294247
H274	H	0.100899	0.260282	0.062055
H275	H	-0.142872	0.260301	0.449544
H276	H	-0.090259	0.267674	0.351404
H277	H	0.009723	-0.016937	0.107259
Cl278	Cl	-0.001322	0.268564	0.274460
Cl279	Cl	0.111616	0.259404	0.218189
H280	H	-0.322377	-0.162913	0.628674
H281	H	-0.374972	-0.117364	0.636035
Cl282	Cl	-0.363838	-0.028971	0.636944
Cl283	Cl	-0.066219	0.268571	0.095230
H284	H	-0.322019	0.081180	0.628681
Cl285	Cl	-0.608336	-0.094246	0.636906
Cl286	Cl	-0.476840	0.093526	0.627752
H287	H	-0.710150	-0.162894	0.628635
H288	H	-0.053290	-0.085700	0.138988
Cl289	Cl	-0.245539	-0.273128	0.339793
H290	H	-0.053285	-0.085702	0.282661
Cl291	Cl	-0.220159	-0.252916	0.294266
Cl292	Cl	-0.131751	-0.150169	0.038613
Cl293	Cl	-0.310991	-0.329402	0.217466
H294	H	-0.090320	-0.116997	0.107257
Cl295	Cl	-0.131740	-0.150170	0.461501
H296	H	0.100482	0.081202	0.061723
H297	H	-0.090315	-0.116998	0.351426
Cl298	Cl	-0.001021	-0.028568	0.274126
H299	H	-0.286973	-0.306303	0.449882
H300	H	-0.230226	-0.494631	0.581179
