data_functionalizedCrystal
_audit_creation_method	'MofGen! by Chris Wilmer'
_symmetry_space_group_name_H-M	'P1'
_symmetry_Int_Tables_number	1
_symmetry_cell_setting	triclinic
loop_
_symmetry_equiv_pos_as_xyz
  x,y,z
_cell_length_a	8.559649
_cell_length_b	12.996460
_cell_length_c	8.597304
_cell_angle_alpha	82.294004
_cell_angle_beta	77.624184
_cell_angle_gamma	89.990776
loop_
_atom_site_label
_atom_site_type_symbol
_atom_site_fract_x
_atom_site_fract_y
_atom_site_fract_z
O1	O	-2.119300	0.080930	0.053140
O2	O	-1.619300	0.580930	0.553140
O3	O	-1.655360	0.088087	-0.027760
O4	O	-1.155360	0.588087	0.472240
O5	O	-1.896459	0.064155	0.242258
O6	O	-1.396459	0.564155	0.742258
O7	O	-1.878201	0.104862	-0.216878
O8	O	-1.378201	0.604862	0.283122
O9	O	-1.896433	-0.106980	0.242268
O10	O	-1.396433	0.393020	0.742268
O11	O	-1.655334	-0.083048	-0.027750
O12	O	-1.155334	0.416952	0.472250
O13	O	-2.119274	-0.090204	0.053150
O14	O	-1.619274	0.409796	0.553150
Cu15	Cu	-1.887302	-0.102252	0.012701
Cu16	Cu	-1.387302	0.397748	0.512701
Cu17	Cu	-1.887332	0.100134	0.012689
Cu18	Cu	-1.387332	0.600134	0.512689
O19	O	-1.878175	-0.066272	-0.216868
O20	O	-1.378175	0.433728	0.283132
C21	C	-1.595913	0.003061	-0.033886
C22	C	-1.095913	0.503061	0.466114
C23	C	-1.418818	0.004673	-0.052136
C24	C	-0.918818	0.504673	0.447864
N25	N	-1.887292	-0.244600	0.012712
N26	N	-1.387292	0.255400	0.512712
C27	C	-1.887330	-0.664412	0.012687
C28	C	-1.387330	-0.164412	0.512687
C29	C	-1.887315	-0.547607	0.012688
C30	C	-1.387315	-0.047607	0.512688
C31	C	-1.887312	-0.454510	0.012698
C32	C	-1.387312	0.045490	0.512698
C33	C	-1.887295	-0.337698	0.012702
C34	C	-1.387295	0.162302	0.512702
C35	C	-1.178721	-0.005186	0.059276
C36	C	-0.678721	0.494814	0.559276
C37	C	-1.355816	-0.006819	0.077525
C38	C	-0.855816	0.493181	0.577525
C39	C	-1.894484	-0.026574	0.300499
C40	C	-1.394484	0.473426	0.800499
C41	C	-1.888620	-0.041952	0.474020
C42	C	-1.388620	0.458048	0.974020
N43	N	-1.887354	0.242481	0.012692
N44	N	-1.387354	0.742481	0.512692
C45	C	-1.880150	0.024458	-0.275109
C46	C	-1.380150	0.524458	0.224891
C47	C	-1.886014	0.039843	-0.448630
C48	C	-1.386014	0.539843	0.051370
H49	H	-1.437368	-0.017896	0.202503
H50	H	-0.937368	0.482104	0.702503
H51	H	-1.886346	-0.123757	0.540548
H52	H	-1.386346	0.376243	1.040548
H53	H	-1.337275	0.015760	-0.177105
H54	H	-0.837275	0.515760	0.322895
H55	H	-1.888265	0.121644	0.484844
H56	H	-1.388265	0.621644	0.984844
