data_functionalizedCrystal
_audit_creation_method	'MofGen! by Chris Wilmer'
_symmetry_space_group_name_H-M	'P1'
_symmetry_Int_Tables_number	1
_symmetry_cell_setting	triclinic
loop_
_symmetry_equiv_pos_as_xyz
  x,y,z
_cell_length_a	12.645323
_cell_length_b	17.639504
_cell_length_c	17.640280
_cell_angle_alpha	92.181381
_cell_angle_beta	78.773039
_cell_angle_gamma	101.244481
loop_
_atom_site_label
_atom_site_type_symbol
_atom_site_fract_x
_atom_site_fract_y
_atom_site_fract_z
Zn1	Zn	-0.913004	-1.222315	-0.067979
Zn2	Zn	-0.708288	-1.247919	-0.194995
Zn3	Zn	-0.694302	-1.095305	-0.093641
Zn4	Zn	-0.844096	-1.120966	-0.220566
O5	O	-0.789923	-1.171626	-0.144295
O6	O	-0.920540	-1.331996	-0.063387
O7	O	-0.558069	-1.227651	-0.181588
O8	O	-0.746298	-1.090699	0.016039
O9	O	-0.770136	-1.350806	-0.156705
O10	O	-0.906978	-1.184013	0.034892
O11	O	-0.547793	-1.115526	-0.107123
O12	O	-0.679480	-0.992425	-0.131919
O13	O	-1.001601	-1.134434	-0.200288
O14	O	-0.789534	-1.011278	-0.225170
O15	O	-1.052227	-1.208894	-0.088183
O16	O	-0.703319	-1.252532	-0.304662
O17	O	-0.803096	-1.159260	-0.323449
C18	C	-0.725512	-0.974293	-0.184105
C19	C	-0.697979	-0.889877	-0.201153
C20	C	-0.999352	-0.563327	-0.014706
C21	C	-0.973455	-0.484009	-0.030745
C22	C	-0.816678	-0.503586	-0.127755
C23	C	-0.842566	-0.582908	-0.111727
C24	C	-0.933903	-0.612772	-0.055201
C25	C	-0.777117	-0.632353	-0.152222
C26	C	-0.803000	-0.711667	-0.136192
C27	C	-0.894331	-0.741537	-0.079667
C28	C	-0.959786	-0.692086	-0.039171
C29	C	-0.685776	-0.602487	-0.208744
C30	C	-0.620327	-0.651932	-0.249239
C31	C	-0.646213	-0.731248	-0.233213
C32	C	-0.737545	-0.761118	-0.176688
C33	C	-0.580759	-0.780699	-0.273710
C34	C	-0.606641	-0.860013	-0.257680
C35	C	-0.763428	-0.840432	-0.160658
C36	C	-1.066459	-1.171670	-0.144225
C37	C	-1.184302	-1.171689	-0.144195
C38	C	-1.320018	-1.124609	-0.214481
C39	C	-1.197446	-1.124821	-0.214739
C40	C	-1.250242	-1.256109	-0.149763
C41	C	-1.372655	-1.255860	-0.150195
C42	C	-1.362226	-1.135040	-0.067863
C43	C	-1.238933	-1.133352	-0.068705
C44	C	-0.514488	-1.171615	-0.144301
C45	C	-0.396740	-1.171700	-0.144088
C46	C	-0.747277	-1.211480	-0.341608
C47	C	-0.729092	-1.228599	-0.426005
C48	C	-0.854583	-0.369728	-0.104320
C49	C	-0.882134	-0.454141	-0.087257
C50	C	-0.928564	-1.041886	-0.752663
C51	C	-0.911442	-1.057974	-0.831966
C52	C	-0.807701	-1.155158	-0.812325
C53	C	-0.824818	-1.139081	-0.733018
C54	C	-0.885249	-1.082444	-0.703193
C55	C	-0.781504	-1.179639	-0.683549
C56	C	-0.798615	-1.163561	-0.604249
C57	C	-0.859041	-1.106924	-0.574418
C58	C	-0.902361	-1.066366	-0.623894
C59	C	-0.721066	-1.236272	-0.713376
C60	C	-0.677752	-1.276830	-0.663906
C61	C	-0.694869	-1.260756	-0.584604
C62	C	-0.755295	-1.204120	-0.554774
C63	C	-0.651549	-1.301315	-0.535129
C64	C	-0.668661	-1.285236	-0.455829
C65	C	-0.772406	-1.188041	-0.475474
C66	C	-0.832764	-1.131638	0.053792
C67	C	-0.851021	-1.114597	0.138205
H68	H	-1.034166	-0.716403	0.006856
H69	H	-0.602337	-1.347423	-0.559426
O70	O	-1.179611	-1.050957	-0.062750
H71	H	-1.237966	-1.011216	-0.061750
H72	H	-1.244726	-1.292843	-0.099404
O73	O	-0.657845	-0.516940	-0.226032
H74	H	-0.659919	-0.507619	-0.287558
H75	H	-1.212742	-1.285459	-0.204329
O76	O	-0.718163	-0.471374	-0.188718
H77	H	-0.745378	-0.443077	-0.234699
H78	H	-1.378698	-1.073697	-0.059638
O79	O	-0.521812	-0.619716	-0.310201
H80	H	-0.531944	-0.647003	-0.366739
H81	H	-1.414656	-1.169142	-0.015616
H82	H	-1.231203	-1.163852	-0.014786
H83	H	-1.159663	-1.150342	-0.271582
H84	H	-0.837807	-0.864749	-0.114632
O85	O	-0.742559	-1.216264	-0.844490
H86	H	-0.737953	-1.220642	-0.907941
O87	O	-1.443292	-1.305018	-0.084053
H88	H	-1.498798	-1.353165	-0.107122
H89	H	-1.073732	-0.587644	0.031321
O90	O	-0.967539	-1.005276	-0.591719
H91	H	-1.051720	-1.021345	-0.604279
H92	H	-0.821625	-1.141927	-0.451189
O93	O	-0.482238	-0.748480	-0.334666
H94	H	-0.492361	-0.775763	-0.391208
H95	H	-1.394225	-1.285038	-0.205436
O96	O	-0.877504	-1.089563	-0.488891
H97	H	-0.922228	-1.142580	-0.456359
O98	O	-0.958153	-1.014215	-0.885323
H99	H	-0.936091	-1.034901	-0.945478
O100	O	-0.536049	-0.913344	-0.301359
H101	H	-0.501324	-0.942573	-0.260021
H102	H	-0.707140	-1.249363	-0.777947
O103	O	-1.044046	-0.430672	0.012932
H104	H	-1.129363	-0.448561	0.002912
H105	H	-0.628545	-1.322942	-0.688201
H106	H	-1.150917	-1.062730	-0.213124
H107	H	-1.332979	-1.062368	-0.213032
O108	O	-0.922261	-0.827082	-0.062365
H109	H	-0.938018	-0.859595	-0.115427
H110	H	-0.633388	-1.318262	-0.415550
O111	O	-0.993744	-0.980799	-0.720483
H112	H	-1.020989	-0.955293	-0.768204
H113	H	-1.342406	-1.149922	-0.270978
