data_functionalizedCrystal
_audit_creation_method	'MofGen! by Chris Wilmer'
_symmetry_space_group_name_H-M	'P1'
_symmetry_Int_Tables_number	1
_symmetry_cell_setting	triclinic
loop_
_symmetry_equiv_pos_as_xyz
  x,y,z
_cell_length_a	14.519731
_cell_length_b	19.188940
_cell_length_c	12.996460
_cell_angle_alpha	89.993415
_cell_angle_beta	89.994327
_cell_angle_gamma	83.418784
loop_
_atom_site_label
_atom_site_type_symbol
_atom_site_fract_x
_atom_site_fract_y
_atom_site_fract_z
O1	O	1.223292	0.091595	-0.085570
O2	O	0.954751	0.102357	-0.085572
O3	O	1.096766	-0.004651	-0.085563
O4	O	1.081277	0.198603	-0.085579
O5	O	1.096752	-0.004657	0.085571
O6	O	0.954737	0.102351	0.085562
O7	O	1.223277	0.091589	0.085564
Cu8	Cu	1.089005	0.096970	0.101189
Cu9	Cu	1.089023	0.096977	-0.101197
O10	O	1.081262	0.198597	0.085555
C11	C	0.920388	0.101850	-0.000005
C12	C	0.818017	0.100339	-0.000005
C13	C	0.734880	0.099111	-0.000010
C14	C	0.630581	0.097577	-0.000010
C15	C	0.547449	0.096359	-0.000010
C16	C	0.443143	0.094825	-0.000012
C17	C	1.096256	-0.030667	0.000004
C18	C	1.094746	-0.108176	0.000003
C19	C	1.083993	-0.661478	0.093264
C20	C	1.085402	-0.588648	0.093270
C21	C	1.086119	-0.552223	-0.000014
C22	C	1.085403	-0.588631	-0.093311
C23	C	1.083985	-0.661458	-0.093314
N24	N	1.140829	-0.442998	-0.069447
N25	N	1.142178	-0.373816	-0.069438
C26	C	1.090390	-0.332798	-0.000011
N27	N	1.037213	-0.363578	0.069423
N28	N	1.035868	-0.432767	0.069416
C29	C	1.087656	-0.473254	-0.000021
C30	C	1.092627	-0.217428	0.093286
C31	C	1.094030	-0.144597	0.093288
C32	C	1.094041	-0.144582	-0.093295
C33	C	1.092628	-0.217411	-0.093294
C34	C	1.091926	-0.253830	-0.000001
C35	C	1.257641	0.092096	-0.000005
C36	C	1.360012	0.093607	-0.000012
C37	C	1.081772	0.224613	-0.000014
C38	C	1.083283	0.302123	-0.000020
N39	N	1.089000	0.096964	0.243536
N40	N	1.089036	0.096977	-0.243544
C41	C	1.089022	0.096977	0.663350
C42	C	1.089013	0.096976	0.546545
C43	C	1.089011	0.096971	0.453447
C44	C	1.089002	0.096969	0.336634
H45	H	1.085964	-0.559004	0.169235
H46	H	1.083405	-0.691094	-0.169279
N47	N	1.083216	-0.700747	0.193891
H48	H	1.025470	-0.725376	0.198050
H49	H	1.139818	-0.736514	0.197997
H50	H	1.094607	-0.114961	0.169254
H51	H	1.092048	-0.247082	0.169251
N52	N	1.094801	-0.105304	-0.193911
H53	H	1.095804	-0.053644	-0.179756
H54	H	1.151710	-0.123612	-0.234656
H55	H	1.085983	-0.558968	-0.169263
N56	N	1.091947	-0.256684	-0.193909
H57	H	1.092642	-0.222563	-0.253005
H58	H	1.148542	-0.292463	-0.197912
