data_functionalizedCrystal
_audit_creation_method	'MofGen! by Chris Wilmer'
_symmetry_space_group_name_H-M	'P1'
_symmetry_Int_Tables_number	1
_symmetry_cell_setting	triclinic
loop_
_symmetry_equiv_pos_as_xyz
  x,y,z
_cell_length_a	19.121102
_cell_length_b	25.639239
_cell_length_c	19.120904
_cell_angle_alpha	92.404139
_cell_angle_beta	89.911827
_cell_angle_gamma	92.406175
loop_
_atom_site_label
_atom_site_type_symbol
_atom_site_fract_x
_atom_site_fract_y
_atom_site_fract_z
Zn1	Zn	1.054759	0.255750	0.442006
Zn2	Zn	1.554759	0.755750	0.942006
Zn3	Zn	1.059650	0.339616	0.324751
Zn4	Zn	1.559650	0.839616	0.824751
Zn5	Zn	0.942531	0.248314	0.319792
Zn6	Zn	1.442531	0.748314	0.819792
Zn7	Zn	0.937462	0.339265	0.436954
Zn8	Zn	1.437462	0.839265	0.936954
O9	O	0.998600	0.295736	0.380876
O10	O	1.498600	0.795736	0.880876
O11	O	1.153512	0.270134	0.430642
O12	O	1.653512	0.770134	0.930642
O13	O	1.048282	0.324540	0.225989
O14	O	1.548282	0.824540	0.725989
O15	O	0.957492	0.176138	0.336043
O16	O	1.457492	0.676138	0.836043
O17	O	1.157106	0.331750	0.344496
O18	O	1.657106	0.831750	0.844496
O19	O	1.039946	0.181602	0.425833
O20	O	1.539946	0.681602	0.925833
O21	O	0.962235	0.257460	0.222346
O22	O	1.462235	0.757460	0.722346
O23	O	0.843754	0.257119	0.331144
O24	O	1.343754	0.757119	0.831144
O25	O	0.948853	0.331151	0.535728
O26	O	1.448853	0.831151	1.035728
O27	O	0.840030	0.323941	0.417222
O28	O	1.340030	0.823941	0.917222
O29	O	1.035031	0.269794	0.539440
O30	O	1.535031	0.769794	1.039440
O31	O	1.043368	0.412731	0.339596
O32	O	1.543368	0.912731	0.839596
O33	O	0.953596	0.412473	0.422031
O34	O	1.453596	0.912473	0.922031
C35	C	0.816455	0.289685	0.373097
C36	C	1.316455	0.789685	0.873097
C37	C	0.738531	0.287110	0.369785
C38	C	1.238531	0.787110	0.869785
C39	C	0.700005	0.320738	0.412976
C40	C	1.200005	0.820738	0.912976
C41	C	0.626787	0.318312	0.409868
C42	C	1.126787	0.818312	0.909868
C43	C	0.592097	0.282258	0.363565
C44	C	1.092097	0.782258	0.863565
C45	C	0.630629	0.248626	0.320373
C46	C	1.130629	0.748626	0.820373
C47	C	0.703845	0.251051	0.323485
C48	C	1.203845	0.751051	0.823485
C49	C	0.371128	0.273192	0.351934
C50	C	0.871128	0.773192	0.851934
C51	C	0.297907	0.270771	0.348824
C52	C	0.797907	0.770771	0.848824
C53	C	0.294070	0.340456	0.438319
C54	C	0.794070	0.840456	0.938319
C55	C	0.367288	0.342880	0.441424
C56	C	0.867288	0.842880	0.941424
C57	C	0.405813	0.309246	0.398235
C58	C	0.905813	0.809246	0.898235
C59	C	0.517257	0.279778	0.360386
C60	C	1.017257	0.779778	0.860386
C61	C	0.480651	0.311724	0.401418
C62	C	0.980651	0.811724	0.901418
C63	C	0.998481	0.431573	0.380820
C64	C	1.498481	0.931573	0.880820
C65	C	0.998493	0.489688	0.380822
C66	C	1.498493	0.989688	0.880822
C67	C	1.041460	0.852863	0.427724
C68	C	1.541460	1.352863	0.927724
C69	C	1.041471	0.907468	0.427740
C70	C	1.541471	1.407468	0.927740
O71	O	1.077934	0.938091	0.467550
O72	O	1.577934	1.438091	0.967550
N73	N	0.998588	0.931978	0.380962
N74	N	1.498588	1.431978	0.880962
C75	C	0.955686	0.901879	0.334169
C76	C	1.455686	1.401879	0.834169
O77	O	0.919212	0.927740	0.294382
O78	O	1.419212	1.427740	0.794382
C79	C	0.955672	0.847275	0.334157
C80	C	1.455672	1.347275	0.834157
C81	C	0.998563	0.822768	0.380933
C82	C	1.498563	1.322768	0.880933
C83	C	1.084347	0.828356	0.474497
C84	C	1.584347	1.328356	0.974497
C85	C	1.084337	0.773755	0.474480
C86	C	1.584337	1.273755	0.974480
C87	C	1.041440	0.743660	0.427689
C88	C	1.541440	1.243660	0.927689
C89	C	0.998553	0.768167	0.380916
C90	C	1.498553	1.268167	0.880916
C91	C	0.912767	0.817177	0.287368
C92	C	1.412767	1.317177	0.787368
C93	C	0.912756	0.762569	0.287360
C94	C	1.412756	1.262569	0.787360
C95	C	0.955647	0.738063	0.334136
C96	C	1.455647	1.238063	0.834136
C97	C	0.955646	0.683471	0.334108
C98	C	1.455646	1.183471	0.834108
N99	N	0.998529	0.658961	0.380886
N100	N	1.498529	1.158961	0.880886
C101	C	1.041426	0.689056	0.427677
C102	C	1.541426	1.189056	0.927677
C103	C	0.955718	1.016552	0.334200
C104	C	1.455718	1.516552	0.834200
C105	C	0.955735	1.071155	0.334208
C106	C	1.455735	1.571155	0.834208
C107	C	1.041519	1.076740	0.427780
C108	C	1.541519	1.576740	0.927780
C109	C	1.041505	1.022136	0.427768
C110	C	1.541505	1.522136	0.927768
C111	C	0.998601	0.992042	0.380978
C112	C	1.498601	1.492042	0.880978
C113	C	1.041402	0.574389	0.427636
C114	C	1.541402	1.074389	0.927636
C115	C	1.041390	0.519782	0.427613
C116	C	1.541390	1.019782	0.927613
C117	C	0.955604	0.514202	0.334043
C118	C	1.455604	1.014202	0.834043
C119	C	0.955618	0.568803	0.334064
C120	C	1.455618	1.068803	0.834064
C121	C	0.998519	0.598896	0.380866
C122	C	1.498519	1.098896	0.880866
O123	O	0.919199	0.652814	0.294320
O124	O	1.419199	1.152814	0.794320
O125	O	1.077887	0.663187	0.467463
O126	O	1.577887	1.163187	0.967463
C127	C	1.181458	0.301811	0.388686
C128	C	1.681458	0.801811	0.888686
C129	C	1.259380	0.304400	0.392014
C130	C	1.759380	0.804400	0.892014
C131	C	0.990831	0.301263	0.563733
C132	C	1.490831	0.801263	1.063733
C133	C	0.987520	0.303618	0.641656
C134	C	1.487520	0.803618	1.141656
C135	C	0.998697	1.159369	0.380954
C136	C	1.498697	1.659369	0.880954
C137	C	0.998630	1.101254	0.381002
C138	C	1.498630	1.601254	0.881002
C139	C	1.006380	0.290195	0.198732
C140	C	1.506380	0.790195	0.698732
C141	C	1.009827	0.287697	0.120815
C142	C	1.509827	0.787697	0.620815
C143	C	1.030831	0.272780	0.680198
C144	C	1.530831	0.772780	1.180198
C145	C	1.027712	0.274991	0.753414
C146	C	1.527712	0.774991	1.253414
C147	C	0.981285	0.308042	0.788087
C148	C	1.481285	0.808042	1.288087
C149	C	0.937970	0.338881	0.749540
C150	C	1.437970	0.838881	1.249540
C151	C	0.941086	0.336668	0.676325
C152	C	1.441086	0.836668	1.176325
C153	C	0.969628	0.316322	1.009053
C154	C	1.469628	0.816322	1.509053
C155	C	0.966516	0.318535	1.082273
C156	C	1.466516	0.818535	1.582273
C157	C	1.056257	0.254643	1.086142
C158	C	1.556257	0.754643	1.586142
C159	C	1.059373	0.252434	1.012926
C160	C	1.559373	0.752434	1.512926
C161	C	1.016055	0.283271	0.974385
C162	C	1.516055	0.783271	1.474385
C163	C	0.978097	0.310304	0.862926
C164	C	1.478097	0.810304	1.362926
C165	C	1.019240	0.281007	0.899547
C166	C	1.519240	0.781007	1.399547
H167	H	0.508899	0.341076	0.439120
H168	H	1.008899	0.841076	0.939120
H169	H	0.595422	0.345696	0.445037
H170	H	1.095422	0.845696	0.945037
Br171	Br	0.747077	0.369674	0.475812
Br172	Br	1.247077	0.869674	0.975812
Br173	Br	1.142568	0.869189	0.538011
Br174	Br	1.642568	1.369189	1.038011
Br175	Br	1.099738	1.117593	0.491282
Br176	Br	1.599738	1.617593	0.991282
Br177	Br	0.897537	1.104407	0.270712
Br178	Br	1.397537	1.604407	0.770712
Br179	Br	0.414362	0.391814	0.504261
Br180	Br	0.914362	0.891814	1.004261
H181	H	0.262695	0.367839	0.473483
H182	H	0.762695	0.867839	0.973483
H183	H	1.119260	0.753805	0.512571
H184	H	1.619260	1.253805	1.012571
Br185	Br	1.099626	0.615220	0.491153
Br186	Br	1.599626	1.115220	0.991153
Br187	Br	1.115041	0.212794	1.138451
Br188	Br	1.615041	0.712794	1.638451
H189	H	0.928708	0.345450	1.110502
H190	H	1.428708	0.845450	1.610502
H191	H	0.402486	0.245809	0.316761
H192	H	0.902486	0.745809	0.816761
H193	H	0.269664	0.241406	0.311123
H194	H	0.769664	0.741406	0.811123
H195	H	0.920783	0.992051	0.296092
H196	H	1.420783	1.492051	0.796092
Br197	Br	0.470172	0.230848	0.297551
Br198	Br	0.970172	0.730848	0.797551
H199	H	0.877841	0.837121	0.249277
H200	H	1.377841	1.337121	0.749277
H201	H	1.076430	1.002186	0.465858
H202	H	1.576430	1.502186	0.965858
H203	H	1.076319	0.499831	0.465704
H204	H	1.576319	0.999831	0.965704
Br205	Br	0.897420	0.602064	0.270571
Br206	Br	1.397420	1.102064	0.770571
Br207	Br	0.910838	0.358171	0.956756
Br208	Br	1.410838	0.858171	1.456756
H209	H	0.602378	0.219269	0.282676
H210	H	1.102378	0.719269	0.782676
Br211	Br	0.854525	0.721731	0.223856
Br212	Br	1.354525	1.221731	0.723856
Br213	Br	0.756131	0.205407	0.264872
Br214	Br	1.256131	0.705407	0.764872
Br215	Br	0.897390	0.473349	0.270543
Br216	Br	1.397390	0.973349	0.770543
Br217	Br	1.093847	0.227926	0.633149
Br218	Br	1.593847	0.727926	1.133149
H219	H	1.062981	0.249881	0.784792
H220	H	1.562981	0.749881	1.284792
H221	H	1.097180	0.225522	0.984700
H222	H	1.597180	0.725522	1.484700
H223	H	0.900165	0.365791	0.777777
H224	H	1.400165	0.865791	1.277777
Br225	Br	0.882301	0.378517	0.624016
Br226	Br	1.382301	0.878517	1.124016
Br227	Br	1.082236	0.236145	0.852489
Br228	Br	1.582236	0.736145	1.352489
H229	H	0.940299	0.337217	0.891165
H230	H	1.440299	0.837217	1.391165
