data_functionalizedCrystal
_audit_creation_method	'MofGen! by Chris Wilmer'
_symmetry_space_group_name_H-M	'P1'
_symmetry_Int_Tables_number	1
_symmetry_cell_setting	triclinic
loop_
_symmetry_equiv_pos_as_xyz
  x,y,z
_cell_length_a	25.639242
_cell_length_b	25.639239
_cell_length_c	25.639233
_cell_angle_alpha	90.018747
_cell_angle_beta	89.977834
_cell_angle_gamma	89.965787
loop_
_atom_site_label
_atom_site_type_symbol
_atom_site_fract_x
_atom_site_fract_y
_atom_site_fract_z
Zn1	Zn	0.799225	0.208277	-0.295742
Zn2	Zn	1.049225	0.458277	-0.045742
Zn3	Zn	1.299225	0.708277	0.204258
Zn4	Zn	1.549225	0.958277	0.454258
Zn5	Zn	0.799149	0.295696	-0.208307
Zn6	Zn	1.049149	0.545696	0.041693
Zn7	Zn	1.299149	0.795696	0.291693
Zn8	Zn	1.549149	1.045696	0.541693
Zn9	Zn	0.711801	0.208269	-0.208306
Zn10	Zn	0.961801	0.458269	0.041694
Zn11	Zn	1.211801	0.708269	0.291694
Zn12	Zn	1.461801	0.958269	0.541694
Zn13	Zn	0.711746	0.295676	-0.295696
Zn14	Zn	0.961746	0.545676	-0.045696
Zn15	Zn	1.211746	0.795676	0.204304
Zn16	Zn	1.461746	1.045676	0.454304
O17	O	0.755480	0.251979	-0.252013
O18	O	1.005480	0.501979	-0.002013
O19	O	1.255480	0.751979	0.247987
O20	O	1.505480	1.001979	0.497987
O21	O	0.872380	0.219884	-0.284163
O22	O	1.122380	0.469884	-0.034163
O23	O	1.372380	0.719884	0.215837
O24	O	1.622380	0.969884	0.465837
O25	O	0.787553	0.284103	-0.135141
O26	O	1.037553	0.534103	0.114859
O27	O	1.287553	0.784103	0.364859
O28	O	1.537553	1.034103	0.614859
O29	O	0.723453	0.135105	-0.219924
O30	O	0.973453	0.385105	0.030076
O31	O	1.223453	0.635105	0.280076
O32	O	1.473453	0.885105	0.530076
O33	O	0.872324	0.284111	-0.219924
O34	O	1.122324	0.534111	0.030076
O35	O	1.372324	0.784111	0.280076
O36	O	1.622324	1.034111	0.530076
O37	O	0.787683	0.135111	-0.284163
O38	O	1.037683	0.385111	-0.034163
O39	O	1.287683	0.635111	0.215837
O40	O	1.537683	0.885111	0.465837
O41	O	0.723379	0.219871	-0.135141
O42	O	0.973379	0.469871	0.114859
O43	O	1.223379	0.719871	0.364859
O44	O	1.473379	0.969871	0.614859
O45	O	0.638629	0.219853	-0.219880
O46	O	0.888629	0.469853	0.030120
O47	O	1.138629	0.719853	0.280120
O48	O	1.388629	0.969853	0.530120
O49	O	0.723360	0.284078	-0.368868
O50	O	0.973360	0.534078	-0.118868
O51	O	1.223360	0.784078	0.131132
O52	O	1.473360	1.034078	0.381132
O53	O	0.638589	0.284070	-0.284085
O54	O	0.888589	0.534070	-0.034085
O55	O	1.138589	0.784070	0.215915
O56	O	1.388589	1.034070	0.465915
O57	O	0.787630	0.219866	-0.368901
O58	O	1.037630	0.469866	-0.118901
O59	O	1.287630	0.719866	0.131099
O60	O	1.537630	0.969866	0.381099
O61	O	0.787499	0.368858	-0.219880
O62	O	1.037499	0.618858	0.030120
O63	O	1.287499	0.868858	0.280120
O64	O	1.537499	1.118858	0.530120
O65	O	0.723286	0.368844	-0.284085
O66	O	0.973286	0.618844	-0.034085
O67	O	1.223286	0.868844	0.215915
O68	O	1.473286	1.118844	0.465915
C69	C	0.619638	0.251959	-0.251977
C70	C	0.869638	0.501959	-0.001977
C71	C	1.119638	0.751959	0.248023
C72	C	1.369638	1.001959	0.498023
C73	C	0.561524	0.251963	-0.251975
C74	C	0.811524	0.501963	-0.001975
C75	C	1.061524	0.751963	0.248025
C76	C	1.311524	1.001963	0.498025
C77	C	0.755392	0.387822	-0.251989
C78	C	1.005392	0.637822	-0.001989
C79	C	1.255392	0.887822	0.248011
C80	C	1.505392	1.137822	0.498011
C81	C	0.755403	0.445936	-0.251996
C82	C	1.005403	0.695936	-0.001996
C83	C	1.255403	0.945936	0.248004
C84	C	1.505403	1.195936	0.498004
C85	C	0.755497	0.251970	-0.388386
C86	C	1.005497	0.501970	-0.138386
C87	C	1.255497	0.751970	0.111614
C88	C	1.505497	1.001970	0.361614
C89	C	0.755504	0.251966	-0.446500
C90	C	1.005504	0.501966	-0.196500
C91	C	1.255504	0.751966	0.053500
C92	C	1.505504	1.001966	0.303500
C93	C	0.201149	0.285473	-0.285413
C94	C	0.451149	0.535473	-0.035413
C95	C	0.701149	0.785473	0.214587
C96	C	0.951149	1.035473	0.464587
C97	C	0.146544	0.285477	-0.285421
C98	C	0.396544	0.535477	-0.035421
C99	C	0.646544	0.785477	0.214579
C100	C	0.896544	1.035477	0.464579
O101	O	0.118297	0.313943	-0.313821
O102	O	0.368297	0.563943	-0.063821
O103	O	0.618297	0.813943	0.186179
O104	O	0.868297	1.063943	0.436179
N105	N	0.119241	0.251994	-0.252047
N106	N	0.369241	0.501994	-0.002047
N107	N	0.619241	0.751994	0.247953
N108	N	0.869241	1.001994	0.497953
C109	C	0.146545	0.218502	-0.218666
C110	C	0.396545	0.468502	0.031334
C111	C	0.646545	0.718502	0.281334
C112	C	0.896545	0.968502	0.531334
O113	O	0.118308	0.190022	-0.190280
O114	O	0.368308	0.440022	0.059720
O115	O	0.618308	0.690022	0.309720
O116	O	0.868308	0.940022	0.559720
C117	C	0.201149	0.218496	-0.218661
C118	C	0.451149	0.468496	0.031339
C119	C	0.701149	0.718496	0.281339
C120	C	0.951149	0.968496	0.531339
C121	C	0.228449	0.251985	-0.252034
C122	C	0.478449	0.501985	-0.002034
C123	C	0.728449	0.751985	0.247966
C124	C	0.978449	1.001985	0.497966
C125	C	0.228449	0.318959	-0.318783
C126	C	0.478449	0.568959	-0.068783
C127	C	0.728449	0.818959	0.181217
C128	C	0.978449	1.068959	0.431217
C129	C	0.283049	0.318956	-0.318774
C130	C	0.533049	0.568956	-0.068774
C131	C	0.783049	0.818956	0.181226
C132	C	1.033049	1.068956	0.431226
C133	C	0.310350	0.285468	-0.285395
C134	C	0.560350	0.535468	-0.035395
C135	C	0.810350	0.785468	0.214605
C136	C	1.060350	1.035468	0.464605
C137	C	0.283049	0.251983	-0.252024
C138	C	0.533049	0.501983	-0.002024
C139	C	0.783049	0.751983	0.247976
C140	C	1.033049	1.001983	0.497976
C141	C	0.228452	0.185002	-0.185283
C142	C	0.478452	0.435002	0.064717
C143	C	0.728452	0.685002	0.314717
C144	C	0.978452	0.935002	0.564717
C145	C	0.283059	0.185000	-0.185281
C146	C	0.533059	0.435000	0.064719
C147	C	0.783059	0.685000	0.314719
C148	C	1.033059	0.935000	0.564719
C149	C	0.310359	0.218488	-0.218654
C150	C	0.560359	0.468488	0.031346
C151	C	0.810359	0.718488	0.281346
C152	C	1.060359	0.968488	0.531346
C153	C	0.364950	0.218492	-0.218636
C154	C	0.614950	0.468492	0.031364
C155	C	0.864950	0.718492	0.281364
C156	C	1.114950	0.968492	0.531364
N157	N	0.392253	0.251974	-0.252010
N158	N	0.642253	0.501974	-0.002010
N159	N	0.892253	0.751974	0.247990
N160	N	1.142253	1.001974	0.497990
C161	C	0.364953	0.285463	-0.285389
C162	C	0.614953	0.535463	-0.035389
C163	C	0.864953	0.785463	0.214611
C164	C	1.114953	1.035463	0.464611
C165	C	0.031875	0.218515	-0.218680
C166	C	0.281875	0.468515	0.031320
C167	C	0.531875	0.718515	0.281320
C168	C	0.781875	0.968515	0.531320
C169	C	-0.022728	0.218523	-0.218683
C170	C	0.227272	0.468523	0.031317
C171	C	0.477272	0.718523	0.281317
C172	C	0.727272	0.968523	0.531317
C173	C	-0.022725	0.285497	-0.285438
C174	C	0.227275	0.535497	-0.035438
C175	C	0.477275	0.785497	0.214562
C176	C	0.727275	1.035497	0.464562
C177	C	0.031878	0.285492	-0.285433
C178	C	0.281878	0.535492	-0.035433
C179	C	0.531878	0.785492	0.214567
C180	C	0.781878	1.035492	0.464567
C181	C	0.059178	0.251998	-0.252054
C182	C	0.309178	0.501998	-0.002054
C183	C	0.559178	0.751998	0.247946
C184	C	0.809178	1.001998	0.497946
C185	C	0.479618	0.285455	-0.285368
C186	C	0.729618	0.535455	-0.035368
C187	C	0.979618	0.785455	0.214632
C188	C	1.229618	1.035455	0.464632
C189	C	0.534223	0.285451	-0.285354
C190	C	0.784223	0.535451	-0.035354
C191	C	1.034223	0.785451	0.214646
C192	C	1.284223	1.035451	0.464646
C193	C	0.534216	0.218475	-0.218601
C194	C	0.784216	0.468475	0.031399
C195	C	1.034216	0.718475	0.281399
C196	C	1.284216	0.968475	0.531399
C197	C	0.479615	0.218481	-0.218612
C198	C	0.729615	0.468481	0.031388
C199	C	0.979615	0.718481	0.281388
C200	C	1.229615	0.968481	0.531388
C201	C	0.452318	0.251972	-0.252000
C202	C	0.702318	0.501972	-0.002000
C203	C	0.952318	0.751972	0.248000
C204	C	1.202318	1.001972	0.498000
O205	O	0.393232	0.190038	-0.190252
O206	O	0.643232	0.440038	0.059748
O207	O	0.893232	0.690038	0.309748
O208	O	1.143232	0.940038	0.559748
O209	O	0.393197	0.313933	-0.313776
O210	O	0.643197	0.563933	-0.063776
O211	O	0.893197	0.813933	0.186224
O212	O	1.143197	1.063933	0.436224
C213	C	0.891853	0.252000	-0.252049
C214	C	1.141853	0.502000	-0.002049
C215	C	1.391853	0.752000	0.247951
C216	C	1.641853	1.002000	0.497951
C217	C	0.949967	0.252009	-0.252064
C218	C	1.199967	0.502009	-0.002064
C219	C	1.449967	0.752009	0.247936
C220	C	1.699967	1.002009	0.497936
C221	C	0.755583	0.115606	-0.252048
C222	C	1.005583	0.365606	-0.002048
C223	C	1.255583	0.615606	0.247952
C224	C	1.505583	0.865606	0.497952
C225	C	0.755627	0.057492	-0.252064
C226	C	1.005627	0.307492	-0.002064
C227	C	1.255627	0.557492	0.247936
C228	C	1.505627	0.807492	0.497936
C229	C	0.789004	0.806294	-0.218638
C230	C	1.039004	1.056294	0.031362
C231	C	1.289004	1.306294	0.281362
C232	C	1.539004	1.556294	0.531362
C233	C	0.789024	0.860898	-0.218645
C234	C	1.039024	1.110898	0.031355
C235	C	1.289024	1.360898	0.281355
C236	C	1.539024	1.610898	0.531355
O237	O	0.817502	0.889131	-0.190257
O238	O	1.067502	1.139131	0.059743
O239	O	1.317502	1.389131	0.309743
O240	O	1.567502	1.639131	0.559743
N241	N	0.755572	0.888218	-0.252048
N242	N	1.005572	1.138218	-0.002048
N243	N	1.255572	1.388218	0.247952
N244	N	1.505572	1.638218	0.497952
C245	C	0.722102	0.860932	-0.285449
C246	C	0.972102	1.110932	-0.035449
C247	C	1.222102	1.360932	0.214551
C248	C	1.472102	1.610932	0.464551
O249	O	0.693651	0.889184	-0.313861
O250	O	0.943651	1.139184	-0.063861
O251	O	1.193651	1.389184	0.186139
O252	O	1.443651	1.639184	0.436139
C253	C	0.722085	0.806328	-0.285444
C254	C	0.972085	1.056328	-0.035444
C255	C	1.222085	1.306328	0.214556
C256	C	1.472085	1.556328	0.464556
C257	C	0.755535	0.779011	-0.252036
C258	C	1.005535	1.029011	-0.002036
C259	C	1.255535	1.279011	0.247964
C260	C	1.505535	1.529011	0.497964
C261	C	0.822452	0.778976	-0.185233
C262	C	1.072452	1.028976	0.064767
C263	C	1.322452	1.278976	0.314767
C264	C	1.572452	1.528976	0.564767
C265	C	0.822431	0.724376	-0.185226
C266	C	1.072431	0.974376	0.064774
C267	C	1.322431	1.224376	0.314774
C268	C	1.572431	1.474376	0.564774
C269	C	0.788962	0.697093	-0.218623
C270	C	1.038962	0.947093	0.031377
C271	C	1.288962	1.197093	0.281377
C272	C	1.538962	1.447093	0.531377
C273	C	0.755514	0.724410	-0.252028
C274	C	1.005514	0.974410	-0.002028
C275	C	1.255514	1.224410	0.247972
C276	C	1.505514	1.474410	0.497972
C277	C	0.688617	0.779042	-0.318847
C278	C	0.938617	1.029042	-0.068847
C279	C	1.188617	1.279042	0.181153
C280	C	1.438617	1.529042	0.431153
C281	C	0.688603	0.724435	-0.318840
C282	C	0.938603	0.974435	-0.068840
C283	C	1.188603	1.224435	0.181160
C284	C	1.438603	1.474435	0.431160
C285	C	0.722053	0.697118	-0.285432
C286	C	0.972053	0.947118	-0.035432
C287	C	1.222053	1.197118	0.214568
C288	C	1.472053	1.447118	0.464568
C289	C	0.722024	0.642527	-0.285418
C290	C	0.972024	0.892527	-0.035418
C291	C	1.222024	1.142527	0.214582
C292	C	1.472024	1.392527	0.464582
N293	N	0.755475	0.615206	-0.252016
N294	N	1.005475	0.865206	-0.002016
N295	N	1.255475	1.115206	0.247984
N296	N	1.505475	1.365206	0.497984
C297	C	0.788944	0.642490	-0.218618
C298	C	1.038944	0.892490	0.031382
C299	C	1.288944	1.142490	0.281382
C300	C	1.538944	1.392490	0.531382
C301	C	0.722141	0.975602	-0.285457
C302	C	0.972141	1.225602	-0.035457
C303	C	1.222141	1.475602	0.214543
C304	C	1.472141	1.725602	0.464543
C305	C	0.722155	1.030204	-0.285459
C306	C	0.972155	1.280204	-0.035459
C307	C	1.222155	1.530204	0.214541
C308	C	1.472155	1.780204	0.464541
C309	C	0.789078	1.030167	-0.218656
C310	C	1.039078	1.280167	0.031344
C311	C	1.289078	1.530167	0.281344
C312	C	1.539078	1.780167	0.531344
C313	C	0.789061	0.975564	-0.218652
C314	C	1.039061	1.225564	0.031348
C315	C	1.289061	1.475564	0.281348
C316	C	1.539061	1.725564	0.531348
C317	C	0.755593	0.948282	-0.252055
C318	C	1.005593	1.198282	-0.002055
C319	C	1.255593	1.448282	0.247945
C320	C	1.505593	1.698282	0.497945
C321	C	0.788897	0.527824	-0.218605
C322	C	1.038897	0.777824	0.031395
C323	C	1.288897	1.027824	0.281395
C324	C	1.538897	1.277824	0.531395
C325	C	0.788872	0.473219	-0.218599
C326	C	1.038872	0.723219	0.031401
C327	C	1.288872	0.973219	0.281401
C328	C	1.538872	1.223219	0.531401
C329	C	0.721951	0.473261	-0.285403
C330	C	0.971951	0.723261	-0.035403
C331	C	1.221951	0.973261	0.214597
C332	C	1.471951	1.223261	0.464597
C333	C	0.721974	0.527862	-0.285408
C334	C	0.971974	0.777862	-0.035408
C335	C	1.221974	1.027862	0.214592
C336	C	1.471974	1.277862	0.464592
C337	C	0.755452	0.555142	-0.252007
C338	C	1.005452	0.805142	-0.002007
C339	C	1.255452	1.055142	0.247993
C340	C	1.505452	1.305142	0.497993
O341	O	0.693562	0.614260	-0.313793
O342	O	0.943562	0.864260	-0.063793
O343	O	1.193562	1.114260	0.186207
O344	O	1.443562	1.364260	0.436207
O345	O	0.817396	0.614231	-0.190216
O346	O	1.067396	0.864231	0.059784
O347	O	1.317396	1.114231	0.309784
O348	O	1.567396	1.364231	0.559784
C349	C	0.789012	0.218432	-0.806886
C350	C	1.039012	0.468432	-0.556886
C351	C	1.289012	0.718432	-0.306886
C352	C	1.539012	0.968432	-0.056886
C353	C	0.789019	0.218417	-0.861491
C354	C	1.039019	0.468417	-0.611491
C355	C	1.289019	0.718417	-0.361491
C356	C	1.539019	0.968417	-0.111491
O357	O	0.817466	0.189967	-0.889747
O358	O	1.067466	0.439967	-0.639747
O359	O	1.317466	0.689967	-0.389747
O360	O	1.567466	0.939967	-0.139747
N361	N	0.755562	0.251844	-0.888783
N362	N	1.005562	0.501844	-0.638783
N363	N	1.255562	0.751844	-0.388783
N364	N	1.505562	1.001844	-0.138783
C365	C	0.722093	0.285283	-0.861468
C366	C	0.972093	0.535283	-0.611468
C367	C	1.222093	0.785283	-0.361468
C368	C	1.472093	1.035283	-0.111468
O369	O	0.693636	0.313713	-0.889695
O370	O	0.943636	0.563713	-0.639695
O371	O	1.193636	0.813713	-0.389695
O372	O	1.443636	1.063713	-0.139695
C373	C	0.722084	0.285294	-0.806864
C374	C	0.972084	0.535294	-0.556864
C375	C	1.222084	0.785294	-0.306864
C376	C	1.472084	1.035294	-0.056864
C377	C	0.755547	0.251870	-0.779575
C378	C	1.005547	0.501870	-0.529575
C379	C	1.255547	0.751870	-0.279575
C380	C	1.505547	1.001870	-0.029575
C381	C	0.822472	0.185009	-0.779597
C382	C	1.072472	0.435009	-0.529597
C383	C	1.322472	0.685009	-0.279597
C384	C	1.572472	0.935009	-0.029597
C385	C	0.822466	0.185025	-0.724997
C386	C	1.072466	0.435025	-0.474997
C387	C	1.322466	0.685025	-0.224997
C388	C	1.572466	0.935025	0.025003
C389	C	0.789000	0.218462	-0.697685
C390	C	1.039000	0.468462	-0.447685
C391	C	1.289000	0.718462	-0.197685
C392	C	1.539000	0.968462	0.052315
C393	C	0.755541	0.251885	-0.724974
C394	C	1.005541	0.501885	-0.474974
C395	C	1.255541	0.751885	-0.224974
C396	C	1.505541	1.001885	0.025026
C397	C	0.688613	0.318731	-0.779550
C398	C	0.938613	0.568731	-0.529550
C399	C	1.188613	0.818731	-0.279550
C400	C	1.438613	1.068731	-0.029550
C401	C	0.688607	0.318739	-0.724943
C402	C	0.938607	0.568739	-0.474943
C403	C	1.188607	0.818739	-0.224943
C404	C	1.438607	1.068739	0.025057
C405	C	0.722069	0.285314	-0.697654
C406	C	0.972069	0.535314	-0.447654
C407	C	1.222069	0.785314	-0.197654
C408	C	1.472069	1.035314	0.052346
C409	C	0.722070	0.285338	-0.643063
C410	C	0.972070	0.535338	-0.393063
C411	C	1.222070	0.785338	-0.143063
C412	C	1.472070	1.035338	0.106937
N413	N	0.755526	0.251912	-0.615771
N414	N	1.005526	0.501912	-0.365771
N415	N	1.255526	0.751912	-0.115771
N416	N	1.505526	1.001912	0.134229
C417	C	0.788992	0.218474	-0.643082
C418	C	1.038992	0.468474	-0.393082
C419	C	1.288992	0.718474	-0.143082
C420	C	1.538992	0.968474	0.106918
C421	C	0.722113	0.285256	-0.976138
C422	C	0.972113	0.535256	-0.726138
C423	C	1.222113	0.785256	-0.476138
C424	C	1.472113	1.035256	-0.226138
C425	C	0.722124	0.285247	-1.030741
C426	C	0.972124	0.535247	-0.780741
C427	C	1.222124	0.785247	-0.530741
C428	C	1.472124	1.035247	-0.280741
C429	C	0.789049	0.218381	-1.030760
C430	C	1.039049	0.468381	-0.780760
C431	C	1.289049	0.718381	-0.530760
C432	C	1.539049	0.968381	-0.280760
C433	C	0.789041	0.218392	-0.976157
C434	C	1.039041	0.468392	-0.726157
C435	C	1.289041	0.718392	-0.476157
C436	C	1.539041	0.968392	-0.226157
C437	C	0.755570	0.251829	-0.948846
C438	C	1.005570	0.501829	-0.698846
C439	C	1.255570	0.751829	-0.448846
C440	C	1.505570	1.001829	-0.198846
C441	C	0.788977	0.218509	-0.528417
C442	C	1.038977	0.468509	-0.278417
C443	C	1.288977	0.718509	-0.028417
C444	C	1.538977	0.968509	0.221583
C445	C	0.788970	0.218529	-0.473811
C446	C	1.038970	0.468529	-0.223811
C447	C	1.288970	0.718529	0.026189
C448	C	1.538970	0.968529	0.276189
C449	C	0.722043	0.285393	-0.473797
C450	C	0.972043	0.535393	-0.223797
C451	C	1.222043	0.785393	0.026203
C452	C	1.472043	1.035393	0.276203
C453	C	0.722052	0.285375	-0.528397
C454	C	0.972052	0.535375	-0.278397
C455	C	1.222052	0.785375	-0.028397
C456	C	1.472052	1.035375	0.221603
C457	C	0.755521	0.251929	-0.555706
C458	C	1.005521	0.501929	-0.305706
C459	C	1.255521	0.751929	-0.055706
C460	C	1.505521	1.001929	0.194294
O461	O	0.693635	0.313773	-0.614771
O462	O	0.943635	0.563773	-0.364771
O463	O	1.193635	0.813773	-0.114771
O464	O	1.443635	1.063773	0.135229
O465	O	0.817439	0.190044	-0.614847
O466	O	1.067439	0.440044	-0.364847
O467	O	1.317439	0.690044	-0.114847
O468	O	1.567439	0.940044	0.135153
C469	C	0.755494	0.251951	-0.116170
C470	C	1.005494	0.501951	0.133830
C471	C	1.255494	0.751951	0.383830
C472	C	1.505494	1.001951	0.633830
C473	C	0.755588	0.251807	-0.058057
C474	C	1.005588	0.501807	0.191943
C475	C	1.255588	0.751807	0.441943
C476	C	1.505588	1.001807	0.691943
H477	H	0.457399	0.312726	-0.312556
H478	H	0.707399	0.562726	-0.062556
H479	H	0.957399	0.812726	0.187444
H480	H	1.207399	1.062726	0.437444
H481	H	0.816298	0.191153	-1.053007
H482	H	1.066298	0.441153	-0.803007
H483	H	1.316298	0.691153	-0.553007
H484	H	1.566298	0.941153	-0.303007
C485	C	0.685249	0.322189	-0.443750
C486	C	0.935249	0.572189	-0.193750
C487	C	1.185249	0.822189	0.056250
C488	C	1.435249	1.072189	0.306250
H489	H	0.665328	0.342103	-0.467820
H490	H	0.915328	0.592103	-0.217820
H491	H	1.165328	0.842103	0.032180
H492	H	1.415328	1.092103	0.282180
H493	H	0.662479	0.302203	-0.422435
H494	H	0.912479	0.552203	-0.172435
H495	H	1.162479	0.802203	0.077565
H496	H	1.412479	1.052203	0.327565
H497	H	0.705249	0.344974	-0.422462
H498	H	0.955249	0.594974	-0.172462
H499	H	1.205249	0.844974	0.077538
H500	H	1.455249	1.094974	0.327538
H501	H	0.054099	0.191241	-0.191496
H502	H	0.304099	0.441241	0.058504
H503	H	0.554099	0.691241	0.308504
H504	H	0.804099	0.941241	0.558504
H505	H	0.305272	0.346225	-0.345950
H506	H	0.555272	0.596225	-0.095950
H507	H	0.805272	0.846225	0.154050
H508	H	1.055272	1.096225	0.404050
C509	C	0.651799	0.355494	-0.809556
C510	C	0.901799	0.605494	-0.559556
C511	C	1.151799	0.855494	-0.309556
C512	C	1.401799	1.105494	-0.059556
H513	H	0.631865	0.375401	-0.785463
H514	H	0.881865	0.625401	-0.535463
H515	H	1.131865	0.875401	-0.285463
H516	H	1.381865	1.125401	-0.035463
H517	H	0.671775	0.378279	-0.830863
H518	H	0.921775	0.628279	-0.580863
H519	H	1.171775	0.878279	-0.330863
H520	H	1.421775	1.128279	-0.080863
H521	H	0.629033	0.335479	-0.830849
H522	H	0.879033	0.585479	-0.580849
H523	H	1.129033	0.835479	-0.330849
H524	H	1.379033	1.085479	-0.080849
H525	H	0.816300	0.953325	-0.191448
H526	H	1.066300	1.203325	0.058552
H527	H	1.316300	1.453325	0.308552
H528	H	1.566300	1.703325	0.558552
H529	H	0.206233	0.157734	-0.158106
H530	H	0.456233	0.407734	0.091894
H531	H	0.706233	0.657734	0.341894
H532	H	0.956233	0.907734	0.591894
C533	C	0.198427	0.355800	-0.355503
C534	C	0.448427	0.605800	-0.105503
C535	C	0.698427	0.855800	0.144497
C536	C	0.948427	1.105800	0.394497
H537	H	0.222513	0.375741	-0.375371
H538	H	0.472513	0.625741	-0.125371
H539	H	0.722513	0.875741	0.124629
H540	H	0.972513	1.125741	0.374629
H541	H	0.177146	0.335842	-0.378326
H542	H	0.427146	0.585842	-0.128326
H543	H	0.677146	0.835842	0.121674
H544	H	0.927146	1.085842	0.371674
H545	H	0.177107	0.378558	-0.335461
H546	H	0.427107	0.628558	-0.085461
H547	H	0.677107	0.878558	0.164539
H548	H	0.927107	1.128558	0.414539
C549	C	0.564251	0.322287	-0.322068
C550	C	0.814251	0.572287	-0.072068
C551	C	1.064251	0.822287	0.177932
C552	C	1.314251	1.072287	0.427932
H553	H	0.540168	0.342227	-0.341952
H554	H	0.790168	0.592227	-0.091952
H555	H	1.040168	0.842227	0.158048
H556	H	1.290168	1.092227	0.408048
H557	H	0.585529	0.345039	-0.302026
H558	H	0.835529	0.595039	-0.052026
H559	H	1.085529	0.845039	0.197974
H560	H	1.335529	1.095039	0.447974
H561	H	0.585573	0.302316	-0.344884
H562	H	0.835573	0.552316	-0.094884
H563	H	1.085573	0.802316	0.155116
H564	H	1.335573	1.052316	0.405116
C565	C	0.825778	0.181759	-0.443794
C566	C	1.075778	0.431759	-0.193794
C567	C	1.325778	0.681759	0.056206
C568	C	1.575778	0.931759	0.306206
H569	H	0.820987	0.186558	-0.407362
H570	H	1.070987	0.436558	-0.157362
H571	H	1.320987	0.686558	0.092638
H572	H	1.570987	0.936558	0.342638
H573	H	0.818153	0.146627	-0.452743
H574	H	1.068153	0.396627	-0.202743
H575	H	1.318153	0.646627	0.047257
H576	H	1.568153	0.896627	0.297257
H577	H	0.860904	0.189418	-0.452753
H578	H	1.110904	0.439418	-0.202753
H579	H	1.360904	0.689418	0.047247
H580	H	1.610904	0.939418	0.297247
H581	H	0.849670	0.702137	-0.158024
H582	H	1.099670	0.952137	0.091976
H583	H	1.349670	1.202137	0.341976
H584	H	1.599670	1.452137	0.591976
C585	C	0.313085	0.148155	-0.148564
C586	C	0.563085	0.398155	0.101436
C587	C	0.813085	0.648155	0.351436
C588	C	1.063085	0.898155	0.601436
H589	H	0.289003	0.128216	-0.128690
H590	H	0.539003	0.378216	0.121310
H591	H	0.789003	0.628216	0.371310
H592	H	1.039003	0.878216	0.621310
H593	H	0.334409	0.125404	-0.168603
H594	H	0.584409	0.375404	0.081397
H595	H	0.834409	0.625404	0.331397
H596	H	1.084409	0.875404	0.581397
H597	H	0.334362	0.168120	-0.125739
H598	H	0.584362	0.418120	0.124261
H599	H	0.834362	0.668120	0.374261
H600	H	1.084362	0.918120	0.624261
H601	H	0.556454	0.191211	-0.191422
H602	H	0.806454	0.441211	0.058578
H603	H	1.056454	0.691211	0.308578
H604	H	1.306454	0.941211	0.558578
H605	H	0.054103	0.312760	-0.312609
H606	H	0.304103	0.562760	-0.062609
H607	H	0.554103	0.812760	0.187391
H608	H	0.804103	1.062760	0.437391
H609	H	0.694809	0.312597	-0.550617
H610	H	0.944809	0.562597	-0.300617
H611	H	1.194809	0.812597	-0.050617
H612	H	1.444809	1.062597	0.199383
H613	H	-0.044963	0.312763	-0.312619
H614	H	0.205037	0.562763	-0.062619
H615	H	0.455037	0.812763	0.187381
H616	H	0.705037	1.062763	0.437381
C617	C	0.859268	0.808980	-0.148490
C618	C	1.109268	1.058980	0.101510
C619	C	1.359268	1.308980	0.351510
C620	C	1.609268	1.558980	0.601510
H621	H	0.879179	0.784883	-0.128595
H622	H	1.129179	1.034883	0.121405
H623	H	1.379179	1.284883	0.371405
H624	H	1.629179	1.534883	0.621405
H625	H	0.882046	0.830254	-0.168508
H626	H	1.132046	1.080254	0.081492
H627	H	1.382046	1.330254	0.331492
H628	H	1.632046	1.580254	0.581492
H629	H	0.839286	0.830304	-0.125685
H630	H	1.089286	1.080304	0.124315
H631	H	1.339286	1.330304	0.374315
H632	H	1.589286	1.580304	0.624315
H633	H	0.816111	0.450979	-0.191392
H634	H	1.066111	0.700979	0.058608
H635	H	1.316111	0.950979	0.308608
H636	H	1.566111	1.200979	0.558608
C637	C	-0.052752	0.181689	-0.181970
C638	C	0.197248	0.431689	0.068030
C639	C	0.447248	0.681689	0.318030
C640	C	0.697248	0.931689	0.568030
H641	H	-0.028668	0.161743	-0.162093
H642	H	0.221332	0.411743	0.087907
H643	H	0.471332	0.661743	0.337907
H644	H	0.721332	0.911743	0.587907
H645	H	-0.074077	0.201653	-0.159154
H646	H	0.175923	0.451653	0.090846
H647	H	0.425923	0.701653	0.340846
H648	H	0.675923	0.951653	0.590846
H649	H	-0.074027	0.158935	-0.202017
H650	H	0.175973	0.408935	0.047983
H651	H	0.425973	0.658935	0.297983
H652	H	0.675973	0.908935	0.547983
C653	C	0.651790	0.355521	-0.694902
C654	C	0.901790	0.605521	-0.444902
C655	C	1.151790	0.855521	-0.194902
C656	C	1.401790	1.105521	0.055098
H657	H	0.656573	0.350742	-0.658473
H658	H	0.906573	0.600742	-0.408473
H659	H	1.156573	0.850742	-0.158473
H660	H	1.406573	1.100742	0.091527
H661	H	0.659413	0.390649	-0.703852
H662	H	0.909413	0.640649	-0.453852
H663	H	1.159413	0.890649	-0.203852
H664	H	1.409413	1.140649	0.046148
H665	H	0.616666	0.347854	-0.703843
H666	H	0.866666	0.597854	-0.453843
H667	H	1.116666	0.847854	-0.203843
H668	H	1.366666	1.097854	0.046157
H669	H	0.816159	0.550030	-0.191408
H670	H	1.066159	0.800030	0.058592
H671	H	1.316159	1.050030	0.308592
H672	H	1.566159	1.300030	0.558592
H673	H	0.816333	1.052391	-0.191464
H674	H	1.066333	1.302391	0.058536
H675	H	1.316333	1.552391	0.308536
H676	H	1.566333	1.802391	0.558536
H677	H	0.694857	0.312487	-0.953905
H678	H	0.944857	0.562487	-0.703905
H679	H	1.194857	0.812487	-0.453905
H680	H	1.444857	1.062487	-0.203905
H681	H	0.816229	0.191272	-0.550645
H682	H	1.066229	0.441272	-0.300645
H683	H	1.316229	0.691272	-0.050645
H684	H	1.566229	0.941272	0.199355
H685	H	0.457387	0.191213	-0.191436
H686	H	0.707387	0.441213	0.058564
H687	H	0.957387	0.691213	0.308564
H688	H	1.207387	0.941213	0.558564
C689	C	0.685357	1.060248	-0.322205
C690	C	0.935357	1.310248	-0.072205
C691	C	1.185357	1.560248	0.177795
C692	C	1.435357	1.810248	0.427795
H693	H	0.665426	1.036174	-0.342095
H694	H	0.915426	1.286174	-0.092095
H695	H	1.165426	1.536174	0.157905
H696	H	1.415426	1.786174	0.407905
H697	H	0.662596	1.081581	-0.302186
H698	H	0.912596	1.331581	-0.052186
H699	H	1.162596	1.581581	0.197814
H700	H	1.412596	1.831581	0.447814
H701	H	0.705352	1.081517	-0.345014
H702	H	0.955352	1.331517	-0.095014
H703	H	1.205352	1.581517	0.154986
H704	H	1.455352	1.831517	0.404986
C705	C	0.685317	0.945596	-0.322196
C706	C	0.935317	1.195596	-0.072196
C707	C	1.185317	1.445596	0.177804
C708	C	1.435317	1.695596	0.427804
H709	H	0.665396	0.969691	-0.342084
H710	H	0.915396	1.219691	-0.092084
H711	H	1.165396	1.469691	0.157916
H712	H	1.415396	1.719691	0.407916
H713	H	0.705290	0.924267	-0.344999
H714	H	0.955290	1.174267	-0.094999
H715	H	1.205290	1.424267	0.155001
H716	H	1.455290	1.674267	0.405001
H717	H	0.662540	0.924327	-0.302166
H718	H	0.912540	1.174327	-0.052166
H719	H	1.162540	1.424327	0.197834
H720	H	1.412540	1.674327	0.447834
H721	H	0.694738	0.550105	-0.312613
H722	H	0.944738	0.800105	-0.062613
H723	H	1.194738	1.050105	0.187387
H724	H	1.444738	1.300105	0.437387
C725	C	0.651787	0.694426	-0.355583
C726	C	0.901787	0.944426	-0.105583
C727	C	1.151787	1.194426	0.144417
C728	C	1.401787	1.444426	0.394417
H729	H	0.656566	0.657993	-0.350799
H730	H	0.906566	0.907993	-0.100799
H731	H	1.156566	1.157993	0.149201
H732	H	1.406566	1.407993	0.399201
H733	H	0.616666	0.703413	-0.347897
H734	H	0.866666	0.953413	-0.097897
H735	H	1.116666	1.203413	0.152103
H736	H	1.366666	1.453413	0.402103
H737	H	0.659425	0.703353	-0.390722
H738	H	0.909425	0.953353	-0.140722
H739	H	1.159425	1.203353	0.109278
H740	H	1.409425	1.453353	0.359278
C741	C	0.651825	0.809080	-0.355601
C742	C	0.901825	1.059080	-0.105601
C743	C	1.151825	1.309080	0.144399
C744	C	1.401825	1.559080	0.394399
H745	H	0.631898	0.785003	-0.375492
H746	H	0.881898	1.035003	-0.125492
H747	H	1.131898	1.285003	0.124508
H748	H	1.381898	1.535003	0.374508
H749	H	0.629060	0.830413	-0.335587
H750	H	0.879060	1.080413	-0.085587
H751	H	1.129060	1.330413	0.164413
H752	H	1.379060	1.580413	0.414413
H753	H	0.671822	0.830348	-0.378409
H754	H	0.921822	1.080348	-0.128409
H755	H	1.171822	1.330348	0.121591
H756	H	1.421822	1.580348	0.371591
H757	H	0.694699	0.451039	-0.312594
H758	H	0.944699	0.701039	-0.062594
H759	H	1.194699	0.951039	0.187406
H760	H	1.444699	1.201039	0.437406
H761	H	0.849714	0.157806	-0.702783
H762	H	1.099714	0.407806	-0.452783
H763	H	1.349714	0.657806	-0.202783
H764	H	1.599714	0.907806	0.047217
C765	C	0.859290	0.148228	-0.809631
C766	C	1.109290	0.398228	-0.559631
C767	C	1.359290	0.648228	-0.309631
C768	C	1.609290	0.898228	-0.059631
H769	H	0.879216	0.128330	-0.785551
H770	H	1.129216	0.378330	-0.535551
H771	H	1.379216	0.628330	-0.285551
H772	H	1.629216	0.878330	-0.035551
H773	H	0.839319	0.125434	-0.830933
H774	H	1.089319	0.375434	-0.580933
H775	H	1.339319	0.625434	-0.330933
H776	H	1.589319	0.875434	-0.080933
H777	H	0.882063	0.168231	-0.830931
H778	H	1.132063	0.418231	-0.580931
H779	H	1.382063	0.668231	-0.330931
H780	H	1.632063	0.918231	-0.080931
H781	H	0.816288	0.191174	-0.953941
H782	H	1.066288	0.441174	-0.703941
H783	H	1.316288	0.691174	-0.453941
H784	H	1.566288	0.941174	-0.203941
C785	C	0.685319	0.322018	-1.060753
C786	C	0.935319	0.572018	-0.810753
C787	C	1.185319	0.822018	-0.560753
C788	C	1.435319	1.072018	-0.310753
H789	H	0.665387	0.341930	-1.036662
H790	H	0.915387	0.591930	-0.786662
H791	H	1.165387	0.841930	-0.536662
H792	H	1.415387	1.091930	-0.286662
H793	H	0.705301	0.344798	-1.082059
H794	H	0.955301	0.594798	-0.832059
H795	H	1.205301	0.844798	-0.582059
H796	H	1.455301	1.094798	-0.332059
H797	H	0.662551	0.302006	-1.082047
H798	H	0.912551	0.552006	-0.832047
H799	H	1.162551	0.802006	-0.582047
H800	H	1.412551	1.052006	-0.332047
