data_functionalizedCrystal
_audit_creation_method	'MofGen! by Chris Wilmer'
_symmetry_space_group_name_H-M	'P1'
_symmetry_Int_Tables_number	1
_symmetry_cell_setting	triclinic
loop_
_symmetry_equiv_pos_as_xyz
  x,y,z
_cell_length_a	10.489741
_cell_length_b	16.992694
_cell_length_c	15.455313
_cell_angle_alpha	92.857794
_cell_angle_beta	92.692689
_cell_angle_gamma	92.396301
loop_
_atom_site_label
_atom_site_type_symbol
_atom_site_fract_x
_atom_site_fract_y
_atom_site_fract_z
O1	O	0.265388	-1.045321	-0.072021
O2	O	0.765388	-0.545321	0.427979
O3	O	0.262418	-0.817021	-0.072047
O4	O	0.762418	-0.317021	0.427953
O5	O	0.078758	-0.936366	-0.072028
O6	O	0.578758	-0.436366	0.427972
O7	O	0.449049	-0.925976	-0.072040
O8	O	0.949049	-0.425976	0.427960
O9	O	0.089214	-0.929541	0.072233
O10	O	0.589214	-0.429541	0.572233
O11	O	0.272874	-0.810196	0.072214
O12	O	0.772874	-0.310196	0.572214
O13	O	0.275845	-1.038496	0.072240
O14	O	0.775845	-0.538496	0.572240
Cu15	Cu	0.275314	-0.923723	0.085399
Cu16	Cu	0.775314	-0.423723	0.585399
Cu17	Cu	0.262948	-0.931794	-0.085206
Cu18	Cu	0.762948	-0.431794	0.414794
O19	O	0.459505	-0.919151	0.072221
O20	O	0.959505	-0.419151	0.572221
C21	C	0.263826	-0.784374	0.000081
C22	C	0.763826	-0.284374	0.500081
C23	C	0.252430	-0.697266	0.000071
C24	C	0.752430	-0.197266	0.500071
C25	C	0.036386	-0.932168	0.000102
C26	C	0.536386	-0.432168	0.500102
C27	C	-0.105448	-0.929821	0.000100
C28	C	0.394552	-0.429821	0.500100
C29	C	0.274436	-1.071143	0.000111
C30	C	0.774436	-0.571143	0.500111
C31	C	0.285832	-1.158251	0.000115
C32	C	0.785832	-0.658251	0.500115
C33	C	-0.180195	-0.853885	0.000085
C34	C	0.319805	-0.353885	0.500085
C35	C	-0.264041	-0.886392	0.071217
C36	C	0.235959	-0.386392	0.571217
C37	C	-0.274324	-0.893138	-0.071013
C38	C	0.225676	-0.393138	0.428987
C39	C	-0.187422	-0.962356	0.071291
C40	C	0.312578	-0.462356	0.571291
C41	C	-0.197700	-0.969095	-0.071003
C42	C	0.302300	-0.469095	0.428997
C43	C	-0.281512	-1.001656	0.000146
C44	C	0.218488	-0.501656	0.500146
C45	C	0.501877	-0.923349	0.000090
C46	C	1.001877	-0.423349	0.500090
C47	C	0.643710	-0.925697	0.000086
C48	C	1.143710	-0.425697	0.500086
N49	N	0.284011	-0.918052	0.205394
N50	N	0.784011	-0.418052	0.705394
C51	C	0.362380	-0.647647	0.000068
C52	C	0.862380	-0.147647	0.500068
C53	C	0.351666	-0.565799	0.000081
C54	C	0.851666	-0.065799	0.500081
C55	C	0.231001	-0.533573	0.000089
C56	C	0.731001	-0.033573	0.500089
C57	C	0.121044	-0.583198	0.000095
C58	C	0.621044	-0.083198	0.500095
C59	C	0.131759	-0.665044	0.000089
C60	C	0.631759	-0.165044	0.500089
C61	C	0.186590	-0.289723	0.000114
C62	C	0.686590	0.210277	0.500114
C63	C	0.175882	-0.207871	0.000117
C64	C	0.675882	0.292129	0.500117
C65	C	0.406505	-0.190477	0.000105
C66	C	0.906505	0.309523	0.500105
C67	C	0.417210	-0.272325	0.000094
C68	C	0.917210	0.227675	0.500094
C69	C	0.307253	-0.321944	0.000104
C70	C	0.807253	0.178056	0.500104
N71	N	0.220047	-0.449911	0.000099
N72	N	0.720047	0.050089	0.500099
N73	N	0.318209	-0.405603	0.000100
N74	N	0.818209	0.094397	0.500100
N75	N	0.254242	-0.937472	-0.205201
N76	N	0.754242	-0.437472	0.294799
C77	C	0.206019	-0.968772	0.250796
C78	C	0.706019	-0.468772	0.750796
C79	C	0.212608	-0.964490	0.341603
C80	C	0.712608	-0.464490	0.841603
C81	C	0.297199	-0.909492	0.387007
C82	C	0.797199	-0.409492	0.887007
C83	C	0.375195	-0.858766	0.341598
C84	C	0.875195	-0.358766	0.841598
C85	C	0.368597	-0.863045	0.250793
C86	C	0.868597	-0.363045	0.750793
C87	C	0.325640	-0.891025	0.658585
C88	C	0.825640	-0.391025	1.158585
C89	C	0.332234	-0.886752	0.749397
C90	C	0.832234	-0.386752	1.249397
C91	C	0.169646	-0.992475	0.749396
C92	C	0.669646	-0.492475	1.249396
C93	C	0.163062	-0.996751	0.658589
C94	C	0.663062	-0.496751	1.158589
C95	C	0.241053	-0.946023	0.613188
C96	C	0.741053	-0.446023	1.113188
N97	N	0.303939	-0.905116	0.479826
N98	N	0.803939	-0.405116	0.979826
N99	N	0.234305	-0.950396	0.520370
N100	N	0.734305	-0.450396	1.020370
H101	H	-0.135971	-0.791448	0.000150
H102	H	0.364029	-0.291448	0.500150
H103	H	-0.312443	-0.863844	-0.131155
H104	H	0.187557	-0.363844	0.368845
H105	H	0.460638	-0.673878	0.000060
H106	H	0.960638	-0.173878	0.500060
O107	O	0.513337	-0.142317	-0.000051
O108	O	1.013337	0.357683	0.499949
C109	C	0.580705	-0.160561	-0.074758
C110	C	1.080705	0.339439	0.425242
H111	H	0.512397	-0.190612	-0.126979
H112	H	1.012397	0.309388	0.373021
H113	H	0.624148	-0.103973	-0.099833
H114	H	1.124148	0.396027	0.400167
H115	H	0.660046	-0.201850	-0.057871
H116	H	1.160046	0.298150	0.442129
H117	H	0.149100	-1.005790	0.378569
H118	H	0.649100	-0.505790	0.878569
H119	H	-0.168221	-1.004043	-0.131136
H120	H	0.331779	-0.504043	0.368864
H121	H	0.441198	-0.525401	0.000077
H122	H	0.941198	-0.025401	0.500077
O123	O	0.534393	-0.303660	-0.000089
O124	O	1.034393	0.196340	0.499911
C125	C	0.542037	-0.354008	-0.074809
C126	C	1.042037	0.145992	0.425191
H127	H	0.469549	-0.336743	-0.127003
H128	H	0.969549	0.163257	0.372997
H129	H	0.642306	-0.348407	-0.099919
H130	H	1.142306	0.151593	0.400081
H131	H	0.520438	-0.417584	-0.057928
H132	H	1.020438	0.082416	0.442072
H133	H	0.077618	-0.181636	0.000124
H134	H	0.577618	0.318364	0.500124
O135	O	-0.299114	-0.844548	0.142888
O136	O	0.200886	-0.344548	0.642888
C137	C	-0.247203	-0.766677	0.142641
C138	C	0.252797	-0.266677	0.642641
H139	H	-0.226351	-0.751899	0.073421
H140	H	0.273649	-0.251899	0.573421
H141	H	-0.318479	-0.724087	0.169504
H142	H	0.181521	-0.224087	0.669504
H143	H	-0.154807	-0.761076	0.184796
H144	H	0.345193	-0.261076	0.684796
H145	H	0.097055	-0.330113	0.000123
H146	H	0.597055	0.169887	0.500123
O147	O	0.024907	-0.713223	-0.000067
O148	O	0.524907	-0.213223	0.499933
C149	C	-0.053293	-0.702027	-0.074766
C150	C	0.446707	-0.202027	0.425234
H151	H	0.007442	-0.676900	-0.126988
H152	H	0.507442	-0.176900	0.373012
H153	H	-0.100367	-0.760982	-0.099846
H154	H	0.399633	-0.260982	0.400154
H155	H	-0.130189	-0.659148	-0.057868
H156	H	0.369811	-0.159148	0.442132
O157	O	0.003811	-0.551928	0.000255
O158	O	0.503811	-0.051928	0.500255
C159	C	-0.058318	-0.573711	0.074959
C160	C	0.441682	-0.073711	0.574959
H161	H	0.015881	-0.588653	0.127179
H162	H	0.515881	-0.088653	0.627179
H163	H	-0.115855	-0.522649	0.100039
H164	H	0.384145	-0.022649	0.600039
H165	H	-0.125218	-0.627441	0.058068
H166	H	0.374782	-0.127441	0.558068
O167	O	-0.141975	-0.997335	0.143027
O168	O	0.358025	-0.497335	0.643027
C169	C	-0.076274	-1.064756	0.117655
C170	C	0.423726	-0.564756	0.617655
H171	H	-0.043077	-1.058786	0.049012
H172	H	0.456923	-0.558786	0.549012
H173	H	0.010146	-1.070588	0.164065
H174	H	0.510146	-0.570588	0.664065
H175	H	-0.142761	-1.119411	0.119373
H176	H	0.357239	-0.619411	0.619373
H177	H	0.137142	-1.013560	0.213834
H178	H	0.637142	-0.513560	0.713834
H179	H	0.094182	-1.041535	0.621623
H180	H	0.594182	-0.541535	1.121623
H181	H	0.401123	-0.841963	0.786361
H182	H	0.901123	-0.341963	1.286361
O183	O	0.093693	-1.041710	0.793405
O184	O	0.593693	-0.541710	1.293405
C185	C	-0.035564	-1.029271	0.771245
C186	C	0.464436	-0.529271	1.271245
H187	H	-0.043298	-1.002141	0.705317
H188	H	0.456702	-0.502141	1.205317
H189	H	-0.092584	-1.088031	0.768140
H190	H	0.407416	-0.588031	1.268140
H191	H	-0.075329	-0.987585	0.822359
H192	H	0.424671	-0.487585	1.322359
H193	H	0.389146	-0.849721	0.621627
H194	H	0.889146	-0.349721	1.121627
H195	H	0.444065	-0.813982	0.378571
H196	H	0.944065	-0.313982	0.878571
O197	O	0.444420	-0.813890	0.206591
O198	O	0.944420	-0.313890	0.706591
C199	C	0.523684	-0.858819	0.154065
C200	C	1.023684	-0.358819	0.654065
H201	H	0.478183	-0.920564	0.140458
H202	H	0.978183	-0.420564	0.640458
H203	H	0.535862	-0.829195	0.090213
H204	H	1.035862	-0.329195	0.590213
H205	H	0.621098	-0.863028	0.189048
H206	H	1.121098	-0.363028	0.689048
O207	O	-0.333928	-1.076207	0.000352
O208	O	0.166072	-0.576207	0.500352
C209	C	-0.289315	-1.112390	0.075437
C210	C	0.210685	-0.612390	0.575437
H211	H	-0.256838	-1.065067	0.127612
H212	H	0.243162	-0.565067	0.627612
H213	H	-0.369526	-1.151215	0.100266
H214	H	0.130474	-0.651215	0.600266
H215	H	-0.205507	-1.150147	0.059151
H216	H	0.294493	-0.650147	0.559151
