data_functionalizedCrystal
_audit_creation_method	'MofGen! by Chris Wilmer'
_symmetry_space_group_name_H-M	'P1'
_symmetry_Int_Tables_number	1
_symmetry_cell_setting	triclinic
loop_
_symmetry_equiv_pos_as_xyz
  x,y,z
_cell_length_a	18.215407
_cell_length_b	12.827892
_cell_length_c	18.215399
_cell_angle_alpha	89.975972
_cell_angle_beta	89.982187
_cell_angle_gamma	90.009715
loop_
_atom_site_label
_atom_site_type_symbol
_atom_site_fract_x
_atom_site_fract_y
_atom_site_fract_z
Zn1	Zn	1.125121	-0.416197	-0.416096
Zn2	Zn	1.375121	-0.166197	-0.166096
Zn3	Zn	1.625121	0.083803	0.083904
Zn4	Zn	1.875121	0.333803	0.333904
Zn5	Zn	1.125051	-0.590956	-0.293038
Zn6	Zn	1.375051	-0.340956	-0.043038
Zn7	Zn	1.625051	-0.090956	0.206962
Zn8	Zn	1.875051	0.159044	0.456962
Zn9	Zn	1.002054	-0.416213	-0.293048
Zn10	Zn	1.252054	-0.166213	-0.043048
Zn11	Zn	1.502054	0.083787	0.206952
Zn12	Zn	1.752054	0.333787	0.456952
Zn13	Zn	1.002041	-0.590880	-0.416068
Zn14	Zn	1.252041	-0.340880	-0.166068
Zn15	Zn	1.502041	-0.090880	0.083932
Zn16	Zn	1.752041	0.159120	0.333932
O17	O	1.063567	-0.503561	-0.354563
O18	O	1.313567	-0.253561	-0.104563
O19	O	1.563567	-0.003561	0.145437
O20	O	1.813567	0.246439	0.395437
O21	O	1.228096	-0.439404	-0.399780
O22	O	1.478096	-0.189404	-0.149780
O23	O	1.728096	0.060596	0.100220
O24	O	1.978096	0.310596	0.350220
O25	O	1.108711	-0.567815	-0.190055
O26	O	1.358711	-0.317815	0.059945
O27	O	1.608711	-0.067815	0.309945
O28	O	1.858711	0.182185	0.559945
O29	O	1.018414	-0.269975	-0.309387
O30	O	1.268414	-0.019975	-0.059387
O31	O	1.518414	0.230025	0.190613
O32	O	1.768414	0.480025	0.440613
O33	O	1.228044	-0.567799	-0.309370
O34	O	1.478044	-0.317799	-0.059370
O35	O	1.728044	-0.067799	0.190630
O36	O	1.978044	0.182201	0.440630
O37	O	1.108831	-0.269963	-0.399790
O38	O	1.358831	-0.019963	-0.149790
O39	O	1.608831	0.230037	0.100210
O40	O	1.858831	0.480037	0.350210
O41	O	1.018346	-0.439432	-0.190062
O42	O	1.268346	-0.189432	0.059938
O43	O	1.518346	0.060568	0.309938
O44	O	1.768346	0.310568	0.559938
O45	O	0.899068	-0.439358	-0.309359
O46	O	1.149068	-0.189358	-0.059359
O47	O	1.399068	0.060642	0.190641
O48	O	1.649068	0.310642	0.440641
O49	O	1.018392	-0.567669	-0.519056
O50	O	1.268392	-0.317669	-0.269056
O51	O	1.518392	-0.067669	-0.019056
O52	O	1.768392	0.182331	0.230944
O53	O	0.899058	-0.567685	-0.399741
O54	O	1.149058	-0.317685	-0.149741
O55	O	1.399058	-0.067685	0.100259
O56	O	1.649058	0.182315	0.350259
O57	O	1.108819	-0.439330	-0.519077
O58	O	1.358819	-0.189330	-0.269077
O59	O	1.608819	0.060670	-0.019077
O60	O	1.858819	0.310670	0.230923
O61	O	1.108698	-0.737182	-0.309342
O62	O	1.358698	-0.487182	-0.059342
O63	O	1.608698	-0.237182	0.190658
O64	O	1.858698	0.012818	0.440658
O65	O	1.018323	-0.737126	-0.399732
O66	O	1.268323	-0.487126	-0.149732
O67	O	1.518323	-0.237126	0.100268
O68	O	1.768323	0.012874	0.350268
C69	C	0.872360	-0.503515	-0.354548
C70	C	1.122360	-0.253515	-0.104548
C71	C	1.372360	-0.003515	0.145452
C72	C	1.622360	0.246485	0.395452
C73	C	0.790562	-0.503521	-0.354559
C74	C	1.040562	-0.253521	-0.104559
C75	C	1.290562	-0.003521	0.145441
C76	C	1.540562	0.246479	0.395441
C77	C	0.525525	-0.436835	-0.401714
C78	C	0.775525	-0.186835	-0.151714
C79	C	1.025525	0.063165	0.098286
C80	C	1.275525	0.313165	0.348286
C81	C	0.602384	-0.436818	-0.401712
C82	C	0.852384	-0.186818	-0.151712
C83	C	1.102384	0.063182	0.098288
C84	C	1.352384	0.313182	0.348288
C85	C	0.602349	-0.570322	-0.307427
C86	C	0.852349	-0.320322	-0.057427
C87	C	1.102349	-0.070322	0.192573
C88	C	1.352349	0.179678	0.442573
C89	C	0.525492	-0.570343	-0.307434
C90	C	0.775492	-0.320343	-0.057434
C91	C	1.025492	-0.070343	0.192566
C92	C	1.275492	0.179657	0.442566
C93	C	0.487082	-0.503594	-0.354576
C94	C	0.737082	-0.253594	-0.104576
C95	C	0.987082	-0.003594	0.145424
C96	C	1.237082	0.246406	0.395424
C97	C	0.640798	-0.503555	-0.354567
C98	C	0.890798	-0.253555	-0.104567
C99	C	1.140798	-0.003555	0.145433
C100	C	1.390798	0.246445	0.395433
C101	C	0.724132	-0.503538	-0.354564
C102	C	0.974132	-0.253538	-0.104564
C103	C	1.224132	-0.003538	0.145436
C104	C	1.474132	0.246462	0.395436
C105	C	0.403743	-0.503613	-0.354580
C106	C	0.653743	-0.253613	-0.104580
C107	C	0.903743	-0.003613	0.145420
C108	C	1.153743	0.246387	0.395420
C109	C	1.063521	-0.775071	-0.354549
C110	C	1.313521	-0.525071	-0.104549
C111	C	1.563521	-0.275071	0.145451
C112	C	1.813521	-0.025071	0.395451
C113	C	1.063569	-0.891224	-0.354568
C114	C	1.313569	-0.641224	-0.104568
C115	C	1.563569	-0.391224	0.145432
C116	C	1.813569	-0.141224	0.395432
C117	C	1.018838	-0.943016	-0.399262
C118	C	1.268838	-0.693016	-0.149262
C119	C	1.518838	-0.443016	0.100738
C120	C	1.768838	-0.193016	0.350738
C121	C	1.018887	-1.063066	-0.399283
C122	C	1.268887	-0.813066	-0.149283
C123	C	1.518887	-0.563066	0.100717
C124	C	1.768887	-0.313066	0.350717
C125	C	1.255520	-0.503608	-0.354577
C126	C	1.505520	-0.253608	-0.104577
C127	C	1.755520	-0.003608	0.145423
C128	C	2.005520	0.246392	0.395423
C129	C	1.337318	-0.503628	-0.354584
C130	C	1.587318	-0.253628	-0.104584
C131	C	1.837318	-0.003628	0.145416
C132	C	2.087318	0.246372	0.395416
C133	C	1.063612	-0.503489	-0.546516
C134	C	1.313612	-0.253489	-0.296516
C135	C	1.563612	-0.003489	-0.046516
C136	C	1.813612	0.246511	0.203484
C137	C	1.063631	-0.503459	-0.628314
C138	C	1.313631	-0.253459	-0.378314
C139	C	1.563631	-0.003459	-0.128314
C140	C	1.813631	0.246541	0.121686
C141	C	1.063632	-0.230991	-0.354592
C142	C	1.313632	0.019009	-0.104592
C143	C	1.563632	0.269009	0.145408
C144	C	1.813632	0.519009	0.395408
C145	C	1.063660	-0.114838	-0.354605
C146	C	1.313660	0.135162	-0.104605
C147	C	1.563660	0.385162	0.145395
C148	C	1.813660	0.635162	0.395395
C149	C	1.110733	-0.436570	-0.816521
C150	C	1.360733	-0.186570	-0.566521
C151	C	1.610733	0.063430	-0.316521
C152	C	1.860733	0.313430	-0.066521
C153	C	1.110742	-0.436540	-0.893379
C154	C	1.360742	-0.186540	-0.643379
C155	C	1.610742	0.063460	-0.393379
C156	C	1.860742	0.313460	-0.143379
C157	C	1.016580	-0.570186	-0.893346
C158	C	1.266580	-0.320186	-0.643346
C159	C	1.516580	-0.070186	-0.393346
C160	C	1.766580	0.179814	-0.143346
C161	C	1.016569	-0.570210	-0.816489
C162	C	1.266569	-0.320210	-0.566489
C163	C	1.516569	-0.070210	-0.316489
C164	C	1.766569	0.179790	-0.066489
C165	C	1.063649	-0.503404	-0.778078
C166	C	1.313649	-0.253404	-0.528078
C167	C	1.563649	-0.003404	-0.278078
C168	C	1.813649	0.246596	-0.028078
C169	C	1.063670	-0.503349	-0.931794
C170	C	1.313670	-0.253349	-0.681794
C171	C	1.563670	-0.003349	-0.431794
C172	C	1.813670	0.246651	-0.181794
C173	C	1.063679	-0.503316	-1.015128
C174	C	1.313679	-0.253316	-0.765128
C175	C	1.563679	-0.003316	-0.515128
C176	C	1.813679	0.246684	-0.265128
C177	C	1.063639	-0.503435	-0.694739
C178	C	1.313639	-0.253435	-0.444739
C179	C	1.563639	-0.003435	-0.194739
C180	C	1.813639	0.246565	0.055261
C181	C	1.063564	-0.503558	-0.163356
C182	C	1.313564	-0.253558	0.086644
C183	C	1.563564	-0.003558	0.336644
C184	C	1.813564	0.246442	0.586644
C185	C	1.063688	-0.503294	-0.081558
C186	C	1.313688	-0.253294	0.168442
C187	C	1.563688	-0.003294	0.418442
C188	C	1.813688	0.246706	0.668442
H189	H	0.633632	-0.624664	-0.269044
H190	H	0.883632	-0.374664	-0.019044
H191	H	1.133632	-0.124664	0.230956
H192	H	1.383632	0.125336	0.480956
Br193	Br	0.954944	-0.868797	-0.463016
Br194	Br	1.204944	-0.618797	-0.213016
Br195	Br	1.454944	-0.368797	0.036984
Br196	Br	1.704944	-0.118797	0.286984
H197	H	0.980594	-1.107606	-0.437550
H198	H	1.230594	-0.857606	-0.187550
H199	H	1.480594	-0.607606	0.062450
H200	H	1.730594	-0.357606	0.312450
Br201	Br	1.127501	-1.040617	-0.290828
Br202	Br	1.377501	-0.790617	-0.040828
Br203	Br	1.627501	-0.540617	0.209172
Br204	Br	1.877501	-0.290617	0.459172
Br205	Br	0.952657	-0.660910	-0.764312
Br206	Br	1.202657	-0.410910	-0.514312
Br207	Br	1.452657	-0.160910	-0.264312
Br208	Br	1.702657	0.089090	-0.014312
Br209	Br	1.174649	-0.345840	-0.945549
Br210	Br	1.424649	-0.095840	-0.695549
Br211	Br	1.674649	0.154160	-0.445549
Br212	Br	1.924649	0.404160	-0.195549
H213	H	0.494254	-0.382483	-0.440100
H214	H	0.744254	-0.132483	-0.190100
H215	H	0.994254	0.117517	0.059900
H216	H	1.244254	0.367517	0.309900
Br217	Br	0.473314	-0.660953	-0.243457
Br218	Br	0.723314	-0.410953	0.006543
Br219	Br	0.973314	-0.160953	0.256543
Br220	Br	1.223314	0.089047	0.506543
H221	H	0.633681	-0.382457	-0.440097
H222	H	0.883681	-0.132457	-0.190097
H223	H	1.133681	0.117543	0.059903
H224	H	1.383681	0.367543	0.309903
Br225	Br	1.174626	-0.345903	-0.764394
Br226	Br	1.424626	-0.095903	-0.514394
Br227	Br	1.674626	0.154097	-0.264394
Br228	Br	1.924626	0.404097	-0.014394
H229	H	1.101899	-0.935760	-0.316316
H230	H	1.351899	-0.685760	-0.066316
H231	H	1.601899	-0.435760	0.183684
H232	H	1.851899	-0.185760	0.433684
Br233	Br	0.952691	-0.660850	-0.945480
Br234	Br	1.202691	-0.410850	-0.695480
Br235	Br	1.452691	-0.160850	-0.445480
Br236	Br	1.702691	0.089150	-0.195480
