data_functionalizedCrystal
_audit_creation_method	'MofGen! by Chris Wilmer'
_symmetry_space_group_name_H-M	'P1'
_symmetry_Int_Tables_number	1
_symmetry_cell_setting	triclinic
loop_
_symmetry_equiv_pos_as_xyz
  x,y,z
_cell_length_a	14.971486
_cell_length_b	13.339070
_cell_length_c	13.448316
_cell_angle_alpha	89.996829
_cell_angle_beta	89.998199
_cell_angle_gamma	99.621712
loop_
_atom_site_label
_atom_site_type_symbol
_atom_site_fract_x
_atom_site_fract_y
_atom_site_fract_z
O1	O	1.219550	0.131873	-0.082571
O2	O	0.963055	0.147665	-0.082597
O3	O	1.061865	-0.007530	-0.082584
O4	O	1.120740	0.287068	-0.082584
O5	O	1.061845	-0.007540	0.082800
O6	O	0.963035	0.147656	0.082787
O7	O	1.219531	0.131864	0.082813
Cu8	Cu	1.091281	0.139759	0.097901
Cu9	Cu	1.091304	0.139770	-0.097685
O10	O	1.120720	0.287059	0.082800
C11	C	0.929545	0.146954	0.000091
C12	C	0.829725	0.144838	0.000081
C13	C	0.795041	0.236011	0.000082
C14	C	0.701248	0.234016	0.000097
C15	C	0.642141	0.140847	0.000103
C16	C	0.676832	0.049667	0.000105
C17	C	0.770623	0.051663	0.000097
C18	C	0.481342	0.045514	0.000119
C19	C	0.387545	0.043518	0.000125
C20	C	0.411968	0.227867	0.000119
C21	C	0.505759	0.229863	0.000111
C22	C	0.540442	0.138682	0.000111
C23	C	1.051910	-0.045236	0.000105
C24	C	1.022266	-0.157574	0.000098
C25	C	1.252762	-0.522088	0.000122
C26	C	1.280617	-0.416541	0.000135
C27	C	1.216032	-0.351794	0.000125
C28	C	1.123587	-0.392604	0.000104
C29	C	1.095729	-0.498161	0.000100
C30	C	1.058999	-0.327867	0.000103
C31	C	0.966554	-0.368677	0.000082
C32	C	0.938701	-0.474224	0.000077
C33	C	1.003286	-0.538970	0.000086
C34	C	1.086856	-0.222311	0.000107
C35	C	0.929823	-0.198384	0.000084
C36	C	0.901968	-0.303930	0.000072
C37	C	1.253040	0.132575	0.000122
C38	C	1.352860	0.134691	0.000126
C39	C	1.130675	0.324765	0.000108
C40	C	1.160319	0.437102	0.000109
N41	N	1.091271	0.139750	0.235465
N42	N	1.091319	0.139771	-0.235249
C43	C	1.135050	0.071058	0.287511
C44	C	1.135056	0.071057	0.391614
C45	C	1.091287	0.139754	0.443669
C46	C	1.047502	0.208449	0.391616
C47	C	1.047492	0.208445	0.287515
C48	C	1.047529	0.208456	0.608596
C49	C	1.047540	0.208463	0.712705
C50	C	1.135093	0.071069	0.712696
C51	C	1.135082	0.071064	0.608594
C52	C	1.091299	0.139761	0.556548
H53	H	0.798860	-0.022579	0.000096
H54	H	0.980611	-0.624916	0.000072
O55	O	1.322411	-0.591924	0.000142
H56	H	1.391374	-0.545818	0.000162
O57	O	0.323792	-0.056970	0.000153
H58	H	0.280476	-0.062300	-0.067253
H59	H	1.011859	0.264381	0.434005
H60	H	1.170742	0.015133	0.755078
O61	O	0.613086	-0.050826	0.000120
H62	H	0.569774	-0.056150	-0.067288
H63	H	1.170727	0.015131	0.566211
H64	H	0.877232	-0.145666	0.000082
H65	H	0.383724	0.302110	0.000123
H66	H	1.011898	0.264402	0.755083
O67	O	1.000290	0.282547	0.552473
H68	H	0.946217	0.239858	0.505072
H69	H	1.011841	0.264379	0.245140
O70	O	0.518757	-0.052827	0.000114
H71	H	0.461902	-0.117950	0.000107
H72	H	1.355886	-0.383322	0.000153
H73	H	1.170697	0.015121	0.245135
H74	H	0.826698	-0.337172	0.000056
O75	O	0.858786	0.336504	0.000087
H76	H	0.846632	0.380332	-0.067312
H77	H	0.553882	0.305729	0.000096
O78	O	0.663834	0.332351	0.000099
H79	H	0.720692	0.397472	0.000082
H80	H	1.238717	-0.265854	0.000135
O81	O	0.838994	-0.518246	0.000067
H82	H	0.798762	-0.455495	0.000054
H83	H	1.170703	0.015122	0.433990
H84	H	1.162125	-0.189094	0.000124
