data_functionalizedCrystal
_audit_creation_method	'MofGen! by Chris Wilmer'
_symmetry_space_group_name_H-M	'P1'
_symmetry_Int_Tables_number	1
_symmetry_cell_setting	triclinic
loop_
_symmetry_equiv_pos_as_xyz
  x,y,z
_cell_length_a	23.532361
_cell_length_b	23.532407
_cell_length_c	22.610064
_cell_angle_alpha	89.999397
_cell_angle_beta	89.996103
_cell_angle_gamma	82.839173
loop_
_atom_site_label
_atom_site_type_symbol
_atom_site_fract_x
_atom_site_fract_y
_atom_site_fract_z
O1	O	0.755281	0.069001	-0.049131
O2	O	1.088614	0.402334	0.284202
O3	O	1.421947	0.735667	0.617535
O4	O	0.589414	0.079032	-0.049146
O5	O	0.922747	0.412365	0.284187
O6	O	1.256080	0.745698	0.617520
O7	O	0.677349	-0.008916	-0.049127
O8	O	1.010682	0.324417	0.284206
O9	O	1.344016	0.657750	0.617539
O10	O	0.667345	0.156949	-0.049150
O11	O	1.000679	0.490282	0.284183
O12	O	1.334012	0.823615	0.617517
O13	O	0.677333	-0.008903	0.049242
O14	O	1.010667	0.324430	0.382575
O15	O	1.344000	0.657763	0.715908
O16	O	0.589398	0.079045	0.049223
O17	O	0.922731	0.412378	0.382556
O18	O	1.256065	0.745711	0.715890
O19	O	0.755265	0.069014	0.049238
O20	O	1.088599	0.402347	0.382571
O21	O	1.421932	0.735680	0.715905
Zn22	Zn	0.672329	0.074031	0.064849
Zn23	Zn	1.005662	0.407364	0.398182
Zn24	Zn	1.338996	0.740698	0.731515
Zn25	Zn	0.672350	0.074014	-0.064757
Zn26	Zn	1.005683	0.407348	0.268576
Zn27	Zn	1.339016	0.740681	0.601910
O28	O	0.667330	0.156962	0.049219
O29	O	1.000663	0.490295	0.382553
O30	O	1.333997	0.823628	0.715886
C31	C	0.568189	0.078787	0.000037
C32	C	0.901523	0.412120	0.333370
C33	C	1.234856	0.745454	0.666703
C34	C	0.504971	0.078032	0.000031
C35	C	0.838304	0.411365	0.333365
C36	C	1.171637	0.744698	0.666698
C37	C	0.677086	-0.030126	0.000059
C38	C	1.010420	0.303207	0.333392
C39	C	1.343753	0.636541	0.666725
C40	C	0.676320	-0.093343	0.000063
C41	C	1.009654	0.239991	0.333396
C42	C	1.342987	0.573324	0.666730
C43	C	0.231736	0.074721	-0.053586
C44	C	0.565069	0.408055	0.279748
C45	C	0.898402	0.741388	0.613081
C46	C	0.291135	0.075436	-0.053587
C47	C	0.624469	0.408770	0.279746
C48	C	0.957802	0.742103	0.613079
O49	O	0.321868	0.075780	-0.099189
O50	O	0.655202	0.409114	0.234144
O51	O	0.988535	0.742447	0.567478
N52	N	0.320832	0.075804	0.000034
N53	N	0.654166	0.409138	0.333367
N54	N	0.987499	0.742471	0.666701
C55	C	0.291128	0.075452	0.053660
C56	C	0.624461	0.408785	0.386994
C57	C	0.957794	0.742118	0.720327
O58	O	0.321842	0.075830	0.099269
O59	O	0.655175	0.409163	0.432602
O60	O	0.988508	0.742497	0.765936
C61	C	0.231730	0.074733	0.053661
C62	C	0.565063	0.408066	0.386994
C63	C	0.898396	0.741399	0.720328
C64	C	0.202035	0.074370	0.000036
C65	C	0.535368	0.407704	0.333370
C66	C	0.868701	0.741037	0.666703
C67	C	0.202041	0.074358	-0.107206
C68	C	0.535374	0.407692	0.226127
C69	C	0.868707	0.741025	0.559461
C70	C	0.142645	0.073644	-0.107204
C71	C	0.475978	0.406978	0.226129
C72	C	0.809312	0.740311	0.559462
C73	C	0.112944	0.073294	-0.053582
C74	C	0.446277	0.406627	0.279751
C75	C	0.779611	0.739960	0.613085
C76	C	0.142639	0.073657	0.000038
C77	C	0.475972	0.406990	0.333372
C78	C	0.809305	0.740323	0.666705
C79	C	0.202026	0.074376	0.107287
C80	C	0.535360	0.407709	0.440620
C81	C	0.868693	0.741043	0.773953
C82	C	0.142624	0.073656	0.107283
C83	C	0.475958	0.406990	0.440616
C84	C	0.809291	0.740323	0.773950
C85	C	0.112929	0.073294	0.053658
C86	C	0.446263	0.406627	0.386992
C87	C	0.779596	0.739961	0.720325
C88	C	0.053542	0.072592	0.053662
C89	C	0.386875	0.405925	0.386995
C90	C	0.720209	0.739259	0.720329
N91	N	0.023845	0.072224	0.000041
N92	N	0.357178	0.405557	0.333374
N93	N	0.690512	0.738890	0.666708
C94	C	0.053546	0.072575	-0.053581
C95	C	0.386879	0.405908	0.279752
C96	C	0.720212	0.739241	0.613085
C97	C	0.415868	0.076961	0.053654
C98	C	0.749201	0.410294	0.386988
C99	C	1.082534	0.743627	0.720321
C100	C	0.475264	0.077684	0.053654
C101	C	0.808598	0.411017	0.386987
C102	C	1.141931	0.744350	0.720321
C103	C	0.475268	0.077667	-0.053594
C104	C	0.808601	0.411000	0.279739
C105	C	1.141935	0.744334	0.613073
C106	C	0.415870	0.076948	-0.053593
C107	C	0.749203	0.410281	0.279740
C108	C	1.082537	0.743615	0.613074
C109	C	0.386171	0.076593	0.000033
C110	C	0.719504	0.409926	0.333366
C111	C	1.052837	0.743259	0.666700
C112	C	-0.071190	0.071076	-0.053573
C113	C	0.262144	0.404409	0.279760
C114	C	0.595477	0.737743	0.613093
C115	C	-0.130591	0.070365	-0.053567
C116	C	0.202742	0.403698	0.279766
C117	C	0.536076	0.737031	0.613100
C118	C	-0.130589	0.070378	0.053680
C119	C	0.202744	0.403712	0.387014
C120	C	0.536077	0.737045	0.720347
C121	C	-0.071193	0.071093	0.053674
C122	C	0.262140	0.404426	0.387008
C123	C	0.595473	0.737759	0.720341
C124	C	-0.041495	0.071440	0.000043
C125	C	0.291838	0.404773	0.333376
C126	C	0.625172	0.738106	0.666709
O127	O	0.022772	0.072245	0.099240
O128	O	0.356105	0.405578	0.432574
O129	O	0.689438	0.738912	0.765907
O130	O	0.022825	0.072189	-0.099182
O131	O	0.356159	0.405522	0.234151
O132	O	0.689492	0.738855	0.567484
C133	C	0.723555	-0.492454	0.000035
C134	C	1.056888	-0.159120	0.333368
C135	C	1.390222	0.174213	0.666702
C136	C	0.722844	-0.551854	0.000030
C137	C	1.056177	-0.218521	0.333364
C138	C	1.389510	0.114813	0.666697
O139	O	0.766630	-0.588606	0.000013
O140	O	1.099964	-0.255272	0.333346
O141	O	1.433297	0.078061	0.666679
N142	N	0.670566	-0.574471	0.000026
N143	N	1.003899	-0.241138	0.333359
N144	N	1.337233	0.092195	0.666693
C145	C	0.618997	-0.537685	0.000020
C146	C	0.952330	-0.204352	0.333354
C147	C	1.285663	0.128982	0.666687
O148	O	0.574465	-0.562377	0.000016
O149	O	0.907799	-0.229044	0.333349
O150	O	1.241132	0.104289	0.666682
C151	C	0.619709	-0.478286	0.000021
C152	C	0.953042	-0.144953	0.333354
C153	C	1.286375	0.188381	0.666687
C154	C	0.671990	-0.455672	0.000031
C155	C	1.005323	-0.122339	0.333364
C156	C	1.338656	0.210994	0.666698
C157	C	0.775832	-0.469839	0.000045
C158	C	1.109165	-0.136506	0.333378
C159	C	1.442498	0.196827	0.666711
C160	C	0.776543	-0.410443	0.000050
C161	C	1.109876	-0.077110	0.333384
C162	C	1.443210	0.256223	0.666717
C163	C	0.724977	-0.373662	0.000046
C164	C	1.058311	-0.040328	0.333380
C165	C	1.391644	0.293005	0.666713
C166	C	0.672701	-0.396276	0.000037
C167	C	1.006034	-0.062943	0.333370
C168	C	1.339367	0.270390	0.666703
C169	C	0.568140	-0.441501	0.000011
C170	C	0.901473	-0.108168	0.333344
C171	C	1.234807	0.225166	0.666677
C172	C	0.568857	-0.382099	0.000011
C173	C	0.902190	-0.048765	0.333344
C174	C	1.235523	0.284568	0.666677
C175	C	0.621137	-0.359485	0.000021
C176	C	0.954471	-0.026151	0.333354
C177	C	1.287804	0.307182	0.666688
C178	C	0.621847	-0.300099	0.000038
C179	C	0.955180	0.033235	0.333372
C180	C	1.288513	0.366568	0.666705
N181	N	0.674124	-0.277481	0.000043
N182	N	1.007457	0.055852	0.333376
N183	N	1.340791	0.389185	0.666709
C184	C	0.725690	-0.314263	0.000047
C185	C	1.059023	0.019071	0.333380
C186	C	1.392356	0.352404	0.666713
C187	C	0.617505	-0.662427	0.000019
C188	C	0.950839	-0.329094	0.333352
C189	C	1.284172	0.004239	0.666685
C190	C	0.616793	-0.721825	0.000023
C191	C	0.950126	-0.388492	0.333356
C192	C	1.283459	-0.055158	0.666689
C193	C	0.720640	-0.735990	0.000032
C194	C	1.053973	-0.402657	0.333365
C195	C	1.387306	-0.069323	0.666698
C196	C	0.721352	-0.676591	0.000032
C197	C	1.054685	-0.343258	0.333365
C198	C	1.388018	-0.009924	0.666699
C199	C	0.669783	-0.639810	0.000023
C200	C	1.003116	-0.306477	0.333356
C201	C	1.336449	0.026857	0.666690
C202	C	0.727179	-0.189526	0.000059
C203	C	1.060513	0.143807	0.333392
C204	C	1.393846	0.477140	0.666726
C205	C	0.727886	-0.130124	0.000067
C206	C	1.061219	0.203209	0.333400
C207	C	1.394553	0.536542	0.666734
C208	C	0.624039	-0.115965	0.000055
C209	C	0.957372	0.217369	0.333388
C210	C	1.290706	0.550702	0.666722
C211	C	0.623332	-0.175361	0.000050
C212	C	0.956665	0.157972	0.333383
C213	C	1.289999	0.491305	0.666717
C214	C	0.674907	-0.212141	0.000050
C215	C	1.008240	0.121192	0.333383
C216	C	1.341574	0.454525	0.666717
O217	O	0.578083	-0.263312	0.000054
O218	O	0.911416	0.070021	0.333387
O219	O	1.244749	0.403355	0.666720
O220	O	0.770214	-0.289562	0.000043
O221	O	1.103547	0.043771	0.333377
O222	O	1.436880	0.377104	0.666710
C223	C	0.776489	0.069258	0.000054
C224	C	1.109823	0.402592	0.333387
C225	C	1.443156	0.735925	0.666721
C226	C	0.839708	0.070014	0.000055
C227	C	1.173041	0.403347	0.333389
C228	C	1.506375	0.736680	0.666722
C229	C	0.667592	0.178171	0.000032
C230	C	1.000926	0.511505	0.333365
C231	C	1.334259	0.844838	0.666698
C232	C	0.668358	0.241388	0.000023
C233	C	1.001692	0.574721	0.333357
C234	C	1.335025	0.908055	0.666690
N235	N	0.672319	0.074042	0.153301
N236	N	1.005653	0.407376	0.486634
N237	N	1.338986	0.740709	0.819968
N238	N	0.672364	0.073998	-0.153209
N239	N	1.005697	0.407332	0.180124
N240	N	1.339031	0.740665	0.513457
C241	C	0.711289	0.035077	0.561951
C242	C	1.044622	0.368410	0.895284
C243	C	1.377956	0.701743	1.228618
C244	C	0.711292	0.035073	0.623871
C245	C	1.044625	0.368406	0.957204
C246	C	1.377959	0.701739	1.290537
O247	O	0.744401	0.001951	0.655897
O248	O	1.077734	0.335285	0.989230
O249	O	1.411068	0.668618	1.322563
N250	N	0.672349	0.074002	0.654838
N251	N	1.005683	0.407336	0.988172
N252	N	1.339016	0.740669	1.321505
C253	C	0.633397	0.112935	0.623883
C254	C	0.966730	0.446268	0.957216
C255	C	1.300064	0.779602	1.290549
O256	O	0.600273	0.146047	0.655909
O257	O	0.933606	0.479380	0.989242
O258	O	1.266940	0.812714	1.322575
C259	C	0.633392	0.112936	0.561964
C260	C	0.966725	0.446269	0.895297
C261	C	1.300059	0.779603	1.228631
C262	C	0.672341	0.074007	0.531000
C263	C	1.005674	0.407341	0.864333
C264	C	1.339008	0.740674	1.197666
C265	C	0.750235	-0.003849	0.530986
C266	C	1.083568	0.329484	0.864320
C267	C	1.416901	0.662818	1.197653
C268	C	0.750232	-0.003844	0.469071
C269	C	1.083566	0.329489	0.802404
C270	C	1.416899	0.662823	1.135738
C271	C	0.711284	0.035087	0.438120
C272	C	1.044618	0.368420	0.771453
C273	C	1.377951	0.701753	1.104786
C274	C	0.672339	0.074013	0.469084
C275	C	1.005672	0.407346	0.802417
C276	C	1.339005	0.740679	1.135751
C277	C	0.594438	0.151865	0.531009
C278	C	0.927771	0.485199	0.864343
C279	C	1.261104	0.818532	1.197676
C280	C	0.594435	0.151863	0.469086
C281	C	0.927769	0.485196	0.802420
C282	C	1.261102	0.818529	1.135753
C283	C	0.633385	0.112934	0.438122
C284	C	0.966718	0.446268	0.771455
C285	C	1.300051	0.779601	1.104789
C286	C	0.633388	0.112948	0.376217
C287	C	0.966722	0.446282	0.709550
C288	C	1.300055	0.779615	1.042884
N289	N	0.672331	0.074018	0.345250
N290	N	1.005665	0.407352	0.678583
N291	N	1.338998	0.740685	1.011916
C292	C	0.711279	0.035088	0.376201
C293	C	1.044612	0.368421	0.709534
C294	C	1.377946	0.701754	1.042867
C295	C	0.633410	0.112929	0.753916
C296	C	0.966744	0.446263	1.087250
C297	C	1.300077	0.779596	1.420583
C298	C	0.633418	0.112932	0.815834
C299	C	0.966751	0.446265	1.149167
C300	C	1.300084	0.779598	1.482501
C301	C	0.711312	0.035068	0.815818
C302	C	1.044645	0.368402	1.149151
C303	C	1.377979	0.701735	1.482484
C304	C	0.711307	0.035069	0.753899
C305	C	1.044640	0.368403	1.087232
C306	C	1.377974	0.701736	1.420566
C307	C	0.672353	0.074000	0.722949
C308	C	1.005686	0.407333	1.056282
C309	C	1.339020	0.740666	1.389615
C310	C	0.711272	0.035102	0.246173
C311	C	1.044605	0.368435	0.579507
C312	C	1.377938	0.701768	0.912840
C313	C	0.711267	0.035112	0.184252
C314	C	1.044601	0.368445	0.517586
C315	C	1.377934	0.701778	0.850919
C316	C	0.633371	0.112973	0.184274
C317	C	0.966705	0.446306	0.517607
C318	C	1.300038	0.779639	0.850941
C319	C	0.633377	0.112965	0.246190
C320	C	0.966711	0.446298	0.579523
C321	C	1.300044	0.779631	0.912856
C322	C	0.672330	0.074024	0.277138
C323	C	1.005663	0.407358	0.610471
C324	C	1.338996	0.740691	0.943805
O325	O	0.600295	0.146051	0.344152
O326	O	0.933628	0.479384	0.677485
O327	O	1.266961	0.812718	1.010819
O328	O	0.744393	0.001976	0.344167
O329	O	1.077726	0.335310	0.677501
O330	O	1.411059	0.668643	1.010834
H331	H	-0.154766	0.070071	-0.097237
H332	H	0.178567	0.403405	0.236097
H333	H	0.511900	0.736738	0.569430
H334	H	0.226194	0.074669	0.150954
H335	H	0.559527	0.408003	0.484287
H336	H	0.892861	0.741336	0.817621
H337	H	0.526862	-0.352154	0.000002
H338	H	0.860195	-0.018820	0.333336
H339	H	1.193528	0.314513	0.666669
H340	H	0.742989	0.003392	0.271365
H341	H	1.076323	0.336725	0.604698
H342	H	1.409656	0.670059	0.938031
H343	H	0.817825	-0.499782	0.000046
H344	H	1.151158	-0.166448	0.333379
H345	H	1.484492	0.166885	0.666712
H346	H	0.562713	0.183564	0.443890
H347	H	0.896046	0.516897	0.777223
H348	H	1.229379	0.850231	1.110556
H349	H	0.562721	0.183564	0.556212
H350	H	0.896055	0.516897	0.889545
H351	H	1.229388	0.850231	1.222879
Br352	Br	-0.030893	0.071594	0.126451
Br353	Br	0.302440	0.404927	0.459784
Br354	Br	0.635774	0.738260	0.793118
H355	H	0.391696	0.076653	-0.097259
H356	H	0.725030	0.409986	0.236074
H357	H	1.058363	0.743320	0.569408
Br358	Br	0.580524	0.165805	0.288211
Br359	Br	0.913857	0.499139	0.621544
Br360	Br	1.247190	0.832472	0.954878
H361	H	0.743022	0.003370	0.728691
H362	H	1.076356	0.336703	1.062025
H363	H	1.409689	0.670037	1.395358
Br364	Br	0.764170	-0.017766	0.857836
Br365	Br	1.097503	0.315567	1.191170
Br366	Br	1.430837	0.648900	1.524503
H367	H	0.601662	0.144671	0.159064
H368	H	0.934995	0.478005	0.492397
H369	H	1.268328	0.811338	0.825730
Br370	Br	0.792306	-0.645907	0.000047
Br371	Br	1.125640	-0.312574	0.333380
Br372	Br	1.458973	0.020759	0.666714
H373	H	0.601708	0.144637	0.841041
H374	H	0.935041	0.477970	1.174374
H375	H	1.268374	0.811303	1.507708
Br376	Br	-0.030894	0.071547	-0.126360
Br377	Br	0.302440	0.404880	0.206973
Br378	Br	0.635773	0.738213	0.540307
H379	H	0.525567	-0.459902	-0.000001
H380	H	0.858901	-0.126569	0.333332
H381	H	1.192234	0.206764	0.666665
H382	H	0.781946	-0.035544	0.443863
H383	H	1.115280	0.297789	0.777197
H384	H	1.448613	0.631122	1.110530
Br385	Br	0.790622	-0.785919	0.000035
Br386	Br	1.123955	-0.452586	0.333368
Br387	Br	1.457289	-0.119253	0.666701
Br388	Br	0.552379	-0.206053	0.000050
Br389	Br	0.885712	0.127280	0.333383
Br390	Br	1.219046	0.460614	0.666716
Br391	Br	0.580543	0.165772	0.711918
Br392	Br	0.913876	0.499105	1.045252
Br393	Br	1.247210	0.832439	1.378585
Br394	Br	0.545837	-0.752508	0.000023
Br395	Br	0.879170	-0.419174	0.333356
Br396	Br	1.212504	-0.085841	0.666689
Br397	Br	0.797174	-0.239433	0.000058
Br398	Br	1.130507	0.093901	0.333392
Br399	Br	1.463841	0.427234	0.666725
H400	H	0.819115	-0.392037	0.000056
H401	H	1.152449	-0.058704	0.333390
H402	H	1.485782	0.274630	0.666723
Br403	Br	0.554061	-0.066036	0.000050
Br404	Br	0.887394	0.267297	0.333383
Br405	Br	1.220728	0.600631	0.666716
Br406	Br	0.102354	0.073148	-0.179985
Br407	Br	0.435688	0.406482	0.153349
Br408	Br	0.769021	0.739815	0.486682
H409	H	0.226217	0.074642	-0.150874
H410	H	0.559550	0.407975	0.182459
H411	H	0.892884	0.741309	0.515793
H412	H	0.575509	-0.632483	0.000016
H413	H	0.908842	-0.299149	0.333350
H414	H	1.242175	0.034184	0.666683
H415	H	0.770461	-0.111716	0.000077
H416	H	1.103794	0.221618	0.333410
H417	H	1.437128	0.554951	0.666744
H418	H	0.499461	0.077952	-0.097256
H419	H	0.832795	0.411286	0.236077
H420	H	1.166128	0.744619	0.569411
H421	H	0.781951	-0.035554	0.556182
H422	H	1.115284	0.297780	0.889515
H423	H	1.448617	0.631113	1.222848
Br424	Br	0.764132	-0.017721	0.142232
Br425	Br	1.097466	0.315612	0.475566
Br426	Br	1.430799	0.648946	0.808899
Br427	Br	0.375567	0.076485	0.126439
Br428	Br	0.708900	0.409818	0.459773
Br429	Br	1.042233	0.743152	0.793106
H430	H	0.499436	0.077988	0.097321
H431	H	0.832769	0.411321	0.430654
H432	H	1.166102	0.744655	0.763987
H433	H	-0.154783	0.070095	0.097338
H434	H	0.178551	0.403428	0.430672
H435	H	0.511884	0.736761	0.764005
Br436	Br	0.102322	0.073168	0.180065
Br437	Br	0.435656	0.406502	0.513399
Br438	Br	0.768989	0.739835	0.846732
