data_functionalizedCrystal
_audit_creation_method	'MofGen! by Chris Wilmer'
_symmetry_space_group_name_H-M	'P1'
_symmetry_Int_Tables_number	1
_symmetry_cell_setting	triclinic
loop_
_symmetry_equiv_pos_as_xyz
  x,y,z
_cell_length_a	27.731994
_cell_length_b	27.731996
_cell_length_c	13.101039
_cell_angle_alpha	93.327690
_cell_angle_beta	86.677219
_cell_angle_gamma	82.620961
loop_
_atom_site_label
_atom_site_type_symbol
_atom_site_fract_x
_atom_site_fract_y
_atom_site_fract_z
O1	O	0.643609	0.054710	-0.085080
O2	O	0.502811	0.063482	-0.085116
O3	O	0.577596	-0.011303	-0.085075
O4	O	0.568825	0.129494	-0.085122
O5	O	0.572230	-0.005929	0.085352
O6	O	0.497446	0.068856	0.085311
O7	O	0.638243	0.060084	0.085347
Zn8	Zn	0.566993	0.065323	0.112387
Zn9	Zn	0.574062	0.058242	-0.112157
O10	O	0.563459	0.134869	0.085305
C11	C	0.482121	0.065989	0.000093
C12	C	0.428465	0.065446	0.000080
C13	C	0.092822	0.064961	0.093020
C14	C	-0.108837	0.062900	0.093033
O15	O	-0.137397	0.065104	0.172040
N16	N	-0.131127	0.059714	0.000133
C17	C	-0.102998	0.057040	-0.092776
O18	O	-0.126584	0.054278	-0.171792
C19	C	0.098659	0.059098	-0.092787
C20	C	0.120946	0.062289	0.000118
C21	C	0.115108	0.068151	0.185919
C22	C	0.165519	0.068669	0.185915
C23	C	0.193644	0.065997	0.093012
C24	C	0.171357	0.062807	0.000114
C25	C	0.126787	0.056421	-0.185695
C26	C	0.177205	0.056934	-0.185690
C27	C	0.199491	0.060125	-0.092784
C28	C	0.249893	0.060653	-0.092792
N29	N	0.272183	0.063838	0.000108
C30	C	0.244058	0.066510	0.093010
C31	C	-0.208872	0.055961	-0.092763
C32	C	-0.259286	0.055447	-0.092761
C33	C	-0.265121	0.061306	0.093048
C34	C	-0.214706	0.061823	0.093045
C35	C	-0.186582	0.059147	0.000136
C36	C	0.349925	0.067598	0.092994
C37	C	0.400341	0.068118	0.092982
C38	C	0.406172	0.062257	-0.092826
C39	C	0.355760	0.061740	-0.092815
C40	C	0.327638	0.064409	0.000104
O41	O	0.278483	0.058445	-0.171758
O42	O	0.267654	0.069261	0.172015
C43	C	0.042410	0.064443	0.093025
C44	C	0.020124	0.061253	0.000126
C45	C	0.048248	0.058581	-0.092776
C46	C	-0.030291	0.060739	0.000129
C47	C	-0.058415	0.063411	0.093031
C48	C	-0.036125	0.066597	0.185931
C49	C	0.014286	0.067115	0.185927
C50	C	0.025958	0.055395	-0.185675
C51	C	-0.024454	0.054878	-0.185664
C52	C	-0.052578	0.057550	-0.092761
C53	C	0.574732	-0.026623	0.000142
C54	C	0.574189	-0.080279	0.000152
C55	C	0.573701	-0.415926	-0.092798
C56	C	0.571640	-0.617584	-0.092817
O57	O	0.573841	-0.646146	-0.171825
N58	N	0.568460	-0.639872	0.000082
C59	C	0.565791	-0.611741	0.092992
O60	O	0.563033	-0.635324	0.172007
C61	C	0.567848	-0.410083	0.093009
C62	C	0.571033	-0.387799	0.000104
C63	C	0.576886	-0.393641	-0.185696
C64	C	0.577404	-0.343230	-0.185690
C65	C	0.574736	-0.315103	-0.092787
C66	C	0.571551	-0.337388	0.000110
C67	C	0.565175	-0.381952	0.185918
C68	C	0.565688	-0.331535	0.185914
C69	C	0.568874	-0.309251	0.093009
C70	C	0.569401	-0.258850	0.093018
N71	N	0.572582	-0.236562	0.000120
C72	C	0.575250	-0.264689	-0.092783
C73	C	0.564712	-0.717614	0.092976
C74	C	0.564198	-0.768029	0.092972
C75	C	0.570047	-0.773869	-0.092837
C76	C	0.570564	-0.723454	-0.092832
C77	C	0.567893	-0.695327	0.000077
C78	C	0.576337	-0.158822	-0.092765
C79	C	0.576857	-0.108406	-0.092751
C80	C	0.571005	-0.102570	0.093058
C81	C	0.570488	-0.152982	0.093045
C82	C	0.573153	-0.181106	0.000125
O83	O	0.567197	-0.230257	0.171985
O84	O	0.577996	-0.241095	-0.171787
C85	C	0.573183	-0.466337	-0.092804
C86	C	0.569998	-0.488621	0.000093
C87	C	0.567331	-0.460495	0.092996
C88	C	0.569485	-0.539036	0.000089
C89	C	0.572152	-0.567163	-0.092814
C90	C	0.575333	-0.544875	-0.185712
C91	C	0.575851	-0.494464	-0.185707
C92	C	0.564150	-0.482782	0.185895
C93	C	0.563633	-0.533194	0.185882
C94	C	0.566300	-0.561320	0.092979
C95	C	0.658934	0.057577	0.000135
C96	C	0.712590	0.058119	0.000141
C97	C	0.566322	0.150189	0.000086
C98	C	0.566866	0.203844	0.000069
N99	N	0.562171	0.070156	0.265633
N100	N	0.578887	0.053406	-0.265403
C101	C	0.555612	0.076735	0.474672
C102	C	0.585445	0.046828	0.525564
C103	C	0.581795	0.050489	0.641881
C104	C	0.559261	0.073075	0.358345
H105	H	0.327034	0.069776	0.168658
C106	C	-0.295652	0.064304	0.193945
C107	C	-0.290927	0.107802	0.249989
C108	C	-0.319052	0.110579	0.342927
H109	H	-0.284716	0.037426	0.232242
H110	H	-0.328877	0.063567	0.180672
H111	H	-0.257709	0.108534	0.263265
H112	H	-0.301866	0.134688	0.211723
H113	H	-0.352277	0.109842	0.329653
H114	H	-0.308114	0.083699	0.381214
H115	H	-0.315854	0.140094	0.380959
H116	H	0.578445	-0.476325	-0.261360
H117	H	0.577507	-0.567785	-0.261357
C118	C	0.517930	0.114614	0.532914
C119	C	0.526285	0.161231	0.506874
C120	C	0.491579	0.196137	0.560507
H121	H	0.520423	0.112150	0.604481
H122	H	0.486225	0.109138	0.515374
H123	H	0.557982	0.166705	0.524421
H124	H	0.523788	0.163711	0.435316
H125	H	0.459874	0.190661	0.542967
H126	H	0.494075	0.193668	0.632072
H127	H	0.497241	0.227770	0.542840
C128	C	0.623100	0.008902	0.467369
C129	C	0.614676	-0.037681	0.493517
C130	C	0.649347	-0.072650	0.439970
H131	H	0.654815	0.014331	0.484886
H132	H	0.620612	0.011345	0.395782
H133	H	0.617168	-0.040123	0.565088
H134	H	0.582968	-0.043126	0.475997
H135	H	0.646859	-0.070206	0.368383
H136	H	0.681060	-0.067216	0.457492
H137	H	0.643633	-0.104260	0.457697
H138	H	0.183661	0.071264	0.261568
C139	C	0.056527	0.052399	-0.286515
C140	C	0.091397	0.010916	-0.291961
C141	C	0.119559	0.008140	-0.384852
H142	H	0.072454	0.080644	-0.290488
H143	H	0.036048	0.050401	-0.341866
H144	H	0.111873	0.012918	-0.236626
H145	H	0.075483	-0.017336	-0.288007
H146	H	0.099080	0.006142	-0.440203
H147	H	0.135483	0.036387	-0.388816
H148	H	0.143218	-0.020008	-0.388563
H149	H	0.418484	0.070718	0.168640
C150	C	0.568005	-0.071983	0.193883
C151	C	0.526518	-0.037120	0.199280
C152	C	0.523730	-0.008935	0.292148
H153	H	0.596247	-0.056050	0.197854
H154	H	0.566005	-0.092448	0.249254
H155	H	0.528522	-0.016657	0.143925
H156	H	0.498270	-0.053039	0.195326
H157	H	0.521730	-0.029400	0.347519
H158	H	0.551974	0.006995	0.296111
H159	H	0.495579	0.014720	0.295826
C160	C	-0.190499	0.065381	0.193883
C161	C	-0.167494	0.107456	0.199316
C162	C	-0.145198	0.110752	0.292203
H163	H	-0.167020	0.037540	0.197858
H164	H	-0.214463	0.066927	0.249237
H165	H	-0.143533	0.105907	0.143978
H166	H	-0.190963	0.135306	0.195360
H167	H	-0.169162	0.112298	0.347557
H168	H	-0.121721	0.082909	0.296170
H169	H	-0.129591	0.139302	0.295906
C170	C	0.436763	0.059433	-0.193610
C171	C	0.460127	0.101155	-0.199041
C172	C	0.488320	0.098564	-0.291861
H173	H	0.416329	0.057482	-0.249033
H174	H	0.460482	0.031327	-0.197458
H175	H	0.436412	0.129253	-0.195203
H176	H	0.480570	0.103115	-0.143640
H177	H	0.512038	0.070458	-0.295708
H178	H	0.467882	0.096611	-0.347276
H179	H	0.504179	0.126869	-0.295554
H180	H	0.200101	0.054755	-0.261349
H181	H	-0.059033	0.068775	0.261575
C182	C	0.580211	-0.084147	-0.193564
C183	C	0.539069	-0.049617	-0.198965
C184	C	0.542133	-0.027262	-0.291816
H185	H	0.581693	-0.108074	-0.248959
H186	H	0.608714	-0.068471	-0.197481
H187	H	0.510573	-0.065293	-0.195058
H188	H	0.537578	-0.025681	-0.143591
H189	H	0.570636	-0.011586	-0.295733
H190	H	0.543616	-0.051193	-0.347204
H191	H	0.514221	-0.003828	-0.295488
C192	C	0.084658	0.071084	0.286901
C193	C	0.114975	0.073999	0.368243
C194	C	0.086944	0.076713	0.461289
H195	H	0.068765	0.042820	0.290936
H196	H	0.060975	0.099220	0.290813
H197	H	0.138649	0.045866	0.364333
H198	H	0.130869	0.102262	0.364242
H199	H	0.063262	0.104849	0.465201
H200	H	0.071052	0.048448	0.465314
H201	H	0.107509	0.078696	0.516491
C202	C	-0.048553	0.051387	-0.286648
C203	C	-0.013124	0.049144	-0.368001
C204	C	-0.035303	0.045916	-0.461039
H205	H	-0.072001	0.079248	-0.290677
H206	H	-0.064176	0.022849	-0.290553
H207	H	0.002491	0.077679	-0.364098
H208	H	0.010326	0.021283	-0.364007
H209	H	-0.050926	0.017378	-0.464944
H210	H	-0.058751	0.073778	-0.465057
H211	H	-0.011268	0.044389	-0.516248
H212	H	-0.277428	0.052857	-0.168414
H213	H	-0.185977	0.053781	-0.168425
H214	H	0.108651	0.053822	-0.261349
C215	C	0.560147	-0.557290	0.286866
C216	C	0.557908	-0.521859	0.368220
C217	C	0.554685	-0.544035	0.461257
H218	H	0.588008	-0.580738	0.290892
H219	H	0.531609	-0.572913	0.290772
H220	H	0.586443	-0.506244	0.364315
H221	H	0.530047	-0.498409	0.364227
H222	H	0.526147	-0.559658	0.465163
H223	H	0.582547	-0.567483	0.465272
H224	H	0.553161	-0.519999	0.516466
H225	H	0.337613	0.059149	-0.168466
H226	H	0.032427	0.069713	0.261580
H227	H	0.579996	-0.325091	-0.261343
C228	C	0.579250	-0.189270	-0.193754
C229	C	0.582158	-0.158957	-0.275098
C230	C	0.584846	-0.186989	-0.368143
H231	H	0.550979	-0.205155	-0.197767
H232	H	0.607380	-0.212960	-0.197686
H233	H	0.554030	-0.135275	-0.271168
H234	H	0.610427	-0.143071	-0.271119
H235	H	0.612976	-0.210679	-0.372075
H236	H	0.556574	-0.202873	-0.372146
H237	H	0.586823	-0.166426	-0.423346
H238	H	0.579057	-0.416537	-0.261353
C239	C	0.573997	-0.699349	-0.193807
C240	C	0.576212	-0.734776	-0.275161
C241	C	0.579367	-0.712591	-0.368199
H242	H	0.602514	-0.683708	-0.197811
H243	H	0.546108	-0.675912	-0.197736
H244	H	0.604098	-0.758204	-0.271235
H245	H	0.547697	-0.750419	-0.271192
H246	H	0.551478	-0.689154	-0.372127
H247	H	0.607885	-0.696950	-0.372192
H248	H	0.580866	-0.736624	-0.423408
C249	C	0.566967	-0.177238	0.193830
C250	C	0.524902	-0.200258	0.199241
C251	C	0.521644	-0.222611	0.292063
H252	H	0.565428	-0.153317	0.249252
H253	H	0.594829	-0.200715	0.197694
H254	H	0.497047	-0.176784	0.195388
H255	H	0.526431	-0.224186	0.143842
H256	H	0.549506	-0.246088	0.295926
H257	H	0.520107	-0.198688	0.347477
H258	H	0.493106	-0.238237	0.295742
C259	C	0.560718	-0.792127	0.193948
C260	C	0.558478	-0.756696	0.275302
C261	C	0.555262	-0.778873	0.368339
H262	H	0.588583	-0.815572	0.197969
H263	H	0.532183	-0.807753	0.197860
H264	H	0.587011	-0.741077	0.271393
H265	H	0.530615	-0.733248	0.271315
H266	H	0.526727	-0.794499	0.372251
H267	H	0.583128	-0.802318	0.372350
H268	H	0.553738	-0.754836	0.423549
H269	H	0.572220	-0.796778	-0.168482
C270	C	0.561717	-0.687044	0.193828
C271	C	0.520231	-0.652179	0.199282
C272	C	0.517456	-0.624017	0.292178
H273	H	0.589961	-0.671114	0.197803
H274	H	0.559724	-0.707525	0.249174
H275	H	0.522228	-0.631701	0.143951
H276	H	0.491981	-0.668095	0.195324
H277	H	0.515463	-0.644497	0.347524
H278	H	0.545702	-0.608090	0.296145
H279	H	0.489306	-0.600360	0.295894
H280	H	0.562581	-0.400087	0.261571
H281	H	0.563505	-0.308635	0.261574
C282	C	0.561159	-0.452212	0.286739
C283	C	0.519675	-0.417342	0.292192
C284	C	0.516904	-0.389180	0.385087
H285	H	0.589404	-0.436285	0.290712
H286	H	0.559164	-0.472691	0.342085
H287	H	0.521674	-0.396866	0.236860
H288	H	0.491423	-0.433256	0.288236
H289	H	0.514909	-0.409660	0.440434
H290	H	0.545151	-0.373256	0.389053
H291	H	0.488756	-0.365521	0.388804
