data_functionalizedCrystal
_audit_creation_method	'MofGen! by Chris Wilmer'
_symmetry_space_group_name_H-M	'P1'
_symmetry_Int_Tables_number	1
_symmetry_cell_setting	triclinic
loop_
_symmetry_equiv_pos_as_xyz
  x,y,z
_cell_length_a	14.628931
_cell_length_b	14.628931
_cell_length_c	21.606444
_cell_angle_alpha	90.002058
_cell_angle_beta	59.999834
_cell_angle_gamma	60.000164
loop_
_atom_site_label
_atom_site_type_symbol
_atom_site_fract_x
_atom_site_fract_y
_atom_site_fract_z
Zr1	Zr	1.000538	-0.119908	0.596248
O2	O	1.191249	-0.265877	0.497422
O3	O	0.809831	-0.075161	0.626544
O4	O	1.000536	-0.265866	0.626544
O5	O	1.000545	0.075260	0.497421
O6	O	1.000529	-0.265857	0.728398
O7	O	1.000545	-0.075172	0.497421
O8	O	0.659394	0.075279	0.728397
O9	O	1.341681	-0.265876	0.497422
O10	O	0.888265	-0.056070	0.715477
O11	O	0.888271	0.056189	0.639464
O12	O	1.112801	-0.168342	0.639465
O13	O	1.112806	-0.056083	0.563452
Zr14	Zr	1.000529	0.120027	0.758694
Zr15	Zr	1.000528	-0.119894	0.758694
Zr16	Zr	1.000539	0.120013	0.596248
Zr17	Zr	1.240459	-0.119907	0.596249
Zr18	Zr	0.760608	0.120026	0.758693
O19	O	1.191236	0.075280	0.728398
O20	O	1.191235	-0.265857	0.728399
O21	O	1.191250	0.075260	0.497422
O22	O	0.809818	0.265996	0.857520
O23	O	0.809817	-0.075141	0.857520
O24	O	0.809832	0.265976	0.626543
O25	O	1.000522	-0.075141	0.857521
O26	O	1.000531	0.265985	0.728398
O27	O	1.000537	0.265976	0.626544
O28	O	1.000522	0.075291	0.857520
O29	O	1.341673	-0.265865	0.626545
O30	O	0.659394	0.265984	0.728397
O31	O	0.659386	0.265995	0.857520
O32	O	0.659385	0.075290	0.857520
O33	O	1.341681	-0.075171	0.497422
O34	O	1.341673	-0.075160	0.626544
O35	O	0.888266	0.168461	0.715477
O36	O	0.888261	0.056202	0.791490
O37	O	1.112796	-0.056070	0.715477
O38	O	1.112801	0.056189	0.639465
C39	C	0.700429	0.000059	0.677471
C40	C	0.598576	0.000059	0.677470
C41	C	0.526662	-0.078703	0.624145
C42	C	0.631934	-0.078705	0.624144
C43	C	1.000533	-0.300045	0.677471
C44	C	1.000532	-0.401898	0.677471
C45	C	1.111917	-0.503002	0.639764
C46	C	1.111919	-0.608273	0.639763
C47	C	1.300638	0.000060	0.677471
C48	C	1.402491	0.000060	0.677471
C49	C	1.000546	0.000042	0.474276
C50	C	1.000551	0.000036	0.405314
C51	C	1.000534	0.300164	0.677471
C52	C	1.000535	0.402017	0.677471
C53	C	0.883312	0.058687	0.021704
C54	C	0.883315	0.058677	0.086499
C55	C	1.000525	0.000068	0.079216
C56	C	1.117738	-0.058544	0.007132
C57	C	1.117733	-0.058540	-0.057661
C58	C	1.117760	-0.058565	0.268435
C59	C	1.117756	-0.058562	0.333236
C60	C	0.883343	0.058652	0.412595
C61	C	0.883338	0.058656	0.347802
C62	C	1.000550	0.000040	0.275724
C63	C	1.000545	0.000050	0.205467
C64	C	1.000531	0.000063	0.149472
C65	C	1.000521	0.000077	0.880666
C66	C	1.000516	0.000083	0.949628
C67	C	0.700416	0.000076	0.880665
C68	C	0.598559	0.000082	0.949627
C69	C	0.700430	0.300164	0.677470
C70	C	0.598577	0.402016	0.677470
C71	C	0.700417	0.300181	0.880665
C72	C	0.598560	0.402039	0.949627
C73	C	1.300650	-0.300062	0.474277
C74	C	1.402507	-0.401920	0.405315
C75	C	1.300651	0.000043	0.474277
C76	C	1.402508	0.000037	0.405314
C77	C	1.300637	-0.300045	0.677472
C78	C	1.402490	-0.401897	0.677472
C79	C	0.550728	-0.058530	0.942335
C80	C	0.455036	-0.058548	1.007126
C81	C	0.407169	0.000055	1.079209
C82	C	0.455010	0.058669	1.086500
C83	C	0.550707	0.058679	1.021709
C84	C	0.550724	0.391275	1.021697
C85	C	0.455032	0.486973	1.086500
C86	C	0.407171	0.593434	1.079232
C87	C	0.455016	0.604196	1.007155
C88	C	0.550713	0.508499	0.942353
C89	C	1.450354	-0.391156	0.333245
C90	C	1.546076	-0.486854	0.268441
C91	C	1.593942	-0.593315	0.275710
C92	C	1.546091	-0.604077	0.347787
C93	C	1.450377	-0.508380	0.412589
C94	C	1.450349	0.058639	0.412607
C95	C	1.546068	0.058630	0.347816
C96	C	1.593937	0.000024	0.275733
C97	C	1.546093	-0.058585	0.268442
C98	C	1.450382	-0.058582	0.333232
C99	C	0.553166	0.503120	0.715177
C100	C	0.447896	0.608391	0.715178
H101	H	1.207275	-0.511624	0.607486
C102	C	1.246695	-0.123045	0.325224
C103	C	1.375625	-0.187526	0.245942
C104	C	1.504555	-0.252002	0.237933
C105	C	1.504555	-0.251998	0.309205
C106	C	1.375619	-0.187515	0.388492
C107	C	1.246689	-0.123038	0.396501
H108	H	1.375630	-0.187531	0.193177
H109	H	1.600002	-0.299737	0.179239
H110	H	1.599996	-0.299728	0.303276
H111	H	1.375614	-0.187510	0.441257
H112	H	1.151243	-0.075303	0.455195
C113	C	0.871695	-0.480820	0.721087
C114	C	0.774978	-0.445534	0.700375
C115	C	0.646138	-0.328364	0.743991
C116	C	0.614016	-0.246479	0.808319
C117	C	0.710735	-0.281763	0.829034
C118	C	0.839575	-0.398933	0.785418
H119	H	0.798755	-0.506152	0.652753
H120	H	0.574541	-0.302245	0.728657
H121	H	0.518641	-0.159742	0.840606
H122	H	0.686958	-0.221145	0.876656
H123	H	0.911172	-0.425052	0.800752
C124	C	1.246671	-0.123012	-0.000882
C125	C	1.246684	-0.123013	0.070385
C126	C	1.375621	-0.187477	0.062368
C127	C	1.504545	-0.251942	-0.016917
C128	C	1.504537	-0.251944	-0.088190
C129	C	1.375600	-0.187479	-0.080173
H130	H	1.151243	-0.075290	0.129082
H131	H	1.375627	-0.187475	0.115129
H132	H	1.599992	-0.299662	-0.022852
H133	H	1.599978	-0.299667	-0.146886
H134	H	1.375595	-0.187481	-0.132934
H135	H	0.416034	0.690889	1.001248
H136	H	1.411421	-0.517158	0.471270
H137	H	0.905174	-0.393275	0.709755
H138	H	1.213173	-0.106264	-0.116349
C139	C	0.754403	0.123123	0.491884
C140	C	0.754393	0.123120	0.563159
C141	C	0.625458	0.187593	0.642445
C142	C	0.496533	0.252068	0.650455
C143	C	0.496538	0.252073	0.579178
C144	C	0.625473	0.187600	0.499892
H145	H	0.849836	0.075389	0.557232
H146	H	0.625455	0.187589	0.695209
H147	H	0.401087	0.299795	0.709147
H148	H	0.401095	0.299804	0.585105
H149	H	0.625476	0.187604	0.447128
C150	C	0.545825	0.390352	0.633856
C151	C	0.401053	0.440119	0.676438
C152	C	0.348304	0.428450	0.632822
C153	C	0.440327	0.367015	0.546625
C154	C	0.585107	0.317244	0.504038
C155	C	0.637857	0.328913	0.547654
H156	H	0.332925	0.485601	0.740250
H157	H	0.241127	0.465294	0.664348
H158	H	0.401278	0.358377	0.514338
H159	H	0.653236	0.271762	0.440226
H160	H	0.745033	0.292069	0.516128
C161	C	1.598687	-0.474997	0.189163
C162	C	1.664437	-0.413458	0.165351
C163	C	1.717042	-0.401598	0.086076
C164	C	1.703897	-0.451277	0.030612
C165	C	1.638144	-0.512821	0.054422
C166	C	1.585539	-0.524681	0.133698
H167	H	1.674170	-0.376678	0.206410
H168	H	1.765716	-0.356039	0.068450
H169	H	1.742838	-0.442498	-0.028072
H170	H	1.628411	-0.549601	0.013364
H171	H	1.536865	-0.570240	0.151324
H172	H	1.671878	-0.671228	0.222938
C173	C	0.402333	0.123144	1.165794
C174	C	0.297054	0.123139	1.237055
C175	C	0.244363	0.187625	1.316351
C176	C	0.296952	0.252115	1.324387
C177	C	0.402237	0.252122	1.253124
C178	C	0.454927	0.187636	1.173828
H179	H	0.258119	0.075397	1.231108
H180	H	0.166424	0.187619	1.369104
H181	H	0.257947	0.299851	1.383087
H182	H	0.441171	0.299863	1.259071
H183	H	0.532867	0.187642	1.121075
H184	H	0.555034	-0.146131	0.578489
H185	H	1.207279	-0.695006	0.607477
H186	H	0.589700	-0.106265	0.883647
H187	H	0.374119	0.067496	0.723122
H188	H	0.589679	0.304598	1.027629
H189	H	0.589638	0.106414	1.027658
H190	H	1.411381	0.106371	0.471294
H191	H	0.408842	0.695124	0.747461
H192	H	0.329249	0.671347	1.132004
H193	H	1.585007	0.106361	0.353767
H194	H	0.589649	0.517279	0.883673
H195	H	0.738417	-0.146141	0.578492
H196	H	1.585076	-0.690768	0.353696
H197	H	1.411387	-0.304479	0.327312
C198	C	1.598747	-0.123033	0.189146
C199	C	1.743494	-0.218090	0.133682
C200	C	1.796142	-0.282527	0.054384
C201	C	1.704044	-0.251908	0.030550
C202	C	1.559288	-0.156847	0.086016
C203	C	1.506639	-0.092410	0.165314
H204	H	1.811679	-0.240760	0.151324
H205	H	1.903301	-0.352898	0.013325
H206	H	1.743017	-0.299609	-0.028151
H207	H	1.491103	-0.134177	0.068374
H208	H	1.399480	-0.022039	0.206373
C209	C	0.402410	0.475115	1.165779
C210	C	0.336616	0.413613	1.189591
C211	C	0.283997	0.401751	1.268867
C212	C	0.297172	0.451392	1.324329
C213	C	0.362969	0.512899	1.300517
C214	C	0.415587	0.524761	1.221242
H215	H	0.326861	0.376861	1.148534
H216	H	0.235290	0.356219	1.286493
H217	H	0.258221	0.442612	1.383013
H218	H	0.372724	0.549650	1.341574
H219	H	0.464294	0.570293	1.203615
H220	H	1.671871	0.000031	0.222983
H221	H	0.492096	0.067493	0.723128
H222	H	1.411433	-0.106299	0.327284
H223	H	0.592227	0.511743	0.747456
H224	H	0.441535	0.511371	0.645190
H225	H	0.787866	0.106419	0.027643
H226	H	0.787876	0.106382	0.145185
H227	H	0.787894	0.106386	0.353739
H228	H	1.213202	-0.106291	0.209755
H229	H	0.416096	-0.106278	1.001175
H230	H	0.329245	0.000039	1.131959
