data_functionalizedCrystal
_audit_creation_method	'MofGen! by Chris Wilmer'
_symmetry_space_group_name_H-M	'P1'
_symmetry_Int_Tables_number	1
_symmetry_cell_setting	triclinic
loop_
_symmetry_equiv_pos_as_xyz
  x,y,z
_cell_length_a	13.032831
_cell_length_b	19.121063
_cell_length_c	13.032268
_cell_angle_alpha	80.752502
_cell_angle_beta	89.113023
_cell_angle_gamma	85.565596
loop_
_atom_site_label
_atom_site_type_symbol
_atom_site_fract_x
_atom_site_fract_y
_atom_site_fract_z
Zn1	Zn	1.465022	-0.473659	0.806576
Zn2	Zn	1.479383	-0.578156	0.640274
Zn3	Zn	1.316950	-0.444360	0.611224
Zn4	Zn	1.285899	-0.574364	0.790193
O5	O	1.386814	-0.517635	0.712067
O6	O	1.609870	-0.501370	0.803529
O7	O	1.476841	-0.549733	0.491924
O8	O	1.343577	-0.350107	0.631836
O9	O	1.620421	-0.578143	0.681348
O10	O	1.452365	-0.371633	0.775360
O11	O	1.357502	-0.451434	0.470581
O12	O	1.169889	-0.447756	0.615951
O13	O	1.290655	-0.571680	0.936863
O14	O	1.147076	-0.543270	0.747439
O15	O	1.422256	-0.497693	0.948899
O16	O	1.446733	-0.675793	0.665463
O17	O	1.304581	-0.673007	0.775608
C18	C	1.121419	-0.491923	0.676766
C19	C	1.007877	-0.480942	0.661690
C20	C	0.946005	-0.523366	0.719935
C21	C	0.828653	-0.512018	0.704355
C22	C	1.373870	-0.699851	0.721936
C23	C	1.368422	-0.777815	0.726206
C24	C	1.439917	-0.815879	0.670926
C25	C	1.434798	-0.889136	0.674948
C26	C	1.358179	-0.924327	0.734244
C27	C	1.286681	-0.886258	0.789530
C28	C	1.291805	-0.813003	0.785514
C29	C	1.339006	-1.145437	0.749244
C30	C	1.333886	-1.218697	0.753254
C31	C	1.482005	-1.221570	0.638672
C32	C	1.487118	-1.148313	0.634656
C33	C	1.415624	-1.110251	0.689946
C34	C	1.352943	-0.999207	0.738354
C35	C	1.420865	-1.035374	0.685842
C36	C	1.653245	-0.543448	0.747506
C37	C	1.766782	-0.554448	0.762608
C38	C	1.351390	-0.537532	0.981395
C39	C	1.336295	-0.546011	1.096167
C40	C	1.399833	-0.334712	0.702185
C41	C	1.405381	-0.256761	0.697974
C42	C	1.422162	-0.497771	0.443791
C43	C	1.437469	-0.489113	0.329036
C44	C	1.394678	-0.513183	1.153291
C45	C	1.379078	-0.521945	1.271914
H46	H	1.502304	-0.787232	0.622636
H47	H	1.549508	-1.119663	0.586372
H48	H	1.499002	-0.454514	1.290127
H49	H	0.979912	-0.568086	0.781340
H50	H	1.493016	-0.920125	0.629933
O51	O	1.551369	-1.258495	0.584814
C52	C	1.622678	-1.272754	0.417069
C53	C	1.544055	-1.230888	0.477929
H54	H	1.616806	-1.250440	0.330645
H55	H	1.605863	-1.331157	0.430038
H56	H	1.703630	-1.267629	0.445490
H57	H	1.463073	-1.235955	0.449547
H58	H	1.560959	-1.172503	0.464960
H59	H	0.800683	-0.599170	0.824020
H60	H	1.271503	-1.247349	0.801559
H61	H	0.973970	-0.436217	0.600292
H62	H	1.456208	-0.478588	1.114376
H63	H	1.280791	-1.114453	0.794261
O64	O	1.305585	-0.563219	1.318152
C65	C	1.171160	-0.638857	1.294586
C66	C	1.254333	-0.592124	1.242085
H67	H	1.129714	-0.662251	1.233113
H68	H	1.113379	-0.605212	1.336203
H69	H	1.208871	-0.683747	1.353333
H70	H	1.216713	-0.547228	1.183293
H71	H	1.312106	-0.625817	1.200536
H72	H	1.274755	-0.580597	1.135080
H73	H	0.794751	-0.467290	0.642953
H74	H	1.224300	-0.914917	0.837816
O75	O	1.222383	-0.776117	0.839367
C76	C	1.151191	-0.761808	1.007140
C77	C	1.229835	-0.803650	0.946268
H78	H	1.157204	-0.784043	1.093582
H79	H	1.070189	-0.766958	0.978868
H80	H	1.168009	-0.703406	0.994031
H81	H	1.213112	-0.862067	0.959349
H82	H	1.310812	-0.798441	0.974550
O83	O	1.495251	-1.001254	0.628095
C84	C	1.569578	-0.970653	0.457861
C85	C	1.485305	-1.009346	0.523145
H86	H	1.561553	-0.977170	0.372993
H87	H	1.648566	-0.994328	0.487708
H88	H	1.560961	-0.911768	0.464548
H89	H	1.493825	-1.068235	0.516487
H90	H	1.406351	-0.985615	0.493280
O91	O	1.278641	-1.033487	0.796019
C92	C	1.240674	-1.125097	0.938137
C93	C	1.324921	-1.086342	0.872899
H94	H	1.278059	-1.167829	1.000323
H95	H	1.191157	-1.150818	0.885522
H96	H	1.190427	-1.085294	0.976906
H97	H	1.375240	-1.126100	0.834120
H98	H	1.374365	-1.060608	0.925563
