data_functionalizedCrystal
_audit_creation_method	'MofGen! by Chris Wilmer'
_symmetry_space_group_name_H-M	'P1'
_symmetry_Int_Tables_number	1
_symmetry_cell_setting	triclinic
loop_
_symmetry_equiv_pos_as_xyz
  x,y,z
_cell_length_a	21.295420
_cell_length_b	21.295417
_cell_length_c	18.050583
_cell_angle_alpha	89.960588
_cell_angle_beta	89.983938
_cell_angle_gamma	90.025484
loop_
_atom_site_label
_atom_site_type_symbol
_atom_site_fract_x
_atom_site_fract_y
_atom_site_fract_z
Zn1	Zn	0.962306	-0.250635	-0.419897
Zn2	Zn	1.462306	0.249365	0.080103
Zn3	Zn	0.962225	-0.355921	-0.295700
Zn4	Zn	1.462225	0.144079	0.204300
Zn5	Zn	0.857045	-0.250662	-0.295721
Zn6	Zn	1.357045	0.249338	0.204279
Zn7	Zn	0.857000	-0.355862	-0.419849
Zn8	Zn	1.357000	0.144138	0.080151
O9	O	0.909644	-0.303270	-0.357792
O10	O	1.409644	0.196730	0.142208
O11	O	1.050385	-0.264615	-0.403434
O12	O	1.550385	0.235385	0.096566
O13	O	0.948258	-0.341995	-0.191778
O14	O	1.448258	0.158005	0.308222
O15	O	0.871060	-0.162569	-0.312222
O16	O	1.371060	0.337431	0.187778
O17	O	1.050325	-0.341968	-0.312187
O18	O	1.550325	0.158032	0.187813
O19	O	0.948395	-0.162549	-0.403454
O20	O	1.448395	0.337451	0.096546
O21	O	0.870982	-0.264661	-0.191794
O22	O	1.370982	0.235339	0.308206
O23	O	0.768949	-0.264604	-0.312175
O24	O	1.268949	0.235396	0.187825
O25	O	0.870984	-0.341868	-0.523780
O26	O	1.370984	0.158132	-0.023780
O27	O	0.768917	-0.341894	-0.403371
O28	O	1.268917	0.158106	0.096629
O29	O	0.948352	-0.264558	-0.523815
O30	O	1.448352	0.235442	-0.023815
O31	O	0.948215	-0.444003	-0.312140
O32	O	1.448215	0.055997	0.187860
O33	O	0.870906	-0.443960	-0.403351
O34	O	1.370906	0.056040	0.096649
C35	C	0.746092	-0.303246	-0.357771
C36	C	1.246092	0.196754	0.142229
C37	C	0.676124	-0.303251	-0.357780
C38	C	1.176124	0.196749	0.142220
C39	C	0.176696	-0.263087	-0.405392
C40	C	0.676696	0.236913	0.094608
C41	C	0.242439	-0.263082	-0.405392
C42	C	0.742439	0.236918	0.094608
C43	C	0.275285	-0.303289	-0.357809
C44	C	0.775285	0.196711	0.142191
C45	C	0.242383	-0.343515	-0.310236
C46	C	0.742383	0.156485	0.189764
C47	C	0.176642	-0.343523	-0.310243
C48	C	0.676642	0.156477	0.189757
N49	N	0.378483	-0.308043	-0.292781
N50	N	0.878483	0.191957	0.207219
N51	N	0.440934	-0.308032	-0.292777
N52	N	0.940934	0.191968	0.207223
C53	C	0.473360	-0.303269	-0.357787
C54	C	0.973360	0.196731	0.142213
N55	N	0.440974	-0.298505	-0.422804
N56	N	0.940974	0.201495	0.077196
N57	N	0.378517	-0.298513	-0.422807
N58	N	0.878517	0.201487	0.077193
C59	C	0.346570	-0.303285	-0.357797
C60	C	0.846570	0.196715	0.142203
C61	C	0.577539	-0.263043	-0.405361
C62	C	1.077539	0.236957	0.094639
C63	C	0.643283	-0.263043	-0.405362
C64	C	1.143283	0.236957	0.094638
C65	C	0.643226	-0.343473	-0.310199
C66	C	1.143226	0.156527	0.189801
C67	C	0.577483	-0.343476	-0.310205
C68	C	1.077483	0.156524	0.189795
C69	C	0.544644	-0.303258	-0.357785
C70	C	1.044644	0.196742	0.142215
C71	C	0.909564	-0.466822	-0.357754
C72	C	1.409564	0.033178	0.142246
C73	C	0.909587	-0.536790	-0.357763
C74	C	1.409587	-0.036790	0.142237
C75	C	0.949832	-0.569589	-0.405301
C76	C	1.449832	-0.069589	0.094699
C77	C	0.949855	-0.635331	-0.405320
C78	C	1.449855	-0.135331	0.094680
C79	C	0.909638	-0.668272	-0.357786
C80	C	1.409638	-0.168272	0.142214
C81	C	0.869385	-0.635465	-0.310245
C82	C	1.369385	-0.135465	0.189755
C83	C	0.869360	-0.569724	-0.310233
C84	C	1.369360	-0.069724	0.189767
N85	N	0.904887	-0.771542	-0.292792
N86	N	1.404887	-0.271542	0.207208
N87	N	0.904915	-0.833994	-0.292805
N88	N	1.404915	-0.333994	0.207195
C89	C	0.909712	-0.866347	-0.357820
C90	C	1.409712	-0.366347	0.142180
N91	N	0.914492	-0.833890	-0.422822
N92	N	1.414492	-0.333890	0.077178
N93	N	0.914467	-0.771432	-0.422808
N94	N	1.414467	-0.271432	0.077192
C95	C	0.909661	-0.739558	-0.357794
C96	C	1.409661	-0.239558	0.142206
C97	C	0.949983	-0.970432	-0.405382
C98	C	1.449983	-0.470432	0.094618
C99	C	0.950001	-1.036175	-0.405402
C100	C	1.450001	-0.536175	0.094598
C101	C	0.869535	-1.036308	-0.310320
C102	C	1.369535	-0.536308	0.189680
C103	C	0.869514	-0.970566	-0.310307
C104	C	1.369514	-0.470566	0.189693
C105	C	0.909741	-0.937631	-0.357837
C106	C	1.409741	-0.437631	0.142163
C107	C	1.073834	-0.303295	-0.357813
C108	C	1.573834	0.196705	0.142187
C109	C	1.143802	-0.303305	-0.357823
C110	C	1.643802	0.196695	0.142177
C111	C	0.909672	-0.303203	-0.551498
C112	C	1.409672	0.196797	-0.051498
C113	C	0.909684	-0.303174	-0.634043
C114	C	1.409684	0.196826	-0.134043
C115	C	0.909742	-0.139080	-0.357846
C116	C	1.409742	0.360920	0.142154
C117	C	0.909783	-0.069112	-0.357869
C118	C	1.409783	0.430888	0.142131
C119	C	0.951798	-0.261113	-0.833514
C120	C	1.451798	0.238887	-0.333514
C121	C	0.894386	-0.245702	-0.882909
C122	C	1.394386	0.254298	-0.382909
C123	C	0.909709	-0.303164	-0.785174
C124	C	1.409709	0.196836	-0.285174
C125	C	0.967145	-0.318535	-0.882860
C126	C	1.467145	0.181465	-0.382860
C127	C	0.909738	-0.303152	-0.931159
C128	C	1.409738	0.196848	-0.431159
C129	C	0.852266	-0.287723	-0.833482
C130	C	1.352266	0.212277	-0.333482
C131	C	0.925063	-0.360582	-0.833429
C132	C	1.425063	0.139418	-0.333429
C133	C	0.867611	-0.345193	-0.882802
C134	C	1.367611	0.154807	-0.382802
C135	C	0.909693	-0.303169	-0.701076
C136	C	1.409693	0.196831	-0.201076
C137	C	0.909748	-0.303147	-1.015256
C138	C	1.409748	0.196853	-0.515256
C139	C	0.909653	-0.303292	-0.164840
C140	C	1.409653	0.196708	0.335160
C141	C	0.909763	-0.303143	-0.082294
C142	C	1.409763	0.196857	0.417706
H143	H	0.550700	-0.376223	-0.271465
H144	H	1.050700	0.123777	0.228535
C145	C	0.278084	-0.219451	-0.457161
C146	C	0.778084	0.280549	0.042839
C147	C	0.262104	-0.233211	-0.530615
C148	C	0.762104	0.266789	-0.030615
C149	C	0.294920	-0.193026	-0.578322
C150	C	0.794920	0.306974	-0.078322
H151	H	0.321950	-0.225168	-0.450440
H152	H	0.821950	0.274832	0.049560
H153	H	0.267309	-0.177136	-0.446423
H154	H	0.767309	0.322864	0.053577
H155	H	0.272883	-0.275515	-0.541348
H156	H	0.772883	0.224485	-0.041348
H157	H	0.218244	-0.227490	-0.537358
H158	H	0.718244	0.272510	-0.037358
H159	H	0.284144	-0.150711	-0.567585
H160	H	0.784144	0.349289	-0.067585
H161	H	0.338784	-0.198746	-0.571595
H162	H	0.838784	0.301254	-0.071595
H163	H	0.284077	-0.202353	-0.628165
H164	H	0.784077	0.297647	-0.128165
H165	H	0.982586	-0.542776	-0.444005
H166	H	1.482586	-0.042776	0.055995
C167	C	0.942345	-0.425281	-0.804275
C168	C	1.442345	0.074719	-0.304275
C169	C	0.941518	-0.424556	-0.726720
C170	C	1.441518	0.075444	-0.226720
C171	C	0.957435	-0.484147	-0.699837
C172	C	1.457435	0.015853	-0.199837
H173	H	0.983177	-0.436211	-0.821071
H174	H	1.483177	0.063789	-0.321071
H175	H	0.912861	-0.455267	-0.821844
H176	H	1.412861	0.044733	-0.321844
H177	H	0.971002	-0.394579	-0.709158
H178	H	1.471002	0.105421	-0.209158
H179	H	0.900693	-0.413637	-0.709904
H180	H	1.400693	0.086363	-0.209904
H181	H	0.927950	-0.514133	-0.717406
H182	H	1.427950	-0.014133	-0.217406
H183	H	0.998265	-0.495072	-0.716638
H184	H	1.498265	0.004928	-0.216638
H185	H	0.956870	-0.483664	-0.647213
H186	H	1.456870	0.016336	-0.147213
H187	H	1.015705	-0.331539	-0.904552
H188	H	1.515705	0.168461	-0.404552
C189	C	0.993770	-1.071675	-0.457044
C190	C	1.493770	-0.571675	0.042956
C191	C	1.029005	-1.028758	-0.498646
C192	C	1.529005	-0.528758	0.001354
C193	C	1.069339	-1.061438	-0.546218
C194	C	1.569339	-0.561438	-0.046218
H195	H	0.969757	-1.097320	-0.489451
H196	H	1.469757	-0.597320	0.010549
H197	H	1.021252	-1.097305	-0.428680
H198	H	1.521252	-0.597305	0.071320
H199	H	1.001525	-1.003139	-0.527008
H200	H	1.501525	-0.503139	-0.027008
H201	H	1.053030	-1.003112	-0.466258
H202	H	1.553030	-0.503112	0.033742
H203	H	1.096821	-1.087068	-0.517855
H204	H	1.596821	-0.587068	-0.017855
H205	H	1.045321	-1.087081	-0.578621
H206	H	1.545321	-0.587081	-0.078621
H207	H	1.093254	-1.032324	-0.574446
H208	H	1.593254	-0.532324	-0.074446
H209	H	0.269130	-0.376254	-0.271495
H210	H	0.769130	0.123746	0.228505
H211	H	0.831989	-0.380749	-0.904308
H212	H	1.331989	0.119251	-0.404308
C213	C	0.825689	-0.533996	-0.258695
C214	C	1.325689	-0.033996	0.241305
C215	C	0.834266	-0.469373	-0.268869
C216	C	1.334266	0.030627	0.231131
C217	C	0.794043	-0.436440	-0.221410
C218	C	1.294043	0.063560	0.278590
H219	H	0.834891	-0.544723	-0.208778
H220	H	1.334891	-0.044723	0.291222
H221	H	0.783378	-0.544759	-0.269528
H222	H	1.283378	-0.044759	0.230472
H223	H	0.876568	-0.458615	-0.258030
H224	H	1.376568	0.041385	0.241970
H225	H	0.825059	-0.458628	-0.318775
H226	H	1.325059	0.041372	0.181225
H227	H	0.751732	-0.447203	-0.232244
H228	H	1.251732	0.052797	0.267756
H229	H	0.803248	-0.447172	-0.171496
H230	H	1.303248	0.052828	0.328504
H231	H	0.799853	-0.392590	-0.228312
H232	H	1.299853	0.107410	0.271688
H233	H	0.881408	-0.197139	-0.904644
H234	H	1.381408	0.302861	-0.404644
C235	C	0.993613	-0.670838	-0.456972
C236	C	1.493613	-0.170838	0.043028
C237	C	1.028842	-0.627925	-0.498586
C238	C	1.528842	-0.127925	0.001414
C239	C	1.069161	-0.660609	-0.546173
C240	C	1.569161	-0.160609	-0.046173
H241	H	0.969589	-0.696480	-0.489371
H242	H	1.469589	-0.196480	0.010629
H243	H	1.021100	-0.696472	-0.428618
H244	H	1.521100	-0.196472	0.071382
H245	H	1.001359	-0.602303	-0.526938
H246	H	1.501359	-0.102303	-0.026938
H247	H	1.052879	-0.602282	-0.466206
H248	H	1.552879	-0.102282	0.033794
H249	H	1.096648	-0.686242	-0.517819
H250	H	1.596648	-0.186242	-0.017819
H251	H	1.045132	-0.686249	-0.578567
H252	H	1.545132	-0.186249	-0.078567
H253	H	1.093073	-0.631497	-0.574409
H254	H	1.593073	-0.131497	-0.074409
C255	C	0.999273	-0.213717	-0.804749
C256	C	1.499273	0.286283	-0.304749
C257	C	1.059172	-0.229359	-0.830854
C258	C	1.559172	0.270641	-0.330854
C259	C	1.102916	-0.185707	-0.804378
C260	C	1.602916	0.314293	-0.304378
H261	H	0.999281	-0.214280	-0.752129
H262	H	1.499281	0.285720	-0.252129
H263	H	0.988311	-0.172928	-0.821715
H264	H	1.488311	0.327072	-0.321715
H265	H	1.070131	-0.270137	-0.813884
H266	H	1.570131	0.229863	-0.313884
H267	H	1.059185	-0.228791	-0.883471
H268	H	1.559185	0.271209	-0.383471
H269	H	1.091953	-0.144919	-0.821344
H270	H	1.591953	0.355081	-0.321344
H271	H	1.102917	-0.186274	-0.751759
H272	H	1.602917	0.313726	-0.251759
H273	H	1.143561	-0.196311	-0.822092
H274	H	1.643561	0.303689	-0.322092
C275	C	0.825790	-0.671340	-0.258665
C276	C	1.325790	-0.171340	0.241335
C277	C	0.834438	-0.735935	-0.268834
C278	C	1.334438	-0.235935	0.231166
C279	C	0.794291	-0.769001	-0.221326
C280	C	1.294291	-0.269001	0.278674
H281	H	0.783459	-0.660671	-0.269440
H282	H	1.283459	-0.160671	0.230560
H283	H	0.835030	-0.660629	-0.208758
H284	H	1.335030	-0.160629	0.291242
H285	H	0.825193	-0.746641	-0.318730
H286	H	1.325193	-0.246641	0.181270
H287	H	0.876760	-0.746622	-0.258054
H288	H	1.376760	-0.246622	0.241946
H289	H	0.803532	-0.758290	-0.171420
H290	H	1.303532	-0.258290	0.328580
H291	H	0.751963	-0.758326	-0.232105
H292	H	1.251963	-0.258326	0.267895
H293	H	0.800157	-0.812831	-0.228215
H294	H	1.300157	-0.312831	0.271785
C295	C	0.787548	-0.270284	-0.804545
C296	C	1.287548	0.229716	-0.304545
C297	C	0.788299	-0.270453	-0.726984
C298	C	1.288299	0.229547	-0.226984
C299	C	0.728697	-0.254381	-0.700300
C300	C	1.228697	0.245619	-0.200300
H301	H	0.757584	-0.299938	-0.821737
H302	H	1.257584	0.200062	-0.321737
H303	H	0.776577	-0.229602	-0.821857
H304	H	1.276577	0.270398	-0.321857
H305	H	0.799262	-0.311128	-0.709679
H306	H	1.299262	0.188872	-0.209679
H307	H	0.818251	-0.240797	-0.709773
H308	H	1.318251	0.259203	-0.209773
H309	H	0.717726	-0.213699	-0.717612
H310	H	1.217726	0.286301	-0.217612
H311	H	0.698738	-0.284037	-0.717496
H312	H	1.198738	0.215963	-0.217496
H313	H	0.729200	-0.254488	-0.647673
H314	H	1.229200	0.245512	-0.147673
H315	H	0.836786	-1.063128	-0.271623
H316	H	1.336786	-0.563128	0.228377
C317	C	0.140965	-0.219532	-0.457102
C318	C	0.640965	0.280468	0.042898
C319	C	0.103217	-0.255223	-0.504620
C320	C	0.603217	0.244777	-0.004620
C321	C	0.070286	-0.215123	-0.552261
C322	C	0.570286	0.284877	-0.052261
H323	H	0.169904	-0.195566	-0.485504
H324	H	0.669904	0.304434	0.014496
H325	H	0.115281	-0.192089	-0.428778
H326	H	0.615281	0.307911	0.071222
H327	H	0.128899	-0.282655	-0.532942
H328	H	0.628899	0.217345	-0.032942
H329	H	0.074266	-0.279188	-0.476239
H330	H	0.574266	0.220812	0.023761
H331	H	0.044602	-0.187681	-0.523937
H332	H	0.544602	0.312319	-0.023937
H333	H	0.099230	-0.191159	-0.580658
H334	H	0.599230	0.308841	-0.080658
H335	H	0.044666	-0.239334	-0.584503
H336	H	0.544666	0.260666	-0.084503
C337	C	0.993547	-0.934586	-0.457033
C338	C	1.493547	-0.434586	0.042967
C339	C	0.957861	-0.896825	-0.504569
C340	C	1.457861	-0.396825	-0.004569
C341	C	0.997969	-0.863791	-0.552153
C342	C	1.497969	-0.363791	-0.052153
H343	H	1.017531	-0.963464	-0.485426
H344	H	1.517531	-0.463464	0.014574
H345	H	1.020971	-0.908903	-0.428669
H346	H	1.520971	-0.408903	0.071331
H347	H	0.930448	-0.922506	-0.532930
H348	H	1.430448	-0.422506	-0.032930
H349	H	0.933878	-0.867936	-0.476196
H350	H	1.433878	-0.367936	0.023804
H351	H	1.025394	-0.838107	-0.523789
H352	H	1.525394	-0.338107	-0.023789
H353	H	1.021952	-0.892673	-0.580541
H354	H	1.521952	-0.392673	-0.080541
H355	H	0.973763	-0.838162	-0.584407
H356	H	1.473763	-0.338162	-0.084407
H357	H	0.149859	-0.376275	-0.271504
H358	H	0.649859	0.123725	0.228496
H359	H	0.836745	-0.943859	-0.271594
H360	H	1.336745	-0.443859	0.228406
H361	H	0.670064	-0.230294	-0.444105
H362	H	1.170064	0.269706	0.055895
C363	C	0.541912	-0.219466	-0.457149
C364	C	1.041912	0.280534	0.042851
C365	C	0.557906	-0.233255	-0.530597
C366	C	1.057906	0.266745	-0.030597
C367	C	0.525094	-0.193132	-0.578325
C368	C	1.025094	0.306868	-0.078325
H369	H	0.552669	-0.177136	-0.446471
H370	H	1.052669	0.322864	0.053529
H371	H	0.498041	-0.225235	-0.450386
H372	H	0.998041	0.274765	0.049614
H373	H	0.601767	-0.227481	-0.537357
H374	H	1.101767	0.272519	-0.037357
H375	H	0.547147	-0.275578	-0.541298
H376	H	1.047147	0.224422	-0.041298
H377	H	0.481223	-0.198901	-0.571563
H378	H	0.981223	0.301099	-0.071563
H379	H	0.535854	-0.150805	-0.567641
H380	H	1.035854	0.349195	-0.067641
H381	H	0.535937	-0.202486	-0.628166
H382	H	1.035937	0.297514	-0.128166
C383	C	0.678765	-0.387196	-0.258508
C384	C	1.178765	0.112804	0.241492
C385	C	0.635882	-0.422429	-0.216858
C386	C	1.135882	0.077571	0.283142
C387	C	0.668601	-0.462722	-0.169240
C388	C	1.168601	0.037278	0.330760
H389	H	0.704412	-0.363154	-0.226133
H390	H	1.204412	0.136846	0.273867
H391	H	0.704396	-0.414682	-0.286841
H392	H	1.204396	0.085318	0.213159
H393	H	0.610262	-0.394947	-0.188527
H394	H	1.110262	0.105053	0.311473
H395	H	0.610234	-0.446484	-0.249213
H396	H	1.110234	0.053516	0.250787
H397	H	0.694232	-0.490208	-0.197573
H398	H	1.194232	0.009792	0.302427
H399	H	0.694247	-0.438675	-0.136870
H400	H	1.194247	0.061325	0.363130
H401	H	0.639510	-0.486637	-0.140980
H402	H	1.139510	0.013363	0.359020
