data_functionalizedCrystal
_audit_creation_method	'MofGen! by Chris Wilmer'
_symmetry_space_group_name_H-M	'P1'
_symmetry_Int_Tables_number	1
_symmetry_cell_setting	triclinic
loop_
_symmetry_equiv_pos_as_xyz
  x,y,z
_cell_length_a	25.639239
_cell_length_b	25.639242
_cell_length_c	25.639234
_cell_angle_alpha	90.020854
_cell_angle_beta	89.975416
_cell_angle_gamma	89.970385
loop_
_atom_site_label
_atom_site_type_symbol
_atom_site_fract_x
_atom_site_fract_y
_atom_site_fract_z
Zn1	Zn	-0.208311	-0.799250	-0.295657
Zn2	Zn	0.125023	-0.465917	0.037677
Zn3	Zn	0.458356	-0.132583	0.371010
Zn4	Zn	-0.295738	-0.799166	-0.208221
Zn5	Zn	0.037595	-0.465833	0.125112
Zn6	Zn	0.370928	-0.132499	0.458446
Zn7	Zn	-0.208305	-0.711819	-0.208230
Zn8	Zn	0.125028	-0.378486	0.125103
Zn9	Zn	0.458362	-0.045152	0.458437
Zn10	Zn	-0.295703	-0.711771	-0.295620
Zn11	Zn	0.037630	-0.378438	0.037713
Zn12	Zn	0.370963	-0.045105	0.371046
O13	O	-0.252014	-0.755502	-0.251932
O14	O	0.081319	-0.422168	0.081401
O15	O	0.414652	-0.088835	0.414735
O16	O	-0.219925	-0.872404	-0.284069
O17	O	0.113408	-0.539071	0.049264
O18	O	0.446741	-0.205737	0.382597
O19	O	-0.284153	-0.787564	-0.135057
O20	O	0.049181	-0.454231	0.198276
O21	O	0.382514	-0.120897	0.531610
O22	O	-0.135141	-0.723472	-0.219846
O23	O	0.198193	-0.390138	0.113487
O24	O	0.531526	-0.056805	0.446820
O25	O	-0.284158	-0.872342	-0.219831
O26	O	0.049175	-0.539009	0.113503
O27	O	0.382508	-0.205676	0.446836
O28	O	-0.135145	-0.787707	-0.284078
O29	O	0.198189	-0.454374	0.049255
O30	O	0.531522	-0.121040	0.382588
O31	O	-0.219916	-0.723390	-0.135064
O32	O	0.113418	-0.390057	0.198270
O33	O	0.446751	-0.056724	0.531603
O34	O	-0.219881	-0.638647	-0.219811
O35	O	0.113452	-0.305314	0.113522
O36	O	0.446785	0.028019	0.446856
O37	O	-0.284098	-0.723391	-0.368790
O38	O	0.049235	-0.390057	-0.035457
O39	O	0.382569	-0.056724	0.297876
O40	O	-0.284092	-0.638612	-0.284016
O41	O	0.049241	-0.305279	0.049317
O42	O	0.382574	0.028054	0.382650
O43	O	-0.219891	-0.787661	-0.368817
O44	O	0.113442	-0.454328	-0.035484
O45	O	0.446775	-0.120994	0.297850
O46	O	-0.368899	-0.787518	-0.219796
O47	O	-0.035566	-0.454185	0.113538
O48	O	0.297768	-0.120851	0.446871
O49	O	-0.368873	-0.723309	-0.284007
O50	O	-0.035540	-0.389976	0.049326
O51	O	0.297794	-0.056643	0.382659
C52	C	-0.251983	-0.619659	-0.251911
C53	C	0.081350	-0.286326	0.081422
C54	C	0.414684	0.047008	0.414756
C55	C	-0.251982	-0.561545	-0.251914
C56	C	0.081351	-0.228212	0.081419
C57	C	0.414685	0.105122	0.414752
C58	C	-0.387857	-0.755414	-0.251908
C59	C	-0.054524	-0.422080	0.081425
C60	C	0.278810	-0.088747	0.414759
C61	C	-0.445971	-0.755424	-0.251915
C62	C	-0.112638	-0.422090	0.081418
C63	C	0.220696	-0.088757	0.414751
C64	C	-0.218617	-0.310392	-0.285429
C65	C	0.114716	0.022942	0.047904
C66	C	0.448050	0.356275	0.381238
C67	C	-0.218613	-0.364996	-0.285428
C68	C	0.114720	-0.031663	0.047906
C69	C	0.448053	0.301671	0.381239
O70	O	-0.190228	-0.393267	-0.313926
O71	O	0.143105	-0.059933	0.019407
O72	O	0.476438	0.273400	0.352741
N73	N	-0.252000	-0.392271	-0.251927
N74	N	0.081334	-0.058938	0.081406
N75	N	0.414667	0.274396	0.414739
C76	C	-0.285396	-0.364939	-0.218430
C77	C	0.047938	-0.031606	0.114903
C78	C	0.381271	0.301728	0.448237
O79	O	-0.313793	-0.393153	-0.189936
O80	O	0.019540	-0.059819	0.143398
O81	O	0.352873	0.273514	0.476731
C82	C	-0.285402	-0.310336	-0.218434
C83	C	0.047931	0.022998	0.114899
C84	C	0.381265	0.356331	0.448232
C85	C	-0.252010	-0.283063	-0.251933
C86	C	0.081324	0.050270	0.081400
C87	C	0.414657	0.383603	0.414734
C88	C	-0.185228	-0.283119	-0.318925
C89	C	0.148105	0.050214	0.014408
C90	C	0.481439	0.383547	0.347741
C91	C	-0.185231	-0.228519	-0.318926
C92	C	0.148102	0.104815	0.014407
C93	C	0.481435	0.438148	0.347741
C94	C	-0.218624	-0.201191	-0.285430
C95	C	0.114710	0.132143	0.047903
C96	C	0.448043	0.465476	0.381237
C97	C	-0.252013	-0.228463	-0.251934
C98	C	0.081320	0.104870	0.081400
C99	C	0.414654	0.438204	0.414733
C100	C	-0.318800	-0.283005	-0.184940
C101	C	0.014533	0.050329	0.148393
C102	C	0.347866	0.383662	0.481727
C103	C	-0.318804	-0.228398	-0.184948
C104	C	0.014530	0.104936	0.148386
C105	C	0.347863	0.438269	0.481719
C106	C	-0.285411	-0.201125	-0.218446
C107	C	0.047922	0.132208	0.114887
C108	C	0.381255	0.465541	0.448220
C109	C	-0.285409	-0.146534	-0.218438
C110	C	0.047925	0.186799	0.114895
C111	C	0.381258	0.520133	0.448228
N112	N	-0.252022	-0.119259	-0.251939
N113	N	0.081311	0.214074	0.081395
N114	N	0.414644	0.547408	0.414728
C115	C	-0.218630	-0.146587	-0.285434
C116	C	0.114704	0.186746	0.047899
C117	C	0.448037	0.520079	0.381232
C118	C	-0.285381	-0.479610	-0.218424
C119	C	0.047952	-0.146276	0.114909
C120	C	0.381286	0.187057	0.448243
C121	C	-0.285373	-0.534212	-0.218416
C122	C	0.047961	-0.200879	0.114917
C123	C	0.381294	0.132455	0.448250
C124	C	-0.218591	-0.534265	-0.285415
C125	C	0.114743	-0.200932	0.047918
C126	C	0.448076	0.132402	0.381252
C127	C	-0.218597	-0.479662	-0.285419
C128	C	0.114736	-0.146328	0.047914
C129	C	0.448070	0.187005	0.381247
C130	C	-0.251995	-0.452335	-0.251924
C131	C	0.081339	-0.119001	0.081409
C132	C	0.414672	0.214332	0.414743
C133	C	-0.218639	-0.031922	-0.285433
C134	C	0.114694	0.301411	0.047901
C135	C	0.448028	0.634745	0.381234
C136	C	-0.218644	0.022683	-0.285429
C137	C	0.114690	0.356017	0.047904
C138	C	0.448023	0.689350	0.381238
C139	C	-0.285427	0.022732	-0.218433
C140	C	0.047906	0.356065	0.114901
C141	C	0.381239	0.689398	0.448234
C142	C	-0.285421	-0.031869	-0.218434
C143	C	0.047913	0.301464	0.114899
C144	C	0.381246	0.634798	0.448232
C145	C	-0.252025	-0.059195	-0.251939
C146	C	0.081308	0.274139	0.081395
C147	C	0.414642	0.607472	0.414728
O148	O	-0.313781	-0.118229	-0.189956
O149	O	0.019553	0.215105	0.143377
O150	O	0.352886	0.548438	0.476711
O151	O	-0.190242	-0.118367	-0.313929
O152	O	0.143092	0.214966	0.019404
O153	O	0.476425	0.548300	0.352738
C154	C	-0.806335	-0.789022	-0.218554
C155	C	-0.473002	-0.455689	0.114780
C156	C	-0.139668	-0.122355	0.448113
C157	C	-0.860939	-0.789042	-0.218561
C158	C	-0.527606	-0.455709	0.114773
C159	C	-0.194273	-0.122376	0.448106
O160	O	-0.889177	-0.817518	-0.190169
O161	O	-0.555843	-0.484184	0.143164
O162	O	-0.222510	-0.150851	0.476497
N163	N	-0.888253	-0.755593	-0.251967
N164	N	-0.554920	-0.422260	0.081367
N165	N	-0.221587	-0.088927	0.414700
C166	C	-0.860960	-0.722126	-0.285371
C167	C	-0.527627	-0.388792	0.047962
C168	C	-0.194294	-0.055459	0.381295
O169	O	-0.889207	-0.693677	-0.313787
O170	O	-0.555874	-0.360344	0.019547
O171	O	-0.222541	-0.027010	0.352880
C172	C	-0.806357	-0.722109	-0.285367
C173	C	-0.473024	-0.388775	0.047967
C174	C	-0.139690	-0.055442	0.381300
C175	C	-0.779046	-0.755556	-0.251955
C176	C	-0.445712	-0.422223	0.081379
C177	C	-0.112379	-0.088889	0.414712
C178	C	-0.779024	-0.822467	-0.185145
C179	C	-0.445690	-0.489134	0.148188
C180	C	-0.112357	-0.155801	0.481522
C181	C	-0.724423	-0.822446	-0.185138
C182	C	-0.391090	-0.489113	0.148196
C183	C	-0.057756	-0.155779	0.481529
C184	C	-0.697134	-0.788980	-0.218539
C185	C	-0.363801	-0.455647	0.114795
C186	C	-0.030467	-0.122313	0.448128
C187	C	-0.724445	-0.755535	-0.251947
C188	C	-0.391112	-0.422202	0.081386
C189	C	-0.057779	-0.088868	0.414719
C190	C	-0.779065	-0.688644	-0.318774
C191	C	-0.445732	-0.355311	0.014560
C192	C	-0.112398	-0.021977	0.347893
C193	C	-0.724458	-0.688630	-0.318766
C194	C	-0.391125	-0.355296	0.014567
C195	C	-0.057791	-0.021963	0.347900
C196	C	-0.697147	-0.722077	-0.285354
C197	C	-0.363813	-0.388744	0.047979
C198	C	-0.030480	-0.055411	0.381312
C199	C	-0.642556	-0.722048	-0.285341
C200	C	-0.309222	-0.388714	0.047993
C201	C	0.024111	-0.055381	0.381326
N202	N	-0.615241	-0.755497	-0.251935
N203	N	-0.281908	-0.422163	0.081398
N204	N	0.051425	-0.088830	0.414732
C205	C	-0.642531	-0.788963	-0.218534
C206	C	-0.309197	-0.455629	0.114799
C207	C	0.024136	-0.122296	0.448133
C208	C	-0.975631	-0.722165	-0.285379
C209	C	-0.642298	-0.388832	0.047954
C210	C	-0.308964	-0.055498	0.381287
C211	C	-1.030233	-0.722179	-0.285382
C212	C	-0.696900	-0.388846	0.047951
C213	C	-0.363567	-0.055513	0.381285
C214	C	-1.030208	-0.789097	-0.218572
C215	C	-0.696875	-0.455763	0.114761
C216	C	-0.363542	-0.122430	0.448095
C217	C	-0.975605	-0.789080	-0.218567
C218	C	-0.642272	-0.455746	0.114766
C219	C	-0.308938	-0.122413	0.448100
C220	C	-0.948317	-0.755614	-0.251974
C221	C	-0.614984	-0.422281	0.081360
C222	C	-0.281650	-0.088947	0.414693
C223	C	-0.527866	-0.788916	-0.218520
C224	C	-0.194532	-0.455582	0.114813
C225	C	0.138801	-0.122249	0.448146
C226	C	-0.473260	-0.788890	-0.218514
C227	C	-0.139927	-0.455557	0.114819
C228	C	0.193406	-0.122223	0.448153
C229	C	-0.473290	-0.721975	-0.285326
C230	C	-0.139957	-0.388641	0.048008
C231	C	0.193377	-0.055308	0.381341
C232	C	-0.527890	-0.721998	-0.285330
C233	C	-0.194557	-0.388665	0.048003
C234	C	0.138776	-0.055331	0.381336
C235	C	-0.555177	-0.755473	-0.251926
C236	C	-0.221844	-0.422139	0.081408
C237	C	0.111490	-0.088806	0.414741
O238	O	-0.614283	-0.693588	-0.313719
O239	O	-0.280950	-0.360255	0.019614
O240	O	0.052383	-0.026922	0.352948
O241	O	-0.614277	-0.817412	-0.190128
O242	O	-0.280944	-0.484078	0.143205
O243	O	0.052390	-0.150745	0.476538
C244	C	-0.115641	-0.755604	-0.251967
C245	C	0.217692	-0.422271	0.081366
C246	C	0.551025	-0.088937	0.414699
C247	C	-0.057527	-0.755648	-0.251983
C248	C	0.275806	-0.422314	0.081351
C249	C	0.609139	-0.088981	0.414684
C250	C	-0.251991	-0.755530	-0.388305
C251	C	0.081342	-0.422197	-0.054972
C252	C	0.414675	-0.088863	0.278362
C253	C	-0.251981	-0.755542	-0.446419
C254	C	0.081352	-0.422209	-0.113086
C255	C	0.414685	-0.088875	0.220248
C256	C	-0.252040	0.108125	-0.251946
C257	C	0.081293	0.441459	0.081388
C258	C	0.414626	0.774792	0.414721
C259	C	-0.252036	0.050011	-0.251933
C260	C	0.081297	0.383345	0.081400
C261	C	0.414631	0.716678	0.414734
C262	C	-0.285387	-0.788971	-0.697602
C263	C	0.047947	-0.455638	-0.364268
C264	C	0.381280	-0.122304	-0.030935
C265	C	-0.285398	-0.788965	-0.642997
C266	C	0.047936	-0.455632	-0.309664
C267	C	0.381269	-0.122299	0.023669
O268	O	-0.313858	-0.817364	-0.614751
O269	O	0.019476	-0.484030	-0.281418
O270	O	0.352809	-0.150697	0.051916
N271	N	-0.251956	-0.755553	-0.615693
N272	N	0.081377	-0.422220	-0.282360
N273	N	0.414711	-0.088887	0.050974
C274	C	-0.218505	-0.722141	-0.642996
C275	C	0.114828	-0.388807	-0.309663
C276	C	0.448161	-0.055474	0.023671
O277	O	-0.190062	-0.693720	-0.614758
O278	O	0.143271	-0.360387	-0.281424
O279	O	0.476605	-0.027054	0.051909
C280	C	-0.218497	-0.722144	-0.697599
C281	C	0.114836	-0.388811	-0.364266
C282	C	0.448169	-0.055477	-0.030933
C283	C	-0.251937	-0.755562	-0.724901
C284	C	0.081396	-0.422229	-0.391567
C285	C	0.414729	-0.088895	-0.058234
C286	C	-0.318824	-0.822386	-0.724903
C287	C	0.014509	-0.489052	-0.391570
C288	C	0.347842	-0.155719	-0.058236
C289	C	-0.318813	-0.822392	-0.779504
C290	C	0.014521	-0.489059	-0.446170
C291	C	0.347854	-0.155725	-0.112837
C292	C	-0.285363	-0.788983	-0.806803
C293	C	0.047970	-0.455650	-0.473469
C294	C	0.381303	-0.122316	-0.140136
C295	C	-0.251926	-0.755568	-0.779501
C296	C	0.081408	-0.422235	-0.446168
C297	C	0.414741	-0.088901	-0.112835
C298	C	-0.185050	-0.688729	-0.724901
C299	C	0.148284	-0.355396	-0.391568
C300	C	0.481617	-0.022063	-0.058235
C301	C	-0.185045	-0.688735	-0.779508
C302	C	0.148289	-0.355402	-0.446175
C303	C	0.481622	-0.022069	-0.112842
C304	C	-0.218485	-0.722153	-0.806810
C305	C	0.114849	-0.388820	-0.473476
C306	C	0.448182	-0.055487	-0.140143
C307	C	-0.218464	-0.722165	-0.861401
C308	C	0.114869	-0.388832	-0.528068
C309	C	0.448202	-0.055499	-0.194734
N310	N	-0.251906	-0.755577	-0.888705
N311	N	0.081427	-0.422244	-0.555372
N312	N	0.414761	-0.088911	-0.222038
C313	C	-0.285355	-0.788986	-0.861406
C314	C	0.047978	-0.455653	-0.528073
C315	C	0.381311	-0.122320	-0.194739
C316	C	-0.218525	-0.722136	-0.528325
C317	C	0.114808	-0.388803	-0.194992
C318	C	0.448142	-0.055469	0.138341
C319	C	-0.218530	-0.722135	-0.473723
C320	C	0.114803	-0.388802	-0.140390
C321	C	0.448137	-0.055468	0.192944
C322	C	-0.285423	-0.788959	-0.473728
C323	C	0.047910	-0.455626	-0.140395
C324	C	0.381244	-0.122292	0.192939
C325	C	-0.285415	-0.788962	-0.528331
C326	C	0.047918	-0.455629	-0.194998
C327	C	0.381251	-0.122296	0.138335
C328	C	-0.251967	-0.755548	-0.555629
C329	C	0.081367	-0.422215	-0.222296
C330	C	0.414700	-0.088881	0.111037
C331	C	-0.285328	-0.788997	-0.976071
C332	C	0.048005	-0.455663	-0.642738
C333	C	0.381339	-0.122330	-0.309404
C334	C	-0.285312	-0.789001	-1.030677
C335	C	0.048022	-0.455668	-0.697343
C336	C	0.381355	-0.122335	-0.364010
C337	C	-0.218421	-0.722176	-1.030667
C338	C	0.114913	-0.388842	-0.697333
C339	C	0.448246	-0.055509	-0.364000
C340	C	-0.218435	-0.722173	-0.976066
C341	C	0.114899	-0.388839	-0.642733
C342	C	0.448232	-0.055506	-0.309399
C343	C	-0.251893	-0.755585	-0.948770
C344	C	0.081441	-0.422252	-0.615436
C345	C	0.414774	-0.088918	-0.282103
O346	O	-0.190020	-0.693780	-0.889682
O347	O	0.143313	-0.360447	-0.556348
O348	O	0.476646	-0.027114	-0.223015
O349	O	-0.313799	-0.817397	-0.889651
O350	O	0.019535	-0.484064	-0.556318
O351	O	0.352868	-0.150730	-0.222984
C352	C	-0.252000	-0.755503	-0.116089
C353	C	0.081334	-0.422170	0.217244
C354	C	0.414667	-0.088837	0.550577
C355	C	-0.251862	-0.755593	-0.057976
C356	C	0.081471	-0.422259	0.275358
C357	C	0.414804	-0.088926	0.608691
H358	H	-0.191445	-0.054164	-0.312715
H359	H	0.141889	0.279169	0.020618
H360	H	0.475222	0.612503	0.353952
C361	C	-0.557558	-0.825177	-0.182230
C362	C	-0.224224	-0.491844	0.151104
C363	C	0.109109	-0.158511	0.484437
C364	C	-0.588965	-0.795614	-0.148700
C365	C	-0.255632	-0.462280	0.184634
C366	C	0.077701	-0.128947	0.517967
C367	C	-0.616332	-0.828999	-0.115269
C368	C	-0.282999	-0.495666	0.218065
C369	C	0.050334	-0.162333	0.551398
H370	H	-0.533530	-0.845107	-0.162283
H371	H	-0.200197	-0.511773	0.171050
H372	H	0.133137	-0.178440	0.504383
H373	H	-0.578854	-0.847945	-0.202246
H374	H	-0.245521	-0.514611	0.131088
H375	H	0.087813	-0.181278	0.464421
H376	H	-0.567671	-0.772855	-0.128686
H377	H	-0.234338	-0.439522	0.204648
H378	H	0.098996	-0.106189	0.537981
H379	H	-0.613003	-0.775685	-0.168632
H380	H	-0.279669	-0.442352	0.164702
H381	H	0.053664	-0.109019	0.498035
H382	H	-0.637629	-0.851767	-0.135285
H383	H	-0.304295	-0.518433	0.198049
H384	H	0.029038	-0.185100	0.531382
H385	H	-0.592301	-0.848927	-0.095326
H386	H	-0.258968	-0.515594	0.238007
H387	H	0.074366	-0.182261	0.571341
H388	H	-0.637649	-0.808946	-0.092518
H389	H	-0.304316	-0.475612	0.240815
H390	H	0.029017	-0.142279	0.574149
H391	H	-0.953371	-0.816316	-0.191361
H392	H	-0.620038	-0.482982	0.141973
H393	H	-0.286705	-0.149649	0.475306
C394	C	-0.808559	-0.858906	-0.148907
C395	C	-0.475225	-0.525573	0.184427
C396	C	-0.141892	-0.192239	0.517760
C397	C	-0.795189	-0.910614	-0.160348
C398	C	-0.461856	-0.577281	0.172986
C399	C	-0.128522	-0.243947	0.506319
C400	C	-0.822368	-0.944202	-0.126966
C401	C	-0.489034	-0.610869	0.206367
C402	C	-0.155701	-0.277536	0.539701
H403	H	-0.845004	-0.854221	-0.153642
H404	H	-0.511670	-0.520888	0.179692
H405	H	-0.178337	-0.187554	0.513025
H406	H	-0.799611	-0.851304	-0.113763
H407	H	-0.466277	-0.517971	0.219570
H408	H	-0.132944	-0.184638	0.552903
H409	H	-0.804141	-0.918213	-0.195483
H410	H	-0.470807	-0.584880	0.137851
H411	H	-0.137474	-0.251547	0.471184
H412	H	-0.758749	-0.915316	-0.155610
H413	H	-0.425416	-0.581982	0.177724
H414	H	-0.092082	-0.248649	0.511057
H415	H	-0.813420	-0.936601	-0.091822
H416	H	-0.480086	-0.603267	0.241511
H417	H	-0.146753	-0.269934	0.574844
H418	H	-0.858811	-0.939513	-0.131703
H419	H	-0.525478	-0.606179	0.201630
H420	H	-0.192144	-0.272846	0.534963
H421	H	-0.813297	-0.979290	-0.134721
H422	H	-0.479963	-0.645956	0.198613
H423	H	-0.146630	-0.312623	0.531946
H424	H	-0.346065	-0.849592	-0.702682
H425	H	-0.012732	-0.516259	-0.369348
H426	H	0.320601	-0.182925	-0.036015
C427	C	-0.182109	-0.685834	-0.946516
C428	C	0.151224	-0.352500	-0.613182
C429	C	0.484557	-0.019167	-0.279849
C430	C	-0.152822	-0.656569	-0.982113
C431	C	0.180511	-0.323235	-0.648780
C432	C	0.513844	0.010098	-0.315446
C433	C	-0.119364	-0.623077	-0.954915
C434	C	0.213969	-0.289744	-0.621581
C435	C	0.547303	0.043589	-0.288248
H436	H	-0.159291	-0.705785	-0.925218
H437	H	0.174042	-0.372452	-0.591885
H438	H	0.507376	-0.039118	-0.258552
H439	H	-0.202102	-0.663007	-0.925221
H440	H	0.131231	-0.329673	-0.591887
H441	H	0.464565	0.003660	-0.258554
H442	H	-0.132831	-0.679393	-1.003399
H443	H	0.200502	-0.346060	-0.670066
H444	H	0.533835	-0.012726	-0.336732
H445	H	-0.175627	-0.636607	-1.003412
H446	H	0.157706	-0.303273	-0.670078
H447	H	0.491040	0.030060	-0.336745
H448	H	-0.139357	-0.600250	-0.933620
H449	H	0.193977	-0.266917	-0.600287
H450	H	0.527310	0.066416	-0.266953
H451	H	-0.096549	-0.643033	-0.933618
H452	H	0.236784	-0.309700	-0.600285
H453	H	0.570118	0.023634	-0.266952
H454	H	-0.099492	-0.603214	-0.979063
H455	H	0.233841	-0.269880	-0.645730
H456	H	0.567174	0.063453	-0.312397
C457	C	-1.059976	-0.685881	-0.321598
C458	C	-0.726643	-0.352548	0.011736
C459	C	-0.393310	-0.019215	0.345069
C460	C	-1.113638	-0.693048	-0.314452
C461	C	-0.780305	-0.359714	0.018881
C462	C	-0.446971	-0.026381	0.352215
C463	C	-1.141051	-0.659616	-0.347804
C464	C	-0.807718	-0.326283	-0.014471
C465	C	-0.474385	0.007051	0.318863
H466	H	-1.051061	-0.693477	-0.356754
H467	H	-0.717728	-0.360143	-0.023420
H468	H	-0.384394	-0.026810	0.309913
H469	H	-1.051092	-0.650742	-0.313905
H470	H	-0.717758	-0.317409	0.019428
H471	H	-0.384425	0.015924	0.352761
H472	H	-1.122519	-0.728179	-0.322148
H473	H	-0.789186	-0.394846	0.011185
H474	H	-0.455852	-0.061512	0.344518
H475	H	-1.122569	-0.685449	-0.279303
H476	H	-0.789236	-0.352115	0.054030
H477	H	-0.455902	-0.018782	0.387363
H478	H	-1.132167	-0.624477	-0.340111
H479	H	-0.798833	-0.291143	-0.006778
H480	H	-0.465500	0.042190	0.326555
H481	H	-1.132132	-0.667214	-0.382958
H482	H	-0.798798	-0.333881	-0.049625
H483	H	-0.465465	-0.000547	0.283709
H484	H	-1.177463	-0.664470	-0.342957
H485	H	-0.844130	-0.331137	-0.009624
H486	H	-0.510797	0.002196	0.323710
C487	C	-0.182369	0.052198	-0.321860
C488	C	0.150964	0.385531	0.011473
C489	C	0.484298	0.718865	0.344807
C490	C	-0.153137	0.016574	-0.351204
C491	C	0.180196	0.349907	-0.017871
C492	C	0.513529	0.683240	0.315463
C493	C	-0.119723	0.043741	-0.384774
C494	C	0.213610	0.377075	-0.051440
C495	C	0.546944	0.710408	0.281893
H496	H	-0.159514	0.073498	-0.301962
H497	H	0.173819	0.406832	0.031372
H498	H	0.507153	0.740165	0.364705
H499	H	-0.202391	0.073488	-0.344634
H500	H	0.130942	0.406821	-0.011300
H501	H	0.464276	0.740154	0.322033
H502	H	-0.133117	-0.004707	-0.328433
H503	H	0.200216	0.328626	0.004900
H504	H	0.533550	0.661960	0.338234
H505	H	-0.175979	-0.004728	-0.371113
H506	H	0.157355	0.328606	-0.037779
H507	H	0.490688	0.661939	0.295554
H508	H	-0.139745	0.065031	-0.407547
H509	H	0.193588	0.398364	-0.074214
H510	H	0.526922	0.731697	0.259119
H511	H	-0.096871	0.065040	-0.364871
H512	H	0.236462	0.398374	-0.031538
H513	H	0.569795	0.731707	0.301795
H514	H	-0.099889	0.019574	-0.404691
H515	H	0.233445	0.352908	-0.071358
H516	H	0.566778	0.686241	0.261976
H517	H	-0.158042	-0.206318	-0.346206
H518	H	0.175291	0.127015	-0.012873
H519	H	0.508625	0.460348	0.320460
H520	H	-0.702189	-0.849683	-0.157933
H521	H	-0.368856	-0.516350	0.175401
H522	H	-0.035523	-0.183017	0.508734
H523	H	-0.157806	-0.661525	-0.801732
H524	H	0.175527	-0.328191	-0.468398
H525	H	0.508861	0.005142	-0.135065
H526	H	-0.346045	-0.849603	-0.801727
H527	H	-0.012711	-0.516269	-0.468394
H528	H	0.320622	-0.182936	-0.135061
C529	C	-0.321704	-0.449915	-0.182136
C530	C	0.011629	-0.116582	0.151197
C531	C	0.344963	0.216751	0.484531
C532	C	-0.355274	-0.418577	-0.211676
C533	C	-0.021940	-0.085243	0.121657
C534	C	0.311393	0.248090	0.454990
C535	C	-0.388746	-0.391224	-0.178268
C536	C	-0.055413	-0.057890	0.155066
C537	C	0.277920	0.275443	0.488399
H538	H	-0.301736	-0.428571	-0.159381
H539	H	0.031597	-0.095237	0.173953
H540	H	0.364930	0.238096	0.507286
H541	H	-0.341614	-0.473967	-0.162195
H542	H	-0.008281	-0.140634	0.171138
H543	H	0.325052	0.192699	0.504472
H544	H	-0.335365	-0.394528	-0.231608
H545	H	-0.002032	-0.061194	0.101725
H546	H	0.331301	0.272139	0.435058
H547	H	-0.375253	-0.439908	-0.234430
H548	H	-0.041920	-0.106575	0.098903
H549	H	0.291414	0.226758	0.432237
H550	H	-0.408657	-0.415276	-0.158327
H551	H	-0.075323	-0.081942	0.175007
H552	H	0.258010	0.251391	0.508340
H553	H	-0.368774	-0.369882	-0.155514
H554	H	-0.035441	-0.036549	0.177819
H555	H	0.297892	0.296785	0.511153
H556	H	-0.411530	-0.369961	-0.198306
H557	H	-0.078197	-0.036628	0.135028
H558	H	0.255136	0.296706	0.468361
C559	C	-0.321782	-0.825261	-0.557876
C560	C	0.011552	-0.491928	-0.224543
C561	C	0.344885	-0.158595	0.108791
C562	C	-0.351082	-0.854508	-0.522275
C563	C	-0.017749	-0.521175	-0.188941
C564	C	0.315584	-0.187841	0.144392
C565	C	-0.384596	-0.887948	-0.549469
C566	C	-0.051262	-0.554615	-0.216135
C567	C	0.282071	-0.221281	0.117198
H568	H	-0.301845	-0.848106	-0.579192
H569	H	0.031489	-0.514773	-0.245859
H570	H	0.364822	-0.181439	0.087474
H571	H	-0.344585	-0.805257	-0.579151
H572	H	-0.011252	-0.471924	-0.245818
H573	H	0.322081	-0.138591	0.087515
H574	H	-0.328282	-0.874511	-0.501008
H575	H	0.005052	-0.541177	-0.167675
H576	H	0.338385	-0.207844	0.165658
H577	H	-0.371030	-0.831677	-0.500957
H578	H	-0.037697	-0.498344	-0.167623
H579	H	0.295637	-0.165011	0.165710
H580	H	-0.407399	-0.867944	-0.570744
H581	H	-0.074066	-0.534611	-0.237411
H582	H	0.259267	-0.201277	0.095923
H583	H	-0.364655	-0.910789	-0.570784
H584	H	-0.031321	-0.577456	-0.237451
H585	H	0.302012	-0.244122	0.095882
H586	H	-0.404484	-0.907792	-0.525317
H587	H	-0.071150	-0.574459	-0.191984
H588	H	0.262183	-0.241126	0.141349
C589	C	-0.321725	-0.825172	-0.443988
C590	C	0.011608	-0.491838	-0.110655
C591	C	0.344941	-0.158505	0.222679
C592	C	-0.314583	-0.818001	-0.390326
C593	C	0.018751	-0.484668	-0.056993
C594	C	0.352084	-0.151334	0.276340
C595	C	-0.348018	-0.851344	-0.362913
C596	C	-0.014684	-0.518010	-0.029579
C597	C	0.318649	-0.184677	0.303754
H598	H	-0.314118	-0.860331	-0.452881
H599	H	0.019216	-0.526998	-0.119548
H600	H	0.352549	-0.193664	0.213785
H601	H	-0.356863	-0.817486	-0.452894
H602	H	-0.023529	-0.484153	-0.119561
H603	H	0.309804	-0.150820	0.213773
H604	H	-0.279453	-0.825690	-0.381424
H605	H	0.053880	-0.492357	-0.048091
H606	H	0.387213	-0.159023	0.285243
H607	H	-0.322194	-0.782849	-0.381418
H608	H	0.011139	-0.449515	-0.048084
H609	H	0.344473	-0.116182	0.285249
H610	H	-0.383155	-0.843658	-0.371819
H611	H	-0.049822	-0.510325	-0.038485
H612	H	0.283512	-0.176991	0.294848
H613	H	-0.340407	-0.886501	-0.371810
H614	H	-0.007074	-0.553167	-0.038477
H615	H	0.326259	-0.219834	0.294857
H616	H	-0.343179	-0.846479	-0.326501
H617	H	-0.009846	-0.513146	0.006833
H618	H	0.323487	-0.179813	0.340166
H619	H	-0.801293	-0.661405	-0.345979
H620	H	-0.467959	-0.328072	-0.012645
H621	H	-0.134626	0.005262	0.320688
C622	C	-0.321662	0.052503	-0.182125
C623	C	0.011672	0.385836	0.151208
C624	C	0.345005	0.719170	0.484542
C625	C	-0.314525	0.106158	-0.189311
C626	C	0.018808	0.439492	0.144022
C627	C	0.352142	0.772825	0.477355
C628	C	-0.347903	0.133601	-0.155882
C629	C	-0.014570	0.466934	0.177452
C630	C	0.318764	0.800268	0.510785
H631	H	-0.313998	0.043632	-0.146986
H632	H	0.019335	0.376965	0.186348
H633	H	0.352668	0.710299	0.519681
H634	H	-0.356813	0.043599	-0.189721
H635	H	-0.023479	0.376932	0.143613
H636	H	0.309854	0.710265	0.476946
H637	H	-0.279382	0.115059	-0.181712
H638	H	0.053951	0.448393	0.151622
H639	H	0.387284	0.781726	0.484955
H640	H	-0.322192	0.115045	-0.224443
H641	H	0.011141	0.448378	0.108890
H642	H	0.344474	0.781712	0.442223
H643	H	-0.383054	0.124697	-0.163477
H644	H	-0.049720	0.458030	0.169856
H645	H	0.283613	0.791363	0.503189
H646	H	-0.340237	0.124726	-0.120744
H647	H	-0.006904	0.458059	0.212589
H648	H	0.326430	0.791393	0.545922
H649	H	-0.343069	0.170009	-0.160756
H650	H	-0.009736	0.503342	0.172577
H651	H	0.323598	0.836676	0.505910
C652	C	-0.946100	-0.685766	-0.321667
C653	C	-0.612767	-0.352432	0.011667
C654	C	-0.279434	-0.019099	0.345000
C655	C	-0.981713	-0.656470	-0.350910
C656	C	-0.648380	-0.323137	-0.017576
C657	C	-0.315047	0.010197	0.315757
C658	C	-0.954532	-0.622930	-0.384338
C659	C	-0.621199	-0.289597	-0.051005
C660	C	-0.287866	0.043736	0.282329
H661	H	-0.924769	-0.705684	-0.344514
H662	H	-0.591436	-0.372350	-0.011181
H663	H	-0.258102	-0.039017	0.322153
H664	H	-0.924841	-0.662960	-0.301655
H665	H	-0.591508	-0.329627	0.031679
H666	H	-0.258175	0.003706	0.365012
H667	H	-1.002963	-0.679273	-0.370920
H668	H	-0.669630	-0.345939	-0.037587
H669	H	-0.336297	-0.012606	0.295746
H670	H	-1.003046	-0.636542	-0.328076
H671	H	-0.669713	-0.303208	0.005257
H672	H	-0.336379	0.030125	0.338591
H673	H	-0.933273	-0.600125	-0.364326
H674	H	-0.599940	-0.266791	-0.030993
H675	H	-0.266606	0.066542	0.302341
H676	H	-0.933202	-0.642852	-0.407182
H677	H	-0.599868	-0.309519	-0.073849
H678	H	-0.266535	0.023814	0.259484
H679	H	-0.978691	-0.603046	-0.404180
H680	H	-0.645358	-0.269713	-0.070847
H681	H	-0.312025	0.063621	0.262487
H682	H	-0.451063	-0.694725	-0.312519
H683	H	-0.117729	-0.361392	0.020814
H684	H	0.215604	-0.028059	0.354148
H685	H	-0.312558	-0.556412	-0.191133
H686	H	0.020775	-0.223079	0.142201
H687	H	0.354108	0.110254	0.475534
H688	H	-0.702243	-0.661379	-0.345971
H689	H	-0.368909	-0.328045	-0.012638
H690	H	-0.035576	0.005288	0.320695
H691	H	-0.550128	-0.694764	-0.312538
H692	H	-0.216795	-0.361431	0.020795
H693	H	0.116538	-0.028097	0.354128
C694	C	-0.182193	-0.685840	-1.060341
C695	C	0.151140	-0.352506	-0.727008
C696	C	0.484473	-0.019173	-0.393674
C697	C	-0.211791	-0.652305	-1.091662
C698	C	0.121542	-0.318972	-0.758328
C699	C	0.454875	0.014361	-0.424995
C700	C	-0.178440	-0.618819	-1.119001
C701	C	0.154893	-0.285485	-0.785668
C702	C	0.488227	0.047848	-0.452335
H703	H	-0.159404	-0.705799	-1.081697
H704	H	0.173929	-0.372465	-0.748363
H705	H	0.507262	-0.039132	-0.415030
H706	H	-0.162286	-0.665904	-1.036281
H707	H	0.171047	-0.332571	-0.702948
H708	H	0.504380	0.000763	-0.369614
H709	H	-0.231689	-0.672239	-1.115719
H710	H	0.101644	-0.338906	-0.782385
H711	H	0.434977	-0.005572	-0.449052
H712	H	-0.234579	-0.632335	-1.070319
H713	H	0.098754	-0.299002	-0.736986
H714	H	0.432088	0.034332	-0.403653
H715	H	-0.158533	-0.598883	-1.094942
H716	H	0.174800	-0.265550	-0.761608
H717	H	0.508134	0.067784	-0.428275
H718	H	-0.155652	-0.638782	-1.140354
H719	H	0.177681	-0.305449	-0.807021
H720	H	0.511014	0.027885	-0.473687
H721	H	-0.198517	-0.596059	-1.140252
H722	H	0.134816	-0.262725	-0.806919
H723	H	0.468150	0.070608	-0.473585
H724	H	-0.345992	-0.305200	-0.157662
H725	H	-0.012659	0.028133	0.175672
H726	H	0.320675	0.361466	0.509005
C727	C	-1.059937	-0.825458	-0.182408
C728	C	-0.726604	-0.492125	0.150925
C729	C	-0.393271	-0.158791	0.484258
C730	C	-1.113601	-0.818340	-0.189598
C731	C	-0.780268	-0.485007	0.143736
C732	C	-0.446934	-0.151674	0.477069
C733	C	-1.141005	-0.851848	-0.156319
C734	C	-0.807671	-0.518514	0.177015
C735	C	-0.474338	-0.185181	0.510348
H736	H	-1.051103	-0.817901	-0.147233
H737	H	-0.717770	-0.484568	0.186100
H738	H	-0.384437	-0.151235	0.519433
H739	H	-1.050964	-0.860577	-0.190140
H740	H	-0.717630	-0.527243	0.143193
H741	H	-0.384297	-0.193910	0.476526
H742	H	-1.122571	-0.783229	-0.181862
H743	H	-0.789238	-0.449896	0.151471
H744	H	-0.455904	-0.116563	0.484805
H745	H	-1.122451	-0.825901	-0.224766
H746	H	-0.789117	-0.492567	0.108568
H747	H	-0.455784	-0.159234	0.441901
H748	H	-1.132031	-0.886967	-0.164051
H749	H	-0.798698	-0.553633	0.169283
H750	H	-0.465364	-0.220300	0.502616
H751	H	-1.132166	-0.844288	-0.121146
H752	H	-0.798833	-0.510955	0.212188
H753	H	-0.465500	-0.177622	0.545521
H754	H	-1.177418	-0.847026	-0.161195
H755	H	-0.844085	-0.513693	0.172138
H756	H	-0.510751	-0.180360	0.505471
H757	H	-0.346002	-0.206151	-0.157673
H758	H	-0.012669	0.127183	0.175661
H759	H	0.320664	0.460516	0.508994
C760	C	-0.321679	-0.825304	-1.060223
C761	C	0.011655	-0.491971	-0.726890
C762	C	0.344988	-0.158638	-0.393556
C763	C	-0.350984	-0.854549	-1.024624
C764	C	-0.017651	-0.521215	-0.691291
C765	C	0.315682	-0.187882	-0.357957
C766	C	-0.384495	-0.887989	-1.051821
C767	C	-0.051162	-0.554656	-0.718487
C768	C	0.282172	-0.221322	-0.385154
H769	H	-0.301739	-0.848150	-1.081536
H770	H	0.031594	-0.514817	-0.748203
H771	H	0.364927	-0.181484	-0.414869
H772	H	-0.344479	-0.805301	-1.081502
H773	H	-0.011146	-0.471967	-0.748169
H774	H	0.322188	-0.138634	-0.414835
H775	H	-0.328187	-0.874551	-1.003354
H776	H	0.005147	-0.541217	-0.670020
H777	H	0.338480	-0.207884	-0.336687
H778	H	-0.370934	-0.831716	-1.003310
H779	H	-0.037601	-0.498383	-0.669977
H780	H	0.295732	-0.165050	-0.336643
H781	H	-0.407295	-0.867985	-1.073100
H782	H	-0.073962	-0.534652	-0.739767
H783	H	0.259371	-0.201319	-0.406433
H784	H	-0.364551	-0.910832	-1.073133
H785	H	-0.031218	-0.577498	-0.739799
H786	H	0.302115	-0.244165	-0.406466
H787	H	-0.404386	-0.907832	-1.027671
H788	H	-0.071053	-0.574498	-0.694338
H789	H	0.262280	-0.241165	-0.361004
H790	H	-0.191294	-0.694929	-0.451499
H791	H	0.142040	-0.361595	-0.118165
H792	H	0.475373	-0.028262	0.215168
H793	H	-0.191401	-0.556526	-0.312689
H794	H	0.141932	-0.223192	0.020644
H795	H	0.475266	0.110141	0.353977
C796	C	-0.321715	-0.825187	-0.946412
C797	C	0.011618	-0.491854	-0.613078
C798	C	0.344951	-0.158521	-0.279745
C799	C	-0.355240	-0.795560	-0.915058
C800	C	-0.021907	-0.462227	-0.581725
C801	C	0.311427	-0.128893	-0.248392
C802	C	-0.388768	-0.828882	-0.887734
C803	C	-0.055435	-0.495549	-0.554401
C804	C	0.277898	-0.162215	-0.221067
H805	H	-0.301786	-0.847993	-0.925080
H806	H	0.031547	-0.514659	-0.591746
H807	H	0.364881	-0.181326	-0.258413
H808	H	-0.341656	-0.845078	-0.970481
H809	H	-0.008323	-0.511745	-0.637147
H810	H	0.325011	-0.178411	-0.303814
H811	H	-0.335302	-0.775678	-0.890992
H812	H	-0.001968	-0.442345	-0.557659
H813	H	0.331365	-0.109012	-0.224326
H814	H	-0.375181	-0.772756	-0.936378
H815	H	-0.041847	-0.439423	-0.603044
H816	H	0.291486	-0.106089	-0.269711
H817	H	-0.408709	-0.848773	-0.911803
H818	H	-0.075376	-0.515440	-0.578470
H819	H	0.257958	-0.182106	-0.245137
H820	H	-0.368835	-0.851686	-0.866405
H821	H	-0.035502	-0.518353	-0.533072
H822	H	0.297832	-0.185019	-0.199738
H823	H	-0.411522	-0.808785	-0.866461
H824	H	-0.078189	-0.475452	-0.533128
H825	H	0.255145	-0.142118	-0.199795
C826	C	-0.182289	-0.685793	-0.557987
C827	C	0.151045	-0.352460	-0.224654
C828	C	0.484378	-0.019127	0.108680
C829	C	-0.211876	-0.652247	-0.589305
C830	C	0.121457	-0.318914	-0.255972
C831	C	0.454791	0.014419	0.077362
C832	C	-0.178515	-0.618756	-0.616627
C833	C	0.154818	-0.285423	-0.283294
C834	C	0.488151	0.047911	0.050039
H835	H	-0.159496	-0.705748	-0.579343
H836	H	0.173837	-0.372415	-0.246009
H837	H	0.507170	-0.039082	0.087324
H838	H	-0.162386	-0.665866	-0.533917
H839	H	0.170948	-0.332533	-0.200583
H840	H	0.504281	0.000800	0.132750
H841	H	-0.231770	-0.672172	-0.613373
H842	H	0.101563	-0.338839	-0.280039
H843	H	0.434896	-0.005506	0.053294
H844	H	-0.234667	-0.632281	-0.567962
H845	H	0.098666	-0.298948	-0.234629
H846	H	0.431999	0.034386	0.098704
H847	H	-0.158612	-0.598829	-0.592557
H848	H	0.174721	-0.265496	-0.259224
H849	H	0.508054	0.067838	0.074109
H850	H	-0.155724	-0.638715	-0.637980
H851	H	0.177609	-0.305382	-0.304647
H852	H	0.510942	0.027951	0.028686
H853	H	-0.198586	-0.595988	-0.637876
H854	H	0.134748	-0.262655	-0.304543
H855	H	0.468081	0.070679	0.028790
H856	H	-0.157820	-0.661516	-0.702682
H857	H	0.175513	-0.328182	-0.369348
H858	H	0.508847	0.005151	-0.036015
H859	H	-0.158036	-0.305364	-0.346204
H860	H	0.175298	0.027969	-0.012871
H861	H	0.508631	0.361303	0.320462
H862	H	-0.312607	-0.054075	-0.191152
H863	H	0.020726	0.279258	0.142181
H864	H	0.354060	0.612591	0.475514
C865	C	-0.182327	-0.450149	-0.321851
C866	C	0.151007	-0.116815	0.011483
C867	C	0.484340	0.216518	0.344816
C868	C	-0.153093	-0.485776	-0.351190
C869	C	0.180241	-0.152442	-0.017856
C870	C	0.513574	0.180891	0.315477
C871	C	-0.119680	-0.458611	-0.384763
C872	C	0.213653	-0.125277	-0.051430
C873	C	0.546987	0.208056	0.281903
H874	H	-0.159473	-0.428845	-0.301955
H875	H	0.173861	-0.095511	0.031378
H876	H	0.507194	0.237822	0.364711
H877	H	-0.202350	-0.428863	-0.344627
H878	H	0.130984	-0.095530	-0.011294
H879	H	0.464317	0.237803	0.322039
H880	H	-0.133071	-0.507052	-0.328416
H881	H	0.200262	-0.173719	0.004917
H882	H	0.533596	0.159615	0.338251
H883	H	-0.175933	-0.507081	-0.371096
H884	H	0.157401	-0.173747	-0.037763
H885	H	0.490734	0.159586	0.295571
H886	H	-0.139703	-0.437325	-0.407540
H887	H	0.193630	-0.103992	-0.074207
H888	H	0.526964	0.229341	0.259127
H889	H	-0.096830	-0.437308	-0.364864
H890	H	0.236504	-0.103974	-0.031530
H891	H	0.569837	0.229359	0.301803
H892	H	-0.099844	-0.482779	-0.404677
H893	H	0.233489	-0.149446	-0.071344
H894	H	0.566822	0.183888	0.261989
H895	H	-0.451025	-0.816127	-0.191304
H896	H	-0.117692	-0.482794	0.142029
H897	H	0.215642	-0.149460	0.475362
