data_functionalizedCrystal
_audit_creation_method	'MofGen! by Chris Wilmer'
_symmetry_space_group_name_H-M	'P1'
_symmetry_Int_Tables_number	1
_symmetry_cell_setting	triclinic
loop_
_symmetry_equiv_pos_as_xyz
  x,y,z
_cell_length_a	13.897449
_cell_length_b	13.897448
_cell_length_c	10.686551
_cell_angle_alpha	85.592616
_cell_angle_beta	85.604174
_cell_angle_gamma	90.018972
loop_
_atom_site_label
_atom_site_type_symbol
_atom_site_fract_x
_atom_site_fract_y
_atom_site_fract_z
Zn1	Zn	1.516569	-0.342068	-0.713463
Zn2	Zn	2.016569	0.157932	-0.213463
Zn3	Zn	1.504081	-0.515777	-0.502453
Zn4	Zn	2.004081	-0.015777	-0.002453
Zn5	Zn	1.342877	-0.354500	-0.502476
Zn6	Zn	1.842877	0.145500	-0.002476
Zn7	Zn	1.355236	-0.503330	-0.713403
Zn8	Zn	1.855236	-0.003330	-0.213403
O9	O	1.429691	-0.428919	-0.607949
O10	O	1.929691	0.071081	-0.107949
O11	O	1.649895	-0.365117	-0.685488
O12	O	2.149895	0.134883	-0.185488
O13	O	1.472298	-0.504795	-0.325875
O14	O	1.972298	-0.004795	0.174125
O15	O	1.365972	-0.217867	-0.530498
O16	O	1.865972	0.282133	-0.030498
O17	O	1.640720	-0.492741	-0.530460
O18	O	2.140720	0.007259	-0.030460
O19	O	1.493583	-0.208734	-0.685510
O20	O	1.993583	0.291266	-0.185510
O21	O	1.353863	-0.386305	-0.325891
O22	O	1.853863	0.113695	0.174109
O23	O	1.209534	-0.374236	-0.530440
O24	O	1.709534	0.125764	-0.030440
O25	O	1.387036	-0.471527	-0.889993
O26	O	1.887036	0.028473	-0.389993
O27	O	1.218614	-0.483581	-0.685407
O28	O	1.718614	0.016419	-0.185407
O29	O	1.505567	-0.353048	-0.890037
O30	O	2.005567	0.146952	-0.390037
O31	O	1.484282	-0.649110	-0.530402
O32	O	1.984282	-0.149110	-0.030402
O33	O	1.374927	-0.639965	-0.685385
O34	O	1.874927	-0.139965	-0.185385
C35	C	1.179075	-0.428908	-0.607920
C36	C	1.679075	0.071092	-0.107920
C37	C	1.071862	-0.428924	-0.607938
C38	C	1.571862	0.071076	-0.107938
C39	C	1.429618	-0.679535	-0.607912
C40	C	1.929618	-0.179535	-0.107912
C41	C	1.429678	-0.786748	-0.607939
C42	C	1.929678	-0.286748	-0.107939
C43	C	0.875569	-0.428926	-0.607971
C44	C	1.375569	0.071074	-0.107971
C45	C	0.984800	-0.428922	-0.607949
C46	C	1.484800	0.071078	-0.107949
C47	C	1.429784	-0.983038	-0.608018
C48	C	1.929784	-0.483038	-0.108018
C49	C	1.429723	-0.873808	-0.607978
C50	C	1.929723	-0.373808	-0.107978
C51	C	1.681286	-0.428931	-0.607978
C52	C	2.181286	0.071069	-0.107978
C53	C	1.788500	-0.428936	-0.607991
C54	C	2.288500	0.071064	-0.107991
C55	C	1.449073	-0.409512	-0.937081
C56	C	1.949073	0.090488	-0.437081
C57	C	1.457333	-0.401242	-1.077337
C58	C	1.957333	0.098758	-0.577337
C59	C	1.429792	-0.177322	-0.608013
C60	C	1.929792	0.322678	-0.108013
C61	C	1.429835	-0.070107	-0.608040
C62	C	1.929835	0.429893	-0.108040
C63	C	1.410440	-0.448180	-0.280097
C64	C	1.910440	0.051820	0.219903
C65	C	1.402367	-0.456178	-0.139842
C66	C	1.902367	0.043822	0.360158
H67	H	1.348993	-0.509541	-1.086054
H68	H	1.848993	-0.009541	-0.586054
C69	C	1.529451	-0.329157	-1.149997
C70	C	2.029451	0.170843	-0.649997
H71	H	1.525728	-0.332864	-1.237896
H72	H	2.025728	0.167136	-0.737896
H73	H	1.593000	-0.344534	-1.128457
H74	H	2.093000	0.155466	-0.628457
H75	H	1.514102	-0.265596	-1.128478
H76	H	2.014102	0.234404	-0.628478
