data_functionalizedCrystal
_audit_creation_method	'MofGen! by Chris Wilmer'
_symmetry_space_group_name_H-M	'P1'
_symmetry_Int_Tables_number	1
_symmetry_cell_setting	triclinic
loop_
_symmetry_equiv_pos_as_xyz
  x,y,z
_cell_length_a	10.654541
_cell_length_b	19.188930
_cell_length_c	9.730217
_cell_angle_alpha	89.991643
_cell_angle_beta	89.999932
_cell_angle_gamma	83.814355
loop_
_atom_site_label
_atom_site_type_symbol
_atom_site_fract_x
_atom_site_fract_y
_atom_site_fract_z
O1	O	1.665764	0.098053	-0.114265
O2	O	1.300087	0.107397	-0.114279
O3	O	1.493478	0.001138	-0.114245
O4	O	1.472373	0.204312	-0.114299
O5	O	1.493472	0.001137	0.114335
O6	O	1.300081	0.107396	0.114301
O7	O	1.665758	0.098052	0.114315
Zn8	Zn	1.482918	0.102724	0.150600
Zn9	Zn	1.482926	0.102725	-0.150564
O10	O	1.472367	0.204311	0.114281
C11	C	1.253300	0.106711	0.000010
C12	C	1.113900	0.104659	0.000006
C13	C	1.492792	-0.024878	0.000049
C14	C	1.490740	-0.102396	0.000061
C15	C	1.083241	0.231721	-0.000045
C16	C	1.002423	0.294284	-0.000076
C17	C	0.871446	0.292352	-0.000077
C18	C	0.821285	0.227849	-0.000043
C19	C	0.902103	0.165286	-0.000012
C20	C	1.033082	0.167225	-0.000015
C21	C	0.932762	0.038226	0.000049
C22	C	1.063740	0.040156	0.000040
C23	C	0.882602	-0.026277	0.000083
C24	C	0.963421	-0.088842	0.000104
C25	C	1.094405	-0.086908	0.000104
C26	C	1.144558	-0.022408	0.000071
C27	C	1.604215	-0.146578	0.000072
C28	C	1.602288	-0.219414	0.000050
C29	C	1.486878	-0.248065	0.000044
C30	C	1.373388	-0.203873	0.000026
C31	C	1.375319	-0.131038	0.000034
N32	N	1.398660	-0.356647	0.077831
N33	N	1.396833	-0.425838	0.077826
C34	C	1.481054	-0.467512	0.000016
N35	N	1.567190	-0.437383	-0.077771
N36	N	1.569020	-0.368186	-0.077760
C37	C	1.484772	-0.327041	0.000034
C38	C	1.592448	-0.590672	0.000001
C39	C	1.590515	-0.663510	-0.000029
C40	C	1.361612	-0.647967	-0.000039
C41	C	1.363548	-0.575131	-0.000023
C42	C	1.478969	-0.546488	0.000004
C43	C	1.712544	0.098738	0.000023
C44	C	1.851944	0.100790	0.000018
C45	C	1.473053	0.230327	-0.000016
C46	C	1.475105	0.307845	-0.000037
N47	N	1.482922	0.102723	0.356137
N48	N	1.482932	0.102721	-0.356101
C49	C	1.654239	0.008658	0.356157
C50	C	1.739906	-0.038372	0.428108
C51	C	1.739919	-0.038373	0.571987
C52	C	1.654253	0.008661	0.643920
C53	C	1.568586	0.055691	0.571970
C54	C	1.568585	0.055688	0.428087
C55	C	1.397265	0.149751	0.571949
C56	C	1.397257	0.149756	0.428069
C57	C	1.311600	0.196785	0.643882
C58	C	1.225937	0.243819	0.571932
C59	C	1.225928	0.243818	0.428043
C60	C	1.311590	0.196786	0.356119
H61	H	1.189888	0.233300	-0.000075
Cl62	Cl	0.656627	0.225423	-0.000020
Cl63	Cl	1.737545	-0.554661	0.000043
H64	H	1.282910	-0.095064	0.000026
H65	H	1.654248	0.008659	0.239003
Cl66	Cl	1.311592	0.196783	0.175240
Cl67	Cl	1.733184	-0.719055	-0.000025
H68	H	0.775953	-0.027846	0.000090
Cl69	Cl	0.900355	-0.169923	0.000159
H70	H	1.043278	0.346802	-0.000101
Cl71	Cl	1.847592	-0.097500	0.337676
H72	H	0.805642	0.343297	-0.000093
Cl73	Cl	1.195995	-0.165565	0.000153
Cl74	Cl	1.220884	-0.519584	-0.000030
Cl75	Cl	1.309214	-0.019970	0.000063
H76	H	1.809672	-0.076671	0.630570
Cl77	Cl	1.228302	-0.239890	0.000008
Cl78	Cl	1.749316	-0.110574	0.000067
Cl79	Cl	1.744954	-0.274968	0.000062
H80	H	1.267643	-0.671293	-0.000050
Cl81	Cl	1.654254	0.008651	0.824799
Cl82	Cl	1.311607	0.196783	0.824761
Cl83	Cl	1.118247	0.302937	0.662365
H84	H	1.156163	0.282114	0.369469
