data_functionalizedCrystal
_audit_creation_method	'MofGen! by Chris Wilmer'
_symmetry_space_group_name_H-M	'P1'
_symmetry_Int_Tables_number	1
_symmetry_cell_setting	triclinic
loop_
_symmetry_equiv_pos_as_xyz
  x,y,z
_cell_length_a	18.050591
_cell_length_b	18.050590
_cell_length_c	16.120256
_cell_angle_alpha	92.872767
_cell_angle_beta	92.873632
_cell_angle_gamma	90.015000
loop_
_atom_site_label
_atom_site_type_symbol
_atom_site_fract_x
_atom_site_fract_y
_atom_site_fract_z
Zn1	Zn	1.114083	-0.317057	-0.471484
Zn2	Zn	1.364083	-0.067057	-0.221484
Zn3	Zn	1.614083	0.182943	0.028516
Zn4	Zn	1.864083	0.432943	0.278516
Zn5	Zn	1.120301	-0.434948	-0.332071
Zn6	Zn	1.370301	-0.184948	-0.082071
Zn7	Zn	1.620301	0.065052	0.167929
Zn8	Zn	1.870301	0.315052	0.417929
Zn9	Zn	0.996188	-0.310769	-0.332076
Zn10	Zn	1.246188	-0.060769	-0.082076
Zn11	Zn	1.496188	0.189231	0.167924
Zn12	Zn	1.746188	0.439231	0.417924
Zn13	Zn	0.989874	-0.441199	-0.471424
Zn14	Zn	1.239874	-0.191199	-0.221424
Zn15	Zn	1.489874	0.058801	0.028576
Zn16	Zn	1.739874	0.308801	0.278576
O17	O	1.055111	-0.375993	-0.401764
O18	O	1.305111	-0.125993	-0.151764
O19	O	1.555111	0.124007	0.098236
O20	O	1.805111	0.374007	0.348236
O21	O	1.218831	-0.332711	-0.453014
O22	O	1.468831	-0.082711	-0.203014
O23	O	1.718831	0.167289	0.046986
O24	O	1.968831	0.417289	0.296986
O25	O	1.109082	-0.413227	-0.215409
O26	O	1.359082	-0.163227	0.034591
O27	O	1.609082	0.086773	0.284591
O28	O	1.859082	0.336773	0.534591
O29	O	1.011867	-0.207679	-0.350597
O30	O	1.261867	0.042321	-0.100597
O31	O	1.511867	0.292321	0.149403
O32	O	1.761867	0.542321	0.399403
O33	O	1.223399	-0.419325	-0.350587
O34	O	1.473399	-0.169325	-0.100587
O35	O	1.723399	0.080675	0.149413
O36	O	1.973399	0.330675	0.399413
O37	O	1.098484	-0.212299	-0.453019
O38	O	1.348484	0.037701	-0.203019
O39	O	1.598484	0.287701	0.046981
O40	O	1.848484	0.537701	0.296981
O41	O	1.017897	-0.321994	-0.215413
O42	O	1.267897	-0.071994	0.034587
O43	O	1.517897	0.178006	0.284587
O44	O	1.767897	0.428006	0.534587
O45	O	0.891427	-0.328055	-0.350539
O46	O	1.141427	-0.078055	-0.100539
O47	O	1.391427	0.171945	0.149461
O48	O	1.641427	0.421945	0.399461
O49	O	1.001105	-0.429979	-0.588095
O50	O	1.251105	-0.179979	-0.338095
O51	O	1.501105	0.070021	-0.088095
O52	O	1.751105	0.320021	0.161905
O53	O	0.886788	-0.423882	-0.452917
O54	O	1.136788	-0.173882	-0.202917
O55	O	1.386788	0.076118	0.047083
O56	O	1.636788	0.326118	0.297083
O57	O	1.092361	-0.338772	-0.588139
O58	O	1.342361	-0.088772	-0.338139
O59	O	1.592361	0.161228	-0.088139
O60	O	1.842361	0.411228	0.161861
O61	O	1.102959	-0.539700	-0.350528
O62	O	1.352959	-0.289700	-0.100528
O63	O	1.602959	-0.039700	0.149472
O64	O	1.852959	0.210300	0.399472
O65	O	1.007135	-0.544293	-0.452911
O66	O	1.257135	-0.294293	-0.202911
O67	O	1.507135	-0.044293	0.047089
O68	O	1.757135	0.205707	0.297089
C69	C	0.862161	-0.375965	-0.401722
C70	C	1.112161	-0.125965	-0.151722
C71	C	1.362161	0.124035	0.098278
C72	C	1.612161	0.374035	0.348278
C73	C	0.779615	-0.375972	-0.401724
C74	C	1.029615	-0.125972	-0.151724
C75	C	1.279615	0.124028	0.098276
C76	C	1.529615	0.374028	0.348276
C77	C	0.533285	-0.323816	-0.346183
C78	C	0.783285	-0.073816	-0.096183
C79	C	1.033285	0.176184	0.153817
C80	C	1.283285	0.426184	0.403817
C81	C	0.579283	-0.309169	-0.422266
C82	C	0.829283	-0.059169	-0.172266
C83	C	1.079283	0.190831	0.077734
C84	C	1.329283	0.440831	0.327734
C85	C	0.482492	-0.376013	-0.401792
C86	C	0.732492	-0.126013	-0.151792
C87	C	0.982492	0.123987	0.098208
C88	C	1.232492	0.373987	0.348208
C89	C	0.583576	-0.390605	-0.325679
C90	C	0.833576	-0.140605	-0.075679
C91	C	1.083576	0.109395	0.174321
C92	C	1.333576	0.359395	0.424321
C93	C	0.628478	-0.375991	-0.401755
C94	C	0.878478	-0.125991	-0.151755
C95	C	1.128478	0.124009	0.098245
C96	C	1.378478	0.374009	0.348245
C97	C	0.527401	-0.361332	-0.477917
C98	C	0.777401	-0.111332	-0.227917
C99	C	1.027401	0.138668	0.022083
C100	C	1.277401	0.388668	0.272083
C101	C	0.531692	-0.442798	-0.381278
C102	C	0.781692	-0.192798	-0.131278
C103	C	1.031692	0.057202	0.118722
C104	C	1.281692	0.307202	0.368722
C105	C	0.577666	-0.428179	-0.457415
C106	C	0.827666	-0.178179	-0.207415
C107	C	1.077666	0.071821	0.042585
C108	C	1.327666	0.321821	0.292585
C109	C	0.398392	-0.376024	-0.401813
C110	C	0.648392	-0.126024	-0.151813
C111	C	0.898392	0.123976	0.098187
C112	C	1.148392	0.373976	0.348187
C113	C	0.712575	-0.375980	-0.401743
C114	C	0.962575	-0.125980	-0.151743
C115	C	1.212575	0.124020	0.098257
C116	C	1.462575	0.374020	0.348257
C117	C	1.055056	-0.568944	-0.401731
C118	C	1.305056	-0.318944	-0.151731
C119	C	1.555056	-0.068944	0.098269
C120	C	1.805056	0.181056	0.348269
C121	C	1.055099	-0.651490	-0.401744
C122	C	1.305099	-0.401490	-0.151744
C123	C	1.555099	-0.151490	0.098256
C124	C	1.805099	0.098510	0.348256
C125	C	1.107307	-0.848420	-0.346146
C126	C	1.357307	-0.598420	-0.096146
C127	C	1.607307	-0.348420	0.153854
C128	C	1.857307	-0.098420	0.403854
C129	C	1.122012	-0.901193	-0.422236
C130	C	1.372012	-0.651193	-0.172236
C131	C	1.622012	-0.401193	0.077764
C132	C	1.872012	-0.151193	0.327764
C133	C	1.055139	-0.802622	-0.401778
C134	C	1.305139	-0.552622	-0.151778
C135	C	1.555139	-0.302622	0.098222
C136	C	1.805139	-0.052622	0.348222
C137	C	1.040509	-0.896931	-0.325722
C138	C	1.290509	-0.646931	-0.075722
C139	C	1.540509	-0.396931	0.174278
C140	C	1.790509	-0.146931	0.424278
C141	C	1.055180	-0.948608	-0.401803
C142	C	1.305180	-0.698608	-0.151803
C143	C	1.555180	-0.448608	0.098197
C144	C	1.805180	-0.198608	0.348197
C145	C	1.069877	-0.854310	-0.477907
C146	C	1.319877	-0.604310	-0.227907
C147	C	1.569877	-0.354310	0.022093
C148	C	1.819877	-0.104310	0.272093
C149	C	0.988344	-0.850041	-0.381342
C150	C	1.238344	-0.600041	-0.131342
C151	C	1.488344	-0.350041	0.118658
C152	C	1.738344	-0.100041	0.368658
C153	C	1.003021	-0.902795	-0.457484
C154	C	1.253021	-0.652795	-0.207484
C155	C	1.503021	-0.402795	0.042516
C156	C	1.753021	-0.152795	0.292516
C157	C	1.055118	-0.718523	-0.401762
C158	C	1.305118	-0.468523	-0.151762
C159	C	1.555118	-0.218523	0.098238
C160	C	1.805118	0.031477	0.348238
C161	C	1.055201	-1.032706	-0.401827
C162	C	1.305201	-0.782706	-0.151827
C163	C	1.555201	-0.532706	0.098173
C164	C	1.805201	-0.282706	0.348173
C165	C	1.248815	-0.376022	-0.401806
C166	C	1.498815	-0.126022	-0.151806
C167	C	1.748815	0.123978	0.098194
C168	C	1.998815	0.373978	0.348194
C169	C	1.331360	-0.376034	-0.401824
C170	C	1.581360	-0.126034	-0.151824
C171	C	1.831360	0.123966	0.098176
C172	C	2.081360	0.373966	0.348176
C173	C	1.045335	-0.385774	-0.619212
C174	C	1.295335	-0.135774	-0.369212
C175	C	1.545335	0.114226	-0.119212
C176	C	1.795335	0.364226	0.130788
C177	C	1.041169	-0.389942	-0.711876
C178	C	1.291169	-0.139942	-0.461876
C179	C	1.541169	0.110058	-0.211876
C180	C	1.791169	0.360058	0.038124
C181	C	1.055186	-0.182290	-0.401816
C182	C	1.305186	0.067710	-0.151816
C183	C	1.555186	0.317710	0.098184
C184	C	1.805186	0.567710	0.348184
C185	C	1.055218	-0.099745	-0.401838
C186	C	1.305218	0.150255	-0.151838
C187	C	1.555218	0.400255	0.098162
C188	C	1.805218	0.650255	0.348162
C189	C	1.076835	-0.354237	-0.922842
C190	C	1.326835	-0.104237	-0.672842
C191	C	1.576835	0.145763	-0.422842
C192	C	1.826835	0.395763	-0.172842
C193	C	1.033539	-0.397521	-0.881527
C194	C	1.283539	-0.147521	-0.631527
C195	C	1.533539	0.102479	-0.381527
C196	C	1.783539	0.352479	-0.131527
C197	C	1.037786	-0.393303	-0.787124
C198	C	1.287786	-0.143303	-0.537124
C199	C	1.537786	0.106697	-0.287124
C200	C	1.787786	0.356697	-0.037124
C201	C	1.072588	-0.358455	-1.017253
C202	C	1.322588	-0.108455	-0.767253
C203	C	1.572588	0.141545	-0.517253
C204	C	1.822588	0.391545	-0.267253
C205	C	1.064892	-0.366196	-0.185162
C206	C	1.314892	-0.116196	0.064838
C207	C	1.564892	0.133804	0.314838
C208	C	1.814892	0.383804	0.564838
C209	C	1.069202	-0.361819	-0.092499
C210	C	1.319202	-0.111819	0.157501
C211	C	1.569202	0.138181	0.407501
C212	C	1.819202	0.388181	0.657501
H213	H	0.510743	-0.499268	-0.363916
H214	H	0.760743	-0.249268	-0.113916
H215	H	1.010743	0.000732	0.136084
H216	H	1.260743	0.250732	0.386084
C217	C	0.979158	-0.451867	-0.929514
C218	C	1.229158	-0.201867	-0.679514
C219	C	1.479158	0.048133	-0.429514
C220	C	1.729158	0.298133	-0.179514
H221	H	0.952550	-0.478468	-0.891177
H222	H	1.202550	-0.228468	-0.641177
H223	H	1.452550	0.021532	-0.391177
H224	H	1.702550	0.271532	-0.141177
H225	H	1.006059	-0.485715	-0.963493
H226	H	1.256059	-0.235715	-0.713493
H227	H	1.506059	0.014285	-0.463493
H228	H	1.756059	0.264285	-0.213493
H229	H	0.945309	-0.424940	-0.963471
H230	H	1.195309	-0.174940	-0.713471
H231	H	1.445309	0.075060	-0.463471
H232	H	1.695309	0.325060	-0.213471
C233	C	0.506836	-0.264163	-0.282759
C234	C	0.756836	-0.014163	-0.032759
C235	C	1.006836	0.235837	0.217241
C236	C	1.256836	0.485837	0.467241
H237	H	0.523102	-0.216732	-0.297461
H238	H	0.773102	0.033268	-0.047461
H239	H	1.023102	0.283268	0.202539
H240	H	1.273102	0.533268	0.452539
H241	H	0.526874	-0.274069	-0.228840
H242	H	0.776874	-0.024069	0.021160
H243	H	1.026874	0.225931	0.271160
H244	H	1.276874	0.475931	0.521160
H245	H	0.454206	-0.264877	-0.282863
H246	H	0.704206	-0.014877	-0.032863
H247	H	0.954206	0.235123	0.217137
H248	H	1.204206	0.485123	0.467137
C249	C	0.607570	-0.232863	-0.445691
C250	C	0.857570	0.017137	-0.195691
C251	C	1.107570	0.267137	0.054309
C252	C	1.357570	0.517137	0.304309
H253	H	0.592445	-0.195837	-0.406139
H254	H	0.842445	0.054163	-0.156139
H255	H	1.092445	0.304163	0.093861
H256	H	1.342445	0.554163	0.343861
H257	H	0.587542	-0.222128	-0.499365
H258	H	0.837542	0.027872	-0.249365
H259	H	1.087542	0.277872	0.000635
H260	H	1.337542	0.527872	0.250635
H261	H	0.660181	-0.233545	-0.445999
H262	H	0.910181	0.016455	-0.195999
H263	H	1.160181	0.266455	0.054001
H264	H	1.410181	0.516455	0.304001
C265	C	1.131216	-0.299901	-0.874855
C266	C	1.381216	-0.049901	-0.624855
C267	C	1.631216	0.200099	-0.374855
C268	C	1.881216	0.450099	-0.124855
H269	H	1.157822	-0.273292	-0.913189
H270	H	1.407822	-0.023292	-0.663189
H271	H	1.657822	0.226708	-0.413189
H272	H	1.907822	0.476708	-0.163189
H273	H	1.165057	-0.326828	-0.840896
H274	H	1.415057	-0.076828	-0.590896
H275	H	1.665057	0.173172	-0.340896
H276	H	1.915057	0.423172	-0.090896
H277	H	1.104313	-0.266048	-0.840877
H278	H	1.354313	-0.016048	-0.590877
H279	H	1.604313	0.233952	-0.340877
H280	H	1.854313	0.483952	-0.090877
C281	C	0.616754	-0.407299	-0.238748
C282	C	0.866754	-0.157299	0.011252
C283	C	1.116754	0.092701	0.261252
C284	C	1.366754	0.342701	0.511252
H285	H	0.601607	-0.370175	-0.199321
H286	H	0.851607	-0.120175	0.050679
H287	H	1.101607	0.129825	0.300679
H288	H	1.351607	0.379825	0.550679
H289	H	0.669342	-0.407622	-0.239473
H290	H	0.919342	-0.157622	0.010527
H291	H	1.169342	0.092378	0.260527
H292	H	1.419342	0.342378	0.510527
H293	H	0.599763	-0.454394	-0.223810
H294	H	0.849763	-0.204394	0.026190
H295	H	1.099763	0.045606	0.276190
H296	H	1.349763	0.295606	0.526190
H297	H	0.502928	-0.348915	-0.542287
H298	H	0.752928	-0.098915	-0.292287
H299	H	1.002928	0.151085	-0.042287
H300	H	1.252928	0.401085	0.207713
H301	H	0.597095	-0.472313	-0.504480
H302	H	0.847095	-0.222313	-0.254480
H303	H	1.097095	0.027687	-0.004480
H304	H	1.347095	0.277687	0.245520
C305	C	1.166917	-0.816272	-0.282661
C306	C	1.416917	-0.566272	-0.032661
C307	C	1.666917	-0.316272	0.217339
C308	C	1.916917	-0.066272	0.467339
H309	H	1.214361	-0.833816	-0.297330
H310	H	1.464361	-0.583816	-0.047330
H311	H	1.714361	-0.333816	0.202670
H312	H	1.964361	-0.083816	0.452670
H313	H	1.156977	-0.831510	-0.228761
H314	H	1.406977	-0.581510	0.021239
H315	H	1.656977	-0.331510	0.271239
H316	H	1.906977	-0.081510	0.521239
H317	H	1.166196	-0.763651	-0.282743
H318	H	1.416196	-0.513651	-0.032743
H319	H	1.666196	-0.263651	0.217257
H320	H	1.916196	-0.013651	0.467257
H321	H	1.178516	-0.923634	-0.439537
H322	H	1.428516	-0.673634	-0.189537
H323	H	1.678516	-0.423634	0.060463
H324	H	1.928516	-0.173634	0.310463
H325	H	1.082209	-0.835570	-0.542292
H326	H	1.332209	-0.585570	-0.292292
H327	H	1.582209	-0.335570	-0.042292
H328	H	1.832209	-0.085570	0.207708
H329	H	0.958919	-0.926454	-0.504595
H330	H	1.208919	-0.676454	-0.254595
H331	H	1.458919	-0.426454	-0.004595
H332	H	1.708919	-0.176454	0.245405
C333	C	0.912039	-0.819694	-0.357939
C334	C	1.162039	-0.569694	-0.107939
C335	C	1.412039	-0.319694	0.142061
C336	C	1.662039	-0.069694	0.392061
H337	H	0.901703	-0.834168	-0.303846
H338	H	1.151703	-0.584168	-0.053846
H339	H	1.401703	-0.334168	0.196154
H340	H	1.651703	-0.084168	0.446154
H341	H	0.874895	-0.839084	-0.396913
H342	H	1.124895	-0.589084	-0.146913
H343	H	1.374895	-0.339084	0.103087
H344	H	1.624895	-0.089084	0.353087
H345	H	0.912451	-0.767098	-0.358599
H346	H	1.162451	-0.517098	-0.108599
H347	H	1.412451	-0.267098	0.141401
H348	H	1.662451	-0.017098	0.391401
C349	C	1.023762	-0.922371	-0.238821
C350	C	1.273762	-0.672371	0.011179
C351	C	1.523762	-0.422371	0.261179
C352	C	1.773762	-0.172371	0.511179
H353	H	1.060860	-0.903682	-0.199357
H354	H	1.310860	-0.653682	0.050643
H355	H	1.560860	-0.403682	0.300643
H356	H	1.810860	-0.153682	0.550643
H357	H	1.023446	-0.975025	-0.239572
H358	H	1.273446	-0.725025	0.010428
H359	H	1.523446	-0.475025	0.260428
H360	H	1.773446	-0.225025	0.510428
H361	H	0.976653	-0.904082	-0.223914
H362	H	1.226653	-0.654082	0.026086
H363	H	1.476653	-0.404082	0.276086
H364	H	1.726653	-0.154082	0.526086
