data_functionalizedCrystal
_audit_creation_method	'MofGen! by Chris Wilmer'
_symmetry_space_group_name_H-M	'P1'
_symmetry_Int_Tables_number	1
_symmetry_cell_setting	triclinic
loop_
_symmetry_equiv_pos_as_xyz
  x,y,z
_cell_length_a	34.408637
_cell_length_b	34.407814
_cell_length_c	34.404193
_cell_angle_alpha	60.004510
_cell_angle_beta	60.009006
_cell_angle_gamma	59.994604
loop_
_atom_site_label
_atom_site_type_symbol
_atom_site_fract_x
_atom_site_fract_y
_atom_site_fract_z
O1	O	0.053973	-0.567860	0.474801
O2	O	0.553973	-0.067860	0.974801
O3	O	0.020377	-0.442124	0.382567
O4	O	0.520377	0.057876	0.882567
O5	O	0.100004	-0.521670	0.382483
O6	O	0.600004	-0.021670	0.882483
O7	O	-0.025653	-0.488314	0.474886
O8	O	0.474347	0.011686	0.974886
O9	O	0.126426	-0.495253	0.408816
O10	O	0.626426	0.004747	0.908816
O11	O	0.046800	-0.415707	0.408900
O12	O	0.546800	0.084293	0.908900
O13	O	0.080396	-0.541443	0.501134
O14	O	0.580396	-0.041443	1.001134
Zn15	Zn	0.067793	-0.474381	0.459198
Zn16	Zn	0.567793	0.025619	0.959198
Zn17	Zn	0.032980	-0.509186	0.424503
Zn18	Zn	0.532980	-0.009186	0.924503
O19	O	0.000769	-0.461897	0.501219
O20	O	0.500769	0.038103	1.001219
N21	N	0.091552	-0.450631	0.482879
N22	N	0.591552	0.049369	0.982879
N23	N	0.009225	-0.532940	0.400823
N24	N	0.509225	-0.032940	0.900823
C25	C	0.142848	-0.268847	0.534081
C26	C	0.642848	0.231153	1.034081
C27	C	0.142979	-0.399386	0.664559
C28	C	0.642979	0.100614	1.164559
C29	C	0.142862	-0.399365	0.534081
C30	C	0.642862	0.100635	1.034081
C31	C	0.273409	-0.399338	0.533986
C32	C	0.773409	0.100662	1.033986
C33	C	0.157225	-0.311914	0.548422
C34	C	0.657225	0.188086	1.048422
C35	C	0.157300	-0.385019	0.621491
C36	C	0.657300	0.114981	1.121491
C37	C	0.230339	-0.384991	0.548370
C38	C	0.730339	0.115009	1.048370
C39	C	0.157235	-0.385007	0.548422
C40	C	0.657235	0.114993	1.048422
C41	C	0.124548	-0.214028	0.515827
C42	C	0.624548	0.285972	1.015827
C43	C	0.124571	-0.417639	0.515827
C44	C	0.624571	0.082361	1.015827
C45	C	0.175526	-0.366733	0.566676
C46	C	0.675526	0.133267	1.066676
C47	C	0.353121	-0.385580	0.491988
C48	C	0.853121	0.114420	0.991988
C49	C	0.402952	-0.402180	0.475348
C50	C	0.902952	0.097820	0.975348
C51	C	0.402981	-0.482812	0.506096
C52	C	0.902981	0.017188	1.006096
C53	C	0.353151	-0.466211	0.522737
C54	C	0.853151	0.033789	1.022737
C55	C	0.136544	-0.189099	0.466839
C56	C	0.636544	0.310901	0.966839
C57	C	0.119905	-0.139265	0.450247
C58	C	0.619905	0.360735	0.950247
C59	C	0.079280	-0.139291	0.531632
C60	C	0.579280	0.360709	1.031632
C61	C	0.095918	-0.189125	0.548224
C62	C	0.595918	0.310875	1.048224
C63	C	0.075577	-0.405615	0.527900
C64	C	0.575577	0.094385	1.027900
C65	C	0.058953	-0.422228	0.511301
C66	C	0.558953	0.077772	1.011301
C67	C	0.140315	-0.462889	0.470566
C68	C	0.640315	0.037111	0.970566
C69	C	0.156941	-0.446276	0.487159
C70	C	0.656941	0.053724	0.987159
C71	C	0.075772	-0.405653	0.744326
C72	C	0.575772	0.094347	1.244326
C73	C	0.059206	-0.422280	0.794159
C74	C	0.559206	0.077720	1.294159
C75	C	0.140607	-0.462951	0.794094
C76	C	0.640607	0.037049	1.294094
C77	C	0.157172	-0.446325	0.744260
C78	C	0.657172	0.053675	1.244260
C79	C	0.124753	-0.417674	0.719377
C80	C	0.624753	0.082326	1.219377
C81	C	0.328223	-0.417595	0.515681
C82	C	0.828223	0.082405	1.015681
C83	C	-0.172390	-0.583988	0.349141
C84	C	0.327610	-0.083988	0.849141
C85	C	-0.041751	-0.584138	0.218783
C86	C	0.458249	-0.084138	0.718783
C87	C	-0.041941	-0.584130	0.349402
C88	C	0.458059	-0.084130	0.849402
C89	C	-0.041957	-0.714607	0.349338
C90	C	0.458043	-0.214607	0.849338
C91	C	-0.129326	-0.598388	0.334853
C92	C	0.370674	-0.098388	0.834853
C93	C	-0.056165	-0.598473	0.261852
C94	C	0.443835	-0.098473	0.761852
C95	C	-0.056282	-0.671535	0.334962
C96	C	0.443718	-0.171535	0.834962
C97	C	-0.056272	-0.598469	0.334999
C98	C	0.443728	-0.098469	0.834999
C99	C	-0.227205	-0.565659	0.367327
C100	C	0.272795	-0.065659	0.867327
C101	C	-0.023703	-0.565882	0.367734
C102	C	0.476297	-0.065882	0.867734
C103	C	-0.074511	-0.616717	0.316667
C104	C	0.425489	-0.116717	0.816667
C105	C	-0.055754	-0.794298	0.391257
C106	C	0.444246	-0.294298	0.891257
C107	C	-0.039181	-0.844132	0.407888
C108	C	0.460819	-0.344132	0.907888
C109	C	0.041447	-0.844215	0.377269
C110	C	0.541447	-0.344215	0.877269
C111	C	0.024873	-0.794381	0.360637
C112	C	0.524873	-0.294381	0.860637
C113	C	-0.252183	-0.577666	0.416302
C114	C	0.247817	-0.077666	0.916302
C115	C	-0.302014	-0.561001	0.432833
C116	C	0.197986	-0.061001	0.932833
C117	C	-0.301886	-0.520329	0.351410
C118	C	0.198114	-0.020329	0.851410
C119	C	-0.252055	-0.536994	0.334880
C120	C	0.247945	-0.036994	0.834880
C121	C	-0.035709	-0.516892	0.355682
C122	C	0.464291	-0.016892	0.855682
C123	C	-0.019129	-0.500308	0.372353
C124	C	0.480871	-0.000308	0.872353
C125	C	0.021465	-0.581700	0.413115
C126	C	0.521465	-0.081700	0.913115
C127	C	0.004884	-0.598286	0.396450
C128	C	0.504884	-0.098286	0.896450
C129	C	-0.035389	-0.516907	0.139026
C130	C	0.464611	-0.016907	0.639026
C131	C	-0.018707	-0.500324	0.089193
C132	C	0.481293	-0.000324	0.589193
C133	C	0.021949	-0.581721	0.089240
C134	C	0.521949	-0.081721	0.589240
C135	C	0.005268	-0.598303	0.139074
C136	C	0.505268	-0.098303	0.639074
C137	C	-0.023402	-0.565894	0.163965
C138	C	0.476598	-0.065894	0.663965
C139	C	-0.023728	-0.769425	0.367633
C140	C	0.476272	-0.269425	0.867633
N141	N	0.427173	-0.450553	0.482630
N142	N	0.927173	0.049447	0.982630
O143	O	0.589997	-0.458460	0.365361
O144	O	1.089997	0.041540	0.865361
O145	O	0.590185	-0.550997	0.490963
O146	O	1.090185	-0.050997	0.990963
O147	O	0.590104	-0.550786	0.411309
O148	O	1.090104	-0.050786	0.911309
O149	O	0.590077	-0.458671	0.445016
O150	O	1.090077	0.041329	0.945016
O151	O	0.510940	-0.524462	0.437777
O152	O	1.010940	-0.024462	0.937777
O153	O	0.511020	-0.524674	0.517432
O154	O	1.011020	-0.024674	1.017432
O155	O	0.510832	-0.432136	0.391830
O156	O	1.010832	0.067864	0.891830
Zn157	Zn	0.498357	-0.474225	0.458833
Zn158	Zn	0.998357	0.025775	0.958833
Zn159	Zn	0.602660	-0.508908	0.423960
Zn160	Zn	1.102660	-0.008908	0.923960
O161	O	0.510913	-0.432348	0.471484
O162	O	1.010913	0.067652	0.971484
N163	N	0.673844	-0.532580	0.400158
N164	N	1.173844	-0.032580	0.900158
N165	N	0.091520	-0.115070	0.482873
N166	N	0.591520	0.384930	0.982873
O167	O	-0.025663	0.047841	0.474857
O168	O	0.474337	0.547841	0.974857
O169	O	0.099940	0.047877	0.382299
O170	O	0.599940	0.547877	0.882299
O171	O	0.020247	0.047844	0.382560
O172	O	0.520247	0.547844	0.882560
O173	O	0.054030	0.047874	0.474596
O174	O	0.554030	0.547874	0.974596
O175	O	0.046674	-0.031326	0.408942
O176	O	0.546674	0.468674	0.908942
O177	O	0.126367	-0.031293	0.408680
O178	O	0.626367	0.468707	0.908680
O179	O	0.000764	-0.031329	0.501238
O180	O	0.500764	0.468671	1.001238
Zn181	Zn	0.067761	-0.043881	0.459148
Zn182	Zn	0.567761	0.456119	0.959148
Zn183	Zn	0.032943	0.060429	0.424389
Zn184	Zn	0.532943	0.560429	0.924389
O185	O	0.080457	-0.031296	0.500977
O186	O	0.580457	0.468704	1.000977
N187	N	0.009178	0.131618	0.400665
N188	N	0.509178	0.631618	0.900665
N189	N	0.091852	-0.450680	0.818332
N190	N	0.591852	0.049320	1.318332
O191	O	0.083862	-0.567845	0.981235
O192	O	0.583862	-0.067845	1.481235
O193	O	-0.008657	-0.442198	0.981276
O194	O	0.491343	0.057802	1.481276
O195	O	-0.008441	-0.521875	0.981252
O196	O	0.491559	-0.021875	1.481252
O197	O	0.083646	-0.488168	0.981258
O198	O	0.583646	0.011832	1.481258
O199	O	0.017919	-0.495468	0.902085
O200	O	0.517919	0.004532	1.402085
O201	O	0.017703	-0.415791	0.902109
O202	O	0.517703	0.084209	1.402109
O203	O	0.110222	-0.541438	0.902067
O204	O	0.610222	-0.041438	1.402067
Zn205	Zn	0.068148	-0.474422	0.889518
Zn206	Zn	0.568148	0.025578	1.389518
Zn207	Zn	0.033417	-0.509214	0.993825
Zn208	Zn	0.533417	-0.009214	1.493825
O209	O	0.110006	-0.461761	0.902091
O210	O	0.610006	0.038239	1.402091
N211	N	0.009712	-0.532961	1.065011
N212	N	0.509712	-0.032961	1.565011
C213	C	0.030439	-0.413071	0.383027
C214	C	0.530439	0.086929	0.883027
C215	C	0.129046	-0.511580	0.382922
C216	C	0.629046	-0.011580	0.882922
C217	C	0.070334	-0.570496	0.500675
C218	C	0.570334	-0.070496	1.000675
C219	C	-0.028274	-0.471987	0.500780
C220	C	0.471726	0.028013	1.000780
C221	C	0.550625	-0.550579	0.520021
C222	C	1.050625	-0.050579	1.020021
C223	C	0.550527	-0.550317	0.421379
C224	C	1.050527	-0.050317	0.921379
C225	C	0.550389	-0.432554	0.362773
C226	C	1.050389	0.067446	0.862773
C227	C	0.550491	-0.432816	0.461414
C228	C	1.050491	0.067184	0.961414
C229	C	0.128944	0.008394	0.382712
C230	C	0.628944	0.508394	0.882712
C231	C	0.030287	0.008256	0.383068
C232	C	0.530287	0.508256	0.883068
C233	C	-0.028273	0.008252	0.500793
C234	C	0.471727	0.508252	1.000793
C235	C	0.070417	0.008292	0.500470
C236	C	0.570417	0.508292	1.000470
C237	C	-0.008218	-0.413165	0.941698
C238	C	0.491782	0.086835	1.441698
C239	C	-0.007945	-0.511830	0.941653
C240	C	0.492055	-0.011830	1.441653
C241	C	0.109783	-0.570471	0.941646
C242	C	0.609783	-0.070471	1.441646
C243	C	0.109516	-0.471800	0.941673
C244	C	0.609516	0.028200	1.441673
H245	H	0.019320	-0.412483	0.814467
H246	H	0.519320	0.087517	1.314467
C247	C	-0.047004	-0.365073	0.941688
C248	C	0.452996	0.134927	1.441688
C249	C	-0.087663	-0.365126	0.941678
C250	C	0.412337	0.134874	1.441678
C251	C	-0.123399	-0.320829	0.941662
C252	C	0.376601	0.179171	1.441662
H253	H	-0.054546	-0.359221	0.969291
H254	H	0.445454	0.140779	1.469291
H255	H	-0.036122	-0.340840	0.914073
H256	H	0.463878	0.159160	1.414073
H257	H	-0.098543	-0.389351	0.969290
H258	H	0.401457	0.110649	1.469290
H259	H	-0.080136	-0.370969	0.914076
H260	H	0.419864	0.129031	1.414076
H261	H	-0.112518	-0.296596	0.914046
H262	H	0.387482	0.203404	1.414046
H263	H	-0.130937	-0.314981	0.969265
H264	H	0.369063	0.185019	1.469265
H265	H	-0.150989	-0.320858	0.941650
H266	H	0.349011	0.179142	1.441650
H267	H	0.164941	0.008624	0.353583
H268	H	0.664941	0.508624	0.853583
H269	H	-0.065262	-0.864385	0.427124
H270	H	0.434738	-0.364385	0.927124
H271	H	0.332825	-0.345993	0.486242
H272	H	0.832825	0.154007	0.986242
H273	H	0.550674	-0.579628	0.556096
H274	H	1.050674	-0.079628	1.056096
C275	C	0.080119	0.008195	0.539047
C276	C	0.580119	0.508195	1.039047
C277	C	0.118411	-0.032536	0.549859
C278	C	0.618411	0.467464	1.049859
C279	C	0.127357	-0.032646	0.585400
C280	C	0.627357	0.467354	1.085400
H281	H	0.087697	0.035776	0.528096
H282	H	0.587697	0.535776	1.028096
H283	H	0.052634	0.008160	0.566779
H284	H	0.552634	0.508160	1.066779
H285	H	0.145890	-0.032496	0.522133
H286	H	0.645890	0.467504	1.022133
H287	H	0.110843	-0.060123	0.560818
H288	H	0.610843	0.439877	1.060818
H289	H	0.099873	-0.032681	0.613132
H290	H	0.599873	0.467319	1.113132
H291	H	0.134934	-0.005064	0.574445
H292	H	0.634934	0.494936	1.074445
H293	H	0.153336	-0.060284	0.592743
H294	H	0.653336	0.439716	1.092743
C295	C	-0.046437	-0.521510	0.941581
C296	C	0.453563	-0.021510	1.441581
C297	C	-0.029167	-0.567976	0.941541
C298	C	0.470833	-0.067976	1.441541
C299	C	-0.064609	-0.576908	0.941469
C300	C	0.435391	-0.076908	1.441469
H301	H	-0.073535	-0.518003	0.969175
H302	H	0.426465	-0.018003	1.469175
H303	H	-0.055091	-0.499560	0.913957
H304	H	0.444909	0.000440	1.413957
H305	H	-0.020519	-0.589920	0.969162
H306	H	0.479481	-0.089920	1.469162
H307	H	-0.002073	-0.571494	0.913949
H308	H	0.497927	-0.071494	1.413949
H309	H	-0.073263	-0.554957	0.913845
H310	H	0.426737	-0.054957	1.413845
H311	H	-0.091705	-0.573398	0.969064
H312	H	0.408295	-0.073398	1.469064
H313	H	-0.052895	-0.608433	0.941438
H314	H	0.447105	-0.108433	1.441438
H315	H	0.550485	-0.403881	0.468626
H316	H	1.050485	0.096119	0.968626
C317	C	0.550289	-0.393743	0.314716
C318	C	1.050289	0.106257	0.814716
C319	C	0.550249	-0.353064	0.314781
C320	C	1.050249	0.146936	0.814781
C321	C	0.550150	-0.317300	0.270521
C322	C	1.050150	0.182700	0.770521
H323	H	0.577872	-0.404568	0.290434
H324	H	1.077872	0.095432	0.790434
H325	H	0.522656	-0.386246	0.308933
H326	H	1.022656	0.113754	0.808933
H327	H	0.577879	-0.360561	0.320557
H328	H	1.077879	0.139439	0.820557
H329	H	0.522668	-0.342225	0.339052
H330	H	1.022668	0.157775	0.839052
H331	H	0.522518	-0.309803	0.264739
H332	H	1.022518	0.190197	0.764739
H333	H	0.577735	-0.328130	0.246244
H334	H	1.077735	0.171870	0.746244
H335	H	0.550119	-0.289694	0.270561
H336	H	1.050119	0.210306	0.770561
H337	H	0.023050	0.008252	0.354152
H338	H	0.523050	0.508252	0.854152
H339	H	-0.064344	0.008241	0.529850
H340	H	0.435656	0.508241	1.029850
H341	H	0.138832	-0.606554	0.941627
H342	H	0.638832	-0.106554	1.441627
H343	H	0.138447	-0.464586	0.941669
H344	H	0.638447	0.035414	1.441669
C345	C	0.177128	-0.520970	0.344160
C346	C	0.677128	-0.020970	0.844160
C347	C	0.177106	-0.480295	0.303452
C348	C	0.677106	0.019705	0.803452
C349	C	0.221388	-0.488929	0.267733
C350	C	0.721388	0.011071	0.767733
H351	H	0.201386	-0.528480	0.355012
H352	H	0.701386	-0.028480	0.855012
H353	H	0.182918	-0.546905	0.336685
H354	H	0.682918	-0.046905	0.836685
H355	H	0.171321	-0.454367	0.310926
H356	H	0.671321	0.045633	0.810926
H357	H	0.152857	-0.472778	0.292585
H358	H	0.652857	0.027222	0.792585
H359	H	0.227178	-0.514865	0.260258
H360	H	0.727178	-0.014865	0.760258
H361	H	0.245643	-0.496440	0.278590
H362	H	0.745643	0.003560	0.778590
H363	H	0.221378	-0.461335	0.240107
H364	H	0.721378	0.038665	0.740107
H365	H	0.423275	-0.522397	0.511838
H366	H	0.923275	-0.022397	1.011838
C367	C	0.040497	-0.374570	0.717399
C368	C	0.540497	0.125430	1.217399
C369	C	-0.005944	-0.367610	0.749915
C370	C	0.494056	0.132390	1.249915
C371	C	-0.038451	-0.338987	0.725127
C372	C	0.461549	0.161013	1.225127
H373	H	0.045202	-0.344670	0.697959
H374	H	0.545202	0.155330	1.197959
H375	H	0.045239	-0.389781	0.697971
H376	H	0.545239	0.110219	1.197971
H377	H	-0.010685	-0.352399	0.769335
H378	H	0.489315	0.147601	1.269335
H379	H	-0.010665	-0.397501	0.769356
H380	H	0.489335	0.102499	1.269356
H381	H	-0.033709	-0.354197	0.705699
H382	H	0.466291	0.145803	1.205699
H383	H	-0.033741	-0.309089	0.705689
H384	H	0.466259	0.190911	1.205689
H385	H	-0.069965	-0.334265	0.747186
H386	H	0.430035	0.165735	1.247186
H387	H	0.167007	-0.486271	0.814352
H388	H	0.667007	0.013729	1.314352
H389	H	0.197059	-0.456117	0.723950
H390	H	0.697059	0.043883	1.223950
C391	C	-0.076370	-0.462456	0.539488
C392	C	0.423630	0.037544	1.039488
C393	C	-0.084775	-0.424204	0.550377
C394	C	0.415225	0.075796	1.050377
C395	C	-0.129073	-0.415414	0.586038
C396	C	0.370927	0.084586	1.086038
H397	H	-0.100634	-0.454899	0.528618
H398	H	0.399366	0.045101	1.028618
H399	H	-0.076451	-0.489999	0.567167
H400	H	0.423549	0.010001	1.067167
H401	H	-0.084699	-0.396666	0.522704
H402	H	0.415301	0.103334	1.022704
H403	H	-0.060523	-0.431750	0.561255
H404	H	0.439477	0.068250	1.061255
H405	H	-0.129154	-0.442957	0.613717
H406	H	0.370846	0.057043	1.113717
H407	H	-0.153333	-0.407859	0.575164
H408	H	0.346667	0.092141	1.075164
H409	H	-0.134780	-0.389462	0.593434
H410	H	0.365220	0.110538	1.093434
H411	H	0.550540	-0.579254	0.414165
H412	H	1.050540	-0.079254	0.914165
C413	C	0.040409	-0.374441	0.558937
C414	C	0.540409	0.125559	1.058937
C415	C	0.011801	-0.332948	0.533932
C416	C	0.511801	0.167052	1.033932
C417	C	-0.020598	-0.304216	0.562506
C418	C	0.479402	0.195784	1.062506
H419	H	0.020942	-0.391295	0.587128
H420	H	0.520942	0.108705	1.087128
H421	H	0.057308	-0.366237	0.567085
H422	H	0.557308	0.133763	1.067085
H423	H	-0.005097	-0.341153	0.525791
H424	H	0.494903	0.158847	1.025791
H425	H	0.031255	-0.316082	0.505743
H426	H	0.531255	0.183918	1.005743
H427	H	-0.003699	-0.296011	0.570654
H428	H	0.496301	0.203989	1.070654
H429	H	-0.040062	-0.321073	0.590696
H430	H	0.459938	0.178927	1.090696
H431	H	-0.040010	-0.276057	0.545542
H432	H	0.459990	0.223943	1.045542
C433	C	0.175538	-0.493959	0.439429
C434	C	0.675538	0.006041	0.939429
C435	C	0.222003	-0.500925	0.432403
C436	C	0.722003	-0.000925	0.932403
C437	C	0.254460	-0.529537	0.403717
C438	C	0.754460	-0.029537	0.903717
H439	H	0.170828	-0.523858	0.454605
H440	H	0.670828	-0.023858	0.954605
H441	H	0.170750	-0.478738	0.409554
H442	H	0.670750	0.021262	0.909554
H443	H	0.226789	-0.516147	0.462272
H444	H	0.726789	-0.016147	0.962272
H445	H	0.226728	-0.471035	0.417221
H446	H	0.726728	0.028965	0.917221
H447	H	0.249673	-0.514316	0.373842
H448	H	0.749673	-0.014316	0.873842
H449	H	0.249746	-0.559433	0.418896
H450	H	0.749746	-0.059433	0.918896
H451	H	0.285990	-0.534263	0.398942
H452	H	0.785990	-0.034263	0.898942
H453	H	0.077514	-0.606615	0.529644
H454	H	0.577514	-0.106615	1.029644
C455	C	0.210130	-0.459231	0.473990
C456	C	0.710130	0.040769	0.973990
C457	C	0.222014	-0.417614	0.449073
C458	C	0.722014	0.082386	0.949073
C459	C	0.271007	-0.429528	0.436928
C460	C	0.771007	0.070472	0.936928
H461	H	0.218385	-0.476123	0.502118
H462	H	0.718385	0.023877	1.002118
H463	H	0.227048	-0.478645	0.454517
H464	H	0.727048	0.021355	0.954517
H465	H	0.205101	-0.398207	0.468545
H466	H	0.705101	0.101793	0.968545
H467	H	0.213770	-0.400716	0.420939
H468	H	0.713770	0.099284	0.920939
H469	H	0.287925	-0.448943	0.417455
H470	H	0.787925	0.051057	0.917455
H471	H	0.279257	-0.446422	0.465059
H472	H	0.779257	0.053578	0.965059
H473	H	0.279077	-0.401294	0.420017
H474	H	0.779077	0.098706	0.920017
H475	H	0.019058	-0.412426	0.521121
H476	H	0.519058	0.087574	1.021121
H477	H	0.423225	-0.376108	0.456057
H478	H	0.923225	0.123892	0.956057
C479	C	0.132952	-0.112136	0.397071
C480	C	0.632952	0.387864	0.897071
C481	C	0.157838	-0.083505	0.385143
C482	C	0.657838	0.416495	0.885143
C483	C	0.169858	-0.058506	0.336163
C484	C	0.669858	0.441494	0.836163
H485	H	0.152407	-0.134051	0.380098
H486	H	0.652407	0.365949	0.880098
H487	H	0.104764	-0.092676	0.388910
H488	H	0.604764	0.407324	0.888910
H489	H	0.186021	-0.102965	0.393299
H490	H	0.686021	0.397035	0.893299
H491	H	0.138392	-0.061582	0.402103
H492	H	0.638392	0.438418	0.902103
H493	H	0.141671	-0.039045	0.328002
H494	H	0.641671	0.460955	0.828002
H495	H	0.189312	-0.080424	0.319195
H496	H	0.689312	0.419576	0.819195
H497	H	0.186741	-0.039073	0.328064
H498	H	0.686741	0.460927	0.828064
C499	C	0.020930	-0.364889	0.344411
C500	C	0.520930	0.135111	0.844411
C501	C	0.053372	-0.343917	0.331706
C502	C	0.553372	0.156083	0.831706
C503	C	0.044623	-0.299529	0.296139
C504	C	0.544623	0.200471	0.796139
H505	H	0.024489	-0.368955	0.317322
H506	H	0.524489	0.131045	0.817322
H507	H	-0.010573	-0.344933	0.355997
H508	H	0.489427	0.155067	0.855997
H509	H	0.084867	-0.363868	0.320119
H510	H	0.584867	0.136132	0.820119
H511	H	0.049819	-0.339839	0.358784
H512	H	0.549819	0.160161	0.858784
H513	H	0.013120	-0.279573	0.307725
H514	H	0.513120	0.220427	0.807725
H515	H	0.048181	-0.303600	0.269053
H516	H	0.548181	0.196400	0.769053
H517	H	0.066630	-0.285292	0.287518
H518	H	0.566630	0.214708	0.787518
H519	H	0.332881	-0.492283	0.542031
H520	H	0.832881	0.007717	1.042031
H521	H	0.055974	-0.119015	0.558014
H522	H	0.555974	0.380985	1.058014
C523	C	0.167601	-0.216049	0.431589
C524	C	0.667601	0.283951	0.931589
C525	C	0.174530	-0.183550	0.385135
C526	C	0.674530	0.316450	0.885135
C527	C	0.203132	-0.208361	0.352650
C528	C	0.703132	0.291639	0.852650
H529	H	0.197509	-0.235484	0.436288
H530	H	0.697509	0.264516	0.936288
H531	H	0.152388	-0.235486	0.436361
H532	H	0.652388	0.264514	0.936361
H533	H	0.189743	-0.164122	0.380364
H534	H	0.689743	0.335878	0.880364
H535	H	0.144631	-0.164115	0.380420
H536	H	0.644631	0.335885	0.880420
H537	H	0.187919	-0.227797	0.357423
H538	H	0.687919	0.272203	0.857423
H539	H	0.233038	-0.227794	0.357354
H540	H	0.733038	0.272206	0.857354
H541	H	0.207833	-0.186314	0.321128
H542	H	0.707833	0.313686	0.821128
H543	H	-0.028474	-0.460433	0.068892
H544	H	0.471526	0.039567	0.568892
C545	C	0.082958	-0.216149	0.601420
C546	C	0.582958	0.283851	1.101420
C547	C	0.099933	-0.204016	0.621888
C548	C	0.599933	0.295984	1.121888
C549	C	0.088007	-0.228899	0.670893
C550	C	0.588007	0.271101	1.170893
H551	H	0.049346	-0.208009	0.615497
H552	H	0.549346	0.291991	1.115497
H553	H	0.096975	-0.249402	0.606701
H554	H	0.596975	0.250598	1.106701
H555	H	0.085915	-0.170769	0.616612
H556	H	0.585915	0.329231	1.116612
H557	H	0.133545	-0.212157	0.607825
H558	H	0.633545	0.287843	1.107825
H559	H	0.102024	-0.262153	0.676174
H560	H	0.602024	0.237847	1.176174
H561	H	0.054395	-0.220757	0.684966
H562	H	0.554395	0.279243	1.184966
H563	H	0.099527	-0.220673	0.684786
H564	H	0.599527	0.279327	1.184786
C565	C	-0.066439	-0.481695	0.166021
C566	C	0.433561	0.018305	0.666021
C567	C	-0.041404	-0.453148	0.153961
C568	C	0.458596	0.046852	0.653961
C569	C	-0.069988	-0.420710	0.178824
C570	C	0.430012	0.079290	0.678824
H571	H	-0.094594	-0.462187	0.157818
H572	H	0.405406	0.037813	0.657818
H573	H	-0.074649	-0.498566	0.199277
H574	H	0.425351	0.001434	0.699277
H575	H	-0.033201	-0.436278	0.120713
H576	H	0.466799	0.063722	0.620713
H577	H	-0.013251	-0.472643	0.162166
H578	H	0.486749	0.027357	0.662166
H579	H	-0.078198	-0.437581	0.212079
H580	H	0.421802	0.062419	0.712079
H581	H	-0.098142	-0.401206	0.170618
H582	H	0.401858	0.098794	0.670618
H583	H	-0.053005	-0.401341	0.170648
H584	H	0.446995	0.098659	0.670648
C585	C	0.053003	-0.616960	0.062275
C586	C	0.553003	-0.116960	0.562275
C587	C	0.027970	-0.645515	0.074352
C588	C	0.527970	-0.145515	0.574352
C589	C	0.056567	-0.677985	0.049524
C590	C	0.556567	-0.177985	0.549524
H591	H	0.061235	-0.600129	0.029018
H592	H	0.561235	-0.100129	0.529018
H593	H	0.081149	-0.636455	0.070506
H594	H	0.581149	-0.136455	0.570506
H595	H	-0.000167	-0.626023	0.066117
H596	H	0.499833	-0.126023	0.566117
H597	H	0.019739	-0.662357	0.107604
H598	H	0.519739	-0.162357	0.607604
H599	H	0.084713	-0.697480	0.057756
H600	H	0.584713	-0.197480	0.557756
H601	H	0.064797	-0.661150	0.016269
H602	H	0.564797	-0.161150	0.516269
H603	H	0.039588	-0.697367	0.057719
H604	H	0.539588	-0.197367	0.557719
C605	C	0.018249	-0.651475	0.166237
C606	C	0.518249	-0.151475	0.666237
C607	C	-0.002484	-0.659063	0.215206
C608	C	0.497516	-0.159063	0.715206
C609	C	0.009467	-0.708038	0.240241
C610	C	0.509467	-0.208038	0.740241
H611	H	0.006806	-0.665505	0.158091
H612	H	0.506806	-0.165505	0.658091
H613	H	0.051867	-0.665519	0.158153
H614	H	0.551867	-0.165519	0.658153
H615	H	-0.036095	-0.645025	0.223286
H616	H	0.463905	-0.145025	0.723286
H617	H	0.008956	-0.645044	0.223366
H618	H	0.508956	-0.145044	0.723366
H619	H	0.043085	-0.722082	0.232157
H620	H	0.543085	-0.222082	0.732157
H621	H	-0.001976	-0.722063	0.232092
H622	H	0.498024	-0.222063	0.732092
H623	H	-0.004594	-0.713193	0.273469
H624	H	0.495406	-0.213193	0.773469
C625	C	-0.066765	-0.481635	0.324535
C626	C	0.433235	0.018365	0.824535
C627	C	-0.073743	-0.435182	0.317566
C628	C	0.426257	0.064818	0.817566
C629	C	-0.102355	-0.402690	0.288880
C630	C	0.397645	0.097310	0.788880
H631	H	-0.051552	-0.486373	0.294644
H632	H	0.448448	0.013627	0.794644
H633	H	-0.096657	-0.486362	0.339702
H634	H	0.403343	0.013638	0.839702
H635	H	-0.043856	-0.430456	0.302398
H636	H	0.456144	0.069544	0.802398
H637	H	-0.088961	-0.430428	0.347448
H638	H	0.411039	0.069572	0.847448
H639	H	-0.132248	-0.407418	0.304047
H640	H	0.367752	0.092582	0.804047
H641	H	-0.087140	-0.407433	0.258991
H642	H	0.412860	0.092567	0.758991
H643	H	-0.107097	-0.371168	0.284151
H644	H	0.392903	0.128832	0.784151
H645	H	0.044746	-0.608091	0.436494
H646	H	0.544746	-0.108091	0.936494
C647	C	0.017991	-0.651495	0.409563
C648	C	0.517991	-0.151495	0.909563
C649	C	0.046585	-0.676322	0.438269
C650	C	0.546585	-0.176322	0.938269
C651	C	0.058674	-0.725338	0.450353
C652	C	0.558674	-0.225338	0.950353
H653	H	-0.010160	-0.659696	0.426448
H654	H	0.489840	-0.159696	0.926448
H655	H	0.034956	-0.659703	0.381401
H656	H	0.534956	-0.159703	0.881401
H657	H	0.029620	-0.668117	0.466427
H658	H	0.529620	-0.168117	0.966427
H659	H	0.074742	-0.668136	0.421394
H660	H	0.574742	-0.168136	0.921394
H661	H	0.075639	-0.733546	0.422190
H662	H	0.575639	-0.233546	0.922190
H663	H	0.030520	-0.733534	0.467235
H664	H	0.530520	-0.233534	0.967235
H665	H	0.078080	-0.742189	0.469827
H666	H	0.578080	-0.242189	0.969827
C667	C	0.059719	-0.767464	0.335021
C668	C	0.559719	-0.267464	0.835021
C669	C	0.105826	-0.799990	0.332469
C670	C	0.605826	-0.299990	0.832469
C671	C	0.137939	-0.775212	0.308881
C672	C	0.637939	-0.275212	0.808881
H673	H	0.058557	-0.748027	0.303766
H674	H	0.558557	-0.248027	0.803766
H675	H	0.051392	-0.748032	0.352012
H676	H	0.551392	-0.248032	0.852012
H677	H	0.114151	-0.819414	0.315477
H678	H	0.614151	-0.319414	0.815477
H679	H	0.107003	-0.819428	0.363717
H680	H	0.607003	-0.319428	0.863717
H681	H	0.129612	-0.755780	0.325873
H682	H	0.629612	-0.255780	0.825873
H683	H	0.136773	-0.755776	0.277629
H684	H	0.636773	-0.255776	0.777629
H685	H	0.169226	-0.797277	0.307151
H686	H	0.669226	-0.297277	0.807151
C687	C	-0.032227	-0.447121	0.359360
C688	C	0.467773	0.052879	0.859360
C689	C	-0.057199	-0.435171	0.400947
C690	C	0.442801	0.064829	0.900947
C691	C	-0.069279	-0.386180	0.388994
C692	C	0.430721	0.113820	0.888994
H693	H	-0.004072	-0.438931	0.342519
H694	H	0.495928	0.061069	0.842519
H695	H	-0.051645	-0.430185	0.339886
H696	H	0.448355	0.069815	0.839886
H697	H	-0.037782	-0.452102	0.420413
H698	H	0.462218	0.047898	0.920413
H699	H	-0.085360	-0.443350	0.417793
H700	H	0.414640	0.056650	0.917793
H701	H	-0.088697	-0.369243	0.369520
H702	H	0.411303	0.130757	0.869520
H703	H	-0.041121	-0.377994	0.372152
H704	H	0.458879	0.122006	0.872152
H705	H	-0.086228	-0.378064	0.417208
H706	H	0.413772	0.121936	0.917208
H707	H	0.081021	-0.864532	0.371574
H708	H	0.581021	-0.364532	0.871574
H709	H	-0.231954	-0.601008	0.442726
H710	H	0.268046	-0.101008	0.942726
C711	C	-0.108536	-0.767287	0.398860
C712	C	0.391464	-0.267287	0.898860
C713	C	-0.133031	-0.799740	0.423089
C714	C	0.366969	-0.299740	0.923089
C715	C	-0.181650	-0.774877	0.430090
C716	C	0.318350	-0.274877	0.930090
H717	H	-0.120318	-0.747832	0.417135
H718	H	0.379682	-0.247832	0.917135
H719	H	-0.113118	-0.747866	0.368893
H720	H	0.386882	-0.247866	0.868893
H721	H	-0.128451	-0.819153	0.453051
H722	H	0.371549	-0.319153	0.953051
H723	H	-0.121263	-0.819195	0.404822
H724	H	0.378737	-0.319195	0.904822
H725	H	-0.186233	-0.755456	0.400123
H726	H	0.313767	-0.255456	0.900123
H727	H	-0.193428	-0.755423	0.448364
H728	H	0.306572	-0.255423	0.948364
H729	H	-0.198276	-0.796892	0.446526
H730	H	0.301724	-0.296892	0.946526
H731	H	-0.322118	-0.496994	0.324987
H732	H	0.177882	0.003006	0.824987
C733	C	-0.329051	-0.574113	0.486027
C734	C	0.170949	-0.074113	0.986027
C735	C	-0.296622	-0.602799	0.510904
C736	C	0.203378	-0.102799	1.010904
C737	C	-0.321509	-0.614894	0.559906
C738	C	0.178491	-0.114894	1.059906
H739	H	-0.348492	-0.545965	0.494249
H740	H	0.151508	-0.045965	0.994249
H741	H	-0.348484	-0.591016	0.494172
H742	H	0.151516	-0.091016	0.994172
H743	H	-0.277197	-0.585895	0.502762
H744	H	0.222803	-0.085895	1.002762
H745	H	-0.277180	-0.630953	0.502696
H746	H	0.222820	-0.130953	1.002696
H747	H	-0.340943	-0.631797	0.568051
H748	H	0.159057	-0.131797	1.068051
H749	H	-0.340950	-0.586744	0.568124
H750	H	0.159050	-0.086744	1.068124
H751	H	-0.299510	-0.634362	0.576792
H752	H	0.200490	-0.134362	1.076792
H753	H	-0.231721	-0.527215	0.295000
H754	H	0.268279	-0.027215	0.795000
