data_functionalizedCrystal
_audit_creation_method	'MofGen! by Chris Wilmer'
_symmetry_space_group_name_H-M	'P1'
_symmetry_Int_Tables_number	1
_symmetry_cell_setting	triclinic
loop_
_symmetry_equiv_pos_as_xyz
  x,y,z
_cell_length_a	12.759401
_cell_length_b	13.897448
_cell_length_c	12.759393
_cell_angle_alpha	89.966654
_cell_angle_beta	89.981504
_cell_angle_gamma	90.017853
loop_
_atom_site_label
_atom_site_type_symbol
_atom_site_fract_x
_atom_site_fract_y
_atom_site_fract_z
Zn1	Zn	1.606234	-0.383954	-0.593968
Zn2	Zn	1.606119	-0.545283	-0.418283
Zn3	Zn	1.430536	-0.384004	-0.418308
Zn4	Zn	1.430515	-0.545209	-0.593924
O5	O	1.518351	-0.464613	-0.506121
O6	O	1.753239	-0.405365	-0.570671
O7	O	1.582788	-0.523942	-0.271265
O8	O	1.453899	-0.249016	-0.441638
O9	O	1.753155	-0.523893	-0.441596
O10	O	1.582983	-0.248979	-0.570695
O11	O	1.453788	-0.405451	-0.271283
O12	O	1.283512	-0.405379	-0.441596
O13	O	1.453864	-0.523766	-0.740951
O14	O	1.283497	-0.523815	-0.570621
O15	O	1.582964	-0.405293	-0.740984
O16	O	1.582768	-0.680255	-0.441554
O17	O	1.453753	-0.680201	-0.570597
C18	C	1.245383	-0.464595	-0.506107
C19	C	1.128607	-0.464611	-0.506125
C20	C	1.073764	-0.526379	-0.573198
C21	C	0.964040	-0.526391	-0.573209
C22	C	0.964011	-0.402864	-0.439067
C23	C	1.073733	-0.402847	-0.439062
C24	C	1.128638	-0.588142	-0.640261
C25	C	1.073796	-0.649917	-0.707338
C26	C	0.964072	-0.649929	-0.707349
C27	C	0.909190	-0.588167	-0.640284
C28	C	1.518274	-0.715227	-0.506090
C29	C	1.518337	-0.822441	-0.506113
C30	C	1.518448	-1.018736	-0.506178
C31	C	1.518383	-0.909503	-0.506145
C32	C	1.792384	-0.464631	-0.506136
C33	C	1.909161	-0.464639	-0.506142
C34	C	1.518424	-0.464515	-0.780154
C35	C	1.518456	-0.464474	-0.896931
C36	C	1.518456	-0.213020	-0.506174
C37	C	1.518501	-0.105806	-0.506197
C38	C	1.585687	-0.402779	-0.951812
C39	C	1.585712	-0.402744	-1.061536
C40	C	1.451271	-0.526107	-1.061489
C41	C	1.451242	-0.526137	-0.951767
C42	C	1.652901	-0.341116	-0.896976
C43	C	1.720139	-0.279417	-0.951856
C44	C	1.720164	-0.279382	-1.061580
C45	C	1.652951	-0.341046	-1.116424
C46	C	1.518338	-0.464640	-0.233154
C47	C	1.518510	-0.464410	-0.116377
H48	H	1.118488	-0.700195	-0.761947
H49	H	1.652890	-0.341139	-0.807633
N50	N	1.652981	-0.341002	-1.234769
H51	H	1.672271	-0.407165	-1.261184
H52	H	1.580908	-0.323216	-1.261114
N53	N	1.792639	-0.212919	-0.892712
H54	H	1.782431	-0.222308	-0.814875
H55	H	1.867664	-0.227951	-0.911905
H56	H	0.919422	-0.700221	-0.761974
N57	N	0.790845	-0.588168	-0.640304
H58	H	0.764427	-0.636667	-0.692975
H59	H	0.764462	-0.605793	-0.568166
N60	N	0.904823	-0.336270	-0.366717
H61	H	0.826992	-0.345661	-0.376891
H62	H	0.923982	-0.351216	-0.291660
N63	N	1.378729	-0.592676	-0.892565
H64	H	1.336159	-0.631740	-0.943951
H65	H	1.421465	-0.637329	-0.847028
H66	H	1.118386	-0.352543	-0.384454
N67	N	1.378770	-0.592603	-1.120636
H68	H	1.388989	-0.583220	-1.198472
H69	H	1.395074	-0.661503	-1.101443
N70	N	1.246982	-0.588120	-0.640250
H71	H	1.273375	-0.605763	-0.568138
H72	H	1.273344	-0.636608	-0.692956
N73	N	1.792661	-0.212823	-1.120776
H74	H	1.835229	-0.173764	-1.069385
H75	H	1.841277	-0.252070	-1.166300
