data_functionalizedCrystal
_audit_creation_method	'MofGen! by Chris Wilmer'
_symmetry_space_group_name_H-M	'P1'
_symmetry_Int_Tables_number	1
_symmetry_cell_setting	triclinic
loop_
_symmetry_equiv_pos_as_xyz
  x,y,z
_cell_length_a	6.817900
_cell_length_b	11.353964
_cell_length_c	12.200875
_cell_angle_alpha	103.763794
_cell_angle_beta	107.143593
_cell_angle_gamma	107.526751
loop_
_atom_site_label
_atom_site_type_symbol
_atom_site_fract_x
_atom_site_fract_y
_atom_site_fract_z
V1	V	-4.112947	-0.181232	-0.393859
O2	O	-4.052970	0.008403	-0.349174
O3	O	-4.107971	-0.359058	-0.426931
O4	O	-4.082017	-0.178578	-0.549317
O5	O	-4.079104	-0.173326	-0.225941
V6	V	-4.588684	-0.158533	-0.369430
O7	O	-4.391283	-0.231022	-0.447447
O8	O	-4.760545	-0.108742	-0.315843
O9	O	-4.370454	0.019293	-0.336358
O10	O	-4.766058	-0.348168	-0.414115
O11	O	-4.739924	-0.166439	-0.537349
O12	O	-4.396408	-0.161187	-0.213972
C13	C	-3.962970	-0.402404	-0.429947
C14	C	-4.040305	-0.547780	-0.458023
C15	C	-4.100463	-0.745010	-0.396149
C16	C	-4.020537	-0.594757	-0.367133
C17	C	-3.929861	-0.172182	-0.586061
C18	C	-3.986143	-0.171189	-0.713384
C19	C	-4.089148	-0.169373	-0.946495
C20	C	-4.031820	-0.170383	-0.816775
C21	C	-4.178798	0.062632	-0.333341
C22	C	-4.080702	0.208007	-0.305272
C23	C	-4.211906	-0.167587	-0.177223
C24	C	-4.134861	-0.168573	-0.049898
H25	H	-4.004623	-0.720981	-0.205988
H26	H	-4.176564	-0.816024	-0.495434
H27	H	-4.116396	-0.618787	-0.557315
O28	O	-3.929626	-0.509868	-0.248742
C29	C	-3.870099	-0.378748	-0.246128
H30	H	-3.845256	-0.374037	-0.333627
H31	H	-4.009108	-0.344965	-0.239740
C32	C	-3.681367	-0.293303	-0.026236
C33	C	-3.650836	-0.287515	-0.133699
H34	H	-3.546122	-0.237024	0.043118
H35	H	-3.721478	-0.381641	-0.027996
H36	H	-3.797216	-0.265154	-0.020930
H37	H	-3.535010	-0.315679	-0.139012
H38	H	-3.610700	-0.199179	-0.131938
