data_functionalizedCrystal
_audit_creation_method	'MofGen! by Chris Wilmer'
_symmetry_space_group_name_H-M	'P1'
_symmetry_Int_Tables_number	1
_symmetry_cell_setting	triclinic
loop_
_symmetry_equiv_pos_as_xyz
  x,y,z
_cell_length_a	19.188933
_cell_length_b	19.188930
_cell_length_c	16.776229
_cell_angle_alpha	89.988225
_cell_angle_beta	89.994271
_cell_angle_gamma	83.145175
loop_
_atom_site_label
_atom_site_type_symbol
_atom_site_fract_x
_atom_site_fract_y
_atom_site_fract_z
O1	O	0.926146	0.087176	-0.066271
O2	O	0.722835	0.098909	-0.066279
O3	O	0.830358	-0.008614	-0.066259
O4	O	0.818624	0.194698	-0.066291
O5	O	0.830344	-0.008620	0.066317
O6	O	0.722821	0.098902	0.066297
O7	O	0.926132	0.087169	0.066306
Zn8	Zn	0.824474	0.093034	0.087351
Zn9	Zn	0.824493	0.093043	-0.087324
O10	O	0.818610	0.194691	0.066286
C11	C	0.696817	0.098525	0.000008
C12	C	0.619313	0.097384	0.000006
C13	C	0.066065	0.089242	-0.072252
C14	C	0.138889	0.090310	-0.072255
C15	C	0.175299	0.090844	0.000012
C16	C	0.138880	0.090292	0.072288
C17	C	0.066058	0.089216	0.072289
N18	N	0.284313	0.132260	0.053797
N19	N	0.353490	0.133283	0.053791
C20	C	0.394707	0.094082	0.000013
N21	N	0.364132	0.053828	-0.053772
N22	N	0.294948	0.052809	-0.053768
C23	C	0.254262	0.092009	0.000019
C24	C	0.510082	0.095787	-0.072262
C25	C	0.582908	0.096851	-0.072262
C26	C	0.582897	0.096840	0.072283
C27	C	0.510073	0.095769	0.072281
C28	C	0.473669	0.095246	0.000006
C29	C	0.829971	-0.034628	0.000031
C30	C	0.828830	-0.112132	0.000038
C31	C	0.891921	-0.157056	0.000045
C32	C	0.890849	-0.229880	0.000032
C33	C	0.826683	-0.257777	0.000029
C34	C	0.763584	-0.212843	0.000018
C35	C	0.764658	-0.140021	0.000022
N36	N	0.777631	-0.365784	0.045145
N37	N	0.776616	-0.434963	0.045142
C38	C	0.823445	-0.477185	0.000012
N39	N	0.871339	-0.447617	-0.045104
N40	N	0.872357	-0.378433	-0.045098
C41	C	0.825512	-0.336739	0.000023
C42	C	0.885378	-0.601073	0.000004
C43	C	0.884304	-0.673898	-0.000014
C44	C	0.757037	-0.656860	-0.000020
C45	C	0.758113	-0.584037	-0.000010
C46	C	0.822286	-0.556148	0.000005
C47	C	0.952150	0.087553	0.000017
C48	C	1.029655	0.088694	0.000014
C49	C	0.818997	0.220705	-0.000006
C50	C	0.820137	0.298210	-0.000019
N51	N	0.824467	0.093028	0.206562
N52	N	0.824506	0.093044	-0.206535
C53	C	0.872092	0.045437	0.248288
C54	C	0.872096	0.045436	0.331740
C55	C	0.824477	0.093031	0.373465
C56	C	0.776847	0.140624	0.331733
C57	C	0.776840	0.140621	0.248283
C58	C	0.776872	0.140638	0.668280
C59	C	0.776884	0.140639	0.751737
C60	C	0.872128	0.045453	0.751738
C61	C	0.872121	0.045450	0.668288
C62	C	0.824489	0.093041	0.626563
C63	C	0.824484	0.093040	0.536075
C64	C	0.824485	0.093036	0.463952
H65	H	0.168540	0.090761	-0.131105
O66	O	0.918281	-0.000907	0.207814
C67	C	0.907140	-0.069984	0.228271
H68	H	0.851240	-0.070167	0.251211
H69	H	0.945891	-0.090576	0.276726
C70	C	0.986794	-0.117153	0.125998
C71	C	0.918134	-0.117378	0.154167
H72	H	0.993579	-0.146389	0.080289
H73	H	0.994303	-0.070614	0.112217
H74	H	1.019079	-0.134311	0.166384
H75	H	0.885851	-0.100212	0.113785
H76	H	0.910621	-0.163915	0.167939
O77	O	0.918268	-0.000861	0.372304
C78	C	0.881026	-0.043840	0.420610
H79	H	0.825967	-0.044889	0.395478
H80	H	0.877306	-0.021983	0.483853
C81	C	0.987368	-0.117610	0.452762
C82	C	0.919746	-0.118903	0.421891
H83	H	1.011253	-0.163911	0.453556
H84	H	1.012460	-0.088653	0.420220
H85	H	0.984259	-0.099392	0.505461
H86	H	0.922856	-0.137112	0.369189
H87	H	0.894655	-0.147865	0.454424
H88	H	0.711340	-0.235562	0.000013
O89	O	0.918297	-0.000852	0.792309
C90	C	0.881046	-0.043825	0.840613
H91	H	0.825989	-0.044870	0.815475
H92	H	0.877322	-0.021964	0.903854
C93	C	0.987380	-0.117601	0.872781
C94	C	0.919760	-0.118890	0.841902
H95	H	1.011262	-0.163904	0.873580
H96	H	1.012478	-0.088649	0.840240
H97	H	0.984268	-0.099381	0.925479
H98	H	0.922874	-0.137102	0.789202
H99	H	0.894664	-0.147848	0.874434
H100	H	0.713280	-0.103444	0.000017
O101	O	0.730552	0.186897	0.792146
C102	C	0.688518	0.228912	0.737426
H103	H	0.687813	0.200288	0.677946
H104	H	0.711017	0.280728	0.728531
C105	C	0.614026	0.278635	0.843068
C106	C	0.613156	0.243475	0.770016
H107	H	0.567541	0.287621	0.863172
H108	H	0.642347	0.250331	0.879935
H109	H	0.632779	0.321811	0.835645
H110	H	0.594412	0.200296	0.777441
H111	H	0.584831	0.271772	0.733151
H112	H	0.612553	0.097292	-0.131112
H113	H	0.168529	0.090725	0.131128
H114	H	0.480427	0.095325	0.131128
O115	O	0.730545	0.186777	0.627716
C116	C	0.687593	0.149498	0.579447
H117	H	0.686577	0.094438	0.604610
H118	H	0.709452	0.145780	0.516199
C119	C	0.613765	0.255798	0.547261
C120	C	0.612513	0.188175	0.578171
H121	H	0.567453	0.279657	0.546470
H122	H	0.642704	0.280915	0.579778
H123	H	0.631984	0.252690	0.494557
H124	H	0.594302	0.191284	0.630877
H125	H	0.583568	0.163060	0.545662
O126	O	0.730552	0.186921	0.207871
C127	C	0.688512	0.228919	0.262591
H128	H	0.717139	0.229642	0.322070
H129	H	0.636720	0.206375	0.271485
C130	C	0.638723	0.303387	0.156947
C131	C	0.673886	0.304279	0.229999
H132	H	0.629698	0.349872	0.136842
H133	H	0.667044	0.275091	0.120080
H134	H	0.595567	0.284597	0.164369
H135	H	0.717045	0.323061	0.222574
H136	H	0.645572	0.332581	0.266864
H137	H	0.612541	0.097272	0.131124
H138	H	0.944175	-0.134354	0.000055
H139	H	0.480441	0.095360	-0.131112
H140	H	0.036430	0.088814	-0.131104
H141	H	0.036413	0.088773	0.131138
O142	O	0.947773	-0.574093	-0.000030
C143	C	1.003231	-0.629364	-0.000019
H144	H	0.983812	-0.678771	-0.025121
H145	H	1.022682	-0.639743	0.063583
C146	C	1.087619	-0.548295	-0.021183
C147	C	1.063769	-0.608977	-0.052020
H148	H	1.124963	-0.535719	-0.053256
H149	H	1.050256	-0.511057	-0.021188
H150	H	1.103823	-0.556952	0.031818
H151	H	1.047558	-0.600316	-0.105015
H152	H	1.101131	-0.646213	-0.052025
O153	O	0.694644	-0.683834	-0.000059
C154	C	0.639186	-0.628562	-0.000037
H155	H	0.658609	-0.579143	-0.025130
H156	H	0.619729	-0.618214	0.063566
C157	C	0.554800	-0.709620	-0.021215
C158	C	0.578654	-0.648924	-0.052041
H159	H	0.517459	-0.722180	-0.053290
H160	H	0.592162	-0.746858	-0.021226
H161	H	0.538590	-0.700988	0.031788
H162	H	0.594871	-0.657559	-0.105038
H163	H	0.541293	-0.611688	-0.052040
H164	H	0.942227	-0.266463	0.000034
H165	H	0.935682	-0.710475	-0.000013
O166	O	0.696844	-0.540366	-0.000149
C167	C	0.693672	-0.497706	-0.068799
H168	H	0.729463	-0.524474	-0.116790
H169	H	0.711578	-0.444807	-0.053270
C170	C	0.573711	-0.453529	-0.040994
C171	C	0.617666	-0.486409	-0.099939
H172	H	0.526827	-0.446557	-0.060202
H173	H	0.575848	-0.482268	0.005259
H174	H	0.588641	-0.409450	-0.028059
H175	H	0.602741	-0.530490	-0.112866
H176	H	0.615524	-0.457677	-0.146195
H177	H	0.910899	0.006696	0.634318
H178	H	0.738071	0.179375	0.365710
