data_functionalizedCrystal
_audit_creation_method	'MofGen! by Chris Wilmer'
_symmetry_space_group_name_H-M	'P1'
_symmetry_Int_Tables_number	1
_symmetry_cell_setting	triclinic
loop_
_symmetry_equiv_pos_as_xyz
  x,y,z
_cell_length_a	14.853567
_cell_length_b	17.038272
_cell_length_c	13.330367
_cell_angle_alpha	89.995338
_cell_angle_beta	89.995418
_cell_angle_gamma	87.373243
loop_
_atom_site_label
_atom_site_type_symbol
_atom_site_fract_x
_atom_site_fract_y
_atom_site_fract_z
O1	O	1.204051	0.102086	-0.083355
O2	O	1.704051	0.602086	0.416645
O3	O	0.942507	0.114247	-0.083372
O4	O	1.442507	0.614247	0.416628
O5	O	1.071724	-0.005651	-0.083356
O6	O	1.571724	0.494349	0.416644
O7	O	1.074833	0.221984	-0.083372
O8	O	1.574833	0.721984	0.416628
O9	O	1.071704	-0.005654	0.083491
O10	O	1.571704	0.494346	0.583491
O11	O	0.942486	0.114244	0.083475
O12	O	1.442486	0.614244	0.583475
O13	O	1.204031	0.102083	0.083492
O14	O	1.704031	0.602083	0.583492
Cu15	Cu	1.073257	0.108164	0.098718
Cu16	Cu	1.573257	0.608164	0.598718
Cu17	Cu	1.073281	0.108167	-0.098598
Cu18	Cu	1.573281	0.608167	0.401402
O19	O	1.074813	0.221981	0.083476
O20	O	1.574813	0.721981	0.583476
C21	C	0.908866	0.113695	0.000049
C22	C	1.408866	0.613695	0.500049
C23	C	0.808658	0.112043	0.000043
C24	C	1.308658	0.612043	0.500043
C25	C	0.390240	0.033841	0.000071
C26	C	0.890240	0.533841	0.500071
C27	C	0.379678	0.176283	0.000060
C28	C	0.879678	0.676283	0.500060
C29	C	0.473828	0.177835	0.000056
C30	C	0.973828	0.677835	0.500056
C31	C	0.526189	0.107390	0.000059
C32	C	1.026189	0.607390	0.500059
C33	C	0.484399	0.035392	0.000064
C34	C	0.984399	0.535392	0.500064
C35	C	0.515626	0.249832	0.000041
C36	C	1.015626	0.749832	0.500041
C37	C	0.609782	0.251388	0.000036
C38	C	1.109782	0.751388	0.500036
C39	C	0.662144	0.180941	0.000046
C40	C	1.162144	0.680941	0.500046
C41	C	0.620349	0.108940	0.000052
C42	C	1.120349	0.608940	0.500052
C43	C	0.672709	0.038495	0.000055
C44	C	1.172709	0.538495	0.500055
C45	C	0.630915	-0.033507	0.000068
C46	C	1.130915	0.466493	0.500068
C47	C	0.536762	-0.035055	0.000074
C48	C	1.036762	0.464945	0.500074
C49	C	0.756298	0.182489	0.000040
C50	C	1.256298	0.682489	0.500040
C51	C	0.766869	0.040045	0.000048
C52	C	1.266869	0.540045	0.500048
C53	C	1.068887	-0.034784	0.000067
C54	C	1.568887	0.465216	0.500067
C55	C	1.060451	-0.121588	0.000067
C56	C	1.560451	0.378412	0.500067
C57	C	1.137904	-0.171601	0.000073
C58	C	1.637904	0.328399	0.500073
C59	C	1.129972	-0.253162	0.000063
C60	C	1.629972	0.246838	0.500063
C61	C	1.044586	-0.284709	0.000054
C62	C	1.544586	0.215291	0.500054
C63	C	0.967127	-0.234690	0.000045
C64	C	1.467127	0.265310	0.500045
C65	C	0.975060	-0.153130	0.000047
C66	C	1.475060	0.346870	0.500047
C67	C	1.016561	-0.530503	0.000038
C68	C	1.516561	-0.030503	0.500038
C69	C	1.008634	-0.612069	0.000038
C70	C	1.508634	-0.112069	0.500038
C71	C	1.171480	-0.630535	0.000055
C72	C	1.671480	-0.130535	0.500055
C73	C	1.179405	-0.548974	0.000063
C74	C	1.679405	-0.048974	0.500063
C75	C	1.101946	-0.498962	0.000049
C76	C	1.601946	0.001038	0.500049
C77	C	1.036476	-0.368077	0.000047
C78	C	1.536476	0.131923	0.500047
C79	C	1.110056	-0.415595	0.000049
C80	C	1.610056	0.084405	0.500049
C81	C	1.237671	0.102636	0.000068
C82	C	1.737671	0.602636	0.500068
C83	C	1.337879	0.104287	0.000068
C84	C	1.837879	0.604287	0.500068
C85	C	1.077651	0.251114	0.000050
C86	C	1.577651	0.751114	0.500050
C87	C	1.086087	0.337918	0.000044
C88	C	1.586087	0.837918	0.500044
N89	N	1.073246	0.108161	0.237499
N90	N	1.573246	0.608161	0.737499
N91	N	1.073298	0.108163	-0.237380
N92	N	1.573298	0.608163	0.262620
C93	C	1.016059	0.161237	0.710115
C94	C	1.516059	0.661237	1.210115
C95	C	1.130526	0.055091	0.710098
C96	C	1.630526	0.555091	1.210098
C97	C	1.130516	0.055088	0.605079
C98	C	1.630516	0.555088	1.105079
C99	C	1.073277	0.108162	0.552574
C100	C	1.573277	0.608162	1.052574
C101	C	1.016049	0.161237	0.605087
C102	C	1.516049	0.661237	1.105087
C103	C	1.187750	0.002019	0.552558
C104	C	1.687750	0.502019	1.052558
C105	C	1.187743	0.002015	0.447534
C106	C	1.687743	0.502015	0.947534
C107	C	1.130499	0.055085	0.395026
C108	C	1.630499	0.555085	0.895026
C109	C	1.073267	0.108162	0.447546
C110	C	1.573267	0.608162	0.947546
C111	C	1.016028	0.161236	0.395041
C112	C	1.516028	0.661236	0.895041
C113	C	0.958791	0.214310	0.447558
C114	C	1.458791	0.714310	0.947558
C115	C	0.958805	0.214308	0.552580
C116	C	1.458805	0.714308	1.052580
C117	C	1.130485	0.055087	0.290005
C118	C	1.630485	0.555087	0.790005
C119	C	1.016018	0.161237	0.290012
C120	C	1.516018	0.661237	0.790012
H121	H	1.207434	-0.145922	0.000086
H122	H	1.707434	0.354078	0.500086
C123	C	1.215171	-0.308172	0.000080
C124	C	1.715171	0.191828	0.500080
H125	H	1.267159	-0.277703	0.000100
H126	H	1.767159	0.222297	0.500100
H127	H	1.215477	-0.340370	-0.058103
H128	H	1.715477	0.159630	0.441897
H129	H	1.215447	-0.340374	0.058271
H130	H	1.715447	0.159626	0.558271
H131	H	1.179577	-0.389906	0.000034
H132	H	1.679577	0.110094	0.500034
H133	H	1.234542	-0.671263	0.000064
H134	H	1.734542	-0.171263	0.500064
C135	C	0.802268	0.261680	0.000022
C136	C	1.302268	0.761680	0.500022
H137	H	0.757599	0.303412	0.000022
H138	H	1.257599	0.803412	0.500022
H139	H	0.838782	0.265242	-0.058163
H140	H	1.338782	0.765242	0.441837
H141	H	0.838773	0.265249	0.058211
H142	H	1.338773	0.765249	0.558211
C143	C	0.914707	-0.646773	0.000028
C144	C	1.414707	-0.146773	0.500028
H145	H	0.921080	-0.702510	0.000042
H146	H	1.421080	-0.202510	0.500042
H147	H	0.882558	-0.629614	-0.058158
H148	H	1.382558	-0.129614	0.441842
H149	H	0.882545	-0.629615	0.058215
H150	H	1.382545	-0.129615	0.558215
C151	C	0.322085	0.253766	0.000059
C152	C	0.822085	0.753766	0.500059
H153	H	0.260024	0.242531	0.000069
H154	H	0.760024	0.742531	0.500069
H155	H	0.335345	0.283289	-0.058123
H156	H	0.835345	0.783289	0.441877
H157	H	0.335341	0.283278	0.058251
H158	H	0.835341	0.783278	0.558251
H159	H	1.177133	0.011884	0.752851
H160	H	1.677133	0.511884	1.252851
C161	C	0.490787	-0.114247	0.000078
C162	C	0.990787	0.385753	0.500078
H163	H	0.427214	-0.105079	0.000069
H164	H	0.927214	0.394921	0.500069
H165	H	0.508381	-0.143261	0.058261
H166	H	1.008381	0.356739	0.558261
H167	H	0.508391	-0.143252	-0.058113
H168	H	1.008391	0.356748	0.441887
H169	H	1.248935	-0.523295	0.000071
H170	H	1.748935	-0.023295	0.500071
H171	H	0.472987	0.307185	0.000029
H172	H	0.972987	0.807185	0.500029
H173	H	1.234357	-0.041188	0.595312
H174	H	1.734357	0.458812	1.095312
C175	C	0.655747	0.330584	0.000035
C176	C	1.155747	0.830584	0.500035
H177	H	0.611077	0.372316	0.000042
H178	H	1.111077	0.872316	0.500042
H179	H	0.692264	0.334156	-0.058146
H180	H	1.192264	0.834156	0.441854
H181	H	0.692249	0.334145	0.058228
H182	H	1.192249	0.834145	0.558228
H183	H	1.234347	-0.041201	0.404780
H184	H	1.734347	0.458799	0.904780
H185	H	1.177091	0.011879	0.247250
H186	H	1.677091	0.511879	0.747250
C187	C	0.931359	-0.475501	0.000040
C188	C	1.431359	0.024499	0.500040
H189	H	0.879373	-0.505973	0.000048
H190	H	1.379373	-0.005973	0.500048
H191	H	0.931067	-0.443294	-0.058140
H192	H	1.431067	0.056706	0.441860
H193	H	0.931064	-0.443308	0.058233
H194	H	1.431064	0.056692	0.558233
C195	C	0.953106	0.219616	0.767878
C196	C	1.453106	0.719616	1.267878
H197	H	0.961310	0.212020	0.837946
H198	H	1.461310	0.712020	1.337946
H199	H	0.892282	0.211030	0.750675
H200	H	1.392282	0.711030	1.250675
H201	H	0.966904	0.271820	0.750658
H202	H	1.466904	0.771820	1.250658
H203	H	0.897604	-0.260382	0.000031
H204	H	1.397604	0.239618	0.500031
C205	C	0.889861	-0.098117	0.000043
C206	C	1.389861	0.401883	0.500043
H207	H	0.837872	-0.128584	0.000046
H208	H	1.337872	0.371416	0.500046
H209	H	0.889580	-0.065912	-0.058140
H210	H	1.389580	0.434088	0.441860
H211	H	0.889563	-0.065921	0.058234
H212	H	1.389563	0.434079	0.558234
C213	C	0.824462	-0.037444	0.000052
C214	C	1.324462	0.462556	0.500052
H215	H	0.886523	-0.026212	0.000050
H216	H	1.386523	0.473788	0.500050
H217	H	0.811201	-0.066964	-0.058125
H218	H	1.311201	0.433036	0.441875
H219	H	0.811203	-0.066958	0.058249
H220	H	1.311203	0.433042	0.558249
H221	H	0.966954	-0.393771	0.000041
H222	H	1.466954	0.106229	0.500041
C223	C	0.953056	0.219620	0.232264
C224	C	1.453056	0.719620	0.732264
H225	H	0.918978	0.251229	0.278585
H226	H	1.418978	0.751229	0.778585
H227	H	0.913367	0.191435	0.191300
H228	H	1.413367	0.691435	0.691300
H229	H	0.987987	0.252227	0.191291
H230	H	1.487987	0.752227	0.691291
H231	H	0.356207	-0.024781	0.000086
H232	H	0.856207	0.475219	0.500086
C233	C	0.895834	0.272691	0.389800
C234	C	1.395834	0.772691	0.889800
H235	H	0.861751	0.304304	0.436113
H236	H	1.361751	0.804304	0.936113
H237	H	0.856150	0.244504	0.348834
H238	H	1.356150	0.744504	0.848834
H239	H	0.930770	0.305295	0.348828
H240	H	1.430770	0.805295	0.848828
H241	H	0.912205	0.257519	0.595346
H242	H	1.412205	0.757519	1.095346
H243	H	0.673560	-0.090863	0.000063
H244	H	1.173560	0.409137	0.500063
