data_functionalizedCrystal
_audit_creation_method	'MofGen! by Chris Wilmer'
_symmetry_space_group_name_H-M	'P1'
_symmetry_Int_Tables_number	1
_symmetry_cell_setting	triclinic
loop_
_symmetry_equiv_pos_as_xyz
  x,y,z
_cell_length_a	16.992694
_cell_length_b	16.109301
_cell_length_c	15.186229
_cell_angle_alpha	89.986602
_cell_angle_beta	90.001788
_cell_angle_gamma	92.935148
loop_
_atom_site_label
_atom_site_type_symbol
_atom_site_fract_x
_atom_site_fract_y
_atom_site_fract_z
O1	O	1.040349	-0.176298	0.073123
O2	O	1.540349	0.323702	0.573123
O3	O	0.812064	-0.174364	0.073149
O4	O	1.312064	0.325636	0.573149
O5	O	0.932478	-0.054718	0.073126
O6	O	1.432478	0.445282	0.573126
O7	O	0.919936	-0.295943	0.073146
O8	O	1.419936	0.204057	0.573146
O9	O	0.932462	-0.054696	-0.073331
O10	O	1.432462	0.445304	0.426669
O11	O	0.812048	-0.174342	-0.073308
O12	O	1.312048	0.325658	0.426692
O13	O	1.040333	-0.176276	-0.073334
O14	O	1.540333	0.323724	0.426666
Zn15	Zn	0.926188	-0.175306	-0.096574
Zn16	Zn	1.426188	0.324694	0.403426
Zn17	Zn	0.926209	-0.175334	0.096389
Zn18	Zn	1.426209	0.324666	0.596389
O19	O	0.919919	-0.295921	-0.073312
O20	O	1.419919	0.204079	0.426688
C21	C	0.782844	-0.171865	-0.000076
C22	C	1.282844	0.328135	0.499924
C23	C	0.695802	-0.164441	-0.000067
C24	C	1.195802	0.335559	0.499933
C25	C	0.931962	-0.023699	-0.000103
C26	C	1.431962	0.476301	0.499897
C27	C	0.930439	0.068698	-0.000104
C28	C	1.430439	0.568698	0.499896
N29	N	0.926179	-0.175286	-0.228267
N30	N	1.426179	0.324714	0.271733
C31	C	0.645543	-0.236067	-0.000062
C32	C	1.145543	0.263933	0.499938
C33	C	0.563758	-0.229087	-0.000074
C34	C	1.063758	0.270913	0.499926
C35	C	0.532234	-0.150480	-0.000086
C36	C	1.032234	0.349520	0.499914
C37	C	0.582499	-0.078849	-0.000094
C38	C	1.082499	0.421151	0.499906
C39	C	0.664282	-0.085830	-0.000087
C40	C	1.164282	0.414170	0.499913
C41	C	0.288644	-0.121548	-0.000112
C42	C	0.788644	0.378452	0.499888
C43	C	0.206854	-0.114572	-0.000116
C44	C	0.706854	0.385428	0.499884
C45	C	0.188119	-0.264811	-0.000098
C46	C	0.688119	0.235189	0.499902
C47	C	0.269904	-0.271785	-0.000086
C48	C	0.769904	0.228215	0.499914
C49	C	0.320163	-0.200154	-0.000099
C50	C	0.820163	0.299846	0.499901
N51	N	0.448637	-0.143344	-0.000096
N52	N	0.948637	0.356656	0.499904
N53	N	0.403758	-0.207291	-0.000095
N54	N	0.903758	0.292709	0.499905
C55	C	1.069553	-0.178775	-0.000107
C56	C	1.569553	0.321225	0.499893
C57	C	1.156595	-0.186198	-0.000111
C58	C	1.656595	0.313802	0.499889
C59	C	0.920435	-0.326941	-0.000081
C60	C	1.420435	0.173059	0.499919
C61	C	0.921959	-0.419338	-0.000074
C62	C	1.421959	0.080662	0.499926
C63	C	0.998348	0.286439	-0.000097
C64	C	1.498348	0.786439	0.499903
C65	C	0.996911	0.373256	-0.000090
C66	C	1.496911	0.873256	0.499910
C67	C	0.854044	0.362915	-0.000077
C68	C	1.354044	0.862915	0.499923
C69	C	0.855482	0.276100	-0.000078
C70	C	1.355482	0.776100	0.499922
C71	C	0.927636	0.237865	-0.000093
C72	C	1.427636	0.737865	0.499907
C73	C	0.924761	0.411496	-0.000084
C74	C	1.424761	0.911496	0.499916
C75	C	0.923202	0.505626	-0.000076
C76	C	1.423202	1.005626	0.499924
C77	C	0.929196	0.143729	-0.000099
C78	C	1.429196	0.643729	0.499901
C79	C	0.878665	-0.121712	-0.546218
C80	C	1.378665	0.378288	-0.046218
C81	C	0.878659	-0.121700	-0.454028
C82	C	1.378659	0.378300	0.045972
C83	C	0.973744	-0.228923	-0.453974
C84	C	1.473744	0.271077	0.046026
C85	C	0.973754	-0.228931	-0.546162
C86	C	1.473754	0.271069	-0.046162
C87	C	0.926210	-0.175327	-0.592281
C88	C	1.426210	0.324673	-0.092281
C89	C	0.926193	-0.175307	-0.407904
C90	C	1.426193	0.324693	0.092096
C91	C	0.926186	-0.175293	-0.307948
C92	C	1.426186	0.324707	0.192052
C93	C	0.926218	-0.175339	-0.692244
C94	C	1.426218	0.324661	-0.192244
N95	N	0.926225	-0.175348	0.228082
N96	N	1.426225	0.324652	0.728082
H97	H	0.671204	-0.300077	-0.000052
H98	H	1.171204	0.199923	0.499948
N99	N	1.025058	-0.286740	-0.595853
N100	N	1.525058	0.213260	-0.095853
H101	H	1.055176	-0.320695	-0.552649
H102	H	1.555176	0.179305	-0.052649
H103	H	0.990883	-0.325101	-0.634107
H104	H	1.490883	0.174899	-0.134107
N105	N	0.776225	0.404158	-0.000080
N106	N	1.276225	0.904158	0.499920
H107	H	0.731648	0.360210	-0.000076
H108	H	1.231648	0.860210	0.499924
H109	H	0.772518	0.439943	0.054212
H110	H	1.272518	0.939943	0.554212
N111	N	0.779211	0.223701	-0.000067
N112	N	1.279211	0.723701	0.499933
H113	H	0.733284	0.261095	-0.000064
H114	H	1.233284	0.761095	0.499936
H115	H	0.776692	0.187466	-0.054360
H116	H	1.276692	0.687466	0.445640
N117	N	0.718489	-0.008573	-0.000097
N118	N	1.218489	0.491427	0.499903
H119	H	0.708354	0.025477	0.054189
H120	H	1.208354	0.525477	0.554189
H121	H	0.775060	-0.024988	-0.000129
H122	H	1.275060	0.475012	0.499871
H123	H	0.522840	-0.287413	-0.000069
H124	H	1.022840	0.212587	0.499931
H125	H	0.556826	-0.014846	-0.000116
H126	H	1.056826	0.485154	0.499884
N127	N	0.827395	-0.063894	-0.595963
N128	N	1.327395	0.436106	-0.095963
H129	H	0.797278	-0.029925	-0.552790
H130	H	1.297278	0.470075	-0.052790
H131	H	0.861599	-0.025546	-0.634218
H132	H	1.361599	0.474454	-0.134218
N133	N	0.827382	-0.063870	-0.404344
N134	N	1.327382	0.436130	0.095656
H135	H	0.797268	-0.029915	-0.447552
H136	H	1.297268	0.470085	0.052448
H137	H	0.789041	-0.097546	-0.366086
H138	H	1.289041	0.402454	0.133914
H139	H	0.295565	-0.335795	-0.000067
H140	H	0.795565	0.164205	0.499933
H141	H	1.054491	0.412802	-0.000092
H142	H	1.554491	0.912802	0.499908
H143	H	0.147190	-0.323129	-0.000090
H144	H	0.647190	0.176871	0.499910
H145	H	0.329554	-0.063220	-0.000123
H146	H	0.829554	0.436780	0.499877
H147	H	1.057100	0.255311	-0.000107
H148	H	1.557100	0.755311	0.499893
N149	N	0.172850	-0.029785	-0.000123
N150	N	0.672850	0.470215	0.499877
H151	H	0.217097	0.014534	-0.000130
H152	H	0.717097	0.514534	0.499870
H153	H	0.139322	-0.023613	-0.054416
H154	H	0.639322	0.476387	0.445584
N155	N	1.025021	-0.286737	-0.404230
N156	N	1.525021	0.213263	0.095770
H157	H	1.017800	-0.278599	-0.338839
H158	H	1.517800	0.221401	0.161161
H159	H	1.009519	-0.346167	-0.420327
H160	H	1.509519	0.153833	0.079673
