data_functionalizedCrystal
_audit_creation_method	'MofGen! by Chris Wilmer'
_symmetry_space_group_name_H-M	'P1'
_symmetry_Int_Tables_number	1
_symmetry_cell_setting	triclinic
loop_
_symmetry_equiv_pos_as_xyz
  x,y,z
_cell_length_a	11.026607
_cell_length_b	19.188930
_cell_length_c	9.482900
_cell_angle_alpha	99.297616
_cell_angle_beta	78.636152
_cell_angle_gamma	95.865399
loop_
_atom_site_label
_atom_site_type_symbol
_atom_site_fract_x
_atom_site_fract_y
_atom_site_fract_z
O1	O	1.627581	0.283622	-0.120957
O2	O	1.274451	0.250352	-0.120952
O3	O	1.461202	0.166632	-0.120926
O4	O	1.440830	0.367342	-0.120983
O5	O	1.423268	0.183725	0.120861
O6	O	1.236517	0.267445	0.120835
O7	O	1.589648	0.300715	0.120830
Cu8	Cu	1.409619	0.285641	0.142910
Cu9	Cu	1.454480	0.265426	-0.143032
O10	O	1.402896	0.384435	0.120804
C11	C	1.210306	0.252761	-0.000057
C12	C	1.075688	0.234464	-0.000054
C13	C	1.001617	0.284984	-0.000069
C14	C	0.862482	0.266075	-0.000066
C15	C	1.441575	0.149084	-0.000029
C16	C	1.439592	0.071328	-0.000016
C17	C	1.549173	0.040370	-0.000011
C18	C	1.547315	-0.032693	-0.000034
C19	C	1.435865	-0.074793	-0.000033
C20	C	1.326271	-0.043828	-0.000047
C21	C	1.328134	0.029233	-0.000038
N22	N	1.337766	-0.187838	0.082253
N23	N	1.336003	-0.257242	0.082248
C24	C	1.430246	-0.294921	-0.000063
N25	N	1.526334	-0.260572	-0.082349
N26	N	1.528099	-0.191161	-0.082338
C27	C	1.433833	-0.154016	-0.000044
C28	C	1.537820	-0.405101	-0.000085
C29	C	1.535959	-0.478166	-0.000117
C30	C	1.314910	-0.489299	-0.000115
C31	C	1.316776	-0.416236	-0.000098
C32	C	1.428234	-0.374141	-0.000075
C33	C	1.653793	0.298306	-0.000068
C34	C	1.788412	0.316602	-0.000081
C35	C	1.422524	0.401983	-0.000097
C36	C	1.424509	0.479738	-0.000119
N37	N	1.378075	0.299859	0.344025
N38	N	1.486034	0.251204	-0.344148
C39	C	1.445167	0.269615	0.416234
C40	C	1.418931	0.281452	0.583648
H41	H	1.636553	-0.057905	-0.000036
C42	C	1.171146	-0.331752	0.124207
C43	C	1.196321	-0.382198	-0.000088
H44	H	1.096783	-0.310736	0.124201
H45	H	1.161778	-0.354071	0.208505
H46	H	1.237800	-0.296230	0.124196
H47	H	1.129671	-0.417723	-0.000071
H48	H	1.205681	-0.359878	-0.084407
C49	C	0.868011	0.146730	-0.124329
C50	C	0.809061	0.188781	-0.000046
H51	H	0.835034	0.099013	-0.124309
H52	H	0.854478	0.163345	-0.208635
H53	H	0.954502	0.149305	-0.124314
H54	H	0.722571	0.186211	-0.000066
H55	H	0.822584	0.172161	0.084281
H56	H	1.224167	-0.523576	-0.000122
C57	C	1.538728	0.147287	0.484915
C58	C	1.589643	0.204260	0.572193
H59	H	1.602645	0.118264	0.433315
H60	H	1.478829	0.120229	0.544441
H61	H	1.500199	0.164733	0.417779
H62	H	1.628165	0.186814	0.639336
H63	H	1.649564	0.231322	0.512661
H64	H	1.235528	-0.078111	-0.000050
C65	C	1.146392	0.367091	-0.124384
C66	C	1.055047	0.362273	-0.000088
H67	H	1.179369	0.414808	-0.124395
H68	H	1.210883	0.337850	-0.124362
H69	H	1.110866	0.351892	-0.208690
H70	H	1.090577	0.377467	0.084219
H71	H	0.990546	0.391524	-0.000096
C72	C	1.232846	0.136284	-0.000029
C73	C	1.207674	0.063267	-0.000040
H74	H	1.158478	0.157294	-0.000038
H75	H	1.265322	0.156491	0.084287
H76	H	1.291796	0.144586	-0.084347
H77	H	1.148730	0.054965	0.084283
H78	H	1.175180	0.043054	-0.084365
C79	C	1.201551	0.299629	0.630843
C80	C	1.315155	0.328236	0.667491
H81	H	1.137486	0.328509	0.682614
H82	H	1.205575	0.297819	0.529350
H83	H	1.184539	0.253160	0.655735
H84	H	1.332172	0.374703	0.642588
H85	H	1.311132	0.330054	0.769006
C86	C	0.746737	0.436990	-0.000108
C87	C	0.841833	0.393895	-0.000098
H88	H	0.779718	0.484707	-0.000109
H89	H	0.711238	0.421792	-0.084420
H90	H	0.684772	0.433706	0.084214
H91	H	0.903794	0.397175	-0.084426
H92	H	0.877351	0.409098	0.084223
C93	C	1.160700	0.318034	0.391226
C94	C	1.274304	0.346641	0.427874
H95	H	1.096635	0.346914	0.442997
H96	H	1.164724	0.316224	0.289734
H97	H	1.143687	0.271565	0.416119
H98	H	1.291321	0.393108	0.402972
H99	H	1.270281	0.348459	0.529389
H100	H	1.036104	0.177212	-0.000075
H101	H	1.628576	-0.370826	-0.000073
C102	C	1.767480	0.044029	-0.000007
C103	C	1.671688	0.086638	-0.000002
H104	H	1.843115	0.072596	-0.000012
H105	H	1.748924	0.021257	0.084302
H106	H	1.775377	0.009346	-0.084332
H107	H	1.663785	0.121319	0.084328
H108	H	1.690247	0.109422	-0.084320
H109	H	1.625199	-0.503371	-0.000121
H110	H	1.522028	0.234957	0.354116
