data_functionalizedCrystal
_audit_creation_method	'MofGen! by Chris Wilmer'
_symmetry_space_group_name_H-M	'P1'
_symmetry_Int_Tables_number	1
_symmetry_cell_setting	triclinic
loop_
_symmetry_equiv_pos_as_xyz
  x,y,z
_cell_length_a	12.759395
_cell_length_b	12.594516
_cell_length_c	12.759387
_cell_angle_alpha	89.970353
_cell_angle_beta	89.981185
_cell_angle_gamma	90.017589
loop_
_atom_site_label
_atom_site_type_symbol
_atom_site_fract_x
_atom_site_fract_y
_atom_site_fract_z
Zn1	Zn	1.606241	-0.423630	-0.594022
Zn2	Zn	1.606133	-0.601651	-0.418349
Zn3	Zn	1.430545	-0.423692	-0.418359
Zn4	Zn	1.430528	-0.601572	-0.593989
O5	O	1.518362	-0.512636	-0.506180
O6	O	1.753248	-0.447252	-0.570729
O7	O	1.582803	-0.578103	-0.271330
O8	O	1.453904	-0.274738	-0.441679
O9	O	1.753168	-0.578044	-0.441663
O10	O	1.582987	-0.274693	-0.570738
O11	O	1.453799	-0.447357	-0.271336
O12	O	1.283521	-0.447281	-0.441646
O13	O	1.453875	-0.577909	-0.741014
O14	O	1.283509	-0.577968	-0.570681
O15	O	1.582971	-0.447176	-0.741039
O16	O	1.582786	-0.750586	-0.441631
O17	O	1.453770	-0.750528	-0.570672
C18	C	1.245394	-0.512623	-0.506162
C19	C	1.128617	-0.512643	-0.506179
C20	C	1.128643	-0.648949	-0.640325
C21	C	1.073795	-0.717110	-0.707401
C22	C	0.964073	-0.717123	-0.707414
C23	C	0.909197	-0.648965	-0.640346
C24	C	0.964045	-0.580804	-0.573270
C25	C	1.073769	-0.580801	-0.573262
C26	C	0.964020	-0.444495	-0.439130
C27	C	1.073741	-0.444486	-0.439111
C28	C	0.909144	-0.376337	-0.372062
C29	C	0.963992	-0.308180	-0.304979
C30	C	1.073720	-0.308171	-0.304968
C31	C	1.128589	-0.376325	-0.372034
C32	C	1.518293	-0.789177	-0.506169
C33	C	1.518359	-0.907483	-0.506200
C34	C	1.448181	-0.976743	-0.576336
C35	C	1.422582	-1.047615	-0.480469
C36	C	1.544054	-1.047410	-0.602083
C37	C	1.492710	-0.976796	-0.410282
C38	C	1.614226	-0.976585	-0.531961
C39	C	1.588664	-1.047425	-0.436028
C40	C	1.792395	-0.512650	-0.506198
C41	C	1.909172	-0.512656	-0.506206
C42	C	1.518433	-0.512526	-0.780213
C43	C	1.518463	-0.512479	-0.896990
C44	C	1.518459	-0.235015	-0.506213
C45	C	1.518501	-0.116710	-0.506227
C46	C	1.384140	-0.376325	-0.897016
C47	C	1.316998	-0.308226	-0.951890
C48	C	1.317029	-0.308187	-1.061612
C49	C	1.384208	-0.376257	-1.116462
C50	C	1.451351	-0.444356	-1.061588
C51	C	1.451314	-0.444385	-0.951864
C52	C	1.585667	-0.580515	-1.061562
C53	C	1.585642	-0.580549	-0.951840
C54	C	1.652845	-0.648584	-1.116413
C55	C	1.719995	-0.716679	-1.061539
C56	C	1.719961	-0.716714	-0.951810
C57	C	1.652784	-0.648648	-0.896967
C58	C	1.518351	-0.512669	-0.233212
C59	C	1.518524	-0.512416	-0.116436
H60	H	1.217930	-0.376327	-0.372029
C61	C	1.722252	-0.934891	-0.560826
C62	C	1.761646	-0.873821	-0.478062
C63	C	1.861162	-0.835407	-0.504621
H64	H	1.717310	-0.892217	-0.622030
H65	H	1.767987	-0.992940	-0.573763
H66	H	1.715922	-0.815780	-0.465139
H67	H	1.766613	-0.916472	-0.416850
H68	H	1.906897	-0.893456	-0.517557
H69	H	1.856210	-0.792738	-0.565826
H70	H	1.887908	-0.793976	-0.448467
C71	C	0.790017	-0.376352	-0.371844
C72	C	0.753675	-0.403351	-0.271763
C73	C	0.643942	-0.403361	-0.271511
H74	H	0.765068	-0.426703	-0.421312
H75	H	0.765179	-0.307680	-0.390077
H76	H	0.778502	-0.472013	-0.253542
H77	H	0.778595	-0.353009	-0.222277
H78	H	0.619104	-0.334689	-0.289745
H79	H	0.619003	-0.453712	-0.320984
H80	H	0.619270	-0.421669	-0.203606
C81	C	1.314644	-1.089283	-0.451218
C82	C	1.322043	-1.150423	-0.359843
C83	C	1.222629	-1.188810	-0.332866
H84	H	1.288224	-1.131903	-0.506641
H85	H	1.268608	-1.031221	-0.439459
H86	H	1.368063	-1.208477	-0.371607
H87	H	1.348445	-1.107825	-0.304399
H88	H	1.176593	-1.130747	-0.321107
H89	H	1.196217	-1.231425	-0.388295
H90	H	1.227635	-1.230289	-0.270860
C91	C	1.383918	-0.376242	-0.777889
C92	C	1.310703	-0.302074	-0.741599
C93	C	1.310457	-0.301978	-0.631865
H94	H	1.451656	-0.357818	-0.752944
H95	H	1.365657	-0.444913	-0.753014
H96	H	1.328970	-0.233417	-0.766464
H97	H	1.242954	-0.320480	-0.766515
H98	H	1.292196	-0.370650	-0.606989
H99	H	1.378198	-0.283556	-0.606930
H100	H	1.260775	-0.251664	-0.607228
H101	H	1.774640	-0.772165	-0.907138
H102	H	1.565729	-1.078428	-0.683160
H103	H	1.470941	-0.945906	-0.329184
C104	C	1.243888	-0.234458	-0.892390
C105	C	1.139935	-0.257631	-0.919052
C106	C	1.072554	-0.189712	-0.864255
H107	H	1.259160	-0.162901	-0.910340
H108	H	1.253413	-0.244241	-0.819175
H109	H	1.130414	-0.247839	-0.992251
H110	H	1.124630	-0.329176	-0.901100
H111	H	1.082080	-0.199495	-0.791039
H112	H	1.087836	-0.118158	-0.882208
H113	H	1.002014	-0.205431	-0.882329
C114	C	1.653009	-0.648731	-1.235539
C115	C	1.726195	-0.722930	-1.271826
C116	C	1.726373	-0.723100	-1.381560
H117	H	1.671260	-0.580101	-1.260495
H118	H	1.585231	-0.667166	-1.260407
H119	H	1.793958	-0.704489	-1.246970
H120	H	1.707961	-0.791571	-1.246899
H121	H	1.658595	-0.741535	-1.406427
H122	H	1.744622	-0.654466	-1.406506
H123	H	1.776022	-0.773450	-1.406194
H124	H	1.384218	-0.376229	-1.205803
C125	C	1.368745	-0.935407	-0.655169
C126	C	1.268588	-0.971382	-0.627715
C127	C	1.195383	-0.933312	-0.700297
H128	H	1.386139	-0.960599	-0.723141
H129	H	1.369623	-0.859978	-0.655042
H130	H	1.267713	-1.046796	-0.627853
H131	H	1.251161	-0.946193	-0.559755
H132	H	1.196261	-0.857883	-0.700169
H133	H	1.212787	-0.958507	-0.768264
H134	H	1.127417	-0.957708	-0.681674
C135	C	1.133322	-0.790975	-0.780390
C136	C	1.106703	-0.767915	-0.884385
C137	C	1.161525	-0.835925	-0.951653
H138	H	1.115363	-0.862510	-0.765030
H139	H	1.206533	-0.781200	-0.770848
H140	H	1.033508	-0.777700	-0.893922
H141	H	1.124664	-0.696392	-0.899777
H142	H	1.234737	-0.826150	-0.942110
H143	H	1.143562	-0.907457	-0.936284
H144	H	1.143479	-0.820283	-1.022221
H145	H	1.648073	-1.078265	-0.376659
H146	H	0.919303	-0.252687	-0.250383
H147	H	1.652754	-0.648666	-0.807625
C148	C	1.793094	-0.790515	-1.120955
C149	C	1.897047	-0.767377	-1.094264
C150	C	1.964417	-0.835382	-1.148970
H151	H	1.783635	-0.780812	-1.194176
H152	H	1.777747	-0.862051	-1.102932
H153	H	1.912389	-0.695858	-1.112293
H154	H	1.906540	-0.777086	-1.021052
H155	H	1.949070	-0.906918	-1.130948
H156	H	1.954948	-0.825673	-1.222188
H157	H	2.034956	-0.819699	-1.130861
H158	H	1.217984	-0.648953	-0.640314
H159	H	0.919416	-0.772620	-0.762038
H160	H	0.819856	-0.648972	-0.640371
H161	H	1.262355	-0.252737	-1.106290
H162	H	1.118371	-0.252658	-0.250354
