data_functionalizedCrystal
_audit_creation_method	'MofGen! by Chris Wilmer'
_symmetry_space_group_name_H-M	'P1'
_symmetry_Int_Tables_number	1
_symmetry_cell_setting	triclinic
loop_
_symmetry_equiv_pos_as_xyz
  x,y,z
_cell_length_a	33.592126
_cell_length_b	33.591377
_cell_length_c	33.588093
_cell_angle_alpha	60.004089
_cell_angle_beta	60.008299
_cell_angle_gamma	59.994549
loop_
_atom_site_label
_atom_site_type_symbol
_atom_site_fract_x
_atom_site_fract_y
_atom_site_fract_z
O1	O	0.055297	-0.581666	0.486338
O2	O	0.555297	-0.081666	0.986338
O3	O	0.020882	-0.452873	0.391864
O4	O	0.520882	0.047127	0.891864
O5	O	0.102445	-0.534352	0.391775
O6	O	0.602445	-0.034352	0.891775
O7	O	-0.026266	-0.500187	0.486427
O8	O	0.473734	-0.000187	0.986427
O9	O	0.129510	-0.507292	0.418747
O10	O	0.629510	-0.007292	0.918747
O11	O	0.047947	-0.425814	0.418835
O12	O	0.547947	0.074186	0.918835
O13	O	0.082362	-0.554606	0.513309
O14	O	0.582362	-0.054606	1.013309
Cu15	Cu	0.067626	-0.487739	0.468535
Cu16	Cu	0.567626	0.012261	0.968535
Cu17	Cu	0.035618	-0.519740	0.436638
Cu18	Cu	0.535618	-0.019740	0.936638
O19	O	0.000799	-0.473128	0.513398
O20	O	0.500799	0.026872	1.013398
N21	N	0.090139	-0.465235	0.490972
N22	N	0.590139	0.034765	0.990972
N23	N	0.013110	-0.542249	0.414202
N24	N	0.513110	-0.042249	0.914202
C25	C	0.124394	-0.431229	0.734914
C26	C	0.624394	0.068771	1.234914
C27	C	0.334265	-0.431145	0.524799
C28	C	0.834265	0.068855	1.024799
C29	C	0.124204	-0.431200	0.524965
C30	C	0.624204	0.068800	1.024965
C31	C	0.124184	-0.221175	0.524955
C32	C	0.624184	0.278825	1.024955
C33	C	0.158017	-0.322536	0.558710
C34	C	0.658017	0.177464	1.058710
C35	C	0.158027	-0.397406	0.558711
C36	C	0.658027	0.102594	1.058711
C37	C	0.176763	-0.378688	0.577408
C38	C	0.676763	0.121312	1.077408
C39	C	0.258412	-0.364594	0.534386
C40	C	0.758412	0.135406	1.034386
C41	C	0.309454	-0.381596	0.517340
C42	C	0.809454	0.118404	1.017340
C43	C	0.309485	-0.464188	0.548836
C44	C	0.809485	0.035812	1.048836
C45	C	0.258444	-0.447186	0.565883
C46	C	0.758444	0.052814	1.065883
C47	C	0.170304	-0.297002	0.508532
C48	C	0.670304	0.202998	1.008532
C49	C	0.153260	-0.245956	0.491537
C50	C	0.653260	0.254044	0.991537
C51	C	0.111648	-0.245983	0.574901
C52	C	0.611648	0.254017	1.074901
C53	C	0.128691	-0.297029	0.591896
C54	C	0.628691	0.202971	1.091896
C55	C	0.107841	-0.385091	0.571080
C56	C	0.607841	0.114909	1.071080
C57	C	0.090813	-0.402108	0.554078
C58	C	0.590813	0.097892	1.054078
C59	C	0.174153	-0.443755	0.512351
C60	C	0.674153	0.056245	1.012351
C61	C	0.191183	-0.426739	0.529347
C62	C	0.691183	0.073261	1.029347
C63	C	0.107923	-0.385106	0.659111
C64	C	0.607923	0.114894	1.159111
C65	C	0.090955	-0.402138	0.710156
C66	C	0.590955	0.097862	1.210156
C67	C	0.174335	-0.443795	0.710087
C68	C	0.674335	0.056205	1.210087
C69	C	0.191302	-0.426764	0.659041
C70	C	0.691302	0.073236	1.159041
C71	C	0.158095	-0.397418	0.633555
C72	C	0.658095	0.102582	1.133555
C73	C	0.232909	-0.397388	0.558656
C74	C	0.732909	0.102612	1.058656
C75	C	0.105069	-0.449619	0.791057
C76	C	0.605069	0.050381	1.291057
C77	C	0.390406	-0.449193	0.505789
C78	C	0.890406	0.050807	1.005789
C79	C	0.104813	-0.449599	0.506607
C80	C	0.604813	0.050401	1.006607
C81	C	0.105125	-0.165028	0.506915
C82	C	0.605125	0.334972	1.006915
C83	C	-0.020560	-0.576246	0.169890
C84	C	0.479440	-0.076246	0.669890
C85	C	-0.020889	-0.786183	0.379970
C86	C	0.479111	-0.286183	0.879970
C87	C	-0.020859	-0.576235	0.380063
C88	C	0.479141	-0.076235	0.880063
C89	C	-0.230772	-0.576015	0.379658
C90	C	0.269228	-0.076015	0.879658
C91	C	-0.129417	-0.609898	0.346025
C92	C	0.370583	-0.109898	0.846025
C93	C	-0.054587	-0.609979	0.346172
C94	C	0.445413	-0.109979	0.846172
C95	C	-0.073269	-0.628671	0.327396
C96	C	0.426731	-0.128671	0.827396
C97	C	-0.087401	-0.710299	0.370335
C98	C	0.412599	-0.210299	0.870335
C99	C	-0.070424	-0.761345	0.387369
C100	C	0.429576	-0.261345	0.887369
C101	C	0.012165	-0.761428	0.356003
C102	C	0.512165	-0.261428	0.856003
C103	C	-0.004813	-0.710383	0.338967
C104	C	0.495187	-0.210383	0.838967
C105	C	-0.155001	-0.622196	0.396191
C106	C	0.344999	-0.122196	0.896191
C107	C	-0.206043	-0.605128	0.413125
C108	C	0.293957	-0.105128	0.913125
C109	C	-0.205914	-0.563467	0.329724
C110	C	0.294086	-0.063467	0.829724
C111	C	-0.154872	-0.580535	0.312790
C112	C	0.345128	-0.080535	0.812790
C113	C	-0.066886	-0.559797	0.333828
C114	C	0.433114	-0.059797	0.833828
C115	C	-0.049903	-0.542809	0.350903
C116	C	0.450097	-0.042809	0.850903
C117	C	-0.008321	-0.626180	0.392654
C118	C	0.491679	-0.126180	0.892654
C119	C	-0.025304	-0.643170	0.375585
C120	C	0.474696	-0.143170	0.875585
C121	C	-0.066758	-0.559805	0.245702
C122	C	0.433242	-0.059805	0.745702
C123	C	-0.049671	-0.542819	0.194658
C124	C	0.450329	-0.042819	0.694658
C125	C	-0.008026	-0.626194	0.194706
C126	C	0.491974	-0.126194	0.694706
C127	C	-0.025111	-0.643179	0.245752
C128	C	0.474889	-0.143179	0.745752
C129	C	-0.054479	-0.609983	0.271248
C130	C	0.445521	-0.109983	0.771248
C131	C	-0.054597	-0.684821	0.346135
C132	C	0.445403	-0.184821	0.846135
C133	C	-0.002109	-0.556901	0.113746
C134	C	0.497891	-0.056901	0.613746
C135	C	-0.002869	-0.842328	0.398966
C136	C	0.497131	-0.342328	0.898966
C137	C	-0.002496	-0.556887	0.398501
C138	C	0.497504	-0.056887	0.898501
C139	C	-0.286914	-0.556929	0.397631
C140	C	0.213086	-0.056929	0.897631
N141	N	0.436349	-0.465146	0.490703
N142	N	0.936349	0.034854	0.990703
O143	O	0.592194	-0.469605	0.374236
O144	O	1.092194	0.030395	0.874236
O145	O	0.592389	-0.564393	0.502890
O146	O	1.092389	-0.064393	1.002890
O147	O	0.592305	-0.564176	0.421300
O148	O	1.092305	-0.064176	0.921300
O149	O	0.592277	-0.469822	0.455826
O150	O	1.092277	0.030178	0.955826
O151	O	0.511216	-0.537214	0.448415
O152	O	1.011216	-0.037214	0.948415
O153	O	0.511300	-0.537431	0.530004
O154	O	1.011300	-0.037431	1.030004
O155	O	0.511104	-0.442643	0.401350
O156	O	1.011104	0.057357	0.901350
Cu157	Cu	0.503798	-0.487575	0.468153
Cu158	Cu	1.003798	0.012425	0.968153
Cu159	Cu	0.599695	-0.519461	0.436087
Cu160	Cu	1.099695	-0.019461	0.936087
O161	O	0.511188	-0.442860	0.482940
O162	O	1.011188	0.057140	0.982940
N163	N	0.667145	-0.541890	0.413532
N164	N	1.167145	-0.041890	0.913532
N165	N	0.090108	-0.119085	0.490958
N166	N	0.590108	0.380915	0.990958
O167	O	-0.026275	0.036848	0.486394
O168	O	0.473725	0.536848	0.986394
O169	O	0.102381	0.036888	0.391584
O170	O	0.602381	0.536888	0.891584
O171	O	0.020751	0.036852	0.391854
O172	O	0.520751	0.536852	0.891854
O173	O	0.055356	0.036884	0.486124
O174	O	0.555356	0.536884	0.986124
O175	O	0.047821	-0.044242	0.418876
O176	O	0.547821	0.455758	0.918876
O177	O	0.129452	-0.044207	0.418606
O178	O	0.629452	0.455793	0.918606
O179	O	0.000796	-0.044246	0.513417
O180	O	0.500796	0.455754	1.013417
Cu181	Cu	0.067596	-0.051631	0.468479
Cu182	Cu	0.567596	0.448369	0.968479
Cu183	Cu	0.035582	0.044273	0.436522
Cu184	Cu	0.535582	0.544273	0.936522
O185	O	0.082426	-0.044211	0.513146
O186	O	0.582426	0.455789	1.013146
N187	N	0.013063	0.111726	0.414043
N188	N	0.513063	0.611726	0.914043
N189	N	0.090453	-0.465282	0.837001
N190	N	0.590453	0.034718	1.337001
O191	O	0.085913	-0.581648	0.992925
O192	O	0.585913	-0.081648	1.492925
O193	O	-0.008857	-0.452947	0.992970
O194	O	0.491143	0.047053	1.492970
O195	O	-0.008635	-0.534562	0.992946
O196	O	0.491365	-0.034562	1.492946
O197	O	0.085691	-0.500033	0.992949
O198	O	0.585691	-0.000033	1.492949
O199	O	0.018365	-0.507512	0.911855
O200	O	0.518365	-0.007512	1.411855
O201	O	0.018143	-0.425898	0.911878
O202	O	0.518143	0.074102	1.411878
O203	O	0.112912	-0.554598	0.911834
O204	O	0.612912	-0.054598	1.411834
Cu205	Cu	0.067993	-0.487778	0.904452
Cu206	Cu	0.567993	0.012222	1.404452
Cu207	Cu	0.036063	-0.519767	1.000352
Cu208	Cu	0.536063	-0.019767	1.500352
O209	O	0.112691	-0.472984	0.911857
O210	O	0.612691	0.027016	1.411857
N211	N	0.013602	-0.542269	1.067803
N212	N	0.513602	-0.042269	1.567803
C213	C	0.031188	-0.423114	0.392334
C214	C	0.531188	0.076886	0.892334
C215	C	0.132194	-0.524016	0.392223
C216	C	0.632194	-0.024016	0.892223
C217	C	0.072056	-0.584366	0.512840
C218	C	0.572056	-0.084366	1.012840
C219	C	-0.028950	-0.483464	0.512950
C220	C	0.471050	0.016536	1.012950
C221	C	0.551868	-0.563965	0.532655
C222	C	1.051868	-0.063965	1.032655
C223	C	0.551766	-0.563697	0.431617
C224	C	1.051766	-0.063697	0.931617
C225	C	0.551623	-0.443070	0.371586
C226	C	1.051623	0.056930	0.871586
C227	C	0.551728	-0.443339	0.472623
C228	C	1.051728	0.056661	0.972623
C229	C	0.132090	-0.003555	0.392006
C230	C	0.632090	0.496445	0.892006
C231	C	0.031035	-0.003698	0.392374
C232	C	0.531035	0.496302	0.892374
C233	C	-0.028947	-0.003703	0.512961
C234	C	0.471053	0.496297	1.012961
C235	C	0.072143	-0.003661	0.512626
C236	C	0.572143	0.496339	1.012626
C237	C	-0.008408	-0.423209	0.952430
C238	C	0.491592	0.076791	1.452430
C239	C	-0.008128	-0.524272	0.952385
C240	C	0.491872	-0.024272	1.452385
C241	C	0.112464	-0.584336	0.952374
C242	C	0.612464	-0.084336	1.452374
C243	C	0.112190	-0.483267	0.952401
C244	C	0.612190	0.016733	1.452401
H245	H	0.080878	-0.361206	0.638363
H246	H	0.580878	0.138794	1.138363
O247	O	0.022212	-0.003805	0.357083
O248	O	0.522212	0.496195	0.857083
C249	C	0.010742	-0.045814	0.373905
C250	C	0.510742	0.454186	0.873905
H251	H	0.026499	-0.075153	0.404176
H252	H	0.526499	0.424847	0.904176
H253	H	-0.030547	-0.036334	0.388626
H254	H	0.469453	0.463666	0.888626
C255	C	0.013353	-0.028840	0.294325
C256	C	0.513353	0.471160	0.794325
C257	C	0.032709	-0.064877	0.331501
C258	C	0.532709	0.435123	0.831501
H259	H	0.026901	-0.040598	0.268169
H260	H	0.526901	0.459402	0.768169
H261	H	0.021078	-0.000536	0.282992
H262	H	0.521078	0.499464	0.782992
H263	H	-0.021054	-0.020943	0.306599
H264	H	0.478946	0.479057	0.806599
H265	H	0.067114	-0.072769	0.319229
H266	H	0.567114	0.427231	0.819229
H267	H	0.024990	-0.093182	0.342832
H268	H	0.524990	0.406818	0.842832
O269	O	0.551865	-0.599104	0.422802
O270	O	1.051865	-0.099104	0.922802
C271	C	0.593892	-0.640201	0.428184
C272	C	1.093892	-0.140201	0.928184
H273	H	0.623237	-0.628502	0.422874
H274	H	1.123237	-0.128502	0.922874
H275	H	0.584452	-0.667842	0.466254
H276	H	1.084452	-0.167842	0.966254
C277	C	0.576870	-0.677925	0.396333
C278	C	1.076870	-0.177925	0.896333
C279	C	0.612913	-0.663556	0.389807
C280	C	1.112913	-0.163556	0.889807
H281	H	0.588602	-0.692334	0.372662
H282	H	1.088602	-0.192334	0.872662
H283	H	0.548554	-0.650239	0.392709
H284	H	1.048554	-0.150239	0.892709
H285	H	0.569006	-0.700957	0.428059
H286	H	1.069006	-0.200957	0.928059
H287	H	0.620772	-0.640520	0.358084
H288	H	1.120772	-0.140520	0.858084
H289	H	0.641231	-0.691239	0.393425
H290	H	1.141231	-0.191239	0.893425
O291	O	-0.043859	-0.379094	0.952467
O292	O	0.456141	0.120906	1.452467
C293	C	-0.026304	-0.348746	0.952461
C294	C	0.473696	0.151254	1.452461
H295	H	0.005004	-0.372191	0.967804
H296	H	0.505004	0.127809	1.467804
H297	H	-0.012781	-0.324117	0.913560
H298	H	0.487219	0.175883	1.413560
C299	C	-0.106143	-0.288400	0.965430
C300	C	0.393857	0.211600	1.465430
C301	C	-0.067692	-0.317196	0.984280
C302	C	0.432308	0.182804	1.484280
H303	H	-0.131673	-0.268937	0.985056
H304	H	0.368327	0.231063	1.485056
H305	H	-0.117970	-0.308845	0.965433
H306	H	0.382030	0.191155	1.465433
H307	H	-0.094867	-0.267880	0.933013
H308	H	0.405133	0.232120	1.433013
H309	H	-0.078967	-0.337719	1.016694
H310	H	0.421033	0.162281	1.516694
H311	H	-0.055868	-0.296753	0.984284
H312	H	0.444132	0.203247	1.484284
H313	H	-0.037749	-0.531650	0.952352
H314	H	0.462251	-0.031650	1.452352
O315	O	0.552000	-0.599527	0.576693
O316	O	1.052000	-0.099527	1.076693
C317	C	0.594029	-0.640582	0.570226
C318	C	1.094029	-0.140582	1.070226
H319	H	0.607993	-0.640021	0.531318
H320	H	1.107993	-0.140021	1.031318
H321	H	0.623446	-0.639691	0.577189
H322	H	1.123446	-0.139691	1.077189
C323	C	0.564187	-0.688079	0.654102
C324	C	1.064187	-0.188079	1.154102
C325	C	0.581335	-0.687392	0.606316
C326	C	1.081335	-0.187392	1.106316
H327	H	0.556358	-0.716954	0.676364
H328	H	1.056358	-0.216954	1.176364
H329	H	0.535872	-0.660419	0.658460
H330	H	1.035872	-0.160419	1.158460
H331	H	0.588704	-0.687335	0.659897
H332	H	1.088704	-0.187335	1.159897
H333	H	0.556816	-0.688130	0.600519
H334	H	1.056816	-0.188130	1.100519
H335	H	0.609646	-0.715053	0.601957
H336	H	1.109646	-0.215053	1.101957
H337	H	-0.065895	-0.003715	0.542725
H338	H	0.434105	0.496285	1.042725
H339	H	-0.065919	-0.476185	0.542670
H340	H	0.434081	0.023815	1.042670
H341	H	0.330218	-0.354891	0.497577
H342	H	0.830218	0.145109	0.997577
H343	H	0.023834	-0.386116	0.362662
H344	H	0.523834	0.113884	0.862662
O345	O	0.551571	-0.407625	0.327475
O346	O	1.051571	0.092375	0.827475
C347	C	0.551536	-0.425177	0.297144
C348	C	1.051536	0.074823	0.797144
H349	H	0.566934	-0.466709	0.310323
H350	H	1.066934	0.033291	0.810323
H351	H	0.512620	-0.412816	0.298508
H352	H	1.012620	0.087184	0.798508
C353	C	0.564355	-0.353932	0.228179
C354	C	1.064355	0.146068	0.728179
C355	C	0.583271	-0.404943	0.244364
C356	C	1.083271	0.095057	0.744364
H357	H	0.583928	-0.341449	0.195621
H358	H	1.083928	0.158551	0.695621
H359	H	0.564376	-0.342106	0.248613
H360	H	1.064376	0.157894	0.748613
H361	H	0.531925	-0.343638	0.229319
H362	H	1.031925	0.156362	0.729319
H363	H	0.615697	-0.415236	0.243229
H364	H	1.115697	0.084764	0.743229
H365	H	0.583255	-0.416770	0.223928
H366	H	1.083255	0.083230	0.723928
H367	H	0.079554	-0.003651	0.542242
H368	H	0.579554	0.496349	1.042242
H369	H	0.142219	-0.621297	0.952354
H370	H	0.642219	-0.121297	1.452354
O371	O	0.147559	-0.474403	0.952307
O372	O	0.647559	0.025597	1.452307
C373	C	0.158727	-0.434905	0.910321
C374	C	0.658727	0.065095	1.410321
H375	H	0.148004	-0.431063	0.880971
H376	H	0.648004	0.068937	1.380971
H377	H	0.137689	-0.399946	0.919829
H378	H	0.637689	0.100054	1.419829
C379	C	0.227002	-0.448892	0.927312
C380	C	0.727002	0.051108	1.427312
C381	C	0.213835	-0.444176	0.891261
C382	C	0.713835	0.055824	1.391261
H383	H	0.260994	-0.454609	0.915555
H384	H	0.760994	0.045391	1.415555
H385	H	0.219476	-0.475501	0.955599
H386	H	0.719476	0.024499	1.455599
H387	H	0.209466	-0.419758	0.935231
H388	H	0.709466	0.080242	1.435231
H389	H	0.231366	-0.473311	0.883347
H390	H	0.731366	0.026689	1.383347
H391	H	0.221365	-0.417571	0.862972
H392	H	0.721365	0.082429	1.362972
O393	O	0.042199	-0.390105	0.734901
O394	O	0.542199	0.109895	1.234901
C395	C	0.016532	-0.360562	0.701457
C396	C	0.516532	0.139438	1.201457
H397	H	0.040851	-0.341997	0.665061
H398	H	0.540851	0.158003	1.165061
H399	H	0.005516	-0.384110	0.696041
H400	H	0.505516	0.115890	1.196041
C401	C	-0.059345	-0.344360	0.766108
C402	C	0.440655	0.155640	1.266108
C403	C	-0.029477	-0.321555	0.721408
C404	C	0.470523	0.178445	1.221408
H405	H	-0.087727	-0.320300	0.778415
H406	H	0.412273	0.179700	1.278415
H407	H	-0.042054	-0.364265	0.788640
H408	H	0.457946	0.135735	1.288640
H409	H	-0.068520	-0.363983	0.761589
H410	H	0.431480	0.136017	1.261589
H411	H	-0.020298	-0.301937	0.725929
H412	H	0.479702	0.198063	1.225929
H413	H	-0.046769	-0.301645	0.698877
H414	H	0.453231	0.198355	1.198877
O415	O	0.080745	-0.628505	0.548258
O416	O	0.580745	-0.128505	1.048258
C417	C	0.047301	-0.650174	0.561392
C418	C	0.547301	-0.150174	1.061392
H419	H	0.013528	-0.620648	0.551634
H420	H	0.513528	-0.120648	1.051634
H421	H	0.064961	-0.676723	0.540859
H422	H	0.564961	-0.176723	1.040859
C423	C	0.074019	-0.714130	0.628640
C424	C	0.574019	-0.214130	1.128640
C425	C	0.032535	-0.677865	0.616660
C426	C	0.532535	-0.177865	1.116660
H427	H	0.064912	-0.731214	0.662732
H428	H	0.564912	-0.231214	1.162732
H429	H	0.096552	-0.699533	0.619791
H430	H	0.596552	-0.199533	1.119791
H431	H	0.088731	-0.736250	0.611526
H432	H	0.588731	-0.236250	1.111526
H433	H	0.017828	-0.655744	0.633770
H434	H	0.517828	-0.155744	1.133770
H435	H	0.009999	-0.692460	0.625514
H436	H	0.509999	-0.192460	1.125514
H437	H	0.551722	-0.413701	0.480010
H438	H	1.051722	0.086299	0.980010
O439	O	0.176328	-0.532771	0.356823
O440	O	0.676328	-0.032771	0.856823
C441	C	0.206631	-0.580683	0.374435
C442	C	0.706631	-0.080683	0.874435
H443	H	0.193409	-0.593598	0.415966
H444	H	0.693409	-0.093598	0.915966
H445	H	0.205288	-0.605899	0.362088
H446	H	0.705288	-0.105899	0.862088
C447	C	0.275647	-0.565648	0.303242
C448	C	0.775647	-0.065648	0.803242
C449	C	0.259410	-0.581509	0.354251
C450	C	0.759410	-0.081509	0.854251
H451	H	0.308204	-0.566158	0.290790
H452	H	0.808204	-0.066158	0.790790
H453	H	0.255231	-0.533369	0.291375
H454	H	0.755231	-0.033369	0.791375
H455	H	0.274524	-0.586663	0.292959
H456	H	0.774524	-0.086663	0.792959
H457	H	0.260527	-0.560490	0.364533
H458	H	0.760527	-0.060490	0.864533
H459	H	0.279827	-0.613785	0.366119
H460	H	0.779827	-0.113785	0.866119
H461	H	0.201378	-0.467681	0.730833
H462	H	0.701378	0.032319	1.230833
O463	O	0.176096	-0.003249	0.356452
O464	O	0.676096	0.496751	0.856452
C465	C	0.206432	-0.003152	0.373950
C466	C	0.706432	0.496848	0.873950
H467	H	0.182986	0.012037	0.405365
H468	H	0.682986	0.512037	0.905365
H469	H	0.231247	-0.042002	0.387309
H470	H	0.731247	0.457998	0.887309
C471	C	0.266517	0.010259	0.294000
C472	C	0.766517	0.510259	0.794000
C473	C	0.237720	0.028919	0.332581
C474	C	0.737720	0.528919	0.832581
H475	H	0.285819	0.030040	0.268481
H476	H	0.785819	0.530040	0.768481
H477	H	0.246080	0.010192	0.282211
H478	H	0.746080	0.510192	0.782211
H479	H	0.287192	-0.022116	0.305138
H480	H	0.787192	0.477884	0.805138
H481	H	0.217042	0.061291	0.321444
H482	H	0.717042	0.561291	0.821444
H483	H	0.258155	0.028992	0.344368
H484	H	0.758155	0.528992	0.844368
H485	H	0.080840	-0.361208	0.594989
H486	H	0.580840	0.138792	1.094989
O487	O	0.240058	-0.438755	0.634293
O488	O	0.740058	0.061245	1.134293
C489	C	0.265726	-0.468316	0.667735
C490	C	0.765726	0.031684	1.167735
H491	H	0.241408	-0.461812	0.704130
H492	H	0.741408	0.038188	1.204130
H493	H	0.276742	-0.508298	0.673155
H494	H	0.776742	-0.008298	1.173155
C495	C	0.341602	-0.463370	0.603081
C496	C	0.841602	0.036630	1.103081
C497	C	0.311735	-0.455379	0.647781
C498	C	0.811735	0.044621	1.147781
H499	H	0.369984	-0.455391	0.590772
H500	H	0.869984	0.044609	1.090772
H501	H	0.324310	-0.443456	0.580550
H502	H	0.824310	0.056544	1.080550
H503	H	0.350777	-0.496688	0.607604
H504	H	0.850777	0.003312	1.107604
H505	H	0.302556	-0.422059	0.643257
H506	H	0.802556	0.077941	1.143257
H507	H	0.329027	-0.475287	0.670311
H508	H	0.829027	0.024713	1.170311
H509	H	0.201155	-0.467643	0.488446
H510	H	0.701155	0.032357	0.988446
O511	O	0.042059	-0.390209	0.566175
O512	O	0.542059	0.109791	1.066175
C513	C	0.020905	-0.407677	0.617304
C514	C	0.520905	0.092323	1.117304
H515	H	0.049996	-0.439153	0.633728
H516	H	0.549996	0.060847	1.133728
H517	H	0.004793	-0.377061	0.632433
H518	H	0.504793	0.122939	1.132433
C519	C	-0.055463	-0.386936	0.610359
C520	C	0.444537	0.113064	1.110359
C521	C	-0.019734	-0.425599	0.630531
C522	C	0.480266	0.074401	1.130531
H523	H	-0.080533	-0.397989	0.618519
H524	H	0.419467	0.102011	1.118519
H525	H	-0.041213	-0.375166	0.575912
H526	H	0.458787	0.124834	1.075912
H527	H	-0.068885	-0.361426	0.622969
H528	H	0.431115	0.138574	1.122969
H529	H	-0.006309	-0.451105	0.617916
H530	H	0.493691	0.048895	1.117916
H531	H	-0.033983	-0.437374	0.664976
H532	H	0.466017	0.062626	1.164976
O533	O	0.239943	-0.438665	0.517245
O534	O	0.739943	0.061335	1.017245
C535	C	0.261087	-0.421170	0.466116
C536	C	0.761087	0.078830	0.966116
H537	H	0.236867	-0.416184	0.448280
H538	H	0.736867	0.083816	0.948280
H539	H	0.264849	-0.384679	0.454575
H540	H	0.764849	0.115321	0.954575
C541	C	0.341564	-0.464215	0.471858
C542	C	0.841564	0.035785	0.971858
C543	C	0.311819	-0.458094	0.449951
C544	C	0.811819	0.041906	0.949951
H545	H	0.372859	-0.486989	0.461886
H546	H	0.872859	0.013011	0.961886
H547	H	0.327320	-0.476000	0.506305
H548	H	0.827320	0.024000	1.006305
H549	H	0.344694	-0.433802	0.462239
H550	H	0.844694	0.066198	0.962239
H551	H	0.308685	-0.488505	0.459576
H552	H	0.808685	0.011495	0.959576
H553	H	0.326064	-0.446315	0.415506
H554	H	0.826064	0.053685	0.915506
O555	O	0.233691	-0.479051	0.589379
O556	O	0.733691	0.020949	1.089379
C557	C	0.246150	-0.502958	0.558145
C558	C	0.746150	-0.002958	1.058145
H559	H	0.260148	-0.479710	0.518629
H560	H	0.760148	0.020290	1.018629
H561	H	0.275795	-0.539792	0.566354
H562	H	0.775795	-0.039792	1.066354
C563	C	0.183610	-0.539275	0.614853
C564	C	0.683610	-0.039275	1.114853
C565	C	0.200799	-0.510719	0.566319
C566	C	0.700799	-0.010719	1.066319
H567	H	0.155636	-0.544064	0.619896
H568	H	0.655636	-0.044064	1.119896
H569	H	0.175217	-0.523170	0.635897
H570	H	0.675217	-0.023170	1.135897
H571	H	0.208319	-0.569967	0.621688
H572	H	0.708319	-0.069967	1.121688
H573	H	0.176092	-0.480026	0.559486
H574	H	0.676092	0.019974	1.059486
H575	H	0.209186	-0.526819	0.545274
H576	H	0.709186	-0.026819	1.045274
O577	O	0.334369	-0.512544	0.555793
O578	O	0.834369	-0.012544	1.055793
C579	C	0.384889	-0.520519	0.535554
C580	C	0.884889	-0.020519	1.035554
H581	H	0.391833	-0.485385	0.506295
H582	H	0.891833	0.014615	1.006295
H583	H	0.399403	-0.532281	0.565414
H584	H	0.899403	-0.032281	1.065414
C585	C	0.402556	-0.603956	0.548573
C586	C	0.902556	-0.103956	1.048573
C587	C	0.411086	-0.560805	0.512633
C588	C	0.911086	-0.060805	1.012633
H589	H	0.418717	-0.628807	0.534436
H590	H	0.918717	-0.128807	1.034436
H591	H	0.368521	-0.598584	0.562210
H592	H	0.868521	-0.098584	1.062210
H593	H	0.414652	-0.613751	0.573453
H594	H	0.914652	-0.113751	1.073453
H595	H	0.398985	-0.551008	0.487757
H596	H	0.898985	-0.051008	0.987757
H597	H	0.445121	-0.566176	0.498991
H598	H	0.945121	-0.066176	0.998991
H599	H	0.237625	-0.324046	0.528499
H600	H	0.737625	0.175954	1.028499
H601	H	0.194180	-0.317769	0.481510
H602	H	0.694180	0.182231	0.981510
H603	H	0.087777	-0.225214	0.601924
H604	H	0.587777	0.274786	1.101924
O605	O	0.165171	-0.221202	0.442780
O606	O	0.665171	0.278798	0.942780
C607	C	0.147683	-0.233665	0.421603
C608	C	0.647683	0.266335	0.921603
H609	H	0.142706	-0.270735	0.445802
H610	H	0.642706	0.229265	0.945802
H611	H	0.111189	-0.204945	0.417836
H612	H	0.611189	0.295055	0.917836
C613	C	0.190710	-0.190470	0.341148
C614	C	0.690710	0.309530	0.841148
C615	C	0.184602	-0.236002	0.370868
C616	C	0.684602	0.263998	0.870868
H617	H	0.213482	-0.191909	0.309852
H618	H	0.713482	0.308091	0.809852
H619	H	0.202492	-0.182071	0.355416
H620	H	0.702492	0.317929	0.855416
H621	H	0.160297	-0.166541	0.338015
H622	H	0.660297	0.333459	0.838015
H623	H	0.215014	-0.259928	0.374006
H624	H	0.715014	0.240072	0.874006
H625	H	0.172827	-0.244405	0.356600
H626	H	0.672827	0.255595	0.856600
O627	O	0.116730	-0.321761	0.640658
O628	O	0.616730	0.178239	1.140658
C629	C	0.087179	-0.288301	0.666303
C630	C	0.587179	0.211699	1.166303
H631	H	0.093668	-0.251906	0.641960
H632	H	0.593668	0.248094	1.141960
H633	H	0.047199	-0.282887	0.677335
H634	H	0.547199	0.217113	1.177335
C635	C	0.092174	-0.352931	0.742196
C636	C	0.592174	0.147069	1.242196
C637	C	0.100146	-0.308231	0.712299
C638	C	0.600146	0.191769	1.212299
H639	H	0.100170	-0.365225	0.770570
H640	H	0.600170	0.134775	1.270570
H641	H	0.112081	-0.375474	0.724919
H642	H	0.612081	0.124526	1.224919
H643	H	0.058856	-0.348413	0.751384
H644	H	0.558856	0.151587	1.251384
H645	H	0.133464	-0.312751	0.703107
H646	H	0.633464	0.187249	1.203107
H647	H	0.080245	-0.285689	0.729576
H648	H	0.580245	0.214311	1.229576
H649	H	-0.059677	-0.501957	0.173865
H650	H	0.440323	-0.001957	0.673865
H651	H	-0.090673	-0.532769	0.266460
H652	H	0.409327	-0.032769	0.766460
H653	H	-0.015108	-0.684041	0.266548
H654	H	0.484892	-0.184041	0.766548
O655	O	0.020506	-0.658507	0.170018
O656	O	0.520506	-0.158507	0.670018
C657	C	0.027665	-0.706438	0.203514
C658	C	0.527665	-0.206438	0.703514
H659	H	0.021913	-0.706336	0.239916
H660	H	0.521913	-0.206336	0.739916
H661	H	0.000496	-0.721024	0.208889
H662	H	0.500496	-0.221024	0.708889
C663	C	0.087020	-0.739351	0.138960
C664	C	0.587020	-0.239351	0.638960
C665	C	0.079959	-0.739227	0.183668
C666	C	0.579959	-0.239227	0.683668
H667	H	0.119277	-0.759578	0.126718
H668	H	0.619277	-0.259578	0.626718
H669	H	0.082196	-0.707060	0.116393
H670	H	0.582196	-0.207060	0.616393
H671	H	0.064376	-0.751505	0.143446
H672	H	0.564376	-0.251505	0.643446
H673	H	0.102599	-0.727067	0.179181
H674	H	0.602599	-0.227067	0.679181
H675	H	0.084789	-0.771518	0.206235
H676	H	0.584789	-0.271518	0.706235
H677	H	-0.059919	-0.501948	0.340854
H678	H	0.440081	-0.001948	0.840854
O679	O	-0.095346	-0.527489	0.305282
O680	O	0.404654	-0.027489	0.805282
C681	C	-0.102551	-0.479556	0.298044
C682	C	0.397449	0.020444	0.798044
H683	H	-0.096897	-0.479652	0.328854
H684	H	0.403103	0.020348	0.828854
H685	H	-0.075341	-0.464965	0.261713
H686	H	0.424659	0.035035	0.761713
C687	C	-0.161758	-0.446657	0.259751
C688	C	0.338242	0.053343	0.759751
C689	C	-0.154819	-0.446774	0.297596
C690	C	0.345181	0.053226	0.797596
H691	H	-0.193999	-0.426435	0.259473
H692	H	0.306001	0.073565	0.759473
H693	H	-0.156903	-0.478950	0.264626
H694	H	0.343097	0.021050	0.764626
H695	H	-0.139080	-0.434499	0.229480
H696	H	0.360920	0.065501	0.729480
H697	H	-0.177492	-0.458938	0.327867
H698	H	0.322508	0.041062	0.827867
H699	H	-0.159679	-0.414482	0.292726
H700	H	0.340321	0.085518	0.792726
H701	H	0.015526	-0.653210	0.416597
H702	H	0.515526	-0.153210	0.916597
H703	H	0.021903	-0.689639	0.319262
H704	H	0.521903	-0.189639	0.819262
O705	O	-0.013379	-0.691925	0.387641
O706	O	0.486621	-0.191925	0.887641
C707	C	-0.030911	-0.713118	0.438760
C708	C	0.469089	-0.213118	0.938760
H709	H	-0.035931	-0.688938	0.456660
H710	H	0.464069	-0.188938	0.956660
H711	H	-0.067389	-0.716869	0.450234
H712	H	0.432611	-0.216869	0.950234
C713	C	0.012162	-0.793563	0.432934
C714	C	0.512162	-0.293563	0.932934
C715	C	0.006000	-0.763867	0.454919
C716	C	0.506000	-0.263867	0.954919
H717	H	0.034929	-0.824869	0.442902
H718	H	0.534929	-0.324869	0.942902
H719	H	0.023972	-0.779285	0.398494
H720	H	0.523972	-0.279285	0.898494
H721	H	-0.018239	-0.796683	0.442498
H722	H	0.481761	-0.296683	0.942498
H723	H	0.036400	-0.760743	0.445350
H724	H	0.536400	-0.260743	0.945350
H725	H	-0.005804	-0.778146	0.489358
H726	H	0.494196	-0.278146	0.989358
O727	O	0.060540	-0.786242	0.348956
O728	O	0.560540	-0.286242	0.848956
C729	C	0.086936	-0.773792	0.298574
C730	C	0.586936	-0.273792	0.798574
H731	H	0.061895	-0.759737	0.277431
H732	H	0.561895	-0.259737	0.777431
H733	H	0.101606	-0.744189	0.287200
H734	H	0.601606	-0.244189	0.787200
C735	C	0.160531	-0.836430	0.313435
C736	C	0.660531	-0.336430	0.813435
C737	C	0.129777	-0.819171	0.287466
C738	C	0.629777	-0.319171	0.787466
H739	H	0.186959	-0.864421	0.306583
H740	H	0.686959	-0.364421	0.806583
H741	H	0.142749	-0.844816	0.347379
H742	H	0.642749	-0.344816	0.847379
H743	H	0.172752	-0.811757	0.303954
H744	H	0.672752	-0.311757	0.803954
H745	H	0.117553	-0.843842	0.296952
H746	H	0.617553	-0.343842	0.796952
H747	H	0.147559	-0.810790	0.253524
H748	H	0.647559	-0.310790	0.753524
O749	O	-0.102355	-0.786019	0.410854
O750	O	0.397645	-0.286019	0.910854
C751	C	-0.126241	-0.773545	0.379593
C752	C	0.373759	-0.273545	0.879593
H753	H	-0.124995	-0.736518	0.350500
H754	H	0.375005	-0.236518	0.850500
H755	H	-0.107218	-0.802312	0.361366
H756	H	0.392782	-0.302312	0.861366
C757	C	-0.181241	-0.816556	0.445101
C758	C	0.318759	-0.316556	0.945101
C759	C	-0.179715	-0.771076	0.409370
C760	C	0.320285	-0.271076	0.909370
H761	H	-0.214225	-0.815035	0.463468
H762	H	0.285775	-0.315035	0.963468
H763	H	-0.165147	-0.824961	0.466161
H764	H	0.334853	-0.324961	0.966161
H765	H	-0.165386	-0.840523	0.429906
H766	H	0.334614	-0.340523	0.929906
H767	H	-0.195564	-0.747111	0.424566
H768	H	0.304436	-0.247111	0.924566
H769	H	-0.195812	-0.762667	0.388313
H770	H	0.304188	-0.262667	0.888313
O771	O	-0.130349	-0.650695	0.428539
O772	O	0.369651	-0.150695	0.928539
C773	C	-0.163878	-0.657895	0.476450
C774	C	0.336122	-0.157895	0.976450
H775	H	-0.200240	-0.627091	0.476301
H776	H	0.299760	-0.127091	0.976301
H777	H	-0.169334	-0.694239	0.491061
H778	H	0.330666	-0.194239	0.991061
C779	C	-0.099351	-0.696111	0.509431
C780	C	0.400649	-0.196111	1.009431
C781	C	-0.144011	-0.658274	0.509249
C782	C	0.355989	-0.158274	1.009249
H783	H	-0.087096	-0.696347	0.529664
H784	H	0.412904	-0.196347	1.029664
H785	H	-0.076762	-0.691262	0.477153
H786	H	0.423238	-0.191262	0.977153
H787	H	-0.103904	-0.726393	0.521606
H788	H	0.396096	-0.226393	1.021606
H789	H	-0.139457	-0.627992	0.497069
H790	H	0.360543	-0.127992	0.997069
H791	H	-0.166599	-0.663118	0.541526
H792	H	0.333401	-0.163118	1.041526
O793	O	-0.230975	-0.617009	0.461843
O794	O	0.269025	-0.117009	0.961843
C795	C	-0.281484	-0.595661	0.469663
C796	C	0.218516	-0.095661	0.969663
H797	H	-0.288396	-0.562897	0.436143
H798	H	0.211604	-0.062897	0.936143
H799	H	-0.295976	-0.623560	0.476428
H800	H	0.204024	-0.123560	0.976428
C801	C	-0.299253	-0.619153	0.555514
C802	C	0.200747	-0.119153	1.055514
C803	C	-0.307744	-0.578910	0.514347
C804	C	0.192256	-0.078910	1.014347
H805	H	-0.315453	-0.608822	0.583079
H806	H	0.184547	-0.108822	1.083079
H807	H	-0.265225	-0.633538	0.550247
H808	H	0.234775	-0.133538	1.050247
H809	H	-0.311330	-0.642399	0.561146
H810	H	0.188670	-0.142399	1.061146
H811	H	-0.295662	-0.555668	0.508713
H812	H	0.204338	-0.055668	1.008713
H813	H	-0.341771	-0.564520	0.519615
H814	H	0.158229	-0.064520	1.019615
O815	O	-0.230568	-0.534937	0.297376
O816	O	0.269432	-0.034937	0.797376
C817	C	-0.197041	-0.527762	0.249464
C818	C	0.302959	-0.027762	0.749464
H819	H	-0.160672	-0.533501	0.249618
H820	H	0.339328	-0.033501	0.749618
H821	H	-0.191602	-0.554932	0.234835
H822	H	0.308398	-0.054932	0.734835
C823	C	-0.261564	-0.468419	0.216492
C824	C	0.238436	0.031581	0.716492
C825	C	-0.216896	-0.475464	0.216681
C826	C	0.283104	0.024536	0.716681
H827	H	-0.273812	-0.436160	0.196269
H828	H	0.226188	0.063840	0.696269
H829	H	-0.284153	-0.473254	0.248771
H830	H	0.215847	0.026746	0.748771
H831	H	-0.257026	-0.491064	0.204302
H832	H	0.242974	0.008936	0.704302
H833	H	-0.221436	-0.452823	0.228876
H834	H	0.278564	0.047177	0.728876
H835	H	-0.194309	-0.470623	0.184404
H836	H	0.305691	0.029377	0.684404
H837	H	-0.134040	-0.570516	0.271939
H838	H	0.365960	-0.070516	0.771939
H839	H	-0.127938	-0.689491	0.376175
H840	H	0.372062	-0.189491	0.876175
