data_functionalizedCrystal
_audit_creation_method	'MofGen! by Chris Wilmer'
_symmetry_space_group_name_H-M	'P1'
_symmetry_Int_Tables_number	1
_symmetry_cell_setting	triclinic
loop_
_symmetry_equiv_pos_as_xyz
  x,y,z
_cell_length_a	10.489741
_cell_length_b	10.489741
_cell_length_c	9.565339
_cell_angle_alpha	89.999484
_cell_angle_beta	90.000900
_cell_angle_gamma	84.539174
loop_
_atom_site_label
_atom_site_type_symbol
_atom_site_fract_x
_atom_site_fract_y
_atom_site_fract_z
O1	O	-1.694053	-0.179959	-0.116173
O2	O	-1.322857	-0.196852	-0.116194
O3	O	-1.516901	-0.002807	-0.116175
O4	O	-1.500009	-0.374003	-0.116192
O5	O	-1.516886	-0.002819	0.116345
O6	O	-1.322842	-0.196864	0.116326
O7	O	-1.694038	-0.179971	0.116347
Zn8	Zn	-1.508437	-0.188419	0.153254
Zn9	Zn	-1.508458	-0.188403	-0.153101
O10	O	-1.499993	-0.374015	0.116328
C11	C	-1.275318	-0.195582	0.000063
C12	C	-1.133688	-0.191765	0.000055
C13	C	-1.515618	0.044718	0.000084
C14	C	-1.511801	0.186348	0.000082
C15	C	-1.741577	-0.181241	0.000087
C16	C	-1.883206	-0.185058	0.000086
C17	C	-1.065548	-0.068300	0.000074
C18	C	-0.973429	-0.126617	-0.114571
C19	C	-0.973448	-0.126659	0.114676
C20	C	-1.043435	-0.250133	-0.114684
C21	C	-1.043463	-0.250157	0.114665
C22	C	-0.951371	-0.308564	-0.000007
C23	C	-1.501277	-0.421541	0.000066
C24	C	-1.505094	-0.563170	0.000059
N25	N	-1.508433	-0.188429	0.362334
C26	C	-1.388336	0.254488	0.000064
C27	C	-1.446652	0.346604	0.114712
C28	C	-1.446696	0.346591	-0.114534
C29	C	-1.570168	0.276599	0.114824
C30	C	-1.570195	0.276576	-0.114525
C31	C	-1.628600	0.368665	0.000150
N32	N	-1.508472	-0.188383	-0.362180
C33	C	-1.418666	-0.278138	0.453528
C34	C	-1.534163	-0.303949	0.546712
C35	C	-1.392986	-0.162629	0.546704
C36	C	-1.623988	-0.214298	0.453466
C37	C	-1.482735	-0.072928	0.453451
C38	C	-1.598314	-0.098690	0.546593
H39	H	-1.115238	0.033196	-0.000065
O40	O	-1.384452	0.383471	0.230481
C41	C	-1.448511	0.346117	0.351171
H42	H	-1.506776	0.263043	0.324460
H43	H	-1.515253	0.430345	0.391205
C44	C	-1.278062	0.405789	0.497816
C45	C	-1.349614	0.303748	0.465012
H46	H	-1.217060	0.379659	0.568041
H47	H	-1.234906	0.430959	0.416506
H48	H	-1.333693	0.475970	0.531169
H49	H	-1.293985	0.233576	0.431643
H50	H	-1.392759	0.278565	0.546319
H51	H	-0.942421	-0.074372	-0.211491
H52	H	-1.622356	0.245762	0.211859
O53	O	-1.560306	-0.420445	0.595436
C54	C	-1.681178	-0.448321	0.545928
H55	H	-1.706066	-0.390538	0.447071
H56	H	-1.756774	-0.422082	0.629342
C57	C	-1.646905	-0.663240	0.634122
C58	C	-1.677468	-0.592278	0.512698
H59	H	-1.644620	-0.752040	0.613631
H60	H	-1.565473	-0.644459	0.667483
H61	H	-1.709906	-0.641360	0.703623
H62	H	-1.614459	-0.614147	0.443207
H63	H	-1.758890	-0.611066	0.479326
O64	O	-1.267175	0.195398	0.000002
C65	C	-1.201635	0.232575	-0.119752
H66	H	-1.248372	0.328378	-0.159296
H67	H	-1.206200	0.156994	-0.204786
C68	C	-1.003340	0.128203	-0.033709
C69	C	-1.060736	0.245876	-0.082272
H70	H	-0.916426	0.136403	-0.010594
H71	H	-1.047496	0.103151	0.046969
H72	H	-1.007157	0.065231	-0.104579
H73	H	-1.056933	0.308842	-0.011396
H74	H	-1.016577	0.270939	-0.162938
H75	H	-1.730204	0.418089	0.000220
H76	H	-1.622398	0.245536	-0.211451
O77	O	-1.328345	-0.368791	0.404592
C78	C	-1.387509	-0.457294	0.321533
H79	H	-1.482810	-0.410564	0.280611
H80	H	-1.404975	-0.544661	0.387178
C81	C	-1.182760	-0.556468	0.247667
C82	C	-1.299805	-0.499071	0.197396
H83	H	-1.128659	-0.582244	0.171097
H84	H	-1.142899	-0.496846	0.303630
H85	H	-1.197332	-0.629267	0.302372
H86	H	-1.285233	-0.426265	0.142708
H87	H	-1.339661	-0.558682	0.141421
O88	O	-1.740392	-0.240573	0.404590
C89	C	-1.738944	-0.240348	0.257198
H90	H	-1.636057	-0.259370	0.218655
H91	H	-1.781693	-0.143153	0.217229
C92	C	-1.944966	-0.322337	0.249595
C93	C	-1.818600	-0.345711	0.202254
H94	H	-1.994106	-0.387325	0.215700
H95	H	-1.945945	-0.322485	0.348895
H96	H	-1.980573	-0.241338	0.216283
H97	H	-1.782990	-0.426700	0.235580
H98	H	-1.817617	-0.345579	0.102958
H99	H	-1.460936	0.024699	0.412454
H100	H	-1.674328	-0.022802	0.587199
O101	O	-1.079984	-0.312475	-0.230495
C102	C	-0.971176	-0.352464	-0.311498
H103	H	-0.882433	-0.360063	-0.242089
H104	H	-0.959819	-0.279740	-0.398104
C105	C	-1.096536	-0.474786	-0.461999
C106	C	-0.987541	-0.484130	-0.376747
H107	H	-1.106632	-0.556000	-0.502254
H108	H	-1.169844	-0.447841	-0.407430
H109	H	-1.087058	-0.414178	-0.534159
H110	H	-0.997027	-0.544725	-0.304580
H111	H	-0.914236	-0.511088	-0.431306
O112	O	-0.936652	-0.064153	0.230267
C113	C	-0.995313	0.062492	0.229809
H114	H	-1.085469	0.067786	0.162694
H115	H	-0.925992	0.129275	0.185061
C116	C	-0.920519	0.096966	0.462848
C117	C	-1.031256	0.103465	0.380426
H118	H	-0.942685	0.122244	0.555755
H119	H	-0.880993	0.011645	0.463156
H120	H	-0.862761	0.152619	0.425542
H121	H	-1.089004	0.047802	0.417722
H122	H	-1.070792	0.188779	0.380128
O123	O	-1.276391	-0.136759	0.595394
C124	C	-1.182035	-0.231623	0.548002
H125	H	-1.217672	-0.278689	0.449878
H126	H	-1.161687	-0.307084	0.632917
C127	C	-1.014545	-0.111928	0.634596
C128	C	-1.058310	-0.169727	0.514071
H129	H	-0.938223	-0.073750	0.613671
H130	H	-1.078114	-0.048018	0.666530
H131	H	-0.997598	-0.174822	0.705347
H132	H	-1.075272	-0.106830	0.443329
H133	H	-0.994741	-0.233625	0.482124
H134	H	-0.901947	-0.410168	-0.000074
H135	H	-1.394447	0.377560	-0.211470
H136	H	-1.074503	-0.302360	0.211590
