data_functionalizedCrystal
_audit_creation_method	'MofGen! by Chris Wilmer'
_symmetry_space_group_name_H-M	'P1'
_symmetry_Int_Tables_number	1
_symmetry_cell_setting	triclinic
loop_
_symmetry_equiv_pos_as_xyz
  x,y,z
_cell_length_a	10.654554
_cell_length_b	17.019370
_cell_length_c	9.730223
_cell_angle_alpha	93.876900
_cell_angle_beta	90.001137
_cell_angle_gamma	83.939410
loop_
_atom_site_label
_atom_site_type_symbol
_atom_site_fract_x
_atom_site_fract_y
_atom_site_fract_z
O1	O	1.666096	0.110807	-0.101138
O2	O	1.300453	0.121359	-0.099902
O3	O	1.493474	0.001307	-0.114089
O4	O	1.473074	0.230858	-0.086951
O5	O	1.493472	0.001310	0.114491
O6	O	1.300451	0.121362	0.128678
O7	O	1.666094	0.110810	0.127442
Zn8	Zn	1.483272	0.116086	0.164352
Zn9	Zn	1.483275	0.116082	-0.136812
O10	O	1.473072	0.230861	0.141629
C11	C	1.253666	0.120585	0.014295
C12	C	1.114259	0.118264	0.014016
C13	C	1.492699	-0.028084	-0.003277
C14	C	1.490379	-0.115666	-0.013640
C15	C	0.902678	0.186771	0.022127
C16	C	1.033665	0.188952	0.022374
C17	C	1.063860	0.045391	0.005395
C18	C	0.932875	0.043211	0.005139
C19	C	0.822090	0.257464	0.030501
C20	C	0.872480	0.330337	0.039118
C21	C	1.003467	0.332518	0.039366
C22	C	1.084065	0.261825	0.030995
C23	C	1.489284	-0.156818	0.106084
C24	C	1.487112	-0.239111	0.096335
C25	C	1.486025	-0.280251	-0.033140
C26	C	1.487123	-0.239094	-0.152874
C27	C	1.489305	-0.156803	-0.143123
C28	C	1.479447	-0.528717	-0.068815
C29	C	1.477262	-0.611014	-0.078556
C30	C	1.477253	-0.611026	0.170653
C31	C	1.479427	-0.528733	0.180392
C32	C	1.480532	-0.487583	0.060659
C33	C	1.483801	-0.364368	-0.043109
C34	C	1.482765	-0.403469	0.070629
C35	C	1.712880	0.111584	0.013242
C36	C	1.852287	0.113904	0.013512
C37	C	1.473847	0.260253	0.030814
C38	C	1.476167	0.347835	0.041168
N39	N	1.483279	0.116088	0.369889
N40	N	1.483277	0.116074	-0.342350
C41	C	1.568770	0.062948	0.435535
C42	C	1.568767	0.062938	0.579417
C43	C	1.397777	0.169217	0.591994
C44	C	1.397775	0.169222	0.448115
C45	C	1.654274	0.009814	0.357309
C46	C	1.739774	-0.043330	0.422955
C47	C	1.739771	-0.043340	0.566836
C48	C	1.654268	0.009795	0.645073
H49	H	0.806850	0.387892	0.045923
H50	H	0.891847	-0.016124	-0.001879
H51	H	1.490148	-0.123327	0.211517
O52	O	1.654283	0.009821	0.202123
H53	H	1.580475	0.055703	0.169616
H54	H	1.482913	-0.397872	-0.148528
O55	O	1.480621	-0.484348	-0.197961
H56	H	1.567173	-0.453425	-0.200275
O57	O	1.490469	-0.112414	-0.272256
H58	H	1.575595	-0.134769	-0.334658
H59	H	1.476364	-0.644506	-0.183996
H60	H	1.486226	-0.272614	0.193827
O61	O	1.654270	0.009784	0.800261
H62	H	1.580455	0.055658	0.843629
O63	O	1.057825	0.411111	0.048671
H64	H	0.979778	0.459897	0.054465
H65	H	1.129492	-0.012163	-0.001418
H66	H	1.328165	0.212478	0.655703
O67	O	1.483948	-0.359102	0.210274
H68	H	1.397980	-0.368338	0.268930
H69	H	1.809381	-0.086595	0.359247
H70	H	1.480339	-0.495244	0.285824
O71	O	1.225346	0.264174	0.031279
H72	H	1.266406	0.233765	-0.065481
O73	O	1.305576	0.226540	0.377294
H74	H	1.246135	0.263496	0.455860
O75	O	1.476096	-0.655409	0.299791
H76	H	1.474414	-0.719544	0.271265
H77	H	0.715432	0.255696	0.030305
O78	O	1.485943	-0.283459	-0.292527
H79	H	1.484226	-0.347594	-0.279197
H80	H	1.809379	-0.086617	0.620283
