data_functionalizedCrystal
_audit_creation_method	'MofGen! by Chris Wilmer'
_symmetry_space_group_name_H-M	'P1'
_symmetry_Int_Tables_number	1
_symmetry_cell_setting	triclinic
loop_
_symmetry_equiv_pos_as_xyz
  x,y,z
_cell_length_a	10.654550
_cell_length_b	9.730223
_cell_length_c	10.654551
_cell_angle_alpha	90.002469
_cell_angle_beta	95.514868
_cell_angle_gamma	89.995798
loop_
_atom_site_label
_atom_site_type_symbol
_atom_site_fract_x
_atom_site_fract_y
_atom_site_fract_z
O1	O	-1.667835	0.114394	0.176400
O2	O	-1.302356	0.114371	0.193206
O3	O	-1.493498	0.114383	0.002064
O4	O	-1.476693	0.114381	0.367542
O5	O	-1.493495	-0.114197	0.002055
O6	O	-1.302354	-0.114209	0.193197
O7	O	-1.667832	-0.114186	0.176391
Zn8	Zn	-1.485093	-0.150490	0.184792
Zn9	Zn	-1.485096	0.150674	0.184805
O10	O	-1.476691	-0.114199	0.367533
C11	C	-1.255557	0.000078	0.191968
C12	C	-1.116114	0.000069	0.188276
N13	N	-1.485100	-0.356026	0.184783
C14	C	-1.492263	0.000096	-0.044739
C15	C	-1.488570	0.000105	-0.184182
C16	C	-1.714632	0.000109	0.177629
C17	C	-1.854075	0.000127	0.181321
C18	C	-1.036629	0.000089	0.300817
C19	C	-0.905608	0.000113	0.297341
C20	C	-0.933570	0.000104	0.068771
C21	C	-1.064589	0.000070	0.072249
C22	C	-1.088154	0.000088	0.416844
C23	C	-1.008667	0.000109	0.529395
C24	C	-0.877647	0.000133	0.525918
C25	C	-0.826112	0.000136	0.409891
N26	N	-1.485099	0.356211	0.184804
C27	C	-1.569895	0.428142	0.100333
C28	C	-1.569899	0.572025	0.100325
C29	C	-1.400299	0.572032	0.269264
C30	C	-1.400302	0.428152	0.269277
C31	C	-1.654692	0.356201	0.015860
C32	C	-1.739495	0.428133	-0.068619
C33	C	-1.739499	0.572016	-0.068627
C34	C	-1.654700	0.643967	0.015844
C35	C	-1.486839	0.124702	-0.249688
C36	C	-1.483359	0.124695	-0.380709
C37	C	-1.483346	-0.124515	-0.380705
C38	C	-1.486817	-0.124507	-0.249686
C39	C	-1.488592	0.249314	-0.184185
C40	C	-1.486863	0.373921	-0.249692
C41	C	-1.483383	0.373914	-0.380712
C42	C	-1.481632	0.249301	-0.446225
C43	C	-1.477926	0.000091	0.414336
C44	C	-1.481619	0.000091	0.553779
H45	H	-1.194836	0.000075	0.419687
Cl46	Cl	-0.777724	0.000146	0.667407
H47	H	-1.654719	0.761126	0.015839
H48	H	-1.654694	0.239044	0.015857
Cl49	Cl	-1.477244	0.249298	-0.610937
Cl50	Cl	-1.073452	0.000090	0.675249
Cl51	Cl	-0.661398	0.000146	0.405525
H52	H	-0.891600	0.000129	-0.025693
Cl53	Cl	-1.481195	0.530559	-0.463059
H54	H	-1.331258	0.630624	0.338036
H55	H	-1.129308	0.000058	-0.019392
Cl56	Cl	-1.492974	0.249331	-0.019475
Cl57	Cl	-1.489001	-0.281146	-0.167329
H58	H	-1.331254	0.369584	0.338062
H59	H	-1.808542	0.369543	-0.137386
Cl60	Cl	-1.846114	0.662443	-0.174816
Cl61	Cl	-1.489060	0.530568	-0.167334
H62	H	-1.481921	-0.225969	-0.434056
