data_functionalizedCrystal
_audit_creation_method	'MofGen! by Chris Wilmer'
_symmetry_space_group_name_H-M	'P1'
_symmetry_Int_Tables_number	1
_symmetry_cell_setting	triclinic
loop_
_symmetry_equiv_pos_as_xyz
  x,y,z
_cell_length_a	16.956984
_cell_length_b	15.455301
_cell_length_c	14.971486
_cell_angle_alpha	87.002686
_cell_angle_beta	100.166226
_cell_angle_gamma	93.167959
loop_
_atom_site_label
_atom_site_type_symbol
_atom_site_fract_x
_atom_site_fract_y
_atom_site_fract_z
O1	O	1.061194	0.072136	-0.040321
O2	O	1.561194	0.572136	0.459679
O3	O	0.829066	0.072137	-0.071722
O4	O	1.329066	0.572137	0.428278
O5	O	0.951351	0.072130	0.074646
O6	O	1.451351	0.572130	0.574646
O7	O	0.938909	0.072142	-0.186689
O8	O	1.438909	0.572142	0.313311
O9	O	0.945103	-0.072133	0.081177
O10	O	1.445103	0.427867	0.581177
O11	O	0.822818	-0.072126	-0.065191
O12	O	1.322818	0.427874	0.434809
O13	O	1.054945	-0.072127	-0.033790
O14	O	1.554945	0.427873	0.466210
Cu15	Cu	0.938311	-0.085299	-0.048894
Cu16	Cu	1.438311	0.414701	0.451106
Cu17	Cu	0.945700	0.085308	-0.056618
Cu18	Cu	1.445700	0.585308	0.443382
O19	O	0.932660	-0.072121	-0.180159
O20	O	1.432660	0.427879	0.319841
C21	C	0.796235	0.000005	-0.070065
C22	C	1.296235	0.500005	0.429935
C23	C	0.707719	0.000005	-0.074845
C24	C	1.207719	0.500005	0.425155
N25	N	0.933120	-0.205295	-0.043461
N26	N	1.433120	0.294705	0.456539
C27	C	0.675559	-0.000000	0.005085
C28	C	1.175559	0.500000	0.505085
C29	C	0.592388	0.000006	0.000588
C30	C	1.092388	0.500006	0.500588
C31	C	0.541379	0.000012	-0.083841
C32	C	1.041379	0.500012	0.416159
C33	C	0.573545	0.000020	-0.163778
C34	C	1.073545	0.500020	0.336222
C35	C	0.656715	0.000020	-0.159280
C36	C	1.156715	0.500020	0.340720
C37	C	0.291628	0.000019	-0.106106
C38	C	0.791628	0.500019	0.393894
C39	C	0.208453	0.000017	-0.110598
C40	C	0.708453	0.500017	0.389402
C41	C	0.227302	0.000005	0.053768
C42	C	0.727302	0.500005	0.553768
C43	C	0.310472	-0.000001	0.058259
C44	C	0.810472	0.499999	0.558259
C45	C	0.342631	0.000012	-0.021678
C46	C	0.842631	0.500012	0.478322
N47	N	0.456365	0.000016	-0.088440
N48	N	0.956365	0.500016	0.411560
N49	N	0.427644	0.000014	-0.017078
N50	N	0.927644	0.500014	0.482922
C51	C	0.979564	-0.250684	-0.092110
C52	C	1.479564	0.249316	0.407890
C53	C	0.975648	-0.341492	-0.087995
C54	C	1.475648	0.158508	0.412005
C55	C	0.925284	-0.386911	-0.035235
C56	C	1.425284	0.113089	0.464765
C57	C	0.878838	-0.341516	0.013420
C58	C	1.378838	0.158484	0.513420
C59	C	0.882758	-0.250709	0.009309
C60	C	1.382758	0.249291	0.509309
C61	C	0.908372	-0.658494	-0.017499
C62	C	1.408372	-0.158494	0.482501
C63	C	0.904454	-0.749307	-0.013394
C64	C	1.404454	-0.249307	0.486606
C65	C	1.001266	-0.749277	-0.114808
C66	C	1.501266	-0.249277	0.385192
C67	C	1.005179	-0.658468	-0.118919
C68	C	1.505179	-0.158468	0.381081
C69	C	0.958736	-0.613082	-0.070260
C70	C	1.458736	-0.113082	0.429740
N71	N	0.921278	-0.479731	-0.031030
N72	N	1.421278	0.020269	0.468970
N73	N	0.962746	-0.520263	-0.074461
N74	N	1.462746	-0.020263	0.425539
C75	C	1.087776	0.000006	-0.035448
C76	C	1.587776	0.500006	0.464552
C77	C	1.176293	0.000011	-0.030667
C78	C	1.676293	0.500011	0.469333
C79	C	0.947671	-0.000001	0.111195
C80	C	1.447671	0.499999	0.611195
C81	C	0.946003	-0.000001	0.210366
C82	C	1.446003	0.499999	0.710366
N83	N	0.950898	0.205305	-0.062043
N84	N	1.450898	0.705305	0.437957
C85	C	0.936341	0.000012	-0.216707
C86	C	1.436341	0.500012	0.283293
C87	C	0.938009	0.000017	-0.315879
C88	C	1.438009	0.500017	0.184121
C89	C	1.017842	-0.000002	0.272990
C90	C	1.517842	0.499998	0.772990
C91	C	1.016271	0.000007	0.366171
C92	C	1.516271	0.500007	0.866171
C93	C	0.942859	0.000011	0.396727
C94	C	1.442859	0.500011	0.896727
C95	C	0.871015	0.000014	0.334095
C96	C	1.371015	0.500014	0.834095
C97	C	0.872587	0.000012	0.240916
C98	C	1.372587	0.500012	0.740916
C99	C	0.867742	0.000017	0.528312
C100	C	1.367742	0.500017	1.028312
C101	C	0.866169	0.000018	0.621498
C102	C	1.366169	0.500018	1.121498
C103	C	1.011426	0.000013	0.653567
C104	C	1.511426	0.500013	1.153567
C105	C	1.012999	0.000010	0.560387
C106	C	1.512999	0.500010	1.060387
C107	C	0.941154	0.000012	0.497762
C108	C	1.441154	0.500012	0.997762
H109	H	0.717085	-0.000008	0.073837
H110	H	1.217085	0.499992	0.573837
H111	H	0.863436	-0.786285	0.029569
H112	H	1.363436	-0.286285	0.529569
H113	H	1.046193	-0.621495	-0.161878
H114	H	1.546193	-0.121495	0.338122
H115	H	0.870555	-0.621551	0.022123
H116	H	1.370555	-0.121551	0.522123
H117	H	0.814088	0.000013	0.189927
H118	H	1.314088	0.500013	0.689927
H119	H	1.074770	0.000005	0.417156
H120	H	1.574770	0.500005	0.917156
H121	H	1.072777	0.000001	0.535513
H122	H	1.572777	0.500001	1.035513
H123	H	0.201109	0.000004	0.118848
H124	H	0.701109	0.500004	0.618848
H125	H	1.013470	-0.378443	-0.127609
H126	H	1.513470	0.121557	0.372391
H127	H	1.020572	-0.213710	-0.135079
H128	H	1.520572	0.286290	0.364921
H129	H	1.069926	0.000014	0.704561
H130	H	1.569926	0.500014	1.204561
H131	H	0.682898	0.000020	-0.224368
H132	H	1.182898	0.500020	0.275632
H133	H	1.077623	-0.000010	0.248120
H134	H	1.577623	0.499990	0.748120
H135	H	0.837833	-0.378503	0.056383
H136	H	1.337833	0.121497	0.556383
H137	H	0.317801	0.000035	-0.171197
H138	H	0.817801	0.500035	0.328803
H139	H	0.532007	0.000030	-0.232522
H140	H	1.032007	0.500030	0.267478
H141	H	0.844937	-0.213756	0.048924
H142	H	1.344937	0.286244	0.548924
H143	H	0.166922	0.000017	-0.179354
H144	H	0.666922	0.500017	0.320646
H145	H	0.809238	0.000021	0.477324
H146	H	1.309238	0.500021	0.977324
H147	H	0.806391	0.000007	0.646373
H148	H	1.306391	0.500007	1.146373
H149	H	0.811242	0.000022	0.358981
H150	H	1.311242	0.500022	0.858981
H151	H	0.351999	-0.000009	0.127010
H152	H	0.851999	0.499991	0.627010
H153	H	0.566207	0.000003	0.065676
H154	H	1.066207	0.500003	0.565676
H155	H	1.039078	-0.786240	-0.154423
H156	H	1.539078	-0.286240	0.345577
