data_functionalizedCrystal
_audit_creation_method	'MofGen! by Chris Wilmer'
_symmetry_space_group_name_H-M	'P1'
_symmetry_Int_Tables_number	1
_symmetry_cell_setting	triclinic
loop_
_symmetry_equiv_pos_as_xyz
  x,y,z
_cell_length_a	12.645331
_cell_length_b	29.839131
_cell_length_c	12.645323
_cell_angle_alpha	89.967288
_cell_angle_beta	89.977324
_cell_angle_gamma	90.040399
loop_
_atom_site_label
_atom_site_type_symbol
_atom_site_fract_x
_atom_site_fract_y
_atom_site_fract_z
Zn1	Zn	1.620556	-0.178862	-0.599388
Zn2	Zn	1.620365	-0.253994	-0.422104
Zn3	Zn	1.443271	-0.178877	-0.422133
Zn4	Zn	1.443179	-0.253964	-0.599320
O5	O	1.531843	-0.216424	-0.510736
O6	O	1.768878	-0.188834	-0.575888
O7	O	1.596831	-0.244048	-0.273761
O8	O	1.466907	-0.116008	-0.445687
O9	O	1.768737	-0.244033	-0.445638
O10	O	1.597158	-0.115997	-0.575916
O11	O	1.466721	-0.188860	-0.273782
O12	O	1.294912	-0.188832	-0.445620
O13	O	1.466751	-0.243983	-0.747676
O14	O	1.294844	-0.243998	-0.575799
O15	O	1.597069	-0.188806	-0.747727
O16	O	1.596742	-0.316857	-0.445571
O17	O	1.466565	-0.316835	-0.575771
C18	C	1.256413	-0.216414	-0.510706
C19	C	1.138583	-0.216420	-0.510718
C20	C	0.971026	-0.181555	-0.429274
C21	C	1.093586	-0.181645	-0.428915
C22	C	1.094017	-0.263746	-0.480188
C23	C	0.971418	-0.263555	-0.479632
C24	C	0.971445	-0.204409	-0.623006
C25	C	1.094052	-0.203352	-0.622382
C26	C	1.531651	-0.333147	-0.510684
C27	C	1.531667	-0.383081	-0.510697
C28	C	1.599749	-0.692723	-0.443041
C29	C	1.599880	-0.880396	-0.443082
O30	O	1.657615	-0.904660	-0.385518
N31	N	1.532063	-0.903866	-0.510816
C32	C	1.464212	-0.880415	-0.578550
O33	O	1.406540	-0.904684	-0.636171
C34	C	1.464088	-0.692743	-0.578514
C35	C	1.531902	-0.669275	-0.510767
C36	C	1.667559	-0.669256	-0.375300
C37	C	1.667522	-0.622340	-0.375287
C38	C	1.599674	-0.598892	-0.443013
C39	C	1.531865	-0.622360	-0.510753
C40	C	1.396244	-0.669293	-0.646252
C41	C	1.396220	-0.622372	-0.646239
C42	C	1.464035	-0.598904	-0.578492
C43	C	1.463980	-0.551997	-0.578466
N44	N	1.531798	-0.528527	-0.510732
C45	C	1.599645	-0.551975	-0.443005
C46	C	1.464281	-0.978946	-0.578563
C47	C	1.464311	-1.025864	-0.578571
C48	C	1.599980	-1.025842	-0.443104
C49	C	1.599945	-0.978923	-0.443091
C50	C	1.532099	-0.955476	-0.510829
C51	C	1.599560	-0.453449	-0.442981
C52	C	1.599514	-0.406529	-0.442970
C53	C	1.463849	-0.406555	-0.578441
C54	C	1.463891	-0.453471	-0.578448
C55	C	1.531755	-0.476916	-0.510715
O56	O	1.406284	-0.527704	-0.636009
O57	O	1.657325	-0.527697	-0.385409
C58	C	1.599787	-0.739639	-0.443054
C59	C	1.531977	-0.763106	-0.510794
C60	C	1.464130	-0.739659	-0.578521
C61	C	1.532007	-0.810024	-0.510802
C62	C	1.599854	-0.833472	-0.443076
C63	C	1.667672	-0.810002	-0.375341
C64	C	1.667634	-0.763087	-0.375328
C65	C	1.396312	-0.763129	-0.646256
C66	C	1.396354	-0.810044	-0.646263
C67	C	1.464202	-0.833492	-0.578536
C68	C	1.808348	-0.216435	-0.510768
C69	C	1.926178	-0.216440	-0.510781
C70	C	1.531921	-0.216390	-0.787242
C71	C	1.531954	-0.216375	-0.905072
C72	C	1.532064	-0.099246	-0.510812
C73	C	1.532158	-0.049312	-0.510845
C74	C	1.449718	-0.250923	-1.072604
C75	C	1.449934	-0.251094	-0.950044
C76	C	1.643641	-0.229224	-0.949588
C77	C	1.643190	-0.229441	-1.072186
C78	C	1.503559	-0.168784	-1.072285
C79	C	1.501067	-0.169069	-0.949679
C80	C	1.531826	-0.216427	-0.235307
C81	C	1.531998	-0.216315	-0.117477
H82	H	1.123190	-0.168526	-0.645403
H83	H	1.124662	-0.274123	-0.399026
H84	H	1.654736	-0.387423	-0.387799
O85	O	0.936796	-0.234657	-0.695583
C86	C	0.839043	-0.246675	-0.856639
C87	C	0.878246	-0.212370	-0.774550
H88	H	0.791678	-0.228671	-0.920492
H89	H	0.909752	-0.264205	-0.894232
H90	H	0.786612	-0.272554	-0.815913
H91	H	0.930657	-0.186464	-0.815196
H92	H	0.807489	-0.194874	-0.736961
H93	H	1.366652	-0.242960	-1.102080
O94	O	1.351062	-0.241512	-0.914306
C95	C	1.170967	-0.223855	-0.960432
C96	C	1.282888	-0.234712	-1.001041
H97	H	1.115823	-0.218346	-1.030537
H98	H	1.140501	-0.252967	-0.910544
H99	H	1.173742	-0.192181	-0.910137
H100	H	1.280203	-0.266374	-1.051379
H101	H	1.313311	-0.205575	-1.050872
H102	H	1.122856	-0.189597	-0.345753
H103	H	1.706571	-0.205328	-1.101872
H104	H	0.942763	-0.273757	-0.397590
O105	O	1.665513	-0.476150	-0.377082
C106	C	1.800105	-0.471164	-0.242750
C107	C	1.725459	-0.445399	-0.317314
H108	H	1.848607	-0.446313	-0.194424
H109	H	1.751533	-0.493153	-0.187205
H110	H	1.855491	-0.493104	-0.291483
H111	H	1.670059	-0.423435	-0.268666
H112	H	1.774097	-0.423438	-0.372862
H113	H	1.667301	-0.264187	-1.100785
O114	O	1.471914	-0.292669	-1.109528
C115	C	1.491797	-0.339999	-1.262575
C116	C	1.466658	-0.292701	-1.220904
H117	H	1.487534	-0.340043	-1.352626
H118	H	1.574660	-0.350138	-1.236396
H119	H	1.431728	-0.364842	-1.229537
H120	H	1.526658	-0.267826	-1.253923
H121	H	1.383767	-0.282599	-1.247072
H122	H	0.940171	-0.189419	-0.346601
H123	H	1.340973	-0.603284	-0.701402
H124	H	1.722814	-0.688342	-0.320149
O125	O	1.408183	-0.154753	-1.109263
C126	C	1.313114	-0.098552	-1.207636
C127	C	1.421199	-0.114392	-1.165843
H128	H	1.323598	-0.065914	-1.253371
H129	H	1.278518	-0.125203	-1.262170
H130	H	1.257191	-0.092800	-1.138232
H131	H	1.477202	-0.120140	-1.235180
H132	H	1.455709	-0.087733	-1.111279
O133	O	1.665876	-0.956079	-0.377435
C134	C	1.809034	-0.903081	-0.363290
C135	C	1.734411	-0.928912	-0.437766
H136	H	1.864478	-0.881117	-0.412038
H137	H	1.760442	-0.881119	-0.307824
H138	H	1.857475	-0.927913	-0.314864
H139	H	1.685954	-0.904112	-0.486260
H140	H	1.783063	-0.950880	-0.493162
O141	O	1.666068	-1.048560	-0.377371
C142	C	1.846468	-1.062841	-0.326197
C143	C	1.771723	-1.037083	-0.400673
H144	H	1.931907	-1.053578	-0.345025
H145	H	1.828006	-1.053637	-0.240675
H146	H	1.834820	-1.100406	-0.337802
H147	H	1.783330	-0.999512	-0.389162
H148	H	1.790203	-1.046324	-0.486168
O149	O	0.936191	-0.295643	-0.547372
C150	C	0.983247	-0.353874	-0.670636
C151	C	1.023279	-0.317558	-0.593938
H152	H	1.053636	-0.371596	-0.708323
H153	H	0.933277	-0.379285	-0.625421
H154	H	0.933177	-0.337600	-0.735007
H155	H	1.073391	-0.333793	-0.529551
H156	H	1.073191	-0.292151	-0.639227
O157	O	1.398046	-0.383704	-0.644195
C158	C	1.337850	-0.311428	-0.704165
C159	C	1.412434	-0.337253	-0.629656
H160	H	1.349440	-0.273868	-0.692420
H161	H	1.356435	-0.320586	-0.789688
H162	H	1.252393	-0.320719	-0.685495
H163	H	1.497916	-0.327977	-0.648230
H164	H	1.393757	-0.328093	-0.544155
O165	O	1.718752	-0.200074	-0.915015
C166	C	1.851856	-0.145945	-0.963161
C167	C	1.766810	-0.178934	-1.002460
H168	H	1.890750	-0.128852	-1.033840
H169	H	1.813593	-0.119578	-0.910368
H170	H	1.914240	-0.165011	-0.916171
H171	H	1.704401	-0.159907	-1.049494
H172	H	1.805149	-0.205301	-1.055198
H173	H	1.556621	-0.141920	-0.919066
O174	O	1.672958	-0.270264	-0.913155
C175	C	1.721895	-0.345950	-0.957899
C176	C	1.688736	-0.299490	-0.999299
H177	H	1.734640	-0.369594	-1.027524
H178	H	1.798488	-0.342778	-0.910963
H179	H	1.657025	-0.359880	-0.904545
H180	H	1.753535	-0.285533	-1.052695
H181	H	1.612114	-0.302689	-1.046175
O182	O	1.575127	-0.138018	-1.106731
C183	C	1.707162	-0.083501	-1.058341
C184	C	1.626165	-0.118331	-1.019182
H185	H	1.748432	-0.067567	-0.987578
H186	H	1.768300	-0.100674	-1.110729
H187	H	1.664656	-0.056451	-1.105719
H188	H	1.668579	-0.145390	-0.971759
H189	H	1.565032	-0.101125	-0.966849
O190	O	1.398394	-1.048588	-0.644472
C191	C	1.263787	-1.043645	-0.778795
C192	C	1.338398	-1.017857	-0.704226
H193	H	1.215244	-1.018810	-0.827110
H194	H	1.312389	-1.065562	-0.834350
H195	H	1.208437	-1.065660	-0.730066
H196	H	1.393763	-0.995818	-0.752870
H197	H	1.289730	-0.995968	-0.648668
O198	O	1.733363	-0.740274	-0.309409
C199	C	1.747686	-0.687325	-0.166312
C200	C	1.673122	-0.713136	-0.240884
H201	H	1.699012	-0.665370	-0.110905
H202	H	1.796160	-0.712129	-0.117838
H203	H	1.803103	-0.665342	-0.215045
H204	H	1.617641	-0.735119	-0.192232
H205	H	1.624722	-0.688307	-0.289361
O206	O	1.330549	-0.740336	-0.712158
C207	C	1.316132	-0.687315	-0.855224
C208	C	1.390742	-0.713105	-0.780673
H209	H	1.364767	-0.665285	-0.910622
H210	H	1.267693	-0.712134	-0.903708
H211	H	1.260685	-0.665410	-0.806473
H212	H	1.446253	-0.735010	-0.829342
H213	H	1.439107	-0.688262	-0.732185
H214	H	1.468704	-0.286331	-0.920719
H215	H	1.123721	-0.146552	-0.448053
H216	H	1.722912	-0.829101	-0.320193
O217	O	1.403009	-0.157444	-0.915101
C218	C	1.265011	-0.101797	-0.916245
C219	C	1.376061	-0.114909	-0.955505
H220	H	1.243199	-0.067402	-0.948877
H221	H	1.204935	-0.127636	-0.944583
H222	H	1.264720	-0.100634	-0.826135
H223	H	1.376455	-0.116066	-1.045611
H224	H	1.436089	-0.089066	-0.927088
O225	O	1.330439	-0.832768	-0.712176
C226	C	1.195842	-0.827825	-0.846509
C227	C	1.270442	-0.802037	-0.771929
H228	H	1.147299	-0.802991	-0.894823
H229	H	1.244453	-0.849739	-0.902065
H230	H	1.140492	-0.849844	-0.797790
H231	H	1.325806	-0.779994	-0.820564
H232	H	1.221765	-0.780152	-0.716371
H233	H	1.409030	-0.959858	-0.633725
H234	H	1.722745	-0.603236	-0.320125
O235	O	0.934812	-0.163937	-0.656185
C236	C	0.979084	-0.088824	-0.710600
C237	C	1.020717	-0.134641	-0.673074
H238	H	1.048516	-0.065123	-0.724245
H239	H	0.933343	-0.093237	-0.787569
H240	H	0.924553	-0.074182	-0.647688
H241	H	1.075289	-0.149308	-0.735912
H242	H	1.066396	-0.130200	-0.596079
H243	H	1.341017	-0.688392	-0.701414
H244	H	0.941597	-0.146356	-0.448207
H245	H	1.124687	-0.226907	-0.686360
O246	O	1.128829	-0.295635	-0.548627
C247	C	1.226286	-0.364379	-0.570452
C248	C	1.186905	-0.328303	-0.492826
H249	H	1.273268	-0.390795	-0.525371
H250	H	1.155682	-0.380886	-0.610769
H251	H	1.279128	-0.348142	-0.632707
H252	H	1.134083	-0.344504	-0.430509
H253	H	1.257558	-0.311798	-0.452588
H254	H	1.408674	-0.472579	-0.633616
