data_functionalizedCrystal
_audit_creation_method	'MofGen! by Chris Wilmer'
_symmetry_space_group_name_H-M	'P1'
_symmetry_Int_Tables_number	1
_symmetry_cell_setting	triclinic
loop_
_symmetry_equiv_pos_as_xyz
  x,y,z
_cell_length_a	11.295692
_cell_length_b	12.837943
_cell_length_c	12.837942
_cell_angle_alpha	94.828940
_cell_angle_beta	94.165776
_cell_angle_gamma	94.158269
loop_
_atom_site_label
_atom_site_type_symbol
_atom_site_fract_x
_atom_site_fract_y
_atom_site_fract_z
O1	O	0.098999	-1.395432	-0.265225
O2	O	0.099006	-1.092298	-0.251782
O3	O	0.098996	-1.237144	-0.106937
O4	O	0.099010	-1.250587	-0.410070
O5	O	-0.099048	-1.250940	-0.120764
O6	O	-0.099037	-1.106094	-0.265608
O7	O	-0.099044	-1.409228	-0.279052
Cu8	Cu	-0.117124	-1.258921	-0.273593
Cu9	Cu	0.117086	-1.242606	-0.257241
O10	O	-0.099033	-1.264382	-0.423897
C11	C	-0.000014	-1.060127	-0.254154
C12	C	-0.000012	-0.943712	-0.240609
C13	C	-0.000025	-1.239501	-0.074781
C14	C	-0.000023	-1.225956	0.041634
N15	N	-0.281854	-1.270403	-0.285094
C16	C	-0.468830	-1.353226	-0.367942
C17	C	-0.344171	-1.344515	-0.359243
C18	C	-0.344205	-1.204994	-0.219641
C19	C	-0.468864	-1.213705	-0.228340
C20	C	-0.531172	-1.287824	-0.302492
C21	C	-0.655833	-1.296539	-0.311186
C22	C	-0.655865	-1.157014	-0.171589
C23	C	-0.531206	-1.148303	-0.162890
N24	N	0.281816	-1.231131	-0.245733
C25	C	-0.000021	-1.441399	-0.276680
C26	C	-0.000015	-1.557814	-0.290224
C27	C	-0.000021	-0.718838	-0.403439
C28	C	-0.000020	-0.609456	-0.390717
C29	C	-0.000016	-0.615563	-0.202446
C30	C	-0.000017	-0.724945	-0.215168
C31	C	-0.000018	-0.776579	-0.315667
C32	C	-0.000011	-0.885963	-0.328387
C33	C	-0.000016	-0.892068	-0.140117
C34	C	-0.000015	-0.782686	-0.127396
C35	C	-0.000010	-1.262026	-0.456052
C36	C	-0.000004	-1.275570	-0.572467
C37	C	-0.000002	-1.388784	0.266509
C38	C	0.000000	-1.376062	0.375892
C39	C	-0.000008	-1.187792	0.369784
C40	C	-0.000010	-1.200513	0.260402
C41	C	-0.000009	-1.301013	0.208768
C42	C	-0.000020	-1.313734	0.099383
C43	C	-0.000019	-1.125464	0.093278
C44	C	-0.000017	-1.112742	0.202660
H45	H	-0.706563	-1.356893	-0.371562
N46	N	-0.463995	-1.068375	-0.082907
H47	H	-0.522408	-1.028267	-0.042762
H48	H	-0.412286	-1.018088	-0.119853
N49	N	0.000004	-1.079403	0.425484
H50	H	0.000011	-1.084667	0.503539
H51	H	-0.073416	-1.045634	0.399917
H52	H	-0.293452	-1.144645	-0.159275
N53	N	-0.000021	-1.497174	0.210812
H54	H	0.073387	-1.501542	0.170680
H55	H	-0.073491	-1.511684	0.160503
H56	H	-0.000013	-1.030918	0.244716
H57	H	-0.293416	-1.397770	-0.412542
N58	N	-0.000018	-1.422125	0.043691
H59	H	-0.000027	-1.416870	-0.034365
H60	H	-0.073434	-1.466121	0.059028
N61	N	-0.723101	-1.086475	-0.100978
H62	H	-0.774842	-1.043344	-0.145060
H63	H	-0.664626	-1.038275	-0.052699
N64	N	-0.536043	-1.433176	-0.447902
H65	H	-0.477632	-1.473292	-0.488042
H66	H	-0.587779	-1.396207	-0.498158
N67	N	-0.000056	-0.547199	-0.485401
H68	H	0.073348	-0.559784	-0.523663
H69	H	-0.000111	-0.470092	-0.462034
H70	H	-0.000114	-0.573510	-0.120631
N71	N	-0.000033	-1.030788	0.031000
H72	H	-0.000037	-1.054093	-0.046129
H73	H	0.073383	-0.982339	0.053905
H74	H	0.000010	-1.447535	0.422901
H75	H	-0.000014	-0.928001	-0.410219
N76	N	-0.000024	-0.726983	-0.019011
H77	H	0.073389	-0.676618	-0.004416
H78	H	-0.000067	-0.780224	0.034597
N79	N	-0.000003	-0.774536	-0.511825
H80	H	0.000002	-0.721358	-0.565500
H81	H	-0.073419	-0.824903	-0.526333
N82	N	-0.000010	-0.954336	-0.045434
H83	H	0.073407	-0.994737	-0.041392
H84	H	-0.073471	-1.004914	-0.051687
