data_functionalizedCrystal
_audit_creation_method	'MofGen! by Chris Wilmer'
_symmetry_space_group_name_H-M	'P1'
_symmetry_Int_Tables_number	1
_symmetry_cell_setting	triclinic
loop_
_symmetry_equiv_pos_as_xyz
  x,y,z
_cell_length_a	11.792241
_cell_length_b	10.654541
_cell_length_c	9.730217
_cell_angle_alpha	89.996959
_cell_angle_beta	90.002791
_cell_angle_gamma	84.338672
loop_
_atom_site_label
_atom_site_type_symbol
_atom_site_fract_x
_atom_site_fract_y
_atom_site_fract_z
O1	O	1.507300	0.172133	-0.114156
O2	O	1.177000	0.189874	-0.114188
O3	O	1.349746	-0.001757	-0.114163
O4	O	1.334554	0.363765	-0.114181
O5	O	1.349740	-0.001759	0.114417
O6	O	1.176995	0.189872	0.114392
O7	O	1.507295	0.172132	0.114424
Zn8	Zn	1.342144	0.181002	0.150700
Zn9	Zn	1.342151	0.181004	-0.150464
O10	O	1.334549	0.363763	0.114399
C11	C	1.348628	-0.048553	0.000126
C12	C	1.345293	-0.187987	0.000124
C13	C	1.134704	0.188759	0.000098
C14	C	1.008682	0.185423	0.000086
C15	C	1.551857	-0.216542	0.000161
C16	C	1.653568	-0.296324	0.000183
C17	C	1.650427	-0.427333	0.000178
C18	C	1.545564	-0.478562	0.000148
C19	C	1.443854	-0.398780	0.000127
C20	C	1.447006	-0.267770	0.000135
C21	C	1.237292	-0.370225	0.000079
C22	C	1.240430	-0.239216	0.000094
C23	C	1.132429	-0.421454	0.000049
C24	C	1.030716	-0.341672	0.000038
C25	C	1.033861	-0.210655	0.000044
C26	C	1.138720	-0.159434	0.000072
C27	C	0.777956	0.179290	0.000126
C28	C	0.906349	0.182698	0.000104
C29	C	1.549591	0.173247	0.000135
C30	C	1.675612	0.176582	0.000138
C31	C	1.335667	0.410559	0.000107
C32	C	1.339002	0.549993	0.000101
N33	N	1.342147	0.180999	0.356237
N34	N	1.342156	0.180996	-0.356000
C35	C	1.495177	0.011359	0.356250
C36	C	1.571699	-0.073457	0.428196
C37	C	1.571711	-0.073458	0.572076
C38	C	1.495189	0.011365	0.644013
C39	C	1.418667	0.096181	0.572066
C40	C	1.418666	0.096175	0.428183
C41	C	1.265634	0.265813	0.572053
C42	C	1.265626	0.265822	0.428174
C43	C	1.189113	0.350635	0.643990
C44	C	1.112594	0.435459	0.572044
C45	C	1.112587	0.435457	0.428155
C46	C	1.189104	0.350638	0.356227
H47	H	1.738945	-0.254599	0.000219
H48	H	1.495185	0.011362	0.239095
O49	O	1.038110	0.517716	0.641861
C50	C	0.925600	0.496472	0.606674
H51	H	0.924268	0.395919	0.567112
H52	H	0.868755	0.510474	0.701296
H53	H	0.892797	0.565843	0.523163
O54	O	0.928794	-0.391285	0.000187
C55	C	0.866726	-0.350635	0.118579
H56	H	0.898369	-0.259579	0.158071
H57	H	0.772351	-0.333093	0.091933
H58	H	0.879267	-0.426363	0.201466
O59	O	1.646038	-0.155672	0.358103
C60	C	1.629634	-0.137481	0.215683
H61	H	1.587913	-0.037977	0.196045
H62	H	1.715493	-0.150703	0.161035
H63	H	1.572234	-0.209051	0.174804
H64	H	1.733248	-0.492293	0.000184
O65	O	1.188888	0.350643	0.216463
C66	C	1.080965	0.324262	0.168397
H67	H	1.014297	0.349496	0.251308
H68	H	1.058178	0.382341	0.072131
H69	H	1.083151	0.219620	0.142882
O70	O	1.141719	-0.032165	0.000324
C71	C	1.086076	0.019436	0.118676
H72	H	1.086068	-0.056317	0.201417
H73	H	1.132681	0.100925	0.158428
H74	H	0.994489	0.055428	0.091886
H75	H	1.543016	-0.585238	0.000127
O76	O	0.934982	-0.133286	-0.000162
C77	C	0.871413	-0.156585	-0.118584
H78	H	0.898507	-0.255761	-0.158051
H79	H	0.776816	-0.148014	-0.091986
H80	H	0.887510	-0.084822	-0.201471
O81	O	1.038365	0.518025	0.358333
C82	C	1.057755	0.642489	0.393517
H83	H	1.148631	0.643792	0.433066
H84	H	1.045179	0.705427	0.298896
H85	H	0.995137	0.678895	0.477035
H86	H	1.634018	-0.142527	0.630655
O87	O	1.188942	0.350533	0.783754
C88	C	1.081006	0.324221	0.831831
H89	H	1.036249	0.271791	0.748923
H90	H	1.091841	0.263222	0.928095
H91	H	1.027647	0.416371	0.857351
O92	O	1.495378	0.011228	0.783776
C93	C	1.579300	-0.081850	0.831852
H94	H	1.646740	-0.103245	0.748941
H95	H	1.620926	-0.046162	0.928111
H96	H	1.538096	-0.171406	0.857380
H97	H	1.129879	-0.528129	0.000037
H98	H	1.554425	-0.109869	0.000184
