data_functionalizedCrystal
_audit_creation_method	'MofGen! by Chris Wilmer'
_symmetry_space_group_name_H-M	'P1'
_symmetry_Int_Tables_number	1
_symmetry_cell_setting	triclinic
loop_
_symmetry_equiv_pos_as_xyz
  x,y,z
_cell_length_a	17.699083
_cell_length_b	12.837942
_cell_length_c	16.176319
_cell_angle_alpha	89.994101
_cell_angle_beta	89.998611
_cell_angle_gamma	89.055978
loop_
_atom_site_label
_atom_site_type_symbol
_atom_site_fract_x
_atom_site_fract_y
_atom_site_fract_z
O1	O	1.013708	0.131067	-0.068629
O2	O	0.794582	0.148119	-0.068656
O3	O	0.899286	-0.011297	-0.068638
O4	O	0.909004	0.290484	-0.068647
O5	O	0.899269	-0.011307	0.068855
O6	O	0.794565	0.148109	0.068837
O7	O	1.013691	0.131057	0.068864
Cu8	Cu	0.904126	0.139582	0.081405
Cu9	Cu	0.904146	0.139594	-0.081197
O10	O	0.908987	0.290474	0.068846
C11	C	0.766332	0.147503	0.000087
C12	C	0.682179	0.145670	0.000077
C13	C	0.895995	-0.049915	0.000108
C14	C	0.886204	-0.164967	0.000105
C15	C	0.640432	0.239245	0.000074
C16	C	0.561362	0.237516	0.000085
C17	C	0.524040	0.142212	0.000092
C18	C	0.565792	0.048631	0.000097
C19	C	0.644861	0.050360	0.000093
C20	C	0.246916	0.041653	0.000118
C21	C	0.167842	0.039931	0.000120
C22	C	0.163418	0.228809	0.000111
C23	C	0.242486	0.230539	0.000106
C24	C	0.284232	0.136958	0.000115
C25	C	0.369969	0.138833	0.000105
C26	C	0.438304	0.140336	0.000097
C27	C	1.003908	-0.406222	0.000102
C28	C	0.994712	-0.514324	0.000100
C29	C	0.858617	-0.489277	0.000092
C30	C	0.867813	-0.381174	0.000094
C31	C	0.940461	-0.339651	0.000101
C32	C	0.949656	-0.231546	0.000109
C33	C	0.813561	-0.206501	0.000095
C34	C	0.804365	-0.314604	0.000093
C35	C	1.041941	0.131673	0.000119
C36	C	1.126094	0.133506	0.000124
C37	C	0.912278	0.329091	0.000099
C38	C	0.922069	0.444144	0.000096
N39	N	0.904118	0.139573	0.195770
N40	N	0.904160	0.139595	-0.195562
C41	C	0.950499	0.069012	0.239042
C42	C	0.950502	0.069011	0.325589
C43	C	0.904129	0.139577	0.368863
C44	C	0.857743	0.210141	0.325584
C45	C	0.857736	0.210136	0.239039
C46	C	0.857771	0.210161	0.674613
C47	C	0.857783	0.210162	0.761164
C48	C	0.950537	0.069035	0.761163
C49	C	0.950530	0.069031	0.674617
C50	C	0.904141	0.139591	0.631347
C51	C	0.904137	0.139590	0.537503
C52	C	0.904137	0.139584	0.462705
H53	H	0.527375	0.313714	0.000082
C54	C	0.744601	-0.134346	-0.000035
C55	C	0.701305	-0.153091	-0.070764
C56	C	0.637770	-0.086653	-0.070902
H57	H	0.760373	-0.063980	-0.000072
H58	H	0.715091	-0.146946	0.047886
H59	H	0.730810	-0.140483	-0.118672
H60	H	0.685514	-0.223444	-0.070741
H61	H	0.608260	-0.099252	-0.022981
H62	H	0.653549	-0.016291	-0.070937
H63	H	0.608382	-0.099368	-0.118886
H64	H	0.799470	-0.523105	0.000077
H65	H	0.820018	0.267627	0.796396
H66	H	1.063061	-0.372413	0.000116
C67	C	1.028590	-0.186661	0.000069
C68	C	1.082185	-0.268105	0.000043
C69	C	1.154909	-0.226800	-0.000009
H70	H	1.035115	-0.145033	0.048002
H71	H	1.035045	-0.145034	-0.047898
H72	H	1.075734	-0.309714	0.048005
H73	H	1.075685	-0.309739	-0.047887
H74	H	1.161363	-0.185173	-0.047976
H75	H	1.161426	-0.185173	0.047925
H76	H	1.191282	-0.282052	-0.000034
H77	H	0.988264	0.011554	0.203815
C78	C	0.292276	-0.059910	0.000287
C79	C	0.337786	-0.064460	0.071032
C80	C	0.379579	-0.158015	0.071218
H81	H	0.323275	-0.063255	-0.047606
H82	H	0.258749	-0.116948	0.000332
H83	H	0.371309	-0.007439	0.070979
H84	H	0.306806	-0.061134	0.118936
H85	H	0.346052	-0.215052	0.071263
H86	H	0.410574	-0.161351	0.023322
H87	H	0.410457	-0.161118	0.119220
C88	C	0.725556	-0.359893	0.000130
C89	C	0.731081	-0.468813	0.000148
C90	C	0.658497	-0.510566	0.000197
H91	H	0.699038	-0.337136	-0.047802
H92	H	0.699093	-0.337098	0.048098
H93	H	0.757533	-0.491599	-0.047815
H94	H	0.757586	-0.491598	0.048077
H95	H	0.632033	-0.487771	0.048165
H96	H	0.631984	-0.487802	-0.047736
H97	H	0.662235	-0.584472	0.000216
C98	C	0.118131	0.330448	-0.000061
C99	C	0.136012	0.387831	-0.070816
C100	C	0.094304	0.481456	-0.071011
H101	H	0.130148	0.369659	0.047825
H102	H	0.065687	0.315817	-0.000099
H103	H	0.188445	0.402465	-0.070771
H104	H	0.123993	0.348651	-0.118713
H105	H	0.041860	0.466825	-0.071049
H106	H	0.106324	0.520658	-0.023122
H107	H	0.106425	0.520398	-0.119021
H108	H	1.046378	-0.568524	0.000098
H109	H	0.988294	0.011573	0.639387
H110	H	0.819967	0.267593	0.203807
H111	H	0.535398	-0.028967	0.000115
H112	H	0.820001	0.267615	0.639388
H113	H	0.988268	0.011555	0.360821
C114	C	1.000844	-0.007753	0.808041
C115	C	0.981241	-0.109579	0.786981
C116	C	1.027573	-0.180339	0.830138
H117	H	0.994249	0.002205	0.865794
H118	H	1.052169	0.003353	0.793835
H119	H	0.929928	-0.120681	0.801193
H120	H	0.987840	-0.119570	0.729235
H121	H	1.078898	-0.169234	0.815932
H122	H	1.020974	-0.170372	0.887890
H123	H	1.014283	-0.249436	0.815850
C124	C	0.807476	0.286711	0.372714
C125	C	0.817424	0.271635	0.457769
C126	C	0.771138	0.342166	0.501208
H127	H	0.756130	0.275610	0.358640
H128	H	0.820687	0.355890	0.358566
H129	H	0.804208	0.202473	0.471911
H130	H	0.868760	0.282745	0.471867
H131	H	0.784350	0.411345	0.487060
H132	H	0.719796	0.331058	0.487127
H133	H	0.777887	0.331953	0.558922
H134	H	0.670814	0.316852	0.000068
H135	H	0.137457	-0.037681	0.000128
C136	C	0.283146	0.333907	0.000044
C137	C	0.361326	0.315393	0.000013
C138	C	0.398805	0.410591	-0.000058
H139	H	0.269373	0.372514	0.047973
H140	H	0.269317	0.372431	-0.047927
H141	H	0.375150	0.276884	0.047978
H142	H	0.375121	0.276801	-0.047913
H143	H	0.384975	0.449116	-0.048028
H144	H	0.385026	0.449191	0.047872
H145	H	0.451854	0.398043	-0.000087
H146	H	0.678850	-0.025837	0.000094
