data_functionalizedCrystal
_audit_creation_method	'MofGen! by Chris Wilmer'
_symmetry_space_group_name_H-M	'P1'
_symmetry_Int_Tables_number	1
_symmetry_cell_setting	triclinic
loop_
_symmetry_equiv_pos_as_xyz
  x,y,z
_cell_length_a	6.817900
_cell_length_b	14.125465
_cell_length_c	14.125369
_cell_angle_alpha	96.221150
_cell_angle_beta	100.397648
_cell_angle_gamma	100.398878
loop_
_atom_site_label
_atom_site_type_symbol
_atom_site_fract_x
_atom_site_fract_y
_atom_site_fract_z
V1	V	-3.975802	-0.299601	-0.132288
O2	O	-3.980353	-0.294287	0.007207
O3	O	-3.912214	-0.297177	-0.263123
O4	O	-3.912227	-0.430437	-0.129880
O5	O	-3.980341	-0.160104	-0.126958
V6	V	-4.463364	-0.282961	-0.115647
O7	O	-4.228200	-0.336101	-0.168792
O8	O	-4.661164	-0.246461	-0.079143
O9	O	-4.303746	-0.285384	0.015188
O10	O	-4.576210	-0.288275	-0.255142
O11	O	-4.576223	-0.422458	-0.120977
O12	O	-4.303733	-0.152124	-0.118055
C13	C	-3.754011	-0.292354	-0.295029
C14	C	-3.783206	-0.291245	-0.401986
C15	C	-4.021785	-0.293315	-0.650121
C16	C	-3.836760	-0.289250	-0.597814
C17	C	-3.806963	-0.290360	-0.488845
C18	C	-4.051590	-0.292205	-0.759100
C19	C	-3.754026	-0.462340	-0.125063
C20	C	-3.783229	-0.569297	-0.123960
C21	C	-3.836757	-0.765126	-0.121937
C22	C	-4.021778	-0.817436	-0.125995
C23	C	-4.051564	-0.926402	-0.124870
C24	C	-3.806964	-0.656150	-0.123063
C25	C	-4.125291	-0.290205	0.047089
C26	C	-4.075333	-0.291320	0.154045
C27	C	-4.125276	-0.120217	-0.122874
C28	C	-4.075312	-0.013258	-0.123973
H29	H	-3.700733	-0.284937	-0.634871
C30	C	-4.205531	-0.299129	-0.600065
H31	H	-4.161073	-0.299111	-0.532329
H32	H	-4.302520	-0.357267	-0.627104
H33	H	-4.266333	-0.244576	-0.609859
H34	H	-4.157814	-0.780385	-0.130325
H35	H	-3.700736	-0.802176	-0.117619
