data_functionalizedCrystal
_audit_creation_method	'MofGen! by Chris Wilmer'
_symmetry_space_group_name_H-M	'P1'
_symmetry_Int_Tables_number	1
_symmetry_cell_setting	triclinic
loop_
_symmetry_equiv_pos_as_xyz
  x,y,z
_cell_length_a	18.101398
_cell_length_b	18.101395
_cell_length_c	16.959447
_cell_angle_alpha	90.029468
_cell_angle_beta	90.020773
_cell_angle_gamma	90.026371
loop_
_atom_site_label
_atom_site_type_symbol
_atom_site_fract_x
_atom_site_fract_y
_atom_site_fract_z
Zn1	Zn	1.132095	-0.294908	0.447049
Zn2	Zn	1.465428	0.038425	0.780383
Zn3	Zn	1.798762	0.371758	1.113716
Zn4	Zn	1.131999	-0.418761	0.314873
Zn5	Zn	1.465332	-0.085428	0.648206
Zn6	Zn	1.798665	0.247905	0.981539
Zn7	Zn	1.008262	-0.294928	0.314872
Zn8	Zn	1.341595	0.038405	0.648205
Zn9	Zn	1.674928	0.371739	0.981539
Zn10	Zn	1.008205	-0.418702	0.446996
Zn11	Zn	1.341538	-0.085369	0.780330
Zn12	Zn	1.674871	0.247964	1.113663
O13	O	1.070140	-0.356825	0.380948
O14	O	1.403473	-0.023492	0.714281
O15	O	1.736807	0.309842	1.047614
O16	O	1.235715	-0.311354	0.429538
O17	O	1.569048	0.021979	0.762872
O18	O	1.902382	0.355312	1.096205
O19	O	1.115568	-0.402368	0.204262
O20	O	1.448901	-0.069034	0.537595
O21	O	1.782235	0.264299	0.870928
O22	O	1.024753	-0.191293	0.332427
O23	O	1.358086	0.142041	0.665761
O24	O	1.691419	0.475374	0.999094
O25	O	1.235644	-0.402349	0.332429
O26	O	1.568978	-0.069015	0.665762
O27	O	1.902311	0.264318	0.999095
O28	O	1.115732	-0.191278	0.429538
O29	O	1.449066	0.142055	0.762871
O30	O	1.782399	0.475389	1.096204
O31	O	1.024659	-0.311388	0.204261
O32	O	1.357992	0.021946	0.537594
O33	O	1.691326	0.355279	0.870928
O34	O	0.904621	-0.311331	0.332376
O35	O	1.237955	0.022003	0.665709
O36	O	1.571288	0.355336	0.999043
O37	O	1.024656	-0.402248	0.557614
O38	O	1.357989	-0.068915	0.890948
O39	O	1.691322	0.264419	1.224281
O40	O	0.904579	-0.402267	0.429447
O41	O	1.237913	-0.068934	0.762781
O42	O	1.571246	0.264400	1.096114
O43	O	1.115677	-0.311297	0.557653
O44	O	1.449011	0.022036	0.890987
O45	O	1.782344	0.355370	1.224320
O46	O	1.115513	-0.522387	0.332377
O47	O	1.448846	-0.189053	0.665711
O48	O	1.782180	0.144280	0.999044
O49	O	1.024562	-0.522343	0.429448
O50	O	1.357895	-0.189010	0.762782
O51	O	1.691229	0.144323	1.096115
C52	C	0.877729	-0.356795	0.380906
C53	C	1.211063	-0.023462	0.714240
C54	C	1.544396	0.309872	1.047573
C55	C	0.795415	-0.356800	0.380908
C56	C	1.128749	-0.023467	0.714241
C57	C	1.462082	0.309867	1.047574
C58	C	1.070041	-0.549236	0.380924
C59	C	1.403374	-0.215902	0.714258
C60	C	1.736708	0.117431	1.047591
C61	C	1.070066	-0.631550	0.380941
C62	C	1.403400	-0.298216	0.714274
C63	C	1.736733	0.035117	1.047608
C64	C	0.496324	-0.356846	0.380974
C65	C	0.829658	-0.023513	0.714307
C66	C	1.162991	0.309820	1.047641
C67	C	0.527651	-0.299345	0.320197
C68	C	0.860985	0.033988	0.653531
C69	C	1.194318	0.367321	0.986864
C70	C	0.613269	-0.299500	0.319938
C71	C	0.946603	0.033834	0.653271
C72	C	1.279936	0.367167	0.986605
C73	C	0.644707	-0.356823	0.380941
C74	C	0.978040	-0.023489	0.714274
C75	C	1.311374	0.309844	1.047608
C76	C	0.613590	-0.434835	0.358183
C77	C	0.946923	-0.101502	0.691516
C78	C	1.280257	0.231831	1.024850
C79	C	0.527945	-0.434516	0.357760
C80	C	0.861278	-0.101182	0.691094
C81	C	1.194612	0.232151	1.024427
C82	C	0.527934	-0.337013	0.464652
C83	C	0.861268	-0.003679	0.797985
C84	C	1.194601	0.329654	1.131318
C85	C	0.613585	-0.335275	0.464195
C86	C	0.946918	-0.001942	0.797528
C87	C	1.280252	0.331391	1.130862
C88	C	0.728566	-0.356814	0.380924
C89	C	1.061900	-0.023481	0.714257
C90	C	1.395233	0.309853	1.047590
C91	C	0.412465	-0.356860	0.380989
C92	C	0.745798	-0.023527	0.714323
C93	C	1.079132	0.309807	1.047656
C94	C	1.070229	-0.930641	0.380983
C95	C	1.403562	-0.597307	0.714317
C96	C	1.736895	-0.263974	1.047650
C97	C	1.013138	-0.899319	0.442209
C98	C	1.346471	-0.565986	0.775543
C99	C	1.679804	-0.232652	1.108876
C100	C	1.012866	-0.813701	0.442018
C101	C	1.346200	-0.480368	0.775351
C102	C	1.679533	-0.147034	1.108685
C103	C	1.070148	-0.782258	0.380963
C104	C	1.403481	-0.448925	0.714296
C105	C	1.736815	-0.115592	1.047630
C106	C	1.049024	-0.813411	0.297656
C107	C	1.382357	-0.480077	0.630989
C108	C	1.715690	-0.146744	0.964323
C109	C	1.048656	-0.899056	0.298022
C110	C	1.381989	-0.565723	0.631356
C111	C	1.715322	-0.232389	0.964689
C112	C	1.148569	-0.898990	0.402331
C113	C	1.481903	-0.565657	0.735665
C114	C	1.815236	-0.232323	1.068998
C115	C	1.148108	-0.813339	0.404158
C116	C	1.481442	-0.480006	0.737491
C117	C	1.814775	-0.146672	1.070825
C118	C	1.070104	-0.698399	0.380946
C119	C	1.403437	-0.365065	0.714280
C120	C	1.736771	-0.031732	1.047613
C121	C	1.070271	-1.014500	0.380995
C122	C	1.403605	-0.681167	0.714328
C123	C	1.736938	-0.347833	1.047661
C124	C	1.263302	-0.356856	0.380990
C125	C	1.596635	-0.023522	0.714323
C126	C	1.929969	0.309811	1.047656
C127	C	1.345616	-0.356869	0.381007
C128	C	1.678949	-0.023536	0.714341
C129	C	2.012283	0.309798	1.047674
C130	C	1.070171	-0.356764	0.587116
C131	C	1.403504	-0.023430	0.920449
C132	C	1.736838	0.309903	1.253783
C133	C	1.070184	-0.356738	0.674973
C134	C	1.403517	-0.023404	1.008306
C135	C	1.736851	0.309929	1.341639
C136	C	1.070260	-0.163663	0.380988
C137	C	1.403593	0.169670	0.714322
C138	C	1.736926	0.503003	1.047655
C139	C	1.070311	-0.081349	0.381006
C140	C	1.403644	0.251984	0.714339
C141	C	1.736977	0.585318	1.047672
C142	C	1.070152	-0.356833	0.175581
C143	C	1.403485	-0.023499	0.508915
C144	C	1.736819	0.309834	0.842248
C145	C	1.070282	-0.356650	0.087725
C146	C	1.403616	-0.023317	0.421059
C147	C	1.736949	0.310016	0.754392
C148	C	1.022882	-0.404014	1.046431
C149	C	1.356215	-0.070680	1.379764
C150	C	1.689548	0.262653	1.713097
C151	C	1.117663	-0.309306	1.046466
C152	C	1.450997	0.024028	1.379800
C153	C	1.784330	0.357361	1.713133
C154	C	1.117644	-0.309321	0.963920
C155	C	1.450977	0.024012	1.297254
C156	C	1.784310	0.357345	1.630587
C157	C	1.070243	-0.356685	0.922626
C158	C	1.403576	-0.023351	1.255959
C159	C	1.736910	0.309982	1.589292
C160	C	1.022862	-0.404032	0.963877
C161	C	1.356195	-0.070699	1.297210
C162	C	1.689529	0.262634	1.630544
C163	C	1.165029	-0.261980	0.922663
C164	C	1.498362	0.071353	1.255996
C165	C	1.831696	0.404687	1.589329
C166	C	1.165012	-0.261994	0.840112
C167	C	1.498345	0.071339	1.173445
C168	C	1.831678	0.404672	1.506778
C169	C	1.117607	-0.309354	0.798816
C170	C	1.450940	0.023979	1.132149
C171	C	1.784273	0.357312	1.465482
C172	C	1.070223	-0.356703	0.840072
C173	C	1.403557	-0.023370	1.173405
C174	C	1.736890	0.309963	1.506739
C175	C	1.022823	-0.404067	0.798778
C176	C	1.356156	-0.070733	1.132111
C177	C	1.689489	0.262600	1.465444
C178	C	0.975435	-0.451412	0.840033
C179	C	1.308768	-0.118079	1.173366
C180	C	1.642102	0.215254	1.506699
C181	C	0.975457	-0.451392	0.922581
C182	C	1.308790	-0.118059	1.255914
C183	C	1.642124	0.215274	1.589248
C184	C	1.117585	-0.309374	0.716267
C185	C	1.450918	0.023959	1.049601
C186	C	1.784251	0.357292	1.382934
C187	C	1.022803	-0.404085	0.716224
C188	C	1.356136	-0.070752	1.049557
C189	C	1.689470	0.262581	1.382891
H190	H	0.634309	-0.241650	0.334203
H191	H	0.967642	0.091683	0.667536
H192	H	1.300976	0.425017	1.000869
H193	H	1.192894	-0.791932	0.362815
H194	H	1.526227	-0.458598	0.696149
H195	H	1.859561	-0.125265	1.029482
H196	H	0.506105	-0.312309	0.258554
H197	H	0.839439	0.021024	0.591887
H198	H	1.172772	0.354357	0.925220
Cl199	Cl	0.924032	-0.932656	0.420669
Cl200	Cl	1.257365	-0.599322	0.754002
Cl201	Cl	1.590699	-0.265989	1.087335
Cl202	Cl	0.495891	-0.209754	0.341975
Cl203	Cl	0.829225	0.123580	0.675308
Cl204	Cl	1.162558	0.456913	1.008642
Cl205	Cl	0.963206	-0.463627	0.664318
Cl206	Cl	1.296539	-0.130294	0.997651
Cl207	Cl	1.629872	0.203039	1.330984
Cl208	Cl	0.963310	-0.463529	1.098291
Cl209	Cl	1.296643	-0.130195	1.431624
Cl210	Cl	1.629976	0.203138	1.764958
Cl211	Cl	0.644859	-0.319740	0.224207
Cl212	Cl	0.978193	0.013593	0.557540
Cl213	Cl	1.311526	0.346927	0.890873
Cl214	Cl	1.110062	-0.931053	0.225184
Cl215	Cl	1.443395	-0.597720	0.558517
Cl216	Cl	1.776728	-0.264386	0.891850
H217	H	0.936845	-0.489979	0.806400
H218	H	1.270178	-0.156645	1.139733
H219	H	1.603511	0.176688	1.473066
Cl220	Cl	0.923213	-0.782157	0.420188
Cl221	Cl	1.256546	-0.448824	0.753522
Cl222	Cl	1.589880	-0.115490	1.086855
Cl223	Cl	1.224581	-0.202472	0.788256
Cl224	Cl	1.557914	0.130861	1.121589
Cl225	Cl	1.891247	0.464194	1.454923
H226	H	1.203625	-0.223424	0.956291
H227	H	1.536958	0.109909	1.289624
H228	H	1.870291	0.443243	1.622957
Cl229	Cl	1.111202	-0.781971	0.225300
Cl230	Cl	1.444536	-0.448637	0.558634
Cl231	Cl	1.777869	-0.115304	0.891967
H232	H	0.992364	-0.792022	0.279249
H233	H	1.325697	-0.458689	0.612583
H234	H	1.659031	-0.125355	0.945916
H235	H	0.936879	-0.489941	0.956178
H236	H	1.270212	-0.156608	1.289512
H237	H	1.603546	0.176726	1.622845
H238	H	0.633928	-0.277867	0.481355
H239	H	0.967261	0.055467	0.814689
H240	H	1.300595	0.388800	1.148022
Cl241	Cl	1.177157	-0.249864	0.664407
Cl242	Cl	1.510491	0.083469	0.997741
Cl243	Cl	1.843824	0.416803	1.331074
H244	H	1.167830	-0.920538	0.462044
H245	H	1.501163	-0.587204	0.795377
H246	H	1.834496	-0.253871	1.128710
H247	H	1.026082	-0.792636	0.503789
H248	H	1.359416	-0.459303	0.837122
H249	H	1.692749	-0.125969	1.170456
Cl250	Cl	0.646653	-0.461256	0.264756
Cl251	Cl	0.979987	-0.127922	0.598089
Cl252	Cl	1.313320	0.205411	0.931423
Cl253	Cl	1.172707	-0.781900	0.498815
Cl254	Cl	1.506040	-0.448566	0.832149
Cl255	Cl	1.839374	-0.115233	1.165482
H256	H	0.507937	-0.451335	0.296588
H257	H	0.841270	-0.118002	0.629921
H258	H	1.174603	0.215331	0.963255
H259	H	0.633952	-0.478826	0.401064
H260	H	0.967285	-0.145492	0.734398
H261	H	1.300619	0.187841	1.067731
Cl262	Cl	0.495944	-0.502904	0.423117
Cl263	Cl	0.829278	-0.169571	0.756451
Cl264	Cl	1.162611	0.163763	1.089784
Cl265	Cl	0.494631	-0.250710	0.496597
Cl266	Cl	0.827965	0.082623	0.829931
Cl267	Cl	1.161298	0.415957	1.163264
Cl268	Cl	0.646622	-0.395227	0.537858
Cl269	Cl	0.979955	-0.061893	0.871191
Cl270	Cl	1.313288	0.271440	1.204524
Cl271	Cl	1.033333	-0.931044	0.537891
Cl272	Cl	1.366667	-0.597711	0.871225
Cl273	Cl	1.700000	-0.264377	1.204558
Cl274	Cl	0.960241	-0.929998	0.270105
Cl275	Cl	1.293575	-0.596664	0.603439
Cl276	Cl	1.626908	-0.263331	0.936772
Cl277	Cl	1.177255	-0.249772	1.098380
Cl278	Cl	1.510588	0.083561	1.431713
Cl279	Cl	1.843921	0.416895	1.765047
H280	H	0.507675	-0.378894	0.509936
H281	H	0.841008	-0.045561	0.843269
H282	H	1.174342	0.287773	1.176603
Cl283	Cl	1.214244	-0.930277	0.333497
Cl284	Cl	1.547577	-0.596944	0.666830
Cl285	Cl	1.880910	-0.263611	1.000163
