data_functionalizedCrystal
_audit_creation_method	'MofGen! by Chris Wilmer'
_symmetry_space_group_name_H-M	'P1'
_symmetry_Int_Tables_number	1
_symmetry_cell_setting	triclinic
loop_
_symmetry_equiv_pos_as_xyz
  x,y,z
_cell_length_a	17.077404
_cell_length_b	18.215405
_cell_length_c	18.215399
_cell_angle_alpha	90.029950
_cell_angle_beta	90.015445
_cell_angle_gamma	90.020702
loop_
_atom_site_label
_atom_site_type_symbol
_atom_site_fract_x
_atom_site_fract_y
_atom_site_fract_z
Zn1	Zn	1.200033	-0.293014	0.416091
Zn2	Zn	1.533366	0.040319	0.749424
Zn3	Zn	1.866700	0.373652	1.082758
Zn4	Zn	1.199947	-0.416091	0.293025
Zn5	Zn	1.533280	-0.082757	0.626359
Zn6	Zn	1.866614	0.250576	0.959692
Zn7	Zn	1.068771	-0.293038	0.293041
Zn8	Zn	1.402105	0.040295	0.626375
Zn9	Zn	1.735438	0.373629	0.959708
Zn10	Zn	1.068733	-0.416039	0.416053
Zn11	Zn	1.402066	-0.082706	0.749387
Zn12	Zn	1.735400	0.250628	1.082720
O13	O	1.134371	-0.354546	0.354553
O14	O	1.467704	-0.021212	0.687886
O15	O	1.801038	0.312121	1.021219
O16	O	1.309868	-0.309352	0.399775
O17	O	1.643202	0.023981	0.733108
O18	O	1.976535	0.357315	1.066442
O19	O	1.182526	-0.399799	0.190043
O20	O	1.515860	-0.066466	0.523377
O21	O	1.849193	0.266868	0.856710
O22	O	1.086235	-0.190051	0.309386
O23	O	1.419569	0.143283	0.642720
O24	O	1.752902	0.476616	0.976053
O25	O	1.309805	-0.399776	0.309359
O26	O	1.643139	-0.066442	0.642693
O27	O	1.976472	0.266891	0.976026
O28	O	1.182673	-0.190033	0.399790
O29	O	1.516006	0.143300	0.733124
O30	O	1.849339	0.476634	1.066457
O31	O	1.086152	-0.309393	0.190055
O32	O	1.419486	0.023940	0.523388
O33	O	1.752819	0.357274	0.856721
O34	O	0.958919	-0.309343	0.309350
O35	O	1.292253	0.023990	0.642683
O36	O	1.625586	0.357324	0.976017
O37	O	1.086170	-0.399688	0.519043
O38	O	1.419503	-0.066355	0.852376
O39	O	1.752837	0.266979	1.185709
O40	O	0.958891	-0.399711	0.399726
O41	O	1.292225	-0.066378	0.733060
O42	O	1.625558	0.266955	1.066393
O43	O	1.182636	-0.309302	0.519070
O44	O	1.515969	0.024031	0.852404
O45	O	1.849302	0.357364	1.185737
O46	O	1.182489	-0.519068	0.309323
O47	O	1.515823	-0.185735	0.642656
O48	O	1.849156	0.147599	0.975990
O49	O	1.086087	-0.519030	0.399711
O50	O	1.419420	-0.185697	0.733044
O51	O	1.752753	0.147636	1.066378
C52	C	0.930423	-0.354525	0.354536
C53	C	1.263757	-0.021191	0.687870
C54	C	1.597090	0.312142	1.021203
C55	C	0.843173	-0.354533	0.354547
C56	C	1.176507	-0.021200	0.687880
C57	C	1.509840	0.312133	1.021213
C58	C	0.802217	-0.307534	0.401698
C59	C	1.135550	0.025800	0.735031
C60	C	1.468883	0.359133	1.068365
C61	C	0.720236	-0.307538	0.401701
C62	C	1.053570	0.025795	0.735035
C63	C	1.386903	0.359128	1.068368
C64	C	0.679214	-0.354547	0.354557
C65	C	1.012547	-0.021214	0.687890
C66	C	1.345881	0.312119	1.021223
C67	C	0.720176	-0.401549	0.307400
C68	C	1.053510	-0.068216	0.640733
C69	C	1.386843	0.265117	0.974067
C70	C	0.802155	-0.401540	0.307394
C71	C	1.135489	-0.068207	0.640727
C72	C	1.468822	0.265126	0.974060
C73	C	0.549306	-0.401566	0.307418
C74	C	0.882640	-0.068233	0.640752
C75	C	1.215973	0.265101	0.974085
C76	C	0.467322	-0.401576	0.307426
C77	C	0.800655	-0.068243	0.640759
C78	C	1.133988	0.265091	0.974092
C79	C	0.467387	-0.307564	0.401726
C80	C	0.800721	0.025769	0.735059
C81	C	1.134054	0.359103	1.068393
C82	C	0.549366	-0.307555	0.401720
C83	C	0.882700	0.025778	0.735053
C84	C	1.216033	0.359112	1.068386
C85	C	0.590323	-0.354558	0.354564
C86	C	0.923656	-0.021225	0.687897
C87	C	1.256990	0.312109	1.021230
C88	C	1.134296	-0.545752	0.354527
C89	C	1.467629	-0.212418	0.687861
C90	C	1.800962	0.120915	1.021194
C91	C	1.134335	-0.627551	0.354541
C92	C	1.467669	-0.294217	0.687874
C93	C	1.801002	0.039116	1.021208
C94	C	1.184574	-0.815674	0.401678
C95	C	1.517908	-0.482341	0.735012
C96	C	1.851241	-0.149008	1.068345
C97	C	1.184603	-0.892533	0.401692
C98	C	1.517936	-0.559200	0.735025
C99	C	1.851269	-0.225866	1.068359
C100	C	1.084265	-0.892665	0.307473
C101	C	1.417598	-0.559331	0.640806
C102	C	1.750932	-0.225998	0.974139
C103	C	1.084233	-0.815807	0.307463
C104	C	1.417566	-0.482474	0.640797
C105	C	1.750900	-0.149141	0.974130
C106	C	1.134392	-0.777314	0.354565
C107	C	1.467726	-0.443981	0.687898
C108	C	1.801059	-0.110647	1.021232
C109	C	1.134453	-0.931030	0.354588
C110	C	1.467786	-0.597697	0.687922
C111	C	1.801119	-0.264364	1.021255
C112	C	1.134483	-1.014364	0.354603
C113	C	1.467816	-0.681031	0.687936
C114	C	1.801150	-0.347697	1.021269
C115	C	1.134361	-0.693975	0.354551
C116	C	1.467694	-0.360642	0.687885
C117	C	1.801028	-0.027309	1.021218
C118	C	1.339115	-0.354567	0.354570
C119	C	1.672449	-0.021234	0.687903
C120	C	2.005782	0.312100	1.021236
C121	C	1.426365	-0.354576	0.354577
C122	C	1.759698	-0.021243	0.687910
C123	C	2.093032	0.312091	1.021244
C124	C	1.134408	-0.354487	0.546506
C125	C	1.467741	-0.021153	0.879839
C126	C	1.801075	0.312180	1.213172
C127	C	1.134424	-0.354462	0.628305
C128	C	1.467757	-0.021128	0.961638
C129	C	1.801091	0.312205	1.294971
C130	C	1.134468	-0.162593	0.354594
C131	C	1.467801	0.170741	0.687928
C132	C	1.801135	0.504074	1.021261
C133	C	1.134509	-0.080794	0.354612
C134	C	1.467843	0.252540	0.687945
C135	C	1.801176	0.585873	1.021279
C136	C	1.134379	-0.354551	0.163346
C137	C	1.467713	-0.021218	0.496680
C138	C	1.801046	0.312116	0.830013
C139	C	1.134516	-0.354369	0.081548
C140	C	1.467849	-0.021035	0.414881
C141	C	1.801182	0.312298	0.748215
C142	C	1.084284	-0.307355	0.816506
C143	C	1.417618	0.025978	1.149839
C144	C	1.750951	0.359311	1.483172
C145	C	1.084298	-0.307341	0.893364
C146	C	1.417631	0.025993	1.226698
C147	C	1.750965	0.359326	1.560031
C148	C	1.184657	-0.401480	0.893342
C149	C	1.517991	-0.068147	1.226675
C150	C	1.851324	0.265187	1.560008
C151	C	1.184639	-0.401498	0.816484
C152	C	1.517973	-0.068165	1.149818
C153	C	1.851306	0.265169	1.483151
C154	C	1.134454	-0.354432	0.778068
C155	C	1.467787	-0.021098	1.111402
C156	C	1.801121	0.312235	1.444735
C157	C	1.134486	-0.354399	0.931784
C158	C	1.467819	-0.021065	1.265118
C159	C	1.801152	0.312268	1.598451
C160	C	1.134501	-0.354383	1.015118
C161	C	1.467834	-0.021050	1.348451
C162	C	1.801167	0.312284	1.681785
C163	C	1.134437	-0.354448	0.694729
C164	C	1.467771	-0.021115	1.028063
C165	C	1.801104	0.312219	1.361396
H166	H	0.582651	-0.439839	0.269017
H167	H	0.915984	-0.106506	0.602351
H168	H	1.249317	0.226828	0.935684
H169	H	1.043365	-0.784572	0.269098
H170	H	1.376698	-0.451239	0.602431
H171	H	1.710032	-0.117906	0.935764
O172	O	0.680415	-0.447317	0.261640
O173	O	1.013748	-0.113983	0.594974
O174	O	1.347082	0.219350	0.928307
C175	C	0.655250	-0.572462	0.225730
C176	C	0.988584	-0.239128	0.559064
C177	C	1.321917	0.094205	0.892397
C178	C	0.700340	-0.520709	0.277585
C179	C	1.033674	-0.187376	0.610919
C180	C	1.367007	0.145958	0.944252
H181	H	0.671331	-0.631811	0.238614
H182	H	1.004664	-0.298477	0.571947
H183	H	1.337997	0.034856	0.905280
H184	H	0.671362	-0.559524	0.166397
H185	H	1.004695	-0.226191	0.499731
H186	H	1.338028	0.107143	0.833064
H187	H	0.589626	-0.564359	0.233824
H188	H	0.922960	-0.231025	0.567158
H189	H	1.256293	0.102308	0.900491
H190	H	0.765974	-0.528783	0.269557
H191	H	1.099308	-0.195450	0.602891
H192	H	1.432641	0.137884	0.936224
H193	H	0.684164	-0.533660	0.336899
H194	H	1.017497	-0.200326	0.670233
H195	H	1.350830	0.133007	1.003566
O196	O	1.233375	-0.778250	0.447332
O197	O	1.566708	-0.444917	0.780665
O198	O	1.900041	-0.111583	1.113998
C199	C	1.339283	-0.691365	0.457328
C200	C	1.672616	-0.358031	0.790661
C201	C	2.005949	-0.024698	1.123994
C202	C	1.284079	-0.733711	0.405537
C203	C	1.617412	-0.400378	0.738870
C204	C	1.950746	-0.067044	1.072204
H205	H	1.380280	-0.655333	0.423559
H206	H	1.713613	-0.322000	0.756892
H207	H	2.046947	0.011333	1.090225
H208	H	1.375208	-0.731956	0.490991
H209	H	1.708542	-0.398622	0.824324
H210	H	2.041875	-0.065289	1.157658
H211	H	1.303183	-0.655416	0.495786
H212	H	1.636516	-0.322083	0.829119
H213	H	1.969849	0.011251	1.162453
H214	H	1.320118	-0.769661	0.367034
H215	H	1.653452	-0.436328	0.700368
H216	H	1.986785	-0.102994	1.033701
H217	H	1.248150	-0.693080	0.371926
H218	H	1.581484	-0.359747	0.705259
H219	H	1.914817	-0.026414	1.038592
O220	O	1.233265	-0.447309	0.779109
O221	O	1.566599	-0.113976	1.112442
O222	O	1.899932	0.219358	1.445775
C223	C	1.243753	-0.546658	0.692270
C224	C	1.577086	-0.213325	1.025603
C225	C	1.910419	0.120009	1.358936
C226	C	1.188601	-0.494836	0.734565
C227	C	1.521935	-0.161502	1.067898
C228	C	1.855268	0.171831	1.401231
H229	H	1.207665	-0.585086	0.656234
H230	H	1.540998	-0.251753	0.989567
H231	H	1.874332	0.081580	1.322901
H232	H	1.279615	-0.580345	0.732894
H233	H	1.612948	-0.247011	1.066228
H234	H	1.946282	0.086322	1.399561
H235	H	1.284819	-0.512866	0.656330
H236	H	1.618152	-0.179533	0.989663
H237	H	1.951486	0.153800	1.322996
H238	H	1.147488	-0.528571	0.770506
H239	H	1.480821	-0.195237	1.103839
H240	H	1.814154	0.138096	1.437172
H241	H	1.152794	-0.461147	0.693900
H242	H	1.486127	-0.127814	1.027234
H243	H	1.819461	0.205520	1.360567
H244	H	1.043420	-0.269031	0.785230
H245	H	1.376753	0.064302	1.118563
H246	H	1.710087	0.397636	1.451896
H247	H	1.225517	-0.439800	0.924629
H248	H	1.558850	-0.106466	1.257963
H249	H	1.892184	0.226867	1.591296
H250	H	1.043444	-0.269007	0.924657
H251	H	1.376778	0.064326	1.257990
H252	H	1.710111	0.397660	1.591323
H253	H	0.835501	-0.439812	0.268998
H254	H	1.168834	-0.106479	0.602331
H255	H	1.502168	0.226855	0.935664
H256	H	1.043429	-0.924015	0.269123
H257	H	1.376762	-0.590682	0.602456
H258	H	1.710095	-0.257348	0.935790
H259	H	0.835611	-0.269255	0.440091
H260	H	1.168945	0.064078	0.773424
H261	H	1.502278	0.397411	1.106757
H262	H	0.686893	-0.269268	0.440098
H263	H	1.020227	0.064066	0.773431
H264	H	1.353560	0.397399	1.106765
O265	O	0.427554	-0.447338	0.261664
O266	O	0.760888	-0.114004	0.594998
O267	O	1.094221	0.219329	0.928331
C268	C	0.402372	-0.572475	0.225741
C269	C	0.735705	-0.239142	0.559074
C270	C	1.069039	0.094191	0.892407
C271	C	0.447473	-0.520734	0.277599
C272	C	0.780806	-0.187401	0.610932
C273	C	1.114140	0.145933	0.944265
H274	H	0.418447	-0.631828	0.238615
H275	H	0.751780	-0.298494	0.571949
H276	H	1.085114	0.034839	0.905282
H277	H	0.418479	-0.559532	0.166408
H278	H	0.751812	-0.226198	0.499741
H279	H	1.085146	0.107135	0.833075
H280	H	0.336750	-0.564367	0.233841
H281	H	0.670083	-0.231034	0.567175
H282	H	1.003416	0.102299	0.900508
H283	H	0.513105	-0.528813	0.269563
H284	H	0.846439	-0.195480	0.602897
H285	H	1.179772	0.137854	0.936230
H286	H	0.431301	-0.533690	0.336912
H287	H	0.764634	-0.200357	0.670245
H288	H	1.097967	0.132976	1.003579
H289	H	0.582765	-0.269280	0.440113
H290	H	0.916098	0.064053	0.773447
H291	H	1.249431	0.397386	1.106780
H292	H	1.225464	-0.923763	0.440058
H293	H	1.558798	-0.590429	0.773391
H294	H	1.892131	-0.257096	1.106725
O295	O	0.427485	-0.261927	0.447464
O296	O	0.760819	0.071406	0.780798
O297	O	1.094152	0.404739	1.114131
C298	C	0.301221	-0.220308	0.489305
C299	C	0.634554	0.113025	0.822638
C300	C	0.967888	0.446358	1.155971
C301	C	0.346316	-0.272009	0.437455
C302	C	0.679649	0.061325	0.770788
C303	C	1.012983	0.394658	1.104122
H304	H	0.235588	-0.228452	0.481241
H305	H	0.568921	0.104881	0.814574
H306	H	0.902254	0.438215	1.147908
H307	H	0.317293	-0.160931	0.476491
H308	H	0.650626	0.172402	0.809824
H309	H	0.983960	0.505735	1.143158
H310	H	0.317406	-0.233304	0.548612
H311	H	0.650739	0.100030	0.881945
H312	H	0.984073	0.433363	1.215279
H313	H	0.330155	-0.259080	0.378130
H314	H	0.663488	0.074254	0.711463
H315	H	0.996822	0.407587	1.044797
H316	H	0.330240	-0.331370	0.450332
H317	H	0.663573	0.001963	0.783665
H318	H	0.996907	0.335297	1.116998
