data_functionalizedCrystal
_audit_creation_method	'MofGen! by Chris Wilmer'
_symmetry_space_group_name_H-M	'P1'
_symmetry_Int_Tables_number	1
_symmetry_cell_setting	triclinic
loop_
_symmetry_equiv_pos_as_xyz
  x,y,z
_cell_length_a	13.635800
_cell_length_b	23.753023
_cell_length_c	19.551823
_cell_angle_alpha	83.257133
_cell_angle_beta	101.663376
_cell_angle_gamma	79.932472
loop_
_atom_site_label
_atom_site_type_symbol
_atom_site_fract_x
_atom_site_fract_y
_atom_site_fract_z
V1	V	1.989831	-0.178658	0.097559
O2	O	1.988686	-0.174982	-0.003780
O3	O	1.961279	-0.177701	0.192569
O4	O	1.957401	-0.256456	0.096456
O5	O	1.992591	-0.095681	0.092998
V6	V	2.233276	-0.168701	0.085390
O7	O	2.116769	-0.200499	0.124251
O8	O	2.331437	-0.146860	0.058698
O9	O	2.150225	-0.169658	-0.009620
O10	O	2.293120	-0.172377	0.186729
O11	O	2.289214	-0.251678	0.089951
O12	O	2.154103	-0.090903	0.086492
V13	V	2.489831	-0.178658	0.097559
O14	O	2.488686	-0.174982	-0.003780
O15	O	2.461279	-0.177701	0.192569
O16	O	2.457401	-0.256456	0.096456
O17	O	2.492591	-0.095681	0.092998
V18	V	2.733276	-0.168701	0.085390
O19	O	2.616769	-0.200499	0.124251
O20	O	2.831437	-0.146860	0.058698
O21	O	2.650225	-0.169658	-0.009620
O22	O	2.793120	-0.172377	0.186729
O23	O	2.789214	-0.251678	0.089951
O24	O	2.654103	-0.090903	0.086492
C25	C	1.878039	-0.275410	0.093116
C26	C	1.892136	-0.339013	0.092843
C27	C	1.995912	-0.741776	0.155266
C28	C	2.009175	-0.801539	0.155021
O29	O	2.029878	-0.839549	0.209348
N30	N	1.999564	-0.823079	0.090868
C31	C	1.976699	-0.784853	0.026956
O32	O	1.969743	-0.808663	-0.027634
C33	C	1.963444	-0.725092	0.027202
C34	C	1.973046	-0.703555	0.091359
C35	C	2.005514	-0.720238	0.219418
C36	C	1.992251	-0.660479	0.219663
C37	C	1.969385	-0.622258	0.155756
C38	C	1.959782	-0.643796	0.091604
C39	C	1.940586	-0.686868	-0.036709
C40	C	1.927332	-0.627103	-0.036457
C41	C	1.936935	-0.605566	0.027700
C42	C	1.923653	-0.545816	0.027942
N43	N	1.933264	-0.524276	0.092095
C44	C	1.956130	-0.562497	0.156002
C45	C	2.004538	-0.910357	0.026444
C46	C	2.017786	-0.970117	0.026196
C47	C	2.050263	-0.986798	0.154262
C48	C	2.037008	-0.927037	0.154508
C49	C	2.014149	-0.888816	0.090597
C50	C	1.928273	-0.436998	0.156511
C51	C	1.915002	-0.377234	0.156750
C52	C	1.882532	-0.360558	0.028685
C53	C	1.895796	-0.420317	0.028446
C54	C	1.918671	-0.458537	0.092365
O55	O	1.902953	-0.507772	-0.026357
O56	O	1.963095	-0.538679	0.210583
C57	C	1.882987	-0.174951	0.215718
C58	C	1.900231	-0.174687	0.293393
C59	C	2.060188	-0.172407	-0.032766
C60	C	2.032563	-0.172675	-0.110440
C61	C	2.065136	-0.071946	0.089835
C62	C	2.040658	-0.008343	0.090104
C63	C	2.382987	-0.174951	0.215718
C64	C	2.400231	-0.174687	0.293393
C65	C	1.998912	-0.177424	0.333452
C66	C	2.015116	-0.177182	0.406437
C67	C	1.932630	-0.174191	0.439357
C68	C	1.833936	-0.171457	0.399290
C69	C	1.817736	-0.171705	0.326307
C70	C	1.879854	-0.137910	0.545666
C71	C	1.896056	-0.137658	0.618646
C72	C	1.982591	-0.173428	0.664460
C73	C	2.052938	-0.209442	0.637283
C74	C	2.036738	-0.209690	0.564300
C75	C	1.950185	-0.173922	0.518494
C76	C	2.098849	-0.175904	0.783658
C77	C	2.115051	-0.175665	0.856645
C78	C	1.933866	-0.169934	0.849495
C79	C	1.917669	-0.170178	0.776510
C80	C	2.000164	-0.173161	0.743596
C81	C	2.498923	-0.177431	0.333447
C82	C	2.515142	-0.177192	0.406433
C83	C	2.432665	-0.174204	0.439362
C84	C	2.333965	-0.171461	0.399304
C85	C	2.317749	-0.171705	0.326320
C86	C	2.378039	-0.275410	0.093116
C87	C	2.392136	-0.339013	0.092843
C88	C	2.560188	-0.172407	-0.032766
C89	C	2.532563	-0.172675	-0.110440
C90	C	2.565136	-0.071946	0.089835
C91	C	2.540658	-0.008343	0.090104
C92	C	2.489347	-0.371807	0.096213
C93	C	2.502604	-0.431567	0.095948
C94	C	2.418651	-0.458532	0.092318
C95	C	2.321433	-0.425734	0.088945
C96	C	2.308175	-0.365974	0.089205
C97	C	2.606364	-0.169932	-0.150493
C98	C	2.580417	-0.170174	-0.223479
C99	C	2.480670	-0.173163	-0.256408
C100	C	2.406863	-0.175904	-0.216350
C101	C	2.432809	-0.175658	-0.143367
C102	C	2.442380	0.018607	0.093727
C103	C	2.419363	0.078370	0.093971
C104	C	2.494629	0.111179	0.090598
C105	C	2.592915	0.084225	0.086973
C106	C	2.615928	0.024464	0.086724
H107	H	1.922821	-0.359702	0.208997
H108	H	2.654189	0.110948	0.084225
C109	C	2.452142	-0.173427	-0.336695
N110	N	2.430660	-0.173623	-0.397167
C111	C	2.047583	-0.903352	0.225085
N112	N	2.055554	-0.885517	0.278248
C113	C	2.297143	-0.179192	-0.252584
N114	N	2.214503	-0.181671	-0.279878
C115	C	2.724048	-0.005175	0.082745
N116	N	2.805487	-0.027497	0.079747
C117	C	2.351616	-0.178684	-0.099314
N118	N	2.290455	-0.180964	-0.066136
C119	C	2.201235	-0.329908	0.085511
N120	N	2.120684	-0.302746	0.082730
H121	H	1.866705	-0.167502	0.876298
C122	C	2.589666	-0.180723	0.297239
N123	N	2.658021	-0.183206	0.269973
C124	C	1.809108	-0.167158	0.732442
N125	N	1.727336	-0.164883	0.699249
H126	H	1.737377	-0.169476	0.293691
H127	H	2.009951	-0.987646	-0.026047
H128	H	1.946897	-0.468111	0.208560
C129	C	1.818695	-0.098024	0.648531
N130	N	1.760430	-0.068165	0.671038
C131	C	2.716093	-0.166639	-0.114286
N132	N	2.798742	-0.164154	-0.087020
C133	C	2.359567	-0.017472	0.097432
N134	N	2.297183	-0.044643	0.100219
C135	C	2.311247	0.108006	0.097971
N136	N	2.229815	0.130327	0.100987
H137	H	2.475880	0.159839	0.090810
H138	H	2.595514	-0.179424	0.439039
C139	C	2.243247	-0.168165	0.435536
N140	N	2.174917	-0.165675	0.462827
H141	H	2.237381	-0.169467	0.293712
H142	H	2.000077	-0.642950	0.271906
C143	C	2.433252	-0.524271	0.092032
N144	N	2.444256	-0.573786	0.091819
H145	H	2.068884	-1.017929	0.206299
C146	C	2.030651	-0.762273	0.289727
N147	N	2.049571	-0.793929	0.342687
H148	H	2.445884	-0.174006	0.498791
C149	C	2.229073	-0.455395	0.084874
N150	N	2.159502	-0.477735	0.081783
H151	H	2.581772	-0.458264	0.098697
C152	C	1.979373	-0.868318	-0.043869
N153	N	1.960417	-0.836657	-0.096829
H154	H	1.932756	-0.704392	-0.088953
H155	H	1.887982	-0.437854	-0.023796
C156	C	1.857377	-0.318504	-0.041609
N157	N	1.838437	-0.286827	-0.094555
C158	C	1.902182	-0.585063	-0.106767
N159	N	1.883234	-0.553400	-0.159724
H160	H	1.766776	-0.169023	0.426098
H161	H	2.066088	-0.179856	0.306659
H162	H	2.640527	-0.167942	-0.256084
H163	H	2.095476	-0.179410	0.439059
H164	H	2.094016	-0.239015	0.542176
H165	H	2.123304	-0.238648	0.674594
H166	H	2.166021	-0.178331	0.756857
H167	H	1.809379	-0.108784	0.508370
C168	C	2.581710	-0.342156	0.100202
N169	N	2.651284	-0.319826	0.103201
H170	H	2.195412	-0.177897	0.889261
