data_functionalizedCrystal
_audit_creation_method	'MofGen! by Chris Wilmer'
_symmetry_space_group_name_H-M	'P1'
_symmetry_Int_Tables_number	1
_symmetry_cell_setting	triclinic
loop_
_symmetry_equiv_pos_as_xyz
  x,y,z
_cell_length_a	18.215407
_cell_length_b	25.639239
_cell_length_c	25.639233
_cell_angle_alpha	89.981253
_cell_angle_beta	89.986457
_cell_angle_gamma	90.039134
loop_
_atom_site_label
_atom_site_type_symbol
_atom_site_fract_x
_atom_site_fract_y
_atom_site_fract_z
Zn1	Zn	1.124956	-0.208208	-0.295622
Zn2	Zn	1.624956	0.291792	0.204378
Zn3	Zn	1.124848	-0.295627	-0.208186
Zn4	Zn	1.624848	0.204373	0.291814
Zn5	Zn	1.001902	-0.208208	-0.208199
Zn6	Zn	1.501902	0.291792	0.291801
Zn7	Zn	1.001824	-0.295615	-0.295589
Zn8	Zn	1.501824	0.204385	0.204411
O9	O	1.063382	-0.251915	-0.251899
O10	O	1.563382	0.248085	0.248101
O11	O	1.227926	-0.219809	-0.284032
O12	O	1.727926	0.280191	0.215968
O13	O	1.108526	-0.284036	-0.135023
O14	O	1.608526	0.215964	0.364977
O15	O	1.018303	-0.135043	-0.219815
O16	O	1.518303	0.364957	0.280185
O17	O	1.227846	-0.284036	-0.219793
O18	O	1.727846	0.215964	0.280207
O19	O	1.108710	-0.135043	-0.284044
O20	O	1.608710	0.364957	0.215956
O21	O	1.018198	-0.219809	-0.135032
O22	O	1.518198	0.280191	0.364968
O23	O	0.898907	-0.219798	-0.219783
O24	O	1.398907	0.280202	0.280217
O25	O	1.018171	-0.284015	-0.368759
O26	O	1.518171	0.215985	0.131241
O27	O	0.898850	-0.284015	-0.283989
O28	O	1.398850	0.215985	0.216011
O29	O	1.108635	-0.219798	-0.368783
O30	O	1.608635	0.280202	0.131217
O31	O	1.108451	-0.368791	-0.219761
O32	O	1.608451	0.131209	0.280239
O33	O	1.018066	-0.368782	-0.283976
O34	O	1.518066	0.131218	0.216024
C35	C	0.872176	-0.251906	-0.251884
C36	C	1.372176	0.248094	0.248116
C37	C	0.790377	-0.251914	-0.251890
C38	C	1.290377	0.248086	0.248110
C39	C	0.602173	-0.285405	-0.285280
C40	C	1.102173	0.214595	0.214720
C41	C	0.525314	-0.285407	-0.285286
C42	C	1.025314	0.214593	0.214714
C43	C	0.525344	-0.218434	-0.218530
C44	C	1.025344	0.281566	0.281470
C45	C	0.602201	-0.218430	-0.218526
C46	C	1.102201	0.281570	0.281474
C47	C	0.640614	-0.251918	-0.251901
C48	C	1.140614	0.248082	0.248099
C49	C	0.486898	-0.251924	-0.251911
C50	C	0.986898	0.248076	0.248089
C51	C	0.403564	-0.251925	-0.251917
C52	C	0.903564	0.248075	0.248083
C53	C	0.723953	-0.251916	-0.251895
C54	C	1.223953	0.248084	0.248105
C55	C	1.063259	-0.387757	-0.251875
C56	C	1.563259	0.112243	0.248125
C57	C	1.063273	-0.445871	-0.251883
C58	C	1.563273	0.054129	0.248117
C59	C	1.110569	-0.806226	-0.218520
C60	C	1.610569	-0.306226	0.281480
C61	C	1.110597	-0.860830	-0.218527
C62	C	1.610597	-0.360830	0.281473
O63	O	1.150681	-0.889060	-0.190134
O64	O	1.650681	-0.389060	0.309866
N65	N	1.063512	-0.888154	-0.251934
N66	N	1.563512	-0.388154	0.248066
C67	C	1.016400	-0.860870	-0.285340
C68	C	1.516400	-0.360870	0.214660
O69	O	0.976353	-0.889124	-0.313757
O70	O	1.476353	-0.389124	0.186243
C71	C	1.016376	-0.806266	-0.285335
C72	C	1.516376	-0.306266	0.214665
C73	C	1.063459	-0.778946	-0.251922
C74	C	1.563459	-0.278946	0.248078
C75	C	1.157649	-0.778906	-0.185110
C76	C	1.657649	-0.278906	0.314890
C77	C	1.157619	-0.724305	-0.185102
C78	C	1.657619	-0.224305	0.314898
C79	C	1.110509	-0.697025	-0.218505
C80	C	1.610509	-0.197025	0.281495
C81	C	1.063429	-0.724345	-0.251915
C82	C	1.563429	-0.224345	0.248085
C83	C	0.969268	-0.778983	-0.318744
C84	C	1.469268	-0.278983	0.181256
C85	C	0.969249	-0.724376	-0.318736
C86	C	1.469249	-0.224376	0.181264
C87	C	1.016332	-0.697056	-0.285323
C88	C	1.516332	-0.197056	0.214677
C89	C	1.016290	-0.642465	-0.285310
C90	C	1.516290	-0.142465	0.214690
N91	N	1.063375	-0.615142	-0.251902
N92	N	1.563375	-0.115142	0.248098
C93	C	1.110485	-0.642422	-0.218500
C94	C	1.610485	-0.142422	0.281500
C95	C	1.016456	-0.975540	-0.285348
C96	C	1.516456	-0.475540	0.214652
C97	C	1.016476	-1.030142	-0.285351
C98	C	1.516476	-0.530142	0.214649
C99	C	1.110674	-1.030100	-0.218538
C100	C	1.610674	-0.530100	0.281462
C101	C	1.110649	-0.975496	-0.218533
C102	C	1.610649	-0.475496	0.281467
C103	C	1.063541	-0.948217	-0.251941
C104	C	1.563541	-0.448217	0.248059
C105	C	1.110419	-0.527757	-0.218486
C106	C	1.610419	-0.027757	0.281514
C107	C	1.110383	-0.473151	-0.218480
C108	C	1.610383	0.026849	0.281520
C109	C	1.016188	-0.473199	-0.285295
C110	C	1.516188	0.026801	0.214705
C111	C	1.016220	-0.527800	-0.285299
C112	C	1.516220	-0.027800	0.214701
C113	C	1.063342	-0.555077	-0.251893
C114	C	1.563342	-0.055077	0.248107
O115	O	0.976229	-0.614200	-0.313689
O116	O	1.476229	-0.114200	0.186311
O117	O	1.150532	-0.614161	-0.190093
O118	O	1.650532	-0.114161	0.309907
C119	C	1.255335	-0.251924	-0.251915
C120	C	1.755335	0.248076	0.248085
C121	C	1.337134	-0.251928	-0.251921
C122	C	1.837134	0.248072	0.248079
C123	C	1.063406	-0.251905	-0.388272
C124	C	1.563406	0.248095	0.111728
C125	C	1.063416	-0.251901	-0.446386
C126	C	1.563416	0.248099	0.053614
C127	C	1.063527	-0.115542	-0.251935
C128	C	1.563527	0.384458	0.248065
C129	C	1.063588	-0.057427	-0.251950
C130	C	1.563588	0.442573	0.248050
C131	C	1.110581	-0.218364	-0.806768
C132	C	1.610581	0.281636	-0.306768
C133	C	1.110590	-0.218350	-0.861372
C134	C	1.610590	0.281650	-0.361372
O135	O	1.150631	-0.189897	-0.889624
O136	O	1.650631	0.310103	-0.389624
N137	N	1.063497	-0.251779	-0.888669
N138	N	1.563497	0.248221	-0.388669
C139	C	1.016388	-0.285221	-0.861359
C140	C	1.516388	0.214779	-0.361359
O141	O	0.976332	-0.313654	-0.889591
O142	O	1.476332	0.186346	-0.389591
C143	C	1.016375	-0.285232	-0.806756
C144	C	1.516375	0.214768	-0.306756
C145	C	1.063476	-0.251805	-0.779461
C146	C	1.563476	0.248195	-0.279461
C147	C	1.157677	-0.184939	-0.779473
C148	C	1.657677	0.315061	-0.279473
C149	C	1.157668	-0.184954	-0.724873
C150	C	1.657668	0.315046	-0.224873
C151	C	1.110564	-0.218395	-0.697567
C152	C	1.610564	0.281605	-0.197567
C153	C	1.063468	-0.251820	-0.724861
C154	C	1.563468	0.248180	-0.224861
C155	C	0.969263	-0.318672	-0.779446
C156	C	1.469263	0.181328	-0.279446
C157	C	0.969254	-0.318680	-0.724839
C158	C	1.469254	0.181320	-0.224839
C159	C	1.016355	-0.285252	-0.697545
C160	C	1.516355	0.214748	-0.197545
C161	C	1.016355	-0.285276	-0.642954
C162	C	1.516355	0.214724	-0.142954
N163	N	1.063447	-0.251847	-0.615657
N164	N	1.563447	0.248153	-0.115657
C165	C	1.110552	-0.218406	-0.642963
C166	C	1.610552	0.281594	-0.142963
C167	C	1.016416	-0.285194	-0.976030
C168	C	1.516416	0.214806	-0.476030
C169	C	1.016432	-0.285185	-1.030632
C170	C	1.516432	0.214815	-0.530632
C171	C	1.110633	-0.218313	-1.030641
C172	C	1.610633	0.281687	-0.530641
C173	C	1.110620	-0.218325	-0.976038
C174	C	1.610620	0.281675	-0.476038
C175	C	1.063508	-0.251765	-0.948733
C176	C	1.563508	0.248235	-0.448733
C177	C	1.110531	-0.218441	-0.528298
C178	C	1.610531	0.281559	-0.028298
C179	C	1.110521	-0.218461	-0.473693
C180	C	1.610521	0.281539	0.026307
C181	C	1.016317	-0.285331	-0.473688
C182	C	1.516317	0.214669	0.026312
C183	C	1.016330	-0.285313	-0.528289
C184	C	1.516330	0.214687	-0.028289
C185	C	1.063439	-0.251864	-0.555592
C186	C	1.563439	0.248136	-0.055592
O187	O	0.976332	-0.313713	-0.614667
O188	O	1.476332	0.186287	-0.114667
O189	O	1.150593	-0.189973	-0.614724
O190	O	1.650593	0.310027	-0.114724
C191	C	1.063401	-0.251886	-0.116057
C192	C	1.563401	0.248114	0.383943
C193	C	1.063534	-0.251743	-0.057943
C194	C	1.563534	0.248257	0.442057
H195	H	0.494019	-0.312674	-0.312468
H196	H	0.994019	0.187326	0.187532
H197	H	1.148791	-0.549960	-0.191285
H198	H	1.648791	-0.049960	0.308715
F199	F	0.966205	-0.320894	-0.557338
F200	F	1.466205	0.179106	-0.057338
H201	H	1.148986	-0.191083	-1.052884
H202	H	1.648986	0.308917	-0.552884
H203	H	0.494059	-0.191169	-0.191357
H204	H	0.994059	0.308831	0.308643
H205	H	1.149036	-1.052321	-0.191341
H206	H	1.649036	-0.552321	0.308659
H207	H	1.148723	-0.450909	-0.191269
H208	H	1.648723	0.049091	0.308731
H209	H	0.978129	-1.052382	-0.312554
H210	H	1.478129	-0.552382	0.187446
F211	F	0.966311	-0.320771	-1.059675
F212	F	1.466311	0.179229	-0.559675
F213	F	1.207740	-0.695236	-0.149545
F214	F	1.707740	-0.195236	0.350455
F215	F	0.643052	-0.321045	-0.320801
F216	F	1.143052	0.178955	0.179199
H217	H	0.978088	-0.953332	-0.312551
H218	H	1.478088	-0.453332	0.187449
H219	H	0.930908	-0.345892	-0.801660
H220	H	1.430908	0.154108	-0.301660
H221	H	0.930881	-0.345906	-0.702610
H222	H	1.430881	0.154094	-0.202610
H223	H	0.977968	-0.312559	-0.451445
H224	H	1.477968	0.187441	0.048555
H225	H	1.196035	-0.157704	-0.801700
H226	H	1.696035	0.342296	-0.301700
F227	F	1.207795	-0.807931	-0.149556
F228	F	1.707795	-0.307931	0.350444
H229	H	0.633501	-0.191158	-0.191345
H230	H	1.133501	0.308842	0.308655
F231	F	0.966274	-0.320791	-0.946974
F232	F	1.466274	0.179209	-0.446974
H233	H	1.148989	-0.953255	-0.191325
H234	H	1.648989	-0.453255	0.308675
H235	H	0.930925	-0.801218	-0.345950
H236	H	1.430925	-0.301218	0.154050
F237	F	0.919109	-0.695347	-0.354296
F238	F	1.419109	-0.195347	0.145704
F239	F	0.966096	-0.556877	-0.320851
F240	F	1.466096	-0.056877	0.179149
F241	F	0.966055	-0.444156	-0.320844
F242	F	1.466055	0.055844	0.179156
H243	H	1.148878	-0.191239	-0.451472
H244	H	1.648878	0.308761	0.048528
H245	H	1.148890	-0.191202	-0.550522
H246	H	1.648890	0.308798	-0.050522
H247	H	1.196021	-0.157733	-0.702655
H248	H	1.696021	0.342267	-0.202655
F249	F	1.160750	-0.182746	-0.946994
F250	F	1.660750	0.317254	-0.446994
