data_functionalizedCrystal
_audit_creation_method	'MofGen! by Chris Wilmer'
_symmetry_space_group_name_H-M	'P1'
_symmetry_Int_Tables_number	1
_symmetry_cell_setting	triclinic
loop_
_symmetry_equiv_pos_as_xyz
  x,y,z
_cell_length_a	21.395362
_cell_length_b	11.169416
_cell_length_c	21.395356
_cell_angle_alpha	89.979903
_cell_angle_beta	89.957023
_cell_angle_gamma	90.026221
loop_
_atom_site_label
_atom_site_type_symbol
_atom_site_fract_x
_atom_site_fract_y
_atom_site_fract_z
Zn1	Zn	0.957942	-0.477329	-0.354619
Zn2	Zn	0.957884	-0.678032	-0.249855
Zn3	Zn	0.853159	-0.477417	-0.249820
Zn4	Zn	0.853164	-0.678024	-0.354560
O5	O	0.905537	-0.577700	-0.302213
O6	O	1.045612	-0.503919	-0.340761
O7	O	0.943965	-0.651459	-0.162172
O8	O	0.867081	-0.309455	-0.263732
O9	O	1.045569	-0.651374	-0.263792
O10	O	0.944065	-0.309391	-0.340727
O11	O	0.867024	-0.504069	-0.162147
O12	O	0.765482	-0.504061	-0.263675
O13	O	0.867089	-0.651362	-0.442246
O14	O	0.765485	-0.651447	-0.340626
O15	O	0.944070	-0.503911	-0.442289
O16	O	0.943970	-0.845980	-0.263734
O17	O	0.867032	-0.845975	-0.340661
C18	C	0.742749	-0.577764	-0.302141
C19	C	0.673108	-0.577820	-0.302124
C20	C	0.905512	-0.889525	-0.302209
C21	C	0.905559	-1.022925	-0.302228
C22	C	0.640413	-0.654665	-0.342133
C23	C	0.574978	-0.654636	-0.342161
C24	C	0.542240	-0.577774	-0.302169
C25	C	0.574943	-0.500913	-0.262157
C26	C	0.640377	-0.500937	-0.262135
C27	C	0.438514	-0.568122	-0.245763
C28	C	0.373081	-0.568108	-0.245784
C29	C	0.340419	-0.577695	-0.302238
C30	C	0.373198	-0.587323	-0.358673
C31	C	0.438632	-0.587346	-0.358650
C32	C	0.471287	-0.577739	-0.302189
C33	C	0.236772	-0.654513	-0.342281
C34	C	0.171335	-0.654475	-0.342310
C35	C	0.171301	-0.500759	-0.262300
C36	C	0.236737	-0.500790	-0.262277
C37	C	0.269468	-0.577674	-0.302266
C38	C	1.068960	-0.577637	-0.302287
C39	C	1.138602	-0.577611	-0.302318
C40	C	0.905586	-0.577626	-0.465637
C41	C	0.905607	-0.577594	-0.535278
C42	C	0.905579	-0.264658	-0.302232
C43	C	0.905597	-0.131258	-0.302240
C44	C	0.865555	-0.500839	-0.567968
C45	C	0.865553	-0.500817	-0.633403
C46	C	0.905614	-0.577537	-0.666146
C47	C	0.945669	-0.654307	-0.633449
C48	C	0.945666	-0.654336	-0.568014
C49	C	0.962068	-0.586943	-0.769852
C50	C	0.962073	-0.586906	-0.835285
C51	C	0.905625	-0.577456	-0.867967
C52	C	0.849170	-0.568018	-0.835208
C53	C	0.849167	-0.568046	-0.769774
C54	C	0.905622	-0.577515	-0.737099
C55	C	0.865566	-0.500673	-0.971610
C56	C	0.865563	-0.500659	-1.037046
C57	C	0.945686	-0.654143	-1.037090
C58	C	0.945683	-0.654163	-0.971655
C59	C	0.905624	-0.577422	-0.938919
C60	C	0.905524	-0.577688	-0.139426
C61	C	0.905624	-0.577381	-0.069785
H62	H	0.667059	-0.717268	-0.374697
O63	O	0.139670	-0.729242	-0.381196
C64	C	0.146612	-0.881679	-0.460565
C65	C	0.182551	-0.797084	-0.416549
H66	H	0.181266	-0.936533	-0.489169
H67	H	0.115941	-0.944422	-0.431781
H68	H	0.116016	-0.826636	-0.493362
H69	H	0.213181	-0.852029	-0.383743
H70	H	0.213183	-0.734337	-0.445372
H71	H	0.465102	-0.560310	-0.199789
H72	H	0.803200	-0.560364	-0.743104
O73	O	0.794334	-0.559072	-0.866969
C74	C	0.724120	-0.650870	-0.940799
C75	C	0.786229	-0.661159	-0.904857
H76	H	0.717553	-0.733383	-0.971450
H77	H	0.683749	-0.644212	-0.906168
H78	H	0.725099	-0.567339	-0.971420
H79	H	0.785311	-0.744685	-0.874236
H80	H	0.826572	-0.667750	-0.939522
O81	O	0.984507	-0.728842	-0.939869
C82	C	0.992915	-0.890860	-0.865959
C83	C	0.948875	-0.806373	-0.901927
H84	H	0.964125	-0.953548	-0.835264
H85	H	1.021537	-0.945779	-0.900572
H86	H	1.025694	-0.835733	-0.835379
H87	H	0.916058	-0.861408	-0.932508
H88	H	0.920297	-0.751450	-0.867281
O89	O	0.826589	-0.426107	-0.939902
C90	C	0.747139	-0.273837	-0.946763
C91	C	0.791240	-0.358237	-0.982747
H92	H	0.718557	-0.218925	-0.981387
H93	H	0.714330	-0.328914	-0.916118
H94	H	0.775918	-0.211129	-0.916135
H95	H	0.762511	-0.420962	-1.013408
H96	H	0.824051	-0.303086	-1.013352
H97	H	0.144647	-0.438171	-0.229741
H98	H	0.263357	-0.438221	-0.229694
O99	O	0.826581	-0.426273	-1.068828
C100	C	0.742008	-0.410133	-1.142662
C101	C	0.786110	-0.494509	-1.106699
H102	H	0.709285	-0.465266	-1.173300
H103	H	0.713334	-0.355320	-1.108046
H104	H	0.770792	-0.347330	-1.173299
H105	H	0.757375	-0.557385	-1.076062
H106	H	0.814786	-0.549237	-1.141349
O107	O	0.984587	-0.728547	-1.068986
C108	C	1.020086	-0.796556	-1.169811
C109	C	0.976006	-0.712215	-1.133764
H110	H	1.013154	-0.783399	-1.222190
H111	H	1.070621	-0.775450	-1.157025
H112	H	1.009084	-0.893333	-1.156896
H113	H	0.986951	-0.615409	-1.146659
H114	H	0.925484	-0.733425	-1.146552
O115	O	0.543241	-0.426139	-0.223288
C116	C	0.550112	-0.273727	-0.143903
C117	C	0.586090	-0.358336	-0.187900
H118	H	0.584740	-0.218905	-0.115272
H119	H	0.519545	-0.210955	-0.172703
H120	H	0.519408	-0.328757	-0.111130
H121	H	0.616828	-0.303403	-0.220682
H122	H	0.616618	-0.421111	-0.159061
O123	O	1.016962	-0.596135	-0.867008
C124	C	1.128948	-0.614820	-0.860178
C125	C	1.066828	-0.604403	-0.824177
H126	H	1.169281	-0.621483	-0.825564
H127	H	1.128005	-0.698322	-0.890791
H128	H	1.135546	-0.532273	-0.890838
H129	H	1.060191	-0.686887	-0.793482
H130	H	1.067799	-0.520851	-0.793603
H131	H	1.008039	-0.594628	-0.743248
H132	H	0.832934	-0.438355	-0.541318
O133	O	0.984674	-0.728772	-0.665183
C134	C	1.091247	-0.786934	-0.685300
C135	C	1.047146	-0.702539	-0.649313
H136	H	1.141765	-0.765739	-0.672492
H137	H	1.080281	-0.883740	-0.672410
H138	H	1.084340	-0.773748	-0.737680
H139	H	1.054029	-0.715619	-0.596924
H140	H	1.058122	-0.605765	-0.662255
O141	O	0.341340	-0.558694	-0.190914
C142	C	0.348131	-0.539688	-0.078940
C143	C	0.384154	-0.550315	-0.141038
H144	H	0.382730	-0.532936	-0.038598
H145	H	0.317542	-0.456165	-0.079956
H146	H	0.317446	-0.622191	-0.072293
H147	H	0.414873	-0.467875	-0.147724
H148	H	0.414704	-0.633888	-0.139993
H149	H	0.978284	-0.716838	-0.541399
H150	H	0.548352	-0.717212	-0.374744
H151	H	0.666997	-0.438356	-0.229555
O152	O	0.826626	-0.426136	-0.665070
C153	C	0.747140	-0.273939	-0.658126
C154	C	0.791201	-0.358433	-0.622188
H155	H	0.718478	-0.219196	-0.623471
H156	H	0.775892	-0.211086	-0.688766
H157	H	0.714399	-0.329053	-0.688753
H158	H	0.823951	-0.303415	-0.591527
H159	H	0.762410	-0.421289	-0.591588
H160	H	0.346606	-0.595128	-0.404643
O161	O	0.470377	-0.596642	-0.413524
C162	C	0.463596	-0.615754	-0.525494
C163	C	0.427567	-0.605213	-0.463395
H164	H	0.429000	-0.622712	-0.565830
H165	H	0.494247	-0.533223	-0.532209
H166	H	0.494220	-0.699225	-0.524407
H167	H	0.396909	-0.521791	-0.464438
H168	H	0.396956	-0.687804	-0.456704
H169	H	0.263423	-0.717110	-0.374846
