data_functionalizedCrystal
_audit_creation_method	'MofGen! by Chris Wilmer'
_symmetry_space_group_name_H-M	'P1'
_symmetry_Int_Tables_number	1
_symmetry_cell_setting	triclinic
loop_
_symmetry_equiv_pos_as_xyz
  x,y,z
_cell_length_a	10.540539
_cell_length_b	14.044220
_cell_length_c	13.101039
_cell_angle_alpha	86.340132
_cell_angle_beta	93.398267
_cell_angle_gamma	88.857185
loop_
_atom_site_label
_atom_site_type_symbol
_atom_site_fract_x
_atom_site_fract_y
_atom_site_fract_z
O1	O	0.299850	1.264944	-0.085096
O2	O	0.288796	0.988901	-0.085123
O3	O	0.110253	1.133220	-0.085108
O4	O	0.478393	1.120625	-0.085111
O5	O	0.123087	1.122866	0.085321
O6	O	0.301630	0.978547	0.085306
O7	O	0.312683	1.254589	0.085332
Zn8	Zn	0.309194	1.114924	0.112379
Zn9	Zn	0.292285	1.128566	-0.112169
O10	O	0.491226	1.110270	0.085317
C11	C	0.290375	0.948377	0.000088
C12	C	0.275945	0.843054	0.000078
C13	C	0.249565	0.650213	0.000099
C14	C	0.351908	0.593272	0.000102
C15	C	0.337230	0.485969	0.000114
C16	C	0.264241	0.757526	0.000087
C17	C	0.069271	1.127098	0.000105
C18	C	-0.071963	1.124273	0.000099
C19	C	-0.266367	1.016007	-0.000294
C20	C	-0.119430	1.018849	0.000090
C21	C	-0.121162	1.169094	0.097427
C22	C	-0.268064	1.165492	0.097509
C23	C	-0.282960	1.179411	-0.096300
C24	C	-0.135977	1.180460	-0.097587
C25	C	0.532208	1.116392	0.000103
C26	C	0.673442	1.119218	0.000102
C27	C	0.311104	1.295114	0.000119
C28	C	0.325534	1.400437	0.000123
N29	N	0.320734	1.105620	0.265626
N30	N	0.280737	1.137878	-0.265416
C31	C	0.336445	1.092962	0.474667
C32	C	0.265029	1.150533	0.525549
C33	C	0.273771	1.143490	0.641867
C34	C	0.327705	1.100004	0.358339
H35	H	-0.086117	0.983167	-0.069679
C36	C	0.485170	0.636277	0.000083
C37	C	0.603734	0.570413	0.000078
C38	C	0.736990	0.613423	0.000054
C39	C	0.751681	0.722297	0.000034
C40	C	0.633112	0.788168	0.000038
C41	C	0.499857	0.745158	0.000063
H42	H	0.592863	0.489812	0.000093
H43	H	0.824762	0.564660	0.000050
H44	H	0.850324	0.754136	0.000016
H45	H	0.643984	0.868769	0.000024
H46	H	0.412085	0.793921	0.000066
H47	H	0.404149	1.038389	0.518459
H48	H	-0.104427	1.257679	-0.103457
H49	H	0.150932	0.618376	0.000105
C50	C	-0.317771	0.965472	-0.094590
C51	C	-0.415037	1.017300	-0.172388
C52	C	-0.466441	0.966767	-0.266693
C53	C	-0.420580	0.864408	-0.283200
C54	C	-0.323309	0.812575	-0.205400
C55	C	-0.271905	0.863107	-0.111095
H56	H	-0.448991	1.093078	-0.160171
H57	H	-0.538448	1.005138	-0.324286
H58	H	-0.458633	0.827001	-0.353011
H59	H	-0.289355	0.736797	-0.217617
H60	H	-0.199898	0.824736	-0.053502
H61	H	0.197322	1.205111	0.481752
H62	H	-0.295542	0.970315	0.069103
H63	H	-0.076477	0.974402	0.069968
C64	C	-0.336429	1.282333	-0.097186
C65	C	-0.307093	1.355919	-0.184342
C66	C	-0.360569	1.458835	-0.185218
C67	C	-0.443380	1.488166	-0.098938
C68	C	-0.472720	1.414579	-0.011775
C69	C	-0.419244	1.311662	-0.010899
H70	H	-0.245787	1.334208	-0.248218
H71	H	-0.338849	1.513310	-0.249743
H72	H	-0.482966	1.564351	-0.099587
H73	H	-0.534026	1.436290	0.052100
H74	H	-0.440964	1.257188	0.053625
C75	C	-0.303892	1.108856	0.195776
C76	C	-0.198894	1.067217	0.273630
C77	C	-0.234714	1.010577	0.371898
C78	C	-0.375531	0.995576	0.392312
C79	C	-0.480539	1.037216	0.314456
C80	C	-0.444719	1.093856	0.216188
H81	H	-0.094644	1.078320	0.258520
H82	H	-0.156979	0.979752	0.429531
H83	H	-0.402047	0.953647	0.465055
H84	H	-0.584789	1.026113	0.329565
H85	H	-0.522453	1.124681	0.158554
H86	H	-0.076672	1.129451	0.169848
C87	C	-0.080020	1.273386	0.102338
C88	C	-0.001082	1.319174	0.017826
C89	C	0.040063	1.423466	0.022735
C90	C	0.002270	1.481969	0.112157
C91	C	-0.076672	1.436181	0.196676
C92	C	-0.117817	1.331890	0.191767
H93	H	0.026899	1.275866	-0.048376
H94	H	0.098502	1.457360	-0.039832
H95	H	0.032728	1.559171	0.115792
H96	H	-0.104653	1.479489	0.262878
H97	H	-0.176256	1.297995	0.254334
H98	H	-0.323517	1.149772	-0.170068
C99	C	-0.093061	1.136297	-0.194864
C100	C	-0.000331	1.049626	-0.185686
C101	C	0.042595	1.005462	-0.282960
C102	C	-0.007209	1.047969	-0.389413
C103	C	-0.099944	1.134645	-0.398595
C104	C	-0.142870	1.178809	-0.301320
H105	H	0.036542	1.018155	-0.106880
H106	H	0.111244	0.941298	-0.276163
H107	H	0.024567	1.015276	-0.461421
H108	H	-0.136817	1.166115	-0.477401
H109	H	-0.211520	1.242972	-0.308118
H110	H	-0.308035	1.241043	0.101931
