data_functionalizedCrystal
_audit_creation_method	'MofGen! by Chris Wilmer'
_symmetry_space_group_name_H-M	'P1'
_symmetry_Int_Tables_number	1
_symmetry_cell_setting	triclinic
loop_
_symmetry_equiv_pos_as_xyz
  x,y,z
_cell_length_a	14.971486
_cell_length_b	15.995350
_cell_length_c	13.448316
_cell_angle_alpha	89.995627
_cell_angle_beta	89.998199
_cell_angle_gamma	83.553252
loop_
_atom_site_label
_atom_site_type_symbol
_atom_site_fract_x
_atom_site_fract_y
_atom_site_fract_z
O1	O	1.186823	0.109116	-0.082572
O2	O	0.926408	0.122183	-0.082599
O3	O	1.063734	-0.006231	-0.082584
O4	O	1.049497	0.237530	-0.082587
O5	O	1.063717	-0.006239	0.082800
O6	O	0.926390	0.122175	0.082785
O7	O	1.186805	0.109109	0.082811
Cu8	Cu	1.056596	0.115641	0.097899
Cu9	Cu	1.056617	0.115651	-0.097687
O10	O	1.049479	0.237523	0.082796
C11	C	0.893075	0.121595	0.000090
C12	C	0.793780	0.119844	0.000079
C13	C	1.063137	-0.037430	0.000106
C14	C	1.061372	-0.130382	0.000100
C15	C	0.736468	0.195284	0.000080
C16	C	0.643171	0.193633	0.000095
C17	C	0.607187	0.116542	0.000102
C18	C	0.664505	0.041097	0.000104
C19	C	0.757801	0.042748	0.000097
C20	C	0.470047	0.037660	0.000118
C21	C	0.376745	0.036008	0.000124
C22	C	0.355417	0.188545	0.000116
C23	C	0.448712	0.190197	0.000108
C24	C	0.506025	0.114751	0.000109
C25	C	1.055035	-0.468136	0.000103
C26	C	0.957234	-0.420800	-0.000278
C27	C	0.958999	-0.324108	0.000095
C28	C	1.058178	-0.300572	0.000101
C29	C	1.106407	-0.341606	0.094546
C30	C	1.103951	-0.438244	0.094625
C31	C	1.105990	-0.438591	-0.093447
C32	C	1.105967	-0.341646	-0.094695
C33	C	1.059960	-0.205873	0.000103
C34	C	1.053256	-0.562835	0.000107
C35	C	1.220138	0.109697	0.000121
C36	C	1.319433	0.111448	0.000124
C37	C	1.050077	0.268722	0.000104
C38	C	1.051841	0.361674	0.000104
N39	N	1.056589	0.115634	0.235463
N40	N	1.056632	0.115651	-0.235251
C41	C	1.117415	0.058796	0.287510
C42	C	1.117421	0.058795	0.391613
C43	C	1.056603	0.115637	0.443668
C44	C	0.995770	0.172478	0.391614
C45	C	0.995761	0.172474	0.287512
C46	C	0.995795	0.172484	0.608594
C47	C	0.995805	0.172489	0.712702
C48	C	1.117455	0.058805	0.712695
C49	C	1.117446	0.058801	0.608594
C50	C	1.056613	0.115643	0.556546
H51	H	0.765759	0.258060	0.000073
Br52	Br	1.200016	-0.018333	0.783333
H53	H	0.478007	0.252971	0.000093
Br54	Br	0.327909	-0.068616	0.000167
Br55	Br	1.199965	-0.018346	0.216876
H56	H	0.946280	0.218775	0.755080
Br57	Br	1.199970	-0.018346	0.462252
Br58	Br	0.913230	0.249625	0.537962
H59	H	1.074022	-0.459159	-0.165031
H60	H	1.070706	-0.314429	-0.164563
H61	H	0.516709	-0.023776	0.000120
H62	H	0.635200	-0.021672	0.000125
Br63	Br	0.913223	0.249618	0.462255
H64	H	1.166972	0.012520	0.566211
H65	H	0.804464	-0.018683	0.000096
Br66	Br	0.913200	0.249610	0.216877
Br67	Br	0.892170	-0.453926	0.111622
H68	H	0.308748	0.249976	0.000120
Br69	Br	0.895810	-0.276789	-0.112748
Br70	Br	0.565393	0.296020	0.000092
H71	H	0.918151	-0.439367	-0.068007
H72	H	1.068767	-0.456584	0.165220
Br73	Br	1.223623	-0.491878	0.101787
Br74	Br	0.895355	-0.277725	0.113113
Br75	Br	1.227855	-0.317946	0.100414
H76	H	1.072896	-0.313261	0.164825
Br77	Br	1.226517	-0.315916	-0.104203
H78	H	1.178099	-0.470280	-0.094077
