data_functionalizedCrystal
_audit_creation_method	'MofGen! by Chris Wilmer'
_symmetry_space_group_name_H-M	'P1'
_symmetry_Int_Tables_number	1
_symmetry_cell_setting	triclinic
loop_
_symmetry_equiv_pos_as_xyz
  x,y,z
_cell_length_a	10.489741
_cell_length_b	8.559649
_cell_length_c	7.088929
_cell_angle_alpha	95.344185
_cell_angle_beta	83.729901
_cell_angle_gamma	77.158919
loop_
_atom_site_label
_atom_site_type_symbol
_atom_site_fract_x
_atom_site_fract_y
_atom_site_fract_z
O1	O	-1.655669	-0.241423	-0.158862
O2	O	-1.282245	-0.262562	-0.158891
O3	O	-1.501856	-0.019769	-0.158872
O4	O	-1.436058	-0.484216	-0.158881
O5	O	-1.531212	0.012752	0.159106
O6	O	-1.311601	-0.230041	0.159087
O7	O	-1.685025	-0.208902	0.159116
Cu8	Cu	-1.500993	-0.216502	0.188135
Cu9	Cu	-1.466276	-0.254962	-0.187910
O10	O	-1.465414	-0.451695	0.159097
C11	C	-1.249559	-0.244706	0.000094
C12	C	-1.108431	-0.239931	0.000083
C13	C	-1.521520	0.055964	0.000114
C14	C	-1.536361	0.233172	0.000104
C15	C	-1.717710	-0.226759	0.000126
C16	C	-1.858837	-0.231535	0.000125
C17	C	-1.056559	-0.085447	0.000104
C18	C	-0.942275	-0.174457	-0.156673
C19	C	-0.971248	-0.142431	0.156828
C20	C	-0.995993	-0.329017	-0.156824
C21	C	-1.024991	-0.296955	0.156818
C22	C	-0.910718	-0.386081	0.000003
C23	C	-1.445749	-0.527429	0.000107
C24	C	-1.430907	-0.704638	0.000104
N25	N	-1.525421	-0.189451	0.452625
N26	N	-1.441860	-0.282001	-0.452401
H27	H	-1.119603	0.041526	-0.000090
H28	H	-1.329267	0.213034	0.000102
C29	C	-1.671971	0.342908	0.000515
C30	C	-1.754871	0.329944	0.164129
C31	C	-1.879795	0.431024	0.164584
H32	H	-1.708109	0.311739	-0.110242
H33	H	-1.664339	0.451455	0.000628
H34	H	-1.762508	0.221422	0.163998
H35	H	-1.718776	0.361127	0.274913
H36	H	-1.872163	0.539570	0.164698
H37	H	-1.915920	0.399845	0.053820
H38	H	-1.936055	0.422253	0.275602
C39	C	-1.326511	-0.410131	0.438837
C40	C	-1.336456	-0.562243	0.487348
C41	C	-1.230228	-0.680319	0.387164
H42	H	-1.246059	-0.388811	0.471480
H43	H	-1.328173	-0.408382	0.305313
H44	H	-1.334781	-0.563989	0.620843
H45	H	-1.416885	-0.583614	0.454700
H46	H	-1.231890	-0.678569	0.253639
H47	H	-1.149784	-0.658984	0.419815
H48	H	-1.236968	-0.783541	0.420051
H49	H	-1.612034	-0.093547	0.534289
C50	C	-0.955655	-0.036929	0.333497
C51	C	-1.030512	0.120300	0.332754
C52	C	-1.016198	0.217538	0.495470
H53	H	-0.865381	-0.035243	0.333005
H54	H	-0.985466	-0.079298	0.444883
H55	H	-1.000695	0.162659	0.221397
H56	H	-1.120793	0.118665	0.333274
H57	H	-1.046009	0.175169	0.606856
H58	H	-0.925922	0.219210	0.494964
H59	H	-1.066995	0.324224	0.494996
H60	H	-1.007694	-0.407902	-0.289516
H61	H	-0.847900	-0.513218	-0.000085
H62	H	-0.905906	-0.122649	-0.289217
H63	H	-1.061397	-0.348710	0.289368
