data_functionalizedCrystal
_audit_creation_method	'MofGen! by Chris Wilmer'
_symmetry_space_group_name_H-M	'P1'
_symmetry_Int_Tables_number	1
_symmetry_cell_setting	triclinic
loop_
_symmetry_equiv_pos_as_xyz
  x,y,z
_cell_length_a	14.044220
_cell_length_b	16.109301
_cell_length_c	14.586319
_cell_angle_alpha	89.994786
_cell_angle_beta	90.001391
_cell_angle_gamma	88.325179
loop_
_atom_site_label
_atom_site_type_symbol
_atom_site_fract_x
_atom_site_fract_y
_atom_site_fract_z
O1	O	1.257643	0.200436	-0.076149
O2	O	0.981677	0.193203	-0.076172
O3	O	1.127241	0.076352	-0.076150
O4	O	1.112079	0.317286	-0.076170
O5	O	1.127231	0.076350	0.076331
O6	O	0.981666	0.193200	0.076309
O7	O	1.257633	0.200433	0.076332
Cu8	Cu	1.119649	0.196816	0.090243
Cu9	Cu	1.119661	0.196820	-0.090083
O10	O	1.112069	0.317284	0.076311
C11	C	1.126622	0.045330	0.000091
C12	C	1.124781	-0.047102	0.000092
C13	C	0.946358	0.190036	0.000066
C14	C	0.841135	0.180592	0.000058
C15	C	1.206874	-0.263266	0.000084
C16	C	1.205137	-0.350116	0.000076
C17	C	1.032429	-0.343091	0.000066
C18	C	1.034168	-0.256243	0.000067
C19	C	1.121393	-0.216333	0.000081
C20	C	1.117917	-0.390031	0.000072
C21	C	1.116032	-0.484197	0.000064
C22	C	1.123278	-0.122161	0.000087
C23	C	0.648479	0.163326	0.000077
C24	C	0.590825	0.230306	0.000075
C25	C	0.483625	0.220699	0.000086
C26	C	0.755690	0.172932	0.000066
C27	C	1.292952	0.203600	0.000093
C28	C	1.398175	0.213044	0.000095
C29	C	1.112688	0.348306	0.000068
C30	C	1.114529	0.440738	0.000061
N31	N	1.119647	0.196814	0.217075
N32	N	1.119670	0.196816	-0.216915
C33	C	1.184125	0.145093	0.452091
C34	C	1.184128	0.145092	0.548072
C35	C	1.055186	0.248539	0.548063
C36	C	1.055179	0.248536	0.452083
C37	C	1.119654	0.196814	0.404100
C38	C	1.119663	0.196816	0.596061
C39	C	1.119666	0.196814	0.700128
C40	C	1.119651	0.196815	0.300026
H41	H	1.274744	-0.388326	0.000077
C42	C	0.632896	0.317520	0.000056
H43	H	0.582623	0.358281	0.000060
H44	H	0.671000	0.324039	-0.053122
H45	H	0.671012	0.324046	0.053231
H46	H	0.617330	0.098774	0.000087
C47	C	1.255035	0.088195	0.399312
H48	H	1.293425	0.057386	0.441644
H49	H	1.294480	0.121042	0.361863
H50	H	1.220940	0.051037	0.361880
H51	H	1.236624	0.102975	0.587144
H52	H	1.002675	0.290653	0.413006
H53	H	1.002693	0.290650	0.587140
C54	C	1.302815	-0.219364	0.000092
H55	H	1.291610	-0.160918	0.000102
H56	H	1.338012	-0.235035	-0.053079
H57	H	1.338006	-0.235047	0.053274
H58	H	0.964554	-0.218029	0.000061
C59	C	0.936490	-0.386995	0.000063
H60	H	0.947695	-0.445441	0.000073
H61	H	0.901291	-0.371317	-0.053110
H62	H	0.901298	-0.371321	0.053244
