data_functionalizedCrystal
_audit_creation_method	'MofGen! by Chris Wilmer'
_symmetry_space_group_name_H-M	'P1'
_symmetry_Int_Tables_number	1
_symmetry_cell_setting	triclinic
loop_
_symmetry_equiv_pos_as_xyz
  x,y,z
_cell_length_a	12.811445
_cell_length_b	11.892095
_cell_length_c	10.654550
_cell_angle_alpha	93.928097
_cell_angle_beta	95.735640
_cell_angle_gamma	99.333684
loop_
_atom_site_label
_atom_site_type_symbol
_atom_site_fract_x
_atom_site_fract_y
_atom_site_fract_z
O1	O	1.410793	0.238616	-0.148905
O2	O	1.103111	0.207079	-0.169971
O3	O	1.264026	0.223568	0.023399
O4	O	1.249878	0.222127	-0.342275
O5	O	1.250609	0.034186	0.007301
O6	O	1.089694	0.017696	-0.186069
O7	O	1.397376	0.049234	-0.165003
Zn8	Zn	1.241405	0.003397	-0.178092
Zn9	Zn	1.259082	0.252916	-0.156882
O10	O	1.236461	0.032744	-0.358373
C11	C	1.057005	0.108349	-0.177332
C12	C	0.939613	0.096317	-0.175265
N13	N	1.229348	-0.166893	-0.192566
C14	C	0.733645	0.280191	-0.153854
C15	C	0.623345	0.268891	-0.151913
C16	C	0.608711	0.062415	-0.169450
C17	C	0.719011	0.073716	-0.171391
C18	C	0.781474	0.182608	-0.163591
C19	C	0.891777	0.193908	-0.165524
C20	C	0.877140	-0.012567	-0.183070
C21	C	0.766840	-0.023868	-0.181128
C22	C	1.355043	-0.390661	-0.041606
C23	C	1.346623	-0.509865	-0.051733
C24	C	1.204084	-0.524510	-0.222939
C25	C	1.212504	-0.405305	-0.212813
C26	C	1.287987	-0.338384	-0.122145
C27	C	1.296411	-0.219177	-0.112025
C28	C	1.153868	-0.233824	-0.283225
C29	C	1.145448	-0.353029	-0.293351
C30	C	1.443482	0.147966	-0.157642
C31	C	1.560875	0.160006	-0.159708
C32	C	1.256279	0.128772	0.062133
C33	C	1.253171	0.128457	0.201534
N34	N	1.271147	0.423206	-0.142398
C35	C	1.244209	0.127543	-0.397107
C36	C	1.247317	0.127865	-0.536507
C37	C	1.347915	0.138165	0.282331
C38	C	1.344989	0.137873	0.413312
C39	C	1.152566	0.118160	0.382685
C40	C	1.155494	0.118460	0.251708
C41	C	1.459009	0.149542	0.300014
C42	C	1.456083	0.149250	0.430995
H43	H	0.942634	0.282573	-0.159172
H44	H	1.099270	-0.191248	-0.348808
F45	F	1.497661	0.047394	0.244993
F46	F	0.800128	0.396080	-0.145537
F47	F	0.572446	0.372753	-0.141553
H48	H	1.078345	0.110571	0.185927
F49	F	0.928052	-0.116430	-0.193417
F50	F	0.542213	-0.053466	-0.177769
F51	F	0.700350	-0.139752	-0.189435
H52	H	1.357875	-0.164690	-0.038202
H53	H	1.416511	-0.336172	0.032211
F54	F	1.417991	-0.565497	0.033990
H55	H	1.142621	-0.579013	-0.296751
H56	H	1.492327	0.074286	0.466598
F57	F	1.507537	0.260624	0.500353
F58	F	1.065115	-0.424261	-0.389839
F59	F	1.048616	0.107523	0.436096
H60	H	1.508076	0.233246	0.277994
