data_functionalizedCrystal
_audit_creation_method	'MofGen! by Chris Wilmer'
_symmetry_space_group_name_H-M	'P1'
_symmetry_Int_Tables_number	1
_symmetry_cell_setting	triclinic
loop_
_symmetry_equiv_pos_as_xyz
  x,y,z
_cell_length_a	12.811453
_cell_length_b	13.101039
_cell_length_c	12.837942
_cell_angle_alpha	86.281753
_cell_angle_beta	90.587019
_cell_angle_gamma	81.205932
loop_
_atom_site_label
_atom_site_type_symbol
_atom_site_fract_x
_atom_site_fract_y
_atom_site_fract_z
O1	O	-1.419910	0.217165	0.125195
O2	O	-1.114109	0.188749	0.142277
O3	O	-1.260229	0.202320	-0.017154
O4	O	-1.273791	0.203593	0.284625
O5	O	-1.249747	0.030917	-0.005696
O6	O	-1.103627	0.017345	0.153735
O7	O	-1.409428	0.045761	0.136653
Zn8	Zn	-1.254864	0.004339	0.147013
Zn9	Zn	-1.268674	0.230171	0.131917
O10	O	-1.263309	0.032190	0.296083
C11	C	-1.069455	0.099385	0.147398
C12	C	-0.952016	0.088472	0.145577
C13	C	-0.742761	0.254849	0.129681
C14	C	-0.632416	0.244600	0.127970
C15	C	-0.620980	0.057725	0.140450
C16	C	-0.731325	0.067975	0.142161
C17	C	-0.792211	0.166539	0.136775
C18	C	-0.902558	0.176788	0.138479
C19	C	-0.891120	-0.010086	0.150967
C20	C	-0.780775	-0.020335	0.149256
N21	N	-1.245446	-0.149784	0.157315
C22	C	-1.232634	-0.360016	0.171341
C23	C	-1.290908	-0.405480	0.107584
C24	C	-1.283780	-0.522460	0.115388
C25	C	-1.239762	-0.243026	0.163538
C26	C	-0.454083	0.135126	0.131531
C27	C	-0.571522	0.146041	0.133352
C28	C	-1.250406	0.116193	-0.050037
C29	C	-1.236743	0.114925	-0.165088
N30	N	-1.278099	0.384295	0.121606
C31	C	-1.401006	0.130211	-0.406360
C32	C	-1.388173	0.129020	-0.514462
C33	C	-1.198245	0.111361	-0.489395
C34	C	-1.211078	0.112551	-0.381294
C35	C	-1.312462	0.121975	-0.339780
C36	C	-1.325294	0.123158	-0.231676
C37	C	-1.135367	0.105507	-0.206612
C38	C	-1.122533	0.104316	-0.314714
C39	C	-1.273132	0.118319	0.328966
C40	C	-1.286796	0.119594	0.444017
H41	H	-0.592158	0.316510	0.122195
C42	C	-1.511740	0.140514	-0.267317
C43	C	-1.436733	0.133527	-0.186042
H44	H	-1.580539	0.146926	-0.239145
H45	H	-1.499140	0.079913	-0.304963
H46	H	-1.506420	0.199455	-0.312953
H47	H	-1.442048	0.074582	-0.140410
H48	H	-1.449338	0.194135	-0.148378
H49	H	-1.346153	-0.356546	0.047139
H50	H	-1.483557	0.137874	-0.372559
C51	C	-1.577196	0.146587	-0.528375
C52	C	-1.485504	0.138066	-0.587647
H53	H	-1.637284	0.152167	-0.573559
H54	H	-1.581903	0.206453	-0.489686
H55	H	-1.574590	0.086908	-0.481694
H56	H	-1.488106	0.197749	-0.634323
H57	H	-1.480796	0.078194	-0.626354
H58	H	-1.063267	0.098793	-0.152390
C59	C	-1.165362	-0.530841	0.244981
C60	C	-1.158070	-0.426065	0.252945
H61	H	-1.119337	-0.571623	0.295366
H62	H	-1.145747	-0.550183	0.177025
H63	H	-1.235948	-0.541778	0.257167
H64	H	-1.087485	-0.415127	0.240751
H65	H	-1.177678	-0.406717	0.320917
C66	C	-0.446746	-0.040950	0.143397
C67	C	-0.554041	-0.050610	0.146388
H68	H	-0.405422	-0.107833	0.147061
H69	H	-0.429059	-0.004417	0.200961
H70	H	-0.432989	-0.004061	0.080129
H71	H	-0.567799	-0.087492	0.209659
H72	H	-0.571734	-0.087158	0.088818
H73	H	-0.731187	-0.100583	0.153644
H74	H	-1.115703	0.103699	-0.523215
C75	C	-1.055190	-0.077358	0.159124
C76	C	-0.945478	-0.107164	0.158763
H77	H	-1.088746	-0.137290	0.163938
H78	H	-1.077585	-0.037108	0.096429
H79	H	-1.073644	-0.037477	0.217262
H80	H	-0.927024	-0.147040	0.100620
H81	H	-0.923075	-0.147432	0.221464
C82	C	-1.018527	0.094643	-0.469296
C83	C	-1.011096	0.093951	-0.360351
H84	H	-0.949727	0.088234	-0.497466
H85	H	-1.059082	0.157846	-0.496145
H86	H	-1.051798	0.038304	-0.488160
H87	H	-0.977832	0.150294	-0.341487
H88	H	-0.970525	0.030740	-0.333492
H89	H	-0.952131	0.257044	0.134093
H90	H	-0.792336	0.335104	0.125290
