data_functionalizedCrystal
_audit_creation_method	'MofGen! by Chris Wilmer'
_symmetry_space_group_name_H-M	'P1'
_symmetry_Int_Tables_number	1
_symmetry_cell_setting	triclinic
loop_
_symmetry_equiv_pos_as_xyz
  x,y,z
_cell_length_a	19.188930
_cell_length_b	10.654550
_cell_length_c	9.730223
_cell_angle_alpha	89.996251
_cell_angle_beta	90.006436
_cell_angle_gamma	96.185159
loop_
_atom_site_label
_atom_site_type_symbol
_atom_site_fract_x
_atom_site_fract_y
_atom_site_fract_z
O1	O	0.098059	-1.665759	0.114420
O2	O	0.107401	-1.300083	0.114400
O3	O	0.001144	-1.493474	0.114384
O4	O	0.204317	-1.472368	0.114436
O5	O	0.001146	-1.493471	-0.114196
O6	O	0.107404	-1.300081	-0.114180
O7	O	0.098061	-1.665757	-0.114160
Zn8	Zn	0.102733	-1.482918	-0.150462
Zn9	Zn	0.102730	-1.482921	0.150702
O10	O	0.204319	-1.472366	-0.114144
C11	C	0.106717	-1.253298	0.000107
C12	C	0.104664	-1.113898	0.000098
C13	C	-0.024871	-1.492789	0.000090
C14	C	-0.102389	-1.490737	0.000078
N15	N	0.102735	-1.482925	-0.355998
C16	C	-0.146570	-1.604213	0.000078
C17	C	-0.219407	-1.602285	0.000099
C18	C	-0.248058	-1.486876	0.000094
C19	C	-0.203867	-1.373386	0.000102
C20	C	-0.131032	-1.375316	0.000094
N21	N	-0.356639	-1.398658	-0.077701
N22	N	-0.425830	-1.396832	-0.077696
C23	C	-0.467505	-1.481052	0.000121
N24	N	-0.437377	-1.567186	0.077917
N25	N	-0.368180	-1.569016	0.077906
C26	C	-0.327034	-1.484770	0.000104
C27	C	-0.590665	-1.592445	0.000147
C28	C	-0.663502	-1.590513	0.000177
C29	C	-0.647960	-1.361610	0.000166
C30	C	-0.575125	-1.363545	0.000149
C31	C	-0.546481	-1.478966	0.000133
C32	C	0.230334	-1.473051	0.000153
C33	C	0.307852	-1.475102	0.000174
C34	C	0.098746	-1.712541	0.000136
C35	C	0.100798	-1.851941	0.000154
C36	C	0.167227	-1.033089	0.000134
C37	C	0.165295	-0.902109	0.000157
C38	C	0.038231	-0.932761	0.000114
C39	C	0.040164	-1.063738	0.000081
C40	C	0.231728	-1.083249	0.000151
C41	C	0.294296	-1.002438	0.000189
C42	C	0.292363	-0.871458	0.000212
C43	C	0.227863	-0.821289	0.000198
C44	C	0.055700	-1.568581	-0.427932
C45	C	0.055692	-1.568577	-0.571815
C46	C	0.149759	-1.397260	-0.571818
C47	C	0.149764	-1.397258	-0.427938
C48	C	0.008672	-1.654248	-0.355992
C49	C	-0.038367	-1.739911	-0.427925
C50	C	-0.038375	-1.739908	-0.571808
C51	C	0.008655	-1.654242	-0.643758
N52	N	0.102722	-1.482924	0.356238
H53	H	-0.123254	-1.698197	0.000069
H54	H	0.226294	-0.714635	0.000195
N55	N	-0.267072	-1.724680	0.000102
H56	H	-0.237875	-1.798090	0.000093
H57	H	-0.297636	-1.728851	-0.084634
N58	N	-0.711155	-1.712915	0.000173
H59	H	-0.741730	-1.717204	-0.084555
H60	H	-0.741667	-1.717155	0.084970
H61	H	-0.010780	-1.129536	0.000055
N62	N	0.363860	-1.056545	0.000215
H63	H	0.403200	-0.985474	0.000238
H64	H	0.367434	-1.110204	-0.084529
N65	N	-0.031334	-0.878656	0.000093
H66	H	-0.023065	-0.783420	0.000120
H67	H	-0.058743	-0.908264	0.084814
N68	N	0.359842	-0.784295	0.000165
H69	H	0.400993	-0.835951	0.000146
H70	H	0.361830	-0.729271	0.084890
H71	H	-0.567342	-1.686428	0.000140
H72	H	-0.076680	-1.809649	-0.630375
N73	N	0.008684	-1.654242	-0.200806
H74	H	0.019289	-1.739499	-0.166143
H75	H	-0.038855	-1.636195	-0.166256
H76	H	-0.076661	-1.809651	-0.369336
N77	N	-0.083368	-1.252927	0.000084
H78	H	-0.092634	-1.202554	0.084819
H79	H	-0.092676	-1.202653	-0.084707
H80	H	0.008639	-1.654238	-0.760917
N81	N	-0.234764	-1.248907	0.000103
H82	H	-0.287609	-1.264901	0.000104
H83	H	-0.218645	-1.199263	-0.084635
H84	H	-0.671287	-1.267641	0.000168
N85	N	0.200481	-1.304869	-0.649414
H86	H	0.193342	-1.317869	-0.751477
H87	H	0.250088	-1.319094	-0.624259
H88	H	0.188064	-1.327509	-0.369370
N89	N	-0.527472	-1.241147	0.000127
H90	H	-0.496914	-1.236847	-0.084612
H91	H	-0.496943	-1.236915	0.084913
N92	N	0.233809	-1.224519	0.000119
H93	H	0.259213	-1.250075	0.084857
H94	H	0.259207	-1.249933	-0.084668
