data_functionalizedCrystal
_audit_creation_method	'MofGen! by Chris Wilmer'
_symmetry_space_group_name_H-M	'P1'
_symmetry_Int_Tables_number	1
_symmetry_cell_setting	triclinic
loop_
_symmetry_equiv_pos_as_xyz
  x,y,z
_cell_length_a	14.044220
_cell_length_b	13.101018
_cell_length_c	14.044220
_cell_angle_alpha	93.664400
_cell_angle_beta	86.811122
_cell_angle_gamma	93.664297
loop_
_atom_site_label
_atom_site_type_symbol
_atom_site_fract_x
_atom_site_fract_y
_atom_site_fract_z
O1	O	1.281975	0.085109	-0.225353
O2	O	1.781975	0.585109	0.274647
O3	O	1.005305	0.085135	-0.217046
O4	O	1.505305	0.585135	0.282954
O5	O	1.139486	0.085113	-0.082864
O6	O	1.639486	0.585113	0.417136
O7	O	1.147793	0.085132	-0.359534
O8	O	1.647793	0.585132	0.140466
O9	O	1.129848	-0.085316	-0.092500
O10	O	1.629848	0.414684	0.407500
O11	O	0.995666	-0.085294	-0.226681
O12	O	1.495666	0.414706	0.273319
O13	O	1.272336	-0.085319	-0.234988
O14	O	1.772336	0.414681	0.265012
Zn15	Zn	1.132471	-0.112366	-0.232365
Zn16	Zn	1.632471	0.387634	0.267635
Zn17	Zn	1.145170	0.112182	-0.219669
Zn18	Zn	1.645170	0.612182	0.280331
O19	O	1.138155	-0.085297	-0.369170
O20	O	1.638155	0.414703	0.130830
C21	C	0.964864	-0.000076	-0.218228
C22	C	1.464864	0.499924	0.281772
C23	C	0.858722	-0.000066	-0.207383
C24	C	1.358722	0.499934	0.292617
N25	N	1.123811	-0.265613	-0.241029
N26	N	1.623811	0.234387	0.258971
C27	C	0.664383	-0.000088	-0.187558
C28	C	1.164383	0.499912	0.312442
C29	C	0.613253	-0.000087	-0.264472
C30	C	1.113253	0.499913	0.235528
C31	C	0.505116	-0.000099	-0.253441
C32	C	1.005116	0.499901	0.246559
C33	C	0.772529	-0.000076	-0.198587
C34	C	1.272529	0.499924	0.301413
C35	C	1.165614	-0.525530	-0.199206
C36	C	1.665614	-0.025530	0.300794
C37	C	1.112036	-0.474648	-0.252818
C38	C	1.612036	0.025352	0.247182
C39	C	1.118589	-0.358330	-0.246257
C40	C	1.618589	0.141670	0.253743
C41	C	1.159063	-0.641858	-0.205766
C42	C	1.659063	-0.141858	0.294234
C43	C	1.312777	-0.000106	-0.233806
C44	C	1.812777	0.499894	0.266194
C45	C	1.418920	-0.000109	-0.244651
C46	C	1.918920	0.499891	0.255349
C47	C	1.131031	-0.000102	-0.052060
C48	C	1.631031	0.499898	0.447940
C49	C	1.120187	-0.000102	0.054083
C50	C	1.620187	0.499898	0.554083
N51	N	1.153837	0.265429	-0.210998
N52	N	1.653837	0.765429	0.289002
C53	C	1.146610	-0.000080	-0.399974
C54	C	1.646610	0.499920	0.100026
C55	C	1.157455	-0.000073	-0.506116
C56	C	1.657455	0.499927	-0.006116
C57	C	1.100362	-0.000086	0.248421
C58	C	1.600362	0.499914	0.748421
C59	C	1.177276	-0.000090	0.299551
C60	C	1.677276	0.499910	0.799551
C61	C	1.166245	-0.000080	0.407688
C62	C	1.666245	0.499920	0.907688
C63	C	1.111391	-0.000095	0.140275
C64	C	1.611391	0.499905	0.640275
H65	H	0.650693	-0.000077	-0.338605
H66	H	1.150693	0.499923	0.161395
H67	H	1.026235	-0.000076	0.285859
H68	H	1.526235	0.499924	0.785859
H69	H	1.061246	-0.518444	-0.303645
H70	H	1.561246	-0.018444	0.196355
F71	F	0.615449	-0.000098	-0.090666
F72	F	1.115449	0.499902	0.409334
H73	H	1.251413	-0.000028	0.262115
H74	H	1.751413	0.499972	0.762115
F75	F	1.232000	-0.468290	-0.132778
F76	F	1.732000	0.031710	0.367222
