data_functionalizedCrystal
_audit_creation_method	'MofGen! by Chris Wilmer'
_symmetry_space_group_name_H-M	'P1'
_symmetry_Int_Tables_number	1
_symmetry_cell_setting	triclinic
loop_
_symmetry_equiv_pos_as_xyz
  x,y,z
_cell_length_a	19.288864
_cell_length_b	19.288864
_cell_length_c	17.766277
_cell_angle_alpha	90.028157
_cell_angle_beta	89.976791
_cell_angle_gamma	96.863758
loop_
_atom_site_label
_atom_site_type_symbol
_atom_site_fract_x
_atom_site_fract_y
_atom_site_fract_z
O1	O	-0.921353	0.086649	0.062871
O2	O	-0.421353	0.586649	0.562871
O3	O	-0.719092	0.098337	0.062825
O4	O	-0.219092	0.598337	0.562825
O5	O	-0.826067	-0.008637	0.062803
O6	O	-0.326067	0.491363	0.562803
O7	O	-0.814378	0.193623	0.062893
O8	O	-0.314378	0.693623	0.562893
O9	O	-0.826048	-0.008643	-0.062386
O10	O	-0.326048	0.491357	0.437614
O11	O	-0.719074	0.098332	-0.062364
O12	O	-0.219074	0.598332	0.437636
O13	O	-0.921334	0.086643	-0.062317
O14	O	-0.421334	0.586643	0.437683
Cu15	Cu	-0.820202	0.092487	-0.073771
Cu16	Cu	-0.320202	0.592487	0.426229
Cu17	Cu	-0.820224	0.092494	0.074279
Cu18	Cu	-0.320224	0.592494	0.574279
O19	O	-0.814360	0.193618	-0.062295
O20	O	-0.314360	0.693618	0.437705
C21	C	-0.693207	0.097959	0.000224
C22	C	-0.193207	0.597959	0.500224
C23	C	-0.616103	0.096830	0.000203
C24	C	-0.116103	0.596830	0.500203
C25	C	-0.825682	-0.034516	0.000198
C26	C	-0.325682	0.465484	0.500198
C27	C	-0.824553	-0.111620	0.000167
C28	C	-0.324553	0.388380	0.500167
C29	C	-0.947220	0.087022	0.000286
C30	C	-0.447220	0.587022	0.500286
C31	C	-1.024324	0.088151	0.000311
C32	C	-0.524324	0.588151	0.500311
C33	C	-0.814745	0.219497	0.000311
C34	C	-0.314745	0.719497	0.500311
C35	C	-0.815874	0.296601	0.000347
C36	C	-0.315874	0.796601	0.500347
C37	C	-0.571407	0.159598	0.000243
C38	C	-0.071407	0.659598	0.500243
C39	C	-0.498960	0.158537	0.000251
C40	C	0.001040	0.658537	0.500251
C41	C	-0.471212	0.094705	0.000234
C42	C	0.028788	0.594705	0.500234
C43	C	-0.515918	0.031929	0.000190
C44	C	-0.015918	0.531929	0.500190
C45	C	-0.588364	0.032991	0.000175
C46	C	-0.088364	0.532991	0.500175
C47	C	-0.362957	0.044527	0.044096
C48	C	0.137043	0.544527	0.544096
C49	C	-0.290512	0.043468	0.044116
C50	C	0.209488	0.543468	0.544116
C51	C	-0.247767	0.091425	0.000278
C52	C	0.252233	0.591425	0.500278
C53	C	-0.277473	0.140454	-0.043570
C54	C	0.222527	0.640454	0.456430
C55	C	-0.349918	0.141517	-0.043585
C56	C	0.150082	0.641517	0.456415
C57	C	-0.392658	0.093546	0.000250
C58	C	0.107342	0.593546	0.500250
C59	C	-0.124514	0.153047	0.000326
C60	C	0.375486	0.653047	0.500326
C61	C	-0.052066	0.151984	0.000329
C62	C	0.447934	0.651984	0.500329
C63	C	-0.069026	0.025374	0.000275
C64	C	0.430974	0.525374	0.500275
C65	C	-0.141473	0.026439	0.000265
C66	C	0.358527	0.526439	0.500265
C67	C	-0.169212	0.090278	0.000293
C68	C	0.330788	0.590278	0.500293
N69	N	-0.820192	0.092482	-0.177902
N70	N	-0.320192	0.592482	0.322098
C71	C	-0.753106	0.341297	0.000317
C72	C	-0.253106	0.841297	0.500317
C73	C	-0.754167	0.413744	0.000301
C74	C	-0.254167	0.913744	0.500301
C75	C	-0.817999	0.441492	0.000298
C76	C	-0.317999	0.941492	0.500298
C77	C	-0.880775	0.396786	0.000332
C78	C	-0.380775	0.896786	0.500332
C79	C	-0.879713	0.324340	0.000357
C80	C	-0.379713	0.824340	0.500357
C81	C	-0.868172	0.549740	-0.043589
C82	C	-0.368172	1.049740	0.456411
C83	C	-0.869231	0.622184	-0.043618
C84	C	-0.369231	1.122184	0.456382
C85	C	-0.821279	0.664937	0.000227
C86	C	-0.321279	1.164937	0.500227
C87	C	-0.772254	0.635238	0.044091
C88	C	-0.272254	1.135238	0.544091
C89	C	-0.771192	0.562793	0.044115
C90	C	-0.271192	1.062793	0.544115
C91	C	-0.819158	0.520046	0.000273
C92	C	-0.319158	1.020046	0.500273
C93	C	-0.759657	0.788190	0.000180
C94	C	-0.259657	1.288190	0.500180
C95	C	-0.760720	0.860638	0.000168
C96	C	-0.260720	1.360638	0.500168
C97	C	-0.887330	0.843677	0.000192
C98	C	-0.387330	1.343677	0.500192
C99	C	-0.886265	0.771231	0.000212
C100	C	-0.386265	1.271231	0.500212
C101	C	-0.822426	0.743492	0.000202
C102	C	-0.322426	1.243492	0.500202
C103	C	-0.867575	0.045137	-0.217298
C104	C	-0.367575	0.545137	0.282702
C105	C	-0.867579	0.045134	-0.296100
C106	C	-0.367579	0.545134	0.203900
C107	C	-0.820206	0.092488	-0.335502
C108	C	-0.320206	0.592488	0.164498
C109	C	-0.772814	0.139837	-0.296096
C110	C	-0.272814	0.639837	0.203904
C111	C	-0.772807	0.139834	-0.217296
C112	C	-0.272807	0.639834	0.282704
C113	C	-0.810908	0.155775	-0.460313
C114	C	-0.310908	0.655775	0.039687
C115	C	-0.810920	0.155779	-0.539112
C116	C	-0.310920	0.655779	-0.039112
C117	C	-0.820225	0.092496	-0.578548
C118	C	-0.320225	0.592496	-0.078548
C119	C	-0.829533	0.029207	-0.539176
C120	C	-0.329533	0.529207	-0.039176
C121	C	-0.829525	0.029204	-0.460376
C122	C	-0.329525	0.529204	0.039624
C123	C	-0.820209	0.092496	-0.420948
C124	C	-0.320209	0.592496	0.079052
C125	C	-0.867616	0.045143	-0.703391
C126	C	-0.367616	0.545143	-0.203391
C127	C	-0.867615	0.045139	-0.782194
C128	C	-0.367615	0.545139	-0.282194
C129	C	-0.772853	0.139848	-0.782189
C130	C	-0.272853	0.639848	-0.282189
C131	C	-0.772850	0.139846	-0.703387
C132	C	-0.272850	0.639846	-0.203387
C133	C	-0.820235	0.092495	-0.663993
C134	C	-0.320235	0.592495	-0.163993
N135	N	-0.820241	0.092493	0.178409
N136	N	-0.320241	0.592493	0.678409
H137	H	-0.462561	0.209652	0.000282
H138	H	0.037439	0.709652	0.500282
H139	H	-0.624756	-0.018124	0.000143
H140	H	-0.124756	0.481876	0.500143
H141	H	-0.177866	-0.024674	0.000236
H142	H	0.322134	0.475326	0.500236
H143	H	-0.734220	0.178389	-0.185218
H144	H	-0.234220	0.678389	0.314782
H145	H	-0.906198	0.006585	-0.671315
H146	H	-0.406198	0.506585	-0.171315
O147	O	-0.261775	-0.004223	0.086725
O148	O	0.238225	0.495777	0.586725
C149	C	-0.315035	-0.046320	0.125418
C150	C	0.184965	0.453680	0.625418
H151	H	-0.366648	-0.045476	0.094391
H152	H	0.133352	0.454524	0.594391
H153	H	-0.301550	-0.102215	0.128226
H154	H	0.198450	0.397785	0.628226
H155	H	-0.319976	-0.025313	0.184925
H156	H	0.180024	0.474687	0.684925
O157	O	-0.725694	0.676677	0.086797
O158	O	-0.225694	1.176677	0.586797
C159	C	-0.734617	0.657804	0.163158
C160	C	-0.234617	1.157804	0.663158
H161	H	-0.760525	0.601634	0.167259
H162	H	-0.260525	1.101634	0.667259
H163	H	-0.681528	0.662448	0.192106
H164	H	-0.181528	1.162448	0.692106
H165	H	-0.769012	0.694070	0.191855
H166	H	-0.269012	1.194070	0.691855
H167	H	-0.937377	0.734838	0.000231
H168	H	-0.437377	1.234838	0.500231
O169	O	-0.916910	0.650915	-0.086251
O170	O	-0.416910	1.150915	0.413749
C171	C	-0.958999	0.597649	-0.124955
C172	C	-0.458999	1.097649	0.375045
H173	H	-0.958168	0.546043	-0.093915
H174	H	-0.458168	1.046043	0.406085
H175	H	-1.014890	0.611139	-0.127794
H176	H	-0.514890	1.111139	0.372206
H177	H	-0.937973	0.592693	-0.184449
H178	H	-0.437973	1.092693	0.315551
H179	H	-0.907226	0.514935	-0.079291
H180	H	-0.407226	1.014935	0.420709
H181	H	-0.593987	0.211580	0.000268
H182	H	-0.093987	0.711580	0.500268
H183	H	-0.242670	0.179505	-0.079268
H184	H	0.257330	0.679505	0.420732
H185	H	-0.703052	0.450143	0.000275
H186	H	-0.203052	0.950143	0.500275
O187	O	-0.942738	0.423819	0.000429
O188	O	-0.442738	0.923819	0.500429
C189	C	-0.947156	0.465252	0.065260
C190	C	-0.447156	0.965252	0.565260
H191	H	-0.892356	0.483482	0.086860
H192	H	-0.392356	0.983482	0.586860
H193	H	-0.974692	0.512597	0.050665
H194	H	-0.474692	1.012597	0.550665
H195	H	-0.977992	0.433183	0.110679
H196	H	-0.477992	0.933183	0.610679
H197	H	-0.046435	-0.026600	0.000308
H198	H	0.453565	0.473400	0.500308
H199	H	-0.493322	-0.020044	0.000187
H200	H	0.006678	0.479956	0.500187
H201	H	-0.397755	0.005473	0.079799
H202	H	0.102245	0.505473	0.579799
O203	O	-0.913714	-0.000880	-0.820350
O204	O	-0.413714	0.499120	-0.320350
C205	C	-0.955522	-0.042681	-0.768678
C206	C	-0.455522	0.457319	-0.268678
H207	H	-0.956208	-0.014205	-0.712490
H208	H	-0.456208	0.485795	-0.212490
H209	H	-1.011026	-0.053410	-0.791422
H210	H	-0.511026	0.446590	-0.291422
H211	H	-0.933142	-0.094228	-0.760338
H212	H	-0.433142	0.405772	-0.260338
H213	H	-0.734278	0.178402	-0.814269
H214	H	-0.234278	0.678402	-0.314269
O215	O	-0.726800	0.185911	-0.665229
O216	O	-0.226800	0.685911	-0.165229
C217	C	-0.684975	0.227696	-0.716901
C218	C	-0.184975	0.727696	-0.216901
H219	H	-0.713453	0.228410	-0.773057
H220	H	-0.213453	0.728410	-0.273057
H221	H	-0.674201	0.283193	-0.694107
H222	H	-0.174201	0.783193	-0.194107
H223	H	-0.633451	0.205273	-0.725322
H224	H	-0.133451	0.705273	-0.225322
H225	H	-0.701124	0.318717	0.000316
H226	H	-0.201124	0.818717	0.500316
O227	O	-0.801841	0.217317	-0.577238
O228	O	-0.301841	0.717317	-0.077238
C229	C	-0.793633	0.273171	-0.525536
C230	C	-0.293633	0.773171	-0.025536
H231	H	-0.774606	0.254005	-0.469387
H232	H	-0.274606	0.754005	0.030613
H233	H	-0.753773	0.316496	-0.548302
H234	H	-0.253773	0.816496	-0.048302
H235	H	-0.845881	0.294179	-0.517111
H236	H	-0.345881	0.794179	-0.017111
H237	H	-0.930828	0.287948	0.000382
H238	H	-0.430828	0.787948	0.500382
O239	O	-0.838448	-0.032260	-0.577503
O240	O	-0.338448	0.467740	-0.077503
C241	C	-0.779520	-0.037714	-0.623130
C242	C	-0.279520	0.462286	-0.123130
H243	H	-0.732652	-0.002966	-0.599392
H244	H	-0.232652	0.497034	-0.099392
H245	H	-0.767782	-0.094247	-0.624054
H246	H	-0.267782	0.405753	-0.124054
H247	H	-0.790475	-0.020340	-0.682839
H248	H	-0.290475	0.479660	-0.182839
H249	H	-0.374102	0.181436	-0.079290
H250	H	0.125898	0.681436	0.420710
O251	O	-0.913625	-0.000931	-0.179149
O252	O	-0.413625	0.499069	0.320851
C253	C	-0.955460	-0.042709	-0.230826
C254	C	-0.455460	0.457291	0.269174
H255	H	-0.926991	-0.043417	-0.287014
H256	H	-0.426991	0.456583	0.212986
H257	H	-0.966231	-0.098209	-0.208088
H258	H	-0.466231	0.401791	0.291912
H259	H	-1.006984	-0.020285	-0.239163
H260	H	-0.506984	0.479715	0.260837
H261	H	-0.803318	0.207311	-0.428211
H262	H	-0.303318	0.707311	0.071789
O263	O	-0.838435	-0.032296	-0.422172
O264	O	-0.338435	0.467704	0.077828
C265	C	-0.784605	-0.072458	-0.441506
C266	C	-0.284605	0.427542	0.058494
H267	H	-0.737584	-0.036584	-0.463173
H268	H	-0.237584	0.463416	0.036827
H269	H	-0.768842	-0.101728	-0.389715
H270	H	-0.268842	0.398272	0.110285
H271	H	-0.803860	-0.111537	-0.487262
H272	H	-0.303860	0.388463	0.012738
H273	H	-0.734241	0.178392	-0.328181
H274	H	-0.234241	0.678392	0.171819
H275	H	-0.147101	0.205028	0.000338
H276	H	0.352899	0.705028	0.500338
H277	H	-0.731276	0.538615	0.079832
H278	H	-0.231276	1.038615	0.579832
H279	H	-0.707675	0.765603	0.000168
H280	H	-0.207675	1.265603	0.500168
O281	O	-0.913642	-0.000764	-0.334460
O282	O	-0.413642	0.499236	0.165540
C283	C	-0.956385	0.036333	-0.379980
C284	C	-0.456385	0.536333	0.120020
H285	H	-0.928545	0.090754	-0.391769
H286	H	-0.428545	0.590754	0.108231
H287	H	-0.967474	0.007315	-0.435403
H288	H	-0.467474	0.507315	0.064597
H289	H	-1.007698	0.040925	-0.349578
H290	H	-0.507698	0.540925	0.150422
O291	O	-0.699808	0.904157	0.000175
O292	O	-0.199808	1.404157	0.500175
C293	C	-0.714432	0.974049	0.000143
C294	C	-0.214432	1.474049	0.500143
H295	H	-0.768983	0.976672	0.023855
H296	H	-0.268983	1.476672	0.523855
H297	H	-0.674411	1.007021	0.036471
H298	H	-0.174411	1.507021	0.536471
H299	H	-0.711727	0.994970	-0.059923
H300	H	-0.211727	1.494970	0.440077
H301	H	-0.939303	0.866269	0.000245
H302	H	-0.439303	1.366269	0.500245
H303	H	-0.015674	0.203099	0.000357
H304	H	0.484326	0.703099	0.500357
