data_functionalizedCrystal
_audit_creation_method	'MofGen! by Chris Wilmer'
_symmetry_space_group_name_H-M	'P1'
_symmetry_Int_Tables_number	1
_symmetry_cell_setting	triclinic
loop_
_symmetry_equiv_pos_as_xyz
  x,y,z
_cell_length_a	13.897448
_cell_length_b	21.395362
_cell_length_c	21.395356
_cell_angle_alpha	89.957023
_cell_angle_beta	89.975201
_cell_angle_gamma	90.033571
loop_
_atom_site_label
_atom_site_type_symbol
_atom_site_fract_x
_atom_site_fract_y
_atom_site_fract_z
Zn1	Zn	-0.383630	0.957910	-0.354598
Zn2	Zn	-0.050297	1.291244	-0.021265
Zn3	Zn	0.283036	1.624577	0.312068
Zn4	Zn	-0.544936	0.957838	-0.249826
Zn5	Zn	-0.211602	1.291172	0.083507
Zn6	Zn	0.121731	1.624505	0.416841
Zn7	Zn	-0.383701	0.853127	-0.249799
Zn8	Zn	-0.050368	1.186460	0.083534
Zn9	Zn	0.282966	1.519794	0.416867
Zn10	Zn	-0.544930	0.853118	-0.354531
Zn11	Zn	-0.211597	1.186451	-0.021197
Zn12	Zn	0.121737	1.519785	0.312136
O13	O	-0.464299	0.905498	-0.302189
O14	O	-0.130966	1.238832	0.031145
O15	O	0.202367	1.572165	0.364478
O16	O	-0.405001	1.045579	-0.340739
O17	O	-0.071667	1.378912	-0.007406
O18	O	0.261666	1.712245	0.325927
O19	O	-0.523580	0.943922	-0.162145
O20	O	-0.190246	1.277255	0.171189
O21	O	0.143087	1.610588	0.504522
O22	O	-0.248710	0.867060	-0.263718
O23	O	0.084623	1.200394	0.069615
O24	O	0.417957	1.533727	0.402948
O25	O	-0.523511	1.045526	-0.263764
O26	O	-0.190178	1.378859	0.069570
O27	O	0.143155	1.712192	0.402903
O28	O	-0.248658	0.944044	-0.340714
O29	O	0.084675	1.277378	-0.007380
O30	O	0.418009	1.610711	0.325953
O31	O	-0.405121	0.866991	-0.162125
O32	O	-0.071788	1.200324	0.171208
O33	O	0.261545	1.533657	0.504542
O34	O	-0.405116	0.765448	-0.263653
O35	O	-0.071782	1.098781	0.069680
O36	O	0.261551	1.432114	0.403014
O37	O	-0.523501	0.867045	-0.442218
O38	O	-0.190168	1.200379	-0.108884
O39	O	0.143166	1.533712	0.224449
O40	O	-0.523570	0.765441	-0.340599
O41	O	-0.190236	1.098775	-0.007265
O42	O	0.143097	1.432108	0.326068
O43	O	-0.404995	0.944036	-0.442267
O44	O	-0.071662	1.277369	-0.108934
O45	O	0.261672	1.610702	0.224399
O46	O	-0.679917	0.943913	-0.263698
O47	O	-0.346583	1.277246	0.069635
O48	O	-0.013250	1.610580	0.402968
O49	O	-0.679912	0.866976	-0.340624
O50	O	-0.346579	1.200309	-0.007291
O51	O	-0.013246	1.533642	0.326042
C52	C	-0.464350	0.742711	-0.302116
C53	C	-0.131017	1.076044	0.031217
C54	C	0.202316	1.409377	0.364551
C55	C	-0.464395	0.673069	-0.302100
C56	C	-0.131062	1.006403	0.031234
C57	C	0.202271	1.339736	0.364567
C58	C	-0.526156	0.640369	-0.342105
C59	C	-0.192823	0.973703	-0.008772
C60	C	0.140511	1.307036	0.324561
C61	C	-0.526133	0.574934	-0.342133
C62	C	-0.192799	0.908267	-0.008800
C63	C	0.140534	1.241601	0.324533
C64	C	-0.464358	0.542201	-0.302144
C65	C	-0.131025	0.875534	0.031189
C66	C	0.202308	1.208868	0.364522
C67	C	-0.402585	0.574909	-0.262136
C68	C	-0.069252	0.908242	0.071197
C69	C	0.264081	1.241576	0.404531
C70	C	-0.402604	0.640343	-0.262114
C71	C	-0.069271	0.973677	0.071220
C72	C	0.264063	1.307010	0.404553
C73	C	-0.456601	0.438476	-0.245739
C74	C	-0.123268	0.771810	0.087594
C75	C	0.210065	1.105143	0.420928
C76	C	-0.456590	0.373043	-0.245760
C77	C	-0.123256	0.706377	0.087573
C78	C	0.210077	1.039710	0.420907
C79	C	-0.464295	0.340380	-0.302214
C80	C	-0.130962	0.673714	0.031120
C81	C	0.202371	1.007047	0.364453
C82	C	-0.472033	0.373159	-0.358647
C83	C	-0.138700	0.706492	-0.025314
C84	C	0.194634	1.039825	0.308019
C85	C	-0.472052	0.438593	-0.358625
C86	C	-0.138718	0.771926	-0.025292
C87	C	0.194615	1.105259	0.308042
C88	C	-0.464331	0.471249	-0.302164
C89	C	-0.130997	0.804582	0.031169
C90	C	0.202336	1.137915	0.364502
C91	C	-0.526034	0.236728	-0.342253
C92	C	-0.192700	0.570061	-0.008919
C93	C	0.140633	0.903395	0.324414
C94	C	-0.526003	0.171291	-0.342282
C95	C	-0.192670	0.504625	-0.008948
C96	C	0.140663	0.837958	0.324385
C97	C	-0.402461	0.171268	-0.262279
C98	C	-0.069128	0.504601	0.071054
C99	C	0.264205	0.837934	0.404388
C100	C	-0.402487	0.236703	-0.262255
C101	C	-0.069153	0.570036	0.071078
C102	C	0.264180	0.903370	0.404411
C103	C	-0.464278	0.269429	-0.302242
C104	C	-0.130945	0.602763	0.031092
C105	C	0.202389	0.936096	0.364425
C106	C	-0.714914	0.905453	-0.302170
C107	C	-0.381580	1.238786	0.031163
C108	C	-0.048247	1.572119	0.364496
C109	C	-0.822128	0.905490	-0.302184
C110	C	-0.488794	1.238824	0.031150
C111	C	-0.155461	1.572157	0.364483
C112	C	-1.018423	0.905556	-0.302223
C113	C	-0.685089	1.238890	0.031110
C114	C	-0.351756	1.572223	0.364444
C115	C	-0.909190	0.905518	-0.302203
C116	C	-0.575857	1.238851	0.031130
C117	C	-0.242523	1.572185	0.364464
C118	C	-0.212706	0.905561	-0.302221
C119	C	0.120627	1.238895	0.031113
C120	C	0.453960	1.572228	0.364446
C121	C	-0.105492	0.905588	-0.302234
C122	C	0.227841	1.238922	0.031099
C123	C	0.561174	1.572255	0.364433
C124	C	-0.464240	0.905548	-0.465612
C125	C	-0.130906	1.238881	-0.132279
C126	C	0.202427	1.572214	0.201055
C127	C	-0.464214	0.905569	-0.535253
C128	C	-0.130881	1.238902	-0.201920
C129	C	0.202453	1.572235	0.131413
C130	C	-0.464249	1.068922	-0.302262
C131	C	-0.130915	1.402255	0.031071
C132	C	0.202418	1.735588	0.364405
C133	C	-0.464227	1.138563	-0.302293
C134	C	-0.130894	1.471896	0.031040
C135	C	0.202439	1.805230	0.364373
C136	C	-0.402526	0.865521	-0.567946
C137	C	-0.069192	1.198855	-0.234613
C138	C	0.264141	1.532188	0.098720
C139	C	-0.402508	0.865519	-0.633382
C140	C	-0.069175	1.198853	-0.300048
C141	C	0.264159	1.532186	0.033285
C142	C	-0.464168	0.905576	-0.666122
C143	C	-0.130835	1.238909	-0.332788
C144	C	0.202499	1.572242	0.000545
C145	C	-0.525868	0.945626	-0.633421
C146	C	-0.192535	1.278959	-0.300087
C147	C	0.140798	1.612292	0.033246
C148	C	-0.525891	0.945622	-0.567986
C149	C	-0.192558	1.278955	-0.234653
C150	C	0.140775	1.612289	0.098680
C151	C	-0.471728	0.962029	-0.769827
C152	C	-0.138394	1.295362	-0.436494
C153	C	0.194939	1.628695	-0.103161
C154	C	-0.471698	0.962033	-0.835260
C155	C	-0.138365	1.295367	-0.501927
C156	C	0.194969	1.628700	-0.168594
C157	C	-0.464103	0.905586	-0.867942
C158	C	-0.130770	1.238919	-0.534609
C159	C	0.202564	1.572253	-0.201276
C160	C	-0.456518	0.849132	-0.835184
C161	C	-0.123184	1.182466	-0.501850
C162	C	0.210149	1.515799	-0.168517
C163	C	-0.456540	0.849129	-0.769749
C164	C	-0.123207	1.182462	-0.436416
C165	C	0.210126	1.515796	-0.103083
C166	C	-0.464151	0.905583	-0.737074
C167	C	-0.130817	1.238917	-0.403741
C168	C	0.202516	1.572250	-0.070407
C169	C	-0.402392	0.865533	-0.971588
C170	C	-0.069059	1.198866	-0.638255
C171	C	0.264275	1.532200	-0.304922
C172	C	-0.402381	0.865530	-1.037025
C173	C	-0.069048	1.198863	-0.703692
C174	C	0.264286	1.532196	-0.370358
C175	C	-0.525736	0.945642	-1.037062
C176	C	-0.192403	1.278975	-0.703729
C177	C	0.140930	1.612308	-0.370396
C178	C	-0.525753	0.945639	-0.971627
C179	C	-0.192419	1.278973	-0.638294
C180	C	0.140914	1.612306	-0.304960
C181	C	-0.464075	0.905586	-0.938894
C182	C	-0.130742	1.238919	-0.605560
C183	C	0.202591	1.572252	-0.272227
C184	C	-0.464289	0.905485	-0.139401
C185	C	-0.130956	1.238819	0.193932
C186	C	0.202377	1.572152	0.527266
C187	C	-0.464043	0.905586	-0.069760
C188	C	-0.130710	1.238919	0.263573
C189	C	0.202624	1.572252	0.596907
H190	H	-0.576343	0.263375	-0.374815
H191	H	-0.243010	0.596708	-0.041482
H192	H	0.090324	0.930042	0.291852
Cl193	Cl	-0.324956	0.681454	-0.211816
Cl194	Cl	0.008378	1.014787	0.121517
Cl195	Cl	0.341711	1.348121	0.454850
H196	H	-0.352307	0.832904	-0.541299
H197	H	-0.018974	1.166238	-0.207966
H198	H	0.314360	1.499571	0.125368
H199	H	-0.450366	0.803162	-0.743080
H200	H	-0.117033	1.136496	-0.409747
H201	H	0.216301	1.469829	-0.076413
H202	H	-0.450295	0.346360	-0.199808
H203	H	-0.116962	0.679694	0.133525
H204	H	0.216372	1.013027	0.466859
H205	H	-0.576295	0.144668	-0.374863
H206	H	-0.242961	0.478001	-0.041530
H207	H	0.090372	0.811335	0.291804
Cl208	Cl	-0.324850	0.815162	-1.078125
Cl209	Cl	0.008483	1.148495	-0.744792
Cl210	Cl	0.341817	1.481829	-0.411459
H211	H	-0.352159	0.144617	-0.229722
H212	H	-0.018826	0.477951	0.103611
H213	H	0.314508	0.811284	0.436945
H214	H	-0.352171	0.832919	-0.944935
H215	H	-0.018838	1.166252	-0.611602
H216	H	0.314495	1.499585	-0.278269
H217	H	-0.352199	0.263328	-0.229675
H218	H	-0.018866	0.596661	0.103658
H219	H	0.314468	0.929994	0.436991
Cl220	Cl	-0.446917	0.479531	-0.174761
Cl221	Cl	-0.113584	0.812864	0.158572
Cl222	Cl	0.219749	1.146198	0.491905
H223	H	-0.575939	0.978258	-1.063719
H224	H	-0.242606	1.311591	-0.730385
H225	H	0.090727	1.644924	-0.397052
H226	H	-0.575984	0.978252	-0.945008
H227	H	-0.242650	1.311585	-0.611675
H228	H	0.090683	1.644918	-0.278341
Cl229	Cl	-0.481283	1.032998	-0.728748
Cl230	Cl	-0.147950	1.366331	-0.395415
Cl231	Cl	0.185383	1.699664	-0.062081
Cl232	Cl	-0.481245	1.033002	-0.876436
Cl233	Cl	-0.147911	1.366335	-0.543103
Cl234	Cl	0.185422	1.699668	-0.209769
Cl235	Cl	-0.324922	0.533760	-0.211867
Cl236	Cl	0.008412	0.867094	0.121466
Cl237	Cl	0.341745	1.200427	0.454799
H238	H	-0.352269	0.832909	-0.660006
H239	H	-0.018936	1.166242	-0.326672
H240	H	0.314398	1.499576	0.006661
Cl241	Cl	-0.603389	0.995979	-0.674578
Cl242	Cl	-0.270055	1.329312	-0.341245
Cl243	Cl	0.063278	1.662646	-0.007912
H244	H	-0.576124	0.978236	-0.541368
H245	H	-0.242791	1.311569	-0.208035
H246	H	0.090542	1.644903	0.125299
H247	H	-0.450326	0.803168	-0.861792
H248	H	-0.116993	1.136501	-0.528459
H249	H	0.216340	1.469834	-0.195125
H250	H	-0.576470	0.667011	-0.374666
H251	H	-0.243137	1.000344	-0.041333
H252	H	0.090196	1.333678	0.292001
H253	H	-0.576425	0.548304	-0.374713
H254	H	-0.243092	0.881638	-0.041380
H255	H	0.090242	1.214971	0.291954
Cl256	Cl	-0.481715	0.332104	-0.429623
Cl257	Cl	-0.148382	0.665438	-0.096290
Cl258	Cl	0.184952	0.998771	0.237044
Cl259	Cl	-0.481772	0.479798	-0.429567
Cl260	Cl	-0.148439	0.813131	-0.096234
Cl261	Cl	0.184894	1.146464	0.237100
