data_functionalizedCrystal
_audit_creation_method	'MofGen! by Chris Wilmer'
_symmetry_space_group_name_H-M	'P1'
_symmetry_Int_Tables_number	1
_symmetry_cell_setting	triclinic
loop_
_symmetry_equiv_pos_as_xyz
  x,y,z
_cell_length_a	21.295420
_cell_length_b	21.295417
_cell_length_c	19.076919
_cell_angle_alpha	87.732301
_cell_angle_beta	87.719118
_cell_angle_gamma	90.027953
loop_
_atom_site_label
_atom_site_type_symbol
_atom_site_fract_x
_atom_site_fract_y
_atom_site_fract_z
Zn1	Zn	0.948011	-0.264951	0.397936
Zn2	Zn	0.952159	-0.365990	0.280235
Zn3	Zn	0.846977	-0.260737	0.280255
Zn4	Zn	0.842707	-0.370181	0.397890
O5	O	0.897464	-0.315465	0.339079
O6	O	1.036650	-0.278364	0.382334
O7	O	0.941729	-0.348511	0.181749
O8	O	0.860431	-0.173207	0.295893
O9	O	1.039698	-0.352597	0.295860
O10	O	0.934660	-0.176303	0.382353
O11	O	0.864453	-0.271181	0.181764
O12	O	0.758322	-0.275245	0.295848
O13	O	0.853153	-0.359739	0.496385
O14	O	0.755184	-0.355653	0.382274
O15	O	0.930519	-0.282427	0.496419
O16	O	0.937588	-0.454635	0.295815
O17	O	0.857175	-0.457714	0.382255
C18	C	0.733913	-0.315447	0.339059
C19	C	0.663944	-0.315455	0.339067
C20	C	0.162870	-0.357406	0.384037
C21	C	0.228613	-0.357406	0.384030
C22	C	0.263104	-0.315480	0.339101
C23	C	0.231847	-0.273562	0.294164
C24	C	0.166105	-0.273567	0.294167
N25	N	0.366534	-0.260173	0.333809
N26	N	0.428986	-0.260170	0.333809
C27	C	0.461179	-0.315462	0.339086
N28	N	0.428561	-0.370759	0.344376
N29	N	0.366103	-0.370761	0.344379
C30	C	0.334389	-0.315469	0.339092
C31	C	0.563714	-0.357380	0.384009
C32	C	0.629458	-0.357381	0.383997
C33	C	0.632690	-0.273531	0.294134
C34	C	0.566948	-0.273536	0.294143
C35	C	0.532463	-0.315459	0.339084
C36	C	0.897385	-0.479015	0.339043
C37	C	0.897408	-0.548983	0.339052
C38	C	0.936034	-0.583406	0.384104
C39	C	0.936056	-0.649149	0.384121
C40	C	0.897458	-0.680467	0.339074
C41	C	0.858823	-0.646036	0.294019
C42	C	0.858798	-0.580294	0.294008
N43	N	0.894919	-0.781515	0.277479
N44	N	0.894947	-0.843967	0.277492
C45	C	0.897530	-0.878543	0.339106
N46	N	0.900098	-0.848307	0.400708
N47	N	0.900073	-0.785850	0.400695
C48	C	0.897480	-0.751752	0.339081
C49	C	0.936183	-0.984252	0.384180
C50	C	0.936200	-1.049996	0.384199
C51	C	0.858970	-1.046881	0.294090
C52	C	0.858950	-0.981138	0.294078
C53	C	0.897559	-0.949827	0.339122
C54	C	1.061653	-0.315483	0.339100
C55	C	1.131621	-0.315491	0.339109
C56	C	0.890897	-0.322021	0.522653
C57	C	0.888099	-0.324814	0.600881
C58	C	0.897559	-0.151276	0.339130
C59	C	0.897600	-0.081309	0.339152
C60	C	0.904041	-0.308889	0.156219
C61	C	0.906961	-0.305918	0.077992
C62	C	0.927063	-0.285876	0.637652
C63	C	0.924426	-0.288499	0.711155
C64	C	0.882828	-0.330063	0.747887
C65	C	0.843859	-0.369003	0.711111
C66	C	0.846494	-0.366377	0.637609
C67	C	0.870627	-0.342231	0.967714
C68	C	0.867997	-0.344856	1.041221
C69	C	0.948563	-0.264351	1.041260
C70	C	0.951196	-0.261731	0.967756
C71	C	0.912226	-0.300668	0.930987
N72	N	0.880133	-0.332747	0.823020
N73	N	0.914918	-0.297981	0.855856
H74	H	0.254061	-0.391538	0.420619
H75	H	0.967471	-0.557915	0.420783
H76	H	0.259933	-0.239426	0.257581
H77	H	0.960938	-0.252032	0.607750
H78	H	0.654900	-0.391517	0.420582
H79	H	0.827395	-0.671539	0.257343
O80	O	0.973632	-0.682500	0.427915
C81	C	1.050192	-0.678658	0.517328
C82	C	1.007684	-0.640814	0.467751
H83	H	1.077724	-0.644971	0.549558
H84	H	1.084338	-0.708256	0.485094
H85	H	1.019943	-0.710773	0.554071
H86	H	1.037882	-0.608665	0.430998
H87	H	0.973535	-0.611257	0.500028
H88	H	0.956156	-0.256793	0.741091
H89	H	0.140662	-0.239433	0.257581
H90	H	0.967654	-1.078022	0.420888
O91	O	0.821522	-0.947625	0.250274
C92	C	0.816499	-0.870078	0.155203
C93	C	0.858962	-0.907980	0.204778
H94	H	0.846753	-0.838025	0.118397
H95	H	0.782406	-0.840424	0.187438
H96	H	0.788899	-0.903764	0.123041
H97	H	0.886602	-0.874339	0.236951
H98	H	0.893015	-0.937642	0.172503
O99	O	0.973590	-0.953762	0.427973
C100	C	0.978552	-0.882911	0.523015
C101	C	0.936119	-0.917390	0.473452
H102	H	0.948274	-0.853507	0.559807
H103	H	1.012624	-0.850924	0.490769
H104	H	1.006177	-0.918819	0.555193
H105	H	0.908454	-0.881528	0.441263
H106	H	0.902087	-0.949388	0.505738
H107	H	0.985071	-0.227886	0.937854
O108	O	0.821259	-0.546948	0.250174
C109	C	0.744631	-0.550797	0.160835
C110	C	0.787123	-0.588640	0.210430
H111	H	0.717011	-0.584489	0.128700
H112	H	0.774834	-0.518712	0.124010
H113	H	0.710555	-0.521169	0.193120
H114	H	0.821206	-0.618304	0.178202
H115	H	0.756881	-0.620685	0.247257
O116	O	0.530308	-0.398162	0.427686
C117	C	0.534038	-0.481291	0.516858
C118	C	0.571945	-0.435153	0.467415
H119	H	0.567684	-0.511201	0.549002
H120	H	0.504408	-0.513053	0.484524
H121	H	0.501949	-0.453739	0.553687
H122	H	0.604068	-0.462653	0.430576
H123	H	0.601533	-0.403390	0.499792
H124	H	0.660772	-0.239396	0.257550
O125	O	0.821529	-1.077393	0.250359
C126	C	0.787300	-1.177293	0.210484
C127	C	0.829749	-1.142814	0.260030
H128	H	0.793921	-1.230192	0.218297
H129	H	0.800416	-1.162403	0.153724
H130	H	0.736096	-1.164803	0.222787
H131	H	0.880965	-1.155286	0.247790
H132	H	0.816579	-1.157706	0.316775
O133	O	0.536686	-0.232753	0.250482
C134	C	0.546833	-0.149612	0.161323
C135	C	0.581182	-0.195755	0.210749
H136	H	0.582793	-0.119696	0.129175
H137	H	0.514933	-0.117856	0.193671
H138	H	0.517337	-0.177160	0.124497
H139	H	0.610712	-0.168258	0.247585
H140	H	0.613044	-0.227511	0.178358
O141	O	0.986349	-0.226549	1.077087
C142	C	1.018023	-0.194936	1.190338
C143	C	0.975186	-0.237775	1.149853
H144	H	1.009022	-0.204007	1.249177
H145	H	1.007511	-0.143649	1.175951
H146	H	1.069288	-0.205470	1.175851
H147	H	0.923907	-0.227298	1.164319
H148	H	0.985752	-0.289049	1.164243
O149	O	0.808580	-0.404115	0.601861
C150	C	0.726582	-0.409617	0.518829
C151	C	0.769475	-0.366805	0.559278
H152	H	0.694965	-0.379470	0.484380
H153	H	0.696357	-0.439763	0.557679
H154	H	0.756708	-0.441321	0.484443
H155	H	0.739398	-0.335064	0.593664
H156	H	0.799704	-0.336702	0.520390
O157	O	0.827634	-0.385210	1.077013
C158	C	0.787838	-0.424891	1.190232
C159	C	0.833587	-0.379178	1.149786
H160	H	0.792626	-0.420021	1.249077
H161	H	0.799367	-0.475154	1.175823
H162	H	0.737615	-0.413309	1.175732
H163	H	0.883826	-0.390703	1.164265
H164	H	0.822004	-0.328928	1.164199
O165	O	0.832741	-0.380109	0.932111
C166	C	0.752504	-0.460186	0.939836
C167	C	0.795393	-0.417340	0.980247
H168	H	0.722288	-0.490289	0.978736
H169	H	0.782570	-0.491924	0.905428
H170	H	0.720869	-0.430028	0.905419
H171	H	0.827036	-0.447449	1.014702
H172	H	0.765289	-0.385599	1.014611
O173	O	0.803539	-0.409446	0.746823
C174	C	0.792044	-0.497374	0.829811
C175	C	0.837776	-0.451621	0.789402
H176	H	0.819705	-0.531475	0.864257
H177	H	0.764655	-0.524800	0.790935
H178	H	0.757903	-0.469684	0.864196
H179	H	0.871956	-0.479262	0.755016
H180	H	0.865119	-0.424194	0.828316
H181	H	0.134797	-0.391546	0.420630
