data_functionalizedCrystal
_audit_creation_method	'MofGen! by Chris Wilmer'
_symmetry_space_group_name_H-M	'P1'
_symmetry_Int_Tables_number	1
_symmetry_cell_setting	triclinic
loop_
_symmetry_equiv_pos_as_xyz
  x,y,z
_cell_length_a	11.026607
_cell_length_b	15.944551
_cell_length_c	10.065875
_cell_angle_alpha	98.788968
_cell_angle_beta	79.302338
_cell_angle_gamma	96.042377
loop_
_atom_site_label
_atom_site_type_symbol
_atom_site_fract_x
_atom_site_fract_y
_atom_site_fract_z
O1	O	1.627949	0.342077	-0.113512
O2	O	1.274640	0.302024	-0.113511
O3	O	1.460941	0.201235	-0.113499
O4	O	1.441648	0.442866	-0.113524
O5	O	1.425416	0.220553	0.113487
O6	O	1.239115	0.321342	0.113475
O7	O	1.592424	0.361394	0.113475
Zn8	Zn	1.410129	0.344435	0.149514
Zn9	Zn	1.456935	0.318983	-0.149550
O10	O	1.406123	0.462183	0.113463
C11	C	1.211666	0.304294	-0.000018
C12	C	1.076950	0.282267	-0.000017
C13	C	1.003150	0.343086	-0.000024
C14	C	0.863914	0.320322	-0.000024
C15	C	1.442377	0.179479	-0.000006
C16	C	1.439975	0.085870	-0.000005
C17	C	1.318759	-0.147313	-0.000024
C18	C	1.357533	-0.190296	0.111894
C19	C	1.435632	-0.085514	-0.000015
C20	C	1.392586	-0.209321	-0.111896
C21	C	1.431429	-0.251063	-0.000031
C22	C	1.474424	-0.127256	0.111995
C23	C	1.509476	-0.146286	-0.111896
C24	C	1.548331	-0.189236	0.000049
C25	C	1.438050	0.009855	-0.000005
C26	C	1.429019	-0.346429	-0.000032
C27	C	1.655399	0.359124	-0.000022
C28	C	1.790116	0.381150	-0.000031
C29	C	1.424687	0.483939	-0.000034
C30	C	1.427090	0.577548	-0.000043
N31	N	1.378194	0.361806	0.353617
N32	N	1.488879	0.301607	-0.353654
C33	C	1.445816	0.325021	0.421401
C34	C	1.421248	0.338398	0.578566
H35	H	1.043047	0.412009	-0.000024
H36	H	1.037057	0.213342	-0.000045
N37	N	1.282742	0.413729	0.426789
N38	N	1.262915	0.424519	0.554357
H39	H	1.195498	0.461190	0.606035
N40	N	0.840154	0.467617	-0.000068
N41	N	0.831408	0.506959	-0.095760
H42	H	0.866749	0.568025	-0.095790
N43	N	1.197034	-0.123921	0.000120
N44	N	1.111284	-0.138305	0.096070
H45	H	1.025316	-0.121783	0.096177
N46	N	1.584371	0.249710	0.573179
N47	N	1.694106	0.269027	0.589003
H48	H	1.761557	0.232387	0.537319
N49	N	1.276934	-0.214792	0.230586
N50	N	1.164744	-0.201819	0.250527
H51	H	1.107813	-0.219119	0.334348
N52	N	1.325810	0.390347	0.651712
N53	N	1.330256	0.466917	0.635857
H54	H	1.262855	0.503606	0.687517
N55	N	1.517793	-0.082693	0.230815
N56	N	1.526589	-0.003125	0.250020
H57	H	1.557214	0.028350	0.333937
N58	N	1.670127	-0.212406	0.000134
N59	N	1.725639	-0.181840	0.096311
H60	H	1.811657	-0.198203	0.096377
H61	H	1.573676	-0.126742	-0.206519
H62	H	0.824027	0.251392	-0.000052
H63	H	1.357946	-0.244926	-0.206521
N64	N	1.541249	0.273082	0.348229
N65	N	1.561068	0.262285	0.220661
H66	H	1.628469	0.225601	0.168984
