data_functionalizedCrystal
_audit_creation_method	'MofGen! by Chris Wilmer'
_symmetry_space_group_name_H-M	'P1'
_symmetry_Int_Tables_number	1
_symmetry_cell_setting	triclinic
loop_
_symmetry_equiv_pos_as_xyz
  x,y,z
_cell_length_a	19.288840
_cell_length_b	15.995292
_cell_length_c	18.366186
_cell_angle_alpha	89.996953
_cell_angle_beta	89.983729
_cell_angle_gamma	83.297316
loop_
_atom_site_label
_atom_site_type_symbol
_atom_site_fract_x
_atom_site_fract_y
_atom_site_fract_z
O1	O	0.921617	0.104354	-0.060666
O2	O	0.719388	0.118467	-0.060640
O3	O	0.826051	-0.010502	-0.060655
O4	O	0.814953	0.233323	-0.060651
O5	O	0.826033	-0.010508	0.060444
O6	O	0.719370	0.118461	0.060459
O7	O	0.921599	0.104348	0.060433
Zn8	Zn	0.820481	0.111403	0.079673
Zn9	Zn	0.820505	0.111412	-0.079880
O10	O	0.814935	0.233317	0.060448
C11	C	0.693501	0.118013	-0.000087
C12	C	0.616393	0.116661	-0.000078
C13	C	0.580198	0.116014	-0.066091
C14	C	0.507748	0.114734	-0.066100
C15	C	0.471498	0.114083	-0.000092
C16	C	0.507701	0.114735	0.065930
C17	C	0.580149	0.116023	0.065937
C18	C	0.362039	0.062995	0.050469
C19	C	0.289593	0.061701	0.050459
C20	C	0.248044	0.110112	-0.000111
C21	C	0.278952	0.159807	-0.050683
C22	C	0.351400	0.161096	-0.050676
C23	C	0.392940	0.112686	-0.000092
C24	C	0.133290	0.108079	-0.066138
C25	C	0.060839	0.106804	-0.066144
C26	C	0.060794	0.106796	0.065887
C27	C	0.133244	0.108079	0.065892
C28	C	0.169488	0.108717	-0.000123
C29	C	0.825591	-0.041699	-0.000107
C30	C	0.824236	-0.134646	-0.000112
C31	C	0.819258	-0.472366	-0.000105
C32	C	0.896245	-0.449352	0.000155
C33	C	0.897708	-0.352682	-0.000120
C34	C	0.821728	-0.304819	-0.000108
C35	C	0.783249	-0.333767	-0.069255
C36	C	0.782322	-0.430554	-0.069310
C37	C	0.780729	-0.430412	0.068403
C38	C	0.783582	-0.333931	0.069314
C39	C	0.823120	-0.210129	-0.000113
C40	C	0.817864	-0.567056	-0.000106
C41	C	0.947485	0.104802	-0.000121
C42	C	1.024593	0.106155	-0.000136
C43	C	0.815396	0.264514	-0.000102
C44	C	0.816750	0.357462	-0.000101
N45	N	0.820470	0.111397	0.188564
N46	N	0.820522	0.111411	-0.188772
C47	C	0.867716	0.054318	0.226658
C48	C	0.867720	0.054314	0.302886
C49	C	0.820485	0.111404	0.341017
C50	C	0.773230	0.168488	0.302914
C51	C	0.773223	0.168484	0.226688
C52	C	0.811372	0.187698	0.461779
C53	C	0.811384	0.187703	0.538004
C54	C	0.820505	0.111415	0.576125
C55	C	0.829628	0.035119	0.538011
C56	C	0.829620	0.035115	0.461784
C57	C	0.820488	0.111414	0.423672
C58	C	0.867759	0.054326	0.696873
C59	C	0.867758	0.054322	0.773103
C60	C	0.773271	0.168503	0.773129
C61	C	0.773269	0.168500	0.696901
C62	C	0.820516	0.111413	0.658778
H63	H	0.609618	0.116550	0.119695
H64	H	0.734799	0.214983	0.665883
H65	H	0.925762	-0.478482	-0.049162
F66	F	0.839340	-0.046079	0.578575
F67	F	0.801680	0.268903	0.578561
F68	F	0.820200	-0.309805	0.136178
F69	F	0.935024	-0.486099	0.064971
F70	F	0.710170	-0.291828	-0.072609
H71	H	0.264434	0.021232	0.091634
H72	H	0.478181	0.114207	0.119674
H73	H	0.928038	-0.334393	-0.049781
F74	F	0.708544	-0.449289	-0.073405
H75	H	0.395862	0.023570	0.091652
F76	F	0.818195	-0.307683	-0.136527
H77	H	0.162801	0.108607	-0.119891
H78	H	0.728124	-0.300747	0.073499
H79	H	0.927845	-0.333776	0.049445
H80	H	0.031369	0.106283	-0.119903
H81	H	0.724061	-0.444183	0.068877
H82	H	0.906186	0.007832	0.195620
F83	F	0.022218	0.106110	0.136139
F84	F	0.801714	0.268902	0.421216
F85	F	0.722935	0.229239	0.186144
H86	H	0.734770	0.214970	0.333964
H87	H	0.906195	0.007831	0.333908
F88	F	0.817178	-0.465740	-0.136879
H89	H	0.804966	-0.458598	0.120816
F90	F	0.839324	-0.046082	0.421223
F91	F	0.918040	-0.006434	0.656299
H92	H	0.906230	0.007836	0.804119
F93	F	0.722996	0.229257	0.813707
F94	F	0.384291	0.213985	-0.104495
F95	F	0.234738	0.211337	-0.104506
F96	F	0.171767	0.108763	0.136153
H97	H	0.478272	0.114209	-0.119857
F98	F	0.618767	0.116696	-0.136350
