data_functionalizedCrystal
_audit_creation_method	'MofGen! by Chris Wilmer'
_symmetry_space_group_name_H-M	'P1'
_symmetry_Int_Tables_number	1
_symmetry_cell_setting	triclinic
loop_
_symmetry_equiv_pos_as_xyz
  x,y,z
_cell_length_a	15.297475
_cell_length_b	25.639239
_cell_length_c	25.639234
_cell_angle_alpha	89.975416
_cell_angle_beta	80.317879
_cell_angle_gamma	80.340538
loop_
_atom_site_label
_atom_site_type_symbol
_atom_site_fract_x
_atom_site_fract_y
_atom_site_fract_z
Zn1	Zn	1.379042	-0.346723	-0.433686
Zn2	Zn	1.378897	-0.434136	-0.346235
Zn3	Zn	1.228187	-0.331576	-0.331160
Zn4	Zn	1.228105	-0.418966	-0.418542
O5	O	1.303558	-0.382851	-0.382406
O6	O	1.505263	-0.371007	-0.434732
O7	O	1.358879	-0.420541	-0.271068
O8	O	1.248293	-0.260430	-0.344789
O9	O	1.505157	-0.435229	-0.370483
O10	O	1.359125	-0.271558	-0.420114
O11	O	1.248152	-0.345191	-0.259992
O12	O	1.101935	-0.330481	-0.330104
O13	O	1.248153	-0.409373	-0.493718
O14	O	1.101875	-0.394686	-0.394303
O15	O	1.359046	-0.356297	-0.504845
O16	O	1.358799	-0.505280	-0.355798
O17	O	1.248013	-0.494134	-0.408922
C18	C	1.069172	-0.359294	-0.358925
C19	C	0.968901	-0.349229	-0.348892
C20	C	0.686228	-0.454790	-0.454112
C21	C	0.780437	-0.464250	-0.463537
C22	C	0.827558	-0.435496	-0.434877
C23	C	0.780460	-0.397279	-0.396790
C24	C	0.686241	-0.387821	-0.387361
C25	C	0.827571	-0.368527	-0.368126
C26	C	0.780472	-0.330310	-0.330039
C27	C	0.686263	-0.320853	-0.320612
C28	C	0.639142	-0.349608	-0.349273
C29	C	0.921790	-0.377985	-0.377554
C30	C	0.921803	-0.311016	-0.310804
C31	C	0.827593	-0.301556	-0.301379
C32	C	1.303406	-0.518678	-0.382367
C33	C	1.303423	-0.576794	-0.382376
C34	C	1.361395	-0.942976	-0.354816
C35	C	1.361430	-0.997584	-0.354827
O36	O	1.410561	-1.030753	-0.331353
N37	N	1.303716	-1.019105	-0.382456
C38	C	1.245970	-0.986017	-0.410081
O39	O	1.196884	-1.009337	-0.433583
C40	C	1.245941	-0.931410	-0.410073
C41	C	1.303651	-0.909891	-0.382438
C42	C	1.419102	-0.921457	-0.327184
C43	C	1.419065	-0.866853	-0.327173
C44	C	1.361322	-0.833768	-0.354794
C45	C	1.303615	-0.855287	-0.382427
C46	C	1.188200	-0.898323	-0.437701
C47	C	1.188176	-0.843714	-0.437691
C48	C	1.245887	-0.822195	-0.410056
C49	C	1.245835	-0.767598	-0.410037
N50	N	1.303549	-0.746077	-0.382408
C51	C	1.361292	-0.779161	-0.354786
C52	C	1.246038	-1.100694	-0.410096
C53	C	1.246063	-1.155299	-0.410101
C54	C	1.361524	-1.166863	-0.354847
C55	C	1.361494	-1.112256	-0.354840
C56	C	1.303752	-1.079173	-0.382467
C57	C	1.361211	-0.664488	-0.354765
C58	C	1.361167	-0.609878	-0.354754
C59	C	1.245710	-0.598320	-0.410010
C60	C	1.245750	-0.652925	-0.410018
C61	C	1.303508	-0.686008	-0.382394
O62	O	1.196731	-0.734398	-0.433501
O63	O	1.410378	-0.755835	-0.331294
C64	C	1.538858	-0.406499	-0.405978
C65	C	1.639129	-0.416577	-0.416024
C66	C	1.303606	-0.382832	-0.518784
C67	C	1.303627	-0.382825	-0.576900
C68	C	1.303734	-0.246495	-0.382459
C69	C	1.303810	-0.188389	-0.382481
C70	C	1.361306	-0.422019	-0.833855
C71	C	1.361297	-0.422029	-0.779250
O72	O	1.410295	-0.455407	-0.755908
N73	N	1.303647	-0.382801	-0.746176
C74	C	1.245996	-0.343564	-0.767708
O75	O	1.196959	-0.310199	-0.734562
C76	C	1.246002	-0.343557	-0.822312
C77	C	1.303662	-0.382784	-0.855385
C78	C	1.418961	-0.461243	-0.866927
C79	C	1.418971	-0.461233	-0.921529
C80	C	1.361327	-0.421998	-0.943059
C81	C	1.303672	-0.382773	-0.909986
C82	C	1.188347	-0.304322	-0.843844
C83	C	1.188358	-0.304318	-0.898452
C84	C	1.246018	-0.343546	-0.931524
C85	C	1.246039	-0.343528	-0.986118
N86	N	1.303689	-0.382755	-1.019192
C87	C	1.361333	-0.421990	-0.997662
C88	C	1.245988	-0.343583	-0.653037
C89	C	1.245986	-0.343588	-0.598434
C90	C	1.361286	-0.422053	-0.609980
C91	C	1.361291	-0.422046	-0.664584
C92	C	1.303638	-0.382811	-0.686111
C93	C	1.361351	-0.421965	-1.112329
C94	C	1.361359	-0.421949	-1.166936
C95	C	1.246056	-0.343485	-1.155385
C96	C	1.246051	-0.343499	-1.100784
C97	C	1.303702	-0.382743	-1.079258
O98	O	1.197062	-0.310168	-1.009496
O99	O	1.410353	-0.455354	-1.030814
C100	C	1.303561	-0.382836	-0.246563
C101	C	1.303715	-0.382714	-0.188465
H102	H	0.960128	-0.409101	-0.408566
H103	H	1.141156	-0.816779	-0.460190
H104	H	0.562429	-0.341906	-0.341602
F105	F	1.126976	-0.262571	-0.808656
F106	F	0.971947	-0.280413	-0.280297
H107	H	0.904268	-0.443201	-0.442553
F108	F	1.422709	-0.463733	-1.089427
F109	F	0.636139	-0.280184	-0.280073
H110	H	1.465921	-0.493177	-0.948452
F111	F	1.422683	-0.699691	-0.325364
F112	F	0.777456	-0.260884	-0.260845
F113	F	1.422593	-0.586980	-0.325339
H114	H	1.466128	-0.948390	-0.304691
H115	H	1.141201	-0.915833	-0.460202
F116	F	1.184261	-0.563100	-0.439406
F117	F	0.636074	-0.485397	-0.484601
H118	H	1.408317	-0.453893	-1.193862
H119	H	1.465903	-0.493196	-0.849405
F120	F	1.480500	-0.843959	-0.297766
F121	F	1.422917	-1.089359	-0.325427
H122	H	1.408243	-0.453988	-0.691508
H123	H	1.408544	-1.193811	-0.332359
F124	F	1.184629	-1.178194	-0.439507
F125	F	1.184571	-1.065487	-0.439498
H126	H	1.198760	-0.670446	-0.432523
H127	H	1.408222	-0.454001	-0.592441
F128	F	1.184628	-0.301831	-0.563243
H129	H	1.199042	-0.311628	-0.670561
F130	F	1.126997	-0.262556	-0.921359
F131	F	1.184693	-0.301745	-1.065586
H132	H	1.199126	-0.311540	-1.172925
H133	H	0.818778	-0.495367	-0.494546
