data_functionalizedCrystal
_audit_creation_method	'MofGen! by Chris Wilmer'
_symmetry_space_group_name_H-M	'P1'
_symmetry_Int_Tables_number	1
_symmetry_cell_setting	triclinic
loop_
_symmetry_equiv_pos_as_xyz
  x,y,z
_cell_length_a	16.625546
_cell_length_b	12.827893
_cell_length_c	12.827885
_cell_angle_alpha	89.980728
_cell_angle_beta	90.035124
_cell_angle_gamma	89.977561
loop_
_atom_site_label
_atom_site_type_symbol
_atom_site_fract_x
_atom_site_fract_y
_atom_site_fract_z
Zn1	Zn	-0.320963	-1.597618	0.590810
Zn2	Zn	-0.455817	-1.597491	0.416054
Zn3	Zn	-0.321002	-1.422860	0.416084
Zn4	Zn	-0.455757	-1.422823	0.590754
O5	O	-0.388385	-1.510198	0.503425
O6	O	-0.338861	-1.743837	0.567639
O7	O	-0.437976	-1.574287	0.269822
O8	O	-0.208165	-1.446110	0.439297
O9	O	-0.437937	-1.743744	0.439247
O10	O	-0.208136	-1.574505	0.567668
O11	O	-0.338928	-1.445987	0.269843
O12	O	-0.338869	-1.276619	0.439243
O13	O	-0.437835	-1.446048	0.736997
O14	O	-0.437873	-1.276592	0.567572
O15	O	-0.338802	-1.574469	0.737039
O16	O	-0.568642	-1.574252	0.439192
O17	O	-0.568598	-1.445925	0.567544
C18	C	-0.597876	-1.510099	0.503382
C19	C	-0.687497	-1.510152	0.503398
C20	C	-0.388370	-1.238688	0.503405
C21	C	-0.388382	-1.122535	0.503422
C22	C	-0.388308	-1.510269	0.775996
C23	C	-0.388275	-1.510299	0.892149
C24	C	-1.015673	-1.510335	0.503507
C25	C	-0.924364	-1.510281	0.503479
C26	C	-0.851588	-1.510243	0.503452
C27	C	-0.760274	-1.510190	0.503425
C28	C	-0.178076	-1.510326	0.503492
C29	C	-0.088455	-1.510380	0.503521
C30	C	-0.388401	-1.782768	0.503446
C31	C	-0.388408	-1.898921	0.503455
C32	C	-0.437449	-1.070765	0.566825
C33	C	-0.437464	-0.950714	0.566844
C34	C	-0.388404	-1.510187	0.231915
C35	C	-0.388210	-1.510359	0.115763
C36	C	-0.339261	-1.573853	0.943954
C37	C	-0.339225	-1.573886	1.064004
H38	H	-0.479444	-1.115319	0.621098
H39	H	-0.430206	-1.455906	0.936673
H40	H	-0.430178	-1.455950	1.071218
Br41	Br	-0.507491	-0.876517	0.657315
Br42	Br	-0.269287	-1.664589	1.138252
Br43	Br	-0.318373	-1.048286	0.412973
H44	H	-0.346401	-0.943436	0.449166
H45	H	-0.297321	-1.628236	0.899429
