data_functionalizedCrystal
_audit_creation_method	'MofGen! by Chris Wilmer'
_symmetry_space_group_name_H-M	'P1'
_symmetry_Int_Tables_number	1
_symmetry_cell_setting	triclinic
loop_
_symmetry_equiv_pos_as_xyz
  x,y,z
_cell_length_a	19.077399
_cell_length_b	29.839131
_cell_length_c	19.076919
_cell_angle_alpha	87.739939
_cell_angle_beta	85.520477
_cell_angle_gamma	92.335155
loop_
_atom_site_label
_atom_site_type_symbol
_atom_site_fract_x
_atom_site_fract_y
_atom_site_fract_z
Zn1	Zn	1.061631	-0.160755	0.355347
Zn2	Zn	1.066265	-0.232740	0.237446
Zn3	Zn	0.948486	-0.160767	0.242202
Zn4	Zn	0.943692	-0.239002	0.360013
O5	O	1.005018	-0.198316	0.298752
O6	O	1.160895	-0.167678	0.335765
O7	O	1.054587	-0.220577	0.139431
O8	O	0.963561	-0.097897	0.257248
O9	O	1.164300	-0.220565	0.249144
O10	O	1.046688	-0.097888	0.340376
O11	O	0.968055	-0.167699	0.142925
O12	O	0.849201	-0.173771	0.261773
O13	O	0.955391	-0.231238	0.458041
O14	O	0.845679	-0.231250	0.348328
O15	O	1.042040	-0.173750	0.454613
O16	O	1.049939	-0.296439	0.253668
O17	O	0.959885	-0.301039	0.343717
C18	C	0.821861	-0.203191	0.306073
C19	C	0.743505	-0.205288	0.309222
C20	C	0.708503	-0.176306	0.265710
C21	C	0.634879	-0.178280	0.268668
C22	C	0.596258	-0.209235	0.315142
C23	C	0.631265	-0.238220	0.358655
C24	C	0.704888	-0.236248	0.355693
C25	C	0.375876	-0.218349	0.328823
C26	C	0.302248	-0.220319	0.331783
C27	C	0.305867	-0.160379	0.241795
C28	C	0.379491	-0.158407	0.238840
C29	C	0.414492	-0.187394	0.282350
N30	N	0.521003	-0.211253	0.318168
N31	N	0.489746	-0.185378	0.279320
C32	C	1.004913	-0.315040	0.298697
C33	C	1.004932	-0.364974	0.298695
C34	C	1.048290	-0.674579	0.342101
C35	C	1.048365	-0.862251	0.342141
O36	O	1.085127	-0.886485	0.379007
N37	N	1.005135	-0.885757	0.298826
C38	C	0.961880	-0.862342	0.255501
O39	O	0.925106	-0.886642	0.218665
C40	C	0.961802	-0.674671	0.255466
C41	C	1.005040	-0.651167	0.298779
C42	C	1.091525	-0.651075	0.385411
C43	C	1.091508	-0.604159	0.385398
C44	C	1.048258	-0.580748	0.342075
C45	C	1.005024	-0.604252	0.298766
C46	C	0.918543	-0.651257	0.212146
C47	C	0.918526	-0.604337	0.212142
C48	C	0.961764	-0.580833	0.255455
C49	C	0.961757	-0.533925	0.255430
N50	N	1.004987	-0.510419	0.298745
C51	C	1.048237	-0.533830	0.342068
C52	C	0.961925	-0.960872	0.255522
C53	C	0.961945	-1.007790	0.255529
C54	C	1.048430	-1.007695	0.342170
C55	C	1.048413	-0.960777	0.342158
C56	C	1.005155	-0.937366	0.298837
C57	C	1.048200	-0.435305	0.342036
C58	C	1.048182	-0.388385	0.342017
C59	C	0.961695	-0.388484	0.255380
C60	C	0.961716	-0.435399	0.255396
C61	C	1.004970	-0.458809	0.298730
O62	O	0.925009	-0.509662	0.218589
O63	O	1.084994	-0.509523	0.378909
C64	C	1.048307	-0.721494	0.342114
C65	C	1.005073	-0.744998	0.298805
C66	C	0.961822	-0.721586	0.255482
C67	C	1.005093	-0.791915	0.298813
C68	C	1.048343	-0.815327	0.342135
C69	C	1.091574	-0.791821	0.385450
C70	C	1.091557	-0.744906	0.385437
C71	C	0.918592	-0.745092	0.212167
C72	C	0.918612	-0.792008	0.212183
C73	C	0.961863	-0.815419	0.255506
C74	C	1.188891	-0.193422	0.291403
C75	C	1.267246	-0.191336	0.288272
C76	C	0.997664	-0.203191	0.482620
C77	C	0.994530	-0.205268	0.560973
C78	C	1.005143	-0.081136	0.298822
C79	C	1.005195	-0.031201	0.298852
C80	C	1.012385	-0.193426	0.115598
C81	C	1.015655	-0.191219	0.037240
C82	C	1.038169	-0.176315	0.596000
C83	C	1.035216	-0.178265	0.669622
C84	C	0.988626	-0.209172	0.708215
C85	C	0.944983	-0.238127	0.673183
C86	C	0.947933	-0.236174	0.599563
C87	C	0.974962	-0.218220	0.928588
C88	C	0.972017	-0.220172	1.002213
C89	C	1.062249	-0.160310	0.998647
C90	C	1.065198	-0.158362	0.925025
C91	C	1.021552	-0.187315	0.890000
N92	N	0.985608	-0.211167	0.783468
N93	N	1.024567	-0.185317	0.814748
H94	H	0.599815	-0.263427	0.396492
O95	O	0.915092	-0.460758	0.208677
H96	H	0.859269	-0.453576	0.222932
O97	O	0.742646	-0.267505	0.402627
H98	H	0.703423	-0.289358	0.435446
O99	O	0.268113	-0.129118	0.194866
H100	H	0.307337	-0.107261	0.162056
H101	H	0.270805	-0.245526	0.369632
H102	H	0.926698	-0.941814	0.220242
H103	H	0.404365	-0.241953	0.364252
H104	H	0.739943	-0.151096	0.227871
H105	H	0.606384	-0.154682	0.233232
O106	O	0.927892	-0.249439	0.890797
H107	H	0.893399	-0.229383	0.858710
H108	H	0.934076	-0.245341	1.033634
H109	H	1.076109	-0.151149	0.564583
O110	O	0.915315	-1.033133	0.208803
H111	H	0.948337	-1.052707	0.171698
H112	H	1.097782	-0.136737	1.027173
H113	H	0.883334	-0.670386	0.176876
O114	O	0.894727	-0.271461	0.714803
H115	H	0.900009	-0.267957	0.771881
O116	O	1.115448	-0.125024	0.883405
H117	H	1.110173	-0.128534	0.826327
O118	O	0.421148	-0.125033	0.188694
H119	H	0.384440	-0.105217	0.158923
H120	H	0.912390	-0.259747	0.571045
H121	H	1.083395	-0.369250	0.377287
H122	H	1.083417	-0.454359	0.377328
H123	H	1.083647	-1.026765	0.377444
H124	H	1.126714	-0.585025	0.420669
O125	O	1.138180	-0.676322	0.432139
H126	H	1.168238	-0.652089	0.462245
H127	H	1.083620	-0.941642	0.377427
H128	H	0.883298	-0.585278	0.176865
O129	O	0.915045	-0.363229	0.208655
H130	H	0.922296	-0.326657	0.215934
O131	O	1.138202	-0.719560	0.432148
H132	H	1.123860	-0.730342	0.487952
O133	O	1.138218	-0.817076	0.432186
H134	H	1.130954	-0.853649	0.424918
O135	O	0.871973	-0.817357	0.165466
H136	H	0.841892	-0.793191	0.135347
H137	H	0.883371	-0.726034	0.176889
H138	H	1.070753	-0.154689	0.698138
