data_functionalizedCrystal
_audit_creation_method	'MofGen! by Chris Wilmer'
_symmetry_space_group_name_H-M	'P1'
_symmetry_Int_Tables_number	1
_symmetry_cell_setting	triclinic
loop_
_symmetry_equiv_pos_as_xyz
  x,y,z
_cell_length_a	10.654551
_cell_length_b	19.188924
_cell_length_c	9.130313
_cell_angle_alpha	89.996698
_cell_angle_beta	90.000320
_cell_angle_gamma	83.813617
loop_
_atom_site_label
_atom_site_type_symbol
_atom_site_fract_x
_atom_site_fract_y
_atom_site_fract_z
O1	O	1.665754	0.098062	-0.121788
O2	O	1.300078	0.107404	-0.121796
O3	O	1.493473	0.001146	-0.121774
O4	O	1.472359	0.204320	-0.121809
O5	O	1.493471	0.001149	0.121824
O6	O	1.300075	0.107407	0.121803
O7	O	1.665752	0.098065	0.121811
Cu8	Cu	1.482913	0.102736	0.144049
Cu9	Cu	1.482916	0.102733	-0.144034
O10	O	1.472356	0.204323	0.121789
C11	C	1.253293	0.106719	0.000003
C12	C	1.113893	0.104667	0.000001
C13	C	0.917422	0.101768	0.132788
C14	C	1.048401	0.103703	0.132788
C15	C	1.048398	0.103703	-0.132796
C16	C	0.917420	0.101773	-0.132795
C17	C	0.851938	0.100796	0.265585
C18	C	0.917424	0.101761	0.398382
C19	C	1.048403	0.103696	0.398383
C20	C	1.113897	0.104666	0.265585
C21	C	1.492789	-0.024868	0.000026
C22	C	1.490741	-0.102386	0.000030
C23	C	1.489787	-0.138793	-0.132756
C24	C	1.487844	-0.211628	-0.132767
C25	C	1.486882	-0.248056	0.000015
C26	C	1.487830	-0.211640	0.132819
C27	C	1.489759	-0.138805	0.132826
N28	N	1.555314	-0.367270	0.098844
N29	N	1.553483	-0.436461	0.098828
C30	C	1.481065	-0.467503	0.000001
N31	N	1.410562	-0.426743	-0.098831
N32	N	1.412399	-0.357546	-0.098819
C33	C	1.484789	-0.327033	0.000022
C34	C	1.478003	-0.582886	-0.132806
C35	C	1.476052	-0.655722	-0.132812
C36	C	1.476050	-0.655734	0.132778
C37	C	1.477988	-0.582898	0.132780
C38	C	1.478970	-0.546479	-0.000016
C39	C	1.712536	0.098749	0.000009
C40	C	1.851936	0.100802	0.000002
C41	C	1.473040	0.230337	-0.000015
C42	C	1.475088	0.307855	-0.000028
N43	N	1.482920	0.102738	0.346672
N44	N	1.482919	0.102725	-0.346657
C45	C	1.568577	0.055703	0.423333
C46	C	1.568574	0.055695	0.576670
C47	C	1.397253	0.149762	0.576671
C48	C	1.397251	0.149767	0.423337
C49	C	1.654247	0.008675	0.346669
C50	C	1.739912	-0.038364	0.423330
C51	C	1.739909	-0.038372	0.576667
C52	C	1.654240	0.008658	0.653342
H53	H	1.101717	0.104489	0.506512
H54	H	1.490531	-0.109163	0.240960
C55	C	1.479052	-0.542850	0.278857
N56	N	1.479850	-0.512686	0.388890
C57	C	1.474992	-0.695800	0.278841
N58	N	1.474192	-0.725981	0.388860
H59	H	1.220547	0.106250	0.265596
C60	C	1.303026	0.201492	0.661020
N61	N	1.232054	0.240457	0.724551
C62	C	1.834125	-0.090102	0.338985
N63	N	1.905085	-0.129075	0.275457
C64	C	1.654255	0.008678	0.177995
N65	N	1.654261	0.008681	0.050950
H66	H	1.809652	-0.076677	0.639084
H67	H	0.745288	0.099220	0.265600
H68	H	0.864090	0.100977	0.506501
C69	C	1.120448	0.104762	-0.278863
N70	N	1.174716	0.105556	-0.388883
H71	H	1.654237	0.008642	0.778200
H72	H	1.327500	0.188066	0.360918
H73	H	0.864099	0.100989	-0.240922
H74	H	1.490583	-0.109145	-0.240889
H75	H	1.478795	-0.553232	-0.240937
C76	C	1.486787	-0.251683	-0.278848
N77	N	1.485988	-0.281850	-0.388876
H78	H	1.487042	-0.241304	0.240931
C79	C	1.475065	-0.695774	-0.278895
N80	N	1.474348	-0.725943	-0.388928
