data_functionalizedCrystal
_audit_creation_method	'MofGen! by Chris Wilmer'
_symmetry_space_group_name_H-M	'P1'
_symmetry_Int_Tables_number	1
_symmetry_cell_setting	triclinic
loop_
_symmetry_equiv_pos_as_xyz
  x,y,z
_cell_length_a	10.908878
_cell_length_b	23.532357
_cell_length_c	9.482934
_cell_angle_alpha	99.268630
_cell_angle_beta	83.038032
_cell_angle_gamma	71.456541
loop_
_atom_site_label
_atom_site_type_symbol
_atom_site_fract_x
_atom_site_fract_y
_atom_site_fract_z
O1	O	1.725162	-0.098895	-0.120841
O2	O	1.350716	-0.054367	-0.120861
O3	O	1.549259	-0.160606	-0.120821
O4	O	1.526619	0.007344	-0.120882
O5	O	1.508927	-0.138954	0.120963
O6	O	1.310384	-0.032715	0.120923
O7	O	1.684830	-0.077242	0.120943
Cu8	Cu	1.493924	-0.053002	0.143010
Cu9	Cu	1.541622	-0.078608	-0.142928
O10	O	1.486287	0.028997	0.120903
C11	C	1.282654	-0.039380	0.000029
C12	C	1.139939	-0.026987	0.000022
C13	C	1.091523	-0.072206	0.000038
C14	C	0.944020	-0.059399	0.000031
C15	C	1.528526	-0.170944	0.000076
C16	C	1.526820	-0.234004	0.000089
C17	C	1.538125	-0.636839	-0.131786
C18	C	1.536507	-0.696090	-0.131795
O19	O	1.554323	-0.736763	-0.243882
N20	N	1.513719	-0.713925	0.000000
C21	C	1.492535	-0.672503	0.131812
O22	O	1.473002	-0.693113	0.243913
C23	C	1.494144	-0.613252	0.131819
C24	C	1.516946	-0.595423	0.000015
C25	C	1.560923	-0.619009	-0.263579
C26	C	1.562544	-0.559763	-0.263570
C27	C	1.541365	-0.518346	-0.131768
C28	C	1.518566	-0.536176	0.000024
C29	C	1.472950	-0.571829	0.263629
C30	C	1.474560	-0.512575	0.263624
C31	C	1.497362	-0.494746	0.131821
C32	C	1.499007	-0.435513	0.131835
N33	N	1.521795	-0.417679	0.000040
C34	C	1.542973	-0.459095	-0.131761
C35	C	1.489156	-0.796935	0.131787
C36	C	1.487556	-0.856186	0.131782
C37	C	1.531526	-0.879769	-0.131825
C38	C	1.533134	-0.820518	-0.131818
C39	C	1.511943	-0.779100	-0.000007
C40	C	1.546375	-0.334673	-0.131733
C41	C	1.547999	-0.275421	-0.131712
C42	C	1.504022	-0.251842	0.131894
C43	C	1.502405	-0.311090	0.131874
C44	C	1.523580	-0.352504	0.000049
O45	O	1.481196	-0.394807	0.243865
O46	O	1.562486	-0.438473	-0.243844
C47	C	1.752893	-0.092230	0.000050
C48	C	1.895609	-0.104623	0.000047
C49	C	1.507021	0.039334	0.000003
C50	C	1.508728	0.102394	-0.000020
N51	N	1.460386	-0.034993	0.344123
C52	C	1.531715	-0.073296	0.416337
C53	C	1.503820	-0.058308	0.583749
N54	N	1.575160	-0.096617	0.655959
H55	H	1.159274	-0.120401	0.000049
Br56	Br	1.324167	0.038155	0.447636
Br57	Br	0.831118	0.020934	-0.000017
H58	H	0.963355	-0.152823	0.000054
Br59	Br	1.471490	-0.335292	0.310751
H60	H	1.613430	-0.117185	0.354226
H61	H	1.072190	0.021207	-0.000002
Br62	Br	1.711675	-0.169667	0.552456
Br63	Br	1.578954	-0.251230	-0.310600
H64	H	1.563611	-0.368385	-0.239077
Br65	Br	1.593482	-0.535575	-0.442456
Br66	Br	1.589669	-0.675208	-0.442477
Br67	Br	1.564081	-0.796328	-0.310700
H68	H	1.548766	-0.913501	-0.239145
Br69	Br	1.445796	-0.456367	0.442521
H70	H	1.469008	-0.870699	0.239110
Br71	Br	1.367595	0.014843	0.687256
Br72	Br	1.460402	-0.740730	0.310691
H73	H	1.454384	-0.586335	0.370958
Br74	Br	1.475285	-0.195624	0.310759
