data_functionalizedCrystal
_audit_creation_method	'MofGen! by Chris Wilmer'
_symmetry_space_group_name_H-M	'P1'
_symmetry_Int_Tables_number	1
_symmetry_cell_setting	triclinic
loop_
_symmetry_equiv_pos_as_xyz
  x,y,z
_cell_length_a	12.827893
_cell_length_b	12.827892
_cell_length_c	12.827885
_cell_angle_alpha	90.029786
_cell_angle_beta	90.019272
_cell_angle_gamma	90.015362
loop_
_atom_site_label
_atom_site_type_symbol
_atom_site_fract_x
_atom_site_fract_y
_atom_site_fract_z
Zn1	Zn	1.597670	-0.415983	0.590849
Zn2	Zn	1.931003	-0.082650	0.924182
Zn3	Zn	2.264336	0.250683	1.257515
Zn4	Zn	1.597564	-0.590761	0.416109
Zn5	Zn	1.930897	-0.257427	0.749442
Zn6	Zn	2.264230	0.075906	1.082776
Zn7	Zn	1.422911	-0.416034	0.416122
Zn8	Zn	1.756244	-0.082701	0.749456
Zn9	Zn	2.089578	0.250633	1.082789
Zn10	Zn	1.422896	-0.590683	0.590809
Zn11	Zn	1.756230	-0.257350	0.924142
Zn12	Zn	2.089563	0.075984	1.257476
O13	O	1.510260	-0.503365	0.503472
O14	O	1.843593	-0.170032	0.836806
O15	O	2.176927	0.163301	1.170139
O16	O	1.743892	-0.439179	0.567680
O17	O	2.077225	-0.105846	0.901013
O18	O	2.410558	0.227488	1.234347
O19	O	1.574357	-0.567637	0.269875
O20	O	1.907691	-0.234303	0.603208
O21	O	2.241024	0.099030	0.936541
O22	O	1.446144	-0.269791	0.439322
O23	O	1.779477	0.063542	0.772656
O24	O	2.112810	0.396875	1.105989
O25	O	1.743814	-0.567587	0.439300
O26	O	2.077147	-0.234254	0.772633
O27	O	2.410480	0.099079	1.105966
O28	O	1.574538	-0.269754	0.567693
O29	O	1.907871	0.063579	0.901026
O30	O	2.241205	0.396913	1.234360
O31	O	1.446041	-0.439266	0.269884
O32	O	1.779374	-0.105932	0.603218
O33	O	2.112708	0.227401	0.936551
O34	O	1.276673	-0.439190	0.439284
O35	O	1.610006	-0.105857	0.772617
O36	O	1.943340	0.227476	1.105950
O37	O	1.446118	-0.567455	0.737050
O38	O	1.779452	-0.234121	1.070384
O39	O	2.112785	0.099212	1.403717
O40	O	1.276662	-0.567504	0.567625
O41	O	1.609996	-0.234171	0.900959
O42	O	1.943329	0.099163	1.234292
O43	O	1.574524	-0.439104	0.737080
O44	O	1.907857	-0.105770	1.070413
O45	O	2.241190	0.227563	1.403746
O46	O	1.574343	-0.736986	0.439261
O47	O	1.907677	-0.403653	0.772594
O48	O	2.241010	-0.070320	1.105928
O49	O	1.446016	-0.736929	0.567612
O50	O	1.779349	-0.403596	0.900946
O51	O	2.112682	-0.070263	1.234279
C52	C	1.238750	-0.503345	0.503452
C53	C	1.572084	-0.170012	0.836786
C54	C	1.905417	0.163322	1.170119
C55	C	1.122597	-0.503362	0.503469
C56	C	1.455930	-0.170028	0.836802
C57	C	1.789264	0.163305	1.170135
C58	C	1.070835	-0.566954	0.566878
C59	C	1.404168	-0.233621	0.900211
C60	C	1.737501	0.099712	1.233545
C61	C	0.950784	-0.566973	0.566896
C62	C	1.284118	-0.233640	0.900230
C63	C	1.617451	0.099694	1.233563
C64	C	1.510195	-0.774875	0.503454
C65	C	1.843528	-0.441542	0.836787
C66	C	2.176861	-0.108208	1.170120
C67	C	1.510262	-0.891028	0.503481
C68	C	1.843596	-0.557695	0.836814
C69	C	2.176929	-0.224362	1.170147
C70	C	1.573838	-0.942807	0.440039
C71	C	1.907172	-0.609473	0.773372
C72	C	2.240505	-0.276140	1.106706
C73	C	1.573910	-1.062857	0.440066
C74	C	1.907243	-0.729524	0.773399
C75	C	2.240576	-0.396190	1.106732
C76	C	1.782830	-0.503386	0.503493
C77	C	2.116164	-0.170053	0.836826
C78	C	2.449497	0.163280	1.170159
C79	C	1.898983	-0.503395	0.503502
C80	C	2.232317	-0.170062	0.836835
C81	C	2.565650	0.163272	1.170168
C82	C	1.510331	-0.503265	0.776043
C83	C	1.843665	-0.169932	1.109376
C84	C	2.176998	0.163402	1.442709
C85	C	1.510362	-0.503222	0.892196
C86	C	1.843695	-0.169889	1.225529
C87	C	2.177028	0.163445	1.558862
C88	C	1.510354	-0.230795	0.503514
C89	C	1.843688	0.102538	0.836847
C90	C	2.177021	0.435872	1.170180
C91	C	1.510394	-0.114642	0.503531
C92	C	1.843728	0.218691	0.836865
C93	C	2.177061	0.552025	1.170198
C94	C	1.510249	-0.503390	0.231962
C95	C	1.843583	-0.170056	0.565296
C96	C	2.176916	0.163277	0.898629
C97	C	1.510422	-0.503138	0.115810
C98	C	1.843755	-0.169805	0.449143
C99	C	2.177088	0.163529	0.782476
C100	C	1.573907	-0.439697	0.943995
C101	C	1.907241	-0.106364	1.277328
C102	C	2.240574	0.226969	1.610662
C103	C	1.573940	-0.439652	1.064045
C104	C	1.907274	-0.106319	1.397379
C105	C	2.240607	0.227015	1.730712
H106	H	1.078036	-0.448927	0.449199
H107	H	1.411369	-0.115594	0.782533
H108	H	1.744703	0.217740	1.115866
F109	F	1.439311	-0.574235	1.057595
F110	F	1.772645	-0.240902	1.390929
F111	F	2.105978	0.092431	1.724262
H112	H	1.628336	-1.107385	0.385748
H113	H	1.961670	-0.774052	0.719081
H114	H	2.295003	-0.440718	1.052415
F115	F	1.644921	-0.884586	0.369023
F116	F	1.978255	-0.551252	0.702357
F117	F	2.311588	-0.217919	1.035690
F118	F	1.439240	-1.056451	0.574525
F119	F	1.772573	-0.723118	0.907858
F120	F	2.105906	-0.389784	1.241191
F121	F	1.439191	-0.949249	0.574508
F122	F	1.772524	-0.615916	0.907841
F123	F	2.105857	-0.282583	1.241175
F124	F	1.439275	-0.574261	0.950394
F125	F	1.772609	-0.240928	1.283727
F126	F	2.105942	0.092405	1.617060
H127	H	0.906270	-0.621420	0.621181
H128	H	1.239603	-0.288087	0.954514
H129	H	1.572936	0.045246	1.287847
F130	F	1.644967	-0.368632	0.885797
F131	F	1.978300	-0.035298	1.219130
F132	F	2.311634	0.298035	1.552464
F133	F	1.129074	-0.638105	0.637817
F134	F	1.462407	-0.304771	0.971151
F135	F	1.795740	0.028562	1.304484
F136	F	1.645058	-0.368568	1.122266
F137	F	1.978392	-0.035235	1.455600
F138	F	2.311725	0.298099	1.788933
H139	H	0.943491	-0.448952	0.449208
H140	H	1.276825	-0.115618	0.782541
H141	H	1.610158	0.217715	1.115875
