data_functionalizedCrystal
_audit_creation_method	'MofGen! by Chris Wilmer'
_symmetry_space_group_name_H-M	'P1'
_symmetry_Int_Tables_number	1
_symmetry_cell_setting	triclinic
loop_
_symmetry_equiv_pos_as_xyz
  x,y,z
_cell_length_a	15.944493
_cell_length_b	27.732048
_cell_length_c	14.421503
_cell_angle_alpha	89.999321
_cell_angle_beta	89.992936
_cell_angle_gamma	83.058849
loop_
_atom_site_label
_atom_site_type_symbol
_atom_site_fract_x
_atom_site_fract_y
_atom_site_fract_z
O1	O	1.113746	0.062200	-0.077110
O2	O	0.869089	0.069916	-0.077115
O3	O	0.999016	-0.004307	-0.077095
O4	O	0.983819	0.136423	-0.077130
O5	O	0.998995	-0.004296	0.077129
O6	O	0.869067	0.069927	0.077108
O7	O	1.113725	0.062211	0.077114
Cu8	Cu	0.991394	0.066070	0.091193
Cu9	Cu	0.991420	0.066057	-0.091194
O10	O	0.983798	0.136434	0.077093
C11	C	0.837788	0.069606	-0.000004
C12	C	0.744551	0.068660	-0.000006
C13	C	0.508220	0.112349	-0.000017
C14	C	0.457959	0.088795	0.076033
C15	C	0.573853	0.066909	-0.000003
C16	C	0.457985	0.088773	-0.076019
C17	C	0.408966	0.065220	-0.000005
C18	C	0.524820	0.043367	0.076109
C19	C	0.524850	0.043352	-0.076011
C20	C	0.474622	0.019764	0.000058
C21	C	0.668840	0.067883	-0.000002
C22	C	0.313981	0.064242	-0.000001
C23	C	0.998686	-0.022310	0.000020
C24	C	0.997726	-0.075968	0.000027
C25	C	1.068457	-0.414486	-0.000019
C26	C	1.064893	-0.616160	-0.000032
O27	O	1.129571	-0.647144	-0.000071
N28	N	0.987851	-0.635608	-0.000033
C29	C	0.911696	-0.604635	-0.000037
O30	O	0.846085	-0.625804	-0.000047
C31	C	0.915260	-0.402961	-0.000030
C32	C	0.992307	-0.383516	-0.000020
C33	C	1.145497	-0.395040	-0.000009
C34	C	1.146387	-0.344624	-0.000001
C35	C	1.070237	-0.313654	-0.000002
C36	C	0.993197	-0.333100	-0.000011
C37	C	0.839106	-0.371988	-0.000041
C38	C	0.840004	-0.321567	-0.000041
C39	C	0.917050	-0.302122	-0.000031
C40	C	0.917937	-0.251714	-0.000004
N41	N	0.994979	-0.232266	-0.000003
C42	C	1.071129	-0.263236	-0.000002
C43	C	0.909829	-0.710516	-0.000038
C44	C	0.908938	-0.760935	-0.000038
C45	C	1.062135	-0.772457	-0.000035
C46	C	1.063026	-0.722038	-0.000028
C47	C	0.986871	-0.691068	-0.000037
C48	C	1.072992	-0.157359	0.000016
C49	C	1.073876	-0.106938	0.000028
C50	C	0.920679	-0.095421	0.000020
C51	C	0.919795	-0.145837	0.000013
C52	C	0.995958	-0.176805	0.000008
O53	O	0.853293	-0.220703	0.000024
O54	O	1.136729	-0.242057	-0.000012
C55	C	1.067567	-0.464901	-0.000027
C56	C	0.990526	-0.484347	-0.000036
C57	C	0.914377	-0.453377	-0.000037
C58	C	0.989635	-0.534765	-0.000036
C59	C	1.065785	-0.565735	-0.000035
C60	C	1.142826	-0.546287	-0.000034
C61	C	1.143717	-0.495871	-0.000026
C62	C	0.837335	-0.472825	-0.000038
C63	C	0.836451	-0.523241	-0.000046
C64	C	0.912601	-0.554211	-0.000045
C65	C	1.145026	0.062521	0.000001
C66	C	1.238262	0.063467	-0.000004
C67	C	0.984127	0.154436	-0.000023
C68	C	0.985088	0.208095	-0.000037
N69	N	0.991382	0.066079	0.219474
N70	N	0.991438	0.066044	-0.219476
C71	C	0.931294	0.100384	0.469118
C72	C	1.007073	0.109759	0.530920
C73	C	0.991403	0.066067	0.408635
C74	C	0.915643	0.056704	0.530928
C75	C	0.991416	0.066057	0.591357
C76	C	1.067220	0.075464	0.469076
C77	C	0.975740	0.022390	0.469079
C78	C	1.051575	0.031746	0.530852
C79	C	0.991394	0.066074	0.303374
C80	C	0.991433	0.066050	0.696616
H81	H	0.459669	-0.019408	0.000112
C82	C	0.564323	0.017446	-0.162854
H83	H	0.541318	0.033642	-0.216836
H84	H	0.552232	-0.015264	-0.163393
H85	H	0.623776	0.017992	-0.161920
H86	H	0.523332	0.151492	0.000044
C87	C	0.418509	0.114724	0.162870
H88	H	0.429725	0.147599	0.162770
H89	H	0.442279	0.098909	0.216871
H90	H	0.359178	0.113669	0.162528
H91	H	0.846199	-0.776762	-0.000030
H92	H	0.776366	-0.387811	-0.000055
H93	H	1.136619	-0.091109	0.000039
C94	C	1.229270	-0.429100	-0.000001
H95	H	1.275272	-0.410290	0.000012
H96	H	1.232129	-0.449011	-0.053778
H97	H	1.232099	-0.449004	0.053791
C98	C	0.418577	0.114699	-0.162871
H99	H	0.429811	0.147571	-0.162781
H100	H	0.359249	0.113647	-0.162552
H101	H	0.442377	0.098878	-0.216864
H102	H	0.880512	0.129428	0.442012
C103	C	0.564083	0.017470	0.163058
H104	H	0.623485	0.018254	0.162545
H105	H	0.552393	-0.015316	0.163289
H106	H	0.540600	0.033505	0.216988
H107	H	0.775323	-0.447614	-0.000041
C108	C	1.156770	-0.191417	0.000018
H109	H	1.202774	-0.172609	0.000034
H110	H	1.159626	-0.211325	-0.053763
H111	H	1.159600	-0.211325	0.053806
C112	C	1.231139	-0.323241	-0.000007
H113	H	1.276357	-0.348912	-0.000019
H114	H	1.234677	-0.303812	0.053771
H115	H	1.234676	-0.303815	-0.053798
C116	C	1.147776	-0.700652	-0.000026
H117	H	1.192996	-0.726322	-0.000030
H118	H	1.151306	-0.681222	0.053753
H119	H	1.151318	-0.681227	-0.053816
H120	H	1.124140	-0.797682	-0.000034
H121	H	0.847811	-0.685305	-0.000045
C122	C	0.756230	-0.287503	-0.000047
H123	H	0.710223	-0.306308	-0.000047
H124	H	0.753400	-0.267593	-0.053825
H125	H	0.753382	-0.267598	0.053744
H126	H	0.857057	-0.161670	0.000030
H127	H	0.858679	-0.070196	0.000023
H128	H	0.962457	-0.014531	0.441894
H129	H	1.206456	-0.480044	-0.000018
C130	C	0.829086	0.046004	0.567620
H131	H	0.786442	0.070419	0.546469
H132	H	0.829861	0.045781	0.633483
H133	H	0.817547	0.015213	0.545524
H134	H	0.773706	-0.539068	-0.000046
H135	H	1.204830	-0.571512	-0.000029
C136	C	1.120322	-0.007464	0.567252
H137	H	1.174085	-0.000734	0.545958
H138	H	1.109648	-0.038408	0.545141
H139	H	1.119654	-0.007430	0.633122
H140	H	1.131308	0.083424	0.442022
H141	H	1.020333	0.146692	0.558083
