data_functionalizedCrystal
_audit_creation_method	'MofGen! by Chris Wilmer'
_symmetry_space_group_name_H-M	'P1'
_symmetry_Int_Tables_number	1
_symmetry_cell_setting	triclinic
loop_
_symmetry_equiv_pos_as_xyz
  x,y,z
_cell_length_a	27.731994
_cell_length_b	19.188905
_cell_length_c	17.666332
_cell_angle_alpha	90.016479
_cell_angle_beta	90.001993
_cell_angle_gamma	97.122314
loop_
_atom_site_label
_atom_site_type_symbol
_atom_site_fract_x
_atom_site_fract_y
_atom_site_fract_z
O1	O	-0.060292	0.925759	0.063059
O2	O	-0.068429	0.722392	0.063031
O3	O	0.006019	0.830411	0.063057
O4	O	-0.134740	0.817740	0.063033
O5	O	0.006023	0.830392	-0.062839
O6	O	-0.068425	0.722373	-0.062866
O7	O	-0.060288	0.925741	-0.062838
Cu8	Cu	-0.064356	0.824055	-0.074347
Cu9	Cu	-0.064361	0.824077	0.074540
O10	O	-0.134736	0.817721	-0.062864
C11	C	-0.068165	0.696373	0.000079
C12	C	-0.067380	0.618872	0.000070
C13	C	-0.067005	0.582493	0.068698
C14	C	-0.066262	0.509675	0.068708
C15	C	-0.065885	0.473240	0.000085
C16	C	-0.066262	0.509627	-0.068553
C17	C	-0.067010	0.582443	-0.068560
N18	N	-0.037201	0.364403	-0.050979
N19	N	-0.036490	0.295230	-0.050968
C20	C	-0.063633	0.253848	0.000104
N21	N	-0.091508	0.284252	0.051174
N22	N	-0.092218	0.353431	0.051164
C23	C	-0.065074	0.394283	0.000085
C24	C	-0.062453	0.138511	0.068747
C25	C	-0.061713	0.065690	0.068754
C26	C	-0.061708	0.065645	-0.068508
C27	C	-0.062453	0.138463	-0.068513
C28	C	-0.062823	0.174892	0.000117
C29	C	-0.152746	0.817991	0.000082
C30	C	-0.206405	0.818774	0.000073
C31	C	-0.539140	0.823718	0.068734
C32	C	-0.740807	0.826695	0.068745
O33	O	-0.766883	0.827119	0.127109
N34	N	-0.766021	0.827055	0.000119
C35	C	-0.740815	0.826675	-0.068514
O36	O	-0.766887	0.827056	-0.126885
C37	C	-0.539148	0.823702	-0.068525
C38	C	-0.513937	0.823335	0.000105
C39	C	-0.513929	0.823352	0.137358
C40	C	-0.463516	0.822604	0.137355
C41	C	-0.438313	0.822221	0.068726
C42	C	-0.463524	0.822587	0.000102
C43	C	-0.513942	0.823327	-0.137158
C44	C	-0.463522	0.822585	-0.137155
C45	C	-0.438311	0.822219	-0.068524
C46	C	-0.387908	0.821457	-0.068530
N47	N	-0.362694	0.821097	0.000095
C48	C	-0.387897	0.821479	0.068724
C49	C	-0.846693	0.828234	-0.068504
C50	C	-0.897109	0.828976	-0.068501
C51	C	-0.897098	0.828998	0.068758
C52	C	-0.846681	0.828251	0.068755
C53	C	-0.821479	0.827874	0.000122
C54	C	-0.282025	0.819908	0.068711
C55	C	-0.231607	0.819156	0.068701
C56	C	-0.231623	0.819138	-0.068558
C57	C	-0.282036	0.819886	-0.068549
C58	C	-0.307236	0.820273	0.000092
O59	O	-0.361800	0.821040	-0.126864
O60	O	-0.361814	0.821114	0.127085
C61	C	-0.589554	0.824466	0.068737
C62	C	-0.614764	0.824832	0.000112
C63	C	-0.589561	0.824449	-0.068516
C64	C	-0.665181	0.825574	0.000115
C65	C	-0.690383	0.825956	0.068743
C66	C	-0.665170	0.825596	0.137369
C67	C	-0.614756	0.824848	0.137365
C68	C	-0.614775	0.824809	-0.137142
C69	C	-0.665189	0.825556	-0.137133
C70	C	-0.690392	0.825939	-0.068504
C71	C	0.024029	0.830142	0.000113
C72	C	0.077688	0.829358	0.000127
C73	C	-0.060551	0.951760	0.000115
C74	C	-0.061336	1.029260	0.000130
N75	N	-0.064352	0.824044	-0.179067
C76	C	-0.031403	0.871891	-0.218665
C77	C	-0.031401	0.871895	-0.297912
C78	C	-0.064356	0.824059	-0.337559
C79	C	-0.097308	0.776204	-0.297951
C80	C	-0.097306	0.776197	-0.218705
N81	N	-0.107148	0.814698	-0.461985
N82	N	-0.107148	0.814709	-0.537266
C83	C	-0.064363	0.824078	-0.576323
N84	N	-0.021576	0.833448	-0.537255
N85	N	-0.021576	0.833440	-0.461968
C86	C	-0.064361	0.824062	-0.423488
C87	C	-0.031408	0.871931	-0.701850
C88	C	-0.031405	0.871930	-0.781099
C89	C	-0.097317	0.776243	-0.781136
C90	C	-0.097316	0.776240	-0.701889
C91	C	-0.064362	0.824088	-0.662250
N92	N	-0.064360	0.824093	0.179260
H93	H	-0.062760	0.168172	0.124630
H94	H	-0.211094	0.818824	-0.124433
H95	H	-0.067307	0.612149	0.124582
H96	H	-0.061411	0.036071	0.124641
H97	H	-0.061404	0.035979	-0.124382
H98	H	-0.211084	0.818855	0.124591
H99	H	-0.004568	0.910858	-0.330159
O100	O	-0.062789	0.173703	-0.135247
C101	C	-0.062735	0.165966	-0.271389
C102	C	-0.062340	0.125973	-0.195864
H103	H	-0.062382	0.127391	-0.320418
H104	H	-0.029255	0.206811	-0.274869
H105	H	-0.096898	0.193303	-0.274789
H106	H	-0.028199	0.098593	-0.192414
H107	H	-0.095842	0.085167	-0.192416
O108	O	0.000524	0.918511	-0.663331
C109	C	0.010934	1.014012	-0.573870
C110	C	-0.025273	0.961283	-0.617438
H111	H	-0.009909	1.048597	-0.536743
H112	H	0.034460	1.048253	-0.615783
H113	H	0.035060	0.984181	-0.536788
H114	H	-0.049432	0.991057	-0.654522
H115	H	-0.048766	0.927043	-0.575484
O116	O	-0.129255	0.729709	-0.336544
C117	C	-0.139714	0.634227	-0.426025
C118	C	-0.103482	0.686859	-0.382380
H119	H	-0.118890	0.599559	-0.463081
H120	H	-0.163804	0.664067	-0.463162
H121	H	-0.163274	0.600057	-0.384093
H122	H	-0.079889	0.721041	-0.424257
H123	H	-0.079425	0.656975	-0.345231
H124	H	-0.004569	0.910850	-0.186393
H125	H	-0.004571	0.910890	-0.813341
H126	H	-0.442994	0.822310	0.193241
H127	H	-0.124148	0.737282	-0.669646
O128	O	-0.129283	0.729678	-0.819605
C129	C	-0.157843	0.607963	-0.843863
C130	C	-0.121608	0.660625	-0.800260
H131	H	-0.151657	0.552123	-0.828227
H132	H	-0.152185	0.616123	-0.907314
H133	H	-0.196539	0.616665	-0.828286
H134	H	-0.082897	0.651955	-0.815773
H135	H	-0.127307	0.652452	-0.736820
H136	H	-0.302537	0.820223	0.124605
O137	O	-0.538335	0.823689	0.204097
C138	C	-0.532984	0.823660	0.340238
C139	C	-0.505290	0.823269	0.264705
H140	H	-0.506277	0.823336	0.389259
H141	H	-0.561105	0.775113	0.343719
H142	H	-0.552070	0.872877	0.343650
H143	H	-0.486174	0.774086	0.261243
H144	H	-0.477196	0.871850	0.261256
H145	H	-0.124138	0.737234	-0.186463
O146	O	-0.822293	0.827833	-0.135247
C147	C	-0.827634	0.827925	-0.271388
C148	C	-0.855325	0.828368	-0.195857
H149	H	-0.854327	0.828372	-0.320410
H150	H	-0.808579	0.778683	-0.274883
H151	H	-0.799486	0.876446	-0.274782
H152	H	-0.883496	0.779880	-0.192412
H153	H	-0.874347	0.877642	-0.192394
H154	H	-0.917627	0.829304	0.124638
O155	O	-0.065878	0.474438	0.135444
C156	C	-0.065987	0.482157	0.271586
C157	C	-0.066410	0.522148	0.196064
H158	H	-0.066427	0.520711	0.320617
H159	H	-0.031808	0.454861	0.275075
H160	H	-0.099450	0.441277	0.274973
H161	H	-0.032970	0.563062	0.192626
H162	H	-0.100611	0.549396	0.192607
H163	H	-0.826158	0.827951	0.124640
H164	H	-0.534459	0.823633	-0.193044
O165	O	-0.065807	0.474224	-0.135193
C166	C	-0.023104	0.400339	-0.214817
C167	C	-0.023551	0.440413	-0.139325
H168	H	0.011052	0.372980	-0.218175
H169	H	-0.023469	0.438827	-0.263901
H170	H	-0.056590	0.359499	-0.218241
H171	H	0.009929	0.481253	-0.135827
H172	H	-0.023211	0.401883	-0.090276
O173	O	-0.067349	0.617683	-0.135297
C174	C	-0.067295	0.609947	-0.271439
C175	C	-0.066901	0.569953	-0.195915
H176	H	-0.066944	0.571374	-0.320468
H177	H	-0.033814	0.650790	-0.274919
H178	H	-0.101457	0.637288	-0.274837
H179	H	-0.032762	0.542570	-0.192466
H180	H	-0.100405	0.529150	-0.192467
H181	H	-0.917633	0.829261	-0.124387
H182	H	-0.443005	0.822279	-0.193045
O183	O	-0.306454	0.820245	-0.135282
C184	C	-0.301145	0.820056	-0.271425
C185	C	-0.273436	0.819670	-0.195904
H186	H	-0.274464	0.819577	-0.320457
H187	H	-0.320205	0.869293	-0.274921
H188	H	-0.329292	0.771530	-0.274801
H189	H	-0.245266	0.868163	-0.192476
H190	H	-0.254410	0.770401	-0.192439
H191	H	-0.594234	0.824550	0.193251
O192	O	-0.689730	0.825980	0.203968
C193	C	-0.767410	0.827054	0.264784
C194	C	-0.739650	0.826645	0.189313
H195	H	-0.807776	0.827577	0.252962
H196	H	-0.753007	0.875798	0.298665
H197	H	-0.761997	0.778034	0.298604
H198	H	-0.745051	0.875632	0.155433
H199	H	-0.754058	0.777868	0.155490
O200	O	-0.590260	0.824325	-0.203767
C201	C	-0.539012	0.762893	-0.283467
C202	C	-0.566737	0.763376	-0.207971
H203	H	-0.519995	0.713614	-0.286897
H204	H	-0.510839	0.811382	-0.286936
H205	H	-0.565709	0.763307	-0.332488
H206	H	-0.540076	0.762938	-0.158906
H207	H	-0.594917	0.714891	-0.204568
H208	H	-0.685712	0.825848	-0.193024
