data_functionalizedCrystal
_audit_creation_method	'MofGen! by Chris Wilmer'
_symmetry_space_group_name_H-M	'P1'
_symmetry_Int_Tables_number	1
_symmetry_cell_setting	triclinic
loop_
_symmetry_equiv_pos_as_xyz
  x,y,z
_cell_length_a	20.919309
_cell_length_b	14.446369
_cell_length_c	14.446369
_cell_angle_alpha	59.999225
_cell_angle_beta	89.997514
_cell_angle_gamma	57.438858
loop_
_atom_site_label
_atom_site_type_symbol
_atom_site_fract_x
_atom_site_fract_y
_atom_site_fract_z
Zr1	Zr	0.641735	0.940918	-0.085322
O2	O	0.535358	1.146032	-0.239120
O3	O	0.674350	0.744122	-0.038177
O4	O	0.674344	0.937249	-0.231294
O5	O	0.535363	0.952899	0.106333
O6	O	0.783974	0.924893	-0.225119
O7	O	0.535364	0.952905	-0.046003
O8	O	0.783984	0.579425	0.120332
O9	O	0.535353	1.298367	-0.239118
O10	O	0.770070	0.812766	-0.013460
O11	O	0.688254	0.821983	0.095619
O12	O	0.688248	1.049364	-0.131752
O13	O	0.606432	1.058581	-0.022674
Zr14	Zr	0.816582	0.921203	0.167484
Zr15	Zr	0.816583	0.921213	-0.075474
Zr16	Zr	0.641734	0.940909	0.157636
Zr17	Zr	0.641728	1.183876	-0.085320
Zr18	Zr	0.816589	0.678245	0.167481
O19	O	0.783967	1.118000	0.120338
O20	O	0.783968	1.118013	-0.225117
O21	O	0.535357	1.146019	0.106335
O22	O	0.922959	0.716090	0.321281
O23	O	0.922960	0.716103	-0.024174
O24	O	0.674348	0.744109	0.307278
O25	O	0.922954	0.909222	-0.024172
O26	O	0.783972	0.924873	0.313455
O27	O	0.674342	0.937228	0.307280
O28	O	0.922953	0.909217	0.128164
O29	O	0.674334	1.282704	-0.231290
O30	O	0.783983	0.579418	0.313452
O31	O	0.922963	0.563754	0.321280
O32	O	0.922964	0.563762	0.128160
O33	O	0.535353	1.298360	-0.045999
O34	O	0.674333	1.282697	-0.038171
O35	O	0.770069	0.812757	0.213913
O36	O	0.851885	0.803541	0.104835
O37	O	0.770063	1.040139	-0.013457
O38	O	0.688247	1.049356	0.095621
C39	C	0.729168	0.627157	0.041078
C40	C	0.729171	0.524015	0.041077
C41	C	0.780510	0.371916	-0.028084
C42	C	0.780800	0.478808	-0.027761
C43	C	0.766812	0.392911	0.166726
C44	C	0.767187	0.285490	0.166357
C45	C	0.640119	0.474792	-0.014403
C46	C	0.640262	0.583250	-0.016900
C47	C	0.510451	0.955710	0.028762
C48	C	0.436224	0.964075	0.024581
C49	C	0.444060	0.844507	0.084359
C50	C	0.374313	0.852375	0.080428
C51	C	0.296730	0.979814	0.016712
C52	C	0.288896	1.099391	-0.043067
C53	C	0.358642	1.091521	-0.039128
C54	C	0.084005	1.009754	0.001739
C55	C	0.014257	1.017615	-0.002198
C56	C	0.099679	0.770598	0.121299
C57	C	0.169423	0.762740	0.125226
C58	C	0.161582	0.882317	0.065452
C59	C	0.225437	0.987860	0.012690
C60	C	0.232875	0.874270	0.069482
C61	C	0.947866	0.906412	0.053399
C62	C	1.022093	0.898046	0.057580
C63	C	0.729160	0.931072	-0.262823
C64	C	0.729160	0.931076	-0.365965
C65	C	0.729149	1.234964	0.041084
C66	C	0.729146	1.338107	0.041085
C67	C	0.677547	1.080314	-0.479866
C68	C	0.677269	1.080397	-0.587188
C69	C	0.691793	0.863616	-0.479196
C70	C	0.691404	0.864613	-0.372381
C71	C	0.818166	0.848222	-0.364089
C72	C	0.818030	0.850902	-0.472750
C73	C	0.729157	0.931049	0.344984
C74	C	0.729157	0.931045	0.448126
C75	C	0.947875	0.602508	0.053396
C76	C	1.022106	0.491001	0.057576
C77	C	0.729167	0.627146	0.344981
C78	C	0.729170	0.524000	0.448122
C79	C	0.947874	0.602497	0.357299
C80	C	1.022104	0.490985	0.464621
C81	C	0.510443	1.259625	-0.275138
C82	C	0.436213	1.371136	-0.382460
C83	C	0.510442	1.259613	0.028765
C84	C	0.436211	1.371121	0.024586
C85	C	0.729150	1.234976	-0.262820
C86	C	0.729147	1.338122	-0.365961
C87	C	1.014258	0.443451	-0.002220
C88	C	1.083999	0.338692	0.001684
C89	C	1.161586	0.281478	0.065391
C90	C	1.169432	0.329037	0.125189
C91	C	1.099692	0.433801	0.121278
C92	C	1.099678	0.433806	0.458083
C93	C	1.169431	0.329042	0.558915
C94	C	1.161610	0.281452	0.666283
C95	C	1.084028	0.338641	0.672818
C96	C	1.014276	0.443410	0.571988
C97	C	0.358639	1.428327	-0.375922
C98	C	0.288885	1.533121	-0.476753
C99	C	0.296707	1.580717	-0.584121
C100	C	0.374289	1.523521	-0.590657
C101	C	0.444041	1.418735	-0.489827
C102	C	0.444059	1.418681	0.084371
C103	C	0.374318	1.523467	0.080440
C104	C	0.296731	1.580684	0.016730
C105	C	0.288885	1.533120	-0.043064
C106	C	0.358625	1.428343	-0.039139
C107	C	0.677324	0.383522	0.520186
C108	C	0.677540	0.490428	0.412866
C109	C	0.818074	0.387120	0.527685
C110	C	0.817799	0.279767	0.634532
C111	C	0.692856	0.468820	0.629083
C112	C	0.691048	0.577504	0.520306
H113	H	0.832698	0.187351	0.210455
H114	H	0.380722	1.562175	0.129136
F115	F	0.603497	0.705699	-0.137914
F116	F	0.206325	1.593971	-0.469774
H117	H	0.232590	0.658966	0.177088
H118	H	0.239904	1.666040	-0.666215
H119	H	0.612279	1.143396	-0.484441
H120	H	0.611691	0.428158	0.514155
F121	F	0.591450	1.163167	-0.662135
H122	H	0.612073	0.587159	0.354909
H123	H	0.724894	0.605814	0.547736
F124	F	0.142863	1.123485	-0.055119
F125	F	0.870772	0.410253	0.566249
H126	H	0.831703	0.347038	0.211073
F127	F	0.526627	0.708868	0.152168
H128	H	1.106093	0.472502	0.169978
H129	H	0.380701	0.755010	0.129107
F130	F	0.865832	0.245100	0.022052
F131	F	0.855809	0.156861	0.636314
H132	H	1.077671	0.299878	0.760251
H133	H	0.732192	0.259476	0.220996
F134	F	0.720273	0.427226	0.237333
H135	H	1.218413	0.196142	0.748376
H136	H	0.846474	0.433939	0.010947
F137	F	1.075632	0.288091	-0.061960
H138	H	0.352257	1.188887	-0.087792
F139	F	0.206325	1.235021	-0.110870
F140	F	0.206304	1.594027	-0.110863
H141	H	0.352224	1.389624	-0.087821
H142	H	1.218366	0.196172	0.068568
H143	H	0.507228	1.372102	0.136259
F144	F	1.252013	0.268128	0.192991
F145	F	1.108021	0.484442	0.343824
H146	H	0.608667	0.517886	-0.105749
F147	F	1.251992	0.268191	0.551935
F148	F	0.868661	0.704436	-0.258990
F149	F	0.382601	1.574188	-0.704936
F150	F	0.931718	0.504248	0.578964
H151	H	-0.048916	1.121396	-0.054088
F152	F	0.315444	0.738645	0.137300
H153	H	0.352255	1.389582	-0.288507
H154	H	0.507203	1.372171	-0.495163
H155	H	0.702453	1.134117	-0.480976
H156	H	0.239951	1.666000	0.013543
F157	F	0.856354	0.332408	0.462387
F158	F	0.075651	1.137020	-0.061882
H159	H	0.702288	0.291043	0.520556
F160	F	0.710473	0.437755	0.344409
H161	H	0.625917	0.922304	-0.376197
F162	F	0.586031	0.631347	0.041521
F163	F	0.589863	0.448053	0.051043
H164	H	0.730450	0.439790	0.709418
F165	F	0.871054	0.234595	0.740246
H166	H	0.106053	0.673245	0.169965
F167	F	0.608582	0.530040	0.629722
H168	H	0.845946	0.899996	-0.522766
F169	F	0.709986	1.150158	-0.656506
F170	F	0.737404	0.721868	-0.267037
F171	F	0.605430	0.705414	0.448287
H172	H	0.727597	0.754053	-0.449908
H173	H	0.755388	0.411994	-0.120697
F174	F	0.607017	0.937407	-0.551218
F175	F	0.747800	0.599322	-0.148515
H176	H	0.849410	0.890924	-0.358376
F177	F	0.872494	0.707950	-0.436290
H178	H	0.951089	0.490033	-0.054112
