data_functionalizedCrystal
_audit_creation_method	'MofGen! by Chris Wilmer'
_symmetry_space_group_name_H-M	'P1'
_symmetry_Int_Tables_number	1
_symmetry_cell_setting	triclinic
loop_
_symmetry_equiv_pos_as_xyz
  x,y,z
_cell_length_a	16.109301
_cell_length_b	23.532407
_cell_length_c	15.186229
_cell_angle_alpha	89.991614
_cell_angle_beta	89.999362
_cell_angle_gamma	83.155079
loop_
_atom_site_label
_atom_site_type_symbol
_atom_site_fract_x
_atom_site_fract_y
_atom_site_fract_z
O1	O	1.102555	0.073202	-0.073182
O2	O	0.860421	0.082312	-0.073197
O3	O	0.988790	-0.005148	-0.073173
O4	O	0.974187	0.160662	-0.073206
O5	O	0.988781	-0.005149	0.073284
O6	O	0.860413	0.082311	0.073260
O7	O	1.102547	0.073201	0.073275
Zn8	Zn	0.981478	0.077755	0.096521
Zn9	Zn	0.981490	0.077757	-0.096443
O10	O	0.974178	0.160660	0.073251
C11	C	0.829445	0.081942	0.000030
C12	C	0.737159	0.080836	0.000025
C13	C	0.514498	0.130160	0.000025
C14	C	0.427786	0.129116	0.000031
C15	C	0.448476	0.025348	0.000048
C16	C	0.535187	0.026393	0.000048
C17	C	0.568195	0.078801	0.000032
C18	C	0.394773	0.076712	0.000038
C19	C	0.300755	0.075580	0.000044
C20	C	0.662218	0.079933	0.000028
C21	C	0.988414	-0.026366	0.000058
C22	C	0.987296	-0.089587	0.000064
C23	C	1.056249	-0.488436	0.000021
C24	C	1.055210	-0.547840	0.000014
O25	O	1.119130	-0.584349	-0.000015
N26	N	0.978895	-0.570748	0.000010
C27	C	0.903614	-0.534248	0.000003
O28	O	0.838607	-0.559187	-0.000002
C29	C	0.904654	-0.474845	0.000004
C30	C	0.980973	-0.451941	0.000017
C31	C	1.132562	-0.465531	0.000033
C32	C	1.133601	-0.406131	0.000041
C33	C	1.058325	-0.369636	0.000037
C34	C	0.982012	-0.392541	0.000025
C35	C	0.829373	-0.438346	-0.000009
C36	C	0.830419	-0.378940	-0.000009
C37	C	0.906739	-0.356036	0.000004
C38	C	0.907774	-0.296645	0.000030
N39	N	0.984089	-0.273738	0.000034
C40	C	1.059365	-0.310233	0.000038
C41	C	0.901437	-0.658998	0.000001
C42	C	0.900396	-0.718400	0.000007
C43	C	1.051993	-0.731988	0.000016
C44	C	1.053032	-0.672585	0.000016
C45	C	0.977752	-0.636091	0.000005
C46	C	1.061539	-0.185488	0.000056
C47	C	1.062571	-0.126082	0.000068
C48	C	0.910975	-0.112499	0.000055
C49	C	0.909943	-0.171900	0.000047
C50	C	0.985232	-0.208394	0.000045
O51	O	0.843888	-0.260102	0.000055
O52	O	1.124361	-0.285285	0.000031
C53	C	1.133523	0.073570	0.000046
C54	C	1.225809	0.074677	0.000046
C55	C	0.974554	0.181878	0.000018
C56	C	0.975672	0.245100	0.000006
N57	N	0.981477	0.077754	0.228214
N58	N	0.981498	0.077754	-0.228136
C59	C	1.038337	0.039040	0.453947
C60	C	1.038340	0.039039	0.546137
C61	C	0.924631	0.116470	0.546124
C62	C	0.924625	0.116468	0.453936
C63	C	0.981483	0.077754	0.407850
C64	C	0.981492	0.077754	0.592228
C65	C	0.981494	0.077753	0.692184
C66	C	0.981480	0.077754	0.307888
H67	H	0.421590	-0.017320	0.000066
Cl68	Cl	0.804447	-0.747186	0.000007
Cl69	Cl	1.148981	-0.643798	0.000031
Cl70	Cl	0.602697	-0.038179	0.000065
H71	H	1.113286	-0.761714	0.000015
H72	H	0.878340	0.147991	0.583657
H73	H	1.084633	0.007515	0.416426
H74	H	1.124722	-0.107437	0.000081
H75	H	0.840130	-0.629287	-0.000001
Cl76	Cl	1.156190	-0.231357	0.000055
Cl77	Cl	1.229551	-0.377346	0.000032
Cl78	Cl	1.227208	-0.511401	0.000039
Cl79	Cl	0.733422	-0.467125	-0.000031
Cl80	Cl	1.109815	-0.009634	0.604085
H81	H	0.769115	-0.349228	-0.000019
H82	H	0.847797	-0.190549	0.000061
H83	H	0.849688	-0.082774	0.000055
Cl84	Cl	0.853142	0.165138	0.395980
H85	H	0.541371	0.172834	0.000019
Cl86	Cl	0.360284	0.193686	0.000023
