data_functionalizedCrystal
_audit_creation_method	'MofGen! by Chris Wilmer'
_symmetry_space_group_name_H-M	'P1'
_symmetry_Int_Tables_number	1
_symmetry_cell_setting	triclinic
loop_
_symmetry_equiv_pos_as_xyz
  x,y,z
_cell_length_a	14.908783
_cell_length_b	25.639239
_cell_length_c	14.909227
_cell_angle_alpha	86.672199
_cell_angle_beta	83.584164
_cell_angle_gamma	93.329368
loop_
_atom_site_label
_atom_site_type_symbol
_atom_site_fract_x
_atom_site_fract_y
_atom_site_fract_z
Zn1	Zn	1.413344	-0.141147	-0.591770
Zn2	Zn	1.404451	-0.233947	-0.440386
Zn3	Zn	1.253226	-0.151870	-0.431669
Zn4	Zn	1.261886	-0.233906	-0.582961
O5	O	1.333227	-0.190217	-0.511697
O6	O	1.538839	-0.148987	-0.579023
O7	O	1.377045	-0.227564	-0.312559
O8	O	1.274563	-0.077278	-0.452945
O9	O	1.532305	-0.217167	-0.467802
O10	O	1.392201	-0.069399	-0.570571
O11	O	1.265940	-0.167262	-0.306155
O12	O	1.127700	-0.167222	-0.444404
O13	O	1.289323	-0.217096	-0.710801
O14	O	1.134063	-0.227494	-0.555558
O15	O	1.400598	-0.148947	-0.717273
O16	O	1.385443	-0.307111	-0.459260
O17	O	1.280700	-0.307081	-0.564010
C18	C	1.098036	-0.198518	-0.498080
C19	C	0.997422	-0.202080	-0.492276
C20	C	0.815168	-0.137865	-0.597361
C21	C	0.720632	-0.141210	-0.591910
C22	C	0.713812	-0.212114	-0.475920
C23	C	0.808348	-0.208769	-0.481371
C24	C	0.859023	-0.171643	-0.542094
C25	C	0.953561	-0.168300	-0.547548
C26	C	0.946739	-0.239202	-0.431554
C27	C	0.852203	-0.242547	-0.426104
C28	C	1.333072	-0.326067	-0.511646
C29	C	1.333090	-0.384180	-0.511660
C30	C	1.387923	-0.744531	-0.457261
C31	C	1.387959	-0.799134	-0.457275
O32	O	1.434418	-0.827368	-0.410969
N33	N	1.333389	-0.826449	-0.511766
C34	C	1.278787	-0.799157	-0.566253
O35	O	1.232376	-0.827404	-0.612603
C36	C	1.278757	-0.744555	-0.566243
C37	C	1.333323	-0.717244	-0.511742
C38	C	1.442485	-0.717220	-0.402765
C39	C	1.442448	-0.662621	-0.402750
C40	C	1.387848	-0.635334	-0.457231
C41	C	1.333286	-0.662645	-0.511727
C42	C	1.224161	-0.717265	-0.620734
C43	C	1.224136	-0.662659	-0.620720
C44	C	1.278702	-0.635348	-0.566219
C45	C	1.278649	-0.580759	-0.566192
N46	N	1.333218	-0.553445	-0.511701
C47	C	1.387818	-0.580732	-0.457221
C48	C	1.278856	-0.913825	-0.566271
C49	C	1.278881	-0.968426	-0.566276
C50	C	1.388054	-0.968399	-0.457300
C51	C	1.388024	-0.913797	-0.457290
C52	C	1.333426	-0.886510	-0.511780
C53	C	1.387735	-0.466071	-0.457192
C54	C	1.387690	-0.411467	-0.457179
C55	C	1.278521	-0.411499	-0.566159
C56	C	1.278562	-0.466098	-0.566169
C57	C	1.333176	-0.493382	-0.511683
O58	O	1.232216	-0.552490	-0.612478
O59	O	1.434231	-0.552478	-0.410887
C60	C	1.569336	-0.181885	-0.525367
C61	C	1.669951	-0.178334	-0.531193
C62	C	1.346919	-0.181821	-0.747799
C63	C	1.352753	-0.178243	-0.848412
C64	C	1.333408	-0.053836	-0.511768
C65	C	1.333485	0.004282	-0.511799
C66	C	1.418905	-0.137722	-0.993592
C67	C	1.413428	-0.141081	-0.899057
C68	C	1.297554	-0.212048	-0.892308
C69	C	1.303031	-0.208688	-0.986843
C70	C	1.363708	-0.171523	-1.037481
C71	C	1.369180	-0.168161	-1.132017
C72	C	1.253311	-0.239130	-1.125267
C73	C	1.247834	-0.242490	-1.030732
C74	C	1.319640	-0.198542	-0.276515
C75	C	1.313981	-0.201966	-0.175913
H76	H	0.982455	-0.266711	-0.386559
H77	H	1.418582	-0.137897	-1.173246
H78	H	1.458376	-0.113557	-0.863327
H79	H	0.684929	-0.113703	-0.636912
H80	H	1.208356	-0.266649	-1.161011
H81	H	1.468302	-0.107455	-1.034822
H82	H	1.486883	-0.640387	-0.358373
H83	H	1.198435	-0.272750	-0.989490
H84	H	1.486952	-0.739431	-0.358400
H85	H	0.994819	-0.138071	-0.596993
H86	H	0.856429	-0.107638	-0.646808
H87	H	1.248160	-0.242309	-0.851063
H88	H	0.810930	-0.272772	-0.376662
H89	H	0.672536	-0.242335	-0.426473
H90	H	1.432124	-0.389232	-0.412795
H91	H	1.432209	-0.488279	-0.412827
H92	H	1.432456	-0.891563	-0.412911
H93	H	1.234439	-0.990659	-0.610648
H94	H	1.432515	-0.990626	-0.412942
H95	H	1.234389	-0.891611	-0.610640
H96	H	1.234064	-0.389273	-0.610514
H97	H	1.179723	-0.739493	-0.665110
H98	H	1.179677	-0.640445	-0.665095
H99	H	1.234133	-0.488336	-0.610551
