data_functionalizedCrystal
_audit_creation_method	'MofGen! by Chris Wilmer'
_symmetry_space_group_name_H-M	'P1'
_symmetry_Int_Tables_number	1
_symmetry_cell_setting	triclinic
loop_
_symmetry_equiv_pos_as_xyz
  x,y,z
_cell_length_a	15.537937
_cell_length_b	14.750779
_cell_length_c	10.723023
_cell_angle_alpha	102.763774
_cell_angle_beta	114.134907
_cell_angle_gamma	97.572123
loop_
_atom_site_label
_atom_site_type_symbol
_atom_site_fract_x
_atom_site_fract_y
_atom_site_fract_z
O1	O	-1.227157	0.079806	-0.368036
O2	O	-0.953811	0.079812	-0.224337
O3	O	-1.096791	0.079805	-0.480693
O4	O	-1.084178	0.079813	-0.111680
O5	O	-1.137209	-0.079847	-0.553155
O6	O	-0.994229	-0.079840	-0.296800
O7	O	-1.267576	-0.079846	-0.440499
Zn8	Zn	-1.137320	-0.105191	-0.380154
Zn9	Zn	-1.084067	0.105157	-0.284681
O10	O	-1.124596	-0.079839	-0.184143
C11	C	-0.939020	-0.000014	-0.245533
C12	C	-0.834729	-0.000011	-0.200746
C13	C	-0.677271	-0.000007	-0.019217
C14	C	-0.775269	-0.000009	-0.061314
C15	C	-0.796208	-0.000018	-0.298139
C16	C	-0.698211	-0.000021	-0.256064
C17	C	-0.638750	-0.000015	-0.116601
C18	C	-0.659689	-0.000029	-0.353448
C19	C	-0.561699	-0.000027	-0.311373
C20	C	-0.502231	-0.000017	-0.171915
C21	C	-0.540760	-0.000013	-0.074526
C22	C	-0.719150	-0.000028	-0.492907
C23	C	-0.680628	-0.000036	-0.590290
C24	C	-0.582639	-0.000041	-0.548220
C25	C	-0.523171	-0.000031	-0.408762
C26	C	-0.544110	-0.000046	-0.645608
C27	C	-0.446120	-0.000044	-0.603534
C28	C	-0.425181	-0.000030	-0.366687
N29	N	-1.173671	-0.248749	-0.445316
C30	C	-0.946200	-0.600556	-0.037601
C31	C	-0.971679	-0.701057	-0.083257
C32	C	-1.098315	-0.701025	-0.310210
C33	C	-1.072843	-0.600523	-0.264575
C34	C	-0.996785	-0.550296	-0.128269
C35	C	-1.123428	-0.550263	-0.355244
C36	C	-1.097962	-0.449769	-0.309609
C37	C	-1.021909	-0.399536	-0.173307
C38	C	-0.971319	-0.449803	-0.082635
C39	C	-1.199490	-0.600491	-0.491545
C40	C	-1.250076	-0.550232	-0.582214
C41	C	-1.224605	-0.449736	-0.536584
C42	C	-1.148552	-0.399502	-0.400282
C43	C	-1.275195	-0.399469	-0.627256
C44	C	-1.249728	-0.298976	-0.581622
C45	C	-1.123085	-0.299009	-0.354648
C46	C	-0.282368	-0.000024	-0.419298
C47	C	-0.386659	-0.000037	-0.464071
C48	C	-1.116082	-0.000020	-0.562997
C49	C	-1.113336	-0.000017	-0.700275
N50	N	-1.047723	0.248715	-0.219533
C51	C	-1.091174	0.082689	-0.723934
C52	C	-1.088335	0.082694	-0.865817
C53	C	-1.105304	-0.000012	-0.101837
C54	C	-1.108049	-0.000009	0.035444
H55	H	-0.492346	-0.000020	0.039032
H56	H	-1.069361	0.153502	-0.886310
H57	H	-0.422441	-0.000012	-0.137659
C58	C	-1.068381	0.178343	-0.609408
H59	H	-1.073286	0.165790	-0.529075
H60	H	-1.004222	0.214128	-0.579958
H61	H	-1.113591	0.214118	-0.648539
H62	H	-1.061145	-0.258112	-0.243659
H63	H	-0.806631	-0.000014	0.017993
C64	C	-0.915987	-0.756340	0.016451
H65	H	-0.867028	-0.712030	0.104148
H66	H	-0.960005	-0.795559	0.035193
H67	H	-0.886542	-0.795525	-0.028484
C68	C	-1.181969	-0.756279	-0.460140
H69	H	-1.189888	-0.823329	-0.474338
H70	H	-1.240566	-0.739795	-0.467505
H71	H	-1.167048	-0.739811	-0.531083
H72	H	-1.127033	-0.070820	-0.944079
H73	H	-0.844633	-0.000020	-0.411689
H74	H	-1.220225	-0.682320	-0.528692
C75	C	-1.136128	-0.095673	-0.814795
H76	H	-1.150393	-0.147563	-0.781549
H77	H	-1.190702	-0.099243	-0.901029
H78	H	-1.081334	-0.099235	-0.832438
C79	C	-0.403739	-0.000055	-0.710647
H80	H	-0.336861	-0.000044	-0.665608
H81	H	-0.438191	-0.055732	-0.791466
H82	H	-0.410002	0.055624	-0.740928
H83	H	-0.376767	-0.000037	-0.253128
H84	H	-1.001178	-0.317707	-0.136151
H85	H	-0.628857	-0.000015	0.094341
H86	H	-0.798934	-0.000012	-0.527151
H87	H	-0.729054	-0.000038	-0.703840
H88	H	-0.592535	-0.000042	-0.759155
C89	C	-0.887654	-0.394547	0.067299
H90	H	-0.861173	-0.438871	0.114770
H91	H	-0.838340	-0.355349	0.058020
H92	H	-0.911848	-0.355341	0.121615
C93	C	-1.333730	-0.605486	-0.732144
H94	H	-1.341649	-0.672535	-0.746342
H95	H	-1.392327	-0.589002	-0.739509
H96	H	-1.318808	-0.589017	-0.803086
C97	C	-0.862536	-0.545301	0.112333
H98	H	-0.836055	-0.589625	0.159804
H99	H	-0.813221	-0.506103	0.103054
H100	H	-0.886729	-0.506095	0.166650
H101	H	-1.337128	-0.440377	-0.738232
H102	H	-1.290922	-0.258054	-0.655454
