data_functionalizedCrystal
_audit_creation_method	'MofGen! by Chris Wilmer'
_symmetry_space_group_name_H-M	'P1'
_symmetry_Int_Tables_number	1
_symmetry_cell_setting	triclinic
loop_
_symmetry_equiv_pos_as_xyz
  x,y,z
_cell_length_a	10.489741
_cell_length_b	12.837942
_cell_length_c	11.295483
_cell_angle_alpha	94.530417
_cell_angle_beta	85.855438
_cell_angle_gamma	89.684057
loop_
_atom_site_label
_atom_site_type_symbol
_atom_site_fract_x
_atom_site_fract_y
_atom_site_fract_z
O1	O	1.717937	0.139467	-0.098950
O2	O	1.348257	0.153206	-0.098968
O3	O	1.524899	-0.004627	-0.098952
O4	O	1.541295	0.297300	-0.098966
O5	O	1.509382	0.009214	0.099097
O6	O	1.332740	0.167047	0.099081
O7	O	1.702419	0.153308	0.099100
Cu8	Cu	1.516163	0.161441	0.117174
Cu9	Cu	1.534514	0.145073	-0.117042
O10	O	1.525777	0.311141	0.099084
C11	C	1.511602	-0.036369	0.000072
C12	C	1.495084	-0.151569	0.000069
C13	C	1.292853	0.159089	0.000054
C14	C	1.150881	0.155983	0.000047
C15	C	1.693661	-0.391046	0.000054
C16	C	1.678147	-0.499288	0.000051
C17	C	1.448545	-0.476297	0.000052
C18	C	1.464058	-0.368055	0.000055
C19	C	1.586620	-0.325434	0.000058
C20	C	1.602133	-0.217189	0.000069
C21	C	1.372532	-0.194201	0.000061
C22	C	1.357018	-0.302443	0.000059
C23	C	1.071668	0.055559	0.000063
C24	C	0.992422	0.096175	-0.097585
C25	C	0.977160	0.109845	0.097676
C26	C	1.073512	0.196634	-0.097682
C27	C	1.058251	0.210297	0.097667
C28	C	0.979042	0.250984	-0.000005
C29	C	1.757824	0.147425	0.000075
C30	C	1.899796	0.150530	0.000074
C31	C	1.539074	0.342882	0.000057
C32	C	1.555593	0.458082	0.000052
N33	N	1.503265	0.172954	0.281909
N34	N	1.547421	0.133552	-0.281778
C35	C	1.640261	0.050621	0.531211
C36	C	1.630524	0.059328	0.655874
C37	C	1.474047	0.199071	0.655900
C38	C	1.483784	0.190363	0.531237
C39	C	1.566895	0.116137	0.468897
C40	C	1.576638	0.107435	0.344232
C41	C	1.420156	0.247172	0.344260
C42	C	1.410419	0.255879	0.468923
H43	H	1.701928	-0.182489	0.000076
Cl44	Cl	1.744755	-0.042679	0.452839
H45	H	1.115496	0.233317	-0.180329
H46	H	1.257231	-0.337161	0.000052
Cl47	Cl	1.847732	-0.337459	0.000087
Cl48	Cl	0.947294	0.021667	-0.225042
H49	H	0.935027	0.073104	0.180230
Cl50	Cl	1.812719	-0.581770	0.000043
H51	H	1.285371	-0.140767	0.000074
H52	H	1.348761	-0.511020	0.000037
Cl53	Cl	1.327930	0.329544	0.265911
H54	H	1.112265	-0.027005	-0.000055
H55	H	0.938734	0.333623	-0.000062
Cl56	Cl	1.103431	0.284756	0.225128
Cl57	Cl	1.681123	0.014126	0.265864
Cl58	Cl	1.722756	-0.023040	0.734208
Cl59	Cl	1.369556	0.292367	0.734282
H60	H	1.342747	0.316310	0.519694
