data_functionalizedCrystal
_audit_creation_method	'MofGen! by Chris Wilmer'
_symmetry_space_group_name_H-M	'P1'
_symmetry_Int_Tables_number	1
_symmetry_cell_setting	triclinic
loop_
_symmetry_equiv_pos_as_xyz
  x,y,z
_cell_length_a	10.654550
_cell_length_b	10.540539
_cell_length_c	9.130313
_cell_angle_alpha	90.000859
_cell_angle_beta	89.996220
_cell_angle_gamma	84.505197
loop_
_atom_site_label
_atom_site_type_symbol
_atom_site_fract_x
_atom_site_fract_y
_atom_site_fract_z
O1	O	1.667897	0.178295	-0.121912
O2	O	1.302424	0.195282	-0.121888
O3	O	1.493499	0.002079	-0.121899
O4	O	1.476823	0.371498	-0.121902
O5	O	1.493496	0.002084	0.121700
O6	O	1.302422	0.195287	0.121711
O7	O	1.667894	0.178300	0.121686
Cu8	Cu	1.485158	0.186794	0.143941
Cu9	Cu	1.485161	0.186788	-0.144143
O10	O	1.476820	0.371503	0.121697
C11	C	1.255625	0.194038	-0.000086
C12	C	1.116180	0.190306	-0.000077
C13	C	1.036734	0.304061	-0.000099
C14	C	0.905712	0.300547	-0.000124
C15	C	0.933595	0.069513	-0.000111
C16	C	1.064614	0.073028	-0.000075
C17	C	1.088301	0.421338	-0.000100
C18	C	1.008854	0.535103	-0.000124
C19	C	0.877832	0.531589	-0.000149
C20	C	0.826256	0.414310	-0.000151
C21	C	1.492247	-0.045221	-0.000102
C22	C	1.488505	-0.186168	-0.000110
C23	C	1.345134	-0.369543	-0.000647
C24	C	1.348927	-0.222926	-0.000099
C25	C	1.555675	-0.247846	0.138993
C26	C	1.550912	-0.394389	0.139110
C27	C	1.553753	-0.394914	-0.137907
C28	C	1.555039	-0.247933	-0.139747
C29	C	1.714694	0.179545	-0.000119
C30	C	1.854139	0.183276	-0.000138
C31	C	1.478072	0.418803	-0.000103
C32	C	1.481813	0.559750	-0.000105
N33	N	1.485165	0.186798	0.346564
N34	N	1.485163	0.186774	-0.346765
C35	C	1.569795	0.101277	0.423211
C36	C	1.569791	0.101262	0.576548
C37	C	1.400525	0.272300	0.576577
C38	C	1.400523	0.272308	0.423243
C39	C	1.654437	0.015767	0.346532
C40	C	1.739074	-0.069760	0.423179
C41	C	1.739071	-0.069775	0.576516
C42	C	1.654430	0.015736	0.653206
H43	H	0.719568	0.411458	-0.000148
H44	H	1.508580	-0.426453	-0.243339
C45	C	1.488706	-0.192641	-0.278772
N46	N	1.438732	-0.150999	-0.383483
H47	H	1.194984	0.424213	-0.000086
H48	H	0.813149	0.624221	-0.000154
C49	C	0.876856	-0.059484	-0.000127
N50	N	0.834120	-0.156647	-0.000145
C51	C	1.152009	-0.052108	-0.000059
N52	N	1.217836	-0.146364	-0.000044
H53	H	1.501268	-0.422569	0.243099
C54	C	1.654432	0.015715	0.821882
N55	N	1.654440	0.015703	0.948927
H56	H	1.296074	-0.180306	-0.099813
H57	H	1.651295	-0.442394	0.145414
C58	C	1.307428	0.366357	0.660941
N59	N	1.237308	0.437205	0.724485
H60	H	1.658178	-0.225529	0.144158
H61	H	1.289998	-0.398125	-0.100399
H62	H	1.807977	-0.139423	0.638921
C63	C	1.065589	0.664102	-0.000113
N64	N	1.108321	0.761266	-0.000105
C65	C	1.270961	-0.410282	0.133399
N66	N	1.215103	-0.440956	0.234376
H67	H	1.295701	-0.181149	0.099788
C68	C	1.492631	-0.190282	0.278849
N69	N	1.445138	-0.146927	0.384186
H70	H	1.656802	-0.223748	-0.148154
C71	C	1.689949	-0.458771	-0.139187
N72	N	1.792526	-0.506876	-0.140142
H73	H	1.331609	0.341946	0.360836
H74	H	1.654450	0.015774	0.221677
H75	H	1.807980	-0.139388	0.360731
