data_functionalizedCrystal
_audit_creation_method	'MofGen! by Chris Wilmer'
_symmetry_space_group_name_H-M	'P1'
_symmetry_Int_Tables_number	1
_symmetry_cell_setting	triclinic
loop_
_symmetry_equiv_pos_as_xyz
  x,y,z
_cell_length_a	13.897449
_cell_length_b	21.295417
_cell_length_c	21.295396
_cell_angle_alpha	89.894924
_cell_angle_beta	89.928445
_cell_angle_gamma	90.030528
loop_
_atom_site_label
_atom_site_type_symbol
_atom_site_fract_x
_atom_site_fract_y
_atom_site_fract_z
Zn1	Zn	1.475081	-0.250142	-0.355942
Zn2	Zn	1.808414	0.083191	-0.022609
Zn3	Zn	2.141748	0.416525	0.310725
Zn4	Zn	1.474805	-0.355549	-0.250669
Zn5	Zn	1.808139	-0.022216	0.082664
Zn6	Zn	2.141472	0.311117	0.415998
Zn7	Zn	1.313634	-0.250299	-0.250684
Zn8	Zn	1.646968	0.083034	0.082649
Zn9	Zn	1.980301	0.416367	0.415983
Zn10	Zn	1.313718	-0.355379	-0.355898
Zn11	Zn	1.647051	-0.022046	-0.022565
Zn12	Zn	1.980385	0.311288	0.310768
O13	O	1.394310	-0.302842	-0.303298
O14	O	1.727643	0.030491	0.030035
O15	O	2.060976	0.363824	0.363368
O16	O	1.610026	-0.264130	-0.341989
O17	O	1.943359	0.069203	-0.008656
O18	O	2.276693	0.402537	0.324677
O19	O	1.453275	-0.341725	-0.162581
O20	O	1.786609	-0.008391	0.170752
O21	O	2.119942	0.324942	0.504085
O22	O	1.335131	-0.162189	-0.264671
O23	O	1.668464	0.171144	0.068662
O24	O	2.001798	0.504478	0.401995
O25	O	1.609824	-0.341572	-0.264646
O26	O	1.943157	-0.008239	0.068688
O27	O	2.276490	0.325095	0.402021
O28	O	1.453745	-0.162073	-0.342004
O29	O	1.787078	0.171260	-0.008671
O30	O	2.120412	0.504593	0.324663
O31	O	1.334864	-0.264398	-0.162592
O32	O	1.668197	0.068935	0.170741
O33	O	2.001530	0.402269	0.504074
O34	O	1.178664	-0.264233	-0.264629
O35	O	1.511997	0.069100	0.068704
O36	O	1.845331	0.402434	0.402038
O37	O	1.335273	-0.341282	-0.443994
O38	O	1.668607	-0.007949	-0.110660
O39	O	2.001940	0.325385	0.222673
O40	O	1.178725	-0.341434	-0.341929
O41	O	1.512059	-0.008101	-0.008596
O42	O	1.845392	0.325232	0.324737
O43	O	1.453826	-0.263965	-0.444026
O44	O	1.787159	0.069368	-0.110693
O45	O	2.120493	0.402702	0.222641
O46	O	1.453356	-0.443616	-0.264603
O47	O	1.786690	-0.110283	0.068730
O48	O	2.120023	0.223051	0.402063
O49	O	1.335006	-0.443491	-0.341915
O50	O	1.668340	-0.110158	-0.008582
O51	O	2.001673	0.223176	0.324752
C52	C	1.143695	-0.302833	-0.303276
C53	C	1.477029	0.030501	0.030057
C54	C	1.810362	0.363834	0.363390
C55	C	1.036481	-0.302844	-0.303282
C56	C	1.369815	0.030490	0.030051
C57	C	1.703148	0.363823	0.363385
C58	C	0.949412	-0.302846	-0.303292
C59	C	1.282745	0.030488	0.030041
C60	C	1.616078	0.363821	0.363374
C61	C	0.840179	-0.302850	-0.303312
C62	C	1.173513	0.030483	0.030022
C63	C	1.506846	0.363816	0.363355
C64	C	1.394187	-0.466394	-0.303266
C65	C	1.727520	-0.133061	0.030067
C66	C	2.060853	0.200273	0.363400
C67	C	1.394222	-0.536362	-0.303274
C68	C	1.727556	-0.203029	0.030059
C69	C	2.060889	0.130305	0.363393
C70	C	1.455949	-0.569111	-0.343570
C71	C	1.789283	-0.235778	-0.010236
C72	C	2.122616	0.097555	0.323097
C73	C	1.455984	-0.634854	-0.343585
C74	C	1.789317	-0.301521	-0.010252
C75	C	2.122650	0.031813	0.323081
C76	C	1.394301	-0.667845	-0.303294
C77	C	1.727634	-0.334511	0.030040
C78	C	2.060967	-0.001178	0.363373
C79	C	1.332562	-0.635087	-0.262995
C80	C	1.665895	-0.301754	0.070338
C81	C	1.999228	0.031579	0.403672
C82	C	1.332522	-0.569346	-0.262985
C83	C	1.665856	-0.236013	0.070348
C84	C	1.999189	0.097321	0.403682
N85	N	1.386940	-0.771178	-0.248202
N86	N	1.720274	-0.437845	0.085131
N87	N	2.053607	-0.104512	0.418464
N88	N	1.386983	-0.833630	-0.248214
N89	N	1.720317	-0.500296	0.085120
N90	N	2.053650	-0.166963	0.418453
C91	C	1.394413	-0.865919	-0.303322
C92	C	1.727747	-0.532586	0.030011
C93	C	2.061080	-0.199253	0.363345
N94	N	1.401818	-0.833398	-0.358420
N95	N	1.735151	-0.500065	-0.025087
N96	N	2.068484	-0.166731	0.308246
N97	N	1.401780	-0.770941	-0.358408
N98	N	1.735113	-0.437608	-0.025075
N99	N	2.068447	-0.104274	0.308258
C100	C	1.394336	-0.739130	-0.303300
C101	C	1.727669	-0.405797	0.030033
C102	C	2.061002	-0.072463	0.363366
C103	C	1.456181	-0.969954	-0.343638
C104	C	1.789514	-0.636621	-0.010305
C105	C	2.122847	-0.303287	0.323028
C106	C	1.456208	-1.035698	-0.343655
C107	C	1.789541	-0.702364	-0.010322
C108	C	2.122875	-0.369031	0.323012
C109	C	1.332791	-1.035930	-0.263059
C110	C	1.666124	-0.702597	0.070274
C111	C	1.999458	-0.369263	0.403608
C112	C	1.332759	-0.970187	-0.263048
C113	C	1.666092	-0.636854	0.070285
C114	C	1.999425	-0.303521	0.403619
C115	C	1.394459	-0.937203	-0.303337
C116	C	1.727792	-0.603870	0.029997
C117	C	2.061125	-0.270537	0.363330
C118	C	1.645903	-0.302853	-0.303321
C119	C	1.979236	0.030481	0.030013
C120	C	2.312569	0.363814	0.363346
C121	C	1.753117	-0.302857	-0.303330
C122	C	2.086450	0.030476	0.030003
C123	C	2.419783	0.363810	0.363336
C124	C	1.394590	-0.302587	-0.467489
C125	C	1.727923	0.030746	-0.134156
C126	C	2.061256	0.364080	0.199178
C127	C	1.394709	-0.302478	-0.537458
C128	C	1.728042	0.030855	-0.204124
C129	C	2.061376	0.364189	0.129209
C130	C	1.394459	-0.138652	-0.303344
C131	C	1.727793	0.194681	0.029989
C132	C	2.061126	0.528015	0.363323
C133	C	1.394523	-0.068684	-0.303364
C134	C	1.727857	0.264649	0.029970
C135	C	2.061190	0.597983	0.363303
C136	C	1.394086	-0.303051	-0.139746
C137	C	1.727420	0.030282	0.193587
C138	C	2.060753	0.363615	0.526920
C139	C	1.394154	-0.302983	-0.069778
C140	C	1.727487	0.030350	0.263555
C141	C	2.060820	0.363684	0.596888
C142	C	1.332589	-0.262539	0.429643
C143	C	1.665922	0.070794	0.762977
C144	C	1.999255	0.404127	1.096310
C145	C	1.332513	-0.262604	0.363901
C146	C	1.665846	0.070730	0.697234
C147	C	1.999180	0.404063	1.030568
C148	C	1.394576	-0.302600	0.331060
C149	C	1.727909	0.030733	0.664394
C150	C	2.061242	0.364066	0.997727
C151	C	1.456701	-0.342547	0.363967
C152	C	1.790034	-0.009213	0.697301
C153	C	2.123367	0.324120	1.030634
C154	C	1.456767	-0.342486	0.429709
C155	C	1.790101	-0.009152	0.763042
C156	C	2.123434	0.324181	1.096375
N157	N	1.478952	-0.307128	0.227747
N158	N	1.812286	0.026205	0.561081
N159	N	2.145619	0.359538	0.894414
N160	N	1.478886	-0.307183	0.165296
N161	N	1.812219	0.026151	0.498629
N162	N	2.145553	0.359484	0.831963
C163	C	1.394376	-0.302788	0.132986
C164	C	1.727710	0.030546	0.466319
C165	C	2.061043	0.363879	0.799653
N166	N	1.309934	-0.298324	0.165486
N167	N	1.643267	0.035010	0.498820
N168	N	1.976600	0.368343	0.832153
N169	N	1.310001	-0.298266	0.227943
N170	N	1.643334	0.035067	0.561277
N171	N	1.976668	0.368401	0.894610
C172	C	1.394510	-0.302671	0.259775
C173	C	1.727843	0.030662	0.593108
C174	C	2.061176	0.363996	0.926442
C175	C	1.332169	-0.262916	0.028801
C176	C	1.665502	0.070417	0.362135
C177	C	1.998836	0.403750	0.695468
C178	C	1.332092	-0.262985	-0.036942
C179	C	1.665425	0.070348	0.296391
C180	C	1.998759	0.403681	0.629724
C181	C	1.456288	-0.342925	-0.036874
C182	C	1.789621	-0.009592	0.296459
C183	C	2.122955	0.323742	0.629792
C184	C	1.456356	-0.342860	0.028868
C185	C	1.789690	-0.009526	0.362201
C186	C	2.123023	0.323807	0.695535
C187	C	1.394298	-0.302852	0.061702
C188	C	1.727631	0.030481	0.395035
C189	C	2.060965	0.363815	0.728368
H190	H	1.506187	-0.542258	-0.376377
H191	H	1.839520	-0.208924	-0.043043
H192	H	2.172853	0.124409	0.290290
H193	H	1.506473	-1.062361	-0.376471
H194	H	1.839807	-0.729028	-0.043138
H195	H	2.173140	-0.395694	0.290195
H196	H	1.507232	-0.375112	0.337224
H197	H	1.840565	-0.041779	0.670558
H198	H	2.173899	0.291554	1.003891
H199	H	1.506241	-0.661524	-0.376406
H200	H	1.839574	-0.328190	-0.043073
H201	H	2.172908	0.005143	0.290260
H202	H	1.282052	-0.229964	0.456373
H203	H	1.615386	0.103369	0.789706
H204	H	1.948719	0.436702	1.123039
H205	H	1.282561	-1.062790	-0.230257
H206	H	1.615895	-0.729457	0.103077
H207	H	1.949228	-0.396124	0.436410
H208	H	1.282256	-0.542681	-0.230171
H209	H	1.615589	-0.209348	0.103163
H210	H	1.948922	0.123986	0.436496
H211	H	1.506822	-0.375490	-0.063613
H212	H	1.840156	-0.042156	0.269721
H213	H	2.173489	0.291177	0.603054
H214	H	1.282499	-0.943521	-0.230233
H215	H	1.615832	-0.610188	0.103101
H216	H	1.949165	-0.276855	0.436434
H217	H	1.507358	-0.375008	0.456495
H218	H	1.840691	-0.041675	0.789828
H219	H	2.174024	0.291659	1.123161
H220	H	1.506944	-0.375381	0.055655
H221	H	1.840277	-0.042047	0.388988
H222	H	2.173611	0.291286	0.722321
H223	H	1.281499	-0.230464	-0.063728
H224	H	1.614832	0.102869	0.269606
H225	H	1.948165	0.436202	0.602939
H226	H	1.282337	-0.661953	-0.230191
H227	H	1.615670	-0.328619	0.103143
H228	H	1.949003	0.004714	0.436476
H229	H	1.281929	-0.230078	0.337109
H230	H	1.615262	0.103256	0.670442
H231	H	1.948595	0.436589	1.003776
H232	H	1.506418	-0.943097	-0.376446
H233	H	1.839751	-0.609764	-0.043113
H234	H	2.173084	-0.276431	0.290221
H235	H	1.281637	-0.230340	0.055536
H236	H	1.614970	0.102993	0.388869
H237	H	1.948303	0.436326	0.722203
