data_functionalizedCrystal
_audit_creation_method	'MofGen! by Chris Wilmer'
_symmetry_space_group_name_H-M	'P1'
_symmetry_Int_Tables_number	1
_symmetry_cell_setting	triclinic
loop_
_symmetry_equiv_pos_as_xyz
  x,y,z
_cell_length_a	17.639044
_cell_length_b	11.169416
_cell_length_c	11.169409
_cell_angle_alpha	89.970483
_cell_angle_beta	101.202239
_cell_angle_gamma	78.810404
loop_
_atom_site_label
_atom_site_type_symbol
_atom_site_fract_x
_atom_site_fract_y
_atom_site_fract_z
Zn1	Zn	1.208445	-0.848376	-0.306989
Zn2	Zn	1.208386	-1.049098	-0.106333
Zn3	Zn	1.076265	-0.807902	-0.146966
Zn4	Zn	1.076284	-1.008478	-0.347598
O5	O	1.142345	-0.928463	-0.226971
O6	O	1.319040	-0.908940	-0.246371
O7	O	1.190827	-1.017164	0.056216
O8	O	1.093815	-0.645326	-0.168203
O9	O	1.318997	-1.056410	-0.098951
O10	O	1.190927	-0.675062	-0.285771
O11	O	1.093758	-0.839959	0.026364
O12	O	0.965664	-0.800571	-0.207580
O13	O	1.093848	-0.987178	-0.510151
O14	O	0.965678	-0.947933	-0.354983
O15	O	1.190946	-0.869552	-0.480315
O16	O	1.190846	-1.211654	-0.138328
O17	O	1.093791	-1.181811	-0.315583
C18	C	0.936993	-0.865453	-0.290098
C19	C	0.849143	-0.838526	-0.317133
C20	C	0.725343	-0.723918	-0.432101
C21	C	0.807892	-0.749230	-0.406690
C22	C	0.807855	-0.902541	-0.252947
C23	C	0.725304	-0.877239	-0.278342
C24	C	0.684055	-0.787927	-0.367921
C25	C	0.684016	-0.941247	-0.214161
C26	C	0.601473	-0.915950	-0.239558
C27	C	0.560218	-0.826645	-0.329136
C28	C	0.601512	-0.762630	-0.393318
C29	C	0.725267	-1.030564	-0.124588
C30	C	0.683980	-1.094573	-0.060408
C31	C	0.601435	-1.069270	-0.085798
C32	C	0.560180	-0.979965	-0.175376
C33	C	0.560141	-1.133286	-0.021616
C34	C	0.477598	-1.107989	-0.047014
C35	C	0.477636	-0.954669	-0.200774
C36	C	1.142335	-1.240285	-0.226973
C37	C	1.142403	-1.373706	-0.226991
C38	C	1.142405	-0.928349	-0.539995
C39	C	1.142431	-0.928300	-0.673388
C40	C	1.348498	-0.991721	-0.163599
C41	C	1.436348	-1.018677	-0.136593
C42	C	1.142376	-0.615431	-0.226990
C43	C	1.142389	-0.482035	-0.226998
C44	C	1.142330	-0.928505	0.084849
C45	C	1.142457	-0.928263	0.218287
H46	H	0.717576	-1.167293	0.012525
Br47	Br	0.616132	-1.254506	0.099934
H48	H	0.443980	-1.160113	0.005246
H49	H	0.493006	-0.806054	-0.349817
Br50	Br	0.421647	-0.833438	-0.322327
H51	H	0.841505	-0.697096	-0.458957
H52	H	0.567924	-0.689890	-0.466249
H53	H	0.841451	-0.975262	-0.180014
Br54	Br	0.669353	-0.602687	-0.553655
H55	H	0.792479	-1.051139	-0.103894
