data_functionalizedCrystal
_audit_creation_method	'MofGen! by Chris Wilmer'
_symmetry_space_group_name_H-M	'P1'
_symmetry_Int_Tables_number	1
_symmetry_cell_setting	triclinic
loop_
_symmetry_equiv_pos_as_xyz
  x,y,z
_cell_length_a	14.853567
_cell_length_b	9.065218
_cell_length_c	8.140239
_cell_angle_alpha	90.002802
_cell_angle_beta	90.000276
_cell_angle_gamma	95.674592
loop_
_atom_site_label
_atom_site_type_symbol
_atom_site_fract_x
_atom_site_fract_y
_atom_site_fract_z
O1	O	0.132191	-1.957778	-0.136602
O2	O	0.143034	-1.528278	-0.136603
O3	O	0.006468	-1.754501	-0.136607
O4	O	0.268757	-1.731555	-0.136598
O5	O	0.006466	-1.754488	0.136620
O6	O	0.143032	-1.528266	0.136624
O7	O	0.132189	-1.957765	0.136625
Zn8	Zn	0.137611	-1.743014	0.180005
Zn9	Zn	0.137613	-1.743030	-0.179983
O10	O	0.268756	-1.731543	0.136630
C11	C	0.141991	-1.473306	0.000010
C12	C	0.138875	-1.309525	0.000009
C13	C	-0.027130	-1.753455	0.000001
C14	C	-0.127236	-1.750339	-0.000013
N15	N	0.137609	-1.743013	0.425688
C16	C	-0.540862	-1.602788	0.000018
C17	C	-0.560154	-1.871546	0.000019
C18	C	-0.466099	-1.874475	0.000009
C19	C	-0.409421	-1.741559	0.000006
C20	C	-0.446798	-1.605714	0.000013
C21	C	-0.428714	-2.010318	0.000018
C22	C	-0.334654	-2.013253	0.000011
C23	C	-0.277974	-1.880335	-0.000004
C24	C	-0.315356	-1.744484	0.000002
C25	C	-0.258678	-1.611568	-0.000001
C26	C	-0.296059	-1.475716	-0.000008
C27	C	-0.390118	-1.472796	-0.000001
C28	C	-0.183915	-1.883255	-0.000010
C29	C	-0.164614	-1.614494	-0.000006
C30	C	0.302353	-1.732589	0.000017
C31	C	0.402460	-1.735704	0.000021
C32	C	0.133232	-2.012738	0.000008
C33	C	0.136348	-2.176519	-0.000001
N34	N	0.137608	-1.743042	-0.425666
H35	H	-0.249899	-1.367496	0.000002
H36	H	-0.606307	-1.979760	0.000034
C37	C	-0.490400	-2.154459	-0.000048
C38	C	-0.580773	-2.122816	-0.000093
C39	C	-0.637627	-2.255566	-0.000174
H40	H	-0.479067	-2.210248	0.095212
H41	H	-0.479006	-2.210177	-0.095361
H42	H	-0.592162	-2.067122	0.095210
H43	H	-0.592134	-2.067049	-0.095346
H44	H	-0.626233	-2.311285	-0.095487
H45	H	-0.626286	-2.311345	0.095088
H46	H	-0.698951	-2.234115	-0.000220
H47	H	-0.420562	-1.362192	-0.000005
C48	C	-0.143377	-2.030776	-0.000347
C49	C	-0.172065	-2.111131	-0.140931
C50	C	-0.134731	-2.247032	-0.141314
H51	H	-0.162723	-2.085684	0.094826
H52	H	-0.079237	-2.013543	-0.000446
H53	H	-0.236191	-2.128369	-0.140817
H54	H	-0.152720	-2.056269	-0.236126
H55	H	-0.070592	-2.229799	-0.141413
H56	H	-0.154080	-2.301926	-0.046135
H57	H	-0.154184	-2.301564	-0.236705
H58	H	-0.118471	-1.506255	-0.000015
H59	H	-0.304227	-2.123872	0.000014
H60	H	-0.571302	-1.492180	0.000006
