data_functionalizedCrystal
_audit_creation_method	'MofGen! by Chris Wilmer'
_symmetry_space_group_name_H-M	'P1'
_symmetry_Int_Tables_number	1
_symmetry_cell_setting	triclinic
loop_
_symmetry_equiv_pos_as_xyz
  x,y,z
_cell_length_a	12.645323
_cell_length_b	16.959455
_cell_length_c	16.959454
_cell_angle_alpha	89.979040
_cell_angle_beta	90.025536
_cell_angle_gamma	89.980439
loop_
_atom_site_label
_atom_site_type_symbol
_atom_site_fract_x
_atom_site_fract_y
_atom_site_fract_z
Zn1	Zn	-0.599353	1.208439	0.314657
Zn2	Zn	-0.422091	1.208345	0.446846
Zn3	Zn	-0.422107	1.076251	0.314688
Zn4	Zn	-0.599316	1.076232	0.446799
O5	O	-0.510717	1.142317	0.380747
O6	O	-0.575848	1.319037	0.332199
O7	O	-0.273746	1.190791	0.429348
O8	O	-0.445641	1.093833	0.204073
O9	O	-0.445614	1.318968	0.429318
O10	O	-0.575863	1.190951	0.204050
O11	O	-0.273758	1.093742	0.332252
O12	O	-0.445606	0.965637	0.332206
O13	O	-0.747669	1.093801	0.429237
O14	O	-0.575800	0.965623	0.429267
O15	O	-0.747696	1.190932	0.332153
O16	O	-0.445578	1.190773	0.557451
O17	O	-0.575785	1.093710	0.557416
C18	C	-0.510701	0.936950	0.380735
C19	C	-0.510720	0.849094	0.380749
C20	C	-0.787222	1.142375	0.380686
C21	C	-0.905053	1.142400	0.380660
C22	C	-0.510699	1.142250	0.586114
C23	C	-0.510727	1.142294	0.673970
C24	C	-1.072600	1.081105	0.441448
C25	C	-0.950040	1.081266	0.441749
C26	C	-0.949566	1.225684	0.403265
C27	C	-1.072164	1.225348	0.403646
C28	C	-1.072253	1.121197	0.296928
C29	C	-0.949647	1.119338	0.297429
C30	C	-0.235287	1.142304	0.380751
C31	C	-0.117458	1.142432	0.380555
C32	C	-0.510733	1.348485	0.380760
C33	C	-0.510740	1.436341	0.380765
C34	C	-0.442914	1.807784	0.431317
C35	C	-0.578528	1.807850	0.330185
C36	C	-0.578534	1.725304	0.330189
C37	C	-0.510729	1.683994	0.380756
C38	C	-0.442917	1.725230	0.431320
C39	C	-0.646338	1.684063	0.279620
C40	C	-0.646346	1.601512	0.279621
C41	C	-0.578545	1.560200	0.330192
C42	C	-0.510731	1.601441	0.380759
C43	C	-0.442926	1.560131	0.431326
C44	C	-0.375116	1.601370	0.481897
C45	C	-0.375116	1.683918	0.481891
C46	C	-0.578546	1.477651	0.330198
C47	C	-0.442928	1.477577	0.431329
C48	C	-0.510758	1.142405	0.174579
C49	C	-0.510776	1.142442	0.086723
C50	C	-0.578508	1.091849	1.045458
C51	C	-0.443034	1.193004	1.045434
C52	C	-0.443024	1.192976	0.962888
C53	C	-0.510756	1.142384	0.921623
C54	C	-0.578498	1.091818	0.962904
C55	C	-0.375276	1.243535	0.921601
C56	C	-0.375262	1.243509	0.839050
C57	C	-0.443001	1.192919	0.797784
C58	C	-0.510746	1.142353	0.839070
C59	C	-0.578479	1.091760	0.797805
C60	C	-0.646230	1.041197	0.839089
C61	C	-0.646237	1.041229	0.921638
C62	C	-0.442994	1.192887	0.715235
C63	C	-0.578469	1.091729	0.715251
H64	H	-1.102078	1.019164	0.427439
C65	C	-0.758040	1.833329	0.291650
C66	C	-0.653059	1.853257	0.274607
H67	H	-0.804054	1.861361	0.257334
H68	H	-0.773528	1.846847	0.344750
H69	H	-0.767737	1.778263	0.284412
H70	H	-0.643360	1.908322	0.281850
H71	H	-0.637566	1.839744	0.221494
H72	H	-0.320097	1.284681	0.805441
C73	C	-1.170239	1.050207	0.198617
C74	C	-1.113968	1.040639	0.269103
H75	H	-1.195997	1.000472	0.181449
H76	H	-1.124841	1.071667	0.159512
H77	H	-1.228053	1.084960	0.207094
H78	H	-1.056149	1.005890	0.260625
H79	H	-1.159368	1.019167	0.308217
H80	H	-0.387827	1.234051	0.681625
H81	H	-0.919942	1.019507	0.427604
C82	C	-0.382714	1.351006	0.476244
C83	C	-0.368397	1.432171	0.486918
H84	H	-0.336706	1.322976	0.510567
H85	H	-0.367202	1.337496	0.423147
H86	H	-0.453943	1.337499	0.487794
H87	H	-0.297169	1.445678	0.475362
H88	H	-0.383902	1.445686	0.540028
H89	H	-0.920552	1.058048	0.280382
C90	C	-0.825850	1.709539	0.241083
C91	C	-0.720869	1.729473	0.224044
H92	H	-0.871864	1.737575	0.206770
H93	H	-0.841341	1.723049	0.294184
H94	H	-0.835544	1.654474	0.233837
H95	H	-0.711174	1.784537	0.231296
H96	H	-0.705373	1.715968	0.170931
C97	C	-1.024514	1.219352	0.201299
C98	C	-1.111418	1.181492	0.235680
H99	H	-1.048700	1.256580	0.163496
H100	H	-0.980836	1.181402	0.176097
H101	H	-0.985081	1.245761	0.240988
H102	H	-1.150848	1.155078	0.195991
H103	H	-1.155114	1.219448	0.260882
H104	H	-0.701562	1.567942	0.238444
H105	H	-0.633747	1.444078	0.289018
H106	H	-1.101840	1.272591	0.361220
H107	H	-0.919023	1.160743	0.249662
H108	H	-0.319907	1.717503	0.523062
H109	H	-0.633629	1.050533	0.681658
H110	H	-0.320124	1.284719	0.955205
H111	H	-0.319905	1.567724	0.523066
H112	H	-0.918875	1.243993	0.463757
C113	C	-0.382688	1.934289	0.476224
C114	C	-0.368377	1.853109	0.486900
H115	H	-0.336665	1.962270	0.510536
H116	H	-0.453904	1.947828	0.487779
H117	H	-0.367183	1.947826	0.423117
H118	H	-0.383890	1.839571	0.540006
H119	H	-0.297145	1.839565	0.475350
C120	C	-0.852571	1.346209	0.386492
C121	C	-0.910230	1.289030	0.345294
H122	H	-0.828292	1.385317	0.350702
H123	H	-0.793712	1.322080	0.411602
H124	H	-0.896614	1.370017	0.425104
H125	H	-0.866185	1.265218	0.306686
H126	H	-0.969097	1.313162	0.320171
H127	H	-0.701374	1.000000	0.805482
H128	H	-0.701395	1.000062	0.955259
C129	C	-1.073689	1.044817	0.578306
C130	C	-1.114197	1.099838	0.524621
H131	H	-1.099378	1.056382	0.629651
H132	H	-0.998659	1.047409	0.578234
H133	H	-1.095577	0.993345	0.563445
H134	H	-1.092303	1.151309	0.539479
H135	H	-1.189244	1.097253	0.524695
C136	C	-0.848979	1.037478	0.553381
C137	C	-0.910467	1.100233	0.525435
H138	H	-0.824560	1.049191	0.605050
H139	H	-0.790153	1.029842	0.519423
H140	H	-0.890533	0.990842	0.554635
H141	H	-0.868911	1.146868	0.524176
H142	H	-0.969302	1.107878	0.559402
H143	H	-1.100773	1.243349	0.464779
H144	H	-0.633673	1.050684	1.079075
H145	H	-0.387883	1.234190	1.079037
