data_functionalizedCrystal
_audit_creation_method	'MofGen! by Chris Wilmer'
_symmetry_space_group_name_H-M	'P1'
_symmetry_Int_Tables_number	1
_symmetry_cell_setting	triclinic
loop_
_symmetry_equiv_pos_as_xyz
  x,y,z
_cell_length_a	11.026607
_cell_length_b	17.038272
_cell_length_c	10.065875
_cell_angle_alpha	99.426590
_cell_angle_beta	79.302338
_cell_angle_gamma	99.848786
loop_
_atom_site_label
_atom_site_type_symbol
_atom_site_fract_x
_atom_site_fract_y
_atom_site_fract_z
O1	O	1.661277	0.323101	-0.113507
O2	O	2.161277	0.823101	0.386493
O3	O	1.304065	0.285271	-0.113508
O4	O	1.804065	0.785271	0.386492
O5	O	1.480547	0.190072	-0.113497
O6	O	1.980547	0.690072	0.386503
O7	O	1.484796	0.418300	-0.113518
O8	O	1.984796	0.918300	0.386482
O9	O	1.446904	0.208319	0.113490
O10	O	1.946904	0.708319	0.613490
O11	O	1.270422	0.303517	0.113479
O12	O	1.770422	0.803517	0.613479
O13	O	1.627634	0.341348	0.113479
O14	O	2.127634	0.841348	0.613479
Zn15	Zn	1.443687	0.325329	0.149518
Zn16	Zn	1.943687	0.825329	0.649518
Zn17	Zn	1.488013	0.301289	-0.149547
Zn18	Zn	1.988013	0.801289	0.350453
O19	O	1.451153	0.436546	0.113468
O20	O	1.951153	0.936546	0.613468
C21	C	1.241312	0.287415	-0.000014
C22	C	1.741312	0.787415	0.499986
C23	C	1.104451	0.266610	-0.000014
C24	C	1.604451	0.766610	0.499986
C25	C	1.036576	0.324055	-0.000020
C26	C	1.536576	0.824055	0.499980
C27	C	0.895122	0.302554	-0.000020
C28	C	1.395122	0.802554	0.499980
C29	C	1.459863	0.169523	-0.000004
C30	C	1.959863	0.669523	0.499996
C31	C	1.448341	0.081107	-0.000004
C32	C	1.948341	0.581107	0.499996
C33	C	1.554125	0.045899	-0.000002
C34	C	2.054125	0.545899	0.499998
C35	C	1.543294	-0.037179	-0.000015
C36	C	2.043294	0.462821	0.499985
C37	C	1.426676	-0.085047	-0.000020
C38	C	1.926676	0.414953	0.499980
C39	C	1.320885	-0.049835	-0.000026
C40	C	1.820885	0.450165	0.499974
C41	C	1.331719	0.033241	-0.000022
C42	C	1.831719	0.533241	0.499978
C43	C	1.388403	-0.336200	-0.000039
C44	C	1.888403	0.163800	0.499961
C45	C	1.377576	-0.419281	-0.000038
C46	C	1.877576	0.080719	0.499962
C47	C	1.599986	-0.406621	-0.000030
C48	C	2.099986	0.093379	0.499970
C49	C	1.610809	-0.323543	-0.000019
C50	C	2.110809	0.176457	0.499981
C51	C	1.505019	-0.288338	-0.000032
C52	C	2.005019	0.211662	0.499968
C53	C	1.415601	-0.169966	-0.000029
C54	C	1.915601	0.330034	0.499971
C55	C	1.516096	-0.203421	-0.000032
C56	C	2.016096	0.296579	0.499968
C57	C	1.690387	0.339203	-0.000017
C58	C	2.190387	0.839203	0.499983
C59	C	1.827251	0.360008	-0.000026
C60	C	2.327251	0.860008	0.499974
C61	C	1.471837	0.457095	-0.000028
C62	C	1.971837	0.957095	0.499972
C63	C	1.483360	0.545511	-0.000036
C64	C	1.983360	1.045511	0.499964
N65	N	1.413444	0.341737	0.353622
N66	N	1.913444	0.841737	0.853622
N67	N	1.518264	0.284877	-0.353650
N68	N	2.018264	0.784877	0.146350
C69	C	1.477482	0.306992	0.421405
C70	C	1.977482	0.806992	0.921405
C71	C	1.454217	0.319627	0.578571
C72	C	1.954217	0.819627	1.078571
H73	H	1.057843	0.201508	-0.000043
H74	H	1.557843	0.701508	0.499957
H75	H	1.320650	-0.208950	-0.000030
H76	H	1.820650	0.291050	0.499970
H77	H	1.083188	0.389155	-0.000019
H78	H	1.583188	0.889155	0.499981
Br79	Br	1.712397	0.110857	0.000024
Br80	Br	2.212397	0.610857	0.500024
Br81	Br	1.334111	0.384795	0.675760
Br82	Br	1.834111	0.884795	1.175760
H83	H	0.873855	0.425112	-0.000023
H84	H	1.373855	0.925112	0.499977
H85	H	1.549527	0.267887	0.363085
H86	H	2.049527	0.767887	0.863085
H87	H	1.341390	0.380834	0.411944
H88	H	1.841390	0.880834	0.911944
Br89	Br	1.769088	-0.258588	-0.000056
Br90	Br	2.269088	0.241412	0.499944
Br91	Br	1.638669	0.219927	0.549165
Br92	Br	2.138669	0.719927	1.049165
H93	H	0.848520	0.237447	-0.000049
H94	H	1.348520	0.737447	0.499951
Br95	Br	1.686865	-0.084958	-0.000014
Br96	Br	2.186865	0.415042	0.499986
H97	H	1.686114	-0.435294	-0.000022
H98	H	2.186114	0.064706	0.499978
H99	H	1.302260	-0.307547	-0.000049
H100	H	1.802260	0.192453	0.499951
Br101	Br	1.219297	-0.484245	-0.000030
Br102	Br	1.719297	0.015755	0.499970
Br103	Br	1.162619	-0.114799	-0.000055
Br104	Br	1.662619	0.385201	0.499945
H105	H	1.245578	0.061906	-0.000024
H106	H	1.745578	0.561906	0.499976
H107	H	1.611050	-0.164446	-0.000059
H108	H	2.111050	0.335554	0.499941
