data_functionalizedCrystal
_audit_creation_method	'MofGen! by Chris Wilmer'
_symmetry_space_group_name_H-M	'P1'
_symmetry_Int_Tables_number	1
_symmetry_cell_setting	triclinic
loop_
_symmetry_equiv_pos_as_xyz
  x,y,z
_cell_length_a	10.540539
_cell_length_b	8.140239
_cell_length_c	9.065218
_cell_angle_alpha	90.003526
_cell_angle_beta	84.770688
_cell_angle_gamma	89.998336
loop_
_atom_site_label
_atom_site_type_symbol
_atom_site_fract_x
_atom_site_fract_y
_atom_site_fract_z
O1	O	1.686648	0.136529	0.207934
O2	O	1.317308	0.136548	0.227526
O3	O	1.509612	0.136535	0.003050
O4	O	1.494344	0.136542	0.432411
O5	O	1.509611	-0.136692	0.003038
O6	O	1.317306	-0.136679	0.227514
O7	O	1.686647	-0.136698	0.207923
Zn8	Zn	1.501976	-0.180069	0.217717
Zn9	Zn	1.501978	0.179919	0.217732
O10	O	1.494342	-0.136685	0.432399
C11	C	1.269999	-0.000063	0.226051
C12	C	1.129034	-0.000055	0.221655
C13	C	1.508144	-0.000076	-0.051936
C14	C	1.503757	-0.000068	-0.215757
N15	N	1.501980	0.425602	0.217731
C16	C	0.944985	-0.000696	0.053221
C17	C	1.091619	-0.000063	0.057677
C18	C	1.067654	0.155966	0.300575
C19	C	0.921089	0.156080	0.294979
C20	C	0.920611	-0.154630	0.298301
C21	C	1.067599	-0.156675	0.299812
C22	C	1.733956	-0.000084	0.209398
C23	C	1.874920	-0.000081	0.213794
N24	N	1.501984	-0.425752	0.217706
C25	C	1.495811	-0.000070	0.487384
C26	C	1.500198	-0.000068	0.651205
H27	H	1.134003	-0.111906	-0.004420
Cl28	Cl	1.102889	0.164975	0.486483
H29	H	0.916159	-0.112588	-0.011565
Cl30	Cl	0.897975	0.171080	-0.046377
H31	H	1.133134	0.111971	-0.004848
H32	H	0.892664	0.272706	0.236659
H33	H	0.873556	0.163164	0.412909
H34	H	0.888868	-0.272893	0.245229
H35	H	0.873822	-0.155682	0.416742
H36	H	1.110041	0.272079	0.245762
H37	H	1.108347	-0.272100	0.242158
H38	H	1.092267	-0.166094	0.419362
