data_functionalizedCrystal
_audit_creation_method	'MofGen! by Chris Wilmer'
_symmetry_space_group_name_H-M	'P1'
_symmetry_Int_Tables_number	1
_symmetry_cell_setting	triclinic
loop_
_symmetry_equiv_pos_as_xyz
  x,y,z
_cell_length_a	8.497374
_cell_length_b	8.497374
_cell_length_c	19.121102
_cell_angle_alpha	92.443878
_cell_angle_beta	92.441575
_cell_angle_gamma	90.005237
loop_
_atom_site_label
_atom_site_type_symbol
_atom_site_fract_x
_atom_site_fract_y
_atom_site_fract_z
Zn1	Zn	0.994973	0.731412	1.073738
Zn2	Zn	0.731238	0.995157	1.073733
Zn3	Zn	0.719952	0.720113	0.956320
Zn4	Zn	0.983720	0.983870	0.956303
O5	O	0.857471	0.857638	1.015023
O6	O	0.969421	0.775851	1.172022
O7	O	0.508979	0.958667	1.058162
O8	O	0.756420	0.500850	0.971905
O9	O	0.775657	0.969623	1.172018
O10	O	0.958477	0.509152	1.058172
O11	O	0.500687	0.756593	0.971899
O12	O	0.745508	0.745648	0.858032
O13	O	1.205974	0.950386	0.971876
O14	O	0.939297	0.939429	0.858020
O15	O	1.214242	0.764906	1.058155
O16	O	0.764745	1.214421	1.058146
O17	O	0.950241	1.206129	0.971871
C18	C	0.839957	0.840089	0.832542
C19	C	0.832503	0.832619	0.754476
C20	C	1.268951	0.857640	1.015018
C21	C	1.447595	0.857657	1.015020
C22	C	0.857493	1.267517	1.015014
C23	C	0.857469	1.446163	1.015033
C24	C	0.929738	0.930154	0.717812
C25	C	0.922740	0.923115	0.644460
C26	C	0.818499	0.818548	0.607774
C27	C	0.721261	0.721003	0.644443
C28	C	0.728267	0.728035	0.717793
C29	C	0.792313	0.792252	0.386303
C30	C	0.785311	0.785230	0.312947
C31	C	0.986794	0.987341	0.312970
C32	C	0.993784	0.994371	0.386322
C33	C	0.896551	0.896820	0.422984
C34	C	0.811341	0.811354	0.532797
C35	C	0.903718	0.904007	0.497960
C36	C	0.875053	0.875257	1.198217
C37	C	0.882546	0.882765	1.276284
H38	H	1.001918	1.002539	0.614612
O39	O	1.005060	1.005369	0.533671
C40	C	1.111164	0.919777	0.576092
H41	H	1.056758	0.801180	0.587067
H42	H	1.137123	0.989004	0.627678
H43	H	1.225406	0.899935	0.547834
O44	O	0.619792	0.619510	0.608883
C45	C	0.464215	0.655476	0.626782
H46	H	0.465938	0.721216	0.680042
H47	H	0.393886	0.541747	0.629282
H48	H	0.407015	0.732544	0.585499
O49	O	0.710246	0.709558	0.497195
C50	C	0.746640	0.554103	0.515135
H51	H	0.874607	0.548271	0.535310
H52	H	0.728561	0.471513	0.466897
H53	H	0.666184	0.516821	0.557705
O54	O	0.633739	0.633523	0.753489
C55	C	0.535740	0.727248	0.795900
H56	H	0.592252	0.847945	0.806893
H57	H	0.519626	0.667903	0.847479
H58	H	0.416102	0.741683	0.767626
O59	O	1.030777	1.031901	0.753477
C60	C	0.944872	1.137700	0.795915
H61	H	0.818494	1.145134	0.773803
H62	H	1.001834	1.259275	0.796752
H63	H	0.944821	1.094246	0.851505
H64	H	1.078665	1.079524	0.416187
H65	H	1.065958	1.066759	0.283111
O66	O	0.684010	0.683506	0.277417
C67	C	0.599663	0.598938	0.325504
H68	H	0.669281	0.598582	0.377796
H69	H	0.581002	0.472587	0.304302
H70	H	0.480504	0.657259	0.333300
H71	H	0.713127	0.712831	0.416144
