data_functionalizedCrystal
_audit_creation_method	'MofGen! by Chris Wilmer'
_symmetry_space_group_name_H-M	'P1'
_symmetry_Int_Tables_number	1
_symmetry_cell_setting	triclinic
loop_
_symmetry_equiv_pos_as_xyz
  x,y,z
_cell_length_a	15.538191
_cell_length_b	15.625429
_cell_length_c	14.750779
_cell_angle_alpha	59.907167
_cell_angle_beta	97.572172
_cell_angle_gamma	66.736792
loop_
_atom_site_label
_atom_site_type_symbol
_atom_site_fract_x
_atom_site_fract_y
_atom_site_fract_z
O1	O	1.255893	-0.300856	0.024872
O2	O	0.971311	-0.183363	-0.016019
O3	O	1.134358	-0.393009	0.056951
O4	O	1.092846	-0.091211	-0.048098
O5	O	1.180449	-0.452268	0.237228
O6	O	1.017402	-0.242623	0.164257
O7	O	1.301984	-0.360116	0.205149
Zn8	Zn	1.167011	-0.310778	0.213326
Zn9	Zn	1.106284	-0.232701	-0.024196
O10	O	1.138937	-0.150470	0.132179
C11	C	0.958181	-0.200700	0.069841
C12	C	0.850391	-0.164084	0.057097
C13	C	0.594560	-0.527859	0.183704
C14	C	0.493268	-0.493425	0.171718
C15	C	0.453808	-0.299748	0.104304
C16	C	0.555099	-0.334167	0.116290
C17	C	0.625468	-0.448223	0.155989
C18	C	0.586007	-0.254532	0.088574
C19	C	0.687289	-0.288946	0.100554
C20	C	0.757662	-0.402996	0.140248
C21	C	0.726749	-0.482638	0.167968
C22	C	0.515635	-0.140473	0.048867
C23	C	0.546543	-0.060838	0.021152
C24	C	0.647828	-0.095255	0.033139
C25	C	0.718202	-0.209305	0.072833
C26	C	0.678741	-0.015613	0.005419
C27	C	0.780022	-0.050027	0.017398
C28	C	0.819483	-0.243719	0.084813
C29	C	1.160094	-0.460320	0.160204
C30	C	1.168099	-0.572594	0.199278
C31	C	1.068790	-0.780342	-0.163520
C32	C	1.076316	-0.885849	-0.126771
C33	C	1.126561	-0.950436	0.069754
C34	C	1.119044	-0.844934	0.033022
C35	C	1.090157	-0.759894	-0.083616
C36	C	1.140411	-0.824486	0.112926
C37	C	1.132889	-0.718991	0.076196
C38	C	1.104000	-0.633944	-0.040438
C39	C	1.082635	-0.654398	-0.120346
C40	C	1.169291	-0.909525	0.229563
C41	C	1.190658	-0.889077	0.309467
C42	C	1.183143	-0.783584	0.272738
C43	C	1.154254	-0.698537	0.156104
C44	C	1.204509	-0.763130	0.352646
C45	C	1.196987	-0.657635	0.315916
C46	C	1.146732	-0.593042	0.119374
C47	C	1.315113	-0.342778	0.119287
C48	C	1.422902	-0.379392	0.132023
C49	C	1.113200	-0.083158	0.028924
C50	C	1.105193	0.029118	-0.010157
N51	N	1.208462	-0.364066	0.375430
N52	N	1.064841	-0.179423	-0.186296
C53	C	0.949077	-0.030641	0.611194
C54	C	0.978130	-0.067978	0.724689
C55	C	1.122530	-0.253578	0.789252
C56	C	1.093486	-0.216258	0.675762
C57	C	1.006760	-0.104788	0.586740
C58	C	1.151169	-0.290406	0.651307
C59	C	1.122130	-0.253087	0.537826
C60	C	1.035409	-0.141620	0.448798
C61	C	0.977721	-0.067469	0.473258
C62	C	1.237900	-0.401873	0.740330
C63	C	1.295583	-0.476020	0.715876
C64	C	1.266540	-0.438705	0.602393
C65	C	1.179818	-0.327238	0.513366
C66	C	1.324228	-0.512856	0.577933
C67	C	1.295189	-0.475536	0.464451
C68	C	1.150780	-0.289919	0.399884
H69	H	0.396500	-0.206882	0.071976
Cl70	Cl	1.162867	-1.057347	0.216379
Cl71	Cl	0.683035	-0.671251	0.233627
H72	H	0.433166	-0.112456	0.039112
H73	H	1.059120	-0.585156	-0.215323
Cl74	Cl	0.905603	0.025256	0.755417
Cl75	Cl	0.818882	0.050087	-0.017447
H76	H	0.840127	-0.431010	0.149986
H77	H	1.011769	-0.111234	0.356394
H78	H	1.045275	-0.711099	-0.258497
H79	H	1.175404	-0.995419	0.259463
Cl80	Cl	1.110431	-0.486132	-0.027258
Cl81	Cl	0.458071	0.082544	-0.028760
H82	H	0.621430	0.077255	-0.026915
Cl83	Cl	1.433262	-0.652978	0.689852
Cl84	Cl	1.231557	-0.393706	0.901170
Cl85	Cl	1.094547	-0.501321	-0.086616
Cl86	Cl	1.049445	-0.911545	-0.227236
Cl87	Cl	1.404610	-0.616148	0.827794
Cl88	Cl	1.226964	-0.995988	0.456091
H89	H	1.342162	-0.535915	0.444543
H90	H	0.468110	-0.558282	0.194289
Cl91	Cl	1.240803	-0.870038	0.499268
H92	H	0.876784	-0.336597	0.117146
H93	H	0.784050	-0.575516	0.200302
H94	H	1.214365	-0.640977	0.380978
H95	H	1.261543	-0.432251	0.832731
Cl96	Cl	0.868680	0.072662	0.361342
H97	H	1.080152	-0.199153	0.327398
Cl98	Cl	0.840036	0.109490	0.499278
