data_functionalizedCrystal
_audit_creation_method	'MofGen! by Chris Wilmer'
_symmetry_space_group_name_H-M	'P1'
_symmetry_Int_Tables_number	1
_symmetry_cell_setting	triclinic
loop_
_symmetry_equiv_pos_as_xyz
  x,y,z
_cell_length_a	19.188925
_cell_length_b	19.188930
_cell_length_c	18.266242
_cell_angle_alpha	89.977180
_cell_angle_beta	89.995215
_cell_angle_gamma	83.143665
loop_
_atom_site_label
_atom_site_type_symbol
_atom_site_fract_x
_atom_site_fract_y
_atom_site_fract_z
O1	O	0.087168	0.926148	-0.061116
O2	O	0.098902	0.722836	-0.061065
O3	O	-0.008621	0.830361	-0.061088
O4	O	0.194691	0.818623	-0.061093
O5	O	-0.008624	0.830343	0.060674
O6	O	0.098899	0.722818	0.060697
O7	O	0.087165	0.926129	0.060646
Zn8	Zn	0.093031	0.824471	0.080004
Zn9	Zn	0.093035	0.824495	-0.080423
O10	O	0.194688	0.818604	0.060669
C11	C	0.098520	0.696816	-0.000178
C12	C	0.097380	0.619311	-0.000159
C13	C	-0.034634	0.829972	-0.000207
C14	C	-0.112138	0.828833	-0.000209
C15	C	-0.673909	0.884297	-0.000241
C16	C	-0.601085	0.885374	-0.000234
C17	C	-0.556151	0.822282	-0.000219
C18	C	-0.584045	0.758108	-0.000191
C19	C	-0.656867	0.757033	-0.000190
N20	N	-0.435469	0.776612	-0.041652
N21	N	-0.366292	0.777637	-0.041655
C22	C	-0.336742	0.825516	-0.000220
N23	N	-0.378984	0.872341	0.041208
N24	N	-0.448167	0.871318	0.041207
C25	C	-0.477187	0.823440	-0.000220
C26	C	-0.229893	0.890852	-0.000236
C27	C	-0.157068	0.891926	-0.000225
C28	C	-0.140029	0.764659	-0.000189
C29	C	-0.212852	0.763587	-0.000193
C30	C	-0.257780	0.826685	-0.000220
C31	C	0.160471	0.574386	-0.000172
C32	C	0.159399	0.501563	-0.000180
C33	C	0.095233	0.473667	-0.000189
C34	C	0.032134	0.518602	-0.000172
C35	C	0.033207	0.591424	-0.000157
N36	N	0.046187	0.365694	-0.041659
N37	N	0.045171	0.296516	-0.041675
C38	C	0.091995	0.254259	-0.000234
N39	N	0.139883	0.283792	0.041214
N40	N	0.140900	0.352977	0.041227
C41	C	0.094062	0.394705	-0.000206
C42	C	0.153928	0.130369	-0.000255
C43	C	0.152854	0.057544	-0.000258
C44	C	0.025586	0.074586	-0.000258
C45	C	0.026663	0.147409	-0.000247
C46	C	0.090835	0.175296	-0.000249
C47	C	0.220700	0.818993	-0.000213
C48	C	0.298205	0.820132	-0.000217
C49	C	0.087546	0.952150	-0.000243
C50	C	0.088687	1.029654	-0.000267
N51	N	0.093028	0.824459	0.189491
N52	N	0.093033	0.824512	-0.189910
C53	C	0.135274	0.866668	0.227781
C54	C	0.135272	0.866679	0.304426
C55	C	0.093032	0.824470	0.342778
C56	C	0.050778	0.782259	0.304478
C57	C	0.050776	0.782253	0.227834
N58	N	0.091312	0.763322	0.463145
N59	N	0.091318	0.763328	0.535953
C60	C	0.093035	0.824483	0.573700
N61	N	0.094759	0.885632	0.535888
N62	N	0.094757	0.885625	0.463073
C63	C	0.093030	0.824471	0.425885
C64	C	0.135281	0.866708	0.695098
C65	C	0.135274	0.866721	0.771744
C66	C	0.050784	0.782294	0.771794
C67	C	0.050787	0.782287	0.695149
C68	C	0.093039	0.824493	0.656806
H69	H	-0.578376	0.937626	-0.000253
H70	H	-0.679571	0.704781	-0.000169
H71	H	-0.024713	0.183988	-0.000241
C72	C	0.228960	0.202348	0.062356
C73	C	0.224464	0.161029	-0.000244
H74	H	0.272505	0.221277	0.062360
H75	H	0.225894	0.174270	0.104803
H76	H	0.191535	0.239528	0.062350
H77	H	0.261887	0.123846	-0.000236
H78	H	0.227538	0.189108	-0.042703
C79	C	0.218631	0.678446	-0.000185
C80	C	0.231008	0.605040	-0.000190
H81	H	0.262178	0.697370	-0.000206
H82	H	0.192681	0.693858	0.042284
H83	H	0.192647	0.693894	-0.042638
H84	H	0.256987	0.589592	0.042267
H85	H	0.256969	0.589622	-0.042663
C86	C	0.218785	0.950122	0.235436
C87	C	0.181708	0.913069	0.185635
H88	H	0.247446	0.978773	0.209414
H89	H	0.247476	0.917904	0.265337
H90	H	0.186575	0.978830	0.265324
H91	H	0.213918	0.884358	0.155751
H92	H	0.153014	0.945291	0.155721
H93	H	-0.266475	0.942231	-0.000257
H94	H	0.169684	0.901075	0.663876
H95	H	0.210777	0.464977	-0.000189
C96	C	-0.026019	0.414536	-0.000209
C97	C	-0.038400	0.487943	-0.000187
H98	H	-0.069566	0.395611	-0.000220
H99	H	-0.000057	0.399080	0.042247
H100	H	-0.000048	0.399135	-0.042676
H101	H	-0.064367	0.503344	0.042283
H102	H	-0.064373	0.503405	-0.042647
C103	C	0.225484	-0.034266	0.062313
C104	C	0.222209	0.008158	-0.000273
H105	H	0.268304	-0.064753	0.062303
H106	H	0.187119	-0.061296	0.062308
H107	H	0.223262	-0.005519	0.104774
H108	H	0.224425	-0.020590	-0.042735
H109	H	0.260584	0.035190	-0.000275
C110	C	0.013313	0.744730	0.421989
C111	C	0.004350	0.735857	0.346629
H112	H	-0.015350	0.716081	0.448009
H113	H	0.000245	0.792532	0.434554
H114	H	0.061124	0.731584	0.434514
H115	H	-0.043461	0.749009	0.334104
H116	H	0.017413	0.688046	0.334059
C117	C	0.139417	0.960568	0.390579
C118	C	0.181714	0.913075	0.346527
H119	H	0.168090	0.989212	0.416565
H120	H	0.114262	0.935431	0.424380
H121	H	0.107220	0.989280	0.360663
H122	H	0.213908	0.884360	0.376444
H123	H	0.206881	0.938214	0.312723
H124	H	-0.134365	0.944179	-0.000240
H125	H	0.016374	0.747881	0.196659
H126	H	0.169673	0.901097	0.802919
H127	H	-0.018171	0.628003	-0.000147
H128	H	-0.026659	0.051874	-0.000311
C129	C	-0.032717	0.698831	0.702900
C130	C	0.004357	0.735881	0.653055
H131	H	-0.061380	0.670179	0.676912
H132	H	-0.061407	0.731052	0.732778
H133	H	-0.000506	0.670127	0.732807
H134	H	-0.027854	0.764590	0.623152
H135	H	0.033049	0.703656	0.623165
H136	H	0.016391	0.747927	0.803019
H137	H	-0.547455	0.706738	-0.000176
C138	C	-0.710839	0.992452	-0.062864
C139	C	-0.723289	0.953657	-0.000261
H140	H	-0.741322	1.035274	-0.062871
H141	H	-0.719279	0.966138	-0.105309
H142	H	-0.663474	1.002265	-0.062861
H143	H	-0.770653	0.943840	-0.000266
H144	H	-0.714854	0.979977	0.042195
H145	H	-0.103444	0.713288	-0.000170
H146	H	-0.235557	0.711337	-0.000179
