data_functionalizedCrystal
_audit_creation_method	'MofGen! by Chris Wilmer'
_symmetry_space_group_name_H-M	'P1'
_symmetry_Int_Tables_number	1
_symmetry_cell_setting	triclinic
loop_
_symmetry_equiv_pos_as_xyz
  x,y,z
_cell_length_a	15.944551
_cell_length_b	15.944551
_cell_length_c	14.421503
_cell_angle_alpha	89.996660
_cell_angle_beta	89.996859
_cell_angle_gamma	96.501262
loop_
_atom_site_label
_atom_site_type_symbol
_atom_site_fract_x
_atom_site_fract_y
_atom_site_fract_z
O1	O	1.114529	-0.108320	-0.077017
O2	O	0.869980	-0.121677	-0.077040
O3	O	0.998933	0.007276	-0.077020
O4	O	0.985576	-0.237273	-0.077038
O5	O	0.998911	0.007257	0.077204
O6	O	0.869958	-0.121696	0.077183
O7	O	1.114508	-0.108340	0.077206
Cu8	Cu	0.992231	-0.115020	0.091277
Cu9	Cu	0.992256	-0.114997	-0.091110
O10	O	0.985555	-0.237293	0.077186
C11	C	0.838675	-0.121132	0.000069
C12	C	0.745429	-0.119470	0.000060
C13	C	0.530572	-0.035565	0.000084
C14	C	0.469563	-0.074518	-0.075959
C15	C	0.574703	-0.116462	0.000071
C16	C	0.469564	-0.074556	0.076093
C17	C	0.409790	-0.113551	0.000086
C18	C	0.514922	-0.155437	-0.076035
C19	C	0.514929	-0.155464	0.076086
C20	C	0.453937	-0.194476	0.000024
C21	C	0.669705	-0.118137	0.000062
C22	C	0.314789	-0.111883	0.000089
C23	C	0.998367	0.038561	0.000092
C24	C	0.996705	0.131807	0.000093
C25	C	1.145813	-0.108885	0.000096
C26	C	1.239059	-0.110547	0.000098
C27	C	0.986120	-0.268577	0.000072
C28	C	0.987782	-0.361823	0.000066
N29	N	0.992219	-0.115035	0.219558
C30	C	0.912801	0.346663	0.000072
C31	C	0.951753	0.407671	0.076117
C32	C	0.993698	0.302533	0.000085
C33	C	0.951793	0.407674	-0.075935
C34	C	0.990787	0.467445	0.000074
C35	C	1.032672	0.362312	0.076193
C36	C	1.032701	0.362308	-0.075927
C37	C	1.071711	0.423298	0.000136
C38	C	0.995372	0.207530	0.000092
C39	C	0.989119	0.562446	0.000073
N40	N	0.992275	-0.114975	-0.219392
C41	C	0.932581	-0.174636	0.469202
C42	C	1.008481	-0.190943	0.531011
C43	C	0.992240	-0.115015	0.408719
C44	C	0.916359	-0.098727	0.531005
C45	C	0.992253	-0.114997	0.591441
C46	C	1.068178	-0.131360	0.469167
C47	C	0.976007	-0.039111	0.469156
C48	C	1.051961	-0.055386	0.530936
C49	C	0.992231	-0.115027	0.303458
C50	C	0.992270	-0.114985	0.696700
H51	H	0.420779	-0.261683	-0.000023
H52	H	0.852183	-0.084959	0.558170
H53	H	1.066850	0.342314	0.140554
H54	H	0.962240	0.025051	0.441965
N55	N	1.156024	0.464889	0.000202
N56	N	1.204857	0.453167	0.065553
H57	H	1.264403	0.482540	0.065604
H58	H	1.066897	0.342186	-0.140214
N59	N	0.908818	0.432910	0.156749
N60	N	0.901226	0.509158	0.169983
H61	H	0.870899	0.526982	0.226926
N62	N	0.540196	-0.198368	0.156719
N63	N	0.576551	-0.263411	0.148298
H64	H	0.594399	-0.293707	0.205252
N65	N	0.444321	-0.031598	-0.156600
N66	N	0.394513	-0.069574	-0.213522
H67	H	0.376687	-0.039259	-0.270472
H68	H	1.132368	-0.145205	0.442119
N69	N	0.908853	0.432884	-0.156575
N70	N	0.833359	0.405113	-0.170109
H71	H	0.803027	0.422915	-0.227057
H72	H	0.449469	-0.040333	0.140379
H73	H	0.534918	-0.189620	-0.140394
N74	N	0.828562	0.304886	0.000161
N75	N	0.779594	0.316735	0.065349
H76	H	0.720101	0.287230	0.065416
N77	N	0.572349	0.048674	-0.000009
N78	N	0.560782	0.097524	-0.065399
H79	H	0.590286	0.157017	-0.065469
N80	N	0.869356	-0.237941	0.435205
N81	N	0.872764	-0.313793	0.455057
H82	H	0.828114	-0.358504	0.431047
H83	H	1.022224	-0.255126	0.558180
N84	N	1.115337	0.007864	0.564736
N85	N	1.173380	-0.012567	0.615287
H86	H	1.218143	0.032098	0.639160
