data_functionalizedCrystal
_audit_creation_method	'MofGen! by Chris Wilmer'
_symmetry_space_group_name_H-M	'P1'
_symmetry_Int_Tables_number	1
_symmetry_cell_setting	triclinic
loop_
_symmetry_equiv_pos_as_xyz
  x,y,z
_cell_length_a	15.021413
_cell_length_b	15.944551
_cell_length_c	15.944551
_cell_angle_alpha	83.498738
_cell_angle_beta	90.003065
_cell_angle_gamma	89.997174
loop_
_atom_site_label
_atom_site_type_symbol
_atom_site_fract_x
_atom_site_fract_y
_atom_site_fract_z
O1	O	0.073941	-1.114529	-0.108321
O2	O	0.073964	-0.869979	-0.121677
O3	O	0.073944	-0.998932	0.007276
O4	O	0.073961	-0.985576	-0.237274
O5	O	-0.074121	-0.998912	0.007257
O6	O	-0.074101	-0.869959	-0.121695
O7	O	-0.074123	-1.114508	-0.108339
Zn8	Zn	-0.097620	-0.992230	-0.115020
Zn9	Zn	0.097461	-0.992257	-0.114996
O10	O	-0.074103	-0.985555	-0.237292
C11	C	-0.000066	-0.838675	-0.121132
C12	C	-0.000057	-0.745429	-0.119470
N13	N	-0.230758	-0.992218	-0.115036
C14	C	-0.000089	-0.998367	0.038561
C15	C	-0.000089	-0.996705	0.131807
C16	C	-0.470432	-0.932581	-0.174636
C17	C	-0.529772	-1.008481	-0.190943
C18	C	-0.412365	-0.992239	-0.115015
C19	C	-0.529766	-0.916360	-0.098727
C20	C	-0.587789	-0.992253	-0.114997
C21	C	-0.470398	-1.068178	-0.131360
C22	C	-0.470387	-0.976006	-0.039111
C23	C	-0.529701	-1.051962	-0.055386
C24	C	-0.311307	-0.992230	-0.115028
C25	C	-0.688844	-0.992271	-0.114984
N26	N	0.230598	-0.992276	-0.114973
C27	C	-0.000092	-1.145813	-0.108885
C28	C	-0.000094	-1.239059	-0.110547
C29	C	-0.000081	-0.530572	-0.035565
C30	C	0.072926	-0.469562	-0.074518
C31	C	-0.000068	-0.574703	-0.116462
C32	C	-0.073054	-0.469564	-0.074556
C33	C	-0.000083	-0.409790	-0.113551
C34	C	0.072998	-0.514921	-0.155438
C35	C	-0.073047	-0.514930	-0.155464
C36	C	-0.000023	-0.453937	-0.194476
C37	C	-0.000059	-0.669705	-0.118137
C38	C	-0.000085	-0.314789	-0.111883
C39	C	-0.000069	-0.986120	-0.268577
C40	C	-0.000063	-0.987782	-0.361823
C41	C	-0.000069	-0.912801	0.346663
C42	C	-0.073077	-0.951753	0.407672
C43	C	-0.000082	-0.993698	0.302533
C44	C	0.072903	-0.951792	0.407673
C45	C	-0.000071	-0.990787	0.467445
C46	C	-0.073150	-1.032672	0.362313
C47	C	0.072895	-1.032700	0.362308
C48	C	-0.000131	-1.071711	0.423298
C49	C	-0.000089	-0.995372	0.207530
C50	C	-0.000070	-0.989119	0.562446
H51	H	-0.444409	-0.882181	-0.225096
O52	O	-0.560769	-0.839730	-0.082394
C53	C	-0.530587	-0.777025	-0.145431
H54	H	-0.468103	-0.800214	-0.176207
H55	H	-0.584658	-0.763167	-0.195251
C56	C	-0.585726	-0.667441	-0.067617
C57	C	-0.508978	-0.695920	-0.105412
H58	H	-0.572401	-0.617411	-0.042934
H59	H	-0.606063	-0.709687	-0.025149
H60	H	-0.630778	-0.655900	-0.109141
H61	H	-0.463932	-0.707472	-0.063887
H62	H	-0.488633	-0.653675	-0.147872
H63	H	-0.134941	-1.066851	0.342314
O64	O	0.000184	-0.414410	-0.274665
C65	C	0.077248	-0.437549	-0.316986
H66	H	0.130800	-0.459458	-0.268757
H67	H	0.060531	-0.491035	-0.356098
C68	C	0.045896	-0.334066	-0.434768
C69	C	0.111672	-0.360970	-0.375532
H70	H	0.067129	-0.286831	-0.470885
H71	H	-0.006025	-0.318479	-0.406257
H72	H	0.031971	-0.378646	-0.467352
H73	H	0.125588	-0.316394	-0.342942
H74	H	0.163597	-0.376548	-0.404039
O75	O	-0.146766	-0.538924	-0.196135
C76	C	-0.223592	-0.516062	-0.153285
H77	H	-0.206106	-0.509297	-0.084802
H78	H	-0.250228	-0.453420	-0.185059
C79	C	-0.316630	-0.593154	-0.240176
C80	C	-0.295155	-0.584853	-0.156063
H81	H	-0.360775	-0.635585	-0.241893
H82	H	-0.264871	-0.608554	-0.269048
H83	H	-0.338821	-0.540948	-0.266645
H84	H	-0.272954	-0.637055	-0.129599
H85	H	-0.346911	-0.569463	-0.127187
O86	O	-0.146660	-0.445703	-0.033619
C87	C	-0.146372	-0.485096	0.050134
H88	H	-0.103637	-0.544502	0.054166
H89	H	-0.117877	-0.439848	0.093699
C90	C	-0.294765	-0.436037	0.072377
C91	C	-0.242283	-0.509005	0.077326
H92	H	-0.353928	-0.450783	0.089153
H93	H	-0.294959	-0.409495	0.015951
H94	H	-0.271009	-0.398338	0.108681
H95	H	-0.266033	-0.546698	0.041015
H96	H	-0.242096	-0.535554	0.133747
O97	O	0.146614	-1.073373	0.338316
C98	C	0.223440	-1.030524	0.361181
H99	H	0.205956	-0.962041	0.367944
H100	H	0.250073	-1.062298	0.423824
C101	C	0.316479	-1.117419	0.284093
C102	C	0.295005	-1.033305	0.292393
H103	H	0.360626	-1.119137	0.241664
H104	H	0.264720	-1.146290	0.268691
H105	H	0.338668	-1.143888	0.336301
H106	H	0.272807	-1.006841	0.240190
H107	H	0.346762	-1.004430	0.307785
H108	H	-0.555856	-1.022224	-0.255126
O109	O	0.000157	-0.570282	0.044551
C110	C	0.077263	-0.547295	0.086906
H111	H	0.130794	-0.525302	0.038693
H112	H	0.060603	-0.493910	0.126167
C113	C	0.045934	-0.651020	0.204481
C114	C	0.111685	-0.624015	0.145265
H115	H	0.067166	-0.698342	0.240483
H116	H	-0.006015	-0.666505	0.175948
H117	H	0.032057	-0.606526	0.237190
H118	H	0.125552	-0.668505	0.112551
H119	H	0.163637	-0.608539	0.173794
O120	O	0.146512	-0.910859	0.431532
C121	C	0.146227	-0.827106	0.392137
H122	H	0.103488	-0.823074	0.332733
H123	H	0.117739	-0.783538	0.437385
C124	C	0.294626	-0.804871	0.441187
C125	C	0.242139	-0.799920	0.368222
H126	H	0.353789	-0.788099	0.426438
H127	H	0.294817	-0.861295	0.467731
H128	H	0.270875	-0.768564	0.478886
H129	H	0.265884	-0.836234	0.330529
H130	H	0.241954	-0.743500	0.341671
H131	H	-0.000178	-1.138919	0.456457
O132	O	0.146579	-0.445725	-0.033635
C133	C	0.197854	-0.517617	-0.005892
H134	H	0.153473	-0.575981	-0.000063
H135	H	0.253172	-0.525211	-0.053397
C136	C	0.293600	-0.435364	0.073551
C137	C	0.239088	-0.507047	0.080717
H138	H	0.319039	-0.428844	0.126973
H139	H	0.259057	-0.386928	0.054858
H140	H	0.339691	-0.441701	0.033960
H141	H	0.192993	-0.500704	0.120299
H142	H	0.273624	-0.555482	0.099419
H143	H	0.134787	-0.534918	-0.189621
O144	O	-0.146638	-0.910792	0.431601
C145	C	-0.146385	-0.827049	0.392181
H146	H	-0.075341	-0.807564	0.373943
H147	H	-0.189650	-0.822642	0.333099
C148	C	-0.270890	-0.791776	0.475967
C149	C	-0.183632	-0.767842	0.453574
H150	H	-0.293869	-0.755254	0.513835
H151	H	-0.271064	-0.848196	0.502524
H152	H	-0.306934	-0.788103	0.426726
H153	H	-0.147588	-0.771525	0.502813
H154	H	-0.183453	-0.711421	0.427027
H155	H	-0.000136	-0.845652	0.313356
H156	H	-0.444430	-1.132368	-0.145206
H157	H	-0.444283	-0.962240	0.025051
O158	O	-0.560519	-1.112327	0.004688
C159	C	-0.530086	-1.192179	-0.012785
H160	H	-0.513527	-1.189780	-0.082789
H161	H	-0.467892	-1.210040	0.026178
C162	C	-0.623561	-1.261464	0.096041
C163	C	-0.603231	-1.258519	0.010059
H164	H	-0.668678	-1.302388	0.110135
H165	H	-0.644062	-1.207667	0.107815
H166	H	-0.571726	-1.276346	0.128499
H167	H	-0.655062	-1.243628	-0.022398
H168	H	-0.582740	-1.312316	-0.001721
