data_functionalizedCrystal
_audit_creation_method	'MofGen! by Chris Wilmer'
_symmetry_space_group_name_H-M	'P1'
_symmetry_Int_Tables_number	1
_symmetry_cell_setting	triclinic
loop_
_symmetry_equiv_pos_as_xyz
  x,y,z
_cell_length_a	19.805407
_cell_length_b	16.625546
_cell_length_c	19.805399
_cell_angle_alpha	90.027867
_cell_angle_beta	90.019573
_cell_angle_gamma	90.022468
loop_
_atom_site_label
_atom_site_type_symbol
_atom_site_fract_x
_atom_site_fract_y
_atom_site_fract_z
Zn1	Zn	1.034754	-0.321020	0.382718
Zn2	Zn	1.368088	0.012313	0.716052
Zn3	Zn	1.701421	0.345646	1.049385
Zn4	Zn	1.034677	-0.455857	0.269529
Zn5	Zn	1.368010	-0.122524	0.602863
Zn6	Zn	1.701344	0.210809	0.936196
Zn7	Zn	0.921569	-0.321043	0.269543
Zn8	Zn	1.254902	0.012291	0.602876
Zn9	Zn	1.588236	0.345624	0.936210
Zn10	Zn	0.921540	-0.455815	0.382676
Zn11	Zn	1.254873	-0.122481	0.716010
Zn12	Zn	1.588207	0.210852	1.049343
O13	O	0.978135	-0.388434	0.326117
O14	O	1.311468	-0.055100	0.659450
O15	O	1.644802	0.278233	0.992783
O16	O	1.129461	-0.338915	0.367716
O17	O	1.462794	-0.005582	0.701049
O18	O	1.796127	0.327751	1.034382
O19	O	1.019652	-0.438001	0.174815
O20	O	1.352986	-0.104668	0.508148
O21	O	1.686319	0.228665	0.841481
O22	O	0.936628	-0.208207	0.284579
O23	O	1.269961	0.125126	0.617912
O24	O	1.603294	0.458459	0.951246
O25	O	1.129404	-0.437980	0.284556
O26	O	1.462737	-0.104646	0.617890
O27	O	1.796070	0.228687	0.951223
O28	O	1.019784	-0.208191	0.367729
O29	O	1.353118	0.125142	0.701062
O30	O	1.686451	0.458476	1.034395
O31	O	0.936553	-0.338953	0.174825
O32	O	1.269886	-0.005620	0.508158
O33	O	1.603219	0.327713	0.841491
O34	O	0.826848	-0.338912	0.284538
O35	O	1.160182	-0.005578	0.617872
O36	O	1.493515	0.327755	0.951205
O37	O	0.936579	-0.437907	0.477398
O38	O	1.269912	-0.104573	0.810732
O39	O	1.603245	0.228760	1.144065
O40	O	0.826827	-0.437928	0.367657
O41	O	1.160161	-0.104595	0.700990
O42	O	1.493494	0.228738	1.034324
O43	O	1.019756	-0.338874	0.477429
O44	O	1.353090	-0.005540	0.810763
O45	O	1.686423	0.327793	1.144096
O46	O	1.019625	-0.568684	0.284515
O47	O	1.352958	-0.235351	0.617849
O48	O	1.686291	0.097982	0.951182
O49	O	0.936504	-0.568653	0.367644
O50	O	1.269837	-0.235319	0.700977
O51	O	1.603170	0.098014	1.034311
C52	C	0.802279	-0.388418	0.326095
C53	C	1.135612	-0.055085	0.659428
C54	C	1.468946	0.278248	0.992762
C55	C	0.727047	-0.388431	0.326102
C56	C	1.060380	-0.055098	0.659435
C57	C	1.393714	0.278236	0.992768
C58	C	0.691710	-0.440067	0.369311
C59	C	1.025043	-0.106733	0.702645
C60	C	1.358376	0.226600	1.035978
C61	C	0.621021	-0.440068	0.369321
C62	C	0.954354	-0.106735	0.702654
C63	C	1.287688	0.226599	1.035988
C64	C	0.585671	-0.388437	0.326117
C65	C	0.919005	-0.055104	0.659450
C66	C	1.252338	0.278229	0.992783
C67	C	0.621014	-0.336796	0.282905
C68	C	0.954347	-0.003463	0.616238
C69	C	1.287680	0.329870	0.949572
C70	C	0.691701	-0.336791	0.282899
C71	C	1.025034	-0.003458	0.616233
C72	C	1.358368	0.329875	0.949566
C73	C	0.335941	-0.336814	0.282927
C74	C	0.669274	-0.003481	0.616261
C75	C	1.002607	0.329853	0.949594
C76	C	0.265248	-0.336825	0.282935
C77	C	0.598582	-0.003491	0.616268
C78	C	0.931915	0.329842	0.949602
C79	C	0.265261	-0.440091	0.369349
C80	C	0.598594	-0.106757	0.702682
C81	C	0.931927	0.226576	1.036016
C82	C	0.335948	-0.440086	0.369343
C83	C	0.669281	-0.106753	0.702677
C84	C	1.002615	0.226581	1.036010
C85	C	0.371284	-0.388442	0.326134
C86	C	0.704617	-0.055109	0.659468
C87	C	1.037951	0.278225	0.992801
C88	C	0.447932	-0.388440	0.326125
C89	C	0.781266	-0.055107	0.659459
C90	C	1.114599	0.278227	0.992792
C91	C	0.509024	-0.388443	0.326122
C92	C	0.842358	-0.055110	0.659455
C93	C	1.175691	0.278224	0.992788
C94	C	0.978071	-0.597925	0.326088
C95	C	1.311404	-0.264591	0.659422
C96	C	1.644738	0.068742	0.992755
C97	C	0.978105	-0.687546	0.326099
C98	C	1.311439	-0.354212	0.659432
C99	C	1.644772	-0.020879	0.992766
C100	C	0.978224	-1.015721	0.326169
C101	C	1.311557	-0.682388	0.659503
C102	C	1.644890	-0.349055	0.992836
C103	C	0.978189	-0.924413	0.326152
C104	C	1.311522	-0.591079	0.659485
C105	C	1.644855	-0.257746	0.992818
C106	C	0.978164	-0.851636	0.326134
C107	C	1.311497	-0.518303	0.659467
C108	C	1.644831	-0.184970	0.992800
C109	C	0.978130	-0.760322	0.326117
C110	C	1.311463	-0.426989	0.659450
C111	C	1.644797	-0.093655	0.992783
C112	C	1.154678	-0.388450	0.326139
C113	C	1.488011	-0.055116	0.659472
C114	C	1.821344	0.278217	0.992806
C115	C	1.229910	-0.388457	0.326149
C116	C	1.563243	-0.055123	0.659482
C117	C	1.896576	0.278210	0.992815
C118	C	0.978173	-0.388383	0.502660
C119	C	1.311506	-0.055050	0.835993
C120	C	1.644840	0.278284	1.169326
C121	C	0.978189	-0.388361	0.577892
C122	C	1.311522	-0.055028	0.911225
C123	C	1.644856	0.278305	1.244558
C124	C	0.978218	-0.178125	0.326160
C125	C	1.311551	0.155209	0.659493
C126	C	1.644884	0.488542	0.992827
C127	C	0.978253	-0.088504	0.326178
C128	C	1.311586	0.244830	0.659512
C129	C	1.644920	0.578163	0.992845
C130	C	0.978136	-0.388426	0.150261
C131	C	1.311469	-0.055093	0.483594
C132	C	1.644803	0.278241	0.816927
C133	C	0.978251	-0.388221	0.075029
C134	C	1.311584	-0.054887	0.408362
C135	C	1.644918	0.278446	0.741696
C136	C	1.021501	-0.336792	0.613253
C137	C	1.354834	-0.003459	0.946586
C138	C	1.688168	0.329874	1.279920
C139	C	1.021508	-0.336769	0.683941
C140	C	1.354841	-0.003436	1.017275
C141	C	1.688174	0.329898	1.350608
C142	C	0.978206	-0.388319	0.719267
C143	C	1.311539	-0.054986	1.052601
C144	C	1.644873	0.278347	1.385934
C145	C	0.934889	-0.439890	0.683901
C146	C	1.268223	-0.106557	1.017234
C147	C	1.601556	0.226776	1.350568
C148	C	0.934880	-0.439909	0.613214
C149	C	1.268213	-0.106576	0.946547
C150	C	1.601546	0.226758	1.279880
C151	C	0.934928	-0.439815	0.968974
C152	C	1.268261	-0.106482	1.302308
C153	C	1.601594	0.226851	1.635641
C154	C	0.934942	-0.439794	1.039667
C155	C	1.268276	-0.106461	1.373000
C156	C	1.601609	0.226872	1.706333
C157	C	1.021556	-0.336675	1.039702
C158	C	1.354889	-0.003342	1.373035
C159	C	1.688223	0.329992	1.706369
C160	C	1.021546	-0.336694	0.969015
C161	C	1.354879	-0.003360	1.302348
C162	C	1.688213	0.329973	1.635681
C163	C	0.978227	-0.388262	0.933655
C164	C	1.311561	-0.054928	1.266988
C165	C	1.644894	0.278405	1.600321
C166	C	0.978219	-0.388285	0.857006
C167	C	1.311553	-0.054952	1.190340
C168	C	1.644886	0.278381	1.523673
C169	C	0.978217	-0.388300	0.795914
C170	C	1.311550	-0.054967	1.129248
C171	C	1.644883	0.278366	1.462581
H172	H	0.364703	-0.294769	0.247739
H173	H	0.698036	0.038565	0.581072
H174	H	1.031369	0.371898	0.914406
H175	H	0.236481	-0.482139	0.404534
H176	H	0.569815	-0.148805	0.737868
H177	H	0.903148	0.184528	1.071201
H178	H	0.592226	-0.294754	0.247730
H179	H	0.925560	0.038579	0.581064
H180	H	1.258893	0.371912	0.914397
F181	F	0.888824	-0.494698	0.931350
F182	F	1.222157	-0.161365	1.264684
F183	F	1.555491	0.171968	1.598017
H184	H	1.056809	-0.294719	0.940256
H185	H	1.390142	0.038614	1.273589
H186	H	1.723476	0.371948	1.606923
F187	F	0.729309	-0.281832	0.236911
F188	F	1.062643	0.051501	0.570244
F189	F	1.395976	0.384834	0.903578
H190	H	0.899630	-0.481861	0.712669
H191	H	1.232963	-0.148527	1.046002
H192	H	1.566297	0.184806	1.379336
H193	H	0.720486	-0.482113	0.404491
H194	H	1.053820	-0.148780	0.737824
H195	H	1.387153	0.184554	1.071158
H196	H	1.056764	-0.294817	0.584496
H197	H	1.390098	0.038517	0.917829
H198	H	1.723431	0.371850	1.251162
H199	H	1.056778	-0.294778	0.712729
H200	H	1.390111	0.038555	1.046063
H201	H	1.723445	0.371888	1.379396
H202	H	0.364726	-0.482132	0.404522
H203	H	0.698059	-0.148798	0.737856
H204	H	1.031393	0.184535	1.071189
F205	F	0.888852	-0.494663	1.077262
F206	F	1.222185	-0.161330	1.410595
F207	F	1.555518	0.172003	1.743928
F208	F	1.067658	-0.281789	1.077340
F209	F	1.400991	0.051545	1.410674
F210	F	1.734324	0.384878	1.744007
H211	H	0.592253	-0.482116	0.404506
H212	H	0.925586	-0.148782	0.737839
H213	H	1.258919	0.184551	1.071173
H214	H	0.236469	-0.294776	0.247753
H215	H	0.569802	0.038558	0.581086
H216	H	0.903135	0.371891	0.914419
F217	F	0.888780	-0.494794	0.575580
F218	F	1.222113	-0.161461	0.908913
F219	F	1.555446	0.171873	1.242247
