data_functionalizedCrystal
_audit_creation_method	'MofGen! by Chris Wilmer'
_symmetry_space_group_name_H-M	'P1'
_symmetry_Int_Tables_number	1
_symmetry_cell_setting	triclinic
loop_
_symmetry_equiv_pos_as_xyz
  x,y,z
_cell_length_a	17.699077
_cell_length_b	14.853569
_cell_length_c	16.176319
_cell_angle_alpha	89.992032
_cell_angle_beta	89.993140
_cell_angle_gamma	83.458071
loop_
_atom_site_label
_atom_site_type_symbol
_atom_site_fract_x
_atom_site_fract_y
_atom_site_fract_z
O1	O	1.004378	0.113983	-0.068738
O2	O	0.784038	0.128821	-0.068742
O3	O	0.900093	-0.009850	-0.068732
O4	O	0.888323	0.252653	-0.068748
O5	O	0.900077	-0.009859	0.068761
O6	O	0.784022	0.128812	0.068751
O7	O	1.004362	0.113974	0.068755
Cu8	Cu	0.894190	0.121392	0.081308
Cu9	Cu	0.894209	0.121403	-0.081294
O10	O	0.888307	0.252644	0.068745
C11	C	0.755831	0.128286	0.000004
C12	C	0.671809	0.126693	0.000003
C13	C	0.632331	0.125938	0.074951
C14	C	0.553384	0.124428	0.074952
C15	C	0.513916	0.123679	0.000004
C16	C	0.553400	0.124431	-0.074951
C17	C	0.632346	0.125935	-0.074951
C18	C	0.235021	0.118364	-0.074952
C19	C	0.156070	0.116863	-0.074946
C20	C	0.156059	0.116857	0.074951
C21	C	0.235005	0.118361	0.074951
C22	C	0.274483	0.119108	-0.000003
C23	C	0.360085	0.120745	-0.000003
C24	C	0.428314	0.122049	0.000003
C25	C	0.899551	-0.043441	0.000015
C26	C	0.897952	-0.143519	0.000016
C27	C	0.828263	-0.179637	0.000016
C28	C	0.966140	-0.201437	0.000010
C29	C	0.964640	-0.295466	0.000006
C30	C	0.894951	-0.331584	0.000006
C31	C	0.826761	-0.273674	0.000010
C32	C	1.032828	-0.353383	-0.000006
C33	C	1.031331	-0.447418	-0.000011
C34	C	0.961641	-0.483538	-0.000005
C35	C	0.893449	-0.425621	0.000000
C36	C	0.823759	-0.461739	0.000000
C37	C	0.755566	-0.403824	0.000011
C38	C	0.757071	-0.309793	0.000016
C39	C	0.960136	-0.577569	-0.000010
C40	C	0.822257	-0.555776	-0.000006
C41	C	1.032568	0.114509	0.000008
C42	C	1.116591	0.116101	0.000004
C43	C	0.888848	0.286236	-0.000003
C44	C	0.890447	0.386313	-0.000010
N45	N	0.894182	0.121384	0.195673
N46	N	0.894223	0.121403	-0.195659
C47	C	0.945587	0.060006	0.238941
C48	C	0.945591	0.060005	0.325489
C49	C	0.894193	0.121387	0.368765
C50	C	0.842783	0.182769	0.325491
C51	C	0.842776	0.182765	0.238945
C52	C	0.842809	0.182785	0.674519
C53	C	0.842821	0.182787	0.761070
C54	C	0.945624	0.060026	0.761062
C55	C	0.945617	0.060022	0.674517
C56	C	0.894204	0.121399	0.631250
C57	C	0.894200	0.121399	0.537405
C58	C	0.894201	0.121393	0.462608
H59	H	0.521260	0.123815	-0.135975
H60	H	0.123937	0.116252	-0.135982
C61	C	0.278436	0.119197	-0.157397
H62	H	0.243620	0.118546	-0.202031
H63	H	0.314952	0.067232	-0.160515
H64	H	0.303511	0.172343	-0.160516
C65	C	1.109481	-0.313657	-0.000003
H66	H	1.149878	-0.361614	-0.000017
H67	H	1.112928	-0.277442	0.047948
H68	H	1.112934	-0.277415	-0.047952
C69	C	0.675741	0.126764	0.157393
H70	H	0.728412	0.127776	0.146662
H71	H	0.668520	0.073964	0.188193
H72	H	0.657079	0.179075	0.188183
C73	C	0.675771	0.126772	-0.157394
H74	H	0.640959	0.126120	-0.202031
H75	H	0.712289	0.074808	-0.160508
H76	H	0.700847	0.179919	-0.160511
H77	H	0.123908	0.116244	0.135982
H78	H	0.987444	0.010025	0.203711
H79	H	0.765507	-0.585176	0.000002
C80	C	0.786222	0.250263	0.373089
H81	H	0.755595	0.286804	0.334922
H82	H	0.813464	0.287764	0.406850
H83	H	0.754695	0.217848	0.406849
C84	C	0.678912	-0.443561	0.000011
H85	H	0.687790	-0.507857	0.000008
H86	H	0.650831	-0.423662	-0.047931
H87	H	0.650832	-0.423692	0.047969
C88	C	0.682067	-0.246088	0.000018
H89	H	0.692945	-0.184914	0.000011
H90	H	0.653489	-0.257024	0.047964
H91	H	0.653502	-0.257012	-0.047936
H92	H	0.772742	-0.132478	0.000028
H93	H	1.015658	-0.624719	-0.000026
H94	H	1.022878	-0.172024	0.000026
C95	C	0.278419	0.119184	0.157391
H96	H	0.331090	0.120195	0.146656
H97	H	0.271198	0.066384	0.188191
H98	H	0.259759	0.171495	0.188183
C99	C	1.106339	-0.511116	-0.000011
H100	H	1.148057	-0.476136	-0.000004
H101	H	1.108627	-0.548247	-0.047956
H102	H	1.108613	-0.548254	0.047944
C103	C	1.002144	-0.007503	0.373081
H104	H	1.032761	-0.044050	0.334911
H105	H	0.974892	-0.044996	0.406857
H106	H	1.033682	0.024896	0.406826
C107	C	1.002152	-0.007501	0.626917
H108	H	1.032763	-0.044063	0.665082
H109	H	1.033687	0.024877	0.593139
H110	H	0.974878	-0.044992	0.593171
C111	C	0.509961	0.123604	0.157395
H112	H	0.544771	0.124278	0.202031
H113	H	0.484883	0.070466	0.160522
H114	H	0.473444	0.175577	0.160503
H115	H	0.987485	0.010046	0.796300
H116	H	0.800964	0.232773	0.796305
H117	H	0.800948	0.232763	0.639297
C118	C	0.786234	0.250284	0.191349
H119	H	0.755629	0.286848	0.229517
H120	H	0.754694	0.217900	0.157600
H121	H	0.813499	0.287774	0.157577
