data_functionalizedCrystal
_audit_creation_method	'MofGen! by Chris Wilmer'
_symmetry_space_group_name_H-M	'P1'
_symmetry_Int_Tables_number	1
_symmetry_cell_setting	triclinic
loop_
_symmetry_equiv_pos_as_xyz
  x,y,z
_cell_length_a	12.837943
_cell_length_b	9.730223
_cell_length_c	10.654551
_cell_angle_alpha	89.995540
_cell_angle_beta	89.657184
_cell_angle_gamma	89.997059
loop_
_atom_site_label
_atom_site_type_symbol
_atom_site_fract_x
_atom_site_fract_y
_atom_site_fract_z
O1	O	1.377804	-0.114255	0.326754
O2	O	1.075882	-0.114264	0.310613
O3	O	1.233784	-0.114256	0.136701
O4	O	1.219902	-0.114263	0.500665
O5	O	1.233771	0.114324	0.136688
O6	O	1.075869	0.114316	0.310600
O7	O	1.377791	0.114325	0.326741
Zn8	Zn	1.226828	0.150613	0.318668
Zn9	Zn	1.226845	-0.150551	0.318685
O10	O	1.219889	0.114317	0.500652
C11	C	1.037216	0.000025	0.305153
C12	C	0.922022	0.000022	0.288891
C13	C	1.232758	0.000032	0.089786
C14	C	1.229708	0.000025	-0.049990
N15	N	1.226824	0.356149	0.318656
C16	C	0.682470	0.000038	0.484395
C17	C	0.574234	0.000036	0.469121
C18	C	0.597313	0.000025	0.243070
C19	C	0.705548	0.000027	0.258344
C20	C	0.748123	0.000032	0.379010
C21	C	0.856360	0.000024	0.394284
C22	C	0.879437	0.000023	0.168233
C23	C	0.771201	0.000021	0.152959
C24	C	1.416457	0.000033	0.332200
C25	C	1.531651	0.000027	0.348462
N26	N	1.226857	-0.356088	0.318688
C27	C	1.163382	0.572011	0.234874
C28	C	1.163368	0.428129	0.234855
C29	C	1.290307	0.428060	0.402474
C30	C	1.290325	0.571940	0.402486
C31	C	1.228283	-0.124575	-0.115643
C32	C	1.225408	-0.124576	-0.246977
C33	C	1.225387	0.124634	-0.246994
C34	C	1.228254	0.124634	-0.115662
C35	C	1.220915	0.000027	0.547567
C36	C	1.223965	0.000024	0.687344
H37	H	0.891022	0.000030	0.492536
Br38	Br	0.539514	0.000044	0.079321
Br39	Br	0.740255	0.000018	0.648151
Br40	Br	1.223412	0.293737	-0.336128
Br41	Br	1.077215	0.330553	0.121106
H42	H	1.341979	0.369443	0.470702
Br43	Br	1.376485	0.669529	0.516233
H44	H	0.520782	0.000045	0.554937
H45	H	1.229409	0.226105	-0.062206
H46	H	1.229463	-0.226040	-0.062177
H47	H	0.736522	0.000033	0.054715
Br48	Br	1.077249	0.669684	0.121145
Br49	Br	0.968544	-0.000014	0.025201
H50	H	1.224246	-0.226038	-0.300426
