data_functionalizedCrystal
_audit_creation_method	'MofGen! by Chris Wilmer'
_symmetry_space_group_name_H-M	'P1'
_symmetry_Int_Tables_number	1
_symmetry_cell_setting	triclinic
loop_
_symmetry_equiv_pos_as_xyz
  x,y,z
_cell_length_a	23.096457
_cell_length_b	23.096457
_cell_length_c	23.096457
_cell_angle_alpha	60.001973
_cell_angle_beta	89.999736
_cell_angle_gamma	59.998275
loop_
_atom_site_label
_atom_site_type_symbol
_atom_site_fract_x
_atom_site_fract_y
_atom_site_fract_z
Zr1	Zr	0.557749	0.633761	-0.075990
O2	O	0.465296	0.754550	-0.168434
O3	O	0.586093	0.512971	-0.047652
O4	O	0.586088	0.633762	-0.168440
O5	O	0.465304	0.633759	0.047636
O6	O	0.681368	0.633763	-0.168444
O7	O	0.465302	0.633759	-0.047646
O8	O	0.681378	0.417691	0.047624
O9	O	0.465294	0.849831	-0.168432
O10	O	0.669286	0.562655	-0.035568
O11	O	0.598181	0.562654	0.035542
O12	O	0.598174	0.704869	-0.106670
O13	O	0.527070	0.704868	-0.035560
Zr14	Zr	0.709714	0.633763	0.075967
Zr15	Zr	0.709711	0.633763	-0.075995
Zr16	Zr	0.557753	0.633760	0.075973
Zr17	Zr	0.557746	0.785723	-0.075987
Zr18	Zr	0.709718	0.481800	0.075964
O19	O	0.681371	0.754553	0.047630
O20	O	0.681365	0.754553	-0.168441
O21	O	0.465302	0.754549	0.047638
O22	O	0.802168	0.512974	0.168411
O23	O	0.802162	0.512975	-0.047660
O24	O	0.586099	0.512971	0.168419
O25	O	0.802160	0.633765	-0.047658
O26	O	0.681376	0.633762	0.168418
O27	O	0.586096	0.633761	0.168421
O28	O	0.802162	0.633765	0.047623
O29	O	0.586083	0.849833	-0.168436
O30	O	0.681381	0.417691	0.168414
O31	O	0.802170	0.417693	0.168409
O32	O	0.802167	0.417693	0.047619
O33	O	0.465297	0.849831	-0.047642
O34	O	0.586086	0.849833	-0.047646
O35	O	0.669289	0.562655	0.106647
O36	O	0.740394	0.562656	0.035537
O37	O	0.669283	0.704870	-0.035565
O38	O	0.598178	0.704869	0.035545
C39	C	0.633736	0.443680	-0.000015
C40	C	0.633737	0.379168	-0.000016
C41	C	0.670849	-0.081350	-0.037118
C42	C	0.670848	-0.020729	-0.037125
C43	C	0.633733	0.009582	-0.000006
C44	C	0.596602	-0.020716	0.037107
C45	C	0.596599	-0.081329	0.037107
N46	N	0.638887	0.071976	0.060399
N47	N	0.638893	0.129555	0.060398
C48	C	0.633738	0.192208	-0.000004
N49	N	0.628589	0.195100	-0.060404
N50	N	0.628587	0.137513	-0.060401
C51	C	0.633731	0.075308	-0.000002
C52	C	0.670861	0.288234	-0.037126
C53	C	0.670854	0.348859	-0.037134
C54	C	0.596613	0.348866	0.037105
C55	C	0.596615	0.288248	0.037106
C56	C	0.633743	0.257933	-0.000007
C57	C	0.443652	0.633759	-0.000004
C58	C	0.379140	0.633758	-0.000002
C59	C	0.385954	0.559526	0.037106
C60	C	0.325338	0.559525	0.037109
C61	C	0.257910	0.633760	-0.000010
C62	C	0.251098	0.708001	-0.037119
C63	C	0.311714	0.708000	-0.037115
N64	N	0.135111	0.689017	-0.060419
N65	N	0.077532	0.689013	-0.060422
C66	C	0.075277	0.633767	-0.000022
N67	N	0.132783	0.578513	0.060379
N68	N	0.190369	0.578515	0.060380
C69	C	0.192178	0.633769	-0.000018
C70	C	0.016367	0.559529	0.037092
C71	C	-0.044251	0.559531	0.037097
C72	C	-0.118491	0.708009	-0.037138
C73	C	-0.057873	0.708005	-0.037136
C74	C	0.009553	0.633763	-0.000022
C75	C	0.823812	0.633765	-0.000018
C76	C	0.888324	0.633766	-0.000021
C77	C	0.633727	0.633762	-0.190093
C78	C	0.633726	0.633763	-0.254606
C79	C	0.633728	0.823844	-0.000008
C80	C	0.633727	0.888356	-0.000006
C81	C	0.581243	0.633770	-0.715119
C82	C	0.581242	0.633764	-0.654500
C83	C	0.633733	0.633766	-0.624190
C84	C	0.686238	0.633753	-0.654493
C85	C	0.686241	0.633750	-0.715106
N86	N	0.649624	0.680123	-0.552196
N87	N	0.649617	0.680127	-0.494616
C88	C	0.633728	0.633772	-0.441563
N89	N	0.617834	0.587422	-0.448270
N90	N	0.617837	0.587422	-0.505857
C91	C	0.633736	0.633768	-0.558464
C92	C	0.581230	0.633773	-0.345535
C93	C	0.581234	0.633762	-0.284913
C94	C	0.686227	0.633759	-0.284910
C95	C	0.686225	0.633761	-0.345528
C96	C	0.633723	0.633772	-0.375838
C97	C	0.633737	0.633761	0.190071
C98	C	0.633738	0.633761	0.254583
C99	C	0.823816	0.443683	-0.000022
C100	C	0.888329	0.379172	-0.000025
C101	C	0.633741	0.443679	0.190067
C102	C	0.633744	0.379167	0.254578
C103	C	0.823821	0.443683	0.190060
C104	C	0.888335	0.379171	0.254569
C105	C	0.443643	0.823841	-0.190083
C106	C	0.379128	0.888353	-0.254591
C107	C	0.443648	0.823841	-0.000001
C108	C	0.379135	0.888352	0.000003
C109	C	0.633723	0.823845	-0.190090
C110	C	0.633720	0.888357	-0.254601
C111	C	0.881507	0.348876	-0.037149
C112	C	0.942118	0.288270	-0.037167
C113	C	1.009550	0.257956	-0.000056
C114	C	1.016371	0.288257	0.037069
C115	C	0.955761	0.348867	0.037082
C116	C	0.670863	0.348872	0.321996
C117	C	0.670863	0.288264	0.382616
C118	C	0.633748	0.257949	0.375818
C119	C	0.596624	0.288250	0.308394
C120	C	0.596620	0.348860	0.247774
C121	C	0.955755	0.348877	0.247744
C122	C	1.016379	0.288270	0.308351
C123	C	1.009582	0.257955	0.375782
C124	C	0.942156	0.288255	0.382605
C125	C	0.881533	0.348865	0.321999
C126	C	0.311709	0.918654	-0.247767
C127	C	0.251085	0.979280	-0.308374
C128	C	0.257882	1.009598	-0.375804
C129	C	0.325308	0.979294	-0.382628
C130	C	0.385931	0.918674	-0.322022
C131	C	0.385957	0.918654	0.037120
C132	C	0.325346	0.979277	0.037121
C133	C	0.257914	1.009593	0.000008
C134	C	0.251093	0.979289	-0.037114
C135	C	0.311703	0.918671	-0.037119
C136	C	0.670843	0.918653	-0.247780
C137	C	0.670854	0.979261	-0.308389
C138	C	0.633738	1.009576	-0.375818
C139	C	0.596614	0.979274	-0.382638
C140	C	0.596608	0.918663	-0.322029
H141	H	0.701080	0.373529	-0.067359
H142	H	0.728969	0.633759	-0.370200
H143	H	0.566389	0.373549	0.067324
H144	H	0.936632	0.263564	0.437516
H145	H	0.936551	0.263606	-0.067398
H146	H	0.701079	-0.106028	-0.067340
H147	H	0.196194	0.768444	-0.067341
H148	H	0.538481	0.633778	-0.370213
H149	H	1.058897	0.208603	-0.000072
H150	H	0.566389	0.263578	0.067330
H151	H	0.701067	0.893980	-0.192881
H152	H	0.306139	0.894001	-0.067342
H153	H	1.071282	0.263567	0.067283
H154	H	0.306160	0.768451	-0.067331
H155	H	0.728968	0.633755	-0.260230
H156	H	0.701084	1.003927	-0.302822
H157	H	0.826606	0.373557	-0.067378
H158	H	1.071274	0.263606	0.302783
H159	H	0.538493	0.633771	-0.629827
H160	H	-0.173392	0.768453	-0.067361
H161	H	0.208567	1.058952	0.000018
H162	H	0.566375	0.894002	-0.327593
H163	H	0.330834	1.003987	-0.437537
H164	H	0.728977	0.633752	-0.629810
H165	H	0.208514	1.058959	-0.425148
H166	H	0.701078	0.003941	-0.067347
H167	H	0.633749	1.058930	-0.425164
H168	H	0.566381	0.003970	0.067328
H169	H	0.961325	0.373526	0.067317
H170	H	0.196182	1.003982	-0.067331
H171	H	0.701087	0.373548	0.327544
H172	H	0.701096	0.263600	0.437510
H173	H	0.196190	1.003943	-0.302804
H174	H	0.566368	-0.105994	0.067328
H175	H	0.440852	0.499072	0.067322
H176	H	0.701090	0.263553	-0.067349
H177	H	0.330887	0.499074	0.067327
H178	H	0.826640	0.373523	0.327566
H179	H	0.306162	0.893972	-0.192867
H180	H	0.566395	1.003965	-0.437547
H181	H	0.071269	0.499076	0.067327
H182	H	-0.038697	0.499080	0.067320
H183	H	0.440858	0.893975	0.067347
H184	H	-0.063425	0.768453	-0.067358
H185	H	0.633756	0.208596	0.425184
H186	H	0.440825	0.894003	-0.327587
H187	H	1.058950	0.208602	0.425126
H188	H	0.330913	1.003941	0.067353
H189	H	0.728990	0.633743	-0.739775
H190	H	0.538494	0.633776	-0.739795
H191	H	0.566405	0.263558	0.302869
H192	H	0.566395	0.373519	0.192882
H193	H	0.538487	0.633764	-0.260241
H194	H	0.961302	0.373551	0.192844
