data_functionalizedCrystal
_audit_creation_method	'MofGen! by Chris Wilmer'
_symmetry_space_group_name_H-M	'P1'
_symmetry_Int_Tables_number	1
_symmetry_cell_setting	triclinic
loop_
_symmetry_equiv_pos_as_xyz
  x,y,z
_cell_length_a	19.805407
_cell_length_b	16.120484
_cell_length_c	19.805399
_cell_angle_alpha	87.128957
_cell_angle_beta	90.019573
_cell_angle_gamma	92.925608
loop_
_atom_site_label
_atom_site_type_symbol
_atom_site_fract_x
_atom_site_fract_y
_atom_site_fract_z
Zn1	Zn	1.021075	-0.331927	0.396377
Zn2	Zn	1.521075	0.168073	0.896377
Zn3	Zn	1.015252	-0.471346	0.288925
Zn4	Zn	1.515252	0.028654	0.788925
Zn5	Zn	0.907889	-0.331950	0.283203
Zn6	Zn	1.407889	0.168050	0.783203
Zn7	Zn	0.902117	-0.471302	0.402070
Zn8	Zn	1.402117	0.028698	0.902070
O9	O	0.961584	-0.401631	0.342644
O10	O	1.461584	0.098369	0.842644
O11	O	1.115019	-0.350431	0.382136
O12	O	1.615019	0.149569	0.882136
O13	O	1.000989	-0.452883	0.193451
O14	O	1.500989	0.047117	0.693451
O15	O	0.927756	-0.215281	0.293438
O16	O	1.427756	0.284719	0.793438
O17	O	1.110741	-0.452861	0.303191
O18	O	1.610741	0.047139	0.803191
O19	O	1.010913	-0.215264	0.376587
O20	O	1.510913	0.284736	0.876587
O21	O	0.922109	-0.350470	0.189246
O22	O	1.422109	0.149530	0.689246
O23	O	0.812407	-0.350427	0.298958
O24	O	1.312407	0.149573	0.798958
O25	O	0.917919	-0.452785	0.496030
O26	O	1.417919	0.047215	0.996030
O27	O	0.808167	-0.452807	0.386290
O28	O	1.308167	0.047193	0.886290
O29	O	1.005317	-0.350388	0.491848
O30	O	1.505317	0.149612	0.991848
O31	O	0.995392	-0.588006	0.308712
O32	O	1.495392	-0.088006	0.808712
O33	O	0.912273	-0.587974	0.391839
O34	O	1.412273	-0.087974	0.891839
C35	C	0.785728	-0.401615	0.342621
C36	C	1.285728	0.098385	0.842621
C37	C	0.710496	-0.401629	0.342628
C38	C	1.210496	0.098371	0.842628
C39	C	0.672958	-0.455019	0.388035
C40	C	1.172958	0.044981	0.888035
C41	C	0.602269	-0.455020	0.388045
C42	C	1.102269	0.044980	0.888045
C43	C	0.569120	-0.401635	0.342644
C44	C	1.069120	0.098365	0.842644
C45	C	0.606663	-0.348239	0.297235
C46	C	1.106663	0.151761	0.797235
C47	C	0.677350	-0.348234	0.297229
C48	C	1.177350	0.151766	0.797229
C49	C	0.321589	-0.348258	0.297258
C50	C	0.821589	0.151742	0.797258
C51	C	0.250896	-0.348269	0.297266
C52	C	0.750896	0.151731	0.797266
C53	C	0.246508	-0.455043	0.388074
C54	C	0.746508	0.044957	0.888074
C55	C	0.317195	-0.455038	0.388068
C56	C	0.817195	0.044962	0.888068
C57	C	0.354732	-0.401640	0.342662
C58	C	0.854732	0.098360	0.842662
C59	C	0.431381	-0.401638	0.342653
C60	C	0.931381	0.098362	0.842653
C61	C	0.492472	-0.401641	0.342649
C62	C	0.992472	0.098359	0.842649
C63	C	0.952593	-0.618240	0.351529
C64	C	1.452593	-0.118240	0.851529
C65	C	0.948809	-0.710906	0.355353
C66	C	1.448809	-0.210906	0.855353
C67	C	0.941903	-0.880568	0.362347
C68	C	1.441903	-0.380568	0.862347
C69	C	0.981385	-0.921854	0.322951
C70	C	1.481385	-0.421854	0.822951
C71	C	0.977543	-1.016260	0.326843
C72	C	1.477543	-0.516260	0.826843
C73	C	0.945745	-0.786154	0.358456
C74	C	1.445745	-0.286154	0.858456
C75	C	1.138126	-0.401648	0.342667
C76	C	1.638126	0.098352	0.842667
C77	C	1.213357	-0.401655	0.342677
C78	C	1.713357	0.098345	0.842677
C79	C	0.961624	-0.401579	0.519184
C80	C	1.461624	0.098421	1.019184
C81	C	0.961641	-0.401556	0.594416
C82	C	1.461641	0.098444	1.094416
C83	C	0.970628	-0.184177	0.333739
C84	C	1.470628	0.315823	0.833739
C85	C	0.974482	-0.091511	0.329944
C86	C	1.474482	0.408489	0.829944
C87	C	0.961585	-0.401623	0.166787
C88	C	1.461585	0.098377	0.666787
C89	C	0.961709	-0.401411	0.091547
C90	C	1.461709	0.098589	0.591547
C91	C	1.007150	-0.348235	0.627583
C92	C	1.507150	0.151765	1.127583
C93	C	1.007158	-0.348211	0.698270
C94	C	1.507158	0.151789	1.198270
C95	C	0.961659	-0.401513	0.735789
C96	C	1.461659	0.098487	1.235789
C97	C	0.916145	-0.454836	0.702617
C98	C	1.416145	0.045164	1.202617
C99	C	0.916135	-0.454856	0.631931
C100	C	1.416135	0.045144	1.131931
C101	C	0.916187	-0.454759	0.987688
C102	C	1.416187	0.045241	1.487688
C103	C	0.916202	-0.454737	1.058379
C104	C	1.416202	0.045263	1.558379
C105	C	1.007210	-0.348114	1.054027
C106	C	1.507210	0.151886	1.554027
C107	C	1.007199	-0.348133	0.983340
C108	C	1.507199	0.151867	1.483340
C109	C	0.961683	-0.401453	0.950174
C110	C	1.461683	0.098547	1.450174
C111	C	0.961674	-0.401478	0.873527
C112	C	1.461674	0.098522	1.373527
C113	C	0.961671	-0.401493	0.812436
C114	C	1.461671	0.098507	1.312436
H115	H	0.571709	-0.498496	0.425019
H116	H	1.071709	0.001504	0.925019
H117	H	0.879134	-0.498187	0.960693
H118	H	1.379134	0.001813	1.460693
H119	H	0.707913	-0.304754	0.260258
H120	H	1.207913	0.195246	0.760258
O121	O	0.357942	-0.296362	0.253088
O122	O	0.857942	0.203638	0.753088
C123	C	0.354830	-0.190409	0.163051
C124	C	0.854830	0.309591	0.663051
C125	C	0.313573	-0.249158	0.213027
C126	C	0.813573	0.250842	0.713027
H127	H	0.318976	-0.152217	0.130658
H128	H	0.818976	0.347783	0.630658
H129	H	0.386312	-0.228576	0.129123
H130	H	0.886312	0.271424	0.629123
H131	H	0.389756	-0.146899	0.192411
H132	H	0.889756	0.353101	0.692411
H133	H	0.278611	-0.292680	0.183721
H134	H	0.778611	0.207320	0.683721
H135	H	0.282137	-0.210939	0.246954
H136	H	0.782137	0.289061	0.746954
H137	H	0.344182	-0.498513	0.425036
H138	H	0.844182	0.001487	0.925036
O139	O	1.051340	-0.296298	0.730404
O140	O	1.551340	0.203702	1.230404
C141	C	1.090076	-0.154476	0.746245
C142	C	1.590076	0.345524	1.246245
C143	C	1.040010	-0.213180	0.709800
C144	C	1.540010	0.286820	1.209800
H145	H	1.080925	-0.087262	0.729611
H146	H	1.580925	0.412738	1.229611
H147	H	1.144055	-0.169062	0.732940
H148	H	1.644055	0.330938	1.232940
H149	H	1.082283	-0.163648	0.803210
H150	H	1.582283	0.336352	1.303210
H151	H	1.047742	-0.204040	0.652827
H152	H	1.547742	0.295960	1.152827
H153	H	0.986050	-0.198580	0.723160
H154	H	1.486050	0.301420	1.223160
H155	H	0.905219	-0.916121	0.398995
H156	H	1.405219	-0.416121	0.898995
H157	H	0.215937	-0.498520	0.425048
H158	H	0.715937	0.001480	0.925048
H159	H	1.044202	-0.304833	0.597039
H160	H	1.544202	0.195167	1.097039
O161	O	1.025245	-0.879480	0.279295
O162	O	1.525245	-0.379480	0.779295
C163	C	1.141464	-0.852568	0.245417
C164	C	1.641464	-0.352568	0.745417
C165	C	1.091875	-0.900598	0.294911
C166	C	1.591875	-0.400598	0.794911
H167	H	1.195344	-0.869637	0.258016
H168	H	1.695344	-0.369637	0.758016
H169	H	1.136862	-0.782873	0.250030
H170	H	1.636862	-0.282873	0.750030
H171	H	1.128887	-0.869681	0.191526
H172	H	1.628887	-0.369681	0.691526
H173	H	1.104420	-0.883554	0.348823
H174	H	1.604420	-0.383554	0.848823
H175	H	1.096487	-0.970281	0.290240
H176	H	1.596487	-0.470281	0.790240
H177	H	0.579667	-0.304769	0.260272
H178	H	1.079667	0.195231	0.760272
O179	O	1.051421	-0.296277	0.946997
O180	O	1.551421	0.203723	1.446997
C181	C	1.141716	-0.190546	0.950143
C182	C	1.641716	0.309454	1.450143
C183	C	1.091662	-0.249220	0.991383
C184	C	1.591662	0.250780	1.491383
H185	H	1.174274	-0.152498	0.986012
H186	H	1.674274	0.347502	1.486012
H187	H	1.112481	-0.146904	0.915276
H188	H	1.612481	0.353096	1.415276
H189	H	1.175480	-0.228847	0.918605
H190	H	1.675480	0.271153	1.418605
H191	H	1.057885	-0.210986	1.022961
H192	H	1.557885	0.289014	1.522961
H193	H	1.120938	-0.292864	1.026208
H194	H	1.620938	0.207136	1.526208
O195	O	0.218662	-0.296527	0.253089
O196	O	0.718662	0.203473	0.753089
C197	C	0.139266	-0.285181	0.161280
C198	C	0.639266	0.214819	0.661280
C199	C	0.175733	-0.343864	0.211262
C200	C	0.675733	0.156136	0.711262
H201	H	0.104539	-0.323428	0.127459
H202	H	0.604539	0.176572	0.627459
H203	H	0.178210	-0.247034	0.128778
H204	H	0.678210	0.252966	0.628778
H205	H	0.108016	-0.241625	0.190637
H206	H	0.608016	0.258375	0.690637
H207	H	0.206983	-0.387470	0.181959
H208	H	0.706983	0.112530	0.681959
H209	H	0.136756	-0.381953	0.243764
H210	H	0.636756	0.118047	0.743764
O211	O	0.871934	-0.506540	1.094723
O212	O	1.371934	-0.006540	1.594723
C213	C	0.781682	-0.612328	1.091585
C214	C	1.281682	-0.112328	1.591585
C215	C	0.831764	-0.553694	1.050343
C216	C	1.331764	-0.053694	1.550343
H217	H	0.749201	-0.650480	1.055723
H218	H	1.249201	-0.150480	1.555723
H219	H	0.747847	-0.574073	1.123090
H220	H	1.247847	-0.074073	1.623090
H221	H	0.810961	-0.655882	1.126485
H222	H	1.310961	-0.155882	1.626485
H223	H	0.802540	-0.510129	1.015406
H224	H	1.302540	-0.010129	1.515406
H225	H	0.865599	-0.592000	1.018884
H226	H	1.365599	-0.092000	1.518884
H227	H	1.044269	-0.304695	1.081039
H228	H	1.544269	0.195305	1.581039
O229	O	0.872011	-0.506586	0.739165
O230	O	1.372011	-0.006586	1.239165
C231	C	0.831665	-0.553777	0.849986
C232	C	1.331665	-0.053777	1.349986
C233	C	0.881693	-0.495140	0.808681
C234	C	1.381693	0.004860	1.308681
H235	H	0.839465	-0.544532	0.906197
H236	H	1.339465	-0.044532	1.406197
H237	H	0.840750	-0.621026	0.838893
H238	H	1.340750	-0.121026	1.338893
H239	H	0.777702	-0.539142	0.835437
H240	H	1.277702	-0.039142	1.335437
H241	H	0.935675	-0.509701	0.823206
H242	H	1.435675	-0.009701	1.323206
H243	H	0.872548	-0.427909	0.819779
H244	H	1.372548	0.072091	1.319779
H245	H	0.879070	-0.498267	0.604927
H246	H	1.379070	0.001733	1.104927
H247	H	0.699943	-0.498494	0.425004
H248	H	1.199943	0.001506	0.925004
