data_functionalizedCrystal
_audit_creation_method	'MofGen! by Chris Wilmer'
_symmetry_space_group_name_H-M	'P1'
_symmetry_Int_Tables_number	1
_symmetry_cell_setting	triclinic
loop_
_symmetry_equiv_pos_as_xyz
  x,y,z
_cell_length_a	23.532407
_cell_length_b	23.532407
_cell_length_c	22.610064
_cell_angle_alpha	90.011588
_cell_angle_beta	89.997161
_cell_angle_gamma	82.848677
loop_
_atom_site_label
_atom_site_type_symbol
_atom_site_fract_x
_atom_site_fract_y
_atom_site_fract_z
O1	O	0.755263	0.069127	-0.049101
O2	O	1.255263	0.569127	0.450899
O3	O	0.589400	0.079130	-0.049117
O4	O	1.089400	0.579130	0.450883
O5	O	0.677333	-0.008803	-0.049116
O6	O	1.177333	0.491197	0.450884
O7	O	0.667330	0.157060	-0.049102
O8	O	1.167330	0.657060	0.450898
O9	O	0.677318	-0.008790	0.049253
O10	O	1.177318	0.491210	0.549253
O11	O	0.589385	0.079143	0.049252
O12	O	1.089385	0.579143	0.549252
O13	O	0.755248	0.069140	0.049268
O14	O	1.255248	0.569140	0.549268
Zn15	Zn	0.672314	0.074144	0.064878
Zn16	Zn	1.172314	0.574144	0.564878
Zn17	Zn	0.672334	0.074127	-0.064728
Zn18	Zn	1.172334	0.574127	0.435272
O19	O	0.667315	0.157073	0.049267
O20	O	1.167315	0.657073	0.549267
C21	C	0.568176	0.078882	0.000065
C22	C	1.068176	0.578882	0.500065
C23	C	0.504959	0.078116	0.000058
C24	C	1.004959	0.578116	0.500058
N25	N	0.672304	0.074155	0.153330
N26	N	1.172304	0.574155	0.653330
C27	C	0.105856	0.125350	0.000089
C28	C	0.605856	0.625350	0.500089
C29	C	0.046456	0.124638	0.000093
C30	C	0.546456	0.624638	0.500093
O31	O	0.009711	0.168424	0.000118
O32	O	0.509711	0.668424	0.500118
N33	N	0.023830	0.072362	0.000087
N34	N	0.523830	0.572362	0.500087
C35	C	0.060607	0.020794	0.000084
C36	C	0.560607	0.520794	0.500084
O37	O	0.035908	-0.023737	0.000081
O38	O	0.535908	0.476263	0.500081
C39	C	0.120006	0.021506	0.000085
C40	C	0.620006	0.521506	0.500085
C41	C	0.142629	0.073785	0.000084
C42	C	0.642629	0.573785	0.500084
C43	C	0.128479	0.177625	0.000089
C44	C	0.628479	0.677625	0.500089
C45	C	0.187876	0.178336	0.000084
C46	C	0.687876	0.678336	0.500084
C47	C	0.224649	0.126772	0.000080
C48	C	0.724649	0.626772	0.500080
C49	C	0.202025	0.074497	0.000080
C50	C	0.702025	0.574497	0.500080
C51	C	0.156783	-0.030062	0.000086
C52	C	0.656783	0.469938	0.500086
C53	C	0.216185	-0.029345	0.000087
C54	C	0.716185	0.470655	0.500087
C55	C	0.238808	0.022934	0.000087
C56	C	0.738808	0.522934	0.500087
C57	C	0.298194	0.023643	0.000070
C58	C	0.798194	0.523643	0.500070
N59	N	0.320820	0.075920	0.000076
N60	N	0.820820	0.575920	0.500076
C61	C	0.284048	0.127484	0.000080
C62	C	0.784048	0.627484	0.500080
C63	C	-0.064135	0.019302	0.000084
C64	C	0.435865	0.519302	0.500084
C65	C	-0.123533	0.018589	0.000079
C66	C	0.376467	0.518589	0.500079
C67	C	-0.137680	0.122434	0.000088
C68	C	0.362320	0.622434	0.500088
C69	C	-0.078281	0.123146	0.000089
C70	C	0.421719	0.623146	0.500089
C71	C	-0.041509	0.071578	0.000089
C72	C	0.458491	0.571578	0.500089
C73	C	0.408784	0.128974	0.000070
C74	C	0.908784	0.628974	0.500070
C75	C	0.468186	0.129680	0.000063
C76	C	0.968186	0.629680	0.500063
C77	C	0.482329	0.025836	0.000057
C78	C	0.982329	0.525836	0.500057
C79	C	0.422932	0.025129	0.000061
C80	C	0.922932	0.525129	0.500061
C81	C	0.386160	0.076702	0.000069
C82	C	0.886160	0.576702	0.500069
O83	O	0.334974	-0.020119	0.000048
O84	O	0.834974	0.479881	0.500048
O85	O	0.308755	0.172007	0.000092
O86	O	0.808755	0.672007	0.500092
C87	C	0.776472	0.069388	0.000084
C88	C	1.276472	0.569388	0.500084
C89	C	0.839689	0.070154	0.000087
C90	C	1.339689	0.570154	0.500087
C91	C	0.667577	0.178283	0.000084
C92	C	1.167577	0.678283	0.500084
C93	C	0.668343	0.241500	0.000090
C94	C	1.168343	0.741500	0.500090
C95	C	0.677071	-0.030013	0.000065
C96	C	1.177071	0.469987	0.500065
C97	C	0.676305	-0.093230	0.000055
C98	C	1.176305	0.406770	0.500055
C99	C	0.621110	0.640603	0.000055
C100	C	1.121110	1.140603	0.500055
C101	C	0.621821	0.700003	0.000051
C102	C	1.121821	1.200003	0.500051
O103	O	0.578035	0.736748	0.000025
O104	O	1.078035	1.236748	0.500025
N105	N	0.674097	0.722629	0.000057
N106	N	1.174097	1.222629	0.500057
C107	C	0.725666	0.685852	0.000061
C108	C	1.225666	1.185852	0.500061
O109	O	0.770196	0.710551	0.000065
O110	O	1.270196	1.210551	0.500065
C111	C	0.724954	0.626453	0.000060
C112	C	1.224954	1.126453	0.500060
C113	C	0.672674	0.603830	0.000061
C114	C	1.172674	1.103830	0.500061
C115	C	0.568834	0.617980	0.000054
C116	C	1.068834	1.117980	0.500054
C117	C	0.568123	0.558584	0.000060
C118	C	1.068123	1.058584	0.500060
C119	C	0.619687	0.521811	0.000065
C120	C	1.119687	1.021811	0.500065
C121	C	0.671963	0.544434	0.000066
C122	C	1.171963	1.044434	0.500066
C123	C	0.776521	0.589676	0.000060
C124	C	1.276521	1.089676	0.500060
C125	C	0.775805	0.530274	0.000059
C126	C	1.275805	1.030274	0.500059
C127	C	0.723525	0.507651	0.000060
C128	C	1.223525	1.007651	0.500060
C129	C	0.722816	0.448265	0.000077
C130	C	1.222816	0.948265	0.500077
N131	N	0.670539	0.425639	0.000071
N132	N	1.170539	0.925639	0.500071
C133	C	0.618975	0.462412	0.000065
C134	C	1.118975	0.962412	0.500065
C135	C	0.727157	0.810594	0.000060
C136	C	1.227157	1.310594	0.500060
C137	C	0.727870	0.869992	0.000064
C138	C	1.227870	1.369992	0.500064
C139	C	0.624025	0.884140	0.000053
C140	C	1.124025	1.384140	0.500053
C141	C	0.623313	0.824740	0.000053
C142	C	1.123313	1.324740	0.500053
C143	C	0.674881	0.787968	0.000054
C144	C	1.174881	1.287968	0.500054
C145	C	0.617485	0.337675	0.000076
C146	C	1.117485	0.837675	0.500076
C147	C	0.616779	0.278273	0.000084
C148	C	1.116779	0.778273	0.500084
C149	C	0.720623	0.264131	0.000092
C150	C	1.220623	0.764131	0.500092
C151	C	0.721330	0.323527	0.000087
C152	C	1.221330	0.823527	0.500087
C153	C	0.669757	0.360299	0.000078
C154	C	1.169757	0.860299	0.500078
O155	O	0.766579	0.411486	0.000100
O156	O	1.266579	0.911486	0.500100
O157	O	0.574452	0.437704	0.000053
O158	O	1.074452	0.937704	0.500053
N159	N	0.672349	0.074111	-0.153180
N160	N	1.172349	0.574111	0.346820
C161	C	0.711273	0.035196	0.561972
C162	C	1.211273	0.535196	1.061972
C163	C	0.711276	0.035192	0.623892
C164	C	1.211276	0.535192	1.123892
O165	O	0.744384	0.002076	0.655911
O166	O	1.244384	0.502076	1.155911
N167	N	0.672334	0.074115	0.654868
N168	N	1.172334	0.574115	1.154868
C169	C	0.633383	0.113041	0.623920
C170	C	1.133383	0.613041	1.123920
O171	O	0.600259	0.146147	0.655953
O172	O	1.100259	0.646147	1.155953
C173	C	0.633377	0.113042	0.562001
C174	C	1.133377	0.613042	1.062001
C175	C	0.672326	0.074120	0.531029
C176	C	1.172326	0.574120	1.031029
C177	C	0.750218	-0.003724	0.531000
C178	C	1.250218	0.496276	1.031000
C179	C	0.750215	-0.003719	0.469084
C180	C	1.250215	0.496281	0.969084
C181	C	0.711268	0.035206	0.438141
C182	C	1.211268	0.535206	0.938141
C183	C	0.672323	0.074125	0.469113
C184	C	1.172323	0.574125	0.969113
C185	C	0.594424	0.151965	0.531055
C186	C	1.094424	0.651965	1.031055
C187	C	0.594422	0.151962	0.469132
C188	C	1.094422	0.651962	0.969132
C189	C	0.633370	0.113040	0.438159
C190	C	1.133370	0.613040	0.938159
C191	C	0.633374	0.113054	0.376254
C192	C	1.133374	0.613054	0.876254
N193	N	0.672316	0.074131	0.345279
N194	N	1.172316	0.574131	0.845279
C195	C	0.711263	0.035207	0.376222
C196	C	1.211263	0.535207	0.876222
C197	C	0.633396	0.113035	0.753954
C198	C	1.133396	0.613035	1.253954
C199	C	0.633403	0.113037	0.815871
C200	C	1.133403	0.613037	1.315871
C201	C	0.711296	0.035187	0.815839
C202	C	1.211296	0.535187	1.315839
C203	C	0.711291	0.035188	0.753920
C204	C	1.211291	0.535188	1.253920
C205	C	0.672338	0.074112	0.722978
C206	C	1.172338	0.574112	1.222978
C207	C	0.711255	0.035220	0.246195
C208	C	1.211255	0.535220	0.746195
C209	C	0.711251	0.035230	0.184274
C210	C	1.211251	0.535230	0.684274
C211	C	0.633357	0.113078	0.184311
C212	C	1.133357	0.613078	0.684311
C213	C	0.633363	0.113071	0.246227
C214	C	1.133363	0.613071	0.746227
C215	C	0.672314	0.074137	0.277167
C216	C	1.172314	0.574137	0.777167
O217	O	0.600281	0.146152	0.344196
O218	O	1.100281	0.646152	0.844196
O219	O	0.744376	0.002101	0.344182
O220	O	1.244376	0.502101	0.844182
H221	H	0.486602	0.172255	0.000062
H222	H	0.986602	0.672255	0.500062
H223	H	0.742969	0.003535	0.159058
H224	H	1.242969	0.503535	0.659058
O225	O	0.827272	0.611708	-0.000024
O226	O	1.327272	1.111708	0.499976
C227	C	0.888374	0.670498	-0.051018
C228	C	1.388374	1.170498	0.448982
C229	C	0.830869	0.645599	-0.050986
C230	C	1.330869	1.145599	0.449014
H231	H	0.891306	0.697894	-0.092222
H232	H	1.391306	1.197894	0.407778
H233	H	0.891320	0.698000	-0.009881
H234	H	1.391320	1.198000	0.490119
H235	H	0.925088	0.633992	-0.050989
H236	H	1.425088	1.133992	0.449011
H237	H	0.794122	0.682068	-0.051035
H238	H	1.294122	1.182068	0.448965
H239	H	0.827972	0.618080	-0.092118
H240	H	1.327972	1.118080	0.407882
O241	O	0.749117	-0.002520	0.276308
O242	O	1.249117	0.497480	0.776308
C243	C	0.827000	-0.015049	0.346164
C244	C	1.327000	0.484951	0.846164
C245	C	0.784142	0.027751	0.312109
C246	C	1.284142	0.527751	0.812109
H247	H	0.855337	0.009409	0.375107
H248	H	1.355337	0.509409	0.875107
H249	H	0.802615	-0.043377	0.375187
H250	H	1.302615	0.456623	0.875187
H251	H	0.854805	-0.042871	0.313370
H252	H	1.354805	0.457129	0.813370
H253	H	0.756327	0.055611	0.344861
H254	H	1.256327	0.555611	0.844861
H255	H	0.808563	0.056039	0.283077
H256	H	1.308563	0.556039	0.783077
H257	H	0.817798	0.500336	0.000057
H258	H	1.317798	1.000336	0.500057
O259	O	0.777239	0.774852	-0.000036
O260	O	1.277239	1.274852	0.499964
C261	C	0.836708	0.699548	-0.050970
C262	C	1.336708	1.199548	0.449030
C263	C	0.779977	0.739998	-0.050941
C264	C	1.279977	1.239998	0.449059
H265	H	0.838935	0.671350	-0.092116
H266	H	1.338935	1.171350	0.407884
H267	H	0.874212	0.725900	-0.051003
H268	H	1.374212	1.225900	0.448997
H269	H	0.838960	0.671422	-0.009783
H270	H	1.338960	1.171422	0.490217
H271	H	0.777670	0.768133	-0.092121
H272	H	1.277670	1.268133	0.407879
H273	H	0.742501	0.713612	-0.050877
H274	H	1.242501	1.213612	0.449123
O275	O	-0.028359	-0.030758	-0.000005
O276	O	0.471641	0.469242	0.499995
C277	C	0.046886	-0.090250	-0.050997
C278	C	0.546886	0.409750	0.449003
C279	C	0.006416	-0.033532	-0.050964
C280	C	0.506416	0.466468	0.449036
H281	H	0.075003	-0.092516	-0.092200
H282	H	0.575003	0.407484	0.407800
H283	H	0.075088	-0.092523	-0.009860
H284	H	0.575088	0.407477	0.490140
H285	H	0.020494	-0.127721	-0.050974
H286	H	0.520494	0.372279	0.449026
H287	H	0.032763	0.003972	-0.051008
H288	H	0.532763	0.503972	0.448992
H289	H	-0.021788	-0.031309	-0.092098
H290	H	0.478212	0.468691	0.407902
H291	H	0.378851	0.170970	0.000079
H292	H	0.878851	0.670970	0.500079
H293	H	-0.167632	0.164421	0.000095
H294	H	0.332368	0.664421	0.500095
H295	H	0.763901	0.341947	0.000096
H296	H	1.263901	0.841947	0.500096
H297	H	0.770441	0.888406	0.000073
H298	H	1.270441	1.388406	0.500073
O299	O	0.749104	-0.002706	0.845838
O300	O	1.249104	0.497294	1.345838
C301	C	0.783011	-0.101907	0.864793
C302	C	1.283011	0.398093	1.364793
C303	C	0.740173	-0.059059	0.830770
C304	C	1.240173	0.440941	1.330770
H305	H	0.775797	-0.147478	0.852632
H306	H	1.275797	0.352522	1.352632
H307	H	0.828595	-0.094768	0.852608
H308	H	1.328595	0.405232	1.352608
H309	H	0.776327	-0.095191	0.914364
H310	H	1.276327	0.404809	1.414364
H311	H	0.746804	-0.065749	0.781191
H312	H	1.246804	0.434251	1.281191
H313	H	0.694604	-0.066209	0.843004
H314	H	1.194604	0.433791	1.343004
H315	H	0.574205	0.259857	0.000087
H316	H	1.074205	0.759857	0.500087
O317	O	0.517388	0.536517	0.000076
O318	O	1.017388	1.036517	0.500076
C319	C	0.470252	0.451292	0.000023
C320	C	0.970252	0.951292	0.500023
C321	C	0.527752	0.476199	0.000024
C322	C	1.027752	0.976199	0.500024
H323	H	0.478611	0.402522	-0.000032
H324	H	0.978611	0.902522	0.499968
H325	H	0.444769	0.466430	0.041194
H326	H	0.944769	0.966430	0.541194
H327	H	0.444804	0.466491	-0.041141
H328	H	0.944804	0.966491	0.458859
H329	H	0.553247	0.461012	0.041160
H330	H	1.053247	0.961012	0.541160
H331	H	0.553192	0.461064	-0.041174
H332	H	1.053192	0.961064	0.458826
H333	H	0.582038	0.914091	0.000049
H334	H	1.082038	1.414091	0.500049
O335	O	0.595518	0.150872	0.845862
O336	O	1.095518	0.650872	1.345862
C337	C	0.518281	0.228110	0.839342
C338	C	1.018281	0.728110	1.339342
C339	C	0.561151	0.185287	0.805306
C340	C	1.061151	0.685287	1.305306
H341	H	0.490493	0.255954	0.806567
H342	H	0.990493	0.755954	1.306567
H343	H	0.489931	0.203695	0.868309
H344	H	0.989931	0.703695	1.368309
H345	H	0.542715	0.256412	0.868353
H346	H	1.042715	0.756412	1.368353
H347	H	0.536764	0.156974	0.776263
H348	H	1.036764	0.656974	1.276263
H349	H	0.589501	0.209737	0.776376
H350	H	1.089501	0.709737	1.276376
O351	O	0.770747	0.228461	0.000016
O352	O	1.270747	0.728461	0.500016
C353	C	0.859267	0.198143	-0.050970
C354	C	1.359267	0.698143	0.449030
C355	C	0.802529	0.238583	-0.050944
C356	C	1.302529	0.738583	0.449056
H357	H	0.884973	0.206305	-0.092172
H358	H	1.384973	0.706305	0.407828
H359	H	0.885052	0.206342	-0.009832
H360	H	1.385052	0.706342	0.490168
H361	H	0.849757	0.151810	-0.050941
H362	H	1.349757	0.651810	0.449059
H363	H	0.811987	0.284931	-0.050993
H364	H	1.311987	0.784931	0.449007
H365	H	0.776761	0.230335	-0.092078
H366	H	1.276761	0.730335	0.407922
O367	O	0.595474	0.150900	0.276225
O368	O	1.095474	0.650900	0.776225
C369	C	0.518229	0.228130	0.269714
C370	C	1.018229	0.728130	0.769714
C371	C	0.561105	0.185317	0.235674
C372	C	1.061105	0.685317	0.735674
H373	H	0.490438	0.255975	0.236943
H374	H	0.990438	0.755975	0.736943
H375	H	0.489881	0.203706	0.298675
H376	H	0.989881	0.703706	0.798675
H377	H	0.542657	0.256430	0.298732
H378	H	1.042657	0.756430	0.798732
H379	H	0.536723	0.157006	0.206624
H380	H	1.036723	0.657006	0.706624
H381	H	0.589451	0.209777	0.206750
H382	H	1.089451	0.709777	0.706750
H383	H	0.206289	0.220908	0.000084
H384	H	0.706289	0.720908	0.500084
O385	O	0.788067	-0.041587	0.439094
O386	O	1.288067	0.458413	0.939094
C387	C	0.865343	-0.118786	0.445621
C388	C	1.365343	0.381214	0.945621
C389	C	0.822498	-0.075935	0.479653
C390	C	1.322498	0.424065	0.979653
H391	H	0.893199	-0.146559	0.478397
H392	H	1.393199	0.353441	0.978397
H393	H	0.840946	-0.147153	0.416647
H394	H	1.340946	0.352847	0.916647
H395	H	0.893630	-0.094336	0.416617
H396	H	1.393630	0.405664	0.916617
H397	H	0.794200	-0.100338	0.508688
H398	H	1.294200	0.399662	1.008688
H399	H	0.846930	-0.047568	0.508589
H400	H	1.346930	0.452432	1.008589
O401	O	0.518688	0.653615	0.000077
O402	O	1.018688	1.153615	0.500077
C403	C	0.415614	0.661358	0.000043
C404	C	0.915614	1.161358	0.500043
C405	C	0.472367	0.620942	0.000024
C406	C	0.972367	1.120942	0.500024
H407	H	0.378149	0.634958	-0.000013
H408	H	0.878149	1.134958	0.499987
H409	H	0.413303	0.689517	0.041221
H410	H	0.913303	1.189517	0.541221
H411	H	0.413380	0.689526	-0.041114
H412	H	0.913380	1.189526	0.458886
H413	H	0.474640	0.592737	0.041152
H414	H	0.974640	1.092737	0.541152
H415	H	0.474655	0.592822	-0.041182
H416	H	0.974655	1.092822	0.458818
H417	H	0.098544	0.219617	0.000095
H418	H	0.598544	0.719617	0.500095
O419	O	0.787977	-0.041592	0.561079
O420	O	1.287977	0.458408	1.061079
C421	C	0.800573	-0.119423	0.630984
C422	C	1.300573	0.380577	1.130984
C423	C	0.757740	-0.076578	0.596952
C424	C	1.257740	0.423422	1.096952
H425	H	0.776143	-0.147711	0.660005
H426	H	1.276143	0.352289	1.160005
H427	H	0.828395	-0.147276	0.598228
H428	H	1.328395	0.352724	1.098228
H429	H	0.828897	-0.094967	0.659945
H430	H	1.328897	0.405033	1.159945
H431	H	0.729379	-0.100987	0.567990
H432	H	1.229379	0.399013	1.067990
H433	H	0.729959	-0.048725	0.629740
H434	H	1.229959	0.451275	1.129740
O435	O	-0.145410	-0.032245	0.000099
O436	O	0.354590	0.467755	0.500099
C437	C	-0.125092	-0.135169	0.000053
C438	C	0.374908	0.364831	0.500053
C439	C	-0.100244	-0.077637	0.000040
C440	C	0.399756	0.422363	0.500040
H441	H	-0.088588	-0.171883	-0.000006
H442	H	0.411412	0.328117	0.499994
H443	H	-0.152526	-0.138136	0.041232
H444	H	0.347474	0.361864	0.541232
H445	H	-0.152567	-0.138075	-0.041103
H446	H	0.347433	0.361925	0.458897
H447	H	-0.072744	-0.074692	0.041169
H448	H	0.427256	0.425308	0.541169
H449	H	-0.072843	-0.074695	-0.041165
H450	H	0.427157	0.425305	0.458835
H451	H	-0.059867	0.165717	0.000092
H452	H	0.440133	0.665717	0.500092
H453	H	0.601648	0.144772	0.159107
H454	H	1.101648	0.644772	0.659107
O455	O	0.572479	0.802862	0.000022
O456	O	1.072479	1.302862	0.500022
C457	C	0.469555	0.823180	0.000046
C458	C	0.969555	1.323180	0.500046
C459	C	0.527087	0.848029	0.000071
C460	C	1.027087	1.348029	0.500071
H461	H	0.432841	0.859685	0.000098
H462	H	0.932841	1.359685	0.500098
H463	H	0.466591	0.795740	-0.041133
H464	H	0.966591	1.295740	0.458867
H465	H	0.466647	0.795712	0.041202
H466	H	0.966647	1.295712	0.541202
H467	H	0.530034	0.875522	-0.041057
H468	H	1.030034	1.375522	0.458943
H469	H	0.530027	0.875436	0.041277
H470	H	1.030027	1.375436	0.541277
O471	O	0.134912	-0.080897	0.000119
O472	O	0.634912	0.419103	0.500119
C473	C	0.155239	-0.183820	0.000094
C474	C	0.655239	0.316180	0.500094
C475	C	0.180082	-0.126286	0.000068
C476	C	0.680082	0.373714	0.500068
H477	H	0.191747	-0.220532	0.000041
H478	H	0.691747	0.279468	0.500041
H479	H	0.127806	-0.186782	0.041274
H480	H	0.627806	0.313218	0.541274
H481	H	0.127765	-0.186737	-0.041061
H482	H	0.627765	0.313263	0.458939
H483	H	0.207582	-0.123330	0.041195
H484	H	0.707582	0.376670	0.541195
H485	H	0.207482	-0.123349	-0.041139
H486	H	0.707482	0.376651	0.458861
O487	O	0.251928	-0.079426	0.000190
O488	O	0.751928	0.420574	0.500190
C489	C	0.327223	-0.138872	0.051125
C490	C	0.827223	0.361128	0.551125
C491	C	0.286771	-0.082143	0.051093
C492	C	0.786771	0.417857	0.551093
H493	H	0.355412	-0.141082	0.092269
H494	H	0.855412	0.358918	0.592269
H495	H	0.300874	-0.176377	0.051163
H496	H	0.800874	0.323623	0.551163
H497	H	0.355360	-0.141137	0.009937
H498	H	0.855360	0.358863	0.509937
H499	H	0.258626	-0.079823	0.092274
H500	H	0.758626	0.420177	0.592274
H501	H	0.313154	-0.044665	0.051024
H502	H	0.813154	0.455335	0.551024
O503	O	0.749029	-0.002676	0.723789
O504	O	1.249029	0.497324	1.223789
C505	C	0.761539	-0.080598	0.653956
C506	C	1.261539	0.419402	1.153956
C507	C	0.718748	-0.037718	0.688016
C508	C	1.218748	0.462282	1.188016
H509	H	0.737074	-0.108949	0.625035
H510	H	1.237074	0.391051	1.125035
H511	H	0.789865	-0.056232	0.624909
H512	H	1.289865	0.443768	1.124909
H513	H	0.789364	-0.108387	0.686746
H514	H	1.289364	0.391613	1.186746
H515	H	0.690886	-0.009918	0.655269
H516	H	1.190886	0.490082	1.155269
H517	H	0.690462	-0.062120	0.717072
H518	H	1.190462	0.437880	1.217072
O519	O	0.595639	0.150879	0.723834
O520	O	1.095639	0.650879	1.223834
C521	C	0.583067	0.228758	0.653986
C522	C	1.083067	0.728758	1.153986
C523	C	0.625889	0.185924	0.688044
C524	C	1.125889	0.685924	1.188044
H525	H	0.607508	0.257111	0.625051
H526	H	1.107508	0.757111	1.125051
H527	H	0.554758	0.204353	0.624954
H528	H	1.054758	0.704353	1.124954
H529	H	0.555229	0.256549	0.686778
H530	H	1.055229	0.756549	1.186778
H531	H	0.653764	0.158122	0.655295
H532	H	1.153764	0.658122	1.155295
H533	H	0.654158	0.210365	0.717085
H534	H	1.154158	0.710365	1.217085
H535	H	0.562709	0.183658	0.556263
H536	H	1.062709	0.683658	1.056263
H537	H	0.562700	0.183658	0.443941
H538	H	1.062700	0.683658	0.943941
H539	H	0.404512	-0.017441	0.000053
H540	H	0.904512	0.482559	0.500053
H541	H	0.512280	-0.016146	0.000051
H542	H	1.012280	0.483854	0.500051
H543	H	0.575489	0.367608	0.000068
H544	H	1.075489	0.867608	0.500068
