data_functionalizedCrystal
_audit_creation_method	'MofGen! by Chris Wilmer'
_symmetry_space_group_name_H-M	'P1'
_symmetry_Int_Tables_number	1
_symmetry_cell_setting	triclinic
loop_
_symmetry_equiv_pos_as_xyz
  x,y,z
_cell_length_a	19.077105
_cell_length_b	19.121063
_cell_length_c	19.077174
_cell_angle_alpha	94.804191
_cell_angle_beta	85.483752
_cell_angle_gamma	90.263052
loop_
_atom_site_label
_atom_site_type_symbol
_atom_site_fract_x
_atom_site_fract_y
_atom_site_fract_z
Zn1	Zn	1.079661	-0.341255	-0.455843
Zn2	Zn	1.329661	-0.091255	-0.205843
Zn3	Zn	1.579661	0.158745	0.044157
Zn4	Zn	1.829661	0.408745	0.294157
Zn5	Zn	1.070214	-0.453789	-0.342572
Zn6	Zn	1.320214	-0.203789	-0.092572
Zn7	Zn	1.570214	0.046211	0.157428
Zn8	Zn	1.820214	0.296211	0.407428
Zn9	Zn	0.957450	-0.331437	-0.332838
Zn10	Zn	1.207450	-0.081437	-0.082838
Zn11	Zn	1.457450	0.168563	0.167162
Zn12	Zn	1.707450	0.418563	0.417162
Zn13	Zn	0.957110	-0.453743	-0.455688
Zn14	Zn	1.207110	-0.203743	-0.205688
Zn15	Zn	1.457110	0.046257	0.044312
Zn16	Zn	1.707110	0.296257	0.294312
O17	O	1.016109	-0.395056	-0.396735
O18	O	1.266109	-0.145056	-0.146735
O19	O	1.516109	0.104944	0.103265
O20	O	1.766109	0.354944	0.353265
O21	O	1.176888	-0.360311	-0.444956
O22	O	1.426888	-0.110311	-0.194956
O23	O	1.676888	0.139689	0.055044
O24	O	1.926888	0.389689	0.305044
O25	O	1.051444	-0.433469	-0.242463
O26	O	1.301444	-0.183469	0.007537
O27	O	1.551444	0.066531	0.257537
O28	O	1.801444	0.316531	0.507537
O29	O	0.977757	-0.234459	-0.345146
O30	O	1.227757	0.015541	-0.095146
O31	O	1.477757	0.265541	0.154854
O32	O	1.727757	0.515541	0.404854
O33	O	1.169947	-0.442989	-0.361736
O34	O	1.419947	-0.192989	-0.111736
O35	O	1.669947	0.057011	0.138264
O36	O	1.919947	0.307011	0.388264
O37	O	1.067545	-0.241672	-0.435517
O38	O	1.317545	0.008328	-0.185517
O39	O	1.567545	0.258328	0.064483
O40	O	1.817545	0.508328	0.314483
O41	O	0.968597	-0.343578	-0.235312
O42	O	1.218597	-0.093578	0.014688
O43	O	1.468597	0.156422	0.264688
O44	O	1.718597	0.406422	0.514688
O45	O	0.858924	-0.343533	-0.344996
O46	O	1.108924	-0.093533	-0.094996
O47	O	1.358924	0.156467	0.155004
O48	O	1.608924	0.406467	0.405004
O49	O	0.977178	-0.442911	-0.554526
O50	O	1.227178	-0.192911	-0.304526
O51	O	1.477178	0.057089	-0.054526
O52	O	1.727178	0.307089	0.195474
O53	O	0.858675	-0.433391	-0.435253
O54	O	1.108675	-0.183391	-0.185253
O55	O	1.358675	0.066609	0.064747
O56	O	1.608675	0.316609	0.314747
O57	O	1.067215	-0.360267	-0.554640
O58	O	1.317215	-0.110267	-0.304640
O59	O	1.567215	0.139733	-0.054640
O60	O	1.817215	0.389733	0.195360
O61	O	1.051115	-0.552064	-0.361586
O62	O	1.301115	-0.302064	-0.111586
O63	O	1.551115	-0.052064	0.138414
O64	O	1.801115	0.197936	0.388414
O65	O	0.968018	-0.552030	-0.444692
O66	O	1.218018	-0.302030	-0.194692
O67	O	1.468018	-0.052030	0.055308
O68	O	1.718018	0.197970	0.305308
C69	C	0.833265	-0.387392	-0.389052
C70	C	1.083265	-0.137392	-0.139052
C71	C	1.333265	0.112608	0.110948
C72	C	1.583265	0.362608	0.360948
C73	C	0.755043	-0.384131	-0.385782
C74	C	1.005043	-0.134131	-0.135782
C75	C	1.255043	0.115869	0.114218
C76	C	1.505043	0.365869	0.364218
C77	C	0.718177	-0.429448	-0.431170
C78	C	0.968177	-0.179448	-0.181170
C79	C	1.218177	0.070552	0.068830
C80	C	1.468177	0.320552	0.318830
C81	C	0.644681	-0.426375	-0.428101
C82	C	0.894681	-0.176375	-0.178101
C83	C	1.144681	0.073625	0.071899
C84	C	1.394681	0.323625	0.321899
C85	C	0.608051	-0.377988	-0.379640
C86	C	0.858051	-0.127988	-0.129640
C87	C	1.108051	0.122012	0.120360
C88	C	1.358051	0.372012	0.370360
C89	C	0.644922	-0.332666	-0.334250
C90	C	0.894922	-0.082666	-0.084250
C91	C	1.144922	0.167334	0.165750
C92	C	1.394922	0.417334	0.415750
C93	C	0.718417	-0.335737	-0.337323
C94	C	0.968417	-0.085737	-0.087323
C95	C	1.218417	0.164263	0.162677
C96	C	1.468417	0.414263	0.412677
C97	C	0.388255	-0.363778	-0.365420
C98	C	0.638255	-0.113778	-0.115420
C99	C	0.888255	0.136222	0.134580
C100	C	1.138255	0.386222	0.384580
C101	C	0.314753	-0.360713	-0.362349
C102	C	0.564753	-0.110713	-0.112349
C103	C	0.814753	0.139287	0.137651
C104	C	1.064753	0.389287	0.387651
C105	C	0.314518	-0.454421	-0.456201
C106	C	0.564518	-0.204421	-0.206201
C107	C	0.814518	0.045579	0.043799
C108	C	1.064518	0.295579	0.293799
C109	C	0.388015	-0.457489	-0.459267
C110	C	0.638015	-0.207489	-0.209267
C111	C	0.888015	0.042511	0.040733
C112	C	1.138015	0.292511	0.290733
C113	C	0.424879	-0.412166	-0.413880
C114	C	0.674879	-0.162166	-0.163880
C115	C	0.924879	0.087834	0.086120
C116	C	1.174879	0.337834	0.336120
N117	N	0.532925	-0.374847	-0.376500
N118	N	0.782925	-0.124847	-0.126500
N119	N	1.032925	0.125153	0.123500
N120	N	1.282925	0.375153	0.373500
N121	N	0.500004	-0.415304	-0.417024
N122	N	0.750004	-0.165304	-0.167024
N123	N	1.000004	0.084696	0.082976
N124	N	1.250004	0.334696	0.332976
C125	C	1.008524	-0.577531	-0.404195
C126	C	1.258524	-0.327531	-0.154195
C127	C	1.508524	-0.077531	0.095805
C128	C	1.758524	0.172469	0.345805
C129	C	1.005344	-0.655599	-0.407412
C130	C	1.255344	-0.405599	-0.157412
C131	C	1.505344	-0.155599	0.092588
C132	C	1.755344	0.094401	0.342588
C133	C	1.047151	-0.692272	-0.365694
C134	C	1.297151	-0.442272	-0.115694
C135	C	1.547151	-0.192272	0.134306
C136	C	1.797151	0.057728	0.384306
C137	C	1.044165	-0.765625	-0.368724
C138	C	1.294165	-0.515625	-0.118724
C139	C	1.544165	-0.265625	0.131276
C140	C	1.794165	-0.015625	0.381276
C141	C	0.999368	-0.802303	-0.413469
C142	C	1.249368	-0.552303	-0.163469
C143	C	1.499368	-0.302303	0.086531
C144	C	1.749368	-0.052303	0.336531
C145	C	0.957560	-0.765624	-0.455192
C146	C	1.207560	-0.515624	-0.205192
C147	C	1.457560	-0.265624	0.044808
C148	C	1.707560	-0.015624	0.294808
C149	C	0.960550	-0.692273	-0.452165
C150	C	1.210550	-0.442273	-0.202165
C151	C	1.460550	-0.192273	0.047835
C152	C	1.710550	0.057727	0.297835
C153	C	0.988177	-1.023777	-0.424775
C154	C	1.238177	-0.773777	-0.174775
C155	C	1.488177	-0.523777	0.075225
C156	C	1.738177	-0.273777	0.325225
C157	C	0.985189	-1.097133	-0.427797
C158	C	1.235189	-0.847133	-0.177797
C159	C	1.485189	-0.597133	0.072203
C160	C	1.735189	-0.347133	0.322203
C161	C	1.071796	-1.097129	-0.341330
C162	C	1.321796	-0.847129	-0.091330
C163	C	1.571796	-0.597129	0.158670
C164	C	1.821796	-0.347129	0.408670
C165	C	1.074779	-1.023776	-0.338303
C166	C	1.324779	-0.773776	-0.088303
C167	C	1.574779	-0.523776	0.161697
C168	C	1.824779	-0.273776	0.411697
C169	C	1.032973	-0.987104	-0.380029
C170	C	1.282973	-0.737104	-0.130029
C171	C	1.532973	-0.487104	0.119971
C172	C	1.782973	-0.237104	0.369971
C173	C	0.996314	-0.877281	-0.416566
C174	C	1.246314	-0.627281	-0.166566
C175	C	1.496314	-0.377281	0.083434
C176	C	1.746314	-0.127281	0.333434
C177	C	1.036032	-0.912127	-0.376936
C178	C	1.286032	-0.662127	-0.126936
C179	C	1.536032	-0.412127	0.123064
C180	C	1.786032	-0.162127	0.373064
C181	C	1.199666	-0.402750	-0.404449
C182	C	1.449666	-0.152750	-0.154449
C183	C	1.699666	0.097250	0.095551
C184	C	1.949666	0.347250	0.345551
C185	C	1.277888	-0.406029	-0.407737
C186	C	1.527888	-0.156029	-0.157737
C187	C	1.777888	0.093971	0.092263
C188	C	2.027888	0.343971	0.342263
C189	C	1.023212	-0.402679	-0.580922
C190	C	1.273212	-0.152679	-0.330922
C191	C	1.523212	0.097321	-0.080922
C192	C	1.773212	0.347321	0.169078
C193	C	1.026239	-0.405927	-0.659411
C194	C	1.276239	-0.155927	-0.409411
C195	C	1.526239	0.094073	-0.159411
C196	C	1.776239	0.344073	0.090589
C197	C	1.023743	-0.211870	-0.389263
C198	C	1.273743	0.038130	-0.139263
C199	C	1.523743	0.288130	0.110737
C200	C	1.773743	0.538130	0.360737
C201	C	1.026996	-0.133807	-0.386079
C202	C	1.276996	0.116193	-0.136079
C203	C	1.526996	0.366193	0.113921
C204	C	1.776996	0.616193	0.363921
C205	C	0.984529	-0.360653	-0.692562
C206	C	1.234529	-0.110653	-0.442562
C207	C	1.484529	0.139347	-0.192562
C208	C	1.734529	0.389347	0.057438
C209	C	0.987371	-0.363710	-0.766311
C210	C	1.237371	-0.113710	-0.516311
C211	C	1.487371	0.136290	-0.266311
C212	C	1.737371	0.386290	-0.016311
C213	C	1.031926	-0.412040	-0.806908
C214	C	1.281926	-0.162040	-0.556908
C215	C	1.531926	0.087960	-0.306908
C216	C	1.781926	0.337960	-0.056908
C217	C	1.073638	-0.457319	-0.773753
C218	C	1.323638	-0.207319	-0.523753
C219	C	1.573638	0.042681	-0.273753
C220	C	1.823638	0.292681	-0.023753
C221	C	1.070792	-0.454264	-0.700005
C222	C	1.320792	-0.204264	-0.450005
C223	C	1.570792	0.045736	-0.200005
C224	C	1.820792	0.295736	0.049995
C225	C	1.045059	-0.426198	-1.027870
C226	C	1.295059	-0.176198	-0.777870
C227	C	1.545059	0.073802	-0.527870
C228	C	1.795059	0.323802	-0.277870
C229	C	1.047903	-0.429248	-1.101623
C230	C	1.297903	-0.179248	-0.851623
C231	C	1.547903	0.070752	-0.601623
C232	C	1.797903	0.320752	-0.351623
C233	C	0.961634	-0.335640	-1.094176
C234	C	1.211634	-0.085640	-0.844176
C235	C	1.461634	0.164360	-0.594176
C236	C	1.711634	0.414360	-0.344176
C237	C	0.958795	-0.332587	-1.020427
C238	C	1.208795	-0.082587	-0.770427
C239	C	1.458795	0.167413	-0.520427
C240	C	1.708795	0.417413	-0.270427
C241	C	1.000504	-0.377868	-0.987278
C242	C	1.250504	-0.127868	-0.737278
C243	C	1.500504	0.122132	-0.487278
C244	C	1.750504	0.372132	-0.237278
N245	N	1.034833	-0.415165	-0.882292
N246	N	1.284833	-0.165165	-0.632292
N247	N	1.534833	0.084835	-0.382292
N248	N	1.784833	0.334835	-0.132292
N249	N	0.997593	-0.374746	-0.911896
N250	N	1.247593	-0.124746	-0.661896
N251	N	1.497593	0.125254	-0.411896
N252	N	1.747593	0.375254	-0.161896
C253	C	1.009075	-0.387414	-0.213265
C254	C	1.259075	-0.137414	0.036735
C255	C	1.509075	0.112586	0.286735
C256	C	1.759075	0.362586	0.536735
C257	C	1.006192	-0.383974	-0.134774
C258	C	1.256192	-0.133974	0.115226
C259	C	1.506192	0.116026	0.365226
C260	C	1.756192	0.366026	0.615226
H261	H	0.418261	-0.326877	-0.328457
H262	H	0.668261	-0.076877	-0.078457
H263	H	0.918261	0.173123	0.171543
H264	H	1.168261	0.423123	0.421543
Br265	Br	1.134101	-0.522916	-0.828848
Br266	Br	1.384101	-0.272916	-0.578848
Br267	Br	1.634101	-0.022916	-0.328848
Br268	Br	1.884101	0.227084	-0.078848
H269	H	1.079013	-0.463077	-1.000889
H270	H	1.329013	-0.213077	-0.750889
H271	H	1.579013	0.036923	-0.500889
H272	H	1.829013	0.286923	-0.250889
Br273	Br	0.905031	-0.274191	-1.139168
Br274	Br	1.155031	-0.024191	-0.889168
Br275	Br	1.405031	0.225809	-0.639168
Br276	Br	1.655031	0.475809	-0.389168
H277	H	0.954136	-0.993924	-0.458748
H278	H	1.204136	-0.743924	-0.208748
H279	H	1.454136	-0.493924	0.041252
H280	H	1.704136	-0.243924	0.291252
H281	H	0.748433	-0.298831	-0.300367
H282	H	0.998433	-0.048831	-0.050367
H283	H	1.248433	0.201169	0.199633
H284	H	1.498433	0.451169	0.449633
H285	H	1.083627	-0.662414	-0.329254
H286	H	1.333627	-0.412414	-0.079254
H287	H	1.583627	-0.162414	0.170746
H288	H	1.833627	0.087586	0.420746
Br289	Br	0.265041	-0.295048	-0.296569
Br290	Br	0.515041	-0.045048	-0.046569
Br291	Br	0.765041	0.204952	0.203431
Br292	Br	1.015041	0.454952	0.453431
H293	H	0.948251	-0.321294	-0.659512
H294	H	1.198251	-0.071294	-0.409512
H295	H	1.448251	0.178706	-0.159512
H296	H	1.698251	0.428706	0.090488
Br297	Br	0.594651	-0.487877	-0.489703
Br298	Br	0.844651	-0.237877	-0.239703
Br299	Br	1.094651	0.012123	0.010297
Br300	Br	1.344651	0.262123	0.260297
H301	H	0.417834	-0.496893	-0.498728
H302	H	0.667834	-0.246893	-0.248728
H303	H	0.917834	0.003107	0.001272
H304	H	1.167834	0.253107	0.251272
H305	H	1.084188	-0.468605	-1.134676
H306	H	1.334188	-0.218605	-0.884676
H307	H	1.584188	0.031395	-0.634676
H308	H	1.834188	0.281395	-0.384676
H309	H	1.111256	-0.993914	-0.301868
H310	H	1.361256	-0.743914	-0.051868
H311	H	1.611256	-0.493914	0.198132
H312	H	1.861256	-0.243914	0.448132
Br313	Br	0.264483	-0.515931	-0.517792
Br314	Br	0.514483	-0.265931	-0.267792
Br315	Br	0.764483	-0.015931	-0.017792
Br316	Br	1.014483	0.234069	0.232208
Br317	Br	1.128533	-1.146902	-0.284709
Br318	Br	1.378533	-0.896902	-0.034709
Br319	Br	1.628533	-0.646902	0.215291
Br320	Br	1.878533	-0.396902	0.465291
H321	H	1.078209	-0.795481	-0.334752
H322	H	1.328209	-0.545481	-0.084752
H323	H	1.578209	-0.295481	0.165248
H324	H	1.828209	-0.045481	0.415248
H325	H	0.615092	-0.293266	-0.294795
H326	H	0.865092	-0.043266	-0.044795
H327	H	1.115092	0.206734	0.205205
H328	H	1.365092	0.456734	0.455205
Br329	Br	0.898328	-0.266991	-0.965335
Br330	Br	1.148328	-0.016991	-0.715335
Br331	Br	1.398328	0.233009	-0.465335
Br332	Br	1.648328	0.483009	-0.215335
Br333	Br	0.924376	-1.146909	-0.488515
Br334	Br	1.174376	-0.896909	-0.238515
Br335	Br	1.424376	-0.646909	0.011485
Br336	Br	1.674376	-0.396909	0.261485
Br337	Br	0.903814	-0.642501	-0.508790
Br338	Br	1.153814	-0.392501	-0.258790
Br339	Br	1.403814	-0.142501	-0.008790
Br340	Br	1.653814	0.107499	0.241210
H341	H	0.921088	-0.795494	-0.491628
H342	H	1.171088	-0.545494	-0.241628
H343	H	1.421088	-0.295494	0.008372
H344	H	1.671088	-0.045494	0.258372
H345	H	1.104763	-0.491126	-0.673015
H346	H	1.354763	-0.241126	-0.423015
H347	H	1.604763	0.008874	-0.173015
H348	H	1.854763	0.258874	0.076985
H349	H	1.072509	-0.882262	-0.340507
H350	H	1.322509	-0.632262	-0.090507
H351	H	1.572509	-0.382262	0.159493
H352	H	1.822509	-0.132262	0.409493
Br353	Br	0.930722	-0.302300	-0.811298
Br354	Br	1.180722	-0.052300	-0.561298
Br355	Br	1.430722	0.197700	-0.311298
Br356	Br	1.680722	0.447700	-0.061298
Br357	Br	0.767882	-0.495124	-0.496937
Br358	Br	1.017882	-0.245124	-0.246937
Br359	Br	1.267882	0.004876	0.003063
Br360	Br	1.517882	0.254876	0.253063
Br361	Br	0.935520	-0.927064	-0.477292
Br362	Br	1.185520	-0.677064	-0.227292
Br363	Br	1.435520	-0.427064	0.022708
Br364	Br	1.685520	-0.177064	0.272708
