data_functionalizedCrystal
_audit_creation_method	'MofGen! by Chris Wilmer'
_symmetry_space_group_name_H-M	'P1'
_symmetry_Int_Tables_number	1
_symmetry_cell_setting	triclinic
loop_
_symmetry_equiv_pos_as_xyz
  x,y,z
_cell_length_a	29.839131
_cell_length_b	19.077142
_cell_length_c	19.076919
_cell_angle_alpha	89.925643
_cell_angle_beta	92.267459
_cell_angle_gamma	92.263213
loop_
_atom_site_label
_atom_site_type_symbol
_atom_site_fract_x
_atom_site_fract_y
_atom_site_fract_z
Zn1	Zn	-0.217348	-1.058169	-0.440427
Zn2	Zn	-0.289580	-1.062776	-0.322912
Zn3	Zn	-0.211328	-0.945390	-0.318218
Zn4	Zn	-0.289308	-0.940598	-0.435661
O5	O	-0.251891	-1.001733	-0.379304
O6	O	-0.229563	-1.157111	-0.428798
O7	O	-0.276795	-1.051138	-0.223958
O8	O	-0.149263	-0.960428	-0.334459
O9	O	-0.282631	-1.160495	-0.342460
O10	O	-0.153685	-1.043286	-0.424246
O11	O	-0.219303	-0.964895	-0.220509
O12	O	-0.219040	-0.846424	-0.329837
O13	O	-0.282168	-0.952261	-0.534624
O14	O	-0.276331	-0.842903	-0.416122
O15	O	-0.229299	-1.038640	-0.538126
O16	O	-0.352409	-1.046491	-0.337838
O17	O	-0.352209	-0.956728	-0.420674
C18	C	-0.247003	-0.819167	-0.371953
C19	C	-0.244923	-0.741064	-0.368825
C20	C	-0.273816	-0.702560	-0.412209
C21	C	-0.271856	-0.629173	-0.409273
C22	C	-0.241004	-0.594293	-0.362950
C23	C	-0.212108	-0.632803	-0.319564
C24	C	-0.214067	-0.706188	-0.322504
C25	C	-0.231942	-0.375010	-0.349351
C26	C	-0.229987	-0.301620	-0.346413
C27	C	-0.289734	-0.297995	-0.436123
C28	C	-0.291691	-0.371382	-0.439056
C29	C	-0.262794	-0.409885	-0.395673
N30	N	-0.239001	-0.519281	-0.359946
N31	N	-0.264795	-0.484896	-0.398681
C32	C	-0.368609	-1.001608	-0.379264
C33	C	-0.418544	-1.001617	-0.379273
C34	C	-0.728287	-1.048552	-0.336241
C35	C	-0.915963	-1.048638	-0.336271
O36	O	-0.940308	-1.088444	-0.299653
N37	N	-0.939338	-1.001877	-0.379363
C38	C	-0.915792	-0.955094	-0.422454
O39	O	-0.939981	-0.915328	-0.459112
C40	C	-0.728117	-0.955012	-0.422426
C41	C	-0.704744	-1.001772	-0.379326
C42	C	-0.704913	-1.095308	-0.293145
C43	C	-0.657997	-1.095284	-0.293135
C44	C	-0.634454	-1.048503	-0.336221
C45	C	-0.657827	-1.001747	-0.379316
C46	C	-0.704572	-0.908234	-0.465520
C47	C	-0.657650	-0.908219	-0.465511
C48	C	-0.634277	-0.954978	-0.422411
C49	C	-0.587368	-0.954942	-0.422392
N50	N	-0.563993	-1.001703	-0.379300
C51	C	-0.587536	-1.048484	-0.336214
C52	C	-1.014324	-0.955139	-0.422464
C53	C	-1.061243	-0.955159	-0.422470
C54	C	-1.061410	-1.048704	-0.336289
C55	C	-1.014491	-1.048680	-0.336279
C56	C	-0.990949	-1.001900	-0.379372
C57	C	-0.489008	-1.048428	-0.336196
C58	C	-0.442087	-1.048398	-0.336188
C59	C	-0.441924	-0.954856	-0.422372
C60	C	-0.488840	-0.954884	-0.422378
C61	C	-0.512381	-1.001676	-0.379288
O62	O	-0.562994	-0.915162	-0.458997
O63	O	-0.563339	-1.088255	-0.299573
C64	C	-0.775203	-1.048577	-0.336251
C65	C	-0.798576	-1.001821	-0.379347
C66	C	-0.775034	-0.955040	-0.422432
C67	C	-0.845495	-1.001840	-0.379353
C68	C	-0.869038	-1.048621	-0.336267
C69	C	-0.845662	-1.095382	-0.293175
C70	C	-0.798746	-1.095357	-0.293165
C71	C	-0.798409	-0.908279	-0.465524
C72	C	-0.845325	-0.908307	-0.465530
C73	C	-0.868868	-0.955087	-0.422444
C74	C	-0.134718	-1.001878	-0.379361
C75	C	-0.084786	-1.001939	-0.379385
C76	C	-0.256374	-0.994402	-0.562584
C77	C	-0.258285	-0.991277	-0.640687
C78	C	-0.256796	-0.185012	-0.386676
C79	C	-0.258880	-0.263116	-0.389796
C80	C	-0.231657	-1.034780	-0.679204
C81	C	-0.233450	-1.031836	-0.752589
C82	C	-0.261873	-0.985392	-0.787456
C83	C	-0.288502	-0.941885	-0.748934
C84	C	-0.286706	-0.944826	-0.675550
C85	C	-0.270193	-0.971770	-1.006736
C86	C	-0.271988	-0.968834	-1.080126
C87	C	-0.216936	-1.058785	-1.083776
C88	C	-0.215145	-1.061725	-1.010390
C89	C	-0.241771	-1.018215	-0.971874
N90	N	-0.263708	-0.982383	-0.862468
N91	N	-0.239934	-1.021221	-0.896863
C92	C	-0.247394	-1.009077	-0.196740
C93	C	-0.245361	-1.012337	-0.118643
H94	H	-0.190537	-0.737538	-0.287180
O95	O	-0.201001	-1.084874	-0.641598
H96	H	-0.182784	-1.114624	-0.680713
O97	O	-0.200789	-0.416537	-0.302540
H98	H	-0.179016	-0.379952	-0.269824
O99	O	-0.196716	-0.263982	-0.296448
H100	H	-0.162138	-0.277598	-0.309165
H101	H	-0.311643	-0.904066	-0.777328
H102	H	-0.308384	-0.909394	-0.644189
O103	O	-0.988934	-0.904665	-0.468928
H104	H	-1.013074	-0.872148	-0.498879
O105	O	-0.324966	-0.408994	-0.489027
H106	H	-0.359538	-0.395347	-0.476311
O107	O	-0.514400	-1.098892	-0.289725
H108	H	-0.503749	-1.089082	-0.234081
O109	O	-0.320907	-0.256442	-0.482877
H110	H	-0.356227	-0.270975	-0.471255
H111	H	-0.638485	-0.870125	-0.500604
H112	H	-0.186987	-0.604398	-0.281849
O113	O	-0.307090	-0.740179	-0.462175
H114	H	-0.326847	-0.701072	-0.491855
O115	O	-0.204734	-1.078761	-0.794136
H116	H	-0.184673	-1.111557	-0.757562
H117	H	-0.192001	-1.099547	-0.982007
H118	H	-0.423058	-1.086475	-0.301088
H119	H	-0.295384	-0.597826	-0.444600
H120	H	-0.638969	-1.133361	-0.258042
H121	H	-0.724077	-1.133406	-0.258059
H122	H	-0.195258	-1.094208	-1.115144
H123	H	-0.723594	-0.870154	-0.500613
O124	O	-0.302642	-0.918734	-1.117737
H125	H	-0.320853	-0.888967	-1.078626
O126	O	-0.298898	-0.924806	-0.965218
H127	H	-0.334827	-0.936225	-0.979760
O128	O	-0.989281	-1.099119	-0.289802
H129	H	-1.013540	-1.131652	-0.259849
H130	H	-1.080587	-1.086794	-0.301207
O131	O	-1.086451	-0.904722	-0.468951
H132	H	-1.062193	-0.872197	-0.498913
H133	H	-0.507872	-0.916811	-0.457475
O134	O	-0.416528	-0.904404	-0.468846
H135	H	-0.379977	-0.912253	-0.461601
H136	H	-0.779719	-1.133433	-0.258069
H137	H	-0.864839	-1.133470	-0.258091
H138	H	-0.864352	-0.870224	-0.500626
O139	O	-0.773018	-0.857806	-0.511981
H140	H	-0.797159	-0.825291	-0.541935
