data_functionalizedCrystal
_audit_creation_method	'MofGen! by Chris Wilmer'
_symmetry_space_group_name_H-M	'P1'
_symmetry_Int_Tables_number	1
_symmetry_cell_setting	triclinic
loop_
_symmetry_equiv_pos_as_xyz
  x,y,z
_cell_length_a	10.489711
_cell_length_b	10.489741
_cell_length_c	8.140239
_cell_angle_alpha	89.996756
_cell_angle_beta	89.995739
_cell_angle_gamma	84.533091
loop_
_atom_site_label
_atom_site_type_symbol
_atom_site_fract_x
_atom_site_fract_y
_atom_site_fract_z
O1	O	1.694073	0.179785	-0.136672
O2	O	1.322872	0.196718	-0.136662
O3	O	1.516919	0.002653	-0.136657
O4	O	1.500026	0.373850	-0.136677
O5	O	1.516908	0.002650	0.136570
O6	O	1.322861	0.196715	0.136565
O7	O	1.694062	0.179783	0.136555
Zn8	Zn	1.508460	0.188249	0.179941
Zn9	Zn	1.508474	0.188252	-0.180048
O10	O	1.500015	0.373848	0.136550
C11	C	1.275334	0.195446	-0.000047
C12	C	1.133703	0.191644	-0.000043
C13	C	0.951317	0.308348	-0.000068
C14	C	1.043468	0.250054	-0.134778
C15	C	1.043430	0.250020	0.134603
C16	C	0.973516	0.126511	-0.134899
C17	C	0.973469	0.126495	0.134602
C18	C	1.065593	0.068111	-0.000140
C19	C	1.515638	-0.044880	-0.000045
C20	C	1.511820	-0.186509	-0.000048
C21	C	1.388354	-0.254636	-0.000056
C22	C	1.446673	-0.346766	0.134657
C23	C	1.446713	-0.346738	-0.134723
C24	C	1.570190	-0.276773	0.134777
C25	C	1.570213	-0.276736	-0.134724
C26	C	1.628622	-0.368839	0.000022
C27	C	1.741600	0.181055	-0.000063
C28	C	1.883231	0.184857	-0.000078
C29	C	1.501296	0.421381	-0.000066
C30	C	1.505114	0.563010	-0.000074
N31	N	1.508459	0.188246	0.425623
N32	N	1.508485	0.188245	-0.425730
H33	H	0.942442	0.074285	0.248501
H34	H	1.622382	-0.245948	0.248794
N35	N	1.253891	-0.188854	0.000114
H36	H	1.240972	-0.132956	0.100895
H37	H	1.240393	-0.134248	-0.101734
N38	N	1.763203	-0.434328	0.000101
H39	H	1.809652	-0.408896	0.101898
H40	H	1.759789	-0.530220	-0.000930
N41	N	1.131117	-0.066456	-0.000248
H42	H	1.227024	-0.063129	0.000718
H43	H	1.104435	-0.113419	0.100516
H44	H	1.622414	-0.245696	-0.248624
N45	N	1.377500	-0.387779	-0.285577
H46	H	1.286746	-0.345829	-0.285445
H47	H	1.423321	-0.361076	-0.387247
H48	H	1.074381	0.302293	0.248491
H49	H	1.394427	-0.377773	0.248550
H50	H	1.074467	0.302311	-0.248666
H51	H	0.901626	0.409850	-0.000207
H52	H	0.942712	0.074309	-0.248919
