data_functionalizedCrystal
_audit_creation_method	'MofGen! by Chris Wilmer'
_symmetry_space_group_name_H-M	'P1'
_symmetry_Int_Tables_number	1
_symmetry_cell_setting	triclinic
loop_
_symmetry_equiv_pos_as_xyz
  x,y,z
_cell_length_a	15.944551
_cell_length_b	8.559649
_cell_length_c	7.681481
_cell_angle_alpha	94.913240
_cell_angle_beta	95.743508
_cell_angle_gamma	103.361299
loop_
_atom_site_label
_atom_site_type_symbol
_atom_site_fract_x
_atom_site_fract_y
_atom_site_fract_z
O1	O	-0.019570	-2.105021	0.146399
O2	O	0.023810	-1.639821	0.146411
O3	O	-0.120976	-1.885126	0.146389
O4	O	0.125215	-1.859716	0.146421
O5	O	-0.138833	-1.915319	-0.146471
O6	O	0.005953	-1.670014	-0.146450
O7	O	-0.037427	-2.135214	-0.146461
Zn8	Zn	-0.018572	-1.907408	-0.192953
Zn9	Zn	0.004955	-1.867627	0.192903
O10	O	0.107359	-1.889909	-0.146439
C11	C	-0.161130	-1.899168	-0.000042
C12	C	-0.254172	-1.896006	-0.000042
C13	C	0.018169	-1.595387	-0.000018
C14	C	0.027954	-1.418008	-0.000014
C15	C	-0.031786	-2.179647	-0.000028
C16	C	-0.041570	-2.357025	-0.000021
C17	C	-0.458726	-1.736394	-0.000014
C18	C	-0.533331	-1.825398	-0.144414
C19	C	-0.424528	-1.890284	-0.000029
C20	C	-0.515712	-1.795667	0.144323
C21	C	-0.589082	-1.884744	-0.000008
C22	C	-0.497915	-1.979342	-0.144548
C23	C	-0.480280	-1.949576	0.144319
C24	C	-0.554877	-2.038696	-0.000116
C25	C	-0.329732	-1.893471	-0.000042
C26	C	-0.683878	-1.881571	-0.000007
C27	C	0.147513	-1.875866	-0.000005
C28	C	0.240556	-1.879027	0.000008
N29	N	-0.034630	-1.934569	-0.456290
N30	N	0.021005	-1.840479	0.456240
H31	H	-0.417184	-1.608675	-0.000155
H32	H	-0.556682	-1.772895	-0.266489
Br33	Br	-0.484020	-2.108747	-0.348241
Br34	Br	0.139653	-1.278847	0.000026
H35	H	-0.596291	-2.166550	-0.000200
Br36	Br	-0.153261	-1.496175	-0.000018
H37	H	-0.456903	-2.002022	0.266401
Br38	Br	0.115659	-1.680392	-0.418417
H39	H	-0.091415	-2.030633	-0.531504
H40	H	-0.524143	-1.717971	0.266411
