data_functionalizedCrystal
_audit_creation_method	'MofGen! by Chris Wilmer'
_symmetry_space_group_name_H-M	'P1'
_symmetry_Int_Tables_number	1
_symmetry_cell_setting	triclinic
loop_
_symmetry_equiv_pos_as_xyz
  x,y,z
_cell_length_a	12.759401
_cell_length_b	18.215405
_cell_length_c	12.759393
_cell_angle_alpha	89.966515
_cell_angle_beta	89.979062
_cell_angle_gamma	90.024257
loop_
_atom_site_label
_atom_site_type_symbol
_atom_site_fract_x
_atom_site_fract_y
_atom_site_fract_z
Zn1	Zn	1.606208	-0.292919	-0.593998
Zn2	Zn	1.606074	-0.416003	-0.418309
Zn3	Zn	1.430506	-0.292958	-0.418333
Zn4	Zn	1.430474	-0.415951	-0.593946
O5	O	1.518316	-0.354458	-0.506147
O6	O	1.753211	-0.309251	-0.570704
O7	O	1.582743	-0.399718	-0.271291
O8	O	1.453883	-0.189968	-0.441668
O9	O	1.753113	-0.399681	-0.441626
O10	O	1.582970	-0.189940	-0.570728
O11	O	1.453754	-0.309318	-0.271309
O12	O	1.283481	-0.309268	-0.441617
O13	O	1.453827	-0.399593	-0.740974
O14	O	1.283457	-0.399631	-0.570639
O15	O	1.582938	-0.309201	-0.741013
O16	O	1.582711	-0.518980	-0.441576
O17	O	1.453698	-0.518942	-0.570616
C18	C	1.245348	-0.354449	-0.506126
C19	C	1.128572	-0.354463	-0.506142
C20	C	1.073725	-0.401586	-0.573218
C21	C	0.964000	-0.401589	-0.573239
C22	C	0.963980	-0.307343	-0.439099
C23	C	1.073702	-0.307337	-0.439084
C24	C	1.518215	-0.545664	-0.506111
C25	C	1.518268	-0.627463	-0.506130
C26	C	1.585515	-0.815581	-0.573423
C27	C	1.585554	-0.892439	-0.573443
C28	C	1.451246	-0.892583	-0.438936
C29	C	1.451203	-0.815725	-0.438922
C30	C	1.518344	-0.777226	-0.506164
C31	C	1.518425	-0.930942	-0.506198
C32	C	1.518465	-1.014276	-0.506218
C33	C	1.518302	-0.693887	-0.506145
C34	C	1.792349	-0.354467	-0.506168
C35	C	1.909125	-0.354471	-0.506178
C36	C	1.518394	-0.354387	-0.780180
C37	C	1.518428	-0.354357	-0.896957
C38	C	1.518445	-0.162505	-0.506206
C39	C	1.518501	-0.080706	-0.506231
C40	C	1.585661	-0.307283	-0.951841
C41	C	1.585679	-0.307251	-1.061565
C42	C	1.451227	-0.401374	-1.061512
C43	C	1.451205	-0.401402	-0.951790
C44	C	1.518298	-0.354475	-0.233179
C45	C	1.518468	-0.354298	-0.116403
H46	H	1.640184	-0.784237	-0.628177
C47	C	1.658733	-0.256259	-1.121290
C48	C	1.726035	-0.297912	-1.184308
C49	C	1.793336	-0.250960	-1.239353
H50	H	1.698862	-0.228228	-1.073039
H51	H	1.618598	-0.224192	-1.164152
H52	H	1.766165	-0.329966	-1.141449
H53	H	1.685934	-0.325942	-1.232578
H54	H	1.753201	-0.218893	-1.282215
H55	H	1.833458	-0.222931	-1.191094
H56	H	1.839001	-0.279214	-1.282123
H57	H	1.396584	-0.923938	-0.384188
H58	H	0.919292	-0.268976	-0.384501
H59	H	0.919349	-0.439960	-0.627861
H60	H	1.118360	-0.268958	-0.384462
H61	H	1.640249	-0.923664	-0.628214
H62	H	1.640395	-0.268974	-0.907199
H63	H	1.396499	-0.439678	-1.106171
C64	C	1.378166	-0.452596	-0.892383
C65	C	1.319327	-0.493809	-0.963885
C66	C	1.252045	-0.540979	-0.909198
H67	H	1.332309	-0.424534	-0.849578
H68	H	1.418304	-0.484713	-0.849599
H69	H	1.279192	-0.461697	-1.006652
H70	H	1.365156	-0.521886	-1.006692
H71	H	1.292182	-0.573096	-0.866414
H72	H	1.206194	-0.512911	-0.866395
H73	H	1.212121	-0.568952	-0.957703
C74	C	1.378229	-0.774210	-0.365779
C75	C	1.319465	-0.824374	-0.306868
C76	C	1.252241	-0.786157	-0.239475
H77	H	1.332322	-0.744232	-0.405806
H78	H	1.418406	-0.744243	-0.319979
H79	H	1.279291	-0.854329	-0.352662
H80	H	1.365344	-0.854354	-0.266819
H81	H	1.292418	-0.756190	-0.193675
H82	H	1.206341	-0.756181	-0.279511
H83	H	1.212369	-0.820187	-0.199490
H84	H	1.118396	-0.439957	-0.627824
