data_functionalizedCrystal
_audit_creation_method	'MofGen! by Chris Wilmer'
_symmetry_space_group_name_H-M	'P1'
_symmetry_Int_Tables_number	1
_symmetry_cell_setting	triclinic
loop_
_symmetry_equiv_pos_as_xyz
  x,y,z
_cell_length_a	11.792241
_cell_length_b	14.044220
_cell_length_c	10.868271
_cell_angle_alpha	89.993930
_cell_angle_beta	89.999893
_cell_angle_gamma	88.691147
loop_
_atom_site_label
_atom_site_type_symbol
_atom_site_fract_x
_atom_site_fract_y
_atom_site_fract_z
O1	O	1.519111	0.129987	-0.102206
O2	O	2.019111	0.629987	0.397794
O3	O	1.190028	0.143383	-0.102234
O4	O	1.690028	0.643383	0.397766
O5	O	1.349630	-0.001325	-0.102208
O6	O	1.849630	0.498675	0.397792
O7	O	1.359509	0.274695	-0.102232
O8	O	1.859509	0.774695	0.397768
O9	O	1.349615	-0.001331	0.102436
O10	O	1.849615	0.498669	0.602436
O11	O	1.190013	0.143378	0.102410
O12	O	1.690013	0.643378	0.602410
O13	O	1.519096	0.129981	0.102439
O14	O	2.019096	0.629981	0.602439
Zn15	Zn	1.354552	0.136679	0.134916
Zn16	Zn	1.854552	0.636679	0.634916
Zn17	Zn	1.354572	0.136686	-0.134712
Zn18	Zn	1.854572	0.636686	0.365288
O19	O	1.359494	0.274689	0.102413
O20	O	1.859494	0.774689	0.602413
C21	C	1.147650	0.142539	0.000084
C22	C	1.647650	0.642539	0.500084
C23	C	1.021400	0.140020	0.000074
C24	C	1.521400	0.640020	0.500074
C25	C	0.790253	0.135389	0.000109
C26	C	1.290253	0.635389	0.500109
C27	C	0.918880	0.137962	0.000090
C28	C	1.418880	0.637962	0.500090
C29	C	1.345298	-0.036664	0.000114
C30	C	1.845298	0.463336	0.500114
C31	C	1.332399	-0.141956	0.000115
C32	C	1.832399	0.358044	0.500115
C33	C	1.308817	-0.334739	0.000095
C34	C	1.808817	0.165261	0.500095
C35	C	1.400302	-0.391902	0.000099
C36	C	1.900302	0.108098	0.500099
C37	C	1.387181	-0.499173	0.000088
C38	C	1.887181	0.000827	0.500088
C39	C	1.321937	-0.227458	0.000106
C40	C	1.821937	0.272542	0.500106
C41	C	1.561474	0.130826	0.000118
C42	C	2.061474	0.630826	0.500118
C43	C	1.687724	0.133344	0.000120
C44	C	2.187724	0.633344	0.500120
C45	C	1.363826	0.310029	0.000088
C46	C	1.863826	0.810029	0.500088
C47	C	1.376725	0.415321	0.000079
C48	C	1.876725	0.915321	0.500079
N49	N	1.354547	0.136673	0.318930
N50	N	1.854547	0.636673	0.818930
N51	N	1.354585	0.136684	-0.318726
N52	N	1.854585	0.636684	0.181274
C53	C	1.354566	0.136684	0.569937
C54	C	1.854566	0.636684	1.069937
C55	C	1.354552	0.136681	0.430259
C56	C	1.854552	0.636681	0.930259
H57	H	1.488479	-0.360278	0.000024
H58	H	1.988479	0.139722	0.500024
C59	C	1.191220	-0.376847	-0.000166
C60	C	1.691220	0.123153	0.499834
C61	C	1.132398	-0.346372	-0.105464
C62	C	1.632398	0.153628	0.394536
C63	C	1.024073	-0.385165	-0.105750
C64	C	1.524073	0.114835	0.394250
H65	H	1.150991	-0.356298	0.071116
H66	H	1.650991	0.143702	0.571116
H67	H	1.197871	-0.444391	-0.000235
H68	H	1.697871	0.055609	0.499765
H69	H	1.125742	-0.278842	-0.105383
H70	H	1.625742	0.221158	0.394617
H71	H	1.172592	-0.366919	-0.176763
H72	H	1.672592	0.133081	0.323237
H73	H	1.030724	-0.452709	-0.105820
H74	H	1.530724	0.047291	0.394180
H75	H	0.983855	-0.364614	-0.034464
H76	H	1.483855	0.135386	0.465536
H77	H	0.984152	-0.364500	-0.177199
H78	H	1.484152	0.135500	0.322801
