data_functionalizedCrystal
_audit_creation_method	'MofGen! by Chris Wilmer'
_symmetry_space_group_name_H-M	'P1'
_symmetry_Int_Tables_number	1
_symmetry_cell_setting	triclinic
loop_
_symmetry_equiv_pos_as_xyz
  x,y,z
_cell_length_a	19.288864
_cell_length_b	15.944551
_cell_length_c	18.366186
_cell_angle_alpha	90.006079
_cell_angle_beta	90.022929
_cell_angle_gamma	83.317492
loop_
_atom_site_label
_atom_site_type_symbol
_atom_site_fract_x
_atom_site_fract_y
_atom_site_fract_z
O1	O	0.921629	0.104782	0.060785
O2	O	1.254962	0.438115	0.394118
O3	O	1.588296	0.771449	0.727451
O4	O	0.719405	0.118917	0.060735
O5	O	1.052739	0.452251	0.394068
O6	O	1.386072	0.785584	0.727402
O7	O	0.826039	-0.010446	0.060755
O8	O	1.159373	0.322887	0.394088
O9	O	1.492706	0.656220	0.727421
O10	O	0.814995	0.234146	0.060765
O11	O	1.148328	0.567479	0.394098
O12	O	1.481662	0.900812	0.727432
O13	O	0.826021	-0.010450	-0.060345
O14	O	1.159354	0.322883	0.272989
O15	O	1.492688	0.656217	0.606322
O16	O	0.719387	0.118914	-0.060364
O17	O	1.052720	0.452247	0.272969
O18	O	1.386054	0.785580	0.606302
O19	O	0.921610	0.104779	-0.060315
O20	O	1.254944	0.438112	0.273019
O21	O	1.588277	0.771445	0.606352
Zn22	Zn	0.820496	0.111846	-0.079567
Zn23	Zn	1.153829	0.445179	0.253767
Zn24	Zn	1.487162	0.778512	0.587100
Zn25	Zn	0.820520	0.111850	0.079987
Zn26	Zn	1.153853	0.445184	0.413320
Zn27	Zn	1.487187	0.778517	0.746654
O28	O	0.814976	0.234142	-0.060334
O29	O	1.148310	0.567476	0.272999
O30	O	1.481643	0.900809	0.606332
C31	C	0.693519	0.118461	0.000179
C32	C	1.026852	0.451794	0.333512
C33	C	1.360185	0.785127	0.666846
C34	C	0.616411	0.117095	0.000160
C35	C	0.949745	0.450429	0.333493
C36	C	1.283078	0.783762	0.666827
C37	C	0.571915	0.193000	0.000175
C38	C	0.905248	0.526333	0.333508
C39	C	1.238582	0.859667	0.666841
C40	C	0.499465	0.191717	0.000183
C41	C	0.832798	0.525051	0.333516
C42	C	1.166131	0.858384	0.666849
C43	C	0.471514	0.114526	0.000191
C44	C	0.804847	0.447859	0.333524
C45	C	1.138180	0.781192	0.666857
C46	C	0.516020	0.038611	0.000172
C47	C	0.849353	0.371944	0.333505
C48	C	1.182687	0.705278	0.666838
C49	C	0.588469	0.039896	0.000156
C50	C	0.921802	0.373229	0.333490
C51	C	1.255135	0.706562	0.666823
C52	C	0.363098	0.053846	0.042639
C53	C	0.696432	0.387179	0.375972
C54	C	1.029765	0.720512	0.709306
C55	C	0.290651	0.052564	0.042659
C56	C	0.623984	0.385897	0.375992
C57	C	0.957317	0.719231	0.709325
C58	C	0.248058	0.110560	0.000234
C59	C	0.581391	0.443893	0.333568
C60	C	0.914724	0.777226	0.666901
C61	C	0.277920	0.169851	-0.042200
C62	C	0.611253	0.503185	0.291133
C63	C	0.944587	0.836518	0.624466
C64	C	0.350369	0.171136	-0.042216
C65	C	0.683702	0.504469	0.291118
C66	C	1.017036	0.837803	0.624451
C67	C	0.392956	0.113124	0.000207
C68	C	0.726289	0.446457	0.333540
C69	C	1.059623	0.779791	0.666873
C70	C	0.125002	0.185079	0.000257
C71	C	0.458335	0.518412	0.333590
C72	C	0.791668	0.851745	0.666923
C73	C	0.052550	0.183793	0.000260
C74	C	0.385884	0.517126	0.333594
C75	C	0.719217	0.850460	0.666927
C76	C	0.069107	0.030684	0.000257
C77	C	0.402441	0.364018	0.333590
C78	C	0.735774	0.697351	0.666923
C79	C	0.141557	0.031972	0.000246
C80	C	0.474890	0.365306	0.333579
C81	C	0.808224	0.698639	0.666913
C82	C	0.169500	0.109172	0.000249
C83	C	0.502833	0.442505	0.333583
C84	C	0.836166	0.775839	0.666916
C85	C	0.825572	-0.041740	0.000205
C86	C	1.158905	0.291593	0.333538
C87	C	1.492238	0.624926	0.666871
C88	C	0.824197	-0.134981	0.000204
C89	C	1.157530	0.198352	0.333537
C90	C	1.490864	0.531686	0.666871
C91	C	0.754815	-0.349571	0.000197
C92	C	1.088148	-0.016237	0.333530
C93	C	1.421481	0.317096	0.666864
C94	C	0.787025	-0.410714	-0.059504
C95	C	1.120358	-0.077380	0.273829
C96	C	1.453691	0.255953	0.607162
C97	C	0.821710	-0.305697	0.000209
C98	C	1.155044	0.027636	0.333542
C99	C	1.488377	0.360969	0.666876
C100	C	0.787059	-0.410694	0.059890
C101	C	1.120392	-0.077360	0.393223
C102	C	1.453725	0.255973	0.726557
C103	C	0.819303	-0.470601	0.000217
C104	C	1.152637	-0.137268	0.333550
C105	C	1.485970	0.196066	0.666884
C106	C	0.853938	-0.365612	-0.059542
C107	C	1.187272	-0.032279	0.273792
C108	C	1.520605	0.301054	0.607125
C109	C	0.853963	-0.365586	0.059906
C110	C	1.187296	-0.032253	0.393240
C111	C	1.520630	0.301081	0.726573
C112	C	0.886222	-0.426712	0.000190
C113	C	1.219555	-0.093378	0.333524
C114	C	1.552888	0.239955	0.666857
C115	C	0.823095	-0.210700	0.000204
C116	C	1.156428	0.122633	0.333537
C117	C	1.489762	0.455966	0.666870
C118	C	0.817924	-0.565597	0.000217
C119	C	1.151257	-0.232263	0.333550
C120	C	1.484591	0.101070	0.666884
C121	C	0.947497	0.105235	0.000243
C122	C	1.280831	0.438569	0.333576
C123	C	1.614164	0.771902	0.666910
C124	C	1.024605	0.106600	0.000267
C125	C	1.357938	0.439934	0.333600
C126	C	1.691271	0.773267	0.666934
C127	C	0.815444	0.265436	0.000217
C128	C	1.148778	0.598770	0.333551
C129	C	1.482111	0.932103	0.666884
C130	C	0.816819	0.358677	0.000223
C131	C	1.150152	0.692010	0.333556
C132	C	1.483485	1.025344	0.666889
N133	N	0.820484	0.111842	-0.188458
N134	N	1.153818	0.445175	0.144876
N135	N	1.487151	0.778508	0.478209
C136	C	0.862606	0.162661	-0.226539
C137	C	1.195939	0.495994	0.106795
C138	C	1.529272	0.829328	0.440128
C139	C	0.862617	0.162659	-0.302767
C140	C	1.195950	0.495992	0.030567
C141	C	1.529284	0.829325	0.363900
C142	C	0.820494	0.111847	-0.340910
C143	C	1.153827	0.445180	-0.007577
C144	C	1.487161	0.778514	0.325756
C145	C	0.778370	0.061017	-0.302820
C146	C	1.111703	0.394351	0.030513
C147	C	1.445037	0.727684	0.363846
C148	C	0.778365	0.061015	-0.226594
C149	C	1.111698	0.394348	0.106740
C150	C	1.445032	0.727682	0.440073
C151	C	0.757877	0.109722	-0.461707
C152	C	1.091210	0.443056	-0.128374
C153	C	1.424543	0.776389	0.204960
C154	C	0.757880	0.109731	-0.537932
C155	C	1.091213	0.443064	-0.204599
C156	C	1.424547	0.776398	0.128735
C157	C	0.820510	0.111850	-0.576018
C158	C	1.153843	0.445183	-0.242685
C159	C	1.487176	0.778516	0.090649
C160	C	0.883137	0.113978	-0.537870
C161	C	1.216470	0.447311	-0.204536
C162	C	1.549804	0.780644	0.128797
C163	C	0.883132	0.113975	-0.461643
C164	C	1.216465	0.447308	-0.128310
C165	C	1.549799	0.780642	0.205023
C166	C	0.820495	0.111844	-0.423565
C167	C	1.153828	0.445177	-0.090232
C168	C	1.487162	0.778510	0.243101
C169	C	0.862647	0.162669	-0.696754
C170	C	1.195980	0.496002	-0.363421
C171	C	1.529314	0.829336	-0.030087
C172	C	0.862660	0.162661	-0.772983
C173	C	1.195993	0.495994	-0.439650
C174	C	1.529326	0.829327	-0.106317
C175	C	0.778406	0.061024	-0.773035
C176	C	1.111740	0.394358	-0.439702
C177	C	1.445073	0.727691	-0.106369
C178	C	0.778400	0.061028	-0.696808
C179	C	1.111733	0.394361	-0.363474
C180	C	1.445067	0.727695	-0.030141
C181	C	0.820519	0.111855	-0.658671
C182	C	1.153852	0.445188	-0.325338
C183	C	1.487186	0.778521	0.007995
N184	N	0.820537	0.111847	0.188878
N185	N	1.153871	0.445181	0.522212
N186	N	1.487204	0.778514	0.855545
H187	H	0.177787	-0.029838	0.000238
H188	H	0.511121	0.303496	0.333571
H189	H	0.844454	0.636829	0.666905
H190	H	0.266342	0.004289	0.077214
H191	H	0.599676	0.337622	0.410548
H192	H	0.933009	0.670955	0.743881
Br193	Br	0.919835	0.231629	-0.824667
Br194	Br	1.253169	0.564962	-0.491333
Br195	Br	1.586502	0.898296	-0.158000
H196	H	0.941797	-0.460084	0.000170
H197	H	1.275130	-0.126751	0.333504
H198	H	1.608463	0.206582	0.666837
Br199	Br	0.739893	-0.443998	0.144007
Br200	Br	1.073226	-0.110665	0.477340
Br201	Br	1.406559	0.222668	0.810673
H202	H	0.882201	-0.345732	-0.110070
H203	H	1.215534	-0.012399	0.223264
H204	H	1.548868	0.320934	0.556597
H205	H	0.706872	0.108003	-0.430704
H206	H	1.040205	0.441336	-0.097370
H207	H	1.373538	0.774670	0.235963
H208	H	0.463229	0.253530	0.000193
H209	H	0.796562	0.586863	0.333526
H210	H	1.129895	0.920197	0.666859
Br211	Br	0.739856	-0.444049	-0.143654
Br212	Br	1.073190	-0.110716	0.189680
Br213	Br	1.406523	0.222617	0.523013
Br214	Br	0.901097	-0.332211	0.144059
Br215	Br	1.234430	0.001123	0.477392
Br216	Br	1.567763	0.334456	0.810725
H217	H	0.374680	0.219411	-0.076770
H218	H	0.708013	0.552744	0.256564
H219	H	1.041347	0.886077	0.589897
Br220	Br	0.220124	0.248568	-0.099778
Br221	Br	0.553458	0.581902	0.233555
Br222	Br	0.886791	0.915235	0.566889
H223	H	0.699288	-0.316049	0.000124
H224	H	1.032622	0.017284	0.333457
H225	H	1.365955	0.350618	0.666791
Br226	Br	0.031182	-0.074078	0.000255
Br227	Br	0.364515	0.259255	0.333589
Br228	Br	0.697849	0.592589	0.666922
Br229	Br	0.919750	0.231660	-0.174786
Br230	Br	1.253084	0.564993	0.158547
Br231	Br	1.586417	0.898327	0.491881
Br232	Br	0.721207	-0.007947	-0.354584
Br233	Br	1.054540	0.325386	-0.021251
Br234	Br	1.387874	0.658719	0.312082
H235	H	0.397772	0.006617	0.077190
H236	H	0.731106	0.339950	0.410524
H237	H	1.064439	0.673284	0.743857
H238	H	0.896918	0.204044	-0.333778
H239	H	1.230251	0.537377	-0.000445
H240	H	1.563584	0.870711	0.332888
Br241	Br	0.162929	0.289847	0.000256
Br242	Br	0.496262	0.623180	0.333589
Br243	Br	0.829595	0.956513	0.666923
H244	H	0.934125	0.115705	-0.430586
H245	H	1.267459	0.449039	-0.097253
H246	H	1.600792	0.782372	0.236081
H247	H	0.594661	0.255862	0.000179
H248	H	0.927994	0.589195	0.333512
H249	H	1.261328	0.922529	0.666846
Br250	Br	0.968140	0.116856	-0.589547
Br251	Br	1.301474	0.450190	-0.256214
Br252	Br	1.634807	0.783523	0.077119
H253	H	0.016321	0.245606	0.000268
H254	H	0.349655	0.578940	0.333601
H255	H	0.682988	0.912273	0.666935
Br256	Br	0.919823	0.231627	-0.644993
Br257	Br	1.253156	0.564961	-0.311660
Br258	Br	1.586489	0.898294	0.021673
Br259	Br	0.478089	-0.066150	0.000175
Br260	Br	0.811422	0.267183	0.333508
Br261	Br	1.144756	0.600516	0.666842
Br262	Br	0.648861	-0.063126	0.000135
Br263	Br	0.982195	0.270207	0.333468
Br264	Br	1.315528	0.603541	0.666802
H265	H	0.744110	0.019652	-0.804091
H266	H	1.077443	0.352985	-0.470758
H267	H	1.410776	0.686318	-0.137425
Br268	Br	0.721192	-0.007956	-0.174908
Br269	Br	1.054526	0.325378	0.158425
Br270	Br	1.387859	0.658711	0.491758
Br271	Br	0.672886	0.106856	-0.589697
Br272	Br	1.006220	0.440189	-0.256364
Br273	Br	1.339553	0.773522	0.076970
Br274	Br	0.721218	-0.007929	-0.645122
Br275	Br	1.054552	0.325404	-0.311789
Br276	Br	1.387885	0.658738	0.021545
