data_functionalizedCrystal
_audit_creation_method	'MofGen! by Chris Wilmer'
_symmetry_space_group_name_H-M	'P1'
_symmetry_Int_Tables_number	1
_symmetry_cell_setting	triclinic
loop_
_symmetry_equiv_pos_as_xyz
  x,y,z
_cell_length_a	21.395361
_cell_length_b	19.805407
_cell_length_c	21.395355
_cell_angle_alpha	90.031996
_cell_angle_beta	89.978489
_cell_angle_gamma	89.970677
loop_
_atom_site_label
_atom_site_type_symbol
_atom_site_fract_x
_atom_site_fract_y
_atom_site_fract_z
Zn1	Zn	-0.249534	-1.034755	-0.354373
Zn2	Zn	0.250466	-0.534755	0.145627
Zn3	Zn	-0.354294	-1.034650	-0.249590
Zn4	Zn	0.145706	-0.534650	0.250410
Zn5	Zn	-0.249532	-0.921558	-0.249596
Zn6	Zn	0.250468	-0.421558	0.250404
Zn7	Zn	-0.354275	-0.921525	-0.354316
Zn8	Zn	0.145725	-0.421525	0.145684
O9	O	-0.301909	-0.978122	-0.301969
O10	O	0.198091	-0.478122	0.198031
O11	O	-0.263440	-1.129458	-0.340494
O12	O	0.236560	-0.629458	0.159506
O13	O	-0.340404	-1.019618	-0.161913
O14	O	0.159596	-0.519618	0.338087
O15	O	-0.161854	-0.936632	-0.263521
O16	O	0.338146	-0.436632	0.236479
O17	O	-0.340406	-1.129380	-0.263511
O18	O	0.159594	-0.629380	0.236489
O19	O	-0.161856	-1.019797	-0.340500
O20	O	0.338144	-0.519797	0.159500
O21	O	-0.263436	-0.936530	-0.161917
O22	O	0.236564	-0.436530	0.338083
O23	O	-0.263417	-0.826837	-0.263466
O24	O	0.236583	-0.326837	0.236534
O25	O	-0.340374	-0.936575	-0.442002
O26	O	0.159626	-0.436575	0.057998
O27	O	-0.340372	-0.826813	-0.340404
O28	O	0.159628	-0.326813	0.159596
O29	O	-0.263422	-1.019765	-0.442043
O30	O	0.236578	-0.519765	0.057957
O31	O	-0.441969	-1.019585	-0.263456
O32	O	0.058031	-0.519585	0.236544
O33	O	-0.441956	-0.936473	-0.340398
O34	O	0.058044	-0.436473	0.159602
C35	C	-0.301893	-0.802266	-0.301930
C36	C	0.198107	-0.302266	0.198070
C37	C	-0.301901	-0.727034	-0.301928
C38	C	0.198099	-0.227034	0.198072
C39	C	-0.342047	-0.265248	-0.341986
C40	C	0.157953	0.234752	0.158014
C41	C	-0.342047	-0.335936	-0.341975
C42	C	0.157953	0.164064	0.158025
C43	C	-0.301918	-0.371272	-0.301975
C44	C	0.198082	0.128728	0.198025
C45	C	-0.261791	-0.335916	-0.261979
C46	C	0.238209	0.164084	0.238021
C47	C	-0.261795	-0.265229	-0.261987
C48	C	0.238205	0.234771	0.238013
C49	C	-0.261775	-0.620989	-0.261944
C50	C	0.238225	-0.120989	0.238056
C51	C	-0.261772	-0.691681	-0.261940
C52	C	0.238228	-0.191681	0.238060
C53	C	-0.342027	-0.691697	-0.341931
C54	C	0.157973	-0.191697	0.158069
C55	C	-0.342031	-0.621010	-0.341939
C56	C	0.157969	-0.121010	0.158061
C57	C	-0.301906	-0.585659	-0.301941
C58	C	0.198094	-0.085659	0.198059
C59	C	-0.301908	-0.509011	-0.301953
C60	C	0.198092	-0.009011	0.198047
C61	C	-0.301913	-0.447919	-0.301966
C62	C	0.198087	0.052081	0.198034
C63	C	-0.464696	-0.978032	-0.301934
C64	C	0.035304	-0.478032	0.198066
C65	C	-0.534338	-0.978056	-0.301940
C66	C	-0.034338	-0.478056	0.198060
C67	C	-0.567037	-1.021371	-0.261917
C68	C	-0.067037	-0.521371	0.238083
C69	C	-0.632473	-1.021403	-0.261931
C70	C	-0.132473	-0.521403	0.238069
C71	C	-0.665206	-0.978107	-0.301961
C72	C	-0.165206	-0.478107	0.198039
C73	C	-0.632499	-0.934789	-0.341992
C74	C	-0.132499	-0.434789	0.158008
C75	C	-0.567065	-0.934764	-0.341981
C76	C	-0.067065	-0.434764	0.158019
C77	C	-0.768920	-0.917163	-0.306864
C78	C	-0.268920	-0.417163	0.193136
C79	C	-0.834353	-0.917188	-0.306870
C80	C	-0.334353	-0.417188	0.193130
C81	C	-0.867027	-0.978186	-0.301998
C82	C	-0.367027	-0.478186	0.198002
C83	C	-0.834260	-1.039162	-0.297106
C84	C	-0.334260	-0.539162	0.202894
C85	C	-0.768826	-1.039136	-0.297096
C86	C	-0.268826	-0.539136	0.202904
C87	C	-0.736158	-0.978130	-0.301978
C88	C	-0.236158	-0.478130	0.198022
C89	C	-0.970679	-1.021539	-0.261988
C90	C	-0.470679	-0.521539	0.238012
C91	C	-1.036115	-1.021571	-0.262007
C92	C	-0.536115	-0.521571	0.237993
C93	C	-1.036140	-0.934952	-0.342064
C94	C	-0.536140	-0.434952	0.157936
C95	C	-0.970705	-0.934925	-0.342049
C96	C	-0.470705	-0.434925	0.157951
C97	C	-0.937978	-0.978218	-0.302008
C98	C	-0.437978	-0.478218	0.197992
C99	C	-0.138486	-0.978230	-0.302017
C100	C	0.361514	-0.478230	0.197983
C101	C	-0.068844	-0.978276	-0.302038
C102	C	0.431156	-0.478276	0.197962
C103	C	-0.301896	-0.978178	-0.465392
C104	C	0.198104	-0.478178	0.034608
C105	C	-0.301891	-0.978202	-0.535033
C106	C	0.198109	-0.478202	-0.035033
C107	C	-0.301923	-0.154665	-0.302000
C108	C	0.198077	0.345335	0.198000
C109	C	-0.301922	-0.229897	-0.301994
C110	C	0.198078	0.270103	0.198006
C111	C	-0.261820	-1.021517	-0.567769
C112	C	0.238180	-0.521517	-0.067769
C113	C	-0.261793	-1.021516	-0.633205
C114	C	0.238207	-0.521516	-0.133205
C115	C	-0.301848	-0.978207	-0.665902
C116	C	0.198152	-0.478207	-0.165902
C117	C	-0.341922	-0.934884	-0.633158
C118	C	0.158078	-0.434884	-0.133158
C119	C	-0.341943	-0.934881	-0.567724
C120	C	0.158057	-0.434881	-0.067724
C121	C	-0.358263	-0.972832	-0.769564
C122	C	0.141737	-0.472832	-0.269564
C123	C	-0.358243	-0.972839	-0.834997
C124	C	0.141757	-0.472839	-0.334997
C125	C	-0.301782	-0.978211	-0.867723
C126	C	0.198218	-0.478211	-0.367723
C127	C	-0.245339	-0.983590	-0.835008
C128	C	0.254661	-0.483590	-0.335008
C129	C	-0.245361	-0.983588	-0.769573
C130	C	0.254639	-0.483588	-0.269573
C131	C	-0.301829	-0.978205	-0.736854
C132	C	0.198171	-0.478205	-0.236854
C133	C	-0.261678	-1.021528	-0.971411
C134	C	0.238322	-0.521528	-0.471411
C135	C	-0.261650	-1.021522	-1.036848
C136	C	0.238350	-0.521522	-0.536848
C137	C	-0.341785	-0.934893	-1.036800
C138	C	0.158215	-0.434893	-0.536800
C139	C	-0.341807	-0.934895	-0.971365
C140	C	0.158193	-0.434895	-0.471365
C141	C	-0.301755	-0.978216	-0.938674
C142	C	0.198245	-0.478216	-0.438674
C143	C	-0.301876	-0.978105	-0.139181
C144	C	0.198124	-0.478105	0.360819
C145	C	-0.301705	-0.978212	-0.069540
C146	C	0.198295	-0.478212	0.430460
H147	H	-0.374699	-0.720487	-0.374497
H148	H	0.125301	-0.220487	0.125503
H149	H	-1.062791	-0.899702	-0.374660
H150	H	-0.562791	-0.399702	0.125340
H151	H	-0.861027	-0.867537	-0.310847
H152	H	-0.361027	-0.367537	0.189153
H153	H	-0.229016	-1.056793	-1.063500
H154	H	0.270984	-0.556793	-0.563500
H155	H	-0.229119	-0.236447	-0.229424
H156	H	0.270881	0.263553	0.270576
H157	H	-0.374573	-0.899606	-0.541071
H158	H	0.125427	-0.399606	-0.041071
N159	N	-0.667797	-0.888085	-0.385164
N160	N	-0.167797	-0.388085	0.114836
H161	H	-0.656379	-0.898569	-0.429940
H162	H	-0.156379	-0.398569	0.070060
H163	H	-0.714201	-0.894691	-0.379044
H164	H	-0.214201	-0.394691	0.120956
N165	N	-0.869490	-1.104959	-0.291848
N166	N	-0.369490	-0.604959	0.208152
H167	H	-0.915914	-1.095726	-0.292600
H168	H	-0.415914	-0.595726	0.207400
H169	H	-0.858005	-1.135195	-0.328108
H170	H	-0.358005	-0.635195	0.171892
N171	N	-0.385130	-0.888171	-0.668414
N172	N	0.114870	-0.388171	-0.168414
H173	H	-0.375394	-0.839817	-0.657002
H174	H	0.124606	-0.339817	-0.157002
H175	H	-0.379022	-0.894799	-0.714824
H176	H	0.120978	-0.394799	-0.214824
N177	N	-0.384991	-0.888184	-1.072059
N178	N	0.115009	-0.388184	-0.572059
H179	H	-0.410382	-0.860745	-1.041388
H180	H	0.089618	-0.360745	-0.541388
H181	H	-0.359474	-0.856878	-1.099193
H182	H	0.140526	-0.356878	-0.599193
H183	H	-0.374441	-0.899628	-0.944711
H184	H	0.125559	-0.399628	-0.444711
N185	N	-0.385317	-0.582897	-0.385076
N186	N	0.114683	-0.082897	0.114924
H187	H	-0.359903	-0.553602	-0.414164
H188	H	0.140097	-0.053602	0.085836
H189	H	-0.410730	-0.616062	-0.410365
H190	H	0.089270	-0.116062	0.089635
N191	N	-0.531791	-0.888042	-0.385149
N192	N	-0.031791	-0.388042	0.114851
H193	H	-0.562454	-0.860619	-0.410513
H194	H	-0.062454	-0.360619	0.089487
H195	H	-0.504684	-0.856722	-0.359608
H196	H	-0.004684	-0.356722	0.140392
N197	N	-0.419117	-0.967043	-0.870280
N198	N	0.080883	-0.467043	-0.370280
H199	H	-0.454887	-0.963631	-0.839621
H200	H	0.045113	-0.463631	-0.339621
H201	H	-0.418199	-0.925341	-0.897410
H202	H	0.081801	-0.425341	-0.397410
H203	H	-1.062738	-1.056848	-0.229417
H204	H	-0.562738	-0.556848	0.270583
N205	N	-0.385328	-0.227138	-0.385131
N206	N	0.114672	0.272862	0.114869
H207	H	-0.410748	-0.260262	-0.410462
H208	H	0.089252	0.239738	0.089538
H209	H	-0.414287	-0.197777	-0.359575
H210	H	0.085713	0.302223	0.140425
H211	H	-0.404229	-0.968276	-0.742924
H212	H	0.095771	-0.468276	-0.242924
H213	H	-0.944079	-0.899651	-0.374637
H214	H	-0.444079	-0.399651	0.125363
N215	N	-0.218486	-1.068249	-0.936140
N216	N	0.281514	-0.568249	-0.436140
H217	H	-0.173710	-1.057772	-0.947513
H218	H	0.326290	-0.557772	-0.447513
H219	H	-0.224645	-1.061651	-0.889733
H220	H	0.275355	-0.561651	-0.389733
H221	H	-0.944032	-1.056792	-0.229386
H222	H	-0.444032	-0.556792	0.270614
H223	H	-0.374722	-0.364716	-0.374538
H224	H	0.125278	0.135284	0.125462
H225	H	-0.229092	-0.720450	-0.229366
H226	H	0.270908	-0.220450	0.270634
N227	N	-0.218500	-0.582867	-0.218806
N228	N	0.281500	-0.082867	0.281194
H229	H	-0.193077	-0.615980	-0.193468
H230	H	0.306923	-0.115980	0.306532
H231	H	-0.189543	-0.553569	-0.244364
H232	H	0.310457	-0.053569	0.255636
H233	H	-0.742323	-0.867487	-0.310834
H234	H	-0.242323	-0.367487	0.189166
N235	N	-0.218511	-0.374024	-0.218832
N236	N	0.281489	0.125976	0.281168
H237	H	-0.224595	-0.424169	-0.224896
H238	H	0.275405	0.075831	0.275104
H239	H	-0.173779	-0.361696	-0.228667
H240	H	0.326221	0.138304	0.271333
N241	N	-0.531741	-1.068073	-0.218740
N242	N	-0.031741	-0.568073	0.281260
H243	H	-0.504555	-1.099414	-0.244232
H244	H	-0.004555	-0.599414	0.255768
H245	H	-0.504664	-1.040527	-0.189681
H246	H	-0.004664	-0.540527	0.310319
N247	N	-0.218621	-1.068238	-0.532510
N248	N	0.281379	-0.568238	-0.032510
H249	H	-0.193231	-1.095678	-0.563181
H250	H	0.306769	-0.595678	-0.063181
H251	H	-0.189630	-1.040706	-0.505350
H252	H	0.310370	-0.540706	-0.005350
N253	N	-0.667752	-1.068123	-0.218763
N254	N	-0.167752	-0.568123	0.281237
H255	H	-0.637091	-1.095545	-0.193397
H256	H	-0.137091	-0.595545	0.306603
H257	H	-0.694938	-1.040592	-0.189749
H258	H	-0.194938	-0.540592	0.310251
H259	H	-0.742148	-1.088784	-0.293114
H260	H	-0.242148	-0.588784	0.206886
N261	N	-0.218572	-1.068236	-0.668523
N262	N	0.281428	-0.568236	-0.168523
H263	H	-0.193202	-1.095677	-0.637885
H264	H	0.306798	-0.595677	-0.137885
H265	H	-0.244075	-1.099539	-0.695685
H266	H	0.255925	-0.599539	-0.195685
N267	N	-0.184490	-0.989391	-0.734286
N268	N	0.315510	-0.489391	-0.234286
H269	H	-0.148716	-0.992797	-0.764942
H270	H	0.351284	-0.492797	-0.264942
H271	H	-0.178677	-0.948155	-0.707117
H272	H	0.321323	-0.448155	-0.207117
H273	H	-0.199363	-0.987966	-0.861651
H274	H	0.300637	-0.487966	-0.361651
