data_functionalizedCrystal
_audit_creation_method	'MofGen! by Chris Wilmer'
_symmetry_space_group_name_H-M	'P1'
_symmetry_Int_Tables_number	1
_symmetry_cell_setting	triclinic
loop_
_symmetry_equiv_pos_as_xyz
  x,y,z
_cell_length_a	19.077105
_cell_length_b	19.076808
_cell_length_c	19.076919
_cell_angle_alpha	90.121640
_cell_angle_beta	89.923776
_cell_angle_gamma	89.927608
loop_
_atom_site_label
_atom_site_type_symbol
_atom_site_fract_x
_atom_site_fract_y
_atom_site_fract_z
Zn1	Zn	1.045199	-0.339419	0.426239
Zn2	Zn	1.545199	0.160581	0.926239
Zn3	Zn	1.045494	-0.452227	0.304020
Zn4	Zn	1.545494	0.047773	0.804020
Zn5	Zn	0.932779	-0.330021	0.304425
Zn6	Zn	1.432779	0.169979	0.804425
Zn7	Zn	0.923332	-0.451803	0.416790
Zn8	Zn	1.423332	0.048197	0.916790
O9	O	0.986701	-0.393368	0.362869
O10	O	1.486701	0.106632	0.862869
O11	O	1.143411	-0.358494	0.413811
O12	O	1.643411	0.141506	0.913811
O13	O	1.034619	-0.432259	0.205899
O14	O	1.534619	0.067741	0.705899
O15	O	0.951521	-0.233091	0.324708
O16	O	1.451521	0.266909	0.824708
O17	O	1.143629	-0.441373	0.324017
O18	O	1.643629	0.058627	0.824017
O19	O	1.034116	-0.239996	0.414204
O20	O	1.534116	0.260004	0.914204
O21	O	0.951807	-0.342475	0.206197
O22	O	1.451807	0.157525	0.706197
O23	O	0.833352	-0.342065	0.315546
O24	O	1.333352	0.157935	0.815546
O25	O	0.935421	-0.440652	0.516218
O26	O	1.435421	0.059348	1.016218
O27	O	0.826412	-0.431538	0.398100
O28	O	1.326412	0.068462	0.898100
O29	O	1.024956	-0.358084	0.523160
O30	O	1.524956	0.141916	1.023160
O31	O	1.025460	-0.550347	0.314855
O32	O	1.525460	-0.050347	0.814855
O33	O	0.935708	-0.550036	0.397707
O34	O	1.435708	-0.050036	0.897707
C35	C	0.804427	-0.385736	0.355842
C36	C	1.304427	0.114264	0.855842
C37	C	0.726447	-0.382489	0.352852
C38	C	1.226447	0.117511	0.852852
C39	C	0.686218	-0.427613	0.394355
C40	C	1.186218	0.072387	0.894355
C41	C	0.612949	-0.424553	0.391549
C42	C	1.112949	0.075447	0.891549
C43	C	0.579910	-0.376372	0.347236
C44	C	1.079910	0.123628	0.847236
C45	C	0.620145	-0.331244	0.305731
C46	C	1.120145	0.168756	0.805731
C47	C	0.693413	-0.334301	0.308541
C48	C	1.193413	0.165699	0.808541
C49	C	0.361168	-0.362223	0.334234
C50	C	0.861168	0.137777	0.834234
C51	C	0.287894	-0.359171	0.331426
C52	C	0.787894	0.140829	0.831426
C53	C	0.280703	-0.452479	0.417246
C54	C	0.780703	0.047521	0.917246
C55	C	0.353973	-0.455535	0.420048
C56	C	0.853973	0.044465	0.920048
C57	C	0.394201	-0.410404	0.378546
C58	C	0.894201	0.089596	0.878546
N59	N	0.505017	-0.373244	0.344365
N60	N	1.005017	0.126756	0.844365
N61	N	0.469093	-0.413529	0.381421
N62	N	0.969093	0.086471	0.881421
C63	C	0.979609	-0.575649	0.355228
C64	C	1.479609	-0.075649	0.855228
C65	C	0.976638	-0.653633	0.351985
C66	C	1.476638	-0.153633	0.851985
C67	C	1.018210	-0.693805	0.397092
C68	C	1.518210	-0.193805	0.897092
C69	C	1.015416	-0.767080	0.394047
C70	C	1.515416	-0.267080	0.894047
C71	C	0.971053	-0.800181	0.345889
C72	C	1.471053	-0.300181	0.845889
C73	C	0.929477	-0.760004	0.300780
C74	C	1.429477	-0.260004	0.800780
C75	C	0.932268	-0.686731	0.303830
C76	C	1.432268	-0.186731	0.803830
C77	C	0.958095	-1.018945	0.331771
C78	C	1.458095	-0.518945	0.831771
C79	C	0.955309	-1.092224	0.328723
C80	C	1.455309	-0.592224	0.828723
C81	C	1.041248	-1.099295	0.421991
C82	C	1.541248	-0.599295	0.921991
C83	C	1.044038	-1.026020	0.425034
C84	C	1.544038	-0.526020	0.925034
C85	C	1.002459	-0.985849	0.379927
C86	C	1.502459	-0.485849	0.879927
N87	N	0.968198	-0.875079	0.342773
N88	N	1.468198	-0.375079	0.842773
N89	N	1.005311	-0.910952	0.383047
N90	N	1.505311	-0.410952	0.883047
C91	C	1.169687	-0.401029	0.369923
C92	C	1.669687	0.098971	0.869923
C93	C	1.247665	-0.404294	0.372929
C94	C	1.747665	0.095706	0.872929
C95	C	0.979102	-0.400369	0.545856
C96	C	1.479102	0.099631	1.045856
C97	C	0.975864	-0.403353	0.623835
C98	C	1.475864	0.096647	1.123835
C99	C	0.993839	-0.210376	0.370555
C100	C	1.493839	0.289624	0.870555
C101	C	0.996881	-0.132395	0.373831
C102	C	1.496881	0.367605	0.873831
C103	C	0.994313	-0.386344	0.180596
C104	C	1.494313	0.113656	0.680596
C105	C	0.997695	-0.383169	0.102632
C106	C	1.497695	0.116831	0.602632
C107	C	1.020956	-0.361767	0.664084
C108	C	1.520956	0.138233	1.164084
C109	C	1.017905	-0.364568	0.737353
C110	C	1.517905	0.135432	1.237353
C111	C	0.969764	-0.408957	0.770371
C112	C	1.469764	0.091043	1.270371
C113	C	0.924667	-0.450544	0.730116
C114	C	1.424667	0.049456	1.230116
C115	C	0.927715	-0.447740	0.656848
C116	C	1.427715	0.052260	1.156848
C117	C	0.955646	-0.421951	0.989109
C118	C	1.455646	0.078049	1.489109
C119	C	0.952602	-0.424754	1.062382
C120	C	1.452602	0.075246	1.562382
C121	C	1.045839	-0.338776	1.069614
C122	C	1.545839	0.161224	1.569614
C123	C	1.048886	-0.335979	0.996345
C124	C	1.548886	0.164021	1.496345
C125	C	1.003787	-0.377563	0.956097
C126	C	1.503787	0.122437	1.456097
N127	N	0.966646	-0.411822	0.845263
N128	N	1.466646	0.088178	1.345263
N129	N	1.006902	-0.374694	0.881206
N130	N	1.506902	0.125306	1.381206
H131	H	0.593239	-0.292011	0.269653
H132	H	1.093239	0.207989	0.769653
C133	C	0.236446	-0.502114	0.462900
C134	C	0.736446	-0.002114	0.962900
N135	N	0.203112	-0.539499	0.497292
N136	N	0.703112	-0.039499	0.997292
C137	C	0.912340	-0.974767	0.282167
C138	C	1.412340	-0.474767	0.782167
N139	N	0.877868	-0.941489	0.244809
N140	N	1.377868	-0.441489	0.744809
H141	H	0.726167	-0.297553	0.274748
H142	H	1.226167	0.202447	0.774748
H143	H	1.054625	-0.330706	0.770122
H144	H	1.554625	0.169294	1.270122
H145	H	0.713113	-0.466849	0.430437
H146	H	1.213113	0.033151	0.930437
C147	C	0.568699	-0.474205	0.437193
C148	C	1.068699	0.025795	0.937193
N149	N	0.535371	-0.511610	0.471569
N150	N	1.035371	-0.011610	0.971569
H151	H	0.890990	-0.481595	0.624078
H152	H	1.390990	0.018405	1.124078
C153	C	0.880721	-0.796418	0.247766
C154	C	1.380721	-0.296418	0.747766
N155	N	0.844016	-0.823844	0.207817
N156	N	1.344016	-0.323844	0.707817
C157	C	1.101838	-0.287140	0.960032
C158	C	1.601838	0.212860	1.460032
N159	N	1.141721	-0.250352	0.932680
N160	N	1.641721	0.249648	1.432680
H161	H	0.898415	-0.654023	0.267099
H162	H	1.398415	-0.154023	0.767099
C163	C	0.251553	-0.306165	0.282677
C164	C	0.751553	0.193835	0.782677
N165	N	0.224182	-0.266244	0.245960
N166	N	0.724182	0.233756	0.745960
H167	H	1.060159	-0.325623	0.637207
H168	H	1.560159	0.174377	1.137207
C169	C	1.095437	-0.293028	1.113894
C170	C	1.595437	0.206972	1.613894
N171	N	1.132793	-0.258565	1.147245
N172	N	1.632793	0.241435	1.647245
H173	H	0.913398	-0.460903	1.089262
H174	H	1.413398	0.039097	1.589262
C175	C	1.067014	-0.657401	0.450069
C176	C	1.567014	-0.157401	0.950069
N177	N	1.103773	-0.629983	0.489973
N178	N	1.603773	-0.129983	0.989973
C179	C	0.906032	-0.467693	0.944845
C180	C	1.406032	0.032307	1.444845
N181	N	0.868660	-0.502147	0.911503
N182	N	1.368660	-0.002147	1.411503
H183	H	0.885468	-0.486684	0.757005
H184	H	1.385468	0.013316	1.257005
H185	H	1.080162	-0.999070	0.464247
H186	H	1.580162	-0.499070	0.964247
H187	H	0.380868	-0.494770	0.456132
H188	H	0.880868	0.005230	0.956132
C189	C	1.061158	-0.811266	0.443660
C190	C	1.561158	-0.311266	0.943660
N191	N	1.095617	-0.844546	0.481028
N192	N	1.595617	-0.344546	0.981028
C193	C	0.405409	-0.312582	0.288576
C194	C	0.905409	0.187418	0.788576
N195	N	0.438735	-0.275191	0.254182
N196	N	0.938735	0.224809	0.754182
H197	H	1.075098	-1.132009	0.458715
H198	H	1.575098	-0.632009	0.958715
H199	H	0.919180	-1.119172	0.289507
H200	H	1.419180	-0.619172	0.789507
