data_functionalizedCrystal
_audit_creation_method	'MofGen! by Chris Wilmer'
_symmetry_space_group_name_H-M	'P1'
_symmetry_Int_Tables_number	1
_symmetry_cell_setting	triclinic
loop_
_symmetry_equiv_pos_as_xyz
  x,y,z
_cell_length_a	12.759395
_cell_length_b	12.594516
_cell_length_c	12.759387
_cell_angle_alpha	89.970641
_cell_angle_beta	89.979491
_cell_angle_gamma	90.019709
loop_
_atom_site_label
_atom_site_type_symbol
_atom_site_fract_x
_atom_site_fract_y
_atom_site_fract_z
Zn1	Zn	1.606243	-0.423642	-0.594016
Zn2	Zn	1.606123	-0.601660	-0.418340
Zn3	Zn	1.430542	-0.423700	-0.418352
Zn4	Zn	1.430523	-0.601584	-0.593980
O5	O	1.518358	-0.512647	-0.506172
O6	O	1.753249	-0.447264	-0.570722
O7	O	1.582789	-0.578109	-0.271321
O8	O	1.453907	-0.274747	-0.441675
O9	O	1.753160	-0.578053	-0.441654
O10	O	1.582994	-0.274704	-0.570734
O11	O	1.453790	-0.447363	-0.271330
O12	O	1.283518	-0.447290	-0.441640
O13	O	1.453875	-0.577924	-0.741006
O14	O	1.283505	-0.577980	-0.570672
O15	O	1.582976	-0.447191	-0.741032
O16	O	1.582772	-0.750595	-0.441619
O17	O	1.453759	-0.750540	-0.570661
C18	C	1.245390	-0.512634	-0.506154
C19	C	1.128614	-0.512654	-0.506171
C20	C	1.518279	-0.789188	-0.506158
C21	C	1.518341	-0.907493	-0.506187
C22	C	1.128638	-0.648962	-0.640315
C23	C	1.073790	-0.717124	-0.707390
C24	C	0.964068	-0.717137	-0.707403
C25	C	0.909193	-0.648978	-0.640336
C26	C	0.964041	-0.580816	-0.573261
C27	C	1.073765	-0.580812	-0.573253
C28	C	0.964016	-0.444504	-0.439124
C29	C	1.073738	-0.444495	-0.439104
C30	C	0.909141	-0.376345	-0.372057
C31	C	0.963989	-0.308186	-0.304975
C32	C	1.073718	-0.308177	-0.304964
C33	C	1.128587	-0.376332	-0.372029
C34	C	1.448228	-1.047518	-0.576337
C35	C	1.544010	-0.976603	-0.602109
C36	C	1.422569	-0.976836	-0.480461
C37	C	1.614345	-1.047363	-0.532048
C38	C	1.492839	-1.047603	-0.410355
C39	C	1.588687	-0.976720	-0.436091
C40	C	1.792391	-0.512660	-0.506191
C41	C	1.909168	-0.512666	-0.506199
C42	C	1.518437	-0.512542	-0.780206
C43	C	1.518471	-0.512498	-0.896982
C44	C	1.518466	-0.235026	-0.506210
C45	C	1.518512	-0.116720	-0.506225
C46	C	1.652913	-0.376375	-0.897030
C47	C	1.720148	-0.308297	-0.951914
C48	C	1.720174	-0.308258	-1.061636
C49	C	1.652954	-0.376302	-1.116476
C50	C	1.585719	-0.444380	-1.061591
C51	C	1.585703	-0.444413	-0.951867
C52	C	1.451273	-0.580496	-1.061544
C53	C	1.451252	-0.580542	-0.951822
C54	C	1.384054	-0.648540	-1.116384
C55	C	1.316822	-0.716624	-1.061499
C56	C	1.316800	-0.716661	-0.951771
C57	C	1.384016	-0.648619	-0.896938
C58	C	1.518339	-0.512674	-0.233205
C59	C	1.518509	-0.512418	-0.116428
H60	H	1.217979	-0.648966	-0.640304
H61	H	0.819851	-0.648985	-0.640362
N62	N	1.369692	-1.088687	-0.654955
H63	H	1.406845	-1.133842	-0.708776
H64	H	1.315159	-1.132864	-0.617607
H65	H	0.919301	-0.252692	-0.250379
H66	H	1.118369	-0.252663	-0.250350
N67	N	1.652982	-0.376259	-1.234817
H68	H	1.600202	-0.429694	-1.261230
H69	H	1.633740	-0.303195	-1.261171
H70	H	1.471163	-1.078810	-0.329320
N71	N	1.246928	-0.376333	-0.372017
H72	H	1.273393	-0.356863	-0.444123
H73	H	1.273270	-0.322822	-0.319304
N74	N	1.383970	-0.648631	-0.778596
H75	H	1.331170	-0.702072	-0.752144
H76	H	1.456056	-0.668176	-0.752234
N77	N	1.652898	-0.376431	-0.778688
H78	H	1.705684	-0.323001	-0.752276
H79	H	1.580798	-0.356896	-0.752326
N80	N	1.572694	-0.935293	-0.709475
H81	H	1.519627	-0.961040	-0.762403
H82	H	1.573102	-0.855111	-0.708396
N83	N	1.384074	-0.648473	-1.234725
H84	H	1.456140	-0.668038	-1.261170
H85	H	1.331243	-0.701890	-1.261062
N86	N	1.721761	-1.088221	-0.561010
H87	H	1.741253	-1.061764	-0.633171
H88	H	1.774764	-1.061848	-0.508323
H89	H	1.648119	-0.945831	-0.376784
H90	H	1.118482	-0.772616	-0.761997
H91	H	1.341503	-0.945850	-0.458686
H92	H	1.262037	-0.772087	-0.907090
H93	H	0.819800	-0.376356	-0.372076
H94	H	0.919411	-0.772635	-0.762027
N95	N	1.792673	-0.234936	-0.892768
H96	H	1.782470	-0.245298	-0.814931
H97	H	1.867691	-0.251539	-0.911974
N98	N	1.792680	-0.234825	-1.120841
H99	H	1.835257	-0.191722	-1.069456
H100	H	1.841288	-0.278143	-1.166366
H101	H	1.262092	-0.772014	-1.106158
