data_functionalizedCrystal
_audit_creation_method	'MofGen! by Chris Wilmer'
_symmetry_space_group_name_H-M	'P1'
_symmetry_Int_Tables_number	1
_symmetry_cell_setting	triclinic
loop_
_symmetry_equiv_pos_as_xyz
  x,y,z
_cell_length_a	11.792241
_cell_length_b	14.044220
_cell_length_c	10.868271
_cell_angle_alpha	89.993930
_cell_angle_beta	89.999893
_cell_angle_gamma	88.691147
loop_
_atom_site_label
_atom_site_type_symbol
_atom_site_fract_x
_atom_site_fract_y
_atom_site_fract_z
O1	O	1.519111	0.129987	-0.102206
O2	O	1.769111	0.379987	0.147794
O3	O	2.019111	0.629987	0.397794
O4	O	2.269111	0.879987	0.647794
O5	O	1.190028	0.143383	-0.102234
O6	O	1.440028	0.393383	0.147766
O7	O	1.690028	0.643383	0.397766
O8	O	1.940028	0.893383	0.647766
O9	O	1.349630	-0.001325	-0.102208
O10	O	1.599630	0.248675	0.147792
O11	O	1.849630	0.498675	0.397792
O12	O	2.099630	0.748675	0.647792
O13	O	1.359509	0.274695	-0.102232
O14	O	1.609509	0.524695	0.147768
O15	O	1.859509	0.774695	0.397768
O16	O	2.109509	1.024695	0.647768
O17	O	1.349615	-0.001331	0.102436
O18	O	1.599615	0.248669	0.352436
O19	O	1.849615	0.498669	0.602436
O20	O	2.099615	0.748669	0.852436
O21	O	1.190013	0.143378	0.102410
O22	O	1.440013	0.393378	0.352410
O23	O	1.690013	0.643378	0.602410
O24	O	1.940013	0.893378	0.852410
O25	O	1.519096	0.129981	0.102439
O26	O	1.769096	0.379981	0.352439
O27	O	2.019096	0.629981	0.602439
O28	O	2.269096	0.879981	0.852439
Zn29	Zn	1.354552	0.136679	0.134916
Zn30	Zn	1.604552	0.386679	0.384916
Zn31	Zn	1.854552	0.636679	0.634916
Zn32	Zn	2.104552	0.886679	0.884916
Zn33	Zn	1.354572	0.136686	-0.134712
Zn34	Zn	1.604572	0.386686	0.115288
Zn35	Zn	1.854572	0.636686	0.365288
Zn36	Zn	2.104572	0.886686	0.615288
O37	O	1.359494	0.274689	0.102413
O38	O	1.609494	0.524689	0.352413
O39	O	1.859494	0.774689	0.602413
O40	O	2.109494	1.024689	0.852413
C41	C	1.147650	0.142539	0.000084
C42	C	1.397650	0.392539	0.250084
C43	C	1.647650	0.642539	0.500084
C44	C	1.897650	0.892539	0.750084
C45	C	1.021400	0.140020	0.000074
C46	C	1.271400	0.390020	0.250074
C47	C	1.521400	0.640020	0.500074
C48	C	1.771400	0.890020	0.750074
C49	C	0.790253	0.135389	0.000109
C50	C	1.040253	0.385389	0.250109
C51	C	1.290253	0.635389	0.500109
C52	C	1.540253	0.885389	0.750109
C53	C	0.918880	0.137962	0.000090
C54	C	1.168880	0.387962	0.250090
C55	C	1.418880	0.637962	0.500090
C56	C	1.668880	0.887962	0.750090
C57	C	1.345298	-0.036664	0.000114
C58	C	1.595298	0.213336	0.250114
C59	C	1.845298	0.463336	0.500114
C60	C	2.095298	0.713336	0.750114
C61	C	1.332399	-0.141956	0.000115
C62	C	1.582399	0.108044	0.250115
C63	C	1.832399	0.358044	0.500115
C64	C	2.082399	0.608044	0.750115
C65	C	1.308817	-0.334739	0.000095
C66	C	1.558817	-0.084739	0.250095
C67	C	1.808817	0.165261	0.500095
C68	C	2.058817	0.415261	0.750095
C69	C	1.400302	-0.391902	0.000099
C70	C	1.650302	-0.141902	0.250099
C71	C	1.900302	0.108098	0.500099
C72	C	2.150302	0.358098	0.750099
C73	C	1.387181	-0.499173	0.000088
C74	C	1.637181	-0.249173	0.250088
C75	C	1.887181	0.000827	0.500088
C76	C	2.137181	0.250827	0.750088
C77	C	1.321937	-0.227458	0.000106
C78	C	1.571937	0.022542	0.250106
C79	C	1.821937	0.272542	0.500106
C80	C	2.071937	0.522542	0.750106
C81	C	1.561474	0.130826	0.000118
C82	C	1.811474	0.380826	0.250118
C83	C	2.061474	0.630826	0.500118
C84	C	2.311474	0.880826	0.750118
C85	C	1.687724	0.133344	0.000120
C86	C	1.937724	0.383344	0.250120
C87	C	2.187724	0.633344	0.500120
C88	C	2.437724	0.883344	0.750120
C89	C	1.363826	0.310029	0.000088
C90	C	1.613826	0.560029	0.250088
C91	C	1.863826	0.810029	0.500088
C92	C	2.113826	1.060029	0.750088
C93	C	1.376725	0.415321	0.000079
C94	C	1.626725	0.665321	0.250079
C95	C	1.876725	0.915321	0.500079
C96	C	2.126725	1.165321	0.750079
N97	N	1.354547	0.136673	0.318930
N98	N	1.604547	0.386673	0.568930
N99	N	1.854547	0.636673	0.818930
N100	N	2.104547	0.886673	1.068930
N101	N	1.354585	0.136684	-0.318726
N102	N	1.604585	0.386684	-0.068726
N103	N	1.854585	0.636684	0.181274
N104	N	2.104585	0.886684	0.431274
C105	C	1.354566	0.136684	0.569937
C106	C	1.604566	0.386684	0.819937
C107	C	1.854566	0.636684	1.069937
C108	C	2.104566	0.886684	1.319937
C109	C	1.354552	0.136681	0.430259
C110	C	1.604552	0.386681	0.680259
C111	C	1.854552	0.636681	0.930259
C112	C	2.104552	0.886681	1.180259
H113	H	1.488479	-0.360278	0.000024
H114	H	1.738479	-0.110278	0.250024
H115	H	1.988479	0.139722	0.500024
H116	H	2.238479	0.389722	0.750024
C117	C	1.189701	-0.377460	0.000100
C118	C	1.439701	-0.127460	0.250100
C119	C	1.689701	0.122540	0.500100
C120	C	1.939701	0.372540	0.750100
N121	N	1.099984	-0.409649	0.000115
N122	N	1.349984	-0.159649	0.250115
N123	N	1.599984	0.090351	0.500115
N124	N	1.849984	0.340351	0.750115
