data_functionalizedCrystal
_audit_creation_method	'MofGen! by Chris Wilmer'
_symmetry_space_group_name_H-M	'P1'
_symmetry_Int_Tables_number	1
_symmetry_cell_setting	triclinic
loop_
_symmetry_equiv_pos_as_xyz
  x,y,z
_cell_length_a	12.837942
_cell_length_b	11.026607
_cell_length_c	9.482900
_cell_angle_alpha	101.363848
_cell_angle_beta	100.328050
_cell_angle_gamma	78.292522
loop_
_atom_site_label
_atom_site_type_symbol
_atom_site_fract_x
_atom_site_fract_y
_atom_site_fract_z
O1	O	0.430677	-1.678880	-0.120903
O2	O	0.380157	-1.319732	-0.120904
O3	O	0.253029	-1.491341	-0.120894
O4	O	0.557805	-1.507271	-0.120912
O5	O	0.278984	-1.456499	0.120896
O6	O	0.406113	-1.284890	0.120887
O7	O	0.456632	-1.644038	0.120888
Cu8	Cu	0.433742	-1.461282	0.142965
Cu9	Cu	0.403047	-1.502487	-0.142981
O10	O	0.583760	-1.472429	0.120878
C11	C	0.383815	-1.256022	-0.000009
C12	C	0.356032	-1.118096	-0.000009
C13	C	0.226382	-1.468539	0.000000
C14	C	0.108310	-1.452492	-0.000002
N15	N	0.455332	-1.432310	0.344083
C16	C	-0.096652	-1.645414	-0.000032
C17	C	-0.207590	-1.630343	-0.000035
C18	C	-0.224509	-1.407280	-0.000020
C19	C	-0.113570	-1.422352	-0.000018
C20	C	-0.049645	-1.541422	-0.000021
C21	C	0.061297	-1.556492	-0.000009
C22	C	0.044375	-1.333431	-0.000005
C23	C	-0.066563	-1.318360	-0.000007
C24	C	0.610407	-1.495231	-0.000019
C25	C	0.728478	-1.511279	-0.000026
C26	C	0.452974	-1.707748	-0.000011
C27	C	0.480756	-1.845676	-0.000020
C28	C	0.432745	-1.053162	-0.000014
C29	C	0.404032	-0.910607	-0.000015
N30	N	0.381450	-1.531469	-0.344099
C31	C	0.409408	-1.493932	0.416286
C32	C	0.427381	-1.469837	0.583702
H33	H	0.113344	-1.653444	-0.000006
H34	H	0.480004	-1.399231	0.645822
C35	C	0.286579	-0.843145	-0.000008
N36	N	0.198115	-0.792331	-0.000005
C37	C	0.238585	-1.050628	-0.000002
N38	N	0.150121	-0.999814	0.000001
C39	C	0.550193	-1.120628	-0.000015
N40	N	0.638657	-1.171442	-0.000017
H41	H	0.567697	-0.895613	-0.000015
H42	H	0.328818	-1.602065	0.593780
C43	C	0.338292	-1.589284	0.332361
N44	N	0.284720	-1.661098	0.269151
C45	C	0.526422	-1.336931	0.428008
N46	N	0.579968	-1.265089	0.491218
H47	H	-0.044601	-1.742364	-0.000021
H48	H	-0.276577	-1.310340	-0.000033
C49	C	-0.259292	-1.744741	-0.000036
N50	N	-0.298233	-1.830911	-0.000035
H51	H	-0.118627	-1.221416	-0.000010
H52	H	0.082660	-1.248752	0.000016
