data_functionalizedCrystal
_audit_creation_method	'MofGen! by Chris Wilmer'
_symmetry_space_group_name_H-M	'P1'
_symmetry_Int_Tables_number	1
_symmetry_cell_setting	triclinic
loop_
_symmetry_equiv_pos_as_xyz
  x,y,z
_cell_length_a	16.959454
_cell_length_b	12.759401
_cell_length_c	12.759393
_cell_angle_alpha	90.019322
_cell_angle_beta	89.969286
_cell_angle_gamma	89.982011
loop_
_atom_site_label
_atom_site_type_symbol
_atom_site_fract_x
_atom_site_fract_y
_atom_site_fract_z
Zn1	Zn	-0.314679	-1.606216	-0.594011
Zn2	Zn	-0.446881	-1.606094	-0.418333
Zn3	Zn	-0.314715	-1.430518	-0.418348
Zn4	Zn	-0.446815	-1.430490	-0.593972
O5	O	-0.380772	-1.518330	-0.506166
O6	O	-0.332228	-1.753221	-0.570717
O7	O	-0.429391	-1.582764	-0.271314
O8	O	-0.204099	-1.453888	-0.441672
O9	O	-0.429356	-1.753131	-0.441647
O10	O	-0.204073	-1.582972	-0.570731
O11	O	-0.332290	-1.453769	-0.271325
O12	O	-0.332226	-1.283493	-0.441634
O13	O	-0.429244	-1.453840	-0.740999
O14	O	-0.429279	-1.283473	-0.570665
O15	O	-0.332164	-1.582945	-0.741027
O16	O	-0.557483	-1.582737	-0.441610
O17	O	-0.557434	-1.453722	-0.570651
C18	C	-0.380750	-1.245362	-0.506148
C19	C	-0.380759	-1.128586	-0.506165
C20	C	-0.586139	-1.518242	-0.506148
C21	C	-0.673995	-1.518300	-0.506176
C22	C	-0.431374	-1.073740	-0.573239
C23	C	-0.431381	-0.964016	-0.573249
C24	C	-0.330156	-0.963992	-0.439101
C25	C	-0.330145	-1.073714	-0.439097
C26	C	-0.481987	-1.128612	-0.640307
C27	C	-0.532607	-1.073766	-0.707386
C28	C	-0.532614	-0.964042	-0.707396
C29	C	-0.482001	-0.909164	-0.640327
C30	C	-1.045475	-1.451249	-0.573350
C31	C	-1.045466	-1.585703	-0.439088
C32	C	-0.962920	-1.585666	-0.439079
C33	C	-0.921648	-1.518419	-0.506205
C34	C	-0.962922	-1.451208	-0.573341
C35	C	-0.921640	-1.652868	-0.371937
C36	C	-0.839089	-1.652834	-0.371924
C37	C	-0.797816	-1.585591	-0.439056
C38	C	-0.839095	-1.518378	-0.506195
C39	C	-0.797822	-1.451130	-0.573321
C40	C	-0.839100	-1.383922	-0.640467
C41	C	-0.921648	-1.383965	-0.640473
C42	C	-0.715267	-1.585548	-0.439049
C43	C	-0.715269	-1.451089	-0.573311
C44	C	-0.174604	-1.518447	-0.506207
C45	C	-0.086747	-1.518496	-0.506224
C46	C	-0.380693	-1.518403	-0.780199
C47	C	-0.380659	-1.518435	-0.896976
C48	C	-0.380788	-0.792363	-0.506181
C49	C	-0.380776	-0.909140	-0.506178
C50	C	-0.330104	-1.585669	-0.951855
C51	C	-0.330076	-1.585694	-1.061579
C52	C	-0.431162	-1.451247	-1.061536
C53	C	-0.431186	-1.451218	-0.951814
C54	C	-0.279577	-1.652886	-0.897017
C55	C	-0.229019	-1.720126	-0.951895
C56	C	-0.228991	-1.720151	-1.061619
C57	C	-0.279520	-1.652935	-1.116465
C58	C	-0.380795	-1.518317	-0.233199
C59	C	-0.380606	-1.518489	-0.116422
H60	H	-0.481989	-1.217954	-0.640304
H61	H	-0.187818	-1.774894	-1.106298
O62	O	-0.179895	-1.785265	-0.898509
C63	C	-0.073173	-1.799427	-0.774715
C64	C	-0.128773	-1.725541	-0.835085
H65	H	-0.031816	-1.751169	-0.723438
H66	H	-0.109435	-1.854315	-0.723270
H67	H	-0.037071	-1.847504	-0.832811
H68	H	-0.164888	-1.677396	-0.777064
H69	H	-0.092466	-1.670722	-0.886546
H70	H	-0.288950	-0.919301	-0.384496
H71	H	-0.279483	-1.652949	-1.205810
O72	O	-0.480223	-1.386066	-1.114973
C73	C	-0.524958	-1.326494	-1.283989
C74	C	-0.469366	-1.400379	-1.223606
H75	H	-0.516188	-1.338025	-1.371830
H76	H	-0.588717	-1.344906	-1.262473
H77	H	-0.511086	-1.241790	-1.262356
H78	H	-0.483167	-1.485108	-1.245207
H79	H	-0.405623	-1.381878	-1.245127
H80	H	-0.681663	-1.640263	-0.384376
H81	H	-0.805486	-1.707559	-0.317252
H82	H	-0.279596	-1.652875	-0.807674
O83	O	-0.280961	-1.126835	-0.373834
C84	C	-0.180541	-1.115242	-0.240804
C85	C	-0.236215	-1.054952	-0.314645
H86	H	-0.144337	-1.057151	-0.192947
H87	H	-0.216747	-1.166549	-0.185719
H88	H	-0.139282	-1.166673	-0.289143
H89	H	-0.277485	-1.003464	-0.266391
H90	H	-0.199960	-1.003712	-0.369733
O91	O	-0.581741	-1.127233	-0.772438
C92	C	-0.626558	-1.296275	-0.831927
C93	C	-0.570886	-1.235860	-0.758182
H94	H	-0.617789	-1.384111	-0.820442
H95	H	-0.690296	-1.274753	-0.813332
H96	H	-0.612762	-1.274678	-0.916664
H97	H	-0.584611	-1.257425	-0.673420
H98	H	-0.507165	-1.257387	-0.776867
H99	H	-0.472340	-1.396454	-0.907131
O100	O	-0.799127	-1.318504	-0.705709
C101	C	-0.807827	-1.185206	-0.838944
C102	C	-0.853198	-1.259215	-0.765094
H103	H	-0.851524	-1.137267	-0.886991
H104	H	-0.769254	-1.130205	-0.790706
H105	H	-0.769105	-1.233420	-0.893860
H106	H	-0.891963	-1.211086	-0.710163
H107	H	-0.891722	-1.314218	-0.813397
O108	O	-0.961833	-1.318824	-0.705736
C109	C	-1.054950	-1.304656	-0.847608
C110	C	-1.009500	-1.378546	-0.773754
H111	H	-1.093487	-1.352912	-0.902633
H112	H	-1.093698	-1.249786	-0.799377
H113	H	-1.011262	-1.256559	-0.895539
H114	H	-1.053131	-1.426711	-0.725807
H115	H	-0.970740	-1.433347	-0.822045
O116	O	-0.581853	-0.910927	-0.772589
C117	C	-0.682222	-0.922537	-0.905687
C118	C	-0.626506	-0.982817	-0.831893
H119	H	-0.718327	-0.980634	-0.953669
H120	H	-0.723565	-0.871165	-0.857409
H121	H	-0.645974	-0.871173	-0.960667
H122	H	-0.662691	-1.034239	-0.776899
H123	H	-0.585161	-1.034124	-0.880236
H124	H	-0.681670	-1.396332	-0.627978
H125	H	-1.079075	-1.640447	-0.384431
O126	O	-1.085689	-1.385998	-0.638473
C127	C	-1.212859	-1.326517	-0.698051
C128	C	-1.167416	-1.400449	-0.624231
H129	H	-1.278943	-1.338190	-0.686578
H130	H	-1.196741	-1.241779	-0.679522
H131	H	-1.196527	-1.344901	-0.782769
H132	H	-1.183724	-1.382159	-0.539489
H133	H	-1.183538	-1.485164	-0.642850
H134	H	-0.955250	-1.707610	-0.317279
O135	O	-0.482106	-0.802577	-0.640468
C136	C	-0.537568	-0.645134	-0.714205
C137	C	-0.537553	-0.765838	-0.714118
H138	H	-0.582379	-0.615394	-0.773760
H139	H	-0.553936	-0.615203	-0.632854
H140	H	-0.476347	-0.615445	-0.736114
H141	H	-0.598755	-0.795616	-0.692254
H142	H	-0.521140	-0.795698	-0.795478
