data_functionalizedCrystal
_audit_creation_method	'MofGen! by Chris Wilmer'
_symmetry_space_group_name_H-M	'P1'
_symmetry_Int_Tables_number	1
_symmetry_cell_setting	triclinic
loop_
_symmetry_equiv_pos_as_xyz
  x,y,z
_cell_length_a	14.519731
_cell_length_b	14.519709
_cell_length_c	12.996460
_cell_angle_alpha	90.008707
_cell_angle_beta	89.993690
_cell_angle_gamma	96.315501
loop_
_atom_site_label
_atom_site_type_symbol
_atom_site_fract_x
_atom_site_fract_y
_atom_site_fract_z
O1	O	1.223858	-0.120978	-0.085589
O2	O	1.557192	0.212355	0.247744
O3	O	1.890525	0.545688	0.581078
O4	O	0.955384	-0.135195	-0.085593
O5	O	1.288717	0.198139	0.247740
O6	O	1.622051	0.531472	0.581074
O7	O	1.096739	0.006151	-0.085562
O8	O	1.430073	0.339485	0.247771
O9	O	1.763406	0.672818	0.581105
O10	O	1.082503	-0.262324	-0.085620
O11	O	1.415836	0.071009	0.247714
O12	O	1.749170	0.404342	0.581047
O13	O	1.096721	0.006143	0.085572
O14	O	1.430055	0.339477	0.418905
O15	O	1.763388	0.672810	0.752238
O16	O	0.955366	-0.135203	0.085541
O17	O	1.288699	0.198131	0.418874
O18	O	1.622033	0.531464	0.752208
O19	O	1.223840	-0.120987	0.085545
O20	O	1.557174	0.212347	0.418878
O21	O	1.890507	0.545680	0.752212
Cu22	Cu	1.089601	-0.128095	0.101169
Cu23	Cu	1.422935	0.205238	0.434502
Cu24	Cu	1.756268	0.538571	0.767835
Cu25	Cu	1.089623	-0.128086	-0.101217
Cu26	Cu	1.422956	0.205248	0.232117
Cu27	Cu	1.756290	0.538581	0.565450
O28	O	1.082485	-0.262333	0.085514
O29	O	1.415818	0.071001	0.418847
O30	O	1.749152	0.404334	0.752181
C31	C	0.921016	-0.134532	-0.000026
C32	C	1.254349	0.198801	0.333307
C33	C	1.587682	0.532134	0.666641
C34	C	0.818635	-0.132536	-0.000026
C35	C	1.151969	0.200797	0.333307
C36	C	1.485302	0.534130	0.666641
C37	C	1.096067	0.040507	0.000010
C38	C	1.429400	0.373840	0.333343
C39	C	1.762734	0.707174	0.666677
C40	C	1.094079	0.142889	0.000026
C41	C	1.427412	0.476222	0.333359
C42	C	1.760745	0.809555	0.666692
C43	C	0.735491	-0.130915	-0.000030
C44	C	1.068825	0.202419	0.333303
C45	C	1.402158	0.535752	0.666637
C46	C	0.631182	-0.128888	-0.000030
C47	C	0.964516	0.204445	0.333303
C48	C	1.297849	0.537779	0.666637
C49	C	0.548043	-0.127280	-0.000029
C50	C	0.881377	0.206054	0.333304
C51	C	1.214710	0.539387	0.666637
C52	C	0.443728	-0.125253	-0.000031
C53	C	0.777061	0.208080	0.333302
C54	C	1.110395	0.541414	0.666635
C55	C	1.086759	0.517785	0.000053
C56	C	1.420093	0.851118	0.333387
C57	C	1.753426	1.184452	0.666720
C58	C	1.088792	0.413477	0.000046
C59	C	1.422125	0.746810	0.333379
C60	C	1.755459	1.080144	0.666713
C61	C	1.090419	0.330340	0.000040
C62	C	1.423752	0.663673	0.333374
C63	C	1.757085	0.997007	0.666707
C64	C	1.092452	0.226025	0.000031
C65	C	1.425785	0.559359	0.333364
C66	C	1.759118	0.892692	0.666698
C67	C	1.258209	-0.121649	-0.000024
C68	C	1.591542	0.211685	0.333309
C69	C	1.924875	0.545018	0.666642
C70	C	1.360589	-0.123645	-0.000031
C71	C	1.693922	0.209689	0.333302
C72	C	2.027256	0.543022	0.666636
N73	N	1.089593	-0.128102	0.243516
N74	N	1.422926	0.205232	0.576849
N75	N	1.756260	0.538565	0.910183
C76	C	1.083157	0.703312	-0.000024
C77	C	1.416491	1.036645	0.333310
C78	C	1.749824	1.369978	0.666643
C79	C	1.085146	0.600930	0.000063
C80	C	1.418479	0.934264	0.333397
C81	C	1.751812	1.267597	0.666730
N82	N	1.089639	-0.128072	-0.243564
N83	N	1.422972	0.205261	0.089769
N84	N	1.756305	0.538594	0.423103
C85	C	1.089597	-0.128104	0.336622
C86	C	1.422931	0.205229	0.669955
C87	C	1.756264	0.538563	1.003288
C88	C	1.089606	-0.128098	0.453427
C89	C	1.422939	0.205235	0.786760
C90	C	1.756272	0.538569	1.120094
C91	C	1.089617	-0.128088	0.546525
C92	C	1.422951	0.205246	0.879859
C93	C	1.756284	0.538579	1.213192
C94	C	1.089627	-0.128082	0.663338
C95	C	1.422960	0.205251	0.996671
C96	C	1.756294	0.538584	1.330004
