data_functionalizedCrystal
_audit_creation_method	'MofGen! by Chris Wilmer'
_symmetry_space_group_name_H-M	'P1'
_symmetry_Int_Tables_number	1
_symmetry_cell_setting	triclinic
loop_
_symmetry_equiv_pos_as_xyz
  x,y,z
_cell_length_a	14.044220
_cell_length_b	11.026607
_cell_length_c	12.503572
_cell_angle_alpha	85.701682
_cell_angle_beta	93.835250
_cell_angle_gamma	100.887447
loop_
_atom_site_label
_atom_site_type_symbol
_atom_site_fract_x
_atom_site_fract_y
_atom_site_fract_z
O1	O	-1.312909	-0.291527	-0.089196
O2	O	-0.979576	0.041806	0.244137
O3	O	-0.646242	0.375139	0.577471
O4	O	-1.035106	-0.280770	-0.089224
O5	O	-0.701773	0.052564	0.244110
O6	O	-0.368439	0.385897	0.577443
O7	O	-1.150983	-0.107003	-0.089208
O8	O	-0.817650	0.226330	0.244125
O9	O	-0.484317	0.559663	0.577458
O10	O	-1.197032	-0.465294	-0.089211
O11	O	-0.863698	-0.131960	0.244122
O12	O	-0.530365	0.201373	0.577455
O13	O	-1.142273	-0.120095	0.089433
O14	O	-0.808939	0.213238	0.422766
O15	O	-0.475606	0.546572	0.756099
O16	O	-1.026395	-0.293861	0.089417
O17	O	-0.693062	0.039472	0.422750
O18	O	-0.359729	0.372805	0.756084
O19	O	-1.304198	-0.304619	0.089445
O20	O	-0.970865	0.028714	0.422778
O21	O	-0.637532	0.362047	0.756111
Cu22	Cu	-1.164501	-0.300436	0.105742
Cu23	Cu	-0.831168	0.032898	0.439076
Cu24	Cu	-0.497835	0.366231	0.772409
Cu25	Cu	-1.174803	-0.284953	-0.105521
Cu26	Cu	-0.841470	0.048380	0.227812
Cu27	Cu	-0.508136	0.381714	0.561145
O28	O	-1.188321	-0.478386	0.089429
O29	O	-0.854988	-0.145052	0.422763
O30	O	-0.521654	0.188281	0.756096
C31	C	-0.994633	-0.282607	0.000093
C32	C	-0.661300	0.050726	0.333427
C33	C	-0.327966	0.384060	0.666760
C34	C	-0.887011	-0.268562	0.000082
C35	C	-0.553678	0.064771	0.333416
C36	C	-0.220345	0.398104	0.666749
C37	C	-1.138133	-0.067419	0.000110
C38	C	-0.804800	0.265915	0.333443
C39	C	-0.471466	0.599248	0.666777
C40	C	-1.112809	0.070037	0.000104
C41	C	-0.779476	0.403370	0.333437
C42	C	-0.446142	0.736704	0.666770
C43	C	-1.344671	-0.302782	0.000126
C44	C	-1.011338	0.030552	0.333459
C45	C	-0.678005	0.363885	0.666792
C46	C	-1.452293	-0.316826	0.000129
C47	C	-1.118960	0.016508	0.333463
C48	C	-0.785627	0.349841	0.666796
C49	C	-0.689968	-0.242889	0.000104
C50	C	-0.356635	0.090444	0.333437
C51	C	-0.023301	0.423778	0.666771
C52	C	-0.649330	-0.342494	0.000108
C53	C	-0.315997	-0.009160	0.333441
C54	C	0.017336	0.324173	0.666774
C55	C	-0.539689	-0.328209	0.000120
C56	C	-0.206355	0.005125	0.333453
C57	C	0.126978	0.338458	0.666786
C58	C	-0.799619	-0.257172	0.000092
C59	C	-0.466286	0.076161	0.333425
C60	C	-0.132953	0.409494	0.666759
C61	C	-1.201172	-0.517970	0.000109
C62	C	-0.867838	-0.184637	0.333442
C63	C	-0.534505	0.148697	0.666775
C64	C	-1.226496	-0.655425	0.000108
C65	C	-0.893162	-0.322092	0.333441
C66	C	-0.559829	0.011241	0.666775
N67	N	-1.157263	-0.311325	0.254334
N68	N	-0.823930	0.022008	0.587667
N69	N	-0.490596	0.355341	0.921000
C70	C	-1.182733	0.136273	0.000109
C71	C	-0.849400	0.469607	0.333442
C72	C	-0.516066	0.802940	0.666776
C73	C	-1.156561	0.278341	0.000103
C74	C	-0.823228	0.611674	0.333436
C75	C	-0.489895	0.945008	0.666769
N76	N	-1.182047	-0.274054	-0.254112
N77	N	-0.848714	0.059279	0.079221
N78	N	-0.515381	0.392612	0.412554
C79	C	-1.146617	-0.327355	0.473447
C80	C	-0.813283	0.005978	0.806781
C81	C	-0.479950	0.339312	1.140114
C82	C	-1.192691	-0.258029	0.526781
C83	C	-0.859358	0.075305	0.860114
C84	C	-0.526025	0.408638	1.193447
C85	C	-1.186767	-0.266948	0.648703
C86	C	-0.853434	0.066386	0.982036
C87	C	-0.520101	0.399719	1.315370
C88	C	-1.152539	-0.318437	0.351514
C89	C	-0.819206	0.014896	0.684847
C90	C	-0.485873	0.348229	1.018181
H91	H	-0.696883	-0.438496	0.000102
H92	H	-0.363550	-0.105163	0.333435
H93	H	-0.030216	0.228170	0.666768
C94	C	-1.333555	0.279108	0.000120
C95	C	-1.000221	0.612442	0.333453
C96	C	-0.666888	0.945775	0.666787
N97	N	-1.414190	0.229798	0.000130
N98	N	-1.080856	0.563131	0.333464
N99	N	-0.747523	0.896464	0.666797
H100	H	-1.102726	-0.393402	0.519349
H101	H	-0.769392	-0.060069	0.852682
H102	H	-0.436059	0.273264	1.186016
C103	C	-1.005756	0.135511	0.000095
C104	C	-0.672423	0.468844	0.333428
C105	C	-0.339089	0.802178	0.666761
N106	N	-0.925121	0.184824	0.000091
N107	N	-0.591788	0.518158	0.333424
N108	N	-0.258454	0.851491	0.666758
H109	H	-1.236587	-0.191979	0.480874
H110	H	-0.903253	0.141354	0.814207
H111	H	-0.569920	0.474688	1.147540
H112	H	-1.261973	0.087803	0.000124
H113	H	-0.928640	0.421136	0.333457
H114	H	-0.595306	0.754470	0.666790
H115	H	-0.642418	-0.146894	0.000111
H116	H	-0.309085	0.186439	0.333444
H117	H	0.024248	0.519773	0.666777
H118	H	-1.077316	0.326806	0.000088
H119	H	-0.743983	0.660139	0.333421
H120	H	-0.410650	0.993473	0.666754
