data_functionalizedCrystal
_audit_creation_method	'MofGen! by Chris Wilmer'
_symmetry_space_group_name_H-M	'P1'
_symmetry_Int_Tables_number	1
_symmetry_cell_setting	triclinic
loop_
_symmetry_equiv_pos_as_xyz
  x,y,z
_cell_length_a	19.288859
_cell_length_b	18.366186
_cell_length_c	19.288855
_cell_angle_alpha	90.008830
_cell_angle_beta	83.132984
_cell_angle_gamma	90.009917
loop_
_atom_site_label
_atom_site_type_symbol
_atom_site_fract_x
_atom_site_fract_y
_atom_site_fract_z
O1	O	-0.921352	-0.060568	-0.086629
O2	O	-0.719091	-0.060567	-0.098322
O3	O	-0.826070	-0.060558	0.008656
O4	O	-0.814374	-0.060577	-0.193606
O5	O	-0.826051	0.060541	0.008661
O6	O	-0.719073	0.060532	-0.098317
O7	O	-0.921334	0.060531	-0.086623
Zn8	Zn	-0.820201	0.079759	-0.092469
Zn9	Zn	-0.820224	-0.079795	-0.092476
O10	O	-0.814355	0.060522	-0.193601
C11	C	-0.693205	-0.000017	-0.097944
C12	C	-0.616101	-0.000016	-0.096816
C13	C	-0.825685	-0.000007	0.034535
C14	C	-0.824559	-0.000005	0.111639
C15	C	-0.947220	-0.000020	-0.087002
C16	C	-1.024324	-0.000026	-0.088129
N17	N	-0.820189	0.188650	-0.092464
C18	C	-0.052059	-0.000022	-0.151960
C19	C	-0.124505	-0.000026	-0.153025
C20	C	-0.169214	-0.000019	-0.090256
C21	C	-0.141471	-0.000027	-0.026416
C22	C	-0.069026	-0.000030	-0.025353
C23	C	-0.290480	0.042414	-0.043441
C24	C	-0.362923	0.042422	-0.044507
C25	C	-0.392660	-0.000012	-0.093533
C26	C	-0.349942	-0.042445	-0.141505
C27	C	-0.277497	-0.042448	-0.140442
C28	C	-0.247770	-0.000016	-0.091402
C29	C	-0.498949	-0.000014	-0.158524
C30	C	-0.571397	-0.000022	-0.159587
C31	C	-0.588362	-0.000015	-0.032976
C32	C	-0.515915	-0.000014	-0.031915
C33	C	-0.471213	-0.000010	-0.094691
N34	N	-0.820241	-0.188686	-0.092476
C35	C	-0.867575	0.226754	-0.045118
C36	C	-0.867579	0.302982	-0.045114
C37	C	-0.820205	0.341103	-0.092470
C38	C	-0.772810	0.302989	-0.139820
C39	C	-0.772803	0.226763	-0.139817
C40	C	-0.810904	0.461857	-0.155758
C41	C	-0.810917	0.538082	-0.155762
C42	C	-0.820224	0.576210	-0.092478
C43	C	-0.829534	0.538104	-0.029189
C44	C	-0.829527	0.461878	-0.029186
C45	C	-0.820208	0.423758	-0.092478
C46	C	-0.867617	0.696970	-0.045125
C47	C	-0.867617	0.773199	-0.045121
C48	C	-0.772851	0.773204	-0.139832
C49	C	-0.772848	0.696977	-0.139830
C50	C	-0.820235	0.658864	-0.092477
C51	C	-0.824043	-0.066016	0.147847
C52	C	-0.822975	-0.066021	0.220293
C53	C	-0.822437	-0.000011	0.256530
C54	C	-0.822949	0.066009	0.220313
C55	C	-0.824010	0.066012	0.147867
C56	C	-0.861432	0.050557	0.376765
C57	C	-0.860375	0.050552	0.449209
C58	C	-0.819161	-0.000017	0.479976
C59	C	-0.779012	-0.050593	0.438290
C60	C	-0.780073	-0.050590	0.365844
C61	C	-0.821286	-0.000007	0.335085
C62	C	-0.817486	-0.066038	0.594738
C63	C	-0.816413	-0.066040	0.667185
C64	C	-0.816394	0.065992	0.667205
C65	C	-0.817459	0.065992	0.594758
C66	C	-0.818008	-0.000025	0.558530
C67	C	-0.814742	-0.000028	0.780520
C68	C	-0.815874	-0.000029	0.703417
H69	H	-0.015666	-0.000023	-0.203077
F70	F	-0.154030	-0.000022	-0.220966
F71	F	-0.600914	-0.000026	-0.227528
F72	F	-0.737344	-0.104412	0.321481
F73	F	-0.735143	-0.104414	0.471027
F74	F	-0.815859	-0.136302	0.705719
H75	H	-0.177878	-0.000023	0.024691
F76	F	-0.818066	-0.136298	0.556178
F77	F	-0.918050	0.813754	0.005278
H78	H	-0.822508	0.119755	0.249822
F79	F	-0.635940	-0.000017	0.033829
H80	H	-0.397698	0.076978	-0.005448
H81	H	-0.242719	-0.077000	-0.179501
F82	F	-0.839445	0.578677	0.038168
F83	F	-0.815817	0.136245	0.705766
F84	F	-0.918016	0.343542	0.005281
H85	H	-0.893069	0.091731	0.483145
H86	H	-0.803341	0.569102	-0.207296
F87	F	-0.258843	0.087548	0.008771
H88	H	-0.824488	-0.119772	0.118353
H89	H	-0.906158	0.195725	-0.006558
H90	H	-0.817885	0.119745	0.565278
F91	F	-0.801048	0.421286	-0.223119
F92	F	-0.905315	0.104371	0.344030
F93	F	-0.824557	0.136273	0.109331
F94	F	-0.486397	-0.000019	0.036024
F95	F	-0.918048	0.656406	0.005275
H96	H	-0.374151	-0.076997	-0.181429
H97	H	-0.046446	-0.000033	0.026628
H98	H	-0.462550	-0.000012	-0.209640
F99	F	-0.839429	0.421325	0.038170
F100	F	-0.722427	0.813772	-0.190227
H101	H	-0.734265	0.665950	-0.178387
H102	H	-0.734236	0.334031	-0.178376
H103	H	-0.734215	0.195738	-0.178373
F104	F	-0.822425	-0.136282	0.258835
