data_functionalizedCrystal
_audit_creation_method	'MofGen! by Chris Wilmer'
_symmetry_space_group_name_H-M	'P1'
_symmetry_Int_Tables_number	1
_symmetry_cell_setting	triclinic
loop_
_symmetry_equiv_pos_as_xyz
  x,y,z
_cell_length_a	15.297476
_cell_length_b	25.639239
_cell_length_c	15.298025
_cell_angle_alpha	99.685133
_cell_angle_beta	110.777618
_cell_angle_gamma	80.341084
loop_
_atom_site_label
_atom_site_type_symbol
_atom_site_fract_x
_atom_site_fract_y
_atom_site_fract_z
Zn1	Zn	1.512484	-0.282826	0.771419
Zn2	Zn	1.485431	-0.383122	0.615870
Zn3	Zn	1.330082	-0.282783	0.589053
Zn4	Zn	1.356886	-0.357301	0.744481
O5	O	1.421221	-0.326508	0.680206
O6	O	1.639027	-0.306954	0.773282
O7	O	1.442285	-0.380600	0.482167
O8	O	1.354382	-0.209629	0.613295
O9	O	1.619152	-0.380641	0.659000
O10	O	1.488391	-0.209660	0.747279
O11	O	1.328150	-0.306882	0.462465
O12	O	1.203506	-0.281844	0.587174
O13	O	1.400066	-0.336633	0.878200
O14	O	1.223199	-0.336592	0.701367
O15	O	1.514382	-0.281916	0.897991
O16	O	1.468276	-0.452856	0.632880
O17	O	1.373835	-0.433886	0.727370
C18	C	1.179610	-0.306412	0.638438
C19	C	1.076252	-0.297826	0.620592
C20	C	1.421057	-0.462341	0.680136
C21	C	1.421078	-0.520455	0.680152
C22	C	1.017435	-0.265223	0.552844
C23	C	0.920324	-0.257154	0.536074
C24	C	0.882022	-0.281685	0.587056
C25	C	0.940841	-0.314285	0.654810
C26	C	1.037960	-0.322358	0.671576
C27	C	0.902548	-0.338820	0.705788
C28	C	0.961367	-0.371421	0.773542
C29	C	1.058476	-0.379491	0.790305
C30	C	1.096778	-0.354961	0.739324
C31	C	0.805429	-0.330747	0.689022
C32	C	0.825955	-0.387883	0.807754
C33	C	0.923065	-0.395951	0.824523
C34	C	1.470569	-0.890697	0.631133
C35	C	1.470607	-0.945304	0.631152
O36	O	1.512517	-0.981930	0.589399
N37	N	1.421395	-0.962755	0.680296
C38	C	1.372149	-0.925597	0.729432
O39	O	1.330294	-0.945455	0.771235
C40	C	1.372117	-0.870992	0.729418
C41	C	1.421325	-0.853544	0.680263
C42	C	1.519774	-0.873248	0.581983
C43	C	1.519734	-0.818646	0.581963
C44	C	1.470490	-0.781492	0.631093
C45	C	1.421285	-0.798941	0.680243
C46	C	1.322877	-0.833835	0.778560
C47	C	1.322850	-0.779227	0.778542
C48	C	1.372057	-0.761779	0.729387
C49	C	1.372000	-0.707185	0.729354
N50	N	1.421213	-0.689734	0.680210
C51	C	1.470458	-0.726887	0.631079
C52	C	1.372221	-1.040272	0.729459
C53	C	1.372247	-1.094876	0.729467
C54	C	1.470708	-1.114579	0.631188
C55	C	1.470676	-1.059974	0.631174
C56	C	1.421434	-1.022821	0.680314
C57	C	1.470369	-0.612217	0.631041
C58	C	1.470322	-0.557609	0.631022
C59	C	1.371866	-0.537911	0.729305
C60	C	1.371909	-0.592514	0.729320
C61	C	1.421168	-0.629667	0.680186
O62	O	1.330116	-0.670528	0.771088
O63	O	1.512315	-0.707021	0.589293
C64	C	1.663775	-0.346682	0.722137
C65	C	1.767137	-0.355280	0.740006
C66	C	1.463232	-0.306399	0.922784
C67	C	1.481134	-0.297830	1.026157
C68	C	1.421414	-0.190145	0.680300
C69	C	1.421496	-0.132035	0.680341
C70	C	1.293526	-0.387628	1.276330
C71	C	1.276697	-0.395676	1.179205
C72	C	1.327805	-0.371215	1.140938
C73	C	1.395745	-0.338705	1.199806
C74	C	1.412570	-0.330653	1.296939
C75	C	1.446849	-0.314240	1.161547
C76	C	1.514789	-0.281730	1.220415
C77	C	1.531612	-0.273680	1.317539
C78	C	1.480504	-0.298141	1.355806
C79	C	1.430023	-0.322292	1.064414
C80	C	1.549068	-0.265317	1.085023
C81	C	1.565897	-0.257270	1.182148
C82	C	1.379366	-0.346549	1.438570
C83	C	1.361460	-0.355116	1.335197
H84	H	0.802950	-0.275113	0.573398
H85	H	1.510392	-0.543406	0.590991
N86	N	1.118552	-0.412805	0.859493
N87	N	1.106552	-0.460662	0.851278
H88	H	1.148979	-0.484192	0.900141
N89	N	1.635278	-0.224057	1.242298
N90	N	1.611991	-0.183531	1.290868
H91	H	1.660990	-0.160074	1.333351
N92	N	0.983136	-0.429261	0.893720
N93	N	0.948936	-0.451164	0.939233
H94	H	0.991360	-0.474690	0.988103
N95	N	0.786842	-0.412952	0.859822
N96	N	0.726924	-0.444455	0.817623
H97	H	0.699295	-0.462162	0.854390
N98	N	1.310602	-0.379439	1.041725
N99	N	1.249941	-0.408466	0.989176
H100	H	1.237791	-0.414277	0.919103
H101	H	0.757548	-0.304202	0.633858
H102	H	0.872440	-0.230614	0.480904
N103	N	1.360629	-0.355494	1.004275
N104	N	1.292010	-0.336662	0.939848
H105	H	1.242997	-0.360113	0.897373
N106	N	1.056572	-0.240179	0.500772
N107	N	1.143281	-0.247395	0.515748
H108	H	1.170924	-0.229708	0.478967
N109	N	1.195974	-0.363201	0.756438
N110	N	1.242766	-0.324422	0.783492
H111	H	1.312824	-0.330243	0.795568
N112	N	1.600995	-0.240466	1.377683
N113	N	1.577711	-0.199938	1.426249
H114	H	1.626711	-0.176479	1.468725
H115	H	1.510483	-0.642461	0.591033
N116	N	1.272543	-0.741270	0.828724
N117	N	1.272508	-0.692516	0.828703
H118	H	1.236977	-0.665708	0.864141
H119	H	1.221387	-0.422150	1.131282
N120	N	1.321923	-1.002323	0.779663
N121	N	1.342889	-1.001799	0.866541
H122	H	1.307369	-0.975000	0.902001
H123	H	1.559807	-0.804443	0.541940
H124	H	1.251918	-0.407538	1.307496
H125	H	1.590681	-0.245398	1.053867
H126	H	1.559880	-0.903494	0.541975
N127	N	1.272631	-0.851650	0.828790
N128	N	1.315594	-0.879886	0.893744
H129	H	1.280108	-0.892467	0.929224
N130	N	1.520942	-1.042163	0.580957
N131	N	1.564899	-1.075347	0.537091
H132	H	1.600403	-1.062771	0.501623
H133	H	1.510809	-1.144840	0.591187
N134	N	1.497689	-0.289929	1.455019
N135	N	1.452055	-0.311776	1.489168
H136	H	1.464189	-0.305978	1.559239
H137	H	1.332167	-1.109077	0.769484
H138	H	1.331844	-0.606721	0.769349
N139	N	1.321562	-0.499947	0.779474
N140	N	1.321541	-0.451196	0.779443
H141	H	1.286016	-0.424382	0.814878
