data_functionalizedCrystal
_audit_creation_method	'MofGen! by Chris Wilmer'
_symmetry_space_group_name_H-M	'P1'
_symmetry_Int_Tables_number	1
_symmetry_cell_setting	triclinic
loop_
_symmetry_equiv_pos_as_xyz
  x,y,z
_cell_length_a	12.759401
_cell_length_b	18.050589
_cell_length_c	12.759393
_cell_angle_alpha	90.036134
_cell_angle_beta	90.018567
_cell_angle_gamma	90.019579
loop_
_atom_site_label
_atom_site_type_symbol
_atom_site_fract_x
_atom_site_fract_y
_atom_site_fract_z
Zn1	Zn	1.606213	-0.295635	0.593950
Zn2	Zn	1.606089	-0.419845	0.418256
Zn3	Zn	1.430515	-0.295671	0.418289
Zn4	Zn	1.430486	-0.419785	0.593897
O5	O	1.518326	-0.357734	0.506098
O6	O	1.753217	-0.312121	0.570652
O7	O	1.582759	-0.403413	0.271239
O8	O	1.453885	-0.191742	0.441627
O9	O	1.753127	-0.403378	0.441570
O10	O	1.582970	-0.191715	0.570684
O11	O	1.453766	-0.312183	0.271264
O12	O	1.283490	-0.312125	0.441576
O13	O	1.453836	-0.403276	0.740925
O14	O	1.283468	-0.403312	0.570594
O15	O	1.582942	-0.312063	0.740964
O16	O	1.582731	-0.523761	0.441519
O17	O	1.453716	-0.523718	0.570562
C18	C	1.245358	-0.357716	0.506084
C19	C	1.128582	-0.357727	0.506102
C20	C	1.073760	-0.310299	0.573419
C21	C	0.964036	-0.310313	0.573426
C22	C	0.963965	-0.405189	0.438796
C23	C	1.073687	-0.405171	0.438784
C24	C	1.073800	-0.255525	0.651150
C25	C	0.964076	-0.255540	0.651157
C26	C	1.518235	-0.550686	0.506054
C27	C	1.518293	-0.633232	0.506071
C28	C	1.588634	-0.882054	0.436014
C29	C	1.492775	-0.832724	0.410214
C30	C	1.518425	-0.930352	0.506152
C31	C	1.614213	-0.832600	0.531862
C32	C	1.518365	-0.784367	0.506109
C33	C	1.422516	-0.882110	0.480303
C34	C	1.544018	-0.881990	0.601995
C35	C	1.448093	-0.832682	0.576232
C36	C	1.518461	-1.014450	0.506173
C37	C	1.518318	-0.700271	0.506088
C38	C	1.792359	-0.357752	0.506113
C39	C	1.909135	-0.357760	0.506120
C40	C	1.518399	-0.357659	0.780132
C41	C	1.518430	-0.357627	0.896908
C42	C	1.518445	-0.164028	0.506165
C43	C	1.518496	-0.081482	0.506193
C44	C	1.518313	-0.357755	0.233131
C45	C	1.518485	-0.357578	0.116355
C46	C	1.585665	-0.310128	0.951792
C47	C	1.585690	-0.310101	1.061516
C48	C	1.451243	-0.405079	1.061463
C49	C	1.451213	-0.405101	0.951741
C50	C	1.663291	-0.255295	0.951824
C51	C	1.663316	-0.255269	1.061548
H52	H	0.934329	-0.271017	0.732491
Br53	Br	1.123438	-0.159622	0.615078
Br54	Br	1.359941	-0.469552	0.877258
H55	H	1.634210	-0.200621	1.095602
H56	H	1.695244	-0.810854	0.553624
Br57	Br	0.907339	-0.164442	0.602826
H58	H	1.565725	-0.903648	0.683043
H59	H	1.641530	-0.197781	0.922074
H60	H	1.396515	-0.443729	1.106121
H61	H	1.647959	-0.903732	0.376673
H62	H	1.471096	-0.811082	0.329143
H63	H	1.341461	-0.903764	0.458448
H64	H	1.388625	-0.811142	0.635527
Br65	Br	1.792074	-0.289660	0.895080
Br66	Br	1.798934	-0.280931	1.111188
H67	H	0.919256	-0.443817	0.383988
Br68	Br	1.148086	-0.469514	0.347386
H69	H	1.107862	-0.276189	0.728386
