data_functionalizedCrystal
_audit_creation_method	'MofGen! by Chris Wilmer'
_symmetry_space_group_name_H-M	'P1'
_symmetry_Int_Tables_number	1
_symmetry_cell_setting	triclinic
loop_
_symmetry_equiv_pos_as_xyz
  x,y,z
_cell_length_a	10.540539
_cell_length_b	19.188930
_cell_length_c	9.616153
_cell_angle_alpha	89.992615
_cell_angle_beta	89.995174
_cell_angle_gamma	83.835137
loop_
_atom_site_label
_atom_site_type_symbol
_atom_site_fract_x
_atom_site_fract_y
_atom_site_fract_z
O1	O	1.683724	0.098389	-0.115598
O2	O	1.314107	0.107659	-0.115617
O3	O	1.509582	0.001439	-0.115579
O4	O	1.488249	0.204608	-0.115635
O5	O	1.509555	0.001441	0.115712
O6	O	1.314080	0.107661	0.115675
O7	O	1.683697	0.098391	0.115694
Zn8	Zn	1.498885	0.103026	0.152407
Zn9	Zn	1.498920	0.103023	-0.152330
O10	O	1.488222	0.204610	0.115657
C11	C	1.266806	0.106965	0.000027
C12	C	1.125904	0.104885	0.000021
C13	C	1.508878	-0.024575	0.000070
C14	C	1.506804	-0.102094	0.000082
C15	C	0.944233	0.025184	0.000583
C16	C	1.090805	0.027292	0.000047
C17	C	1.063423	0.142224	-0.132063
C18	C	0.916937	0.139576	-0.132158
C19	C	0.916384	0.141157	0.130863
C20	C	1.063350	0.141872	0.132594
C21	C	1.621502	-0.146253	0.000095
C22	C	1.619554	-0.219090	0.000072
C23	C	1.502901	-0.247764	0.000065
C24	C	1.388187	-0.203595	0.000045
C25	C	1.390139	-0.130760	0.000053
N26	N	1.413724	-0.356363	0.078774
N27	N	1.411878	-0.425554	0.078769
C28	C	1.497014	-0.467212	0.000037
N29	N	1.584085	-0.437067	-0.078672
N30	N	1.585935	-0.367870	-0.078661
C31	C	1.500772	-0.326741	0.000055
C32	C	1.609608	-0.590350	0.000023
C33	C	1.607655	-0.663188	-0.000008
C34	C	1.376285	-0.647691	-0.000021
C35	C	1.378241	-0.574855	-0.000004
C36	C	1.494906	-0.546189	0.000025
C37	C	1.730998	0.099085	0.000047
C38	C	1.871901	0.101165	0.000044
C39	C	1.488927	0.230625	0.000004
C40	C	1.491000	0.308143	-0.000017
N41	N	1.498870	0.103028	0.360381
N42	N	1.498945	0.103016	-0.360304
C43	C	1.393992	0.159658	0.580731
C44	C	1.394216	0.159870	0.419564
C45	C	1.631228	0.119601	0.418832
C46	C	1.630655	0.120002	0.580050
C47	C	1.472715	0.029640	0.580311
C48	C	1.469658	0.030115	0.419084
H49	H	1.134055	-0.002088	0.094731
H50	H	1.549256	-0.012519	0.618442
H51	H	1.701060	-0.699142	-0.000005
H52	H	1.281303	-0.671037	-0.000034
C53	C	1.252071	-0.526277	0.000006
H54	H	1.182316	-0.553784	0.000010
H55	H	1.248028	-0.497533	-0.080644
H56	H	1.248020	-0.497553	0.080679
H57	H	1.293208	-0.226946	0.000036
C58	C	1.261287	0.146413	0.366172
H59	H	1.206660	0.140769	0.443014
H60	H	1.268477	0.105079	0.311110
H61	H	1.226699	0.185101	0.311476
C62	C	0.874515	0.107238	0.266119
H63	H	0.902303	0.132160	0.343790
H64	H	0.911258	0.059861	0.270188
H65	H	0.784143	0.108773	0.267826
H66	H	0.867922	0.197202	0.131740
C67	C	1.119470	0.105022	0.264603
H68	H	1.180773	0.067255	0.239045
H69	H	1.053018	0.087542	0.316481
H70	H	1.159275	0.137538	0.319711
H71	H	1.086329	0.198442	0.140553
H72	H	1.716500	-0.122918	0.000113
H73	H	1.133213	-0.002297	-0.094785
H74	H	1.295284	0.149839	0.619541
H75	H	1.410467	0.213788	0.621216
H76	H	1.712958	-0.255051	0.000077
H77	H	1.296735	-0.094804	0.000044
C78	C	1.737931	-0.558814	0.000039
H79	H	1.805965	-0.595548	0.000022
H80	H	1.743494	-0.530732	0.080701
H81	H	1.743508	-0.530714	-0.080622
C82	C	1.416782	0.233409	0.367417
H83	H	1.425860	0.263269	0.444764
H84	H	1.346180	0.252026	0.312584
H85	H	1.492253	0.230303	0.312747
C86	C	1.661945	0.192321	0.630818
H87	H	1.674881	0.221180	0.552914
H88	H	1.737216	0.186814	0.685812
H89	H	1.593018	0.213594	0.685028
H90	H	0.916312	-0.005469	0.095309
C91	C	1.739289	0.066437	0.632748
H92	H	1.783584	0.044533	0.555622
H93	H	1.704586	0.031953	0.687661
H94	H	1.796735	0.089788	0.687450
C95	C	0.904356	-0.016060	-0.126638
H96	H	0.948493	-0.061906	-0.125510
H97	H	0.924938	0.007350	-0.209355
H98	H	0.815028	-0.019079	-0.123519
C99	C	1.566239	-0.029566	0.364676
H100	H	1.546284	-0.072963	0.401788
H101	H	1.649853	-0.021489	0.392617
H102	H	1.562150	-0.031073	0.266047
C103	C	0.850469	0.214957	-0.140314
H104	H	0.913029	0.247061	-0.143563
H105	H	0.798081	0.224336	-0.060678
H106	H	0.799307	0.219980	-0.221767
C107	C	1.663290	0.191103	0.364266
H108	H	1.596194	0.210948	0.305880
H109	H	1.740574	0.184911	0.312742
H110	H	1.672852	0.221571	0.440525
C111	C	1.345175	0.008346	0.635283
H112	H	1.306726	0.044011	0.694971
H113	H	1.360247	-0.034373	0.685505
H114	H	1.289850	0.002280	0.559275
H115	H	1.711167	0.079472	0.380494
C116	C	1.091930	0.219200	-0.138739
H117	H	1.142315	0.229272	-0.060849
H118	H	1.014013	0.249085	-0.137517
H119	H	1.137076	0.226726	-0.221967
H120	H	1.372296	0.017553	0.380883
H121	H	1.106595	0.116284	-0.230348
H122	H	0.889346	0.111977	-0.230877
