data_functionalizedCrystal
_audit_creation_method	'MofGen! by Chris Wilmer'
_symmetry_space_group_name_H-M	'P1'
_symmetry_Int_Tables_number	1
_symmetry_cell_setting	triclinic
loop_
_symmetry_equiv_pos_as_xyz
  x,y,z
_cell_length_a	14.044220
_cell_length_b	18.266242
_cell_length_c	14.044220
_cell_angle_alpha	89.993114
_cell_angle_beta	86.811122
_cell_angle_gamma	90.003954
loop_
_atom_site_label
_atom_site_type_symbol
_atom_site_fract_x
_atom_site_fract_y
_atom_site_fract_z
O1	O	1.277174	0.060806	-0.230170
O2	O	1.000503	0.060824	-0.221864
O3	O	1.134686	0.060808	-0.087681
O4	O	1.142991	0.060822	-0.364352
O5	O	1.134660	-0.060954	-0.087671
O6	O	1.000477	-0.060938	-0.221854
O7	O	1.277149	-0.060956	-0.230160
Zn8	Zn	1.138809	-0.080279	-0.226006
Zn9	Zn	1.138843	0.080148	-0.226018
O10	O	1.142966	-0.060940	-0.364343
C11	C	0.964868	-0.000054	-0.218223
C12	C	0.858725	-0.000047	-0.207379
N13	N	1.138793	-0.189766	-0.225997
C14	C	0.664388	-0.000063	-0.187553
C15	C	0.613258	-0.000062	-0.264467
C16	C	0.505122	-0.000071	-0.253435
C17	C	0.772534	-0.000054	-0.198583
C18	C	1.198233	-0.228082	-0.166614
C19	C	1.198239	-0.304727	-0.166610
C20	C	1.138815	-0.343053	-0.226006
C21	C	1.079363	-0.304728	-0.285393
C22	C	1.079352	-0.228084	-0.285388
N23	N	1.133806	-0.463381	-0.309456
N24	N	1.133822	-0.536189	-0.309458
C25	C	1.138843	-0.573975	-0.226022
N26	N	1.143866	-0.536203	-0.142584
N27	N	1.143855	-0.463389	-0.142583
C28	C	1.138820	-0.426160	-0.226017
C29	C	1.198292	-0.695399	-0.166630
C30	C	1.198291	-0.772045	-0.166625
C31	C	1.079420	-0.772044	-0.285416
C32	C	1.079416	-0.695399	-0.285413
C33	C	1.138857	-0.657081	-0.226022
C34	C	1.312783	-0.000076	-0.233800
C35	C	1.418926	-0.000078	-0.244645
C36	C	1.131037	-0.000073	-0.052054
C37	C	1.120193	-0.000073	0.054088
N38	N	1.138865	0.189634	-0.226020
C39	C	1.146614	-0.000057	-0.399969
C40	C	1.157459	-0.000052	-0.506112
C41	C	1.100366	-0.000061	0.248426
C42	C	1.177281	-0.000064	0.299556
C43	C	1.166249	-0.000057	0.407692
C44	C	1.111397	-0.000068	0.140280
H45	H	0.626951	-0.000071	-0.113425
N46	N	1.015304	-0.654074	-0.349468
H47	H	1.032025	-0.667401	-0.418164
H48	H	1.024336	-0.599718	-0.340374
H49	H	1.030947	-0.196887	-0.333745
H50	H	1.026239	-0.000054	0.285863
H51	H	1.246691	-0.803242	-0.118263
H52	H	1.246690	-0.664199	-0.118267
N53	N	1.262338	-0.186753	-0.102556
H54	H	1.299994	-0.222661	-0.064936
H55	H	1.222218	-0.154966	-0.057233
N56	N	1.262349	-0.346066	-0.102557
H57	H	1.300000	-0.310162	-0.064932
H58	H	1.307643	-0.377854	-0.142710
H59	H	1.030977	-0.335936	-0.333752
H60	H	0.650697	-0.000055	-0.338600
N61	N	1.015318	-0.813370	-0.349472
H62	H	1.024341	-0.867738	-0.340463
H63	H	1.032065	-0.799964	-0.418140
H64	H	1.251414	-0.000020	0.262117
