data_functionalizedCrystal
_audit_creation_method	'MofGen! by Chris Wilmer'
_symmetry_space_group_name_H-M	'P1'
_symmetry_Int_Tables_number	1
_symmetry_cell_setting	triclinic
loop_
_symmetry_equiv_pos_as_xyz
  x,y,z
_cell_length_a	22.010155
_cell_length_b	14.853567
_cell_length_c	14.853567
_cell_angle_alpha	83.634930
_cell_angle_beta	90.008054
_cell_angle_gamma	89.994498
loop_
_atom_site_label
_atom_site_type_symbol
_atom_site_fract_x
_atom_site_fract_y
_atom_site_fract_z
O1	O	0.050478	-1.196371	-0.117692
O2	O	0.050488	-0.933912	-0.131713
O3	O	0.050484	-1.072152	0.006527
O4	O	0.050481	-1.058131	-0.255932
O5	O	-0.050566	-1.072127	0.006507
O6	O	-0.050563	-0.933887	-0.131734
O7	O	-0.050572	-1.196346	-0.117712
Cu8	Cu	-0.059794	-1.065114	-0.124725
Cu9	Cu	0.059710	-1.065144	-0.124700
O10	O	-0.050569	-1.058106	-0.255953
C11	C	-0.000036	-0.900311	-0.131088
C12	C	-0.000032	-0.800227	-0.129184
C13	C	-0.000039	-1.071504	0.040106
C14	C	-0.000034	-1.069601	0.140189
N15	N	-0.143847	-1.065100	-0.124742
C16	C	-0.563627	-1.126360	-0.063496
C17	C	-0.627235	-1.126365	-0.063490
O18	O	-0.660128	-1.178414	-0.011429
N19	N	-0.659054	-1.065143	-0.124682
C20	C	-0.627261	-1.003908	-0.185877
O21	O	-0.660166	-0.951834	-0.237924
C22	C	-0.563655	-1.003900	-0.185878
C23	C	-0.531840	-1.065131	-0.124689
C24	C	-0.531812	-1.187586	-0.002311
C25	C	-0.468209	-1.187583	-0.002319
C26	C	-0.436421	-1.126354	-0.063511
C27	C	-0.468236	-1.065128	-0.124696
C28	C	-0.531864	-0.942661	-0.247069
C29	C	-0.468253	-0.942658	-0.247064
C30	C	-0.436438	-1.003889	-0.185875
C31	C	-0.372845	-1.003896	-0.185897
N32	N	-0.341027	-1.065117	-0.124705
C33	C	-0.372815	-1.126346	-0.063513
C34	C	-0.760839	-1.003928	-0.185869
C35	C	-0.824445	-1.003939	-0.185873
C36	C	-0.824414	-1.126395	-0.063485
C37	C	-0.760807	-1.126387	-0.063486
C38	C	-0.729021	-1.065149	-0.124678
C39	C	-0.239243	-1.126335	-0.063534
C40	C	-0.175634	-1.126329	-0.063549
C41	C	-0.175671	-1.003870	-0.185934
C42	C	-0.239274	-1.003879	-0.185922
C43	C	-0.271059	-1.065115	-0.124714
O44	O	-0.339912	-0.951870	-0.237929
O45	O	-0.339902	-1.178403	-0.011466
N46	N	0.143762	-1.065165	-0.124677
C47	C	-0.000047	-1.229947	-0.118337
C48	C	-0.000047	-1.330031	-0.120241
C49	C	-0.000045	-0.387693	-0.039019
C50	C	-0.000046	-0.366412	-0.203251
C51	C	-0.000044	-0.460446	-0.205042
C52	C	-0.000041	-0.518108	-0.123819
C53	C	-0.000041	-0.481736	-0.040806
C54	C	-0.000039	-0.496825	-0.288053
C55	C	-0.000036	-0.590864	-0.289846
C56	C	-0.000038	-0.648528	-0.208623
C57	C	-0.000038	-0.612150	-0.125607
C58	C	-0.000035	-0.669812	-0.044384
C59	C	-0.000040	-0.633437	0.038633
C60	C	-0.000043	-0.539399	0.040417
C61	C	-0.000035	-0.742565	-0.210407
C62	C	-0.000031	-0.763855	-0.046172
C63	C	-0.000044	-1.058754	-0.289531
C64	C	-0.000046	-1.060657	-0.389615
C65	C	-0.000042	-0.979435	0.552723
C66	C	-0.000048	-1.143668	0.574004
C67	C	-0.000044	-1.145458	0.479970
C68	C	-0.000040	-1.064235	0.422309
C69	C	-0.000040	-0.981223	0.458680
C70	C	-0.000051	-1.228469	0.443591
C71	C	-0.000048	-1.230262	0.349552
C72	C	-0.000040	-1.149039	0.291889
C73	C	-0.000039	-1.066023	0.328266
C74	C	-0.000035	-0.984800	0.270604
C75	C	-0.000030	-0.901783	0.306979
C76	C	-0.000032	-0.899999	0.401017
C77	C	-0.000037	-1.150823	0.197851
C78	C	-0.000033	-0.986588	0.176561
H79	H	-0.265115	-1.176198	-0.013692
H80	H	-0.557759	-0.892801	-0.296894
N81	N	-0.726494	-1.192428	0.002510
H82	H	-0.756289	-1.231216	0.041271
H83	H	-0.700105	-1.157868	0.042435
N84	N	-0.000044	-0.304226	-0.290852
H85	H	0.037416	-0.264742	-0.293758
H86	H	-0.037528	-0.264787	-0.293725
N87	N	-0.000046	-1.319801	0.310331
H88	H	0.037416	-1.324212	0.271804
H89	H	-0.037527	-1.324147	0.271821
H90	H	-0.149779	-0.954021	-0.235759
N91	N	-0.000066	-1.316068	0.505780
H92	H	-0.000065	-1.302337	0.570871
H93	H	0.037390	-1.352258	0.494004
N94	N	-0.858709	-1.192438	0.002513
H95	H	-0.847638	-1.256431	-0.007995
H96	H	-0.903818	-1.183063	-0.006816
N97	N	-0.000032	-0.695632	0.126236
H98	H	-0.000027	-0.760722	0.112500
H99	H	-0.037495	-0.683848	0.162399
H100	H	-0.442376	-0.892788	-0.296893
H101	H	-0.265179	-0.954028	-0.235757
N102	N	-0.000029	-0.810466	0.440249
H103	H	-0.000034	-0.821661	0.508571
H104	H	-0.037488	-0.774912	0.419152
N105	N	-0.000050	-1.240350	0.158615
H106	H	-0.000056	-1.291533	0.209413
H107	H	0.037412	-1.244685	0.120074
N108	N	-0.000052	-1.231262	0.636201
H109	H	0.037408	-1.267482	0.624503
H110	H	-0.037536	-1.267396	0.624451
H111	H	-0.850344	-0.954088	-0.235708
H112	H	-0.000061	-0.509774	0.108005
H113	H	-0.000035	-0.911844	0.582344
H114	H	-0.000051	-0.358072	0.028572
N115	N	-0.000027	-0.814189	0.244771
H116	H	0.037434	-0.777982	0.256480
H117	H	-0.037510	-0.778036	0.256499
H118	H	-0.000032	-0.620472	-0.357443
H119	H	-0.000032	-0.772178	-0.277998
H120	H	-0.442308	-1.237440	0.047509
N121	N	-0.141319	-1.192376	0.002448
H122	H	-0.171112	-1.231161	0.041214
H123	H	-0.114925	-1.157817	0.042367
H124	H	-0.734962	-0.954062	-0.235706
H125	H	-0.000034	-0.449870	-0.354180
N126	N	-0.566091	-1.253645	0.063681
H127	H	-0.536276	-1.292429	0.102430
H128	H	-0.592472	-1.293541	0.029077
N129	N	-0.000024	-0.898982	0.114371
H130	H	-0.000020	-0.846125	0.151686
H131	H	-0.037485	-0.896133	0.074882
H132	H	-0.000032	-0.810798	0.019971
