data_functionalizedCrystal
_audit_creation_method	'MofGen! by Chris Wilmer'
_symmetry_space_group_name_H-M	'P1'
_symmetry_Int_Tables_number	1
_symmetry_cell_setting	triclinic
loop_
_symmetry_equiv_pos_as_xyz
  x,y,z
_cell_length_a	14.519709
_cell_length_b	9.730223
_cell_length_c	10.654551
_cell_angle_alpha	90.000032
_cell_angle_beta	84.082753
_cell_angle_gamma	90.000056
loop_
_atom_site_label
_atom_site_type_symbol
_atom_site_fract_x
_atom_site_fract_y
_atom_site_fract_z
O1	O	1.224723	0.114102	0.164619
O2	O	1.724723	0.614102	0.664619
O3	O	0.956347	0.114143	0.184006
O4	O	1.456347	0.614143	0.684006
O5	O	1.096705	0.114122	-0.008486
O6	O	1.596705	0.614122	0.491514
O7	O	1.084365	0.114123	0.357111
O8	O	1.584365	0.614123	0.857111
O9	O	1.096689	-0.114458	-0.008485
O10	O	1.596689	0.385542	0.491515
O11	O	0.956331	-0.114437	0.184007
O12	O	1.456331	0.385563	0.684007
O13	O	1.224707	-0.114478	0.164621
O14	O	1.724707	0.385522	0.664621
Zn15	Zn	1.090517	-0.150749	0.174314
Zn16	Zn	1.590517	0.349251	0.674314
Zn17	Zn	1.090538	0.150414	0.174312
Zn18	Zn	1.590538	0.650414	0.674312
O19	O	1.084349	-0.114457	0.357112
O20	O	1.584349	0.385543	0.857112
C21	C	0.921975	-0.000142	0.183103
C22	C	1.421975	0.499858	0.683103
C23	C	0.819579	-0.000126	0.180396
C24	C	1.319579	0.499874	0.680396
N25	N	1.090509	-0.356286	0.174315
N26	N	1.590509	0.143714	0.674315
C27	C	1.146959	-0.572097	0.250641
C28	C	1.646959	-0.072097	0.750641
C29	C	1.146935	-0.428214	0.250651
C30	C	1.646935	0.071786	0.750651
C31	C	1.034097	-0.428248	0.097973
C32	C	1.534097	0.071752	0.597973
C33	C	1.034116	-0.572129	0.097970
C34	C	1.534116	-0.072129	0.597970
C35	C	1.203395	-0.644017	0.326972
C36	C	1.703395	-0.144017	0.826972
C37	C	1.259807	-0.572065	0.403316
C38	C	1.759807	-0.072065	0.903316
C39	C	1.259783	-0.428182	0.403326
C40	C	1.759783	0.071818	0.903326
C41	C	1.203347	-0.356251	0.326993
C42	C	1.703347	0.143749	0.826993
C43	C	0.444632	-0.000188	0.170428
C44	C	0.944632	0.499812	0.670428
C45	C	0.548954	-0.000170	0.173196
C46	C	1.048954	0.499830	0.673196
C47	C	0.632102	-0.000156	0.175412
C48	C	1.132102	0.499844	0.675412
C49	C	0.736431	-0.000140	0.178180
C50	C	1.236431	0.499860	0.678180
C51	C	1.259080	-0.000190	0.165523
C52	C	1.759080	0.499810	0.665523
C53	C	1.361475	-0.000197	0.168231
C54	C	1.861475	0.499803	0.668231
C55	C	1.095791	-0.000164	-0.055275
C56	C	1.595791	0.499836	0.444725
C57	C	1.093079	-0.000155	-0.194692
C58	C	1.593079	0.499845	0.305308
N59	N	1.090553	0.355951	0.174302
N60	N	1.590553	0.855951	0.674302
C61	C	1.091816	0.124442	-0.260192
C62	C	1.591816	0.624442	0.239808
C63	C	1.089261	0.124436	-0.391188
C64	C	1.589261	0.624436	0.108812
C65	C	1.089236	-0.124774	-0.391172
C66	C	1.589236	0.375226	0.108828
C67	C	1.091785	-0.124767	-0.260177
C68	C	1.591785	0.375233	0.239823
C69	C	1.093111	0.249054	-0.194706
C70	C	1.593111	0.749054	0.305294
C71	C	1.091849	0.373661	-0.260207
C72	C	1.591849	0.873661	0.239793
C73	C	1.089293	0.373655	-0.391203
C74	C	1.589293	0.873655	0.108797
C75	C	1.088000	0.249042	-0.456698
C76	C	1.588000	0.749042	0.043302
C77	C	1.085264	-0.000167	0.403901
C78	C	1.585264	0.499833	0.903901
C79	C	1.087975	-0.000168	0.543318
C80	C	1.587975	0.499832	1.043318
H81	H	1.203423	-0.761174	0.326969
H82	H	1.703423	-0.261174	0.826969
Cl83	Cl	1.087612	-0.281419	-0.473510
Cl84	Cl	1.587612	0.218581	0.026490
Cl85	Cl	1.087697	0.530300	-0.473542
Cl86	Cl	1.587697	1.030300	0.026458
Cl87	Cl	1.093378	-0.281406	-0.177828
Cl88	Cl	1.593378	0.218594	0.322172
H89	H	1.305709	-0.369602	0.465498
H90	H	1.805709	0.130398	0.965498
H91	H	1.203324	-0.239092	0.327019
H92	H	1.703324	0.260908	0.827019
Cl93	Cl	1.330740	-0.662488	0.499286
Cl94	Cl	1.830740	-0.162488	0.999286
Cl95	Cl	0.963158	-0.337820	0.002013
Cl96	Cl	1.463158	0.162180	0.502013
H97	H	1.095195	0.249073	-0.088044
H98	H	1.595195	0.749073	0.411956
Cl99	Cl	0.963203	-0.662590	0.002002
Cl100	Cl	1.463203	-0.162590	0.502002
Cl101	Cl	1.093472	0.530307	-0.177873
Cl102	Cl	1.593472	1.030307	0.322127
H103	H	1.085906	0.249048	-0.563361
H104	H	1.585906	0.749048	-0.063361
