data_functionalizedCrystal
_audit_creation_method	'MofGen! by Chris Wilmer'
_symmetry_space_group_name_H-M	'P1'
_symmetry_Int_Tables_number	1
_symmetry_cell_setting	triclinic
loop_
_symmetry_equiv_pos_as_xyz
  x,y,z
_cell_length_a	16.109301
_cell_length_b	16.109301
_cell_length_c	7.540329
_cell_angle_alpha	89.996399
_cell_angle_beta	89.999760
_cell_angle_gamma	83.461532
loop_
_atom_site_label
_atom_site_type_symbol
_atom_site_fract_x
_atom_site_fract_y
_atom_site_fract_z
O1	O	1.103130	0.106866	-0.147370
O2	O	1.436464	0.440199	0.185963
O3	O	1.769797	0.773533	0.519296
O4	O	0.861068	0.120165	-0.147399
O5	O	1.194402	0.453499	0.185935
O6	O	1.527735	0.786832	0.519268
O7	O	0.988749	-0.007515	-0.147372
O8	O	1.322082	0.325818	0.185961
O9	O	1.655415	0.659151	0.519295
O10	O	0.975450	0.234547	-0.147397
O11	O	1.308783	0.567880	0.185936
O12	O	1.642116	0.901213	0.519270
O13	O	0.988741	-0.007517	0.147593
O14	O	1.322075	0.325816	0.480926
O15	O	1.655408	0.659150	0.814260
O16	O	0.861061	0.120164	0.147567
O17	O	1.194394	0.453497	0.480900
O18	O	1.527727	0.786830	0.814233
O19	O	1.103123	0.106864	0.147595
O20	O	1.436456	0.440198	0.480928
O21	O	1.769789	0.773531	0.814261
Cu22	Cu	0.982091	0.113514	0.174513
Cu23	Cu	1.315424	0.446847	0.507847
Cu24	Cu	1.648758	0.780181	0.841180
Cu25	Cu	0.982100	0.113516	-0.174317
Cu26	Cu	1.315433	0.446849	0.159016
Cu27	Cu	1.648767	0.780182	0.492350
O28	O	0.975442	0.234545	0.147568
O29	O	1.308775	0.567878	0.480901
O30	O	1.642109	0.901212	0.814235
C31	C	0.830090	0.119626	0.000080
C32	C	1.163423	0.452959	0.333414
C33	C	1.496756	0.786292	0.666747
C34	C	0.737794	0.118011	0.000070
C35	C	1.071128	0.451344	0.333403
C36	C	1.404461	0.784677	0.666737
C37	C	0.515522	0.190018	0.000083
C38	C	0.848855	0.523352	0.333416
C39	C	1.182189	0.856685	0.666750
C40	C	0.428802	0.188494	0.000095
C41	C	0.762135	0.521828	0.333428
C42	C	1.095468	0.855161	0.666761
C43	C	0.448676	0.037006	0.000103
C44	C	0.782009	0.370339	0.333436
C45	C	1.115342	0.703672	0.666770
C46	C	0.535395	0.038530	0.000104
C47	C	0.868728	0.371864	0.333437
C48	C	1.202061	0.705197	0.666771
C49	C	0.568815	0.115039	0.000085
C50	C	0.902148	0.448373	0.333418
C51	C	1.235482	0.781706	0.666752
C52	C	0.395376	0.111990	0.000096
C53	C	0.728709	0.445324	0.333429
C54	C	1.062043	0.778657	0.666762
C55	C	0.301350	0.110337	0.000108
C56	C	0.634683	0.443671	0.333441
C57	C	0.968017	0.777004	0.666775
C58	C	0.662847	0.116693	0.000076
C59	C	0.996180	0.450026	0.333409
C60	C	1.329514	0.783359	0.666743
C61	C	0.988206	-0.038491	0.000110
C62	C	1.321540	0.294842	0.333443
C63	C	1.654873	0.628176	0.666776
C64	C	0.986591	-0.130786	0.000107
C65	C	1.319924	0.202547	0.333441
C66	C	1.653258	0.535880	0.666774
C67	C	1.057074	-0.439785	0.000085
C68	C	1.390408	-0.106451	0.333418
C69	C	1.723741	0.226882	0.666751
C70	C	1.058600	-0.353064	0.000095
C71	C	1.391933	-0.019731	0.333429
C72	C	1.725266	0.313602	0.666762
C73	C	0.907111	-0.333191	0.000101
C74	C	1.240444	0.000142	0.333435
C75	C	1.573777	0.333476	0.666768
C76	C	0.905586	-0.419910	0.000103
C77	C	1.238920	-0.086577	0.333437
C78	C	1.572253	0.246757	0.666770
C79	C	0.980571	-0.473205	0.000086
C80	C	1.313904	-0.139871	0.333420
C81	C	1.647237	0.193462	0.666753
C82	C	0.983620	-0.299766	0.000094
C83	C	1.316954	0.033568	0.333428
C84	C	1.650287	0.366901	0.666761
C85	C	0.985274	-0.205740	0.000106
C86	C	1.318607	0.127594	0.333439
C87	C	1.651940	0.460927	0.666772
C88	C	0.978917	-0.567237	0.000078
C89	C	1.312251	-0.233903	0.333412
C90	C	1.645584	0.099430	0.666745
C91	C	1.134101	0.107404	0.000112
C92	C	1.467435	0.440737	0.333445
C93	C	1.800768	0.774070	0.666778
C94	C	1.226397	0.109019	0.000111
C95	C	1.559730	0.442352	0.333444
C96	C	1.893063	0.775686	0.666777
C97	C	0.975985	0.265521	0.000083
C98	C	1.309318	0.598854	0.333416
C99	C	1.642651	0.932187	0.666749
C100	C	0.977600	0.357816	0.000073
C101	C	1.310933	0.691149	0.333407
C102	C	1.644267	1.024483	0.666740
N103	N	0.982091	0.113512	0.419862
N104	N	1.315424	0.446845	0.753195
N105	N	1.648757	0.780179	1.086528
N106	N	0.982107	0.113511	-0.419666
N107	N	1.315440	0.446844	-0.086332
N108	N	1.648773	0.780178	0.247001
H109	H	0.421454	-0.025285	0.000129
H110	H	0.754787	0.308048	0.333462
H111	H	1.088121	0.641381	0.666796
F112	F	0.592117	-0.041277	0.000118
F113	F	0.925450	0.292056	0.333451
F114	F	1.258784	0.625390	0.666785
F115	F	0.827312	-0.276464	0.000109
F116	F	1.160645	0.056869	0.333443
F117	F	1.493979	0.390202	0.666776
F118	F	0.372086	0.268297	0.000095
F119	F	0.705420	0.601631	0.333428
F120	F	1.038753	0.934964	0.666762
H121	H	1.118131	-0.483175	0.000071
H122	H	1.451465	-0.149842	0.333404
H123	H	1.784798	0.183491	0.666737
H124	H	1.120896	-0.325859	0.000097
H125	H	1.454230	0.007475	0.333430
H126	H	1.787563	0.340808	0.666764
H127	H	0.542730	0.252317	0.000081
H128	H	0.876063	0.585650	0.333414
H129	H	1.209396	0.918983	0.666748
F130	F	0.824156	-0.455480	0.000114
F131	F	1.157490	-0.122146	0.333448
F132	F	1.490823	0.211187	0.666781
