data_functionalizedCrystal
_audit_creation_method	'MofGen! by Chris Wilmer'
_symmetry_space_group_name_H-M	'P1'
_symmetry_Int_Tables_number	1
_symmetry_cell_setting	triclinic
loop_
_symmetry_equiv_pos_as_xyz
  x,y,z
_cell_length_a	14.395555
_cell_length_b	14.395555
_cell_length_c	14.395555
_cell_angle_alpha	60.000749
_cell_angle_beta	90.002623
_cell_angle_gamma	60.001260
loop_
_atom_site_label
_atom_site_type_symbol
_atom_site_fract_x
_atom_site_fract_y
_atom_site_fract_z
Zr1	Zr	0.894946	1.016746	-0.121871
O2	O	0.746622	1.210542	-0.270205
O3	O	0.940411	0.822950	-0.076396
O4	O	0.940418	1.016737	-0.270192
O5	O	0.746614	1.016762	0.076458
O6	O	1.093292	1.016730	-0.270184
O7	O	0.746615	1.016755	-0.076409
O8	O	1.093279	0.670081	0.076482
O9	O	0.746627	1.363411	-0.270207
O10	O	1.073894	0.902656	-0.056998
O11	O	0.959805	0.902666	0.057079
O12	O	0.959814	1.130826	-0.171091
O13	O	0.845725	1.130836	-0.057014
Zr14	Zr	1.138760	1.016746	0.121948
Zr15	Zr	1.138762	1.016735	-0.121858
Zr16	Zr	0.894944	1.016757	0.121935
Zr17	Zr	0.894953	1.260555	-0.121874
Zr18	Zr	1.138753	0.772937	0.121952
O19	O	1.093295	1.210542	0.076473
O20	O	1.093298	1.210526	-0.270187
O21	O	0.746620	1.210557	0.076455
O22	O	1.287084	0.822950	0.270283
O23	O	1.287086	0.822935	-0.076378
O24	O	0.940408	0.822966	0.270264
O25	O	1.287092	1.016730	-0.076380
O26	O	1.093288	1.016755	0.270269
O27	O	0.940414	1.016762	0.270261
O28	O	1.287091	1.016737	0.076487
O29	O	0.940428	1.363403	-0.270197
O30	O	1.093278	0.670089	0.270275
O31	O	1.287079	0.670081	0.270285
O32	O	1.287081	0.670072	0.076492
O33	O	0.746625	1.363420	-0.076414
O34	O	0.940427	1.363411	-0.076404
O35	O	1.073892	0.902666	0.171168
O36	O	1.187982	0.902656	0.057091
O37	O	1.073901	1.130826	-0.057002
O38	O	0.959812	1.130836	0.057076
C39	C	1.016844	0.711778	0.000043
C40	C	1.016841	0.608274	0.000045
C41	C	0.954638	0.547688	0.062248
C42	C	0.909556	0.561941	-0.045029
C43	C	1.061895	0.409625	0.107290
C44	C	0.971697	0.623954	-0.107296
C45	C	1.124095	0.471575	0.045100
C46	C	1.079040	0.485875	-0.062241
C47	C	0.711876	1.016760	0.000023
C48	C	0.608369	1.016764	0.000017
C49	C	0.485579	1.141173	-0.062181
C50	C	0.454742	1.078977	-0.107255
C51	C	0.454783	1.078955	0.045082
C52	C	0.578896	0.954568	-0.045119
C53	C	0.578934	0.954564	0.107278
C54	C	0.548170	0.892278	0.062231
C55	C	1.321830	1.016732	0.000055
C56	C	1.425337	1.016728	0.000060
C57	C	1.016855	1.016732	-0.304925
C58	C	1.016856	1.016728	-0.408427
C59	C	1.016862	1.321714	0.000034
C60	C	1.016865	1.425218	0.000033
C61	C	1.079063	0.892319	-0.406807
C62	C	0.971789	0.954515	-0.499835
C63	C	1.124104	0.954537	-0.499827
C64	C	0.909518	1.078924	-0.500092
C65	C	1.061911	1.078928	-0.500069
C66	C	0.954572	1.141214	-0.593115
C67	C	1.016851	1.016760	0.305002
C68	C	1.016850	1.016764	0.408504
C69	C	1.321821	0.711764	0.000060
C70	C	1.425325	0.608256	0.000067
C71	C	1.016842	0.711792	0.305007
C72	C	1.016838	0.608293	0.408510
C73	C	1.321819	0.711778	0.305023
C74	C	1.425322	0.608274	0.408532
C75	C	0.711887	1.321714	-0.304946
C76	C	0.608384	1.425218	-0.408455
C77	C	0.711885	1.321728	0.000018
C78	C	0.608381	1.425236	0.000011
C79	C	1.016864	1.321700	-0.304929
C80	C	1.016868	1.425199	-0.408433
C81	C	1.548117	0.547697	0.062244
C82	C	1.578974	0.409590	0.107299
C83	C	1.578885	0.561988	-0.045040
C84	C	1.454818	0.471449	0.045186
C85	C	1.454733	0.623920	-0.107214
C86	C	1.485516	0.485822	-0.062185
C87	C	0.954628	0.547711	0.406894
C88	C	1.061903	0.409609	0.499919
C89	C	0.909593	0.561948	0.499916
C90	C	1.124176	0.471491	0.500173
C91	C	0.971788	0.623905	0.500155
C92	C	1.079128	0.485812	0.593198
C93	C	1.423704	0.547671	0.531322
C94	C	1.516691	0.409573	0.562122
C95	C	1.516764	0.561844	0.562159
C96	C	1.516946	0.471477	0.437969
C97	C	1.517004	0.623822	0.438009
C98	C	1.610009	0.485734	0.468736
H99	H	0.933498	0.715518	-0.198039
C100	C	0.883667	0.584314	0.299141
H101	H	0.822295	0.674778	0.255608
H102	H	0.930360	0.567919	0.255013
H103	H	0.854551	0.532833	0.320331
H104	H	1.401200	0.715581	-0.197877
H105	H	1.573559	0.574769	0.114931
H106	H	1.100018	0.317987	0.500849
C107	C	0.382531	1.150005	0.096566
H108	H	0.359534	1.238391	0.052271
H109	H	0.317154	1.148796	0.096868
H110	H	0.426351	1.106672	0.172321
H111	H	1.632510	0.317952	0.197982
C112	C	1.150096	0.449458	-0.133404
H113	H	1.117927	0.524942	-0.209557
H114	H	1.225951	0.418011	-0.102053
H115	H	1.150222	0.382966	-0.132523
H116	H	0.401226	1.131554	-0.197947
C117	C	0.883409	1.283436	-0.700697
H118	H	0.807256	1.327419	-0.701370
H119	H	0.914757	1.327941	-0.700792
H120	H	0.884292	1.282682	-0.766309
C121	C	0.650962	0.883590	-0.096731
H122	H	0.614849	0.853918	-0.118219
H123	H	0.658210	0.942537	-0.161819
H124	H	0.724286	0.810507	-0.041981
H125	H	1.131581	0.787124	-0.327043
C126	C	1.246636	0.883487	-0.501034
H127	H	1.290729	0.795101	-0.435644
H128	H	1.245724	0.884696	-0.567620
H129	H	1.279060	0.926820	-0.500552
H130	H	1.459859	0.458804	-0.114797
H131	H	0.818896	0.599126	0.500826
H132	H	1.401479	0.434035	0.083394
C133	C	1.515804	0.421015	0.365859
H134	H	1.581568	0.333735	0.401955
H135	H	1.449587	0.422165	0.358591
H136	H	1.515573	0.476010	0.292543
C137	C	1.651132	0.612280	-0.096524
H138	H	1.674139	0.633359	-0.052219
H139	H	1.716503	0.546002	-0.096836
H140	H	1.607311	0.688527	-0.172275
H141	H	1.343944	0.574771	0.556757
H142	H	1.214768	0.434406	0.083246
H143	H	1.214919	0.434112	0.499354
H144	H	1.131814	0.458784	0.672829
H145	H	0.933645	0.715560	0.499166
H146	H	0.632446	0.902032	0.197950
H147	H	1.689639	0.458688	0.443084
C148	C	1.518036	0.612038	0.634474
H149	H	1.583939	0.611577	0.641212
H150	H	1.451965	0.699015	0.598847
H151	H	1.519005	0.556462	0.707993
C152	C	0.787044	0.612168	-0.096529
H153	H	0.780772	0.611739	-0.161989
H154	H	0.769073	0.556618	-0.041947
H155	H	0.735704	0.699155	-0.117438
C156	C	1.113436	1.149888	-0.498736
H157	H	1.189683	1.105546	-0.497730
H158	H	1.070023	1.237816	-0.564800
H159	H	1.112418	1.150048	-0.432830
H160	H	1.516060	0.715451	0.384529
C161	C	0.920302	0.883492	-0.501108
H162	H	0.964590	0.795095	-0.435736
H163	H	0.844539	0.926826	-0.500662
H164	H	0.920039	0.884714	-0.567705
H165	H	0.901964	0.574918	0.114773
H166	H	1.517592	0.317968	0.615605
H167	H	1.099988	0.318019	0.197990
H168	H	0.460139	1.246371	-0.114861
C169	C	0.582810	0.750057	0.133292
H170	H	0.626118	0.706073	0.101122
H171	H	0.627225	0.705550	0.209146
H172	H	0.516444	0.750812	0.133425
H173	H	0.818775	1.131468	-0.499276
