data_functionalizedCrystal
_audit_creation_method	'MofGen! by Chris Wilmer'
_symmetry_space_group_name_H-M	'P1'
_symmetry_Int_Tables_number	1
_symmetry_cell_setting	triclinic
loop_
_symmetry_equiv_pos_as_xyz
  x,y,z
_cell_length_a	11.169417
_cell_length_b	16.120444
_cell_length_c	11.169409
_cell_angle_alpha	87.138527
_cell_angle_beta	90.019513
_cell_angle_gamma	92.927659
loop_
_atom_site_label
_atom_site_type_symbol
_atom_site_fract_x
_atom_site_fract_y
_atom_site_fract_z
Zn1	Zn	1.810608	-0.331811	0.702701
Zn2	Zn	1.800262	-0.471255	0.512175
Zn3	Zn	1.609890	-0.331863	0.502040
Zn4	Zn	1.599671	-0.471188	0.712816
O5	O	1.705108	-0.401529	0.607433
O6	O	1.977185	-0.350315	0.677436
O7	O	1.774956	-0.452814	0.342884
O8	O	1.645122	-0.215191	0.520184
O9	O	1.969584	-0.452764	0.537457
O10	O	1.792588	-0.215153	0.667609
O11	O	1.635090	-0.350403	0.335438
O12	O	1.440585	-0.350339	0.529992
O13	O	1.627705	-0.452650	0.879420
O14	O	1.433077	-0.452700	0.684848
O15	O	1.782680	-0.350250	0.871989
O16	O	1.765047	-0.587912	0.547264
O17	O	1.617674	-0.587863	0.694675
C18	C	1.393284	-0.401518	0.607418
C19	C	1.259883	-0.401533	0.607442
C20	C	1.689161	-0.618137	0.623193
C21	C	1.682449	-0.710803	0.629975
C22	C	1.740221	-0.921749	0.572507
C23	C	1.670217	-0.880459	0.642371
C24	C	1.677025	-0.786054	0.635472
C25	C	1.733414	-1.016163	0.579405
C26	C	2.018149	-0.401541	0.607448
C27	C	2.151549	-0.401546	0.607455
C28	C	1.705207	-0.401437	0.920469
C29	C	1.705249	-0.401397	1.053866
C30	C	1.721149	-0.184076	0.591638
C31	C	1.727985	-0.091410	0.584907
C32	C	1.705083	-0.401562	0.295611
C33	C	1.705290	-0.401366	0.162197
H34	H	1.605171	-0.916010	0.707364
C35	C	1.828079	-0.873723	0.484700
N36	N	1.894248	-0.837540	0.418560
