data_functionalizedCrystal
_audit_creation_method	'MofGen! by Chris Wilmer'
_symmetry_space_group_name_H-M	'P1'
_symmetry_Int_Tables_number	1
_symmetry_cell_setting	triclinic
loop_
_symmetry_equiv_pos_as_xyz
  x,y,z
_cell_length_a	19.188930
_cell_length_b	11.792241
_cell_length_c	10.268362
_cell_angle_alpha	90.005428
_cell_angle_beta	89.981535
_cell_angle_gamma	96.330902
loop_
_atom_site_label
_atom_site_type_symbol
_atom_site_fract_x
_atom_site_fract_y
_atom_site_fract_z
O1	O	0.926947	-0.141694	-0.108720
O2	O	1.426947	0.358306	0.391280
O3	O	0.723744	-0.160769	-0.108631
O4	O	1.223744	0.339231	0.391369
O5	O	0.830277	0.014013	-0.108668
O6	O	1.330277	0.514013	0.391332
O7	O	0.820415	-0.316476	-0.108682
O8	O	1.320415	0.183524	0.391318
O9	O	0.830268	0.014020	0.107932
O10	O	1.330268	0.514020	0.607932
O11	O	0.723735	-0.160762	0.107970
O12	O	1.223735	0.339238	0.607970
O13	O	0.926938	-0.141687	0.107881
O14	O	1.426938	0.358313	0.607881
Cu15	Cu	0.825336	-0.151224	0.127703
Cu16	Cu	1.325336	0.348776	0.627703
Cu17	Cu	0.825347	-0.151232	-0.128453
Cu18	Cu	1.325347	0.348768	0.371547
O19	O	0.820405	-0.316469	0.107919
O20	O	1.320405	0.183531	0.607919
C21	C	0.697725	-0.160148	-0.000319
C22	C	1.197725	0.339852	0.499681
C23	C	0.620210	-0.158293	-0.000285
C24	C	1.120210	0.341707	0.499715
C25	C	0.829653	0.056298	-0.000368
C26	C	1.329653	0.556298	0.499632
C27	C	0.827799	0.182284	-0.000368
C28	C	1.327799	0.682284	0.499632
C29	C	0.575867	-0.260849	-0.000309
C30	C	1.075867	0.239151	0.499691
C31	C	0.503033	-0.259107	-0.000324
C32	C	1.003033	0.240893	0.499676
C33	C	0.474546	-0.154803	-0.000339
C34	C	0.974546	0.345197	0.499661
C35	C	0.518899	-0.052234	-0.000307
C36	C	1.018899	0.447766	0.499693
C37	C	0.591731	-0.053979	-0.000280
C38	C	1.091731	0.446021	0.499720
N39	N	0.366117	-0.075079	-0.074107
N40	N	0.866117	0.424921	0.425893
N41	N	0.296929	-0.073428	-0.074136
N42	N	0.796929	0.426572	0.425864
C43	C	0.255107	-0.149540	-0.000419
C44	C	0.755107	0.350460	0.499581
N45	N	0.285086	-0.227382	0.073312
N46	N	0.785086	0.272618	0.573312
N47	N	0.354280	-0.229036	0.073335
N48	N	0.854280	0.270964	0.573335
C49	C	0.395573	-0.152900	-0.000368
C50	C	0.895573	0.347100	0.499632
C51	C	0.131789	-0.250214	-0.000457
C52	C	0.631789	0.249786	0.499543
C53	C	0.058955	-0.248468	-0.000463
C54	C	0.558955	0.251532	0.499537
C55	C	0.074822	-0.041591	-0.000460
C56	C	0.574822	0.458409	0.499540
C57	C	0.147655	-0.043341	-0.000440
C58	C	0.647655	0.456659	0.499560
C59	C	0.176134	-0.147655	-0.000445
C60	C	0.676134	0.352345	0.499555
C61	C	0.952957	-0.142309	-0.000434
C62	C	1.452957	0.357691	0.499566
C63	C	1.030472	-0.144163	-0.000477
C64	C	1.530472	0.355837	0.499523
C65	C	0.821029	-0.358754	-0.000385
C66	C	1.321029	0.141246	0.499615
C67	C	0.822884	-0.484740	-0.000393
C68	C	1.322884	0.015260	0.499607
N69	N	0.825333	-0.151217	0.307869
N70	N	1.325333	0.348783	0.807869
C71	C	0.824389	0.412945	-0.000389
C72	C	1.324389	0.912945	0.499611
C73	C	0.826283	0.284588	-0.000378
C74	C	1.326283	0.784588	0.499622
N75	N	0.825355	-0.151230	-0.308618
N76	N	1.325355	0.348770	0.191382
C77	C	0.825343	-0.151230	0.573539
C78	C	1.325343	0.348770	1.073539
C79	C	0.825335	-0.151226	0.425701
C80	C	1.325335	0.348774	0.925701
H81	H	0.466922	-0.342624	-0.000340
H82	H	0.966922	0.157376	0.499660
N83	N	0.606590	-0.373349	-0.000292
N84	N	1.106590	0.126651	0.499708
H85	H	0.636479	-0.378685	-0.080573
H86	H	1.136479	0.121315	0.419427
H87	H	0.567408	-0.437995	-0.000257
H88	H	1.067408	0.062005	0.499743
H89	H	0.495700	0.032691	-0.000338
H90	H	0.995700	0.532691	0.499662
N91	N	0.639563	0.056639	-0.000247
N92	N	1.139563	0.556639	0.499753
H93	H	0.610468	0.122983	-0.000253
H94	H	1.110468	0.622983	0.499747
H95	H	0.670149	0.060422	-0.080533
H96	H	1.170149	0.560422	0.419467
N97	N	0.195491	0.067270	-0.000439
N98	N	0.695491	0.567270	0.499561
H99	H	0.226041	0.071159	0.079866
H100	H	0.726041	0.571159	0.579866
H101	H	0.166350	0.133553	-0.000502
H102	H	0.666350	0.633553	0.499498
N103	N	0.011104	-0.359067	-0.000474
N104	N	0.511104	0.140933	0.499526
H105	H	-0.019482	-0.362925	0.079819
H106	H	0.480518	0.137075	0.579819
H107	H	0.040229	-0.425369	-0.000519
H108	H	0.540229	0.074631	0.499481
H109	H	0.154978	-0.335153	-0.000442
H110	H	0.654978	0.164847	0.499558
N111	N	0.044107	0.070911	-0.000462
N112	N	0.544107	0.570911	0.499538
H113	H	-0.008761	0.056457	-0.000478
H114	H	0.491239	0.556457	0.499522
H115	H	0.060322	0.115774	-0.080751
H116	H	0.560322	0.615774	0.419249
