data_functionalizedCrystal
_audit_creation_method	'MofGen! by Chris Wilmer'
_symmetry_space_group_name_H-M	'P1'
_symmetry_Int_Tables_number	1
_symmetry_cell_setting	triclinic
loop_
_symmetry_equiv_pos_as_xyz
  x,y,z
_cell_length_a	16.992694
_cell_length_b	10.723024
_cell_length_c	15.455313
_cell_angle_alpha	92.691723
_cell_angle_beta	87.142206
_cell_angle_gamma	87.568046
loop_
_atom_site_label
_atom_site_type_symbol
_atom_site_fract_x
_atom_site_fract_y
_atom_site_fract_z
O1	O	1.045219	0.259622	-0.072018
O2	O	0.816920	0.256716	-0.072044
O3	O	0.936335	0.077046	-0.072027
O4	O	0.925803	0.439291	-0.072035
O5	O	0.929506	0.087275	0.072234
O6	O	0.810091	0.266945	0.072217
O7	O	1.038390	0.269851	0.072243
Cu8	Cu	0.923617	0.269332	0.085402
Cu9	Cu	0.931693	0.257235	-0.085203
O10	O	0.918974	0.449520	0.072226
C11	C	0.784273	0.258094	0.000083
C12	C	0.697169	0.246945	0.000074
C13	C	0.647507	0.354505	0.000072
C14	C	0.565663	0.344024	0.000084
C15	C	0.533484	0.225982	0.000092
C16	C	0.583152	0.118414	0.000096
C17	C	0.664993	0.128896	0.000090
C18	C	0.289651	0.182535	0.000116
C19	C	0.207803	0.172061	0.000119
C20	C	0.190320	0.397673	0.000109
C21	C	0.272165	0.408144	0.000098
C22	C	0.321825	0.300577	0.000107
N23	N	0.449827	0.215266	0.000102
N24	N	0.405480	0.311295	0.000103
C25	C	0.932154	0.035595	0.000102
C26	C	0.929861	-0.103157	0.000099
C27	C	0.996680	-0.172386	0.000105
C28	C	0.994312	-0.315793	0.000102
C29	C	1.071037	0.268473	0.000114
C30	C	1.158141	0.279621	0.000118
C31	C	0.923155	0.490971	0.000095
C32	C	0.925449	0.629723	0.000093
N33	N	0.917942	0.277840	0.205397
N34	N	0.937374	0.248717	-0.205198
C35	C	0.968692	0.201542	0.250798
C36	C	0.964408	0.207989	0.341605
C37	C	0.909377	0.290741	0.387010
C38	C	0.858622	0.367042	0.341602
C39	C	0.862903	0.360588	0.250797
C40	C	0.890899	0.318564	0.658589
C41	C	0.886624	0.325015	0.749401
C42	C	0.992409	0.165960	0.749398
C43	C	0.996689	0.159518	0.658590
C44	C	0.945931	0.235815	0.613191
N45	N	0.904999	0.297335	0.479830
N46	N	0.950306	0.229213	0.520373
H47	H	0.525232	0.431612	0.000082
H48	H	0.298359	0.504266	0.000082
H49	H	1.051514	-0.375300	0.000111
C50	C	0.807081	0.444521	0.200855
H51	H	0.773698	0.494739	0.240900
H52	H	0.775855	0.393806	0.165441
H53	H	0.837254	0.496820	0.165424
H54	H	0.849571	0.380691	0.621632
H55	H	0.870902	-0.150057	0.000087
C56	C	0.547756	-0.011430	0.000103
H57	H	0.491902	-0.002271	0.000097
H58	H	0.562386	-0.052497	0.050409
H59	H	0.567138	-0.059625	-0.050211
H60	H	0.149878	0.485248	0.000104
C61	C	1.048232	0.082027	0.799335
H62	H	1.081622	0.031824	0.759287
H63	H	1.018063	0.029734	0.834767
H64	H	1.079464	0.132745	0.834748
C65	C	1.029226	0.110512	0.200861
H66	H	1.058831	0.065987	0.240909
H67	H	1.063793	0.156188	0.165427
H68	H	1.002391	0.053178	0.165450
H69	H	0.841809	0.392407	0.786365
H70	H	0.813811	0.434416	0.378576
H71	H	0.673701	0.450628	0.000065
H72	H	1.005732	0.145860	0.378571
C73	C	0.719625	0.010584	0.000091
H74	H	0.772975	0.033733	0.000095
H75	H	0.712181	-0.041056	-0.050212
H76	H	0.707429	-0.033907	0.050408
C77	C	1.057256	0.068552	0.608647
H78	H	1.052553	0.075664	0.548064
H79	H	1.047631	-0.014596	0.623514
H80	H	1.108970	0.088509	0.623543
C81	C	0.172407	0.042208	0.000129
H82	H	0.213703	-0.020354	0.000141
H83	H	0.143220	0.029862	-0.050177
H84	H	0.138467	0.037007	0.050443
H85	H	1.055640	-0.125486	0.000117
C86	C	0.344268	0.064215	0.000120
H87	H	0.313379	-0.007585	0.000116
H88	H	0.374182	0.067178	0.050425
H89	H	0.378932	0.060043	-0.050195
H90	H	0.868243	-0.310778	0.000093
