data_functionalizedCrystal
_audit_creation_method	'MofGen! by Chris Wilmer'
_symmetry_space_group_name_H-M	'P1'
_symmetry_Int_Tables_number	1
_symmetry_cell_setting	triclinic
loop_
_symmetry_equiv_pos_as_xyz
  x,y,z
_cell_length_a	26.210047
_cell_length_b	14.044220
_cell_length_c	14.044220
_cell_angle_alpha	93.188878
_cell_angle_beta	90.004027
_cell_angle_gamma	89.995121
loop_
_atom_site_label
_atom_site_type_symbol
_atom_site_fract_x
_atom_site_fract_y
_atom_site_fract_z
O1	O	0.042377	-1.277175	-0.230154
O2	O	0.542377	-0.777175	0.269846
O3	O	0.042390	-1.000503	-0.221849
O4	O	0.542390	-0.500503	0.278151
O5	O	0.042378	-1.134686	-0.087666
O6	O	0.542378	-0.634686	0.412334
O7	O	0.042388	-1.142992	-0.364337
O8	O	0.542388	-0.642992	0.135663
O9	O	-0.042480	-1.134660	-0.087686
O10	O	0.457520	-0.634660	0.412314
O11	O	-0.042468	-1.000477	-0.221869
O12	O	0.457532	-0.500477	0.278131
O13	O	-0.042481	-1.277148	-0.230175
O14	O	0.457519	-0.777148	0.269825
Cu15	Cu	-0.050223	-1.138810	-0.226024
Cu16	Cu	0.449777	-0.638810	0.273976
Cu17	Cu	0.050131	-1.138841	-0.226000
Cu18	Cu	0.550131	-0.638841	0.274000
O19	O	-0.042470	-1.142965	-0.364358
O20	O	0.457530	-0.642965	0.135642
C21	C	-0.000038	-0.964868	-0.218223
C22	C	0.499962	-0.464868	0.281777
C23	C	-0.000033	-0.858725	-0.207379
C24	C	0.499967	-0.358725	0.292621
N25	N	-0.120807	-1.138795	-0.226041
N26	N	0.379193	-0.638795	0.273959
C27	C	-0.000051	-1.131037	-0.052054
C28	C	0.499949	-0.631037	0.447946
C29	C	-0.000051	-1.120193	0.054088
C30	C	0.499949	-0.620193	0.554088
C31	C	-0.473326	-1.198252	-0.166598
C32	C	0.026674	-0.698252	0.333402
C33	C	-0.686985	-1.198272	-0.166586
C34	C	-0.186985	-0.698272	0.333414
O35	O	-0.714611	-1.248788	-0.116046
O36	O	-0.214611	-0.748788	0.383954
N37	N	-0.713701	-1.138845	-0.225979
N38	N	-0.213701	-0.638845	0.274021
C39	C	-0.686999	-1.079403	-0.285375
C40	C	-0.186999	-0.579403	0.214625
O41	O	-0.714626	-1.028850	-0.335885
O42	O	-0.214626	-0.528850	0.164115
C43	C	-0.473342	-1.079379	-0.285381
C44	C	0.026658	-0.579379	0.214619
C45	C	-0.446628	-1.138818	-0.225991
C46	C	0.053372	-0.638818	0.274009
C47	C	-0.446612	-1.257685	-0.107212
C48	C	0.053388	-0.757685	0.392788
C49	C	-0.393201	-1.257683	-0.107219
C50	C	0.106799	-0.757683	0.392781
C51	C	-0.366503	-1.198249	-0.166612
C52	C	0.133497	-0.698249	0.333388
C53	C	-0.393217	-1.138816	-0.225998
C54	C	0.106783	-0.638816	0.274002
C55	C	-0.446641	-1.019934	-0.344771
C56	C	0.053359	-0.519934	0.155229
C57	C	-0.393223	-1.019931	-0.344765
C58	C	0.106777	-0.519931	0.155235
C59	C	-0.366510	-1.079370	-0.285375
C60	C	0.133490	-0.579370	0.214625
C61	C	-0.313107	-1.079380	-0.285398
C62	C	0.186893	-0.579380	0.214602
N63	N	-0.286391	-1.138807	-0.226005
N64	N	0.213609	-0.638807	0.273995
C65	C	-0.313089	-1.198241	-0.166612
C66	C	0.186911	-0.698241	0.333388
C67	C	-0.799173	-1.079422	-0.285369
C68	C	-0.299173	-0.579422	0.214631
C69	C	-0.852587	-1.079429	-0.285369
C70	C	-0.352587	-0.579429	0.214631
C71	C	-0.852568	-1.198296	-0.166579
C72	C	-0.352568	-0.698296	0.333421
C73	C	-0.799153	-1.198293	-0.166584
C74	C	-0.299153	-0.698293	0.333416
C75	C	-0.772456	-1.138849	-0.225976
C76	C	-0.272456	-0.638849	0.274024
C77	C	-0.200921	-1.198234	-0.166633
C78	C	0.299079	-0.698234	0.333367
C79	C	-0.147505	-1.198230	-0.166648
C80	C	0.352495	-0.698230	0.333352
C81	C	-0.147528	-1.079359	-0.285434
C82	C	0.352472	-0.579359	0.214566
C83	C	-0.200939	-1.079366	-0.285423
C84	C	0.299061	-0.579366	0.214577
C85	C	-0.227635	-1.138807	-0.226014
C86	C	0.272365	-0.638807	0.273986
O87	O	-0.285448	-1.028882	-0.335904
O88	O	0.214552	-0.528882	0.164096
O89	O	-0.285453	-1.248772	-0.116094
O90	O	0.214547	-0.748772	0.383906
C91	C	-0.526737	-1.198254	-0.166590
C92	C	-0.026737	-0.698254	0.333410
C93	C	-0.553451	-1.138821	-0.225976
C94	C	-0.053451	-0.638821	0.274024
C95	C	-0.526753	-1.079387	-0.285369
C96	C	-0.026753	-0.579387	0.214631
C97	C	-0.606865	-1.138828	-0.225976
C98	C	-0.106865	-0.638828	0.274024
C99	C	-0.633563	-1.198263	-0.166583
C100	C	-0.133563	-0.698263	0.333417
C101	C	-0.606847	-1.257690	-0.107190
C102	C	-0.106847	-0.757690	0.392810
C103	C	-0.553435	-1.257688	-0.107197
C104	C	-0.053435	-0.757688	0.392803
C105	C	-0.553469	-1.019959	-0.344762
C106	C	-0.053469	-0.519959	0.155238
C107	C	-0.606881	-1.019967	-0.344751
C108	C	-0.106881	-0.519967	0.155249
C109	C	-0.633579	-1.079401	-0.285358
C110	C	-0.133579	-0.579401	0.214642
N111	N	0.120715	-1.138863	-0.225976
N112	N	0.620715	-0.638863	0.274024
C113	C	-0.000053	-1.312783	-0.233800
C114	C	0.499947	-0.812783	0.266200
C115	C	-0.000054	-1.418926	-0.244645
C116	C	0.499946	-0.918926	0.255355
C117	C	-0.000044	-0.664388	-0.187553
C118	C	0.499956	-0.164388	0.312447
C119	C	-0.000043	-0.613258	-0.264467
C120	C	0.499957	-0.113258	0.235533
C121	C	-0.000049	-0.505122	-0.253435
C122	C	0.499951	-0.005122	0.246565
C123	C	-0.000038	-0.772534	-0.198583
C124	C	0.499962	-0.272534	0.301417
C125	C	-0.000040	-1.146614	-0.399969
C126	C	0.499960	-0.646614	0.100031
C127	C	-0.000036	-1.157459	-0.506112
C128	C	0.499964	-0.657459	-0.006112
C129	C	-0.000043	-1.100366	0.248426
C130	C	0.499957	-0.600366	0.748426
C131	C	-0.000045	-1.177281	0.299556
C132	C	0.499955	-0.677281	0.799556
C133	C	-0.000040	-1.166249	0.407692
C134	C	0.499960	-0.666249	0.907692
C135	C	-0.000047	-1.111397	0.140280
C136	C	0.499953	-0.611397	0.640280
H137	H	-0.222650	-1.246634	-0.118256
H138	H	0.277350	-0.746634	0.381744
H139	H	-0.628627	-0.971567	-0.393122
H140	H	-0.128627	-0.471567	0.106878
H141	H	-0.000049	-0.626951	-0.113425
H142	H	0.499951	-0.126951	0.386575
H143	H	-0.000038	-1.026239	0.285863
H144	H	0.499962	-0.526239	0.785863
H145	H	-0.000014	-1.251414	0.262117
H146	H	0.499986	-0.751414	0.762117
H147	H	-0.125756	-1.246635	-0.118286
H148	H	0.374244	-0.746635	0.381714
H149	H	-0.777440	-1.031014	-0.333735
H150	H	-0.277440	-0.531014	0.166265
H151	H	-0.371454	-1.306080	-0.058856
H152	H	0.128546	-0.806080	0.441144
H153	H	-0.468345	-1.306083	-0.058843
H154	H	0.031655	-0.806083	0.441157
H155	H	-0.777406	-1.246693	-0.118224
H156	H	-0.277406	-0.746693	0.381776
H157	H	-0.000038	-0.650697	-0.338600
H158	H	0.499962	-0.150697	0.161400
H159	H	-0.874333	-1.031040	-0.333740
H160	H	-0.374333	-0.531040	0.166260
C161	C	-0.869008	-1.240382	-0.006070
C162	C	-0.369008	-0.740382	0.493930
C163	C	-0.881920	-1.263624	-0.101285
C164	C	-0.381920	-0.763624	0.398715
H165	H	-0.887128	-1.280711	0.034239
H166	H	-0.387128	-0.780711	0.534239
H167	H	-0.877765	-1.175795	0.009705
H168	H	-0.377765	-0.675795	0.509705
H169	H	-0.833373	-1.248892	0.002423
H170	H	-0.333373	-0.748892	0.502423
H171	H	-0.917554	-1.255107	-0.109780
H172	H	-0.417554	-0.755107	0.390220
H173	H	-0.873166	-1.328227	-0.117065
H174	H	-0.373166	-0.828227	0.382935
C175	C	-0.441271	-0.902424	-0.462166
C176	C	0.058729	-0.402424	0.037834
C177	C	-0.475995	-0.954591	-0.410050
C178	C	0.024005	-0.454591	0.089950
H179	H	-0.459393	-0.862078	-0.502464
H180	H	0.040607	-0.362078	-0.002464
H181	H	-0.420439	-0.945066	-0.499891
H182	H	0.079561	-0.445066	0.000109
H183	H	-0.420436	-0.864736	-0.419483
H184	H	0.079564	-0.364736	0.080517
H185	H	-0.496828	-0.992284	-0.452733
H186	H	0.003172	-0.492284	0.047267
H187	H	-0.496835	-0.911944	-0.372322
H188	H	0.003165	-0.411944	0.127678
C189	C	-0.333166	-1.010174	-0.472942
C190	C	0.166834	-0.510174	0.027058
C191	C	-0.363877	-0.954591	-0.410054
C192	C	0.136123	-0.454591	0.089946
H193	H	-0.315047	-0.969835	-0.513244
H194	H	0.184953	-0.469835	-0.013244
H195	H	-0.354004	-1.052807	-0.510662
H196	H	0.145996	-0.552807	-0.010662
H197	H	-0.309611	-1.045564	-0.437565
H198	H	0.190389	-0.545564	0.062435
H199	H	-0.387434	-0.919206	-0.445431
H200	H	0.112566	-0.419206	0.054569
H201	H	-0.343037	-0.911941	-0.372330
H202	H	0.156963	-0.411941	0.127670
H203	H	-0.222690	-1.030976	-0.333793
H204	H	0.277310	-0.530976	0.166207
H205	H	-0.125782	-1.030971	-0.333794
H206	H	0.374218	-0.530971	0.166206
H207	H	-0.628593	-1.306088	-0.058833
H208	H	-0.128593	-0.806088	0.441167
C209	C	-0.558799	-1.375175	0.010223
C210	C	-0.058799	-0.875175	0.510223
C211	C	-0.524077	-1.323018	-0.041906
C212	C	-0.024077	-0.823018	0.458094
H213	H	-0.540676	-1.415503	0.050538
H214	H	-0.040676	-0.915503	0.550538
H215	H	-0.579630	-1.412873	-0.032444
H216	H	-0.079630	-0.912873	0.467556
H217	H	-0.579635	-1.332519	0.047940
H218	H	-0.079635	-0.832519	0.547940
H219	H	-0.503243	-1.365674	-0.079629
H220	H	-0.003243	-0.865674	0.420371
H221	H	-0.503237	-1.285318	0.000767
H222	H	-0.003237	-0.785318	0.500767
H223	H	-0.531736	-0.971559	-0.393126
H224	H	-0.031736	-0.471559	0.106874
