data_functionalizedCrystal
_audit_creation_method	'MofGen! by Chris Wilmer'
_symmetry_space_group_name_H-M	'P1'
_symmetry_Int_Tables_number	1
_symmetry_cell_setting	triclinic
loop_
_symmetry_equiv_pos_as_xyz
  x,y,z
_cell_length_a	10.654562
_cell_length_b	10.540539
_cell_length_c	9.130313
_cell_angle_alpha	90.003338
_cell_angle_beta	90.003553
_cell_angle_gamma	84.507798
loop_
_atom_site_label
_atom_site_type_symbol
_atom_site_fract_x
_atom_site_fract_y
_atom_site_fract_z
O1	O	1.667888	0.178379	0.121888
O2	O	1.302417	0.195350	0.121869
O3	O	1.493490	0.002156	0.121877
O4	O	1.476814	0.371574	0.121880
O5	O	1.493488	0.002145	-0.121721
O6	O	1.302415	0.195340	-0.121730
O7	O	1.667885	0.178369	-0.121711
Cu8	Cu	1.485150	0.186854	-0.143963
Cu9	Cu	1.485153	0.186866	0.144121
O10	O	1.476812	0.371564	-0.121719
C11	C	1.255618	0.194095	0.000068
C12	C	1.116174	0.190357	0.000061
C13	C	1.050641	0.188608	-0.132714
C14	C	0.919618	0.185106	-0.132689
C15	C	0.919671	0.185107	0.132896
C16	C	1.050693	0.188601	0.132870
C17	C	1.116122	0.190365	-0.265523
C18	C	1.050589	0.188617	-0.398308
C19	C	0.919566	0.185115	-0.398283
C20	C	0.854075	0.183360	-0.265474
C21	C	1.492239	-0.045152	0.000081
C22	C	1.488497	-0.186099	0.000088
C23	C	1.345126	-0.369481	0.000628
C24	C	1.348919	-0.222864	0.000079
C25	C	1.555666	-0.247784	-0.139015
C26	C	1.550903	-0.394327	-0.139133
C27	C	1.553745	-0.394834	0.137885
C28	C	1.555030	-0.247853	0.139724
C29	C	1.714685	0.179624	0.000094
C30	C	1.854128	0.183362	0.000111
C31	C	1.478064	0.418871	0.000081
C32	C	1.481805	0.559818	0.000083
N33	N	1.485156	0.186865	0.346744
N34	N	1.485157	0.186844	-0.346585
C35	C	1.569922	0.101487	0.423400
C36	C	1.569926	0.101479	0.576736
C37	C	1.400386	0.272232	0.576748
C38	C	1.400389	0.272244	0.423414
C39	C	1.654688	0.016107	0.346729
C40	C	1.739461	-0.069279	0.423385
C41	C	1.739465	-0.069286	0.576722
C42	C	1.654696	0.016092	0.653403
H43	H	1.103921	0.190036	-0.506436
F44	F	1.829682	-0.160129	0.341775
F45	F	1.310173	0.363088	0.658362
H46	H	1.331366	0.341768	0.361001
F47	F	0.714631	0.179602	-0.265455
F48	F	1.255567	0.194100	-0.265560
F49	F	0.849968	0.183232	0.274230
F50	F	0.849825	0.183245	-0.539602
F51	F	1.120442	0.190460	0.274183
H52	H	1.654690	0.016103	0.221875
F53	F	1.279346	-0.168263	-0.130476
H54	H	1.296067	-0.180240	0.099794
H55	H	1.289991	-0.398059	0.100380
H56	H	1.808498	-0.138802	0.639133
F57	F	1.654717	0.016087	0.816599
H58	H	1.290213	-0.399675	-0.098572
H59	H	1.651285	-0.442327	-0.145438
F60	F	1.486010	-0.431174	-0.275048
F61	F	1.688041	-0.216229	0.150720
F62	F	1.689645	-0.218610	-0.145774
F63	F	1.494678	-0.192094	-0.274328
H64	H	1.508571	-0.426368	0.243317
H65	H	1.654561	-0.442092	0.138826
F66	F	1.491295	-0.193828	0.274249
