data_functionalizedCrystal
_audit_creation_method	'MofGen! by Chris Wilmer'
_symmetry_space_group_name_H-M	'P1'
_symmetry_Int_Tables_number	1
_symmetry_cell_setting	triclinic
loop_
_symmetry_equiv_pos_as_xyz
  x,y,z
_cell_length_a	14.908571
_cell_length_b	16.959454
_cell_length_c	14.908308
_cell_angle_alpha	93.269679
_cell_angle_beta	90.175053
_cell_angle_gamma	86.716421
loop_
_atom_site_label
_atom_site_type_symbol
_atom_site_fract_x
_atom_site_fract_y
_atom_site_fract_z
Zn1	Zn	1.345297	-0.412496	-0.587603
Zn2	Zn	1.353878	-0.537521	-0.437249
Zn3	Zn	1.203612	-0.397314	-0.428600
Zn4	Zn	1.194906	-0.536582	-0.578901
O5	O	1.274423	-0.470978	-0.508088
O6	O	1.472261	-0.435828	-0.574920
O7	O	1.341180	-0.512961	-0.310277
O8	O	1.222460	-0.288721	-0.449714
O9	O	1.478566	-0.527683	-0.464456
O10	O	1.326555	-0.299875	-0.566532
O11	O	1.230780	-0.409952	-0.303922
O12	O	1.076631	-0.409042	-0.441276
O13	O	1.207621	-0.526082	-0.705880
O14	O	1.070235	-0.511361	-0.551701
O15	O	1.318113	-0.434917	-0.712273
O16	O	1.332737	-0.648003	-0.456018
O17	O	1.215941	-0.647313	-0.560089
C18	C	1.040808	-0.458452	-0.494606
C19	C	0.940865	-0.453114	-0.488860
C20	C	1.274349	-0.676340	-0.508068
C21	C	1.274398	-0.764200	-0.508095
C22	C	0.746458	-0.549777	-0.592894
C23	C	0.652552	-0.544763	-0.587498
C24	C	0.659146	-0.438070	-0.472677
C25	C	0.753052	-0.443084	-0.478073
C26	C	0.796704	-0.498940	-0.538183
C27	C	0.890612	-0.503956	-0.543574
C28	C	0.897204	-0.397260	-0.428758
C29	C	0.803298	-0.392247	-0.423362
C30	C	1.213691	-1.135352	-0.562276
C31	C	1.335401	-1.136020	-0.454006
C32	C	1.335370	-1.053472	-0.453996
C33	C	1.274498	-1.011860	-0.508126
C34	C	1.213657	-1.052796	-0.562266
C35	C	1.396203	-1.012529	-0.399850
C36	C	1.396174	-0.929976	-0.399837
C37	C	1.335306	-0.888363	-0.453972
C38	C	1.274463	-0.929304	-0.508115
C39	C	1.213591	-0.887692	-0.562245
C40	C	1.152752	-0.928632	-0.616394
C41	C	1.152788	-1.011183	-0.616402
C42	C	1.335269	-0.805812	-0.453965
C43	C	1.213557	-0.805136	-0.562235
C44	C	1.508951	-0.483554	-0.521623
C45	C	1.608893	-0.488913	-0.527391
C46	C	1.260938	-0.482089	-0.742614
C47	C	1.255192	-0.486823	-0.842555
C48	C	1.274521	-0.264817	-0.508129
C49	C	1.274563	-0.176963	-0.508146
C50	C	1.359446	-0.400771	-1.037013
C51	C	1.354049	-0.405217	-1.130917
C52	C	1.238998	-0.500156	-1.124267
C53	C	1.244395	-0.495710	-1.030364
C54	C	1.304622	-0.446017	-0.986740
C55	C	1.310022	-0.441576	-0.892835
C56	C	1.194967	-0.536510	-0.886187
C57	C	1.189570	-0.540956	-0.980090
C58	C	1.287908	-0.459857	-0.274478
C59	C	1.293828	-0.454909	-0.174547
H60	H	0.926152	-0.549438	-0.592516
O61	O	1.394634	-1.176374	-0.401475
C62	C	1.483104	-1.161916	-0.426366
H63	H	1.482959	-1.103703	-0.461021
H64	H	1.510698	-1.212163	-0.474373
C65	C	1.542845	-1.228385	-0.299327
C66	C	1.542668	-1.156882	-0.341885
H67	H	1.579588	-1.225283	-0.247217
H68	H	1.483241	-1.238128	-0.282559
H69	H	1.565838	-1.270249	-0.339342
H70	H	1.519665	-1.115021	-0.301874
H71	H	1.602269	-1.147132	-0.358644
H72	H	1.384800	-0.772482	-0.409873
H73	H	0.938125	-0.355866	-0.384206
O74	O	1.368617	-0.393419	-0.850420
C75	C	1.429785	-0.438949	-0.799425
H76	H	1.433697	-0.502840	-0.828033
H77	H	1.406071	-0.436815	-0.726654
C78	C	1.518548	-0.326792	-0.768241
C79	C	1.523358	-0.405261	-0.803383
H80	H	1.576268	-0.306010	-0.770678
H81	H	1.477336	-0.296116	-0.802594
H82	H	1.498783	-0.325023	-0.707601
H83	H	1.543112	-0.407027	-0.864024
H84	H	1.564576	-0.435937	-0.769040
H85	H	1.140534	-0.581413	-1.015621
H86	H	1.189964	-0.540614	-1.159802
H87	H	1.150327	-0.573355	-0.845244
O88	O	0.603833	-0.594118	-0.640774
C89	C	0.621633	-0.582418	-0.731741
H90	H	0.689712	-0.555768	-0.737579
H91	H	0.567053	-0.540435	-0.759064
C92	C	0.539230	-0.695083	-0.779145
C93	C	0.622848	-0.662356	-0.786315
H94	H	0.539975	-0.744391	-0.812811
H95	H	0.527234	-0.702964	-0.717859
H96	H	0.493755	-0.660089	-0.801913
H97	H	0.668320	-0.697345	-0.763538
H98	H	0.634852	-0.654483	-0.847599
H99	H	0.623587	-0.392590	-0.423745
O100	O	0.788965	-0.603931	-0.651326
C101	C	0.839945	-0.564664	-0.712624
H102	H	0.855831	-0.503973	-0.681838
H103	H	0.799943	-0.557300	-0.777197
C104	C	0.908702	-0.688246	-0.771753
C105	C	0.928219	-0.613706	-0.733938
H106	H	0.963152	-0.718498	-0.784904
H107	H	0.874353	-0.714702	-0.730458
H108	H	0.875364	-0.682098	-0.825560
H109	H	0.961546	-0.619854	-0.680127
H110	H	0.962576	-0.587252	-0.775224
H111	H	0.767743	-0.346769	-0.374425
H112	H	1.163990	-0.771261	-0.606318
H113	H	1.103186	-0.894742	-0.660463
O114	O	1.154628	-1.175235	-0.614790
C115	C	1.167724	-1.257022	-0.603217
H116	H	1.201222	-1.266592	-0.535556
H117	H	1.212504	-1.285494	-0.659356
C118	C	1.035145	-1.283222	-0.689245
C119	C	1.076281	-1.294976	-0.606138
H120	H	0.978741	-1.306635	-0.691050
H121	H	1.026324	-1.228121	-0.697045
H122	H	1.072472	-1.306949	-0.736018
H123	H	1.038960	-1.271241	-0.559368
H124	H	1.085095	-1.350074	-0.598331
O125	O	1.093812	-1.051048	-0.669042
C126	C	1.141633	-1.104238	-0.730126
H127	H	1.211627	-1.118715	-0.702408
H128	H	1.147608	-1.076093	-0.797336
C129	C	1.005279	-1.163021	-0.777551
C130	C	1.091245	-1.180808	-0.743503
H131	H	0.974196	-1.210252	-0.785807
H132	H	0.973060	-1.127185	-0.736400
H133	H	1.010270	-1.139566	-0.833555
H134	H	1.086252	-1.204253	-0.687495
H135	H	1.123462	-1.216650	-0.784646
H136	H	1.445756	-1.046415	-0.355773
H137	H	1.445713	-0.896647	-0.355747
H138	H	1.408490	-0.360313	-1.001495
H139	H	1.398691	-0.368371	-1.171846
