data_functionalizedCrystal
_audit_creation_method	'MofGen! by Chris Wilmer'
_symmetry_space_group_name_H-M	'P1'
_symmetry_Int_Tables_number	1
_symmetry_cell_setting	triclinic
loop_
_symmetry_equiv_pos_as_xyz
  x,y,z
_cell_length_a	13.262390
_cell_length_b	15.944499
_cell_length_c	12.376457
_cell_angle_alpha	101.277994
_cell_angle_beta	63.168449
_cell_angle_gamma	83.974785
loop_
_atom_site_label
_atom_site_type_symbol
_atom_site_fract_x
_atom_site_fract_y
_atom_site_fract_z
O1	O	1.512398	0.017821	-0.559005
O2	O	1.185266	0.047274	-0.458425
O3	O	1.357796	-0.090172	-0.511473
O4	O	1.339868	0.155267	-0.505957
O5	O	1.314679	-0.055855	-0.310203
O6	O	1.142149	0.081590	-0.257156
O7	O	1.469281	0.052138	-0.357735
Zn8	Zn	1.298869	0.072313	-0.275490
Zn9	Zn	1.355678	0.027099	-0.540671
O10	O	1.296751	0.189583	-0.304687
C11	C	1.121847	0.065937	-0.344920
C12	C	0.997114	0.070412	-0.306570
C13	C	0.739538	0.008187	-0.637334
C14	C	0.856732	0.003978	-0.673368
C15	C	0.891833	0.020586	-0.581672
C16	C	0.809729	0.041404	-0.453935
C17	C	0.692525	0.045606	-0.417898
C18	C	0.844820	0.058006	-0.362236
C19	C	0.762716	0.078823	-0.234499
C20	C	0.645524	0.083025	-0.198468
C21	C	0.610423	0.066417	-0.290165
C22	C	0.962024	0.053803	-0.398273
C23	C	0.915011	0.091223	-0.178836
C24	C	0.797818	0.095431	-0.142803
C25	C	1.335504	-0.104273	-0.410615
C26	C	1.333306	-0.197414	-0.409948
C27	C	1.433540	-0.493881	-0.440760
C28	C	1.360175	-0.413371	-0.325499
C29	C	1.325309	-0.532655	-0.407476
C30	C	1.402656	-0.447210	-0.523926
C31	C	1.329244	-0.367941	-0.408694
C32	C	1.251896	-0.453358	-0.292124
C33	C	1.294412	-0.487219	-0.490645
C34	C	1.220963	-0.406719	-0.375336
C35	C	1.323044	-0.627543	-0.406774
C36	C	1.331498	-0.273053	-0.409385
C37	C	1.532701	0.033474	-0.471243
C38	C	1.657436	0.028998	-0.509601
C39	C	1.319043	0.203684	-0.405547
C40	C	1.321244	0.296824	-0.406223
N41	N	1.260107	0.103169	-0.094513
N42	N	1.394449	-0.003764	-0.721650
C43	C	1.484429	-0.075408	0.191500
C44	C	1.511552	-0.097004	0.064820
C45	C	1.448693	-0.046963	0.024981
C46	C	1.358706	0.024678	0.111833
C47	C	1.331586	0.046281	0.238523
C48	C	1.295850	0.074726	0.072004
C49	C	1.205863	0.146367	0.158857
C50	C	1.178747	0.167966	0.285534
C51	C	1.241606	0.117925	0.325374
C52	C	1.322970	0.053123	-0.054686
C53	C	1.170128	0.174812	-0.007663
C54	C	1.143004	0.196409	0.119017
H55	H	0.578679	0.099961	-0.094458
H56	H	0.923574	-0.012976	-0.777371
H57	H	0.730953	0.112381	-0.038798
N58	N	1.050560	0.031358	-0.536038
H59	H	1.091116	0.081265	-0.553083
H60	H	1.109278	-0.023727	-0.558598
H61	H	1.584819	-0.155333	-0.005891
H62	H	1.069735	0.254741	0.189747
H63	H	1.118944	0.215562	-0.040098
H64	H	1.219520	0.135505	0.428527
H65	H	1.470781	-0.064550	-0.078169
N66	N	0.484018	0.070950	-0.251300
H67	H	0.455681	0.026820	-0.202348
H68	H	0.437531	0.131820	-0.196788
N69	N	1.552219	-0.129364	0.234480
H70	H	1.498041	-0.155499	0.300252
H71	H	1.613337	-0.177985	0.160176
H72	H	1.188164	-0.456769	-0.194073
N73	N	0.952854	0.109133	-0.079923
H74	H	1.039556	0.103315	-0.122133
H75	H	0.912986	0.170525	-0.022909
N76	N	1.552486	-0.543869	-0.477225
H77	H	1.577150	-0.516718	-0.414716
H78	H	1.550215	-0.606994	-0.477289
H79	H	1.266646	-0.519386	-0.560484
N80	N	1.081689	0.245232	0.379214
H81	H	1.045976	0.273652	0.334760
H82	H	1.020784	0.224442	0.447045
H83	H	1.387980	-0.381228	-0.255676
N84	N	1.101879	-0.356879	-0.338659
H85	H	1.076567	-0.384725	-0.400216
H86	H	1.045174	-0.358566	-0.251130
N87	N	1.018235	0.016039	-0.620530
H88	H	1.064921	0.000331	-0.715363
H89	H	1.028026	0.074872	-0.583256
H90	H	1.396238	-0.005207	-0.125391
N91	N	0.701682	-0.009739	-0.736226
H92	H	0.614981	-0.003921	-0.694011
H93	H	0.723306	0.033840	-0.787641
N94	N	1.487114	-0.442537	-0.653700
H95	H	1.567373	-0.474659	-0.678290
H96	H	1.463004	-0.470629	-0.716247
