data_functionalizedCrystal
_audit_creation_method	'MofGen! by Chris Wilmer'
_symmetry_space_group_name_H-M	'P1'
_symmetry_Int_Tables_number	1
_symmetry_cell_setting	triclinic
loop_
_symmetry_equiv_pos_as_xyz
  x,y,z
_cell_length_a	12.759401
_cell_length_b	16.120531
_cell_length_c	12.759393
_cell_angle_alpha	87.140613
_cell_angle_beta	89.978838
_cell_angle_gamma	87.065985
loop_
_atom_site_label
_atom_site_type_symbol
_atom_site_fract_x
_atom_site_fract_y
_atom_site_fract_z
Zn1	Zn	1.584925	0.331818	-0.615192
Zn2	Zn	1.575855	0.471256	-0.448394
Zn3	Zn	1.409224	0.331866	-0.439526
Zn4	Zn	1.400255	0.471196	-0.624023
O5	O	1.492565	0.401534	-0.531784
O6	O	1.730742	0.350321	-0.593081
O7	O	1.553709	0.452811	-0.300199
O8	O	1.440079	0.215194	-0.455421
O9	O	1.724079	0.452765	-0.470535
O10	O	1.569166	0.215159	-0.584482
O11	O	1.431285	0.350402	-0.293684
O12	O	1.261013	0.350343	-0.463985
O13	O	1.424795	0.452662	-0.769870
O14	O	1.254424	0.452708	-0.599534
O15	O	1.560470	0.350262	-0.763382
O16	O	1.545013	0.587914	-0.479098
O17	O	1.416000	0.587869	-0.608132
C18	C	1.219598	0.401525	-0.531756
C19	C	1.102820	0.401541	-0.531770
C20	C	0.934825	0.454923	-0.602286
C21	C	1.044549	0.454922	-0.602257
C22	C	1.051362	0.348164	-0.461301
C23	C	0.941639	0.348170	-0.461325
C24	C	0.930893	0.516556	-0.683669
C25	C	1.040617	0.516555	-0.683640
C26	C	1.478578	0.618142	-0.545559
C27	C	1.472690	0.710807	-0.551487
C28	C	1.461947	0.880468	-0.562332
C29	C	1.523222	0.921760	-0.501176
C30	C	1.517244	1.016165	-0.507210
C31	C	1.467923	0.786054	-0.556299
C32	C	1.766597	0.401544	-0.531812
C33	C	1.883374	0.401549	-0.531824
C34	C	1.492644	0.401450	-0.805812
C35	C	1.492677	0.401414	-0.922586
C36	C	1.506597	1.184081	-0.517958
C37	C	1.512482	1.091415	-0.512017
C38	C	1.563333	0.348089	-0.974071
C39	C	1.563360	0.348059	-1.083793
C40	C	1.422072	0.454686	-1.090536
C41	C	1.422041	0.454711	-0.980816
C42	C	1.644908	0.286532	-0.970179
C43	C	1.644935	0.286502	-1.079901
C44	C	1.492550	0.401558	-0.258818
C45	C	1.492735	0.401359	-0.142029
H46	H	1.098814	0.304706	-0.403903
H47	H	1.070671	0.577864	-0.658261
C48	C	1.600149	0.873735	-0.424312
N49	N	1.658084	0.837560	-0.366417
H50	H	0.896937	0.581108	-0.665859
H51	H	1.725194	0.303793	-1.110785
H52	H	1.720692	0.309676	-0.937621
H53	H	1.405003	0.916016	-0.619216
H54	H	1.364502	0.498131	-0.938901
H55	H	0.898394	0.493500	-0.759551
C56	C	1.082422	0.493259	-0.792112
N57	N	1.113909	0.475703	-0.873806
H58	H	1.364560	0.498077	-1.137960
C59	C	1.621098	0.199312	-0.924418
N60	N	1.603162	0.133620	-0.889951
H61	H	0.899751	0.304717	-0.403937
C62	C	1.610982	0.203613	-1.120623
N63	N	1.585421	0.141179	-1.151295
