data_functionalizedCrystal
_audit_creation_method	'MofGen! by Chris Wilmer'
_symmetry_space_group_name_H-M	'P1'
_symmetry_Int_Tables_number	1
_symmetry_cell_setting	triclinic
loop_
_symmetry_equiv_pos_as_xyz
  x,y,z
_cell_length_a	18.215407
_cell_length_b	13.032781
_cell_length_c	13.032268
_cell_angle_alpha	103.289483
_cell_angle_beta	97.162109
_cell_angle_gamma	97.204541
loop_
_atom_site_label
_atom_site_type_symbol
_atom_site_fract_x
_atom_site_fract_y
_atom_site_fract_z
Zn1	Zn	1.021919	-0.499071	-0.654220
Zn2	Zn	1.521919	0.000929	-0.154220
Zn3	Zn	1.021840	-0.654154	-0.499167
Zn4	Zn	1.521840	-0.154154	0.000833
Zn5	Zn	0.916754	-0.476566	-0.476637
Zn6	Zn	1.416754	0.023434	0.023363
Zn7	Zn	0.880934	-0.676629	-0.676706
Zn8	Zn	1.380934	-0.176629	-0.176706
O9	O	0.960362	-0.576605	-0.576682
O10	O	1.460362	-0.076605	-0.076682
O11	O	1.124890	-0.519655	-0.633669
O12	O	1.624890	-0.019655	-0.133669
O13	O	1.022858	-0.611773	-0.347559
O14	O	1.522858	-0.111773	0.152441
O15	O	0.945728	-0.330922	-0.481355
O16	O	1.445728	0.169078	0.018645
O17	O	1.124832	-0.633594	-0.519753
O18	O	1.624832	-0.133594	-0.019753
O19	O	1.022993	-0.347456	-0.611824
O20	O	1.522993	0.152544	-0.111824
O21	O	0.945652	-0.481300	-0.331006
O22	O	1.445652	0.018700	0.168994
O23	O	0.809021	-0.503093	-0.503159
O24	O	1.309021	-0.003093	-0.003159
O25	O	0.884678	-0.671899	-0.822343
O26	O	1.384678	-0.171899	-0.322343
O27	O	0.782704	-0.650078	-0.650148
O28	O	1.282704	-0.150078	-0.150148
O29	O	0.988260	-0.541448	-0.805822
O30	O	1.488260	-0.041448	-0.305822
O31	O	0.988124	-0.805765	-0.541557
O32	O	1.488124	-0.305765	-0.041557
O33	O	0.884601	-0.822277	-0.671994
O34	O	1.384601	-0.322277	-0.171994
C35	C	0.769160	-0.576583	-0.576650
C36	C	1.269160	-0.076583	-0.076650
C37	C	0.687358	-0.576602	-0.576664
C38	C	1.187358	-0.076602	-0.076664
C39	C	0.485478	-0.653233	-0.653130
C40	C	0.985478	-0.153233	-0.153130
C41	C	0.408618	-0.653238	-0.653143
C42	C	0.908618	-0.153238	-0.153143
C43	C	0.435993	-0.499999	-0.500261
C44	C	0.935993	0.000001	-0.000261
C45	C	0.512852	-0.499990	-0.500252
C46	C	1.012852	0.000010	-0.000252
C47	C	0.537592	-0.576613	-0.576686
C48	C	1.037592	-0.076613	-0.076686
C49	C	0.383873	-0.576627	-0.576708
C50	C	0.883873	-0.076627	-0.076708
C51	C	0.300537	-0.576632	-0.576722
C52	C	0.800537	-0.076632	-0.076722
C53	C	0.620933	-0.576607	-0.576674
C54	C	1.120933	-0.076607	-0.076674
C55	C	0.932485	-0.852562	-0.611684
C56	C	1.432485	-0.352562	-0.111684
C57	C	0.920623	-0.970622	-0.626693
C58	C	1.420623	-0.470622	-0.126693
C59	C	0.954333	-1.137079	-0.584401
C60	C	1.454333	-0.637079	-0.084401
C61	C	0.966595	-1.015058	-0.568888
C62	C	1.466595	-0.515058	-0.068888
C63	C	1.152310	-0.576628	-0.576716
C64	C	1.652310	-0.076628	-0.076716
C65	C	1.234106	-0.576638	-0.576730
C66	C	1.734106	-0.076638	-0.076730
C67	C	0.932482	-0.611691	-0.853695
C68	C	1.432482	-0.111691	-0.353695
C69	C	0.920602	-0.626642	-0.971741
C70	C	1.420602	-0.126642	-0.471741
C71	C	0.988365	-0.299573	-0.541568
C72	C	1.488365	0.200427	-0.041568
C73	C	1.000299	-0.181519	-0.526604
C74	C	1.500299	0.318481	-0.026604
C75	C	0.966555	-0.568764	-1.016196
C76	C	1.466555	-0.068764	-0.516196
C77	C	0.954277	-0.584215	-1.138203
C78	C	1.454277	-0.084215	-0.638203
C79	C	0.988183	-0.541579	-0.300738
C80	C	1.488183	-0.041579	0.199262
C81	C	1.000236	-0.526328	-0.182654
C82	C	1.500236	-0.026328	0.317346
H83	H	0.415839	-0.437617	-0.438030
H84	H	0.915839	0.062383	0.061970
H85	H	0.905837	-0.645204	-1.190464
H86	H	1.405837	-0.145204	-0.690464
H87	H	0.555286	-0.437590	-0.438002
H88	H	1.055286	0.062410	0.061998
H89	H	0.905905	-1.189369	-0.645371
H90	H	1.405905	-0.689369	-0.145371
H91	H	0.872191	-1.022907	-0.687668
H92	H	1.372191	-0.522907	-0.187668
C93	C	1.065728	-1.110891	-0.444238
C94	C	1.565728	-0.610891	0.055762
C95	C	1.049887	-1.024110	-0.351193
C96	C	1.549887	-0.524110	0.148807
C97	C	1.115319	-0.953484	-0.268825
C98	C	1.615319	-0.453484	0.231175
C99	C	1.196591	-0.969640	-0.279502
C100	C	1.696591	-0.469640	0.220498
C101	C	1.212436	-1.056425	-0.372552
C102	C	1.712436	-0.556425	0.127448
C103	C	1.147004	-1.127050	-0.454920
C104	C	1.647004	-0.627050	0.045080
H105	H	0.989721	-1.012147	-0.343285
H106	H	1.489721	-0.512147	0.156715
H107	H	1.103589	-0.889240	-0.199944
H108	H	1.603589	-0.389240	0.300056
H109	H	1.245028	-0.917359	-0.218529
H110	H	1.745028	-0.417359	0.281471
H111	H	1.272602	-1.068387	-0.380459
H112	H	1.772602	-0.568387	0.119541
H113	H	1.158734	-1.191294	-0.523801
H114	H	1.658734	-0.691294	-0.023801
C115	C	1.031987	-0.486367	-0.945598
C116	C	1.531987	0.013633	-0.445598
C117	C	1.016151	-0.393385	-0.858743
C118	C	1.516151	0.106615	-0.358743
C119	C	1.081585	-0.310987	-0.788147
C120	C	1.581585	0.189013	-0.288147
C121	C	1.162855	-0.321571	-0.804404
C122	C	1.662855	0.178429	-0.304404
C123	C	1.178694	-0.414557	-0.891262
C124	C	1.678694	0.085443	-0.391262
C125	C	1.113260	-0.496955	-0.961859
C126	C	1.613260	0.003045	-0.461859
H127	H	0.955987	-0.385547	-0.846705
H128	H	1.455987	0.114453	-0.346705
H129	H	1.069859	-0.242153	-0.723849
H130	H	1.569859	0.257847	-0.223849
H131	H	1.211293	-0.260576	-0.752144
H132	H	1.711293	0.239424	-0.252144
H133	H	1.238859	-0.422395	-0.903301
H134	H	1.738859	0.077605	-0.403301
H135	H	1.124986	-0.565789	-1.026157
H136	H	1.624986	-0.065789	-0.526157
H137	H	0.366189	-0.715629	-0.715393
H138	H	0.866189	-0.215629	-0.215393
C139	C	1.065671	-0.443925	-1.112061
C140	C	1.565671	0.056075	-0.612061
C141	C	1.146941	-0.454507	-1.128319
C142	C	1.646941	0.045493	-0.628319
C143	C	1.212375	-0.372106	-1.057726
C144	C	1.712375	0.127894	-0.557726
C145	C	1.196538	-0.279123	-0.970873
C146	C	1.696538	0.220877	-0.470873
C147	C	1.115264	-0.268537	-0.954611
C148	C	1.615264	0.231463	-0.454611
C149	C	1.049831	-0.350938	-1.025205
C150	C	1.549831	0.149062	-0.525205
H151	H	1.158668	-0.523342	-1.192616
H152	H	1.658668	-0.023342	-0.692616
H153	H	1.272539	-0.379942	-1.069765
H154	H	1.772539	0.120058	-0.569765
H155	H	1.244976	-0.218124	-0.918616
H156	H	1.744976	0.281876	-0.418616
H157	H	1.103538	-0.199702	-0.890314
H158	H	1.603538	0.300298	-0.390314
H159	H	0.989667	-0.343102	-1.013166
H160	H	1.489667	0.156898	-0.513166
H161	H	1.015032	-0.962774	-0.507921
H162	H	1.515032	-0.462774	-0.007921
H163	H	0.872166	-0.687627	-1.024006
H164	H	1.372166	-0.187627	-0.524006
H165	H	0.505619	-0.715622	-0.715369
H166	H	1.005619	-0.215622	-0.215369
