data_functionalizedCrystal
_audit_creation_method	'MofGen! by Chris Wilmer'
_symmetry_space_group_name_H-M	'P1'
_symmetry_Int_Tables_number	1
_symmetry_cell_setting	triclinic
loop_
_symmetry_equiv_pos_as_xyz
  x,y,z
_cell_length_a	13.339070
_cell_length_b	7.681481
_cell_length_c	8.597304
_cell_angle_alpha	76.508647
_cell_angle_beta	100.340158
_cell_angle_gamma	97.286298
loop_
_atom_site_label
_atom_site_type_symbol
_atom_site_fract_x
_atom_site_fract_y
_atom_site_fract_z
O1	O	1.332702	-0.269346	0.809967
O2	O	1.038177	-0.253426	0.705080
O3	O	1.193495	-0.226720	0.529046
O4	O	1.177384	-0.296052	0.986001
O5	O	1.212612	0.069435	0.507311
O6	O	1.057294	0.042729	0.683345
O7	O	1.351819	0.026809	0.788232
Zn8	Zn	1.207592	0.081790	0.732338
Zn9	Zn	1.182404	-0.308407	0.760974
O10	O	1.196501	0.000103	0.964266
C11	C	1.010047	-0.102660	0.676495
C12	C	0.897746	-0.094645	0.623683
N13	N	1.224789	0.348089	0.712796
N14	N	1.165215	-0.574705	0.780507
C15	C	0.532944	-0.156977	1.034321
C16	C	0.638455	-0.164514	1.083945
C17	C	0.703283	-0.147047	0.968884
C18	C	0.662589	-0.122043	0.804189
C19	C	0.557067	-0.114520	0.754561
C20	C	0.727406	-0.104589	0.689124
C21	C	0.686712	-0.079586	0.524429
C22	C	0.581199	-0.072062	0.474809
C23	C	0.516372	-0.089530	0.589870
C24	C	0.832928	-0.112112	0.738753
C25	C	0.857051	-0.069655	0.458993
C26	C	0.751540	-0.062119	0.409368
C27	C	1.379949	-0.123961	0.816818
C28	C	1.492249	-0.131987	0.869630
C29	C	1.202388	-0.069591	0.458499
C30	C	1.200395	-0.042621	0.280667
C31	C	1.187608	-0.157029	1.034813
C32	C	1.189600	-0.184012	1.212646
H33	H	0.866051	-0.132463	0.872847
O34	O	1.180516	-0.353140	0.305349
C35	C	1.250884	-0.639956	0.397852
C36	C	1.261285	-0.448493	0.292747
H37	H	1.316186	-0.717092	0.387726
H38	H	1.174659	-0.712224	0.354232
H39	H	1.254140	-0.632248	0.529514
H40	H	1.258075	-0.456038	0.161061
H41	H	1.337501	-0.376300	0.336502
O42	O	0.541493	-0.047884	0.314900
C43	C	0.389636	-0.017392	0.114460
C44	C	0.434463	-0.044817	0.295609
H45	H	0.303099	-0.014865	0.098803
H46	H	0.408260	-0.132367	0.064286
H47	H	0.424384	0.115502	0.046169
H48	H	0.399741	-0.177648	0.364033
H49	H	0.415849	0.070259	0.345658
O50	O	0.712072	-0.037528	0.249347
C51	C	0.710344	0.154430	-0.016222
C52	C	0.755103	0.126830	0.164960
H53	H	0.745131	0.287290	-0.084507
H54	H	0.623797	0.156934	-0.032024
H55	H	0.729017	0.039410	-0.066285
H56	H	0.736506	0.241810	0.215142
H57	H	0.841639	0.124250	0.180654
H58	H	1.104402	0.339614	0.849616
H59	H	0.480152	-0.171212	1.127987
H60	H	1.208101	0.099084	0.202844
O61	O	0.805759	-0.154318	1.017353
C62	C	0.943934	-0.188516	1.242077
C63	C	0.827861	-0.180284	1.187397
H64	H	0.961838	-0.209548	1.379564
H65	H	0.985971	-0.057193	1.184585
H66	H	0.969919	-0.305040	1.202554
H67	H	0.801783	-0.063842	1.226907
H68	H	0.785892	-0.311687	1.244876
O69	O	1.297481	0.450188	0.630569
C70	C	1.476989	0.509837	0.610474
C71	C	1.394776	0.394109	0.703765
H72	H	1.555669	0.464516	0.669595
H73	H	1.474848	0.657020	0.613062
H74	H	1.461298	0.493570	0.479610
H75	H	1.410412	0.410223	0.834667
H76	H	1.396937	0.246971	0.701044
O77	O	0.677836	-0.189048	1.243984
C78	C	0.679610	-0.381140	1.509501
C79	C	0.634919	-0.353556	1.328293
H80	H	0.644946	-0.514158	1.577713
H81	H	0.660873	-0.266292	1.559733
H82	H	0.766164	-0.383438	1.525188
H83	H	0.548360	-0.351298	1.312465
H84	H	0.653736	-0.468406	1.278148
H85	H	0.430455	-0.083394	0.549474
H86	H	0.909834	-0.055439	0.365300
