data_functionalizedCrystal
_audit_creation_method	'MofGen! by Chris Wilmer'
_symmetry_space_group_name_H-M	'P1'
_symmetry_Int_Tables_number	1
_symmetry_cell_setting	triclinic
loop_
_symmetry_equiv_pos_as_xyz
  x,y,z
_cell_length_a	19.121241
_cell_length_b	19.120786
_cell_length_c	19.120904
_cell_angle_alpha	89.866497
_cell_angle_beta	89.875472
_cell_angle_gamma	94.790376
loop_
_atom_site_label
_atom_site_type_symbol
_atom_site_fract_x
_atom_site_fract_y
_atom_site_fract_z
Zn1	Zn	1.044531	-0.253560	-0.430924
Zn2	Zn	1.044875	-0.365791	-0.308698
Zn3	Zn	0.932315	-0.253144	-0.308712
Zn4	Zn	0.922279	-0.375740	-0.420443
O5	O	0.986000	-0.312059	-0.367194
O6	O	1.142847	-0.264459	-0.419091
O7	O	1.034288	-0.346510	-0.210788
O8	O	0.951257	-0.154923	-0.329315
O9	O	1.143100	-0.346914	-0.329292
O10	O	1.033702	-0.155230	-0.419104
O11	O	0.951590	-0.263748	-0.210798
O12	O	0.832713	-0.273396	-0.319152
O13	O	0.934152	-0.363870	-0.519745
O14	O	0.825340	-0.363466	-0.401241
O15	O	1.023970	-0.274106	-0.527445
O16	O	1.024557	-0.465386	-0.319129
O17	O	0.934485	-0.472695	-0.401228
C18	C	0.803546	-0.319466	-0.359061
C19	C	0.725490	-0.322652	-0.355598
C20	C	0.688682	-0.281294	-0.400789
C21	C	0.615341	-0.284284	-0.397529
C22	C	0.578808	-0.328637	-0.349080
C23	C	0.615621	-0.369997	-0.303884
C24	C	0.688962	-0.367003	-0.307141
C25	C	0.357374	-0.339820	-0.336900
C26	C	0.284029	-0.342813	-0.333647
C27	C	0.283753	-0.257098	-0.427291
C28	C	0.357095	-0.254111	-0.430547
C29	C	0.393902	-0.295468	-0.385349
C30	C	0.503841	-0.331697	-0.345748
C31	C	0.468868	-0.292404	-0.388678
C32	C	0.978488	-0.494522	-0.359056
C33	C	0.975337	-0.572579	-0.355600
C34	C	1.016747	-0.609353	-0.400760
C35	C	1.013783	-0.682696	-0.397514
C36	C	0.969414	-0.719264	-0.349105
C37	C	0.928000	-0.682486	-0.303944
C38	C	0.930960	-0.609144	-0.307193
C39	C	0.958328	-0.940703	-0.336957
C40	C	0.955372	-1.014050	-0.333709
C41	C	1.041155	-1.014255	-0.427281
C42	C	1.044114	-0.940912	-0.430523
C43	C	1.002698	-0.904140	-0.385364
C44	C	0.966386	-0.794233	-0.345785
C45	C	1.005723	-0.829174	-0.388688
C46	C	1.169166	-0.304623	-0.375359
C47	C	1.247221	-0.301454	-0.378839
C48	C	0.977903	-0.320145	-0.549692
C49	C	0.974452	-0.323590	-0.627462
C50	C	0.993560	-0.128882	-0.375380
C51	C	0.996782	-0.050823	-0.378869
C52	C	1.019593	-0.278476	-0.668008
C53	C	1.016342	-0.281711	-0.741081
C54	C	0.967954	-0.330065	-0.773605
C55	C	0.922809	-0.375181	-0.733054
C56	C	0.926057	-0.371942	-0.659982
C57	C	0.955806	-0.342180	-0.994033
C58	C	0.952563	-0.345417	-1.067109
C59	C	1.046095	-0.251946	-1.075131
C60	C	1.049341	-0.248714	-1.002058
C61	C	1.004194	-0.293828	-0.961513
C62	C	0.964632	-0.333374	-0.848297
C63	C	1.007513	-0.290514	-0.886822
C64	C	0.994108	-0.303952	-0.185410
C65	C	0.997703	-0.300303	-0.107656
H66	H	0.718930	-0.400681	-0.270341
H67	H	0.883408	-0.414550	-0.759541
H68	H	0.387334	-0.373497	-0.300097
C69	C	0.575831	-0.418135	-0.251353
C70	C	0.503722	-0.411922	-0.258185
C71	C	0.467047	-0.456264	-0.209812
H72	H	0.590265	-0.405258	-0.205319
H73	H	0.585424	-0.465313	-0.259949
H74	H	0.494134	-0.364754	-0.249584
H75	H	0.489267	-0.424804	-0.304209
H76	H	0.476640	-0.503442	-0.218409
H77	H	0.481487	-0.443383	-0.163782
H78	H	0.418117	-0.452059	-0.214446
H79	H	0.498616	-0.256289	-0.428122
C80	C	1.064936	-0.569783	-0.453394
C81	C	1.100550	-0.617691	-0.492262
C82	C	1.144939	-0.581268	-0.540765
H83	H	1.097958	-0.538722	-0.429372
H84	H	1.037861	-0.543646	-0.483963
H85	H	1.127624	-0.643816	-0.461697
H86	H	1.067546	-0.648753	-0.516299
H87	H	1.117863	-0.555131	-0.571334
H88	H	1.177956	-0.550208	-0.516737
H89	H	1.169103	-0.613768	-0.567147
C90	C	0.906904	-0.391198	-0.949940
C91	C	0.946660	-0.432732	-0.907736
C92	C	0.901632	-0.477892	-0.867103
H93	H	0.877612	-0.420519	-0.979701
H94	H	0.878688	-0.364331	-0.921232
H95	H	0.974864	-0.459597	-0.936441
H96	H	0.975950	-0.403430	-0.877961
H97	H	0.873416	-0.451026	-0.838395
H98	H	0.872342	-0.507209	-0.896869
H99	H	0.928600	-0.506074	-0.838458
H100	H	0.474088	-0.367809	-0.306301
H101	H	0.930262	-0.824014	-0.306369
C102	C	1.092265	-0.901083	-0.483016
C103	C	1.086006	-0.828982	-0.476183
C104	C	1.130359	-0.792269	-0.524520
H105	H	1.079424	-0.915512	-0.529060
H106	H	1.139444	-0.910652	-0.474384
H107	H	1.038838	-0.819418	-0.484820
H108	H	1.098852	-0.814532	-0.430149
H109	H	1.177539	-0.801838	-0.515889
H110	H	1.117515	-0.806704	-0.570562
H111	H	1.126124	-0.743344	-0.519887
C112	C	0.907149	-1.053854	-0.281256
C113	C	0.858669	-1.099589	-0.316962
C114	C	0.814247	-1.136276	-0.268666
H115	H	0.882835	-1.021536	-0.254801
H116	H	0.934219	-1.080047	-0.250733
H117	H	0.831602	-1.073398	-0.347473
H118	H	0.882963	-1.131921	-0.343414
H119	H	0.841317	-1.162468	-0.238143
H120	H	0.789938	-1.103952	-0.242214
H121	H	0.781353	-1.167316	-0.292885
C122	C	0.913345	-0.900909	-0.287835
C123	C	0.873875	-0.948633	-0.244730
C124	C	0.832437	-0.911997	-0.199459
H125	H	0.882630	-0.874740	-0.314389
H126	H	0.942729	-0.869859	-0.259800
H127	H	0.844493	-0.979671	-0.272762
H128	H	0.904572	-0.974804	-0.218161
H129	H	0.861822	-0.880947	-0.171424
H130	H	0.801727	-0.885829	-0.226019
H131	H	0.805657	-0.944371	-0.170203
C132	C	1.086034	-1.054309	-0.476278
C133	C	1.073934	-1.126366	-0.463087
C134	C	1.115256	-1.163285	-0.508219
H135	H	1.134188	-1.039967	-0.468758
H136	H	1.074106	-1.044824	-0.523366
H137	H	1.085866	-1.135847	-0.416010
H138	H	1.025788	-1.140729	-0.470611
H139	H	1.103329	-1.153800	-0.555307
H140	H	1.163408	-1.148937	-0.500696
H141	H	1.107048	-1.212180	-0.499280
C142	C	0.879778	-0.722283	-0.251492
C143	C	0.831292	-0.768015	-0.287195
C144	C	0.786866	-0.804692	-0.238896
H145	H	0.855469	-0.689960	-0.225039
H146	H	0.906844	-0.748478	-0.220967
H147	H	0.804228	-0.741822	-0.317707
H148	H	0.855580	-0.800352	-0.313645
H149	H	0.813932	-0.830887	-0.208372
H150	H	0.762562	-0.772364	-0.212446
H151	H	0.753967	-0.835730	-0.263113
C152	C	1.072154	-0.225903	-0.632830
C153	C	1.110976	-0.187074	-0.683982
C154	C	1.159394	-0.138629	-0.651605
H155	H	1.102976	-0.250180	-0.604493
H156	H	1.047836	-0.195093	-0.604511
H157	H	1.135292	-0.217880	-0.712289
H158	H	1.080172	-0.162782	-0.712322
H159	H	1.135077	-0.107818	-0.623286
H160	H	1.190211	-0.162911	-0.623269
H161	H	1.185736	-0.112272	-0.686307
C162	C	1.095072	-0.202845	-1.119067
C163	C	1.083448	-0.133195	-1.103700
C164	C	1.128559	-0.087940	-1.144152
H165	H	1.086258	-0.211600	-1.167261
H166	H	1.142378	-0.210633	-1.108726
H167	H	1.036153	-0.125411	-1.114046
H168	H	1.092267	-0.124418	-1.055514
H169	H	1.175865	-0.095727	-1.133811
H170	H	1.119741	-0.096701	-1.192344
H171	H	1.120683	-0.040677	-1.133727
H172	H	1.053101	-0.244975	-0.774091
H173	H	1.047509	-0.712633	-0.434283
C174	C	0.885970	-0.569340	-0.258080
C175	C	0.846492	-0.617060	-0.214978
C176	C	0.805042	-0.580419	-0.169723
H177	H	0.855261	-0.543176	-0.284646
H178	H	0.915347	-0.538286	-0.230043
H179	H	0.817118	-0.648102	-0.243013
H180	H	0.877184	-0.643226	-0.188398
H181	H	0.834419	-0.549364	-0.141685
H182	H	0.774337	-0.554256	-0.196294
H183	H	0.778256	-0.612790	-0.140469
H184	H	1.041846	-0.799398	-0.428106
C185	C	1.101751	-0.196143	-0.966673
C186	C	1.065688	-0.150900	-0.924963
C187	C	1.113940	-0.102457	-0.892356
H188	H	1.128176	-0.169667	-1.001223
H189	H	1.132515	-0.220451	-0.938283
H190	H	1.034937	-0.126593	-0.953351
H191	H	1.039266	-0.177356	-0.890401
H192	H	1.144704	-0.126766	-0.863967
H193	H	1.140363	-0.075987	-0.926911
H194	H	1.089479	-0.071759	-0.864048
C195	C	0.900087	-0.397886	-1.102554
C196	C	0.906920	-0.391075	-1.175225
C197	C	0.858599	-0.439399	-1.207900
H198	H	0.853828	-0.389032	-1.089014
H199	H	0.908942	-0.444144	-1.088971
H200	H	0.898060	-0.344827	-1.188803
H201	H	0.953169	-0.399936	-1.188785
H202	H	0.867454	-0.485657	-1.194317
H203	H	0.812344	-0.430541	-1.194355
H204	H	0.863234	-0.434789	-1.257210
C205	C	0.877021	-0.421018	-0.616079
C206	C	0.833967	-0.464075	-0.660201
C207	C	0.788794	-0.509301	-0.619783
H208	H	0.848731	-0.394220	-0.587395
H209	H	0.903879	-0.449299	-0.587423
H210	H	0.807112	-0.435797	-0.688845
H211	H	0.862238	-0.490888	-0.688884
H212	H	0.815651	-0.537583	-0.591126
H213	H	0.760508	-0.482497	-0.591101
H214	H	0.759580	-0.538525	-0.649713
H215	H	0.718422	-0.245179	-0.440243
H216	H	0.585375	-0.250607	-0.434330
H217	H	0.386835	-0.217996	-0.470002
H218	H	0.925237	-0.372747	-0.874787
C219	C	0.243819	-0.212285	-0.476472
C220	C	0.257955	-0.230034	-0.545780
C221	C	0.221173	-0.188770	-0.591104
H222	H	0.258192	-0.164123	-0.469039
H223	H	0.194899	-0.220427	-0.467641
H224	H	0.306864	-0.221886	-0.554607
H225	H	0.243579	-0.278189	-0.553234
H226	H	0.172253	-0.196912	-0.582273
H227	H	0.235549	-0.140610	-0.583665
H228	H	0.230754	-0.200811	-0.638134
C229	C	0.244492	-0.390989	-0.280971
C230	C	0.292423	-0.426555	-0.242073
C231	C	0.256028	-0.470933	-0.193540
H232	H	0.213445	-0.424041	-0.304971
H233	H	0.218344	-0.363909	-0.250424
H234	H	0.318559	-0.453632	-0.272615
H235	H	0.323472	-0.393521	-0.218057
H236	H	0.229880	-0.443853	-0.162993
H237	H	0.224982	-0.503980	-0.217547
H238	H	0.288544	-0.495065	-0.167138
H239	H	1.046908	-0.251142	-0.860338
