data_functionalizedCrystal
_audit_creation_method	'MofGen! by Chris Wilmer'
_symmetry_space_group_name_H-M	'P1'
_symmetry_Int_Tables_number	1
_symmetry_cell_setting	triclinic
loop_
_symmetry_equiv_pos_as_xyz
  x,y,z
_cell_length_a	12.759401
_cell_length_b	21.395361
_cell_length_c	12.759393
_cell_angle_alpha	89.960721
_cell_angle_beta	89.980163
_cell_angle_gamma	90.032233
loop_
_atom_site_label
_atom_site_type_symbol
_atom_site_fract_x
_atom_site_fract_y
_atom_site_fract_z
Zn1	Zn	1.606138	-0.249376	-0.593964
Zn2	Zn	1.605983	-0.354168	-0.418261
Zn3	Zn	1.430440	-0.249411	-0.418299
Zn4	Zn	1.430380	-0.354122	-0.593898
O5	O	1.518235	-0.301769	-0.506106
O6	O	1.753139	-0.263281	-0.570668
O7	O	1.582658	-0.340306	-0.271245
O8	O	1.453837	-0.161729	-0.441645
O9	O	1.753025	-0.340272	-0.441580
O10	O	1.582921	-0.161703	-0.570706
O11	O	1.453687	-0.263341	-0.271273
O12	O	1.283411	-0.263297	-0.441581
O13	O	1.453734	-0.340193	-0.740928
O14	O	1.283367	-0.340228	-0.570593
O15	O	1.582863	-0.263237	-0.740977
O16	O	1.582599	-0.441840	-0.441516
O17	O	1.453584	-0.441806	-0.570556
C18	C	1.245268	-0.301762	-0.506085
C19	C	1.128491	-0.301773	-0.506101
C20	C	1.073634	-0.341892	-0.573171
C21	C	0.963910	-0.341895	-0.573192
C22	C	0.963911	-0.261658	-0.439063
C23	C	1.073633	-0.261653	-0.439048
C24	C	1.518097	-0.464557	-0.506047
C25	C	1.518133	-0.534198	-0.506057
C26	C	1.585371	-0.566908	-0.438935
C27	C	1.585420	-0.632343	-0.438958
C28	C	1.518212	-0.665067	-0.506093
C29	C	1.450970	-0.632349	-0.573229
C30	C	1.450930	-0.566915	-0.573211
C31	C	1.423614	-0.768782	-0.514329
C32	C	1.423652	-0.834215	-0.514340
C33	C	1.518335	-0.866887	-0.506155
C34	C	1.612983	-0.834119	-0.497937
C35	C	1.612943	-0.768685	-0.497919
C36	C	1.518248	-0.736019	-0.506121
C37	C	1.585631	-0.970550	-0.439054
C38	C	1.585682	-1.035986	-0.439085
C39	C	1.451222	-1.035990	-0.573350
C40	C	1.451181	-0.970555	-0.573325
C41	C	1.518384	-0.937839	-0.506171
C42	C	1.792269	-0.301777	-0.506127
C43	C	1.909045	-0.301781	-0.506136
C44	C	1.518309	-0.301706	-0.780139
C45	C	1.518340	-0.301679	-0.896916
C46	C	1.518403	-0.138346	-0.506187
C47	C	1.518475	-0.068705	-0.506222
C48	C	1.451209	-0.261596	-0.951792
C49	C	1.451233	-0.261577	-1.061516
C50	C	1.585529	-0.341725	-1.061478
C51	C	1.585498	-0.341747	-0.951756
C52	C	1.518223	-0.301787	-0.233138
C53	C	1.518395	-0.301638	-0.116362
H54	H	1.118299	-0.228979	-0.384431
H55	H	1.346583	-0.860890	-0.521021
H56	H	1.690008	-0.742006	-0.491231
H57	H	1.640208	-0.374346	-1.106142
H58	H	1.690083	-0.860719	-0.491272
H59	H	1.118296	-0.374560	-0.627773
H60	H	0.919249	-0.374563	-0.627809
H61	H	1.396176	-0.540282	-0.627871
H62	H	0.919231	-0.228994	-0.384469
H63	H	1.640094	-0.540272	-0.384257
H64	H	1.640177	-0.658981	-0.384300
H65	H	1.396524	-0.228971	-0.907144
H66	H	1.396568	-0.228938	-1.106192
H67	H	1.640356	-0.943911	-0.384377
H68	H	1.346506	-0.742186	-0.520999
H69	H	1.640167	-0.374389	-0.907075
H70	H	1.640442	-1.062617	-0.384428
H71	H	1.396505	-1.062633	-0.628017
H72	H	1.396425	-0.943921	-0.627978
H73	H	1.396251	-0.658996	-0.627892
