data_functionalizedCrystal
_audit_creation_method	'MofGen! by Chris Wilmer'
_symmetry_space_group_name_H-M	'P1'
_symmetry_Int_Tables_number	1
_symmetry_cell_setting	triclinic
loop_
_symmetry_equiv_pos_as_xyz
  x,y,z
_cell_length_a	19.288864
_cell_length_b	10.654541
_cell_length_c	18.366186
_cell_angle_alpha	89.994034
_cell_angle_beta	89.977106
_cell_angle_gamma	83.810087
loop_
_atom_site_label
_atom_site_type_symbol
_atom_site_fract_x
_atom_site_fract_y
_atom_site_fract_z
O1	O	0.922378	0.156657	-0.060783
O2	O	0.720255	0.177790	-0.060733
O3	O	0.825965	-0.015616	-0.060755
O4	O	0.816669	0.350062	-0.060761
O5	O	0.825946	-0.015625	0.060344
O6	O	0.720237	0.177780	0.060366
O7	O	0.922360	0.156647	0.060316
Zn8	Zn	0.821296	0.167212	0.079568
Zn9	Zn	0.821319	0.167225	-0.079985
O10	O	0.816650	0.350053	0.060338
C11	C	0.694365	0.177105	-0.000177
C12	C	0.617248	0.175064	-0.000158
C13	C	0.825273	-0.062404	-0.000205
C14	C	0.823232	-0.201804	-0.000206
C15	C	0.573295	0.288545	-0.000172
C16	C	0.500835	0.286627	-0.000180
C17	C	0.472332	0.171222	-0.000189
C18	C	0.516296	0.057725	-0.000171
C19	C	0.588754	0.059646	-0.000156
C20	C	0.363483	0.080504	-0.042638
C21	C	0.291026	0.078587	-0.042658
C22	C	0.248848	0.165292	-0.000233
C23	C	0.279134	0.253935	0.042203
C24	C	0.351592	0.255856	0.042218
C25	C	0.393765	0.169126	-0.000205
C26	C	0.126325	0.276702	-0.000254
C27	C	0.053864	0.274780	-0.000257
C28	C	0.069327	0.045875	-0.000256
C29	C	0.141786	0.047800	-0.000245
C30	C	0.170280	0.163218	-0.000248
C31	C	0.949636	-0.232480	-0.000228
C32	C	1.011877	-0.313307	-0.000237
C33	C	1.009955	-0.444284	-0.000239
C34	C	0.945785	-0.494436	-0.000234
C35	C	0.883545	-0.413609	-0.000225
C36	C	0.885474	-0.282631	-0.000221
C37	C	0.757142	-0.382933	-0.000208
C38	C	0.759063	-0.251955	-0.000201
C39	C	0.692973	-0.433084	-0.000203
C40	C	0.630732	-0.352257	-0.000188
C41	C	0.632656	-0.221273	-0.000186
C42	C	0.696823	-0.171129	-0.000192
C43	C	0.948250	0.157332	-0.000241
C44	C	1.025367	0.159373	-0.000265
C45	C	0.817342	0.396841	-0.000213
C46	C	0.819383	0.536241	-0.000217
N47	N	0.821284	0.167203	0.188459
N48	N	0.821336	0.167224	-0.188876
C49	C	0.868108	0.081605	0.226550
C50	C	0.868112	0.081599	0.302778
C51	C	0.821300	0.167213	0.340912
C52	C	0.774467	0.252818	0.302812
C53	C	0.774459	0.252813	0.226586
C54	C	0.812750	0.281635	0.461672
C55	C	0.812763	0.281642	0.537897
C56	C	0.821320	0.167229	0.576020
C57	C	0.829878	0.052805	0.537908
C58	C	0.829871	0.052799	0.461682
C59	C	0.821303	0.167228	0.423567
C60	C	0.868151	0.081618	0.696765
C61	C	0.868150	0.081611	0.772995
C62	C	0.774508	0.252840	0.773027
C63	C	0.774505	0.252836	0.696800
C64	C	0.821330	0.167227	0.658673
H65	H	0.596490	0.382527	-0.000175
O66	O	0.918600	-0.010742	0.185426
H67	H	0.951156	-0.070275	0.224725
O68	O	0.698896	-0.029861	-0.000191
H69	H	0.753972	-0.008572	-0.000202
H70	H	0.736329	0.322518	0.195572
O71	O	0.723978	0.345169	0.343936
H72	H	0.731855	0.330803	0.403341
O73	O	0.839103	-0.070613	0.579012
H74	H	0.837660	-0.051393	0.638420
O75	O	0.724001	0.345166	0.655714
H76	H	0.731854	0.330771	0.596303
H77	H	0.578490	-0.393102	-0.000189
O78	O	0.838915	-0.070617	0.420579
H79	H	0.837410	-0.051396	0.361171
H80	H	0.465041	0.379041	-0.000189
H81	H	0.149526	0.370682	-0.000245
H82	H	0.581972	-0.155470	-0.000181
H83	H	1.064122	-0.272459	-0.000235
H84	H	0.244794	0.324538	0.076750
O85	O	0.384266	0.351408	0.088014
H86	H	0.342770	0.411363	0.117528
H87	H	0.906276	0.011905	0.665722
H88	H	0.624542	-0.032767	-0.000145
O89	O	0.918665	-0.010710	0.814077
H90	H	0.909361	-0.108573	0.799454
H91	H	0.736390	0.322544	0.804076
H92	H	0.944226	-0.601085	-0.000244
H93	H	0.906243	0.011893	0.333797
O94	O	0.690894	-0.574351	-0.000197
H95	H	0.744953	-0.622132	-0.000195
O96	O	1.077085	-0.531465	-0.000242
H97	H	1.079247	-0.591861	-0.049603
O98	O	0.038591	-0.078599	-0.000257
H99	H	0.081332	-0.157190	-0.000241
O100	O	0.408976	-0.013028	-0.088393
H101	H	0.438585	0.038659	-0.128222
H102	H	0.805798	0.374813	0.568921
H103	H	0.018077	0.367194	-0.000264
O104	O	0.485558	-0.066749	-0.000175
H105	H	0.503205	-0.121268	-0.049524
H106	H	0.266373	0.006414	-0.077214
H107	H	0.805770	0.374810	0.430638
H108	H	0.951208	-0.125834	-0.000217
H109	H	0.177574	-0.044609	-0.000238
