data_functionalizedCrystal
_audit_creation_method	'MofGen! by Chris Wilmer'
_symmetry_space_group_name_H-M	'P1'
_symmetry_Int_Tables_number	1
_symmetry_cell_setting	triclinic
loop_
_symmetry_equiv_pos_as_xyz
  x,y,z
_cell_length_a	18.050590
_cell_length_b	18.050589
_cell_length_c	16.959447
_cell_angle_alpha	89.973357
_cell_angle_beta	90.000229
_cell_angle_gamma	90.017386
loop_
_atom_site_label
_atom_site_type_symbol
_atom_site_fract_x
_atom_site_fract_y
_atom_site_fract_z
Zn1	Zn	1.135296	-0.295860	-0.446622
Zn2	Zn	1.468630	0.037474	-0.113289
Zn3	Zn	1.801963	0.370807	0.220045
Zn4	Zn	1.135206	-0.420061	-0.314452
Zn5	Zn	1.468539	-0.086728	0.018881
Zn6	Zn	1.801873	0.246605	0.352215
Zn7	Zn	1.011114	-0.295866	-0.314493
Zn8	Zn	1.344448	0.037467	0.018840
Zn9	Zn	1.677781	0.370801	0.352174
Zn10	Zn	1.011064	-0.419989	-0.446624
Zn11	Zn	1.344397	-0.086655	-0.113291
Zn12	Zn	1.677730	0.246678	0.220043
O13	O	1.073170	-0.357944	-0.380548
O14	O	1.406503	-0.024611	-0.047214
O15	O	1.739837	0.308723	0.286119
O16	O	1.239209	-0.312363	-0.429071
O17	O	1.572542	0.020970	-0.095738
O18	O	1.905876	0.354304	0.237595
O19	O	1.118728	-0.403619	-0.203846
O20	O	1.452062	-0.070286	0.129487
O21	O	1.785395	0.263047	0.462820
O22	O	1.027647	-0.191941	-0.332037
O23	O	1.360980	0.141393	0.001297
O24	O	1.694313	0.474726	0.334630
O25	O	1.239142	-0.403613	-0.331966
O26	O	1.572476	-0.070280	0.001367
O27	O	1.905809	0.263053	0.334700
O28	O	1.118883	-0.191936	-0.429111
O29	O	1.452216	0.141397	-0.095778
O30	O	1.785549	0.474731	0.237556
O31	O	1.027559	-0.312374	-0.203877
O32	O	1.360892	0.020960	0.129457
O33	O	1.694226	0.354293	0.462790
O34	O	0.907183	-0.312304	-0.332039
O35	O	1.240516	0.021030	0.001295
O36	O	1.573850	0.354363	0.334628
O37	O	1.027560	-0.403490	-0.557235
O38	O	1.360893	-0.070157	-0.223901
O39	O	1.694227	0.263177	0.109432
O40	O	0.907146	-0.403496	-0.429115
O41	O	1.240479	-0.070163	-0.095781
O42	O	1.573812	0.263171	0.237552
O43	O	1.118833	-0.312293	-0.557233
O44	O	1.452167	0.021041	-0.223900
O45	O	1.785500	0.354374	0.109434
O46	O	1.118679	-0.523976	-0.331968
O47	O	1.452012	-0.190643	0.001365
O48	O	1.785346	0.142690	0.334698
O49	O	1.027472	-0.523923	-0.429075
O50	O	1.360806	-0.190590	-0.095741
O51	O	1.694139	0.142744	0.237592
C52	C	0.880218	-0.357893	-0.380582
C53	C	1.213551	-0.024560	-0.047248
C54	C	1.546885	0.308773	0.286085
C55	C	0.797672	-0.357889	-0.380615
C56	C	1.131006	-0.024556	-0.047282
C57	C	1.464339	0.308777	0.286052
C58	C	0.598223	-0.407622	-0.433280
C59	C	0.931556	-0.074289	-0.099946
C60	C	1.264889	0.259045	0.233387
C61	C	0.548830	-0.339904	-0.452725
C62	C	0.882163	-0.006571	-0.119392
C63	C	1.215496	0.326762	0.213942
C64	C	0.646542	-0.357931	-0.380576
C65	C	0.979875	-0.024598	-0.047243
C66	C	1.313208	0.308736	0.286090
C67	C	0.548853	-0.425687	-0.361130
C68	C	0.882186	-0.092354	-0.027797
C69	C	1.215520	0.240979	0.305536
C70	C	0.500557	-0.357977	-0.380541
C71	C	0.833890	-0.024644	-0.047207
C72	C	1.167223	0.308690	0.286126
C73	C	0.598236	-0.290177	-0.400060
C74	C	0.931569	0.043156	-0.066726
C75	C	1.264903	0.376489	0.266607
C76	C	0.598264	-0.376006	-0.308431
C77	C	0.931597	-0.042673	0.024902
C78	C	1.264930	0.290661	0.358236
C79	C	0.548893	-0.308242	-0.327849
C80	C	0.882226	0.025092	0.005484
C81	C	1.215560	0.358425	0.338817
C82	C	0.730640	-0.357905	-0.380599
C83	C	1.063973	-0.024572	-0.047266
C84	C	1.397307	0.308761	0.286068
C85	C	0.416460	-0.357995	-0.380518
C86	C	0.749794	-0.024661	-0.047185
C87	C	1.083127	0.308672	0.286149
C88	C	1.073080	-0.550896	-0.380535
C89	C	1.406414	-0.217563	-0.047201
C90	C	1.739747	0.115771	0.286132
C91	C	1.073110	-0.633442	-0.380555
C92	C	1.406443	-0.300109	-0.047222
C93	C	1.739777	0.033225	0.286111
C94	C	1.023561	-0.832891	-0.433343
C95	C	1.356894	-0.499557	-0.100010
C96	C	1.690227	-0.166224	0.233323
C97	C	1.005462	-0.882331	-0.361221
C98	C	1.338795	-0.548998	-0.027888
C99	C	1.672129	-0.215664	0.305445
C100	C	1.073183	-0.784572	-0.380566
C101	C	1.406516	-0.451239	-0.047232
C102	C	1.739850	-0.117906	0.286101
C103	C	1.091318	-0.882213	-0.452696
C104	C	1.424651	-0.548880	-0.119363
C105	C	1.757985	-0.215547	0.213971
C106	C	1.073252	-0.930557	-0.380582
C107	C	1.406585	-0.597224	-0.047249
C108	C	1.739919	-0.263891	0.286085
C109	C	1.055049	-0.832925	-0.308405
C110	C	1.388382	-0.499592	0.024928
C111	C	1.721716	-0.166259	0.358261
C112	C	1.140936	-0.832803	-0.399929
C113	C	1.474270	-0.499470	-0.066595
C114	C	1.807603	-0.166137	0.266738
C115	C	1.122864	-0.882222	-0.327757
C116	C	1.456197	-0.548888	0.005576
C117	C	1.789530	-0.215555	0.338910
C118	C	1.073141	-0.700474	-0.380557
C119	C	1.406475	-0.367141	-0.047224
C120	C	1.739808	-0.033807	0.286109
C121	C	1.073294	-1.014654	-0.380582
C122	C	1.406627	-0.681320	-0.047249
C123	C	1.739961	-0.347987	0.286084
C124	C	1.266876	-0.357995	-0.380514
C125	C	1.600209	-0.024662	-0.047181
C126	C	1.933542	0.308671	0.286153
C127	C	1.349421	-0.358017	-0.380500
C128	C	1.682755	-0.024684	-0.047166
C129	C	2.016088	0.308649	0.286167
C130	C	1.073201	-0.357882	-0.586716
C131	C	1.406534	-0.024549	-0.253383
C132	C	1.739868	0.308784	0.079951
C133	C	1.073214	-0.357856	-0.674573
C134	C	1.406548	-0.024523	-0.341239
C135	C	1.739881	0.308810	-0.007906
C136	C	1.073280	-0.164238	-0.380578
C137	C	1.406614	0.169095	-0.047245
C138	C	1.739947	0.502428	0.286089
C139	C	1.073327	-0.081693	-0.380591
C140	C	1.406661	0.251641	-0.047258
C141	C	1.739994	0.584974	0.286076
C142	C	1.025781	-0.405260	-1.046052
C143	C	1.359114	-0.071927	-0.712718
C144	C	1.692448	0.261407	-0.379385
C145	C	1.120825	-0.310296	-1.046045
C146	C	1.454158	0.023037	-0.712712
C147	C	1.787491	0.356371	-0.379378
C148	C	1.120805	-0.310312	-0.963499
C149	C	1.454138	0.023022	-0.630166
C150	C	1.787472	0.356355	-0.296833
C151	C	1.073273	-0.357803	-0.922226
C152	C	1.406607	-0.024470	-0.588892
C153	C	1.739940	0.308864	-0.255559
C154	C	1.025761	-0.405279	-0.963498
C155	C	1.359095	-0.071946	-0.630165
C156	C	1.692428	0.261388	-0.296831
C157	C	1.168321	-0.262842	-0.922221
C158	C	1.501655	0.070491	-0.588887
C159	C	1.834988	0.403825	-0.255554
C160	C	1.168304	-0.262856	-0.839670
C161	C	1.501637	0.070477	-0.506336
C162	C	1.834971	0.403810	-0.173003
C163	C	1.120768	-0.310345	-0.798395
C164	C	1.454101	0.022989	-0.465061
C165	C	1.787435	0.356322	-0.131728
C166	C	1.073254	-0.357822	-0.839672
C167	C	1.406587	-0.024488	-0.506339
C168	C	1.739920	0.308845	-0.173005
C169	C	1.025722	-0.405313	-0.798399
C170	C	1.359055	-0.071980	-0.465065
C171	C	1.692389	0.261353	-0.131732
C172	C	0.978203	-0.452787	-0.839675
C173	C	1.311537	-0.119454	-0.506341
C174	C	1.644870	0.213879	-0.173008
C175	C	0.978225	-0.452767	-0.922223
C176	C	1.311559	-0.119434	-0.588890
C177	C	1.644892	0.213899	-0.255556
C178	C	1.120746	-0.310365	-0.715846
C179	C	1.454079	0.022969	-0.382513
C180	C	1.787413	0.356302	-0.049179
C181	C	1.025702	-0.405332	-0.715845
C182	C	1.359036	-0.071999	-0.382512
C183	C	1.692369	0.261335	-0.049178
C184	C	1.073182	-0.357952	-0.175181
C185	C	1.406515	-0.024618	0.158152
C186	C	1.739849	0.308715	0.491485
C187	C	1.073313	-0.357769	-0.087325
C188	C	1.406646	-0.024435	0.246008
C189	C	1.739979	0.308898	0.579341
H190	H	0.619837	-0.232879	-0.416561
H191	H	0.953171	0.100454	-0.083228
H192	H	1.286504	0.433788	0.250106
H193	H	0.939506	-0.491458	-0.806059
H194	H	1.272840	-0.158125	-0.472726
H195	H	1.606173	0.175209	-0.139392
H196	H	1.207024	-0.224182	-0.955832
H197	H	1.540357	0.109152	-0.622498
H198	H	1.873690	0.442485	-0.289165
H199	H	1.206996	-0.224200	-0.806070
H200	H	1.540330	0.109134	-0.472736
H201	H	1.873663	0.442467	-0.139403
H202	H	0.527157	-0.482968	-0.344700
H203	H	0.860491	-0.149635	-0.011366
H204	H	1.193824	0.183698	0.321967
H205	H	1.159527	-0.271635	-1.079655
H206	H	1.492860	0.061699	-0.746322
H207	H	1.826194	0.395032	-0.412988
H208	H	0.986989	-0.443999	-0.682246
H209	H	1.320322	-0.110666	-0.348913
H210	H	1.653656	0.222667	-0.015579
C211	C	0.519808	-0.251439	-0.267622
C212	C	0.853142	0.081894	0.065711
C213	C	1.186475	0.415228	0.399044
H214	H	0.536809	-0.203368	-0.281553
H215	H	0.870142	0.129966	0.051780
H216	H	1.203476	0.463299	0.385114
H217	H	0.537483	-0.263852	-0.216540
H218	H	0.870816	0.069482	0.116793
H219	H	1.204149	0.402815	0.450127
H220	H	0.467182	-0.252045	-0.267633
H221	H	0.800515	0.081289	0.065700
H222	H	1.133848	0.414622	0.399033
H223	H	0.527116	-0.324631	-0.513722
H224	H	0.860449	0.008702	-0.180388
H225	H	1.193783	0.342036	0.152945
C226	C	0.925966	-0.504987	-0.967627
C227	C	1.259299	-0.171654	-0.634294
C228	C	1.592633	0.161680	-0.300961
H229	H	0.932793	-0.498179	-1.022701
H230	H	1.266126	-0.164846	-0.689368
H231	H	1.599460	0.168487	-0.356034
H232	H	0.876069	-0.494111	-0.954120
H233	H	1.209403	-0.160778	-0.620787
H234	H	1.542736	0.172555	-0.287453
H235	H	0.936809	-0.554894	-0.954083
H236	H	1.270143	-0.221560	-0.620749
H237	H	1.603476	0.111773	-0.287416
C238	C	1.179591	-0.911307	-0.267407
C239	C	1.512924	-0.577974	0.065926
C240	C	1.846257	-0.244641	0.399260
H241	H	1.166611	-0.894340	-0.216221
H242	H	1.499945	-0.561007	0.117113
H243	H	1.833278	-0.227674	0.450446
H244	H	1.227551	-0.893600	-0.280719
H245	H	1.560885	-0.560266	0.052615
H246	H	1.894218	-0.226933	0.385948
H247	H	1.179592	-0.963934	-0.268040
H248	H	1.512925	-0.630600	0.065294
H249	H	1.846259	-0.297267	0.398627
C250	C	1.112035	-0.911424	-0.535096
C251	C	1.445368	-0.578091	-0.201762
C252	C	1.778701	-0.244758	0.131571
H253	H	1.155878	-0.940339	-0.531556
H254	H	1.489212	-0.607006	-0.198223
H255	H	1.822545	-0.273673	0.135111
H256	H	1.120220	-0.870810	-0.569656
H257	H	1.453554	-0.537476	-0.236323
H258	H	1.786887	-0.204143	0.097011
H259	H	1.072789	-0.941147	-0.554908
H260	H	1.406122	-0.607813	-0.221575
H261	H	1.739456	-0.274480	0.111759
H262	H	0.987090	-0.443910	-1.079662
H263	H	1.320424	-0.110577	-0.746329
H264	H	1.653757	0.222757	-0.412996
C265	C	1.173005	-0.258147	-0.670446
C266	C	1.506339	0.075187	-0.337113
C267	C	1.839672	0.408520	-0.003779
H268	H	1.201314	-0.229858	-0.706850
H269	H	1.534647	0.103476	-0.373517
H270	H	1.867980	0.436809	-0.040183
H271	H	1.205338	-0.286568	-0.638222
H272	H	1.538671	0.046766	-0.304889
H273	H	1.872004	0.380099	0.028444
H274	H	1.144600	-0.225784	-0.638265
H275	H	1.477933	0.107550	-0.304932
H276	H	1.811266	0.440883	0.028401
C277	C	1.218290	-0.803417	-0.422064
C278	C	1.551624	-0.470084	-0.088730
C279	C	1.884957	-0.136750	0.244603
H280	H	1.231083	-0.820270	-0.473346
H281	H	1.564417	-0.486937	-0.140013
H282	H	1.897750	-0.153603	0.193321
H283	H	1.253669	-0.821060	-0.385091
H284	H	1.587003	-0.487727	-0.051757
H285	H	1.920336	-0.154393	0.281576
H286	H	1.217839	-0.750793	-0.421426
H287	H	1.551172	-0.417459	-0.088093
H288	H	1.884506	-0.084126	0.245240
C289	C	0.627626	-0.396665	-0.226057
C290	C	0.960960	-0.063332	0.107276
C291	C	1.294293	0.270001	0.440610
H292	H	0.610749	-0.444831	-0.212329
H293	H	0.944082	-0.111498	0.121004
H294	H	1.277415	0.221835	0.454337
H295	H	0.610002	-0.361875	-0.188472
H296	H	0.943336	-0.028542	0.144861
H297	H	1.276669	0.304791	0.478195
H298	H	0.680251	-0.396054	-0.226556
H299	H	1.013584	-0.062721	0.106777
H300	H	1.346918	0.270613	0.440110
H301	H	0.619885	-0.449570	-0.477899
H302	H	0.953218	-0.116237	-0.144566
H303	H	1.286552	0.217096	0.188768
C304	C	0.966792	-0.803621	-0.493550
C305	C	1.300125	-0.470287	-0.160216
C306	C	1.633459	-0.136954	0.173117
H307	H	0.918699	-0.820581	-0.479665
H308	H	1.252032	-0.487248	-0.146332
H309	H	1.585366	-0.153915	0.187001
H310	H	0.979177	-0.821221	-0.544654
H311	H	1.312511	-0.487887	-0.211320
H312	H	1.645844	-0.154554	0.122013
H313	H	0.967469	-0.750995	-0.493458
H314	H	1.300802	-0.417662	-0.160125
H315	H	1.634135	-0.084328	0.173208
H316	H	1.039672	-0.811365	-0.247395
H317	H	1.373005	-0.478031	0.085938
H318	H	1.706338	-0.144698	0.419271
C319	C	0.928102	-0.911724	-0.339099
C320	C	1.261436	-0.578390	-0.005766
C321	C	1.594769	-0.245057	0.327568
H322	H	0.892876	-0.894838	-0.376643
H323	H	1.226209	-0.561505	-0.043310
H324	H	1.559542	-0.228171	0.290024
H325	H	0.914902	-0.894123	-0.288227
H326	H	1.248235	-0.560790	0.045106
H327	H	1.581568	-0.227456	0.378439
H328	H	0.928801	-0.964348	-0.338798
H329	H	1.262135	-0.631015	-0.005465
H330	H	1.595468	-0.297682	0.327869
