data_functionalizedCrystal
_audit_creation_method	'MofGen! by Chris Wilmer'
_symmetry_space_group_name_H-M	'P1'
_symmetry_Int_Tables_number	1
_symmetry_cell_setting	triclinic
loop_
_symmetry_equiv_pos_as_xyz
  x,y,z
_cell_length_a	14.044191
_cell_length_b	14.044220
_cell_length_c	13.101018
_cell_angle_alpha	86.335600
_cell_angle_beta	93.666878
_cell_angle_gamma	93.190327
loop_
_atom_site_label
_atom_site_type_symbol
_atom_site_fract_x
_atom_site_fract_y
_atom_site_fract_z
O1	O	1.281983	0.225382	0.085170
O2	O	1.005311	0.217069	0.085182
O3	O	1.139494	0.082890	0.085166
O4	O	1.147800	0.359561	0.085186
O5	O	1.129855	0.092525	-0.085263
O6	O	0.995672	0.226704	-0.085247
O7	O	1.272344	0.235017	-0.085260
Zn8	Zn	1.132478	0.232390	-0.112313
Zn9	Zn	1.145177	0.219695	0.112235
O10	O	1.138162	0.369196	-0.085243
C11	C	0.964870	0.218250	-0.000031
C12	C	0.858727	0.207402	-0.000026
C13	C	1.131038	0.052086	-0.000049
C14	C	1.120194	-0.054057	-0.000050
C15	C	0.613268	0.264503	-0.000032
C16	C	0.664393	0.187587	-0.000036
C17	C	0.772531	0.198615	-0.000031
C18	C	0.505121	0.253476	-0.000038
C19	C	1.100368	-0.248396	-0.000034
C20	C	1.177283	-0.299524	-0.000034
C21	C	1.166252	-0.407661	-0.000026
C22	C	1.111398	-0.140250	-0.000043
C23	C	1.312785	0.233836	-0.000044
C24	C	1.418929	0.244683	-0.000042
C25	C	1.146617	0.400000	-0.000026
C26	C	1.157462	0.506143	-0.000019
N27	N	1.123818	0.241054	-0.265560
C28	C	1.165622	0.199233	-0.525475
C29	C	1.112043	0.252843	-0.474596
C30	C	1.118596	0.246282	-0.358278
C31	C	1.159070	0.205793	-0.641804
N32	N	1.153844	0.211025	0.265483
H33	H	0.626954	0.113451	0.000031
H34	H	1.216410	0.148412	-0.481681
O35	O	1.051375	0.313506	-0.526680
C36	C	1.002868	0.362087	-0.456464
H37	H	1.002689	0.318604	-0.379954
H38	H	1.040547	0.434992	-0.445089
C39	C	0.899444	0.428814	-0.592454
C40	C	0.899218	0.375404	-0.498485
H41	H	0.835510	0.437034	-0.618375
H42	H	0.932126	0.396088	-0.639760
H43	H	0.930848	0.489563	-0.582962
H44	H	0.867826	0.314653	-0.507980
H45	H	0.866529	0.408121	-0.451181
O46	O	0.658084	0.352865	0.000028
C47	C	0.757640	0.344342	0.000008
H48	H	0.776416	0.269952	0.032261
H49	H	0.781144	0.355894	-0.081753
C50	C	0.786214	0.511282	0.027247
C51	C	0.809276	0.419917	0.066870
H52	H	0.818068	0.557902	0.068487
H53	H	0.719142	0.517025	0.027258
H54	H	0.805802	0.520895	-0.040886
H55	H	0.789678	0.410301	0.134996
H56	H	0.876347	0.414173	0.066873
H57	H	1.026241	-0.285836	-0.000028
O58	O	1.265653	-0.254711	-0.000094
C59	C	1.257142	-0.155153	-0.000076
H60	H	1.182754	-0.136370	-0.032332
H61	H	1.268699	-0.131644	0.081683
C62	C	1.424084	-0.126601	-0.027312
C63	C	1.332722	-0.103530	-0.066938
H64	H	1.470707	-0.094756	-0.068551
H65	H	1.429820	-0.193675	-0.027320
H66	H	1.433702	-0.107009	0.040820
H67	H	1.323101	-0.123133	-0.135064
H68	H	1.326986	-0.036458	-0.066943
