data_functionalizedCrystal
_audit_creation_method	'MofGen! by Chris Wilmer'
_symmetry_space_group_name_H-M	'P1'
_symmetry_Int_Tables_number	1
_symmetry_cell_setting	triclinic
loop_
_symmetry_equiv_pos_as_xyz
  x,y,z
_cell_length_a	15.625711
_cell_length_b	17.766277
_cell_length_c	19.288868
_cell_angle_alpha	89.994224
_cell_angle_beta	83.719842
_cell_angle_gamma	108.061279
loop_
_atom_site_label
_atom_site_type_symbol
_atom_site_fract_x
_atom_site_fract_y
_atom_site_fract_z
O1	O	-1.195669	-0.263605	-0.090761
O2	O	-0.933189	-0.191995	-0.101547
O3	O	-1.072012	-0.229872	0.004950
O4	O	-1.056846	-0.225727	-0.197258
O5	O	-1.071987	-0.355054	0.004955
O6	O	-0.933165	-0.317176	-0.101542
O7	O	-1.195644	-0.388787	-0.090756
Cu8	Cu	-1.064402	-0.364412	-0.096148
Cu9	Cu	-1.064431	-0.216370	-0.096155
O10	O	-1.056822	-0.350909	-0.197253
C11	C	-0.899596	-0.245424	-0.101053
C12	C	-0.799537	-0.218126	-0.099580
C13	C	-0.470293	-0.469436	-0.094758
C14	C	-0.376270	-0.443749	-0.093387
C15	C	-0.376343	-0.307294	-0.093394
C16	C	-0.470368	-0.332968	-0.094768
C17	C	-0.517336	-0.414040	-0.095449
C18	C	-0.517410	-0.277573	-0.095459
C19	C	-0.611428	-0.303246	-0.096829
C20	C	-0.658403	-0.384315	-0.097508
C21	C	-0.611353	-0.439713	-0.096819
C22	C	-0.470441	-0.196502	-0.094773
C23	C	-0.517484	-0.141107	-0.095464
C24	C	-0.611502	-0.166779	-0.096839
C25	C	-0.658477	-0.247848	-0.097518
C26	C	-0.658551	-0.111381	-0.097528
C27	C	-0.752569	-0.137054	-0.098899
C28	C	-0.752494	-0.273521	-0.098888
C29	C	-0.229238	-0.335367	-0.091245
C30	C	-0.329300	-0.362694	-0.092703
N31	N	-1.064389	-0.468538	-0.096143
C32	C	-1.057323	-0.288450	-0.223134
C33	C	-1.058789	-0.288847	-0.300242
C34	C	-1.125879	-0.524703	-0.049010
C35	C	-1.125884	-0.603506	-0.049006
C36	C	-1.064408	-0.626144	-0.096149
C37	C	-1.002906	-0.569967	-0.143286
C38	C	-1.002896	-0.491164	-0.143283
C39	C	-1.052342	-0.747688	-0.159395
C40	C	-1.052357	-0.826491	-0.159399
C41	C	-1.064432	-0.869197	-0.096157
C42	C	-1.076510	-0.833095	-0.032909
C43	C	-1.076500	-0.754292	-0.032907
C44	C	-1.064411	-0.711591	-0.096157
C45	C	-1.125931	-1.010810	-0.049016
C46	C	-1.125930	-1.089613	-0.049012
C47	C	-1.002956	-1.056073	-0.143298
C48	C	-1.002953	-0.977271	-0.143296
C49	C	-1.064445	-0.954645	-0.096156
N50	N	-1.064452	-0.112245	-0.096154
C51	C	-1.069380	-0.223507	-0.855845
C52	C	-1.067996	-0.223126	-0.783394
C53	C	-1.067294	-0.291175	-0.747160
C54	C	-1.067954	-0.359603	-0.783384
C55	C	-1.069329	-0.359979	-0.855835
C56	C	-1.117899	-0.357262	-0.627107
C57	C	-1.116530	-0.356884	-0.554657
C58	C	-1.063049	-0.290016	-0.523698
C59	C	-1.010949	-0.223516	-0.565198
C60	C	-1.012324	-0.223892	-0.637648
C61	C	-1.065803	-0.290774	-0.668599
C62	C	-1.060882	-0.221178	-0.408923
C63	C	-1.059492	-0.220798	-0.336472
C64	C	-1.059459	-0.357280	-0.336462
C65	C	-1.060840	-0.357654	-0.408913
C66	C	-1.061556	-0.289603	-0.445139
C67	C	-1.071511	-0.292329	0.030831
C68	C	-1.070045	-0.291927	0.107939
H69	H	-0.734958	-0.405217	-0.098623
C70	C	-0.881346	-0.528900	-0.236474
C71	C	-0.935326	-0.594845	-0.195104
H72	H	-0.839617	-0.544258	-0.268460
H73	H	-0.918755	-0.508360	-0.261516
H74	H	-0.849046	-0.489363	-0.207502
H75	H	-0.967631	-0.634380	-0.224076
H76	H	-0.897912	-0.615396	-0.170061
C77	C	-0.979871	-0.084551	-0.545964
C78	C	-0.952150	-0.150008	-0.531182
H79	H	-0.943575	-0.039174	-0.524958
H80	H	-0.973238	-0.075265	-0.595046
H81	H	-1.041600	-0.094819	-0.527901
H82	H	-0.890422	-0.139743	-0.549249
H83	H	-0.958775	-0.159295	-0.482090
H84	H	-0.952897	-1.074503	-0.181679
C85	C	-1.059704	-0.085944	-0.343758
C86	C	-1.058775	-0.145588	-0.296659
H87	H	-1.059271	-0.039515	-0.319177
H88	H	-1.007688	-0.074578	-0.377254
H89	H	-1.112794	-0.103287	-0.366778
H90	H	-1.005682	-0.128248	-0.273643
H91	H	-1.110796	-0.156954	-0.263151
H92	H	-0.952885	-0.931539	-0.181679
H93	H	-0.393886	-0.175601	-0.093661
C94	C	-0.993307	-0.123589	-0.944970
C95	C	-1.070038	-0.148644	-0.895634
H96	H	-0.993682	-0.077356	-0.969528
H97	H	-0.940263	-0.112040	-0.921910
H98	H	-0.993948	-0.164376	-0.976940
H99	H	-1.069394	-0.107858	-0.863662
H100	H	-1.123095	-0.160189	-0.918695
C101	C	-1.139960	-0.163574	-0.482649
C102	C	-1.061683	-0.146375	-0.448736
H103	H	-1.140462	-0.117391	-0.507219
H104	H	-1.140546	-0.204363	-0.514596
H105	H	-1.191959	-0.180618	-0.449129
H106	H	-1.009684	-0.129336	-0.482257
H107	H	-1.061089	-0.105572	-0.416787
C108	C	-0.478241	-0.014065	-0.154719
C109	C	-0.465851	-0.051994	-0.094721
H110	H	-0.446369	0.040951	-0.154259
H111	H	-0.455789	-0.035979	-0.194953
H112	H	-0.540969	-0.021432	-0.155627
H113	H	-0.403122	-0.044632	-0.093816
H114	H	-0.488298	-0.030072	-0.054476
C115	C	-1.247443	-0.628752	0.044187
C116	C	-1.193476	-0.665255	0.002809
H117	H	-1.289173	-0.666874	0.076173
H118	H	-1.210026	-0.587822	0.069229
H119	H	-1.279743	-0.606817	0.015221
H120	H	-1.161171	-0.687185	0.031775
H121	H	-1.230898	-0.706199	-0.022234
C122	C	-0.337100	-0.180252	-0.152649
C123	C	-0.324710	-0.218181	-0.092651
H124	H	-0.305228	-0.125236	-0.152189
H125	H	-0.314648	-0.202166	-0.192883
H126	H	-0.399829	-0.187619	-0.153556
H127	H	-0.261981	-0.210819	-0.091746
H128	H	-0.347157	-0.196259	-0.052406
C129	C	-1.057302	-0.417293	-0.225404
C130	C	-1.058662	-0.432074	-0.296644
H131	H	-1.056805	-0.463470	-0.200822
H132	H	-1.004542	-0.374849	-0.218786
H133	H	-1.109648	-0.403550	-0.208289
H134	H	-1.006313	-0.445812	-0.313760
H135	H	-1.111428	-0.474532	-0.303267
C136	C	-1.013887	-0.904634	0.042405
C137	C	-1.089783	-0.880020	0.036617
H138	H	-1.022084	-0.933600	0.085330
H139	H	-1.006705	-0.937416	0.004749
H140	H	-0.961402	-0.859576	0.041075
H141	H	-1.142268	-0.925079	0.037942
H142	H	-1.096975	-0.847237	0.074283
C143	C	-1.179382	-1.001062	0.071144
C144	C	-1.193511	-0.985898	0.002780
H145	H	-1.221100	-0.985670	0.103112
H146	H	-1.188212	-1.056027	0.077911
H147	H	-1.119253	-0.971762	0.078772
H148	H	-1.253639	-1.015203	-0.004850
H149	H	-1.184688	-0.930923	-0.003990
H150	H	-0.790737	-0.339537	-0.099454
C151	C	-1.020422	-0.714774	0.076814
C152	C	-1.089755	-0.714612	0.036616
H153	H	-1.028599	-0.690273	0.119734
H154	H	-1.022166	-0.767815	0.085857
H155	H	-0.963480	-0.686331	0.052117
H156	H	-1.146697	-0.743060	0.061311
H157	H	-1.088019	-0.661562	0.027575
H158	H	-1.176000	-1.135344	-0.010626
C159	C	-0.988923	-0.417212	-0.709624
C160	C	-1.067182	-0.434403	-0.743558
H161	H	-0.988447	-0.463392	-0.685035
H162	H	-0.936917	-0.400186	-0.743128
H163	H	-0.988341	-0.376408	-0.677685
H164	H	-1.067761	-0.475204	-0.775501
H165	H	-1.119201	-0.451440	-0.710051
H166	H	-1.042529	-0.855880	-0.210899
H167	H	-0.952823	-0.445432	-0.181666
C168	C	-1.108419	-0.738686	-0.269117
C169	C	-1.039081	-0.700747	-0.228913
H170	H	-1.100236	-0.709703	-0.312030
H171	H	-1.106686	-0.790774	-0.278173
H172	H	-1.165358	-0.741299	-0.244416
H173	H	-0.982142	-0.698139	-0.253612
H174	H	-1.040805	-0.648645	-0.219859
C175	C	-1.060689	-0.492523	-0.401623
C176	C	-1.061591	-0.432871	-0.448724
H177	H	-1.061157	-0.538961	-0.426201
H178	H	-1.007601	-0.475203	-0.378610
H179	H	-1.112707	-0.503867	-0.368119
H180	H	-1.009569	-0.421522	-0.482225
H181	H	-1.114684	-0.450194	-0.471748
H182	H	-1.067449	-0.167407	-0.753902
C183	C	-0.893276	-0.172125	-0.731165
C184	C	-0.955058	-0.150805	-0.683269
H185	H	-0.857926	-0.127004	-0.759332
H186	H	-0.854670	-0.191812	-0.706694
H187	H	-0.925336	-0.212009	-0.759960
H188	H	-0.922998	-0.110925	-0.654470
H189	H	-0.993670	-0.131106	-0.707741
H190	H	-1.158956	-0.411030	-0.520873
H191	H	-1.161449	-0.411719	-0.652306
C192	C	-0.601847	-0.572037	-0.096672
C193	C	-0.662990	-0.528830	-0.097567
H194	H	-0.633729	-0.627050	-0.097128
H195	H	-0.558157	-0.557272	-0.136609
H196	H	-0.572201	-0.561098	-0.055665
H197	H	-0.692632	-0.539764	-0.138577
H198	H	-0.706697	-0.543601	-0.057626
C199	C	-0.385643	-0.581224	-0.093518
C200	C	-0.324559	-0.504647	-0.092631
H201	H	-0.353717	-0.618817	-0.093054
H202	H	-0.429339	-0.590315	-0.053584
H203	H	-0.415289	-0.586477	-0.134528
H204	H	-0.294918	-0.499392	-0.051618
H205	H	-0.280847	-0.495553	-0.132569
C206	C	-1.069155	-0.494844	-0.848547
C207	C	-1.070066	-0.435194	-0.895647
H208	H	-1.069616	-0.541280	-0.873127
H209	H	-1.016068	-0.477520	-0.825534
H210	H	-1.121174	-0.506196	-0.815044
H211	H	-1.018043	-0.423839	-0.929147
H212	H	-1.123158	-0.452521	-0.918672
H213	H	-0.620297	-0.045372	-0.096967
C214	C	-0.771234	-0.025828	-0.159004
C215	C	-0.804289	-0.076169	-0.099667
H216	H	-0.803170	0.011756	-0.159478
H217	H	-0.708529	0.001067	-0.158084
H218	H	-0.779599	-0.056167	-0.199691
H219	H	-0.795917	-0.045830	-0.058980
H220	H	-0.867009	-0.103065	-0.100580
H221	H	-0.508536	-0.535452	-0.095323
H222	H	-1.175948	-0.506284	-0.010624
