data_functionalizedCrystal
_audit_creation_method	'MofGen! by Chris Wilmer'
_symmetry_space_group_name_H-M	'P1'
_symmetry_Int_Tables_number	1
_symmetry_cell_setting	triclinic
loop_
_symmetry_equiv_pos_as_xyz
  x,y,z
_cell_length_a	13.897449
_cell_length_b	16.625546
_cell_length_c	13.897441
_cell_angle_alpha	89.967525
_cell_angle_beta	89.981404
_cell_angle_gamma	90.023748
loop_
_atom_site_label
_atom_site_type_symbol
_atom_site_fract_x
_atom_site_fract_y
_atom_site_fract_z
Zn1	Zn	1.474650	-0.320956	-0.545362
Zn2	Zn	1.724650	-0.070956	-0.295362
Zn3	Zn	1.974650	0.179044	-0.045362
Zn4	Zn	2.224650	0.429044	0.204638
Zn5	Zn	1.474537	-0.455804	-0.384055
Zn6	Zn	1.724537	-0.205804	-0.134055
Zn7	Zn	1.974537	0.044196	0.115945
Zn8	Zn	2.224537	0.294196	0.365945
Zn9	Zn	1.313345	-0.320992	-0.384080
Zn10	Zn	1.563345	-0.070992	-0.134080
Zn11	Zn	1.813345	0.179008	0.115920
Zn12	Zn	2.063345	0.429008	0.365920
Zn13	Zn	1.313308	-0.455753	-0.545308
Zn14	Zn	1.563308	-0.205753	-0.295308
Zn15	Zn	1.813308	0.044247	-0.045308
Zn16	Zn	2.063308	0.294247	0.204692
O17	O	1.393960	-0.388376	-0.464702
O18	O	1.643960	-0.138376	-0.214702
O19	O	1.893960	0.111624	0.035298
O20	O	2.143960	0.361624	0.285298
O21	O	1.609617	-0.338850	-0.523977
O22	O	1.859617	-0.088850	-0.273977
O23	O	2.109617	0.161150	-0.023977
O24	O	2.359617	0.411150	0.226023
O25	O	1.453123	-0.437957	-0.249077
O26	O	1.703123	-0.187957	0.000923
O27	O	1.953123	0.062043	0.250923
O28	O	2.203123	0.312043	0.500923
O29	O	1.334806	-0.208155	-0.405508
O30	O	1.584806	0.041845	-0.155508
O31	O	1.834806	0.291845	0.094492
O32	O	2.084806	0.541845	0.344492
O33	O	1.609533	-0.437922	-0.405465
O34	O	1.859533	-0.187922	-0.155465
O35	O	2.109533	0.062078	0.094535
O36	O	2.359533	0.312078	0.344535
O37	O	1.453316	-0.208129	-0.524001
O38	O	1.703316	0.041871	-0.274001
O39	O	1.953316	0.291871	-0.024001
O40	O	2.203316	0.541871	0.225999
O41	O	1.334696	-0.338912	-0.249095
O42	O	1.584696	-0.088912	0.000905
O43	O	1.834696	0.161088	0.250905
O44	O	2.084696	0.411088	0.500905
O45	O	1.178359	-0.338862	-0.405455
O46	O	1.428359	-0.088862	-0.155455
O47	O	1.678359	0.161138	0.094545
O48	O	1.928359	0.411138	0.344545
O49	O	1.334742	-0.437836	-0.680297
O50	O	1.584742	-0.187836	-0.430297
O51	O	1.834742	0.062164	-0.180297
O52	O	2.084742	0.312164	0.069703
O53	O	1.178331	-0.437871	-0.523909
O54	O	1.428331	-0.187871	-0.273909
O55	O	1.678331	0.062129	-0.023909
O56	O	1.928331	0.312129	0.226091
O57	O	1.453279	-0.338801	-0.680337
O58	O	1.703279	-0.088801	-0.430337
O59	O	1.953279	0.161199	-0.180337
O60	O	2.203279	0.411199	0.069663
O61	O	1.453086	-0.568630	-0.405413
O62	O	1.703086	-0.318630	-0.155413
O63	O	1.953086	-0.068630	0.094587
O64	O	2.203086	0.181370	0.344587
O65	O	1.334632	-0.568593	-0.523884
O66	O	1.584632	-0.318593	-0.273884
O67	O	1.834632	-0.068593	-0.023884
O68	O	2.084632	0.181407	0.226116
C69	C	1.143346	-0.388366	-0.464680
C70	C	1.393346	-0.138366	-0.214680
C71	C	1.643346	0.111634	0.035320
C72	C	1.893346	0.361634	0.285320
C73	C	1.036132	-0.388381	-0.464693
C74	C	1.286132	-0.138381	-0.214693
C75	C	1.536132	0.111619	0.035307
C76	C	1.786132	0.361619	0.285307
C77	C	0.839837	-0.388383	-0.464718
C78	C	1.089837	-0.138383	-0.214718
C79	C	1.339837	0.111617	0.035282
C80	C	1.589837	0.361617	0.285282
C81	C	0.949069	-0.388379	-0.464702
C82	C	1.199069	-0.138379	-0.214702
C83	C	1.449069	0.111621	0.035298
C84	C	1.699069	0.361621	0.285298
C85	C	1.393869	-0.597867	-0.464661
C86	C	1.643869	-0.347867	-0.214661
C87	C	1.893869	-0.097867	0.035339
C88	C	2.143869	0.152133	0.285339
C89	C	1.393918	-0.687488	-0.464676
C90	C	1.643918	-0.437488	-0.214676
C91	C	1.893918	-0.187488	0.035324
C92	C	2.143918	0.062512	0.285324
C93	C	1.394086	-1.015664	-0.464777
C94	C	1.644086	-0.765664	-0.214777
C95	C	1.894086	-0.515664	0.035223
C96	C	2.144086	-0.265664	0.285223
C97	C	1.394036	-0.924356	-0.464751
C98	C	1.644036	-0.674356	-0.214751
C99	C	1.894036	-0.424356	0.035249
C100	C	2.144036	-0.174356	0.285249
C101	C	1.394001	-0.851579	-0.464726
C102	C	1.644001	-0.601579	-0.214726
C103	C	1.894001	-0.351579	0.035274
C104	C	2.144001	-0.101579	0.285274
C105	C	1.393953	-0.760265	-0.464702
C106	C	1.643953	-0.510265	-0.214702
C107	C	1.893953	-0.260265	0.035298
C108	C	2.143953	-0.010265	0.285298
C109	C	1.645553	-0.388388	-0.464724
C110	C	1.895553	-0.138388	-0.214724
C111	C	2.145553	0.111612	0.035276
C112	C	2.395553	0.361612	0.285276
C113	C	1.752767	-0.388393	-0.464734
C114	C	2.002767	-0.138393	-0.214734
C115	C	2.252767	0.111607	0.035266
C116	C	2.502767	0.361607	0.285266
C117	C	1.394019	-0.388309	-0.716295
C118	C	1.644019	-0.138309	-0.466295
C119	C	1.894019	0.111691	-0.216295
C120	C	2.144019	0.361691	0.033705
C121	C	1.394044	-0.388280	-0.823509
C122	C	1.644044	-0.138280	-0.573509
C123	C	1.894044	0.111720	-0.323509
C124	C	2.144044	0.361720	-0.073509
C125	C	1.394078	-0.178068	-0.464763
C126	C	1.644078	0.071932	-0.214763
C127	C	1.894078	0.321932	0.035237
C128	C	2.144078	0.571932	0.285237
C129	C	1.394128	-0.088446	-0.464789
C130	C	1.644128	0.161554	-0.214789
C131	C	1.894128	0.411554	0.035211
C132	C	2.144128	0.661554	0.285211
C133	C	1.394064	-0.388257	-0.910578
C134	C	1.644064	-0.138257	-0.660578
C135	C	1.894064	0.111743	-0.410578
C136	C	2.144064	0.361743	-0.160578
C137	C	1.394092	-0.388221	-1.019811
C138	C	1.644092	-0.138221	-0.769811
C139	C	1.894092	0.111779	-0.519811
C140	C	2.144092	0.361779	-0.269811
C141	C	1.393957	-0.388386	-0.214087
C142	C	1.643957	-0.138386	0.035913
C143	C	1.893957	0.111614	0.285913
C144	C	2.143957	0.361614	0.535913
C145	C	1.394118	-0.388187	-0.106874
C146	C	1.644118	-0.138187	0.143126
C147	C	1.894118	0.111813	0.393126
C148	C	2.144118	0.361813	0.643126
