data_functionalizedCrystal
_audit_creation_method	'MofGen! by Chris Wilmer'
_symmetry_space_group_name_H-M	'P1'
_symmetry_Int_Tables_number	1
_symmetry_cell_setting	triclinic
loop_
_symmetry_equiv_pos_as_xyz
  x,y,z
_cell_length_a	13.448316
_cell_length_b	14.971486
_cell_length_c	14.971494
_cell_angle_alpha	83.615843
_cell_angle_beta	89.995115
_cell_angle_gamma	89.995036
loop_
_atom_site_label
_atom_site_type_symbol
_atom_site_fract_x
_atom_site_fract_y
_atom_site_fract_z
O1	O	-0.082647	1.186951	0.116564
O2	O	-0.082657	0.926551	0.130523
O3	O	-0.082649	1.063726	-0.006656
O4	O	-0.082654	1.049776	0.253743
O5	O	0.082734	1.063709	-0.006664
O6	O	0.082727	0.926534	0.130515
O7	O	0.082737	1.186934	0.116556
Cu8	Cu	0.097833	1.056732	0.123534
Cu9	Cu	-0.097753	1.056753	0.123544
O10	O	0.082729	1.049758	0.253735
C11	C	0.000033	0.893218	0.129895
C12	C	0.000029	0.793921	0.128024
N13	N	0.235397	1.056724	0.123527
C14	C	0.000041	1.063093	-0.039985
C15	C	0.000036	1.061219	-0.139281
N16	N	-0.235317	1.056768	0.123545
C17	C	0.287441	1.117484	0.062809
C18	C	0.391544	1.117490	0.062808
C19	C	0.443602	1.056739	0.123530
C20	C	0.391551	0.995973	0.184251
C21	C	0.287449	0.995963	0.184247
C22	C	0.608531	0.995997	0.184257
C23	C	0.712639	0.996007	0.184263
C24	C	0.712626	1.117524	0.062819
C25	C	0.608524	1.117515	0.062814
C26	C	0.556480	1.056749	0.123536
C27	C	0.000045	1.220267	0.117184
C28	C	0.000042	1.319564	0.119055
C29	C	0.000040	1.376787	0.038466
C30	C	0.000044	1.470087	0.040229
C31	C	0.000042	1.506161	0.122582
C32	C	0.000047	1.448931	0.203177
C33	C	0.000050	1.355633	0.201413
C34	C	0.000037	1.643394	0.206848
C35	C	0.000031	1.736698	0.208613
C36	C	0.000030	1.757847	0.045664
C37	C	0.000034	1.664549	0.043900
C38	C	0.000037	1.607325	0.124496
C39	C	-0.090116	1.060350	-0.185921
C40	C	-0.090117	1.058584	-0.279221
C41	C	0.000035	1.057693	-0.325879
C42	C	0.090194	1.058559	-0.279232
C43	C	0.090194	1.060319	-0.185933
C44	C	0.090187	1.054893	-0.473695
C45	C	0.090187	1.053135	-0.567000
C46	C	-0.090124	1.053158	-0.566982
C47	C	-0.090124	1.054918	-0.473684
C48	C	0.000036	1.055786	-0.427043
C49	C	0.000037	1.050392	0.287064
C50	C	0.000035	1.052266	0.386360
H51	H	0.433918	1.166965	0.013367
O52	O	0.187428	1.057594	-0.329556
H53	H	0.250117	1.058485	-0.281446
O54	O	0.000060	1.293914	0.288337
H55	H	0.000076	1.222978	0.273277
O56	O	0.231303	0.930420	0.249721
H57	H	0.183843	0.968101	0.293251
O58	O	0.552376	1.183039	-0.002678
H59	H	0.504958	1.145333	-0.046207
O60	O	0.000041	1.775614	0.297433
H61	H	0.000061	1.720150	0.353180
O62	O	0.231309	1.183003	-0.002703
H63	H	0.183901	1.145290	-0.046233
O64	O	-0.187351	1.061304	-0.135597
H65	H	-0.250039	1.060391	-0.183706
O66	O	0.447699	0.930455	0.249750
H67	H	0.394017	0.888200	0.291968
H68	H	0.755006	1.167001	0.013377
H69	H	0.755019	0.946537	0.233708
O70	O	0.000041	1.581678	0.293780
H71	H	0.067456	1.538670	0.296876
O72	O	0.187428	1.061266	-0.135623
H73	H	0.250117	1.060361	-0.183741
H74	H	-0.163528	1.057880	-0.317191
H75	H	0.000046	1.516674	-0.025394
H76	H	0.000036	1.347423	-0.028595
O77	O	-0.187355	1.055870	-0.423352
H78	H	-0.250049	1.054959	-0.471455
O79	O	0.552391	0.930463	0.249753
H80	H	0.606077	0.888228	0.291986
O81	O	-0.187372	1.052212	-0.617277
H82	H	-0.172230	1.050826	-0.689990
H83	H	0.000051	1.478310	0.270231
O84	O	0.187418	1.052159	-0.617328
H85	H	0.250112	1.053042	-0.569222
O86	O	0.187427	1.055838	-0.423385
H87	H	0.250116	1.054935	-0.471504
O88	O	0.000045	1.625633	-0.044920
H89	H	0.000055	1.681097	-0.100667
O90	O	0.000038	1.819559	-0.041268
H91	H	0.000049	1.890496	-0.026210
