data_functionalizedCrystal
_audit_creation_method	'MofGen! by Chris Wilmer'
_symmetry_space_group_name_H-M	'P1'
_symmetry_Int_Tables_number	1
_symmetry_cell_setting	triclinic
loop_
_symmetry_equiv_pos_as_xyz
  x,y,z
_cell_length_a	18.050591
_cell_length_b	18.050589
_cell_length_c	18.050582
_cell_angle_alpha	89.981795
_cell_angle_beta	89.989456
_cell_angle_gamma	90.027061
loop_
_atom_site_label
_atom_site_type_symbol
_atom_site_fract_x
_atom_site_fract_y
_atom_site_fract_z
Zn1	Zn	1.135292	-0.295730	-0.419848
Zn2	Zn	1.385292	-0.045730	-0.169848
Zn3	Zn	1.635292	0.204270	0.080152
Zn4	Zn	1.885292	0.454270	0.330152
Zn5	Zn	1.135203	-0.419913	-0.295668
Zn6	Zn	1.385203	-0.169913	-0.045668
Zn7	Zn	1.635203	0.080087	0.204332
Zn8	Zn	1.885203	0.330087	0.454332
Zn9	Zn	1.011112	-0.295739	-0.295682
Zn10	Zn	1.261112	-0.045739	-0.045682
Zn11	Zn	1.511112	0.204261	0.204318
Zn12	Zn	1.761112	0.454261	0.454318
Zn13	Zn	1.011060	-0.419880	-0.419826
Zn14	Zn	1.261060	-0.169880	-0.169826
Zn15	Zn	1.511060	0.080120	0.080174
Zn16	Zn	1.761060	0.330120	0.330174
O17	O	1.073167	-0.357815	-0.357756
O18	O	1.323167	-0.107815	-0.107756
O19	O	1.573167	0.142185	0.142244
O20	O	1.823167	0.392185	0.392244
O21	O	1.239205	-0.312213	-0.403379
O22	O	1.489205	-0.062213	-0.153379
O23	O	1.739205	0.187787	0.096621
O24	O	1.989205	0.437787	0.346621
O25	O	1.118727	-0.403459	-0.191745
O26	O	1.368727	-0.153459	0.058255
O27	O	1.618727	0.096541	0.308255
O28	O	1.868727	0.346541	0.558255
O29	O	1.027644	-0.191813	-0.312168
O30	O	1.277644	0.058187	-0.062168
O31	O	1.527644	0.308187	0.187832
O32	O	1.777644	0.558187	0.437832
O33	O	1.239140	-0.403450	-0.312144
O34	O	1.489140	-0.153450	-0.062144
O35	O	1.739140	0.096550	0.187856
O36	O	1.989140	0.346550	0.437856
O37	O	1.118879	-0.191806	-0.403393
O38	O	1.368879	0.058194	-0.153393
O39	O	1.618879	0.308194	0.096607
O40	O	1.868879	0.558194	0.346607
O41	O	1.027557	-0.312228	-0.191755
O42	O	1.277557	-0.062228	0.058245
O43	O	1.527557	0.187772	0.308245
O44	O	1.777557	0.437772	0.558245
O45	O	0.907180	-0.312196	-0.312146
O46	O	1.157180	-0.062196	-0.062146
O47	O	1.407180	0.187804	0.187854
O48	O	1.657180	0.437804	0.437854
O49	O	1.027555	-0.403393	-0.523753
O50	O	1.277555	-0.153393	-0.273753
O51	O	1.527555	0.096607	-0.023753
O52	O	1.777555	0.346607	0.226247
O53	O	0.907142	-0.403402	-0.403354
O54	O	1.157142	-0.153402	-0.153354
O55	O	1.407142	0.096598	0.096646
O56	O	1.657142	0.346598	0.346646
O57	O	1.118828	-0.312181	-0.523770
O58	O	1.368828	-0.062181	-0.273770
O59	O	1.618828	0.187819	-0.023770
O60	O	1.868828	0.437819	0.226230
O61	O	1.118676	-0.523833	-0.312122
O62	O	1.368676	-0.273833	-0.062122
O63	O	1.618676	-0.023833	0.187878
O64	O	1.868676	0.226167	0.437878
O65	O	1.027468	-0.523809	-0.403341
O66	O	1.277468	-0.273809	-0.153341
O67	O	1.527468	-0.023809	0.096659
O68	O	1.777468	0.226191	0.346659
C69	C	0.880215	-0.357797	-0.357750
C70	C	1.130215	-0.107797	-0.107750
C71	C	1.380215	0.142203	0.142250
C72	C	1.630215	0.392203	0.392250
C73	C	0.797669	-0.357807	-0.357765
C74	C	1.047669	-0.107807	-0.107765
C75	C	1.297669	0.142193	0.142235
C76	C	1.547669	0.392193	0.392235
C77	C	0.548844	-0.407508	-0.407296
C78	C	0.798844	-0.157508	-0.157296
C79	C	1.048844	0.092492	0.092704
C80	C	1.298844	0.342492	0.342704
C81	C	0.598214	-0.425579	-0.339512
C82	C	0.848214	-0.175579	-0.089512
C83	C	1.098214	0.074421	0.160488
C84	C	1.348214	0.324421	0.410488
C85	C	0.500548	-0.357831	-0.357764
C86	C	0.750548	-0.107831	-0.107764
C87	C	1.000548	0.142169	0.142236
C88	C	1.250548	0.392169	0.392236
C89	C	0.598260	-0.339783	-0.425545
C90	C	0.848260	-0.089783	-0.175545
C91	C	1.098260	0.160217	0.074455
C92	C	1.348260	0.410217	0.324455
C93	C	0.646534	-0.357821	-0.357768
C94	C	0.896534	-0.107821	-0.107768
C95	C	1.146534	0.142179	0.142232
C96	C	1.396534	0.392179	0.392232
C97	C	0.548831	-0.375937	-0.289943
C98	C	0.798831	-0.125937	-0.039943
C99	C	1.048831	0.124063	0.210057
C100	C	1.298831	0.374063	0.460057
C101	C	0.548873	-0.290110	-0.376022
C102	C	0.798873	-0.040110	-0.126022
C103	C	1.048873	0.209890	0.123978
C104	C	1.298873	0.459890	0.373978
C105	C	0.598221	-0.308155	-0.308191
C106	C	0.848221	-0.058155	-0.058191
C107	C	1.098221	0.191845	0.191809
C108	C	1.348221	0.441845	0.441809
C109	C	0.416450	-0.357838	-0.357762
C110	C	0.666450	-0.107838	-0.107762
C111	C	0.916450	0.142162	0.142238
C112	C	1.166450	0.392162	0.392238
C113	C	0.730630	-0.357813	-0.357762
C114	C	0.980630	-0.107813	-0.107762
C115	C	1.230630	0.142187	0.142238
C116	C	1.480630	0.392187	0.392238
C117	C	1.073077	-0.550767	-0.357744
C118	C	1.323077	-0.300767	-0.107744
C119	C	1.573077	-0.050767	0.142256
C120	C	1.823077	0.199233	0.392256
C121	C	1.073107	-0.633313	-0.357763
C122	C	1.323107	-0.383313	-0.107763
C123	C	1.573107	-0.133313	0.142237
C124	C	1.823107	0.116687	0.392237
C125	C	1.023557	-0.832778	-0.407350
C126	C	1.273557	-0.582778	-0.157350
C127	C	1.523557	-0.332778	0.092650
C128	C	1.773557	-0.082778	0.342650
C129	C	1.005459	-0.882211	-0.339584
C130	C	1.255459	-0.632211	-0.089584
C131	C	1.505459	-0.382211	0.160416
C132	C	1.755459	-0.132211	0.410416
C133	C	1.073180	-0.784444	-0.357773
C134	C	1.323180	-0.534444	-0.107773
C135	C	1.573180	-0.284444	0.142227
C136	C	1.823180	-0.034444	0.392227
C137	C	1.091314	-0.882092	-0.425547
C138	C	1.341314	-0.632092	-0.175547
C139	C	1.591314	-0.382092	0.074453
C140	C	1.841314	-0.132092	0.324453
C141	C	1.073249	-0.930429	-0.357788
C142	C	1.323249	-0.680429	-0.107788
C143	C	1.573249	-0.430429	0.142212
C144	C	1.823249	-0.180429	0.392212
C145	C	1.055046	-0.832790	-0.289971
C146	C	1.305046	-0.582790	-0.039971
C147	C	1.555046	-0.332790	0.210029
C148	C	1.805046	-0.082790	0.460029
C149	C	1.140933	-0.832666	-0.375979
C150	C	1.390933	-0.582666	-0.125979
C151	C	1.640933	-0.332666	0.124021
C152	C	1.890933	-0.082666	0.374021
C153	C	1.122861	-0.882077	-0.308166
C154	C	1.372861	-0.632077	-0.058166
C155	C	1.622861	-0.382077	0.191834
C156	C	1.872861	-0.132077	0.441834
C157	C	1.073138	-0.700345	-0.357765
C158	C	1.323138	-0.450345	-0.107765
C159	C	1.573138	-0.200345	0.142235
C160	C	1.823138	0.049655	0.392235
C161	C	1.073291	-1.014525	-0.357788
C162	C	1.323291	-0.764525	-0.107788
C163	C	1.573291	-0.514525	0.142212
C164	C	1.823291	-0.264525	0.392212
C165	C	1.266872	-0.357834	-0.357763
C166	C	1.516872	-0.107834	-0.107763
C167	C	1.766872	0.142166	0.142237
C168	C	2.016872	0.392166	0.392237
C169	C	1.349418	-0.357842	-0.357765
C170	C	1.599418	-0.107842	-0.107765
C171	C	1.849418	0.142158	0.142235
C172	C	2.099418	0.392158	0.392235
C173	C	1.073196	-0.357782	-0.551462
C174	C	1.323196	-0.107782	-0.301462
C175	C	1.573196	0.142218	-0.051462
C176	C	1.823196	0.392218	0.198538
C177	C	1.073208	-0.357768	-0.634007
C178	C	1.323208	-0.107768	-0.384007
C179	C	1.573208	0.142232	-0.134007
C180	C	1.823208	0.392232	0.115993
C181	C	1.073277	-0.164110	-0.357785
C182	C	1.323277	0.085890	-0.107785
C183	C	1.573277	0.335890	0.142215
C184	C	1.823277	0.585890	0.392215
C185	C	1.073324	-0.081564	-0.357797
C186	C	1.323324	0.168436	-0.107797
C187	C	1.573324	0.418436	0.142203
C188	C	1.823324	0.668436	0.392203
C189	C	1.023612	-0.407302	-0.833449
C190	C	1.273612	-0.157302	-0.583449
C191	C	1.523612	0.092698	-0.333449
C192	C	1.773612	0.342698	-0.083449
C193	C	1.091367	-0.425457	-0.882837
C194	C	1.341367	-0.175457	-0.632837
C195	C	1.591367	0.074543	-0.382837
C196	C	1.841367	0.324543	-0.132837
C197	C	1.073245	-0.357712	-0.785138
C198	C	1.323245	-0.107712	-0.535138
C199	C	1.573245	0.142288	-0.285138
C200	C	1.823245	0.392288	-0.035138
C201	C	1.005527	-0.339536	-0.882832
C202	C	1.255527	-0.089536	-0.632832
C203	C	1.505527	0.160464	-0.382832
C204	C	1.755527	0.410464	-0.132832
C205	C	1.073274	-0.357658	-0.931123
C206	C	1.323274	-0.107658	-0.681123
C207	C	1.573274	0.142342	-0.431123
C208	C	1.823274	0.392342	-0.181123
C209	C	1.141036	-0.375902	-0.833438
C210	C	1.391036	-0.125902	-0.583438
C211	C	1.641036	0.124098	-0.333438
C212	C	1.891036	0.374098	-0.083438
C213	C	1.055150	-0.289950	-0.833429
C214	C	1.305150	-0.039950	-0.583429
C215	C	1.555150	0.210050	-0.333429
C216	C	1.805150	0.460050	-0.083429
C217	C	1.122952	-0.308079	-0.882794
C218	C	1.372952	-0.058079	-0.632794
C219	C	1.622952	0.191921	-0.382794
C220	C	1.872952	0.441921	-0.132794
C221	C	1.073227	-0.357744	-0.701040
C222	C	1.323227	-0.107744	-0.451040
C223	C	1.573227	0.142256	-0.201040
C224	C	1.823227	0.392256	0.048960
C225	C	1.073300	-0.357626	-1.015220
C226	C	1.323300	-0.107626	-0.765220
C227	C	1.573300	0.142374	-0.515220
C228	C	1.823300	0.392374	-0.265220
C229	C	1.073181	-0.357795	-0.164804
C230	C	1.323181	-0.107795	0.085196
C231	C	1.573181	0.142205	0.335196
C232	C	1.823181	0.392205	0.585196
C233	C	1.073312	-0.357599	-0.082258
C234	C	1.323312	-0.107599	0.167742
C235	C	1.573312	0.142401	0.417742
C236	C	1.823312	0.392401	0.667742
H237	H	0.619887	-0.482845	-0.324065
H238	H	0.869887	-0.232845	-0.074065
H239	H	1.119887	0.017155	0.175935
H240	H	1.369887	0.267155	0.425935
H241	H	0.527211	-0.391267	-0.232607
H242	H	0.777211	-0.141267	0.017393
H243	H	1.027211	0.108733	0.267393
H244	H	1.277211	0.358733	0.517393
C245	C	0.966972	-0.464032	-0.804161
C246	C	1.216972	-0.214032	-0.554161
C247	C	1.466972	0.035968	-0.304161
C248	C	1.716972	0.285968	-0.054161
N249	N	0.924318	-0.506763	-0.782094
N250	N	1.174318	-0.256763	-0.532094
N251	N	1.424318	-0.006763	-0.282094
N252	N	1.674318	0.243237	-0.032094
H253	H	0.981530	-0.811130	-0.449217
H254	H	1.231530	-0.561130	-0.199217
H255	H	1.481530	-0.311130	0.050783
H256	H	1.731530	-0.061130	0.300783
C257	C	0.627589	-0.319164	-0.502982
C258	C	0.877589	-0.069164	-0.252982
C259	C	1.127589	0.180836	-0.002982
C260	C	1.377589	0.430836	0.247018
N261	N	0.649676	-0.303638	-0.561309
N262	N	0.899676	-0.053638	-0.311309
N263	N	1.149676	0.196362	-0.061309
N264	N	1.399676	0.446362	0.188691
H265	H	0.948195	-0.903990	-0.324200
H266	H	1.198195	-0.653990	-0.074200
H267	H	1.448195	-0.403990	0.175800
H268	H	1.698195	-0.153990	0.425800
C269	C	1.034269	-0.803657	-0.212528
C270	C	1.284269	-0.553657	0.037472
C271	C	1.534269	-0.303657	0.287472
C272	C	1.784269	-0.053657	0.537472
N273	N	1.018616	-0.781712	-0.154199
N274	N	1.268616	-0.531712	0.095801
N275	N	1.518616	-0.281712	0.345801
N276	N	1.768616	-0.031712	0.595801
H277	H	0.619764	-0.266140	-0.266256
H278	H	0.869764	-0.016140	-0.016256
H279	H	1.119764	0.233860	0.233744
H280	H	1.369764	0.483860	0.483744
C281	C	1.179591	-0.911144	-0.251470
C282	C	1.429591	-0.661144	-0.001470
C283	C	1.679591	-0.411144	0.248530
C284	C	1.929591	-0.161144	0.498530
N285	N	1.222316	-0.933039	-0.208765
N286	N	1.472316	-0.683039	0.041235
N287	N	1.722316	-0.433039	0.291235
N288	N	1.972316	-0.183039	0.541235
H289	H	0.527164	-0.449554	-0.449130
H290	H	0.777164	-0.199554	-0.199130
H291	H	1.027164	0.050446	0.050870
H292	H	1.277164	0.300446	0.300870
H293	H	0.527183	-0.232860	-0.391488
H294	H	0.777183	0.017140	-0.141488
H295	H	1.027183	0.267140	0.108512
H296	H	1.277183	0.517140	0.358512
H297	H	1.106690	-0.482739	-0.904539
H298	H	1.356690	-0.232739	-0.654539
H299	H	1.606690	0.017261	-0.404539
H300	H	1.856690	0.267261	-0.154539
H301	H	1.198184	-0.810889	-0.391396
H302	H	1.448184	-0.560889	-0.141396
H303	H	1.698184	-0.310889	0.108604
H304	H	1.948184	-0.060889	0.358604
H305	H	1.106625	-0.903748	-0.482856
H306	H	1.356625	-0.653748	-0.232856
H307	H	1.606625	-0.403748	0.017144
H308	H	1.856625	-0.153748	0.267144
C309	C	1.218441	-0.396735	-0.804252
C310	C	1.468441	-0.146735	-0.554252
C311	C	1.718441	0.103265	-0.304252
C312	C	1.968441	0.353265	-0.054252
N313	N	1.276740	-0.412430	-0.782268
N314	N	1.526740	-0.162430	-0.532268
N315	N	1.776740	0.087570	-0.282268
N316	N	2.026740	0.337570	-0.032268
H317	H	1.164986	-0.266119	-0.904324
H318	H	1.414986	-0.016119	-0.654324
H319	H	1.664986	0.233881	-0.404324
H320	H	1.914986	0.483881	-0.154324
H321	H	1.039807	-0.232684	-0.811711
H322	H	1.289807	0.017316	-0.561711
H323	H	1.539807	0.267316	-0.311711
H324	H	1.789807	0.517316	-0.061711
C325	C	0.928143	-0.318795	-0.912140
C326	C	1.178143	-0.068795	-0.662140
C327	C	1.428143	0.181205	-0.412140
C328	C	1.678143	0.431205	-0.162140
N329	N	0.869856	-0.303177	-0.934211
N330	N	1.119856	-0.053177	-0.684211
N331	N	1.369856	0.196823	-0.434211
N332	N	1.619856	0.446823	-0.184211
