data_functionalizedCrystal
_audit_creation_method	'MofGen! by Chris Wilmer'
_symmetry_space_group_name_H-M	'P1'
_symmetry_Int_Tables_number	1
_symmetry_cell_setting	triclinic
loop_
_symmetry_equiv_pos_as_xyz
  x,y,z
_cell_length_a	14.971491
_cell_length_b	15.944551
_cell_length_c	14.048226
_cell_angle_alpha	89.992615
_cell_angle_beta	89.991693
_cell_angle_gamma	83.557487
loop_
_atom_site_label
_atom_site_type_symbol
_atom_site_fract_x
_atom_site_fract_y
_atom_site_fract_z
O1	O	1.186826	0.109484	-0.079203
O2	O	1.686826	0.609484	0.420797
O3	O	0.926412	0.122588	-0.079197
O4	O	1.426412	0.622588	0.420803
O5	O	1.063731	-0.006232	-0.079192
O6	O	1.563731	0.493768	0.420808
O7	O	1.049508	0.238304	-0.079208
O8	O	1.549508	0.738304	0.420792
O9	O	1.063714	-0.006240	0.079130
O10	O	1.563714	0.493760	0.579130
O11	O	0.926396	0.122580	0.079125
O12	O	1.426396	0.622580	0.579125
O13	O	1.186810	0.109476	0.079118
O14	O	1.686810	0.609476	0.579118
Zn15	Zn	1.056600	0.116027	0.104258
Zn16	Zn	1.556600	0.616027	0.604258
Zn17	Zn	1.056622	0.116037	-0.104337
Zn18	Zn	1.556622	0.616037	0.395663
O19	O	1.049491	0.238296	0.079113
O20	O	1.549491	0.738296	0.579113
C21	C	0.893080	0.121997	-0.000035
C22	C	1.393080	0.621997	0.499965
C23	C	0.793785	0.120239	-0.000032
C24	C	1.293785	0.620239	0.499968
C25	C	0.366097	0.112655	-0.086355
C26	C	0.866097	0.612655	0.413645
C27	C	0.459395	0.114305	-0.086351
C28	C	0.959395	0.614305	0.413649
C29	C	0.506031	0.115131	-0.000047
C30	C	1.006031	0.615131	0.499953
C31	C	0.459365	0.114299	0.086259
C32	C	0.959365	0.614299	0.586259
C33	C	0.366069	0.112643	0.086255
C34	C	0.866069	0.612643	0.586255
C35	C	0.653823	0.117752	0.086263
C36	C	1.153823	0.617752	0.586263
C37	C	0.747125	0.119409	0.086268
C38	C	1.247125	0.619409	0.586268
C39	C	0.747149	0.119413	-0.086343
C40	C	1.247149	0.619413	0.413657
C41	C	0.653853	0.117758	-0.086348
C42	C	1.153853	0.617758	0.413652
C43	C	0.607193	0.116927	-0.000041
C44	C	1.107193	0.616927	0.499959
C45	C	1.063132	-0.037530	-0.000031
C46	C	1.563132	0.462470	0.499969
C47	C	1.061362	-0.130778	-0.000030
C48	C	1.561362	0.369222	0.499970
C49	C	0.972014	-0.345721	-0.000041
C50	C	1.472014	0.154279	0.499959
C51	C	1.013496	-0.406702	0.078020
C52	C	1.513496	0.093298	0.578020
C53	C	1.058159	-0.301507	-0.000037
C54	C	1.558159	0.198493	0.499963
C55	C	1.013533	-0.406678	-0.078073
C56	C	1.513533	0.093322	0.421927
C57	C	1.055060	-0.466423	-0.000049
C58	C	1.555060	0.033577	0.499951
C59	C	1.099665	-0.361260	0.078088
C60	C	1.599665	0.138740	0.578088
C61	C	1.099689	-0.361229	-0.078075
C62	C	1.599689	0.138771	0.421925
C63	C	1.141234	-0.422192	0.000005
C64	C	1.641234	0.077808	0.500005
C65	C	1.059942	-0.206503	-0.000030
C66	C	1.559942	0.293497	0.499970
C67	C	1.053283	-0.561426	-0.000049
C68	C	1.553283	-0.061426	0.499951
C69	C	1.220142	0.110067	-0.000046
C70	C	1.720142	0.610067	0.499954
C71	C	1.319437	0.111825	-0.000055
C72	C	1.819437	0.611825	0.499945
C73	C	1.050090	0.269594	-0.000050
C74	C	1.550090	0.769594	0.499950
C75	C	1.051860	0.362842	-0.000057
C76	C	1.551860	0.862842	0.499943
N77	N	1.056592	0.116020	0.246619
N78	N	1.556592	0.616020	0.746619
N79	N	1.056637	0.116038	-0.246698
N80	N	1.556637	0.616038	0.253302
C81	C	1.117415	0.059002	0.296439
C82	C	1.617415	0.559002	0.796439
C83	C	1.117421	0.059001	0.396097
C84	C	1.617421	0.559001	0.896097
C85	C	1.056607	0.116023	0.445932
C86	C	1.556607	0.616023	0.945932
C87	C	0.995777	0.173044	0.396105
C88	C	1.495777	0.673044	0.896105
C89	C	0.995768	0.173040	0.296449
C90	C	1.495768	0.673040	0.796449
C91	C	0.995803	0.173050	0.603819
C92	C	1.495803	0.673050	1.103819
C93	C	0.995814	0.173056	0.703482
C94	C	1.495814	0.673056	1.203482
C95	C	1.117457	0.059012	0.703467
C96	C	1.617457	0.559012	1.203467
C97	C	1.117447	0.059007	0.603811
C98	C	1.617447	0.559007	1.103811
C99	C	1.056618	0.116029	0.553991
C100	C	1.556618	0.616029	1.053991
H101	H	0.328078	0.111976	0.156529
H102	H	0.828078	0.611976	0.656529
Cl103	Cl	0.517993	0.115336	0.194757
Cl104	Cl	1.017993	0.615336	0.694757
H105	H	0.946267	0.219481	0.563259
H106	H	1.446267	0.719481	1.063259
Cl107	Cl	0.861619	-0.294404	0.000076
Cl108	Cl	1.361619	0.205596	0.500076
H109	H	0.946238	0.219468	0.255887
H110	H	1.446238	0.719468	0.755887
Cl111	Cl	1.155864	-0.330352	0.180090
Cl112	Cl	1.655864	0.169648	0.680090
Cl113	Cl	1.193876	-0.012684	0.233799
Cl114	Cl	1.693876	0.487316	0.733799
Cl115	Cl	0.307477	0.111622	-0.194858
Cl116	Cl	0.807477	0.611622	0.305142
H117	H	0.977053	-0.426849	0.144016
H118	H	1.477053	0.073151	0.644016
Cl119	Cl	1.193886	-0.012680	0.458730
Cl120	Cl	1.693886	0.487320	0.958730
H121	H	1.166986	0.012583	0.744036
H122	H	1.666986	0.512583	1.244036
Cl123	Cl	1.251725	-0.473284	0.000067
Cl124	Cl	1.751725	0.026716	0.500067
H125	H	0.977093	-0.426787	-0.144071
H126	H	1.477093	0.073213	0.355929
H127	H	0.946292	0.219488	0.744053
H128	H	1.446292	0.719488	1.244053
H129	H	1.166971	0.012580	0.563235
H130	H	1.666971	0.512580	1.063235
H131	H	1.136101	-0.341060	-0.144074
H132	H	1.636101	0.158940	0.355926
H133	H	0.497383	0.114975	-0.156625
H134	H	0.997383	0.614975	0.343375
Cl135	Cl	0.595225	0.116726	-0.194846
Cl136	Cl	1.095225	0.616726	0.305154
Cl137	Cl	0.805805	0.120468	-0.194843
Cl138	Cl	1.305805	0.620468	0.305157
Cl139	Cl	0.919320	0.244726	0.458753
Cl140	Cl	1.419320	0.744726	0.958753
H141	H	0.785093	0.120086	0.156544
H142	H	1.285093	0.620086	0.656544
H143	H	0.615834	0.117086	0.156543
H144	H	1.115834	0.617086	0.656543
