data_functionalizedCrystal
_audit_creation_method	'MofGen! by Chris Wilmer'
_symmetry_space_group_name_H-M	'P1'
_symmetry_Int_Tables_number	1
_symmetry_cell_setting	triclinic
loop_
_symmetry_equiv_pos_as_xyz
  x,y,z
_cell_length_a	17.699083
_cell_length_b	16.992695
_cell_length_c	16.176319
_cell_angle_alpha	89.993125
_cell_angle_beta	89.998611
_cell_angle_gamma	86.975619
loop_
_atom_site_label
_atom_site_type_symbol
_atom_site_fract_x
_atom_site_fract_y
_atom_site_fract_z
O1	O	1.010252	0.099146	-0.068631
O2	O	0.790676	0.112045	-0.068658
O3	O	0.899584	-0.008546	-0.068638
O4	O	0.901344	0.219736	-0.068651
O5	O	0.899567	-0.008553	0.068855
O6	O	0.790660	0.112037	0.068835
O7	O	1.010235	0.099138	0.068862
Cu8	Cu	0.900446	0.105587	0.081403
Cu9	Cu	0.900465	0.105596	-0.081199
O10	O	0.901328	0.219729	0.068842
C11	C	0.762442	0.111579	0.000085
C12	C	0.678338	0.110192	0.000075
C13	C	0.897311	-0.037758	0.000108
C14	C	0.890554	-0.124789	0.000107
C15	C	0.634124	0.180976	0.000071
C16	C	0.555099	0.179669	0.000082
C17	C	0.520290	0.107576	0.000091
C18	C	0.564510	0.036787	0.000097
C19	C	0.643533	0.038095	0.000092
C20	C	0.245818	0.031509	0.000118
C21	C	0.166789	0.030206	0.000120
C22	C	0.157384	0.173082	0.000108
C23	C	0.236408	0.174391	0.000103
C24	C	0.280621	0.103602	0.000113
C25	C	0.366308	0.105020	0.000103
C26	C	0.434604	0.106157	0.000095
C27	C	0.955751	-0.175154	0.000116
C28	C	0.949398	-0.256928	0.000107
C29	C	0.877846	-0.288336	0.000096
C30	C	0.812643	-0.237965	0.000084
C31	C	0.818998	-0.156192	0.000087
C32	C	0.851510	-0.531884	0.000081
C33	C	0.845160	-0.613663	0.000081
C34	C	0.981915	-0.632621	0.000102
C35	C	0.988263	-0.550845	0.000110
C36	C	0.923061	-0.500481	0.000094
N37	N	0.871350	-0.371923	0.000090
N38	N	0.929558	-0.416897	0.000095
C39	C	1.038469	0.099604	0.000117
C40	C	1.122574	0.100991	0.000122
C41	C	0.903601	0.248941	0.000094
C42	C	0.910358	0.335972	0.000090
N43	N	0.900438	0.105580	0.195768
N44	N	0.900479	0.105597	-0.195564
C45	C	0.948679	0.052204	0.239041
C46	C	0.948683	0.052203	0.325588
C47	C	0.900449	0.105583	0.368861
C48	C	0.852202	0.158961	0.325582
C49	C	0.852195	0.158957	0.239036
C50	C	0.852229	0.158976	0.674610
C51	C	0.852242	0.158977	0.761161
C52	C	0.948717	0.052222	0.761162
C53	C	0.948709	0.052218	0.674617
C54	C	0.900461	0.105593	0.631345
C55	C	0.900456	0.105593	0.537501
C56	C	0.900457	0.105588	0.462703
H57	H	0.519103	0.237308	0.000078
H58	H	0.812945	0.202437	0.639385
H59	H	1.002489	-0.297933	0.000117
H60	H	0.812925	0.202421	0.360819
C61	C	0.756838	0.264491	0.247723
C62	C	0.799171	0.217633	0.191467
H63	H	0.724105	0.300717	0.218355
H64	H	0.727649	0.231892	0.281486
H65	H	0.790054	0.292651	0.281471
H66	H	0.765955	0.189468	0.157723
H67	H	0.828363	0.250236	0.157689
H68	H	0.798417	-0.490887	0.000069
H69	H	0.121377	0.230722	0.000103
H70	H	0.679531	-0.019545	0.000095
C71	C	0.742180	-0.354898	0.000081
C72	C	0.733991	-0.272487	0.000075
H73	H	0.693621	-0.376207	0.000082
H74	H	0.769233	-0.372186	-0.047860
H75	H	0.769230	-0.372191	0.048034
H76	H	0.706946	-0.255194	-0.047882
H77	H	0.706927	-0.255193	0.048020
H78	H	0.786891	-0.639232	0.000085
H79	H	0.662460	0.239682	0.000064
H80	H	0.987989	0.008755	0.639387
H81	H	0.138450	-0.028504	0.000128
H82	H	0.765906	-0.115186	0.000080
C83	C	1.058724	-0.433912	0.000119
C84	C	1.066915	-0.516323	0.000116
H85	H	1.107281	-0.412601	0.000128
H86	H	1.031680	-0.416616	-0.047828
H87	H	1.031665	-0.416630	0.048067
H88	H	1.093970	-0.533606	-0.047835
H89	H	1.093971	-0.533626	0.048067
C90	C	0.353368	0.239836	0.000066
C91	C	0.274670	0.253636	0.000079
H92	H	0.376988	0.288760	0.000044
H93	H	0.368252	0.210708	0.048015
H94	H	0.368238	0.210690	-0.047879
H95	H	0.259800	0.282777	0.048027
H96	H	0.259780	0.282777	-0.047875
H97	H	0.536162	-0.021912	0.000116
C98	C	0.247166	-0.109852	0.000125
C99	C	0.294410	-0.046302	0.000123
H100	H	0.277168	-0.157891	0.000123
H101	H	0.216149	-0.107391	0.048069
H102	H	0.216147	-0.107380	-0.047825
H103	H	0.325425	-0.048770	0.048076
H104	H	0.325439	-0.048765	-0.047826
H105	H	1.034999	-0.673635	0.000114
H106	H	1.014017	-0.149588	0.000131
H107	H	0.987960	0.008740	0.203814
H108	H	0.987964	0.008741	0.360821
H109	H	0.988001	0.008758	0.796403
H110	H	0.812961	0.202446	0.796393
