data_functionalizedCrystal
_audit_creation_method	'MofGen! by Chris Wilmer'
_symmetry_space_group_name_H-M	'P1'
_symmetry_Int_Tables_number	1
_symmetry_cell_setting	triclinic
loop_
_symmetry_equiv_pos_as_xyz
  x,y,z
_cell_length_a	12.827893
_cell_length_b	12.827892
_cell_length_c	10.686551
_cell_angle_alpha	85.597960
_cell_angle_beta	94.395101
_cell_angle_gamma	89.982699
loop_
_atom_site_label
_atom_site_type_symbol
_atom_site_fract_x
_atom_site_fract_y
_atom_site_fract_z
Zn1	Zn	1.643020	0.370626	0.713476
Zn2	Zn	2.143020	0.870626	1.213476
Zn3	Zn	1.629493	0.558816	0.502488
Zn4	Zn	2.129493	1.058816	1.002488
Zn5	Zn	1.454847	0.384089	0.502494
Zn6	Zn	1.954847	0.884089	1.002494
Zn7	Zn	1.468238	0.545328	0.713439
Zn8	Zn	1.968238	1.045328	1.213439
O9	O	1.548899	0.464715	0.607974
O10	O	2.048899	0.964715	1.107974
O11	O	1.787462	0.395600	0.685502
O12	O	2.287462	0.895600	1.185502
O13	O	1.595060	0.546918	0.325909
O14	O	2.095060	1.046918	0.825909
O15	O	1.479865	0.236066	0.530499
O16	O	1.979865	0.736066	1.030499
O17	O	1.777524	0.533863	0.530490
O18	O	2.277524	1.033863	1.030490
O19	O	1.618115	0.226175	0.685507
O20	O	2.118115	0.726175	1.185507
O21	O	1.466748	0.418547	0.325913
O22	O	1.966748	0.918547	0.825913
O23	O	1.310386	0.405468	0.530463
O24	O	1.810386	0.905468	1.030463
O25	O	1.502689	0.510874	0.890024
O26	O	2.002689	1.010874	1.390024
O27	O	1.320225	0.523929	0.685443
O28	O	1.820225	1.023929	1.185443
O29	O	1.631100	0.382521	0.890052
O30	O	2.131100	0.882521	1.390052
O31	O	1.608046	0.703264	0.530454
O32	O	2.108046	1.203264	1.030454
O33	O	1.489572	0.693354	0.685438
O34	O	1.989572	1.193354	1.185438
C35	C	1.277388	0.464696	0.607950
C36	C	1.777388	0.964696	1.107950
C37	C	1.161236	0.464711	0.607970
C38	C	1.661236	0.964711	1.107970
C39	C	0.984521	0.406017	0.531439
C40	C	1.484521	0.906017	1.031439
C41	C	1.104570	0.406000	0.531417
C42	C	1.604570	0.906000	1.031417
C43	C	1.548824	0.736225	0.607969
C44	C	2.048824	1.236225	1.107969
C45	C	1.548891	0.852376	0.608009
C46	C	2.048891	1.352376	1.108009
C47	C	1.607594	0.909024	0.531406
C48	C	2.107594	1.409024	1.031406
C49	C	1.607664	1.029072	0.531445
C50	C	2.107664	1.529072	1.031445
C51	C	1.821471	0.464734	0.607999
C52	C	2.321471	0.964734	1.107999
C53	C	1.937625	0.464742	0.608010
C54	C	2.437625	0.964742	1.108010
C55	C	1.569897	0.443691	0.937104
C56	C	2.069897	0.943691	1.437104
C57	C	1.578845	0.434732	1.077359
C58	C	2.078845	0.934732	1.577359
C59	C	1.548997	1.192141	0.608023
C60	C	2.048997	1.692141	1.108023
C61	C	1.549020	1.075984	0.608083
C62	C	2.049020	1.575984	1.108083
C63	C	1.528043	0.485581	0.280126
C64	C	2.028043	0.985581	0.780126
C65	C	1.519298	0.494246	0.139871
C66	C	2.019298	0.994246	0.639871
H67	H	0.986351	0.515001	0.673555
H68	H	1.486351	1.015001	1.173555
C69	C	1.674358	0.855151	0.443758
C70	C	2.174358	1.355151	0.943758
C71	C	1.609985	0.797752	0.362846
C72	C	2.109985	1.297752	0.862846
C73	C	1.671450	0.748125	0.282075
C74	C	2.171450	1.248125	0.782075
H75	H	1.722891	0.809353	0.491963
H76	H	2.222891	1.309353	0.991963
H77	H	1.711174	0.906229	0.395626
H78	H	2.211174	1.406229	0.895626
H79	H	1.573185	0.746681	0.410973
H80	H	2.073185	1.246681	0.910973
H81	H	1.561452	0.843526	0.314613
H82	H	2.061452	1.343526	0.814613
H83	H	1.708266	0.799202	0.233943
H84	H	2.208266	1.299202	0.733943
H85	H	1.719981	0.702332	0.330290
H86	H	2.219981	1.202332	0.830290
H87	H	1.627781	0.709182	0.227159
H88	H	2.127781	1.209182	0.727159
H89	H	1.657919	1.077769	0.465859
H90	H	2.157919	1.577769	0.965859
H91	H	1.120894	0.514994	0.673525
H92	H	1.620894	1.014994	1.173525
H93	H	0.935795	0.355749	0.465905
H94	H	1.435795	0.855749	0.965905
H95	H	1.498754	1.027295	0.673665
H96	H	1.998754	1.527295	1.173665
H97	H	1.498689	0.892751	0.673625
H98	H	1.998689	1.392751	1.173625
C99	C	1.442350	0.571399	1.068005
C100	C	1.942350	1.071399	1.568005
C101	C	1.496725	0.643142	0.992315
C102	C	1.996725	1.143142	1.492315
C103	C	1.425875	0.714223	0.926071
C104	C	1.925875	1.214223	1.426071
H105	H	1.406156	0.607647	1.125878
H106	H	1.906156	1.107647	1.625878
H107	H	1.393604	0.534699	1.016516
H108	H	1.893604	1.034699	1.516516
H109	H	1.545452	0.679838	1.043799
H110	H	2.045452	1.179838	1.543799
H111	H	1.532915	0.606924	0.934418
H112	H	2.032915	1.106924	1.434418
H113	H	1.377129	0.677523	0.874583
H114	H	1.877129	1.177523	1.374583
H115	H	1.389685	0.750462	0.983953
H116	H	1.889685	1.250462	1.483953
H117	H	1.462757	0.762902	0.874699
H118	H	1.962757	1.262902	1.374699
C119	C	1.655788	0.357509	1.149129
C120	C	2.155788	0.857509	1.649129
C121	C	1.601411	0.285732	1.224772
C122	C	2.101411	0.785732	1.724772
C123	C	1.672251	0.214571	1.290890
C124	C	2.172251	0.714571	1.790890
H125	H	1.704578	0.394109	1.200645
H126	H	2.204578	0.894109	1.700645
H127	H	1.691926	0.321310	1.091142
H128	H	2.191926	0.821310	1.591142
H129	H	1.565290	0.321927	1.282752
H130	H	2.065290	0.821927	1.782752
H131	H	1.552625	0.249106	1.173288
H132	H	2.052625	0.749106	1.673288
H133	H	1.708390	0.178372	1.232904
H134	H	2.208390	0.678372	1.732904
H135	H	1.721038	0.251180	1.342399
H136	H	2.221038	0.751180	1.842399
H137	H	1.635367	0.165856	1.342213
H138	H	2.135367	0.665856	1.842213
C139	C	1.158490	0.339133	0.443926
C140	C	1.658490	0.839133	0.943926
C141	C	1.215984	0.403416	0.363008
C142	C	1.715984	0.903416	0.863008
C143	C	1.265682	0.341852	0.282404
C144	C	1.765682	0.841852	0.782404
H145	H	1.107479	0.302283	0.395780
H146	H	1.607479	0.802283	0.895780
H147	H	1.204232	0.290623	0.492292
H148	H	1.704232	0.790623	0.992292
H149	H	1.170245	0.451907	0.314648
H150	H	1.670245	0.951907	0.814648
H151	H	1.267012	0.440265	0.411120
H152	H	1.767012	0.940265	0.911120
H153	H	1.311424	0.293342	0.330769
H154	H	1.811424	0.793342	0.830769
H155	H	1.214663	0.305005	0.234266
H156	H	1.714663	0.805005	0.734266
H157	H	1.304704	0.385457	0.227499
H158	H	1.804704	0.885457	0.727499
