data_functionalizedCrystal
_audit_creation_method	'MofGen! by Chris Wilmer'
_symmetry_space_group_name_H-M	'P1'
_symmetry_Int_Tables_number	1
_symmetry_cell_setting	triclinic
loop_
_symmetry_equiv_pos_as_xyz
  x,y,z
_cell_length_a	17.038272
_cell_length_b	15.500218
_cell_length_c	17.038272
_cell_angle_alpha	92.987194
_cell_angle_beta	88.888444
_cell_angle_gamma	87.017880
loop_
_atom_site_label
_atom_site_type_symbol
_atom_site_fract_x
_atom_site_fract_y
_atom_site_fract_z
O1	O	1.052223	-0.071837	-0.174004
O2	O	0.824413	-0.071862	-0.171297
O3	O	0.936964	-0.071843	-0.058745
O4	O	0.939672	-0.071856	-0.286557
O5	O	0.930006	0.072046	-0.051795
O6	O	0.817455	0.072027	-0.164348
O7	O	1.045265	0.072052	-0.167055
Cu8	Cu	0.930725	0.085177	-0.165067
Cu9	Cu	0.938953	-0.084988	-0.173285
O10	O	0.932714	0.072033	-0.279607
C11	C	0.791641	0.000079	-0.165360
C12	C	0.704358	0.000069	-0.158012
N13	N	0.924943	0.204862	-0.159286
C14	C	0.658749	0.000066	-0.225476
C15	C	0.576736	0.000078	-0.218567
C16	C	0.540335	0.000088	-0.144193
C17	C	0.585950	0.000094	-0.076724
C18	C	0.667961	0.000088	-0.083634
C19	C	0.292946	0.000112	-0.119781
C20	C	0.210929	0.000116	-0.112876
C21	C	0.201721	0.000102	-0.254720
C22	C	0.283734	0.000091	-0.261623
C23	C	0.329342	0.000101	-0.194154
C24	C	0.456505	0.000098	-0.137129
C25	C	0.413170	0.000098	-0.201219
C26	C	0.973553	0.250138	-0.207928
C27	C	0.969190	0.340711	-0.203552
C28	C	0.916213	0.386007	-0.150538
C29	C	0.867600	0.340725	-0.101890
C30	C	0.871967	0.250154	-0.106263
C31	C	0.900489	0.659474	-0.134789
C32	C	0.896124	0.750052	-0.130421
C33	C	0.997716	0.750032	-0.232083
C34	C	1.002075	0.659458	-0.236454
C35	C	0.953465	0.614184	-0.187804
C36	C	0.911750	0.478587	-0.146065
C37	C	0.957932	0.521606	-0.192273
C38	C	1.078037	0.000109	-0.172992
C39	C	1.165320	0.000113	-0.180340
C40	C	0.931022	0.000101	-0.025977
C41	C	0.923674	0.000100	0.061306
N42	N	0.944735	0.795327	-0.179063
C43	C	0.938656	0.000087	-0.312375
C44	C	0.946004	0.000082	-0.399659
C45	C	0.991137	0.000109	0.106916
C46	C	0.984228	0.000100	0.188927
C47	C	0.909856	0.000088	0.225328
C48	C	0.842388	0.000077	0.179712
C49	C	0.849297	0.000080	0.097702
C50	C	0.885446	0.000074	0.472715
C51	C	0.878541	0.000074	0.554732
C52	C	1.020383	0.000094	0.563941
C53	C	1.027286	0.000102	0.481929
C54	C	0.959818	0.000087	0.436320
C55	C	0.902792	0.000082	0.309157
C56	C	0.966882	0.000087	0.352493
H57	H	0.688381	0.000058	-0.286039
H58	H	0.313367	0.000073	-0.322187
H59	H	0.817974	0.000078	0.584367
H60	H	0.794361	0.000073	0.060567
H61	H	1.027437	0.000077	0.322851
Br62	Br	0.139822	0.000089	-0.346280
Br63	Br	0.462573	0.000090	-0.302151
H64	H	0.852979	0.786929	-0.087250
H65	H	1.087848	0.000111	0.452298
Br66	Br	1.029833	0.460132	-0.264214
H67	H	0.830508	0.000061	0.435590
Br68	Br	0.729860	0.000100	0.007928
H69	H	0.868615	0.515477	-0.102901
H70	H	0.539605	0.000075	-0.273503
H71	H	0.860908	0.622623	-0.095174
H72	H	0.426857	0.000130	-0.076572
Br73	Br	0.806004	0.188707	-0.040236
H74	H	0.842237	0.000075	0.338803
Br75	Br	0.161526	0.000147	-0.011933
H76	H	1.037292	0.786903	-0.271690
H77	H	1.051699	0.000123	0.077285
H78	H	0.330070	0.000122	-0.064842
H79	H	1.016689	0.213265	-0.251103
Br80	Br	0.741452	0.000048	0.229111
H81	H	0.824468	0.377612	-0.058721
H82	H	1.039164	0.000108	0.226060
H83	H	0.556305	0.000114	-0.016166
H84	H	1.008776	0.377570	-0.243160
H85	H	1.045217	0.622585	-0.279622
H86	H	1.075311	0.000105	0.601084
