data_functionalizedCrystal
_audit_creation_method	'MofGen! by Chris Wilmer'
_symmetry_space_group_name_H-M	'P1'
_symmetry_Int_Tables_number	1
_symmetry_cell_setting	triclinic
loop_
_symmetry_equiv_pos_as_xyz
  x,y,z
_cell_length_a	16.974800
_cell_length_b	13.262508
_cell_length_c	16.053802
_cell_angle_alpha	108.475487
_cell_angle_beta	91.074188
_cell_angle_gamma	82.923469
loop_
_atom_site_label
_atom_site_type_symbol
_atom_site_fract_x
_atom_site_fract_y
_atom_site_fract_z
O1	O	1.048044	0.135751	0.032240
O2	O	0.818459	0.152053	0.020422
O3	O	0.940703	-0.011106	-0.008361
O4	O	0.925800	0.298909	0.061023
O5	O	0.933975	-0.002162	0.132073
O6	O	0.811730	0.160996	0.160857
O7	O	1.041316	0.144694	0.172675
Zn8	Zn	0.925455	0.154265	0.189063
Zn9	Zn	0.934320	0.142482	0.004034
O10	O	0.919072	0.307852	0.201458
C11	C	0.785737	0.155741	0.088477
C12	C	0.698263	0.153392	0.082030
C13	C	0.653504	0.157162	0.155554
C14	C	0.571314	0.154938	0.149496
C15	C	0.533883	0.148953	0.069914
C16	C	0.578648	0.145180	-0.003616
C17	C	0.660838	0.147396	0.002442
C18	C	0.288467	0.141797	0.043587
C19	C	0.206271	0.139584	0.037535
C20	C	0.198943	0.149341	0.190647
C21	C	0.281133	0.151562	0.196699
C22	C	0.325892	0.147784	0.123168
N23	N	0.449871	0.146684	0.063720
N24	N	0.409903	0.150045	0.129361
C25	C	0.937122	-0.046311	0.052830
C26	C	0.936467	-0.164536	0.025936
C27	C	0.919945	-0.478306	0.256340
C28	C	0.920555	-0.367226	0.281609
C29	C	0.924533	-0.316548	0.217693
C30	C	0.927901	-0.376961	0.128504
C31	C	0.927286	-0.488050	0.103232
C32	C	0.931874	-0.326293	0.064585
C33	C	0.935242	-0.386706	-0.024604
C34	C	0.934627	-0.497784	-0.049871
C35	C	0.930649	-0.548462	0.014045
C36	C	0.932489	-0.215203	0.089857
C37	C	0.939830	-0.224948	-0.063251
C38	C	0.939221	-0.336028	-0.088520
C39	C	1.074037	0.141006	0.104618
C40	C	1.161512	0.143354	0.111059
C41	C	0.922652	0.343058	0.140264
C42	C	0.923308	0.461283	0.167153
N43	N	0.919411	0.162306	0.315340
N44	N	0.940370	0.134432	-0.122245
C45	C	0.971444	0.092907	0.346794
C46	C	0.967224	0.098542	0.435195
C47	C	0.910972	0.173583	0.492142
C48	C	0.858933	0.242985	0.460683
C49	C	0.863150	0.237344	0.372282
C50	C	0.892549	0.198193	0.757895
C51	C	0.888337	0.203831	0.846301
C52	C	0.996627	0.059386	0.820807
C53	C	1.000843	0.053756	0.732406
C54	C	0.948801	0.123155	0.700954
N55	N	0.906658	0.179347	0.582503
N56	N	0.953112	0.117385	0.610593
H57	H	0.175798	0.134714	-0.027272
C58	C	0.149703	0.153535	0.271532
H59	H	0.095393	0.151364	0.256531
H60	H	0.155195	0.217958	0.317610
H61	H	0.168139	0.093862	0.290350
H62	H	0.943064	-0.183686	-0.115297
H63	H	0.813128	0.304081	0.507054
H64	H	1.017253	0.031806	0.300433
H65	H	1.046647	-0.007347	0.686040
C66	C	0.805917	0.313687	0.337684
H67	H	0.771816	0.359194	0.384262
H68	H	0.775049	0.273060	0.292287
H69	H	0.835578	0.355924	0.315173
H70	H	0.324900	0.138716	-0.016289
C71	C	1.053860	-0.016954	0.855405
H72	H	1.043290	-0.002857	0.916207
H73	H	1.107061	-0.006130	0.847121
H74	H	1.046527	-0.088986	0.824235
H75	H	0.842528	0.264942	0.892666
C76	C	0.322299	0.158172	0.284244
H77	H	0.283870	0.160099	0.327166
H78	H	0.347715	0.221292	0.303424
H79	H	0.360701	0.097196	0.276155
C80	C	1.024468	0.022213	0.469793
H81	H	1.058581	-0.023274	0.423219
H82	H	0.994821	-0.020027	0.492308
H83	H	1.055334	0.062856	0.515190
C84	C	0.835327	0.274554	0.723310
H85	H	0.845890	0.260451	0.662506
H86	H	0.842667	0.346575	0.754485
H87	H	0.782120	0.263736	0.731591
C88	C	0.694673	0.163726	0.243090
H89	H	0.656243	0.165637	0.286006
H90	H	0.720103	0.226833	0.262297
H91	H	0.733063	0.102732	0.234972
H92	H	0.697279	0.144329	-0.057429
H93	H	0.929739	-0.166025	0.162475
H94	H	0.534876	0.157990	0.209363
C95	C	0.916858	-0.300782	0.379708
H96	H	0.914409	-0.346872	0.414156
H97	H	0.870955	-0.249253	0.391457
H98	H	0.962945	-0.265241	0.394040
H99	H	0.548166	0.140300	-0.068415
C100	C	0.929949	-0.670646	-0.013754
H101	H	0.932517	-0.699369	-0.076025
H102	H	0.882457	-0.685962	0.007514
H103	H	0.974447	-0.701989	0.010090
H104	H	0.925028	-0.226102	0.238273
C105	C	0.915563	-0.534046	0.326639
H106	H	0.913641	-0.482160	0.383376
H107	H	0.961158	-0.585173	0.321261
H108	H	0.869169	-0.569179	0.318661
C109	C	0.938319	-0.564233	-0.147976
H110	H	0.940781	-0.518147	-0.182424
H111	H	0.892238	-0.599776	-0.162308
H112	H	0.984228	-0.615762	-0.159723
H113	H	0.941963	-0.385231	-0.161139
