data_functionalizedCrystal
_audit_creation_method	'MofGen! by Chris Wilmer'
_symmetry_space_group_name_H-M	'P1'
_symmetry_Int_Tables_number	1
_symmetry_cell_setting	triclinic
loop_
_symmetry_equiv_pos_as_xyz
  x,y,z
_cell_length_a	19.188929
_cell_length_b	14.519709
_cell_length_c	12.996460
_cell_angle_alpha	89.999966
_cell_angle_beta	89.972070
_cell_angle_gamma	96.587534
loop_
_atom_site_label
_atom_site_type_symbol
_atom_site_fract_x
_atom_site_fract_y
_atom_site_fract_z
O1	O	0.091525	-1.223300	-0.085484
O2	O	0.591525	-0.723300	0.414516
O3	O	0.102303	-0.954756	-0.085522
O4	O	0.602303	-0.454756	0.414478
O5	O	-0.004714	-1.096778	-0.085438
O6	O	0.495286	-0.596778	0.414562
O7	O	0.198542	-1.081279	-0.085568
O8	O	0.698542	-0.581279	0.414432
O9	O	-0.004720	-1.096763	0.085695
O10	O	0.495280	-0.596763	0.585695
O11	O	0.102297	-0.954742	0.085612
O12	O	0.602297	-0.454742	0.585612
O13	O	0.091519	-1.223285	0.085650
O14	O	0.591519	-0.723285	0.585650
Cu15	Cu	0.096907	-1.089012	0.101257
Cu16	Cu	0.596907	-0.589012	0.601257
Cu17	Cu	0.096914	-1.089030	-0.101129
Cu18	Cu	0.596914	-0.589030	0.398871
O19	O	0.198536	-1.081264	0.085566
O20	O	0.698536	-0.581264	0.585566
C21	C	-0.030730	-1.096269	0.000143
C22	C	0.469270	-0.596269	0.500143
C23	C	-0.108240	-1.094762	0.000185
C24	C	0.391760	-0.594762	0.500185
C25	C	0.101797	-0.920392	0.000041
C26	C	0.601797	-0.420392	0.500041
C27	C	0.100292	-0.818020	0.000030
C28	C	0.600292	-0.318020	0.500030
C29	C	0.224551	-1.081773	-0.000017
C30	C	0.724551	-0.581773	0.499983
C31	C	0.302061	-1.083280	-0.000066
C32	C	0.802061	-0.583280	0.499934
C33	C	0.346689	-0.999946	-0.000057
C34	C	0.846689	-0.499946	0.499943
C35	C	0.419517	-1.001362	-0.000033
C36	C	0.919517	-0.501362	0.499967
C37	C	0.447716	-1.086116	0.000002
C38	C	0.947716	-0.586116	0.500002
C39	C	0.403079	-1.169460	-0.000013
C40	C	0.903079	-0.669460	0.499987
C41	C	0.330252	-1.168042	-0.000047
C42	C	0.830252	-0.668042	0.499953
N43	N	0.555913	-1.150894	0.058316
N44	N	1.055913	-0.650894	0.558316
N45	N	0.625096	-1.152235	0.058350
N46	N	1.125096	-0.652235	0.558350
C47	C	0.667140	-1.090393	0.000101
C48	C	1.167140	-0.590393	0.500101
N49	N	0.637387	-1.027144	-0.058171
N50	N	1.137387	-0.527144	0.441829
N51	N	0.568198	-1.025800	-0.058200
N52	N	1.068198	-0.525800	0.441800
C53	C	0.526684	-1.087663	0.000038
C54	C	1.026684	-0.587663	0.500038
C55	C	0.790737	-1.008588	0.000134
C56	C	1.290737	-0.508588	0.500134
C57	C	0.863567	-1.010007	0.000151
C58	C	1.363567	-0.510007	0.500151
C59	C	0.847126	-1.178108	0.000182
C60	C	1.347126	-0.678108	0.500182
C61	C	0.774298	-1.176687	0.000154
C62	C	1.274298	-0.676687	0.500154
C63	C	0.746108	-1.091924	0.000135
C64	C	1.246108	-0.591924	0.500135
C65	C	0.092024	-1.257649	0.000084
C66	C	0.592024	-0.757649	0.500084
C67	C	0.093529	-1.360021	0.000088
C68	C	0.593529	-0.860021	0.500088
N69	N	0.096902	-1.089007	0.243604
N70	N	0.596902	-0.589007	0.743604
C71	C	0.094751	-0.443159	0.000081
C72	C	0.594751	0.056841	0.500081
C73	C	0.096290	-0.547457	0.000066
C74	C	0.596290	-0.047457	0.500066
C75	C	0.097521	-0.630586	0.000055
C76	C	0.597521	-0.130586	0.500055
C77	C	0.099060	-0.734891	0.000042
C78	C	0.599060	-0.234891	0.500042
N79	N	0.096914	-1.089042	-0.243476
N80	N	0.596914	-0.589042	0.256524
C81	C	0.096915	-1.089028	0.663418
C82	C	0.596915	-0.589028	1.163418
C83	C	0.096914	-1.089020	0.546613
C84	C	0.596914	-0.589020	1.046613
C85	C	0.096909	-1.089018	0.453515
C86	C	0.596909	-0.589018	0.953515
C87	C	0.096906	-1.089008	0.336702
C88	C	0.596906	-0.589008	0.836702
H89	H	0.323741	-0.930926	-0.000081
H90	H	0.823741	-0.430926	0.499919
Br91	Br	0.480095	-0.888258	-0.000019
Br92	Br	0.980095	-0.388258	0.499981
H93	H	0.737961	-1.244546	0.000154
H94	H	1.237961	-0.744546	0.500154
H95	H	0.899902	-0.942144	0.000152
H96	H	1.399902	-0.442144	0.500152
Br97	Br	0.269681	-1.281147	-0.000060
Br98	Br	0.769681	-0.781147	0.499940
H99	H	0.426042	-1.238467	-0.000004
H100	H	0.926042	-0.738467	0.499996
H101	H	0.767783	-0.939570	0.000125
H102	H	1.267783	-0.439570	0.500125
H103	H	0.870085	-1.247116	0.000135
H104	H	1.370085	-0.747116	0.500135
