data_functionalizedCrystal
_audit_creation_method	'MofGen! by Chris Wilmer'
_symmetry_space_group_name_H-M	'P1'
_symmetry_Int_Tables_number	1
_symmetry_cell_setting	triclinic
loop_
_symmetry_equiv_pos_as_xyz
  x,y,z
_cell_length_a	19.077105
_cell_length_b	12.645330
_cell_length_c	12.645324
_cell_angle_alpha	89.968234
_cell_angle_beta	87.679768
_cell_angle_gamma	87.714233
loop_
_atom_site_label
_atom_site_type_symbol
_atom_site_fract_x
_atom_site_fract_y
_atom_site_fract_z
Zn1	Zn	1.076048	-0.487168	-0.664482
Zn2	Zn	1.576048	0.012832	-0.164482
Zn3	Zn	1.075969	-0.664473	-0.487217
Zn4	Zn	1.575969	-0.164473	0.012783
Zn5	Zn	0.958343	-0.480096	-0.480112
Zn6	Zn	1.458343	0.019904	0.019888
Zn7	Zn	0.958331	-0.657257	-0.657322
Zn8	Zn	1.458331	-0.157257	-0.157322
O9	O	1.017173	-0.572248	-0.572283
O10	O	1.517173	-0.072248	-0.072283
O11	O	1.174529	-0.516668	-0.646937
O12	O	1.674529	-0.016668	-0.146937
O13	O	1.060337	-0.640075	-0.337925
O14	O	1.560337	-0.140075	0.162075
O15	O	0.973995	-0.332689	-0.504592
O16	O	1.473995	0.167311	-0.004592
O17	O	1.174471	-0.646933	-0.516701
O18	O	1.674471	-0.146933	-0.016701
O19	O	1.060472	-0.337885	-0.640047
O20	O	1.560472	0.162115	-0.140047
O21	O	0.973918	-0.504614	-0.332705
O22	O	1.473918	-0.004614	0.167295
O23	O	0.859850	-0.497616	-0.497650
O24	O	1.359850	0.002384	0.002350
O25	O	0.973975	-0.634634	-0.806621
O26	O	1.473975	-0.134634	-0.306621
O27	O	0.859841	-0.627776	-0.627845
O28	O	1.359841	-0.127776	-0.127845
O29	O	1.060461	-0.509671	-0.811881
O30	O	1.560461	-0.009671	-0.311881
O31	O	1.060326	-0.811861	-0.509759
O32	O	1.560326	-0.311861	-0.009759
O33	O	0.973898	-0.806559	-0.634735
O34	O	1.473898	-0.306559	-0.134735
C35	C	0.834308	-0.561146	-0.561200
C36	C	1.334308	-0.061146	-0.061200
C37	C	0.756077	-0.556422	-0.556484
C38	C	1.256077	-0.056422	-0.056484
C39	C	1.017121	-0.847675	-0.572265
C40	C	1.517121	-0.347675	-0.072265
C41	C	1.017164	-0.965508	-0.572297
C42	C	1.517164	-0.465508	-0.072297
C43	C	0.719338	-0.622072	-0.621948
C44	C	1.219338	-0.122072	-0.121948
C45	C	0.645833	-0.617620	-0.617522
C46	C	1.145833	-0.117620	-0.117522
C47	C	0.609067	-0.547522	-0.547626
C48	C	1.109067	-0.047522	-0.047626
C49	C	0.645811	-0.481865	-0.482159
C50	C	1.145811	0.018135	0.017841
C51	C	0.719315	-0.486313	-0.486592
C52	C	1.219315	0.013687	0.013408
C53	C	0.389231	-0.526936	-0.527117
C54	C	0.889231	-0.026936	-0.027117
C55	C	0.315721	-0.522495	-0.522688
C56	C	0.815721	-0.022495	-0.022688
C57	C	0.315748	-0.658249	-0.658052
C58	C	0.815748	-0.158249	-0.158052
C59	C	0.389254	-0.662695	-0.662474
C60	C	0.889254	-0.162695	-0.162474
C61	C	0.425991	-0.597034	-0.597011
C62	C	0.925991	-0.097034	-0.097011
N63	N	0.533932	-0.542971	-0.543097
N64	N	1.033932	-0.042971	-0.043097
N65	N	0.501125	-0.601580	-0.601546
N66	N	1.001125	-0.101580	-0.101546
C67	C	0.963016	-1.129794	-0.651185
C68	C	1.463016	-0.629794	-0.151185
C69	C	0.962739	-1.007218	-0.650904
C70	C	1.462739	-0.507218	-0.150904
C71	C	0.997083	-1.008898	-0.459361
C72	C	1.497083	-0.508898	0.040639
C73	C	0.996752	-1.131477	-0.459840
C74	C	1.496752	-0.631477	0.040160
C75	C	1.091723	-1.137112	-0.605458
C76	C	1.591723	-0.637112	-0.105458
C77	C	1.091267	-1.014477	-0.607874
C78	C	1.591267	-0.514477	-0.107874
C79	C	1.200752	-0.583395	-0.583410
C80	C	1.700752	-0.083395	-0.083410
C81	C	1.278982	-0.588145	-0.588151
C82	C	1.778982	-0.088145	-0.088151
C83	C	1.017225	-0.572136	-0.848792
C84	C	1.517225	-0.072136	-0.348792
C85	C	1.017248	-0.572089	-0.966623
C86	C	1.517248	-0.072089	-0.466623
C87	C	1.017243	-0.295747	-0.572326
C88	C	1.517243	0.204253	-0.072326
C89	C	1.017273	-0.177919	-0.572344
C90	C	1.517273	0.322081	-0.072344
C91	C	1.071868	-0.493725	-1.137509
C92	C	1.571868	0.006275	-0.637509
C93	C	1.071693	-0.493419	-1.014939
C94	C	1.571693	0.006581	-0.514939
C95	C	0.943099	-0.537237	-1.006620
C96	C	1.443099	-0.037237	-0.506620
C97	C	0.943431	-0.536637	-1.129239
C98	C	1.443431	-0.036637	-0.629239
C99	C	1.036175	-0.685387	-1.134965
C100	C	1.536175	-0.185387	-0.634965
C101	C	1.037797	-0.684921	-1.012458
C102	C	1.537797	-0.184921	-0.512458
C103	C	1.017161	-0.572286	-0.296853
C104	C	1.517161	-0.072286	0.203147
C105	C	1.017274	-0.572043	-0.179030
C106	C	1.517274	-0.072043	0.320970
H107	H	0.749268	-0.679157	-0.678861
H108	H	1.249268	-0.179157	-0.178861
H109	H	1.110041	-1.169056	-0.686648
H110	H	1.610041	-0.669056	-0.186648
Br111	Br	0.595916	-0.386720	-0.387309
Br112	Br	1.095916	0.113280	0.112691
H113	H	0.615923	-0.671080	-0.670828
H114	H	1.115923	-0.171080	-0.170828
Br115	Br	0.983678	-0.958205	-0.790245
Br116	Br	1.483678	-0.458205	-0.290245
Br117	Br	0.907317	-0.952451	-0.412799
Br118	Br	1.407317	-0.452451	0.087201
H119	H	0.419183	-0.719779	-0.719388
H120	H	0.919183	-0.219779	-0.219388
Br121	Br	1.162197	-0.967692	-0.519739
Br122	Br	1.662197	-0.467692	-0.019739
H123	H	0.285828	-0.711705	-0.711349
H124	H	0.785828	-0.211705	-0.211349
H125	H	0.749227	-0.432848	-0.433290
H126	H	1.249227	0.067152	0.066710
Br127	Br	0.870744	-0.952910	-0.613756
Br128	Br	1.370744	-0.452910	-0.113756
H129	H	1.127033	-0.515840	-1.170336
H130	H	1.627033	-0.015840	-0.670336
H131	H	0.942329	-1.156873	-0.432310
H132	H	1.442329	-0.656873	0.067690
Br133	Br	0.983760	-1.180057	-0.790972
Br134	Br	1.483760	-0.680057	-0.290972
Br135	Br	1.050836	-0.353625	-0.964811
Br136	Br	1.550836	0.146375	-0.464811
Br137	Br	1.059752	-1.184745	-0.358183
Br138	Br	1.559752	-0.684745	0.141817
Br139	Br	1.124754	-0.736771	-1.191871
Br140	Br	1.624754	-0.236771	-0.691871
Br141	Br	0.873319	-0.627151	-1.174422
Br142	Br	1.373319	-0.127151	-0.674422
Br143	Br	0.439080	-0.437818	-0.438281
Br144	Br	0.939080	0.062182	0.061719
H145	H	1.132146	-1.168557	-0.548089
H146	H	1.632146	-0.668557	-0.048089
H147	H	0.908167	-1.157373	-0.629155
H148	H	1.408167	-0.657373	-0.129155
H149	H	1.106410	-0.986234	-0.691010
H150	H	1.606410	-0.486234	-0.191010
Br151	Br	0.265825	-0.427367	-0.427811
Br152	Br	0.765825	0.072633	0.072189
H153	H	1.035348	-0.982066	-0.398815
H154	H	1.535348	-0.482066	0.101185
Br155	Br	1.163337	-0.530644	-0.970351
Br156	Br	1.663337	-0.030644	-0.470351
Br157	Br	1.051284	-0.354711	-1.187639
Br158	Br	1.551284	0.145289	-0.687639
H159	H	0.927410	-0.453650	-1.156880
H160	H	1.427410	0.046350	-0.656880
H161	H	0.901316	-0.592332	-0.974928
H162	H	1.401316	-0.092332	-0.474928
Br163	Br	0.915905	-0.400412	-0.953828
Br164	Br	1.415905	0.099588	-0.453828
Br165	Br	1.128750	-0.728587	-0.969515
Br166	Br	1.628750	-0.228587	-0.469515
H167	H	1.000924	-0.746778	-0.979577
H168	H	1.500924	-0.246778	-0.479577
Br169	Br	0.969898	-0.782740	-1.179260
Br170	Br	1.469898	-0.282740	-0.679260
