data_functionalizedCrystal
_audit_creation_method	'MofGen! by Chris Wilmer'
_symmetry_space_group_name_H-M	'P1'
_symmetry_Int_Tables_number	1
_symmetry_cell_setting	triclinic
loop_
_symmetry_equiv_pos_as_xyz
  x,y,z
_cell_length_a	16.120490
_cell_length_b	12.827892
_cell_length_c	12.827885
_cell_angle_alpha	89.970214
_cell_angle_beta	87.082877
_cell_angle_gamma	87.107940
loop_
_atom_site_label
_atom_site_type_symbol
_atom_site_fract_x
_atom_site_fract_y
_atom_site_fract_z
Zn1	Zn	1.274622	-0.497187	-0.671786
Zn2	Zn	1.607956	-0.163854	-0.338453
Zn3	Zn	1.941289	0.169480	-0.005120
Zn4	Zn	1.274538	-0.671959	-0.497041
Zn5	Zn	1.607871	-0.338626	-0.163708
Zn6	Zn	1.941204	-0.005292	0.169625
Zn7	Zn	1.135200	-0.488355	-0.488207
Zn8	Zn	1.468533	-0.155022	-0.154873
Zn9	Zn	1.801866	0.178311	0.178460
Zn10	Zn	1.135188	-0.663003	-0.662893
Zn11	Zn	1.468521	-0.329670	-0.329559
Zn12	Zn	1.801855	0.003663	0.003774
O13	O	1.204887	-0.580126	-0.579982
O14	O	1.538220	-0.246793	-0.246648
O15	O	1.871554	0.086540	0.086685
O16	O	1.391278	-0.527815	-0.656025
O17	O	1.724612	-0.194481	-0.322692
O18	O	2.057945	0.138852	0.010641
O19	O	1.256024	-0.647655	-0.349631
O20	O	1.589357	-0.314322	-0.016298
O21	O	1.922691	0.019011	0.317035
O22	O	1.153735	-0.343293	-0.512584
O23	O	1.487068	-0.009960	-0.179250
O24	O	1.820401	0.323373	0.154083
O25	O	1.391216	-0.656219	-0.527641
O26	O	1.724550	-0.322886	-0.194307
O27	O	2.057883	0.010448	0.139026
O28	O	1.256168	-0.349782	-0.647459
O29	O	1.589501	-0.016449	-0.314125
O30	O	1.922835	0.316885	0.019208
O31	O	1.153653	-0.512763	-0.343141
O32	O	1.486986	-0.179429	-0.009807
O33	O	1.820319	0.153904	0.323526
O34	O	1.018531	-0.504079	-0.503960
O35	O	1.351864	-0.170746	-0.170626
O36	O	1.685198	0.162588	0.162707
O37	O	1.153715	-0.640956	-0.810310
O38	O	1.487048	-0.307622	-0.476977
O39	O	1.820381	0.025711	-0.143644
O40	O	1.018522	-0.632392	-0.632301
O41	O	1.351856	-0.299059	-0.298967
O42	O	1.685189	0.034275	0.034366
O43	O	1.256156	-0.519131	-0.816845
O44	O	1.589490	-0.185798	-0.483511
O45	O	1.922823	0.147536	-0.150178
O46	O	1.256012	-0.817004	-0.519017
O47	O	1.589346	-0.483671	-0.185684
O48	O	1.922679	-0.150338	0.147650
O49	O	1.153633	-0.810425	-0.640867
O50	O	1.486966	-0.477092	-0.307534
O51	O	1.820299	-0.143758	0.025799
C52	C	1.204835	-0.851633	-0.579960
C53	C	1.538168	-0.518299	-0.246627
C54	C	1.871501	-0.184966	0.086707
C55	C	1.204889	-0.967789	-0.579990
C56	C	1.538222	-0.634456	-0.246657
C57	C	1.871555	-0.301123	0.086676
C58	C	0.988276	-0.566306	-0.566207
C59	C	1.321609	-0.232973	-0.232874
C60	C	1.654943	0.100360	0.100460
C61	C	0.895609	-0.560419	-0.560339
C62	C	1.228942	-0.227086	-0.227006
C63	C	1.562276	0.106248	0.106328
C64	C	1.255610	-1.022799	-0.519769
C65	C	1.588943	-0.689466	-0.186436
C66	C	1.922276	-0.356132	0.146897
C67	C	1.255667	-1.142853	-0.519799
C68	C	1.589000	-0.809520	-0.186466
C69	C	1.922333	-0.476186	0.146867
C70	C	0.684675	-0.610655	-0.610422
C71	C	1.018008	-0.277322	-0.277088
C72	C	1.351341	0.056011	0.056245
C73	C	0.725951	-0.549680	-0.549624
C74	C	1.059284	-0.216347	-0.216291
C75	C	1.392617	0.116986	0.117042
C76	C	0.820357	-0.555657	-0.555588
C77	C	1.153691	-0.222324	-0.222254
C78	C	1.487024	0.111009	0.111079
C79	C	0.590259	-0.604680	-0.604459
C80	C	0.923593	-0.271347	-0.271126
C81	C	1.256926	0.061987	0.062207
C82	C	1.422344	-0.594001	-0.593811
C83	C	1.755677	-0.260668	-0.260477
C84	C	2.089010	0.072666	0.072856
C85	C	1.515011	-0.599913	-0.599704
C86	C	1.848344	-0.266580	-0.266370
C87	C	2.181677	0.066753	0.066963
C88	C	1.204944	-0.580029	-0.852556
C89	C	1.538277	-0.246696	-0.519222
C90	C	1.871610	0.086637	-0.185889
C91	C	1.204968	-0.579988	-0.968710
C92	C	1.538301	-0.246655	-0.635377
C93	C	1.871635	0.086678	-0.302044
C94	C	1.204962	-0.307561	-0.580028
C95	C	1.538295	0.025773	-0.246694
C96	C	1.871629	0.359106	0.086639
C97	C	1.204994	-0.191410	-0.580047
C98	C	1.538327	0.141924	-0.246714
C99	C	1.871661	0.475257	0.086619
C100	C	1.255665	-0.519693	-1.023729
C101	C	1.588998	-0.186360	-0.690395
C102	C	1.922331	0.146973	-0.357062
C103	C	1.255691	-0.519649	-1.143781
C104	C	1.589024	-0.186316	-0.810447
C105	C	1.922358	0.147017	-0.477114
C106	C	1.204878	-0.580150	-0.308471
C107	C	1.538212	-0.246817	0.024862
C108	C	1.871545	0.086516	0.358195
C109	C	1.205016	-0.579907	-0.192327
C110	C	1.538349	-0.246574	0.141006
C111	C	1.871682	0.086759	0.474339
H112	H	1.299088	-1.190147	-0.468239
H113	H	1.632422	-0.856814	-0.134906
H114	H	1.965755	-0.523481	0.198428
N115	N	1.147514	-0.648276	-1.129673
N116	N	1.480847	-0.314943	-0.796340
N117	N	1.814180	0.018391	-0.463006
H118	H	1.087942	-0.628247	-1.144828
H119	H	1.421275	-0.294914	-0.811495
H120	H	1.754608	0.038419	-0.478162
H121	H	1.160494	-0.723756	-1.149442
H122	H	1.493827	-0.390423	-0.816108
H123	H	1.827161	-0.057090	-0.482775
N124	N	1.313193	-0.451274	-1.206426
N125	N	1.646526	-0.117940	-0.873093
N126	N	1.979860	0.215393	-0.539760
H127	H	1.305062	-0.460936	-1.283307
H128	H	1.638396	-0.127603	-0.949974
H129	H	1.971729	0.205731	-0.616641
H130	H	1.300247	-0.375803	-1.186592
H131	H	1.633580	-0.042470	-0.853259
H132	H	1.966914	0.290863	-0.519925
H133	H	1.161578	-0.631569	-1.010485
H134	H	1.494912	-0.298236	-0.677151
H135	H	1.828245	0.035098	-0.343818
N136	N	0.731777	-0.685759	-0.685283
N137	N	1.065110	-0.352426	-0.351949
N138	N	1.398444	-0.019093	-0.018616
H139	H	0.691080	-0.725628	-0.725027
H140	H	1.024413	-0.392294	-0.391694
H141	H	1.357746	-0.058961	-0.058361
H142	H	0.767932	-0.645529	-0.735956
H143	H	1.101266	-0.312196	-0.402623
H144	H	1.434599	0.021138	-0.069289
N145	N	0.678842	-0.474597	-0.474736
N146	N	1.012176	-0.141264	-0.141403
N147	N	1.345509	0.192069	0.191930
H148	H	0.693916	-0.491683	-0.400979
H149	H	1.027249	-0.158350	-0.067646
H150	H	1.360582	0.174983	0.265688
H151	H	0.693967	-0.400914	-0.492109
H152	H	1.027300	-0.067581	-0.158775
H153	H	1.360633	0.265752	0.174558
H154	H	1.161564	-1.144122	-0.631604
H155	H	1.494898	-0.810789	-0.298270
H156	H	1.828231	-0.477456	0.035063
N157	N	1.313076	-0.967471	-0.451435
N158	N	1.646409	-0.634138	-0.118101
N159	N	1.979743	-0.300804	0.215232
H160	H	1.372660	-0.990132	-0.471501
H161	H	1.705993	-0.656799	-0.138168
H162	H	2.039326	-0.323465	0.195166
H163	H	1.304821	-0.889566	-0.461124
H164	H	1.638154	-0.556232	-0.127790
H165	H	1.971487	-0.222899	0.205543
H166	H	1.299046	-0.468102	-0.981954
H167	H	1.632379	-0.134768	-0.648620
H168	H	1.965713	0.198565	-0.315287
N169	N	1.147419	-1.023116	-0.648321
N170	N	1.480752	-0.689782	-0.314988
N171	N	1.814085	-0.356449	0.018345
H172	H	1.181331	-1.070490	-0.698910
H173	H	1.514665	-0.737156	-0.365577
H174	H	1.847998	-0.403823	-0.032244
H175	H	1.108866	-1.065959	-0.603258
H176	H	1.442200	-0.732625	-0.269924
H177	H	1.775533	-0.399292	0.063409
