data_functionalizedCrystal
_audit_creation_method	'MofGen! by Chris Wilmer'
_symmetry_space_group_name_H-M	'P1'
_symmetry_Int_Tables_number	1
_symmetry_cell_setting	triclinic
loop_
_symmetry_equiv_pos_as_xyz
  x,y,z
_cell_length_a	16.959454
_cell_length_b	16.959455
_cell_length_c	16.959447
_cell_angle_alpha	89.985678
_cell_angle_beta	90.026736
_cell_angle_gamma	89.982978
loop_
_atom_site_label
_atom_site_type_symbol
_atom_site_fract_x
_atom_site_fract_y
_atom_site_fract_z
Zn1	Zn	-0.314730	-1.208384	0.446928
Zn2	Zn	0.185270	-0.708384	0.946928
Zn3	Zn	-0.446923	-1.208306	0.314758
Zn4	Zn	0.053077	-0.708306	0.814758
Zn5	Zn	-0.314755	-1.076212	0.314766
Zn6	Zn	0.185245	-0.576212	0.814766
Zn7	Zn	-0.446864	-1.076177	0.446897
Zn8	Zn	0.053136	-0.576177	0.946897
O9	O	-0.380818	-1.142270	0.380837
O10	O	0.119182	-0.642270	0.880837
O11	O	-0.332280	-1.318984	0.429406
O12	O	0.167720	-0.818984	0.929406
O13	O	-0.429426	-1.190766	0.204148
O14	O	0.070574	-0.690766	0.704148
O15	O	-0.204141	-1.093792	0.332314
O16	O	0.295859	-0.593792	0.832314
O17	O	-0.429402	-1.318927	0.332301
O18	O	0.070598	-0.818927	0.832301
O19	O	-0.204123	-1.190898	0.429413
O20	O	0.295877	-0.690898	0.929413
O21	O	-0.332323	-1.093717	0.204154
O22	O	0.167677	-0.593717	0.704154
O23	O	-0.332265	-0.965597	0.332283
O24	O	0.167735	-0.465597	0.832283
O25	O	-0.429301	-1.093732	0.557512
O26	O	0.070699	-0.593732	1.057512
O27	O	-0.429325	-0.965571	0.429359
O28	O	0.070675	-0.465571	0.929359
O29	O	-0.332223	-1.190864	0.557535
O30	O	0.167777	-0.690864	1.057535
O31	O	-0.557526	-1.190732	0.332270
O32	O	-0.057526	-0.690732	0.832270
O33	O	-0.557482	-1.093657	0.429352
O34	O	-0.057482	-0.593657	0.929352
C35	C	-0.380792	-0.936904	0.380819
C36	C	0.119208	-0.436904	0.880819
C37	C	-0.380800	-0.849047	0.380830
C38	C	0.119200	-0.349047	0.880830
C39	C	-0.586184	-1.142204	0.380824
C40	C	-0.086184	-0.642204	0.880824
C41	C	-0.674041	-1.142248	0.380844
C42	C	-0.174041	-0.642248	0.880844
C43	C	-0.380753	-1.142303	0.587006
C44	C	0.119247	-0.642303	1.087006
C45	C	-0.380725	-1.142317	0.674862
C46	C	0.119275	-0.642317	1.174862
C47	C	-1.045524	-1.091796	0.431382
C48	C	-0.545524	-0.591796	0.931382
C49	C	-1.045509	-1.192963	0.330373
C50	C	-0.545509	-0.692963	0.830373
C51	C	-0.962963	-1.192936	0.330365
C52	C	-0.462963	-0.692936	0.830365
C53	C	-0.921694	-1.142337	0.380867
C54	C	-0.421694	-0.642337	0.880867
C55	C	-0.962970	-1.091765	0.431375
C56	C	-0.462970	-0.591765	0.931375
C57	C	-0.921680	-1.243501	0.279852
C58	C	-0.421680	-0.743501	0.779852
C59	C	-0.839130	-1.243475	0.279842
C60	C	-0.339130	-0.743475	0.779842
C61	C	-0.797859	-1.192879	0.330348
C62	C	-0.297859	-0.692879	0.830348
C63	C	-0.839140	-1.142306	0.380859
C64	C	-0.339140	-0.642306	0.880859
C65	C	-0.797871	-1.091707	0.431360
C66	C	-0.297871	-0.591707	0.931360
C67	C	-0.839151	-1.041137	0.481876
C68	C	-0.339151	-0.541137	0.981876
C69	C	-0.921699	-1.041170	0.481881
C70	C	-0.421699	-0.541170	0.981881
C71	C	-0.715310	-1.192847	0.330343
C72	C	-0.215310	-0.692847	0.830343
C73	C	-0.715317	-1.091676	0.431353
C74	C	-0.215317	-0.591676	0.931353
C75	C	-0.174650	-1.142358	0.380868
C76	C	0.325350	-0.642358	0.880868
C77	C	-0.086793	-1.142395	0.380881
C78	C	0.413207	-0.642395	0.880881
C79	C	-0.380845	-1.348438	0.380856
C80	C	0.119155	-0.848438	0.880856
C81	C	-0.380856	-1.436295	0.380864
C82	C	0.119144	-0.936295	0.880864
C83	C	-0.330238	-0.477560	0.330395
C84	C	0.169762	0.022440	0.830395
C85	C	-0.431463	-0.477582	0.431324
C86	C	0.068537	0.022418	0.931324
C87	C	-0.431452	-0.560128	0.431320
C88	C	0.068548	-0.060128	0.931320
C89	C	-0.380834	-0.601394	0.380851
C90	C	0.119166	-0.101394	0.880851
C91	C	-0.330226	-0.560114	0.330387
C92	C	0.169774	-0.060114	0.830387
C93	C	-0.482064	-0.601414	0.481777
C94	C	0.017936	-0.101414	0.981777
C95	C	-0.482055	-0.683965	0.481773
C96	C	0.017945	-0.183965	0.981773
C97	C	-0.431432	-0.725233	0.431308
C98	C	0.068568	-0.225233	0.931308
C99	C	-0.380822	-0.683948	0.380843
C100	C	0.119178	-0.183948	0.880843
C101	C	-0.330204	-0.725213	0.330374
C102	C	0.169796	-0.225213	0.830374
C103	C	-0.279589	-0.683930	0.279913
C104	C	0.220411	-0.183930	0.779913
C105	C	-0.279603	-0.601381	0.279922
C106	C	0.220397	-0.101381	0.779922
C107	C	-0.431418	-0.807781	0.431299
C108	C	0.068582	-0.307781	0.931299
C109	C	-0.330193	-0.807767	0.330366
C110	C	0.169807	-0.307767	0.830366
C111	C	-0.380826	-1.142283	0.175471
C112	C	0.119174	-0.642283	0.675471
C113	C	-0.380631	-1.142422	0.087615
C114	C	0.119369	-0.642422	0.587615
C115	C	-0.431185	-1.091839	1.046328
C116	C	0.068815	-0.591839	1.546328
C117	C	-0.330097	-1.192983	1.046348
C118	C	0.169903	-0.692983	1.546348
C119	C	-0.330114	-1.192962	0.963802
C120	C	0.169886	-0.692962	1.463802
C121	C	-0.380668	-1.142380	0.922515
C122	C	0.119332	-0.642380	1.422515
C123	C	-0.431205	-1.091818	0.963775
C124	C	0.068795	-0.591818	1.463775
C125	C	-0.279584	-1.243529	0.922536
C126	C	0.220416	-0.743529	1.422536
C127	C	-0.279599	-1.243510	0.839985
C128	C	0.220401	-0.743510	1.339985
C129	C	-0.330149	-1.192923	0.798697
C130	C	0.169851	-0.692923	1.298697
C131	C	-0.380688	-1.142359	0.839962
C132	C	0.119312	-0.642359	1.339962
C133	C	-0.431242	-1.091776	0.798675
C134	C	0.068758	-0.591776	1.298675
C135	C	-0.481777	-1.041207	0.839938
C136	C	0.018223	-0.541207	1.339938
C137	C	-0.481756	-1.041231	0.922487
C138	C	0.018244	-0.541231	1.422487
C139	C	-0.330171	-1.192899	0.716149
C140	C	0.169829	-0.692899	1.216149
C141	C	-0.431262	-1.091755	0.716122
C142	C	0.068738	-0.591755	1.216122
H143	H	-0.805540	-0.999936	0.522991
H144	H	-0.305540	-0.499936	1.022991
O145	O	-0.225005	-0.728446	0.225473
O146	O	0.274995	-0.228446	0.725473
H147	H	-0.189817	-0.685876	0.190378
H148	H	0.310183	-0.185876	0.690378
O149	O	-0.275660	-0.433026	0.275970
O150	O	0.224340	0.066974	0.775970
H151	H	-0.213635	-0.448875	0.289629
H152	H	0.286365	0.051125	0.789629
H153	H	-0.289028	-1.234074	0.682556
H154	H	0.210972	-0.734074	1.182556
O155	O	-0.225021	-0.556851	0.225498
O156	O	0.274979	-0.056851	0.725498
H157	H	-0.189813	-0.599411	0.190408
H158	H	0.310187	-0.099411	0.690408
O159	O	-0.485776	-1.037177	0.671600
O160	O	0.014224	-0.537177	1.171600
H161	H	-0.547814	-1.050698	0.687425
H162	H	-0.047814	-0.550698	1.187425
O163	O	-0.536301	-0.986648	0.795407
O164	O	-0.036301	-0.486648	1.295407
H165	H	-0.527819	-0.995131	0.731074
H166	H	-0.027819	-0.495131	1.231074
H167	H	-0.238430	-1.284715	0.956158
H168	H	0.261570	-0.784715	1.456158
H169	H	-0.522901	-1.000063	0.956091
H170	H	-0.022901	-0.500063	1.456091
O171	O	-1.090045	-1.037258	0.485864
O172	O	-0.590045	-0.537258	0.985864
H173	H	-1.047476	-1.002074	0.520982
H174	H	-0.547476	-0.502074	1.020982
H175	H	-0.523280	-0.567810	0.522860
H176	H	-0.023280	-0.067810	1.022860
O177	O	-0.225094	-1.298045	0.795481
O178	O	0.274906	-0.798045	1.295481
H179	H	-0.189936	-1.333218	0.838059
H180	H	0.310064	-0.833218	1.338059
O181	O	-0.486056	-0.433080	0.485759
O182	O	0.013944	0.066920	0.985759
H183	H	-0.477559	-0.368743	0.477289
H184	H	0.022441	0.131257	0.977289
H185	H	-0.955317	-0.999998	0.523007
H186	H	-0.455317	-0.499998	1.023007
H187	H	-0.523268	-0.717571	0.522863
H188	H	-0.023268	-0.217571	1.022863
O189	O	-0.485999	-0.852311	0.485720
O190	O	0.014001	-0.352311	0.985720
H191	H	-0.521197	-0.809748	0.520816
H192	H	-0.021197	-0.309748	1.020816
H193	H	-0.472327	-1.050665	1.079928
H194	H	0.027673	-0.550665	1.579928
O195	O	-0.275551	-1.247517	1.090872
O196	O	0.224449	-0.747517	1.590872
H197	H	-0.284016	-1.239026	1.155205
H198	H	0.215984	-0.739026	1.655205
H199	H	-1.079115	-1.234154	0.289252
H200	H	-0.579115	-0.734154	0.789252
O201	O	-0.670812	-1.037089	0.485817
O202	O	-0.170812	-0.537089	0.985817
H203	H	-0.686614	-1.050603	0.547868
H204	H	-0.186614	-0.550603	1.047868
O205	O	-0.966188	-1.298101	0.225413
O206	O	-0.466188	-0.798101	0.725413
H207	H	-1.030524	-1.289644	0.233924
H208	H	-0.530524	-0.789644	0.733924
O209	O	-0.794609	-1.298026	0.225372
O210	O	-0.294609	-0.798026	0.725372
H211	H	-0.810495	-1.284525	0.163323
H212	H	-0.310495	-0.784525	0.663323
O213	O	-0.670779	-1.247387	0.275877
O214	O	-0.170779	-0.747387	0.775877
H215	H	-0.686660	-1.233885	0.213826
H216	H	-0.186660	-0.733885	0.713826
O217	O	-0.275606	-0.852275	0.275922
O218	O	0.224394	-0.352275	0.775922
H219	H	-0.240423	-0.809699	0.240831
H220	H	0.259577	-0.309699	0.740831
