data_functionalizedCrystal
_audit_creation_method	'MofGen! by Chris Wilmer'
_symmetry_space_group_name_H-M	'P1'
_symmetry_Int_Tables_number	1
_symmetry_cell_setting	triclinic
loop_
_symmetry_equiv_pos_as_xyz
  x,y,z
_cell_length_a	15.944551
_cell_length_b	17.038272
_cell_length_c	14.421503
_cell_angle_alpha	90.004327
_cell_angle_beta	89.996859
_cell_angle_gamma	87.305147
loop_
_atom_site_label
_atom_site_type_symbol
_atom_site_fract_x
_atom_site_fract_y
_atom_site_fract_z
O1	O	1.121728	0.100827	-0.077015
O2	O	1.455061	0.434160	0.256318
O3	O	1.788395	0.767493	0.589651
O4	O	0.878066	0.113259	-0.077039
O5	O	1.211399	0.446592	0.256295
O6	O	1.544733	0.779926	0.589628
O7	O	0.998449	-0.006773	-0.077020
O8	O	1.331782	0.326560	0.256314
O9	O	1.665116	0.659894	0.589647
O10	O	1.001345	0.220859	-0.077034
O11	O	1.334679	0.554192	0.256299
O12	O	1.668012	0.887525	0.589633
O13	O	0.998429	-0.006755	0.077204
O14	O	1.331762	0.326578	0.410537
O15	O	1.665096	0.659912	0.743870
O16	O	0.878046	0.113277	0.077185
O17	O	1.211379	0.446610	0.410518
O18	O	1.544713	0.779944	0.743852
O19	O	1.121708	0.100845	0.077208
O20	O	1.455041	0.434178	0.410541
O21	O	1.788375	0.767511	0.743875
Cu22	Cu	0.999875	0.107062	0.091278
Cu23	Cu	1.333209	0.440396	0.424612
Cu24	Cu	1.666542	0.773729	0.757945
Cu25	Cu	0.999899	0.107041	-0.091109
Cu26	Cu	1.333232	0.440375	0.242225
Cu27	Cu	1.666566	0.773708	0.575558
O28	O	1.001325	0.220877	0.077189
O29	O	1.334659	0.554210	0.410523
O30	O	1.667992	0.887543	0.743856
C31	C	0.846725	0.112752	0.000070
C32	C	1.180059	0.446085	0.333404
C33	C	1.513392	0.779419	0.666737
C34	C	0.753369	0.111205	0.000062
C35	C	1.086702	0.444538	0.333395
C36	C	1.420035	0.777871	0.666728
C37	C	0.532936	0.033105	0.000085
C38	C	0.866269	0.366438	0.333418
C39	C	1.199602	0.699771	0.666751
C40	C	0.474515	0.069363	-0.075958
C41	C	0.807848	0.402696	0.257375
C42	C	1.141182	0.736030	0.590709
C43	C	0.582443	0.108405	0.000073
C44	C	0.915776	0.441739	0.333406
C45	C	1.249110	0.775072	0.666739
C46	C	0.474519	0.069398	0.076094
C47	C	0.807852	0.402732	0.409428
C48	C	1.141185	0.736065	0.742761
C49	C	0.417337	0.105696	0.000088
C50	C	0.750670	0.439029	0.333421
C51	C	1.084004	0.772363	0.666754
C52	C	0.525252	0.144684	-0.076033
C53	C	0.858585	0.478017	0.257301
C54	C	1.191919	0.811351	0.590634
C55	C	0.525261	0.144709	0.076088
C56	C	0.858595	0.478042	0.409421
C57	C	1.191928	0.811376	0.742755
C58	C	0.466862	0.181022	0.000027
C59	C	0.800195	0.514355	0.333360
C60	C	1.133529	0.847689	0.666693
C61	C	0.677557	0.109964	0.000063
C62	C	1.010890	0.443297	0.333397
C63	C	1.344223	0.776631	0.666730
C64	C	0.322225	0.104143	0.000090
C65	C	0.655558	0.437476	0.333424
C66	C	0.988892	0.770810	0.666757
C67	C	0.995805	-0.035893	0.000092
C68	C	1.329138	0.297440	0.333425
C69	C	1.662471	0.630774	0.666758
C70	C	0.987945	-0.122688	0.000091
C71	C	1.321279	0.210645	0.333424
C72	C	1.654612	0.543978	0.666757
C73	C	1.060103	-0.172781	0.000098
C74	C	1.393436	0.160552	0.333432
C75	C	1.726770	0.493886	0.666765
C76	C	1.052713	-0.254334	0.000089
C77	C	1.386047	0.079000	0.333422
C78	C	1.719380	0.412333	0.666756
C79	C	0.973165	-0.285792	0.000078
C80	C	1.306499	0.047541	0.333412
C81	C	1.639832	0.380875	0.666745
C82	C	0.901002	-0.235693	0.000068
C83	C	1.234336	0.097640	0.333401
C84	C	1.567669	0.430974	0.666734
C85	C	0.908393	-0.154142	0.000071
C86	C	1.241726	0.179192	0.333404
C87	C	1.575059	0.512525	0.666737
C88	C	0.947056	-0.531558	0.000063
C89	C	1.280390	-0.198224	0.333396
C90	C	1.613723	0.135109	0.666730
C91	C	0.939671	-0.613115	0.000063
C92	C	1.273005	-0.279782	0.333396
C93	C	1.606338	0.053551	0.666730
C94	C	1.091383	-0.631751	0.000083
C95	C	1.424716	-0.298417	0.333416
C96	C	1.758050	0.034916	0.666749
C97	C	1.098766	-0.550197	0.000091
C98	C	1.432100	-0.216864	0.333424
C99	C	1.765433	0.116470	0.666758
C100	C	1.026603	-0.500105	0.000075
C101	C	1.359937	-0.166772	0.333409
C102	C	1.693270	0.166562	0.666742
C103	C	0.965610	-0.369152	0.000071
C104	C	1.298943	-0.035819	0.333405
C105	C	1.632277	0.297515	0.666738
C106	C	1.034159	-0.416747	0.000076
C107	C	1.367493	-0.083413	0.333409
C108	C	1.700826	0.249920	0.666742
C109	C	1.153049	0.101352	0.000097
C110	C	1.486382	0.434685	0.333431
C111	C	1.819716	0.768019	0.666764
C112	C	1.246405	0.102899	0.000100
C113	C	1.579739	0.436232	0.333433
C114	C	1.913072	0.769566	0.666766
C115	C	1.003969	0.249997	0.000076
C116	C	1.337303	0.583330	0.333409
C117	C	1.670636	0.916663	0.666743
C118	C	1.011829	0.336792	0.000071
C119	C	1.345162	0.670125	0.333404
C120	C	1.678495	1.003459	0.666737
N121	N	0.999865	0.107077	0.219560
N122	N	1.333198	0.440410	0.552893
N123	N	1.666531	0.773743	0.886226
N124	N	0.999916	0.107021	-0.219390
N125	N	1.333249	0.440354	0.113943
N126	N	1.666582	0.773687	0.447277
C127	C	0.944187	0.162555	0.469205
C128	C	1.277521	0.495888	0.802538
C129	C	1.610854	0.829221	1.135871
C130	C	1.021171	0.177734	0.531013
C131	C	1.354504	0.511067	0.864347
C132	C	1.687838	0.844400	1.197680
C133	C	0.999884	0.107058	0.408721
C134	C	1.333217	0.440391	0.742054
C135	C	1.666550	0.773725	1.075388
C136	C	0.922921	0.091897	0.531006
C137	C	1.256254	0.425231	0.864339
C138	C	1.589587	0.758564	1.197673
C139	C	0.999895	0.107042	0.591442
C140	C	1.333229	0.440375	0.924776
C141	C	1.666562	0.773709	1.258109
C142	C	1.076908	0.122272	0.469169
C143	C	1.410242	0.455606	0.802502
C144	C	1.743575	0.788939	1.135836
C145	C	0.978606	0.036405	0.469156
C146	C	1.311939	0.369739	0.802490
C147	C	1.645273	0.703072	1.135823
C148	C	1.055642	0.051554	0.530937
C149	C	1.388976	0.384888	0.864271
C150	C	1.722309	0.718221	1.197604
C151	C	0.999876	0.107070	0.303460
C152	C	1.333209	0.440403	0.636793
C153	C	1.666543	0.773736	0.970127
C154	C	0.999912	0.107030	0.696701
C155	C	1.333245	0.440363	1.030035
C156	C	1.666579	0.773697	1.363368
H157	H	0.452149	0.037543	0.140380
H158	H	0.785483	0.370876	0.473713
H159	H	1.118816	0.704209	0.807047
Cl160	Cl	1.177436	0.142168	0.427415
Cl161	Cl	1.510769	0.475501	0.760748
Cl162	Cl	1.844102	0.808835	1.094081
Cl163	Cl	0.577472	-0.063393	-0.000022
Cl164	Cl	0.910805	0.269940	0.333312
Cl165	Cl	1.244139	0.603273	0.666645
Cl166	Cl	1.128451	-0.020918	0.572531
Cl167	Cl	1.461785	0.312415	0.905865
Cl168	Cl	1.795118	0.645748	1.239198
H169	H	0.452139	0.037506	-0.140243
H170	H	0.785473	0.370840	0.193091
H171	H	1.118806	0.704173	0.526424
Cl172	Cl	0.422558	0.277604	-0.000042
Cl173	Cl	0.755892	0.610937	0.333292
Cl174	Cl	1.089225	0.944271	0.666625
H175	H	0.874891	-0.638725	0.000069
H176	H	1.208224	-0.305392	0.333403
H177	H	1.541557	0.027942	0.666736
H178	H	1.124879	-0.147175	0.000113
H179	H	1.458213	0.186159	0.333446
H180	H	1.791546	0.519492	0.666779
Cl181	Cl	0.800998	-0.275241	0.000043
Cl182	Cl	1.134332	0.058093	0.333376
Cl183	Cl	1.467665	0.391426	0.666709
H184	H	0.960576	-0.023318	0.441965
H185	H	1.293909	0.310015	0.775298
H186	H	1.627242	0.643349	1.108631
H187	H	1.111472	-0.295117	0.000097
H188	H	1.444805	0.038217	0.333431
H189	H	1.778139	0.371550	0.666764
H190	H	1.150134	-0.672544	0.000093
H191	H	1.483467	-0.339210	0.333427
H192	H	1.816800	-0.005877	0.666760
H193	H	0.547520	0.176502	-0.140391
H194	H	0.880854	0.509835	0.192943
H195	H	1.214187	0.843169	0.526276
Cl196	Cl	1.198774	-0.510656	0.000074
Cl197	Cl	1.532107	-0.177323	0.333408
Cl198	Cl	1.865440	0.156011	0.666741
H199	H	0.547656	0.176539	0.140376
H200	H	0.880990	0.509873	0.473709
H201	H	1.214323	0.843206	0.807042
H202	H	0.897141	0.209524	0.442099
H203	H	1.230474	0.542857	0.775433
H204	H	1.563807	0.876190	1.108766
H205	H	0.900842	-0.394774	0.000065
H206	H	1.234175	-0.061441	0.333398
H207	H	1.567508	0.271892	0.666731
H208	H	0.849634	-0.113356	0.000064
H209	H	1.182968	0.219977	0.333397
H210	H	1.516301	0.553310	0.666731
Cl211	Cl	0.856336	-0.468595	0.000041
Cl212	Cl	1.189669	-0.135262	0.333375
Cl213	Cl	1.523002	0.198071	0.666708
Cl214	Cl	1.134159	-0.377198	0.000084
Cl215	Cl	1.467492	-0.043864	0.333418
Cl216	Cl	1.800826	0.289469	0.666751
Cl217	Cl	1.048976	0.269970	0.572964
Cl218	Cl	1.382309	0.603303	0.906297
Cl219	Cl	1.715642	0.936636	1.239631
Cl220	Cl	0.822426	0.072108	0.572945
Cl221	Cl	1.155760	0.405441	0.906279
Cl222	Cl	1.489093	0.738775	1.239612
