data_functionalizedCrystal
_audit_creation_method	'MofGen! by Chris Wilmer'
_symmetry_space_group_name_H-M	'P1'
_symmetry_Int_Tables_number	1
_symmetry_cell_setting	triclinic
loop_
_symmetry_equiv_pos_as_xyz
  x,y,z
_cell_length_a	8.559649
_cell_length_b	12.996460
_cell_length_c	8.597304
_cell_angle_alpha	82.294004
_cell_angle_beta	77.624184
_cell_angle_gamma	89.990776
loop_
_atom_site_label
_atom_site_type_symbol
_atom_site_fract_x
_atom_site_fract_y
_atom_site_fract_z
O1	O	-2.119300	0.080930	0.053140
O2	O	-1.869300	0.330930	0.303140
O3	O	-1.619300	0.580930	0.553140
O4	O	-1.369300	0.830930	0.803140
O5	O	-1.655360	0.088087	-0.027760
O6	O	-1.405360	0.338087	0.222240
O7	O	-1.155360	0.588087	0.472240
O8	O	-0.905360	0.838087	0.722240
O9	O	-1.896459	0.064155	0.242258
O10	O	-1.646459	0.314155	0.492258
O11	O	-1.396459	0.564155	0.742258
O12	O	-1.146459	0.814155	0.992258
O13	O	-1.878201	0.104862	-0.216878
O14	O	-1.628201	0.354862	0.033122
O15	O	-1.378201	0.604862	0.283122
O16	O	-1.128201	0.854862	0.533122
O17	O	-1.896433	-0.106980	0.242268
O18	O	-1.646433	0.143020	0.492268
O19	O	-1.396433	0.393020	0.742268
O20	O	-1.146433	0.643020	0.992268
O21	O	-1.655334	-0.083048	-0.027750
O22	O	-1.405334	0.166952	0.222250
O23	O	-1.155334	0.416952	0.472250
O24	O	-0.905334	0.666952	0.722250
O25	O	-2.119274	-0.090204	0.053150
O26	O	-1.869274	0.159796	0.303150
O27	O	-1.619274	0.409796	0.553150
O28	O	-1.369274	0.659796	0.803150
Cu29	Cu	-1.887302	-0.102252	0.012701
Cu30	Cu	-1.637302	0.147748	0.262701
Cu31	Cu	-1.387302	0.397748	0.512701
Cu32	Cu	-1.137302	0.647748	0.762701
Cu33	Cu	-1.887332	0.100134	0.012689
Cu34	Cu	-1.637332	0.350134	0.262689
Cu35	Cu	-1.387332	0.600134	0.512689
Cu36	Cu	-1.137332	0.850134	0.762689
O37	O	-1.878175	-0.066272	-0.216868
O38	O	-1.628175	0.183728	0.033132
O39	O	-1.378175	0.433728	0.283132
O40	O	-1.128175	0.683728	0.533132
C41	C	-1.595913	0.003061	-0.033886
C42	C	-1.345913	0.253061	0.216114
C43	C	-1.095913	0.503061	0.466114
C44	C	-0.845913	0.753061	0.716114
C45	C	-1.418818	0.004673	-0.052136
C46	C	-1.168818	0.254673	0.197864
C47	C	-0.918818	0.504673	0.447864
C48	C	-0.668818	0.754673	0.697864
N49	N	-1.887292	-0.244600	0.012712
N50	N	-1.637292	0.005400	0.262712
N51	N	-1.387292	0.255400	0.512712
N52	N	-1.137292	0.505400	0.762712
C53	C	-1.887330	-0.664412	0.012687
C54	C	-1.637330	-0.414412	0.262687
C55	C	-1.387330	-0.164412	0.512687
C56	C	-1.137330	0.085588	0.762687
C57	C	-1.887315	-0.547607	0.012688
C58	C	-1.637315	-0.297607	0.262688
C59	C	-1.387315	-0.047607	0.512688
C60	C	-1.137315	0.202393	0.762688
C61	C	-1.887312	-0.454510	0.012698
C62	C	-1.637312	-0.204510	0.262698
C63	C	-1.387312	0.045490	0.512698
C64	C	-1.137312	0.295490	0.762698
C65	C	-1.887295	-0.337698	0.012702
C66	C	-1.637295	-0.087698	0.262702
C67	C	-1.387295	0.162302	0.512702
C68	C	-1.137295	0.412302	0.762702
C69	C	-1.178721	-0.005186	0.059276
C70	C	-0.928721	0.244814	0.309276
C71	C	-0.678721	0.494814	0.559276
C72	C	-0.428721	0.744814	0.809276
C73	C	-1.355816	-0.006819	0.077525
C74	C	-1.105816	0.243181	0.327525
C75	C	-0.855816	0.493181	0.577525
C76	C	-0.605816	0.743181	0.827525
C77	C	-1.894484	-0.026574	0.300499
C78	C	-1.644484	0.223426	0.550499
C79	C	-1.394484	0.473426	0.800499
C80	C	-1.144484	0.723426	1.050499
C81	C	-1.888620	-0.041952	0.474020
C82	C	-1.638620	0.208048	0.724020
C83	C	-1.388620	0.458048	0.974020
C84	C	-1.138620	0.708048	1.224020
N85	N	-1.887354	0.242481	0.012692
N86	N	-1.637354	0.492481	0.262692
N87	N	-1.387354	0.742481	0.512692
N88	N	-1.137354	0.992481	0.762692
C89	C	-1.880150	0.024458	-0.275109
C90	C	-1.630150	0.274458	-0.025109
C91	C	-1.380150	0.524458	0.224891
C92	C	-1.130150	0.774458	0.474891
C93	C	-1.886014	0.039843	-0.448630
C94	C	-1.636014	0.289843	-0.198630
C95	C	-1.386014	0.539843	0.051370
C96	C	-1.136014	0.789843	0.301370
H97	H	-1.437368	-0.017896	0.202503
H98	H	-1.187368	0.232104	0.452503
H99	H	-0.937368	0.482104	0.702503
H100	H	-0.687368	0.732104	0.952503
H101	H	-1.886346	-0.123757	0.540548
H102	H	-1.636346	0.126243	0.790548
H103	H	-1.386346	0.376243	1.040548
H104	H	-1.136346	0.626243	1.290548
H105	H	-1.337275	0.015760	-0.177105
H106	H	-1.087275	0.265760	0.072895
H107	H	-0.837275	0.515760	0.322895
H108	H	-0.587275	0.765760	0.572895
H109	H	-1.888265	0.121644	0.484844
H110	H	-1.638265	0.371644	0.734844
H111	H	-1.388265	0.621644	0.984844
H112	H	-1.138265	0.871644	1.234844
