data_functionalizedCrystal
_audit_creation_method	'MofGen! by Chris Wilmer'
_symmetry_space_group_name_H-M	'P1'
_symmetry_Int_Tables_number	1
_symmetry_cell_setting	triclinic
loop_
_symmetry_equiv_pos_as_xyz
  x,y,z
_cell_length_a	17.077404
_cell_length_b	19.121063
_cell_length_c	17.077396
_cell_angle_alpha	92.408800
_cell_angle_beta	89.980499
_cell_angle_gamma	92.469213
loop_
_atom_site_label
_atom_site_type_symbol
_atom_site_fract_x
_atom_site_fract_y
_atom_site_fract_z
Zn1	Zn	1.186697	-0.279610	-0.457152
Zn2	Zn	1.686697	0.220390	0.042848
Zn3	Zn	1.180993	-0.397067	-0.331476
Zn4	Zn	1.680993	0.102933	0.168524
Zn5	Zn	1.055428	-0.279634	-0.325901
Zn6	Zn	1.555428	0.220366	0.174099
Zn7	Zn	1.049788	-0.397025	-0.462698
Zn8	Zn	1.549788	0.102975	0.037302
O9	O	1.118227	-0.338334	-0.394307
O10	O	1.618227	0.161666	0.105693
O11	O	1.295787	-0.295198	-0.440493
O12	O	1.795787	0.204802	0.059507
O13	O	1.164310	-0.381517	-0.220891
O14	O	1.664310	0.118483	0.279109
O15	O	1.077589	-0.181347	-0.338657
O16	O	1.577589	0.318653	0.161343
O17	O	1.291597	-0.381493	-0.348160
O18	O	1.791597	0.118507	0.151840
O19	O	1.174032	-0.181328	-0.435086
O20	O	1.674032	0.318672	0.064914
O21	O	1.072058	-0.295240	-0.216795
O22	O	1.572058	0.204760	0.283205
O23	O	0.944833	-0.295199	-0.344035
O24	O	1.444833	0.204801	0.155965
O25	O	1.067976	-0.381422	-0.571808
O26	O	1.567976	0.118578	-0.071808
O27	O	0.940690	-0.381446	-0.444539
O28	O	1.440690	0.118554	0.055461
O29	O	1.168563	-0.295157	-0.567733
O30	O	1.668563	0.204843	-0.067733
O31	O	1.158841	-0.495346	-0.353538
O32	O	1.658841	0.004654	0.146462
O33	O	1.062445	-0.495315	-0.449946
O34	O	1.562445	0.004685	0.050054
C35	C	0.914279	-0.338321	-0.394284
C36	C	1.414279	0.161679	0.105716
C37	C	0.827029	-0.338333	-0.394294
C38	C	1.327029	0.161667	0.105706
C39	C	0.783899	-0.383309	-0.446550
C40	C	1.283899	0.116691	0.053450
C41	C	0.701918	-0.383311	-0.446562
C42	C	1.201918	0.116689	0.053438
C43	C	0.663069	-0.338339	-0.394315
C44	C	1.163069	0.161661	0.105685
C45	C	0.706206	-0.293358	-0.342057
C46	C	1.206206	0.206642	0.157943
C47	C	0.788185	-0.293353	-0.342049
C48	C	1.288185	0.206647	0.157951
C49	C	0.535335	-0.293371	-0.342077
C50	C	1.035335	0.206629	0.157923
C51	C	0.453350	-0.293377	-0.342084
C52	C	0.953350	0.206623	0.157916
C53	C	0.449068	-0.383329	-0.446590
C54	C	0.949068	0.116671	0.053410
C55	C	0.531047	-0.383324	-0.446582
C56	C	1.031047	0.116676	0.053418
C57	C	0.574178	-0.338344	-0.394323
C58	C	1.074178	0.161656	0.105677
C59	C	1.109434	-0.520815	-0.402966
C60	C	1.609434	-0.020815	0.097034
C61	C	1.105744	-0.598881	-0.406696
C62	C	1.605744	-0.098881	0.093304
C63	C	1.154237	-0.635549	-0.358296
C64	C	1.654237	-0.135549	0.141704
C65	C	1.150772	-0.708900	-0.361809
C66	C	1.650772	-0.208900	0.138191
C67	C	1.098808	-0.745582	-0.413719
C68	C	1.598808	-0.245582	0.086281
C69	C	1.050312	-0.708908	-0.462125
C70	C	1.550312	-0.208908	0.037875
C71	C	1.053782	-0.635558	-0.458615
C72	C	1.553782	-0.135558	0.041385
C73	C	1.085821	-0.967052	-0.426830
C74	C	1.585821	-0.467052	0.073170
C75	C	1.082353	-1.040407	-0.430334
C76	C	1.582353	-0.540407	0.069666
C77	C	1.182814	-1.040393	-0.330019
C78	C	1.682814	-0.540393	0.169981
C79	C	1.186276	-0.967042	-0.326511
C80	C	1.686276	-0.467042	0.173489
C81	C	1.137783	-0.930375	-0.374919
C82	C	1.637783	-0.430375	0.125081
C83	C	1.095262	-0.820559	-0.417310
C84	C	1.595262	-0.320559	0.082690
C85	C	1.141333	-0.855399	-0.371332
C86	C	1.641333	-0.355399	0.128668
C87	C	1.322970	-0.338347	-0.394329
C88	C	1.822970	0.161653	0.105671
C89	C	1.410220	-0.338353	-0.394339
C90	C	1.910220	0.161647	0.105661
C91	C	1.118277	-0.338282	-0.599049
C92	C	1.618277	0.161718	-0.099049
C93	C	1.118298	-0.338260	-0.686297
C94	C	1.618298	0.161740	-0.186297
C95	C	1.127075	-0.155141	-0.385631
C96	C	1.627075	0.344859	0.114369
C97	C	1.130846	-0.077075	-0.381934
C98	C	1.630846	0.422925	0.118066
C99	C	1.170675	-0.293338	-0.725167
C100	C	1.670675	0.206662	-0.225167
C101	C	1.170686	-0.293315	-0.807146
C102	C	1.670686	0.206685	-0.307146
C103	C	1.118322	-0.338217	-0.850255
C104	C	1.618322	0.161783	-0.350255
C105	C	1.065939	-0.383141	-0.811380
C106	C	1.565939	0.116859	-0.311380
C107	C	1.065925	-0.383160	-0.729402
C108	C	1.565925	0.116840	-0.229402
C109	C	1.065973	-0.383099	-0.982248
C110	C	1.565973	0.116901	-0.482248
C111	C	1.065987	-0.383081	-1.064232
C112	C	1.565987	0.116919	-0.564232
C113	C	1.170733	-0.293254	-1.059992
C114	C	1.670733	0.206746	-0.559992
C115	C	1.170720	-0.293273	-0.978014
C116	C	1.670720	0.206727	-0.478014
C117	C	1.118337	-0.338198	-0.939145
C118	C	1.618337	0.161802	-0.439145
C119	C	1.118224	-0.338335	-0.190359
C120	C	1.618224	0.161665	0.309641
C121	C	1.118365	-0.338159	-0.103101
C122	C	1.618365	0.161841	0.396899
H123	H	0.815523	-0.419933	-0.489093
H124	H	1.315523	0.080067	0.010907
F125	F	1.039959	-0.859604	-0.472555
F126	F	1.539959	-0.359604	0.027445
H127	H	0.666805	-0.419935	-0.489113
H128	H	1.166805	0.080065	0.010887
F129	F	0.572391	-0.431193	-0.502184
F130	F	1.072391	0.068807	-0.002184
F131	F	0.834087	-0.245482	-0.286433
F132	F	1.334087	0.254518	0.213567
F133	F	1.226459	-0.245527	-0.848511
F134	F	1.726459	0.254473	-0.348511
F135	F	0.403165	-0.431193	-0.502217
F136	F	0.903165	0.068807	-0.002217
H137	H	1.196548	-0.605687	-0.316022
H138	H	1.696548	-0.105687	0.183978
F139	F	1.027035	-1.079445	-0.485578
F140	F	1.527035	-0.579445	0.014422
F141	F	1.010176	-0.430971	-0.688034
F142	F	1.510176	0.069029	-0.188034
F143	F	1.010250	-0.430865	-1.110109
F144	F	1.510250	0.069135	-0.610109
H145	H	1.046335	-0.937203	-0.466244
H146	H	1.546335	-0.437203	0.033756
F147	F	1.196638	-0.816359	-0.316090
F148	F	1.696638	-0.316359	0.183910
F149	F	1.226455	-0.245487	-0.932137
F150	F	1.726455	0.254513	-0.432137
F151	F	1.202388	-0.747922	-0.310297
F152	F	1.702388	-0.247922	0.189703
F153	F	1.241592	-0.928008	-0.271269
F154	F	1.741592	-0.428008	0.228731
H155	H	1.222295	-1.070255	-0.290609
H156	H	1.722295	-0.570255	0.209391
H157	H	1.023301	-0.419699	-0.846485
H158	H	1.523301	0.080301	-0.346485
F159	F	1.002171	-0.596534	-0.510131
F160	F	1.502171	-0.096534	-0.010131
F161	F	1.226413	-0.245550	-0.679295
F162	F	1.726413	0.254450	-0.179295
F163	F	0.995012	-0.747950	-0.517376
F164	F	1.495012	-0.247950	-0.017376
F165	F	1.226484	-0.245441	-1.101361
F166	F	1.726484	0.254559	-0.601361
H167	H	0.421722	-0.256748	-0.299549
H168	H	0.921722	0.243252	0.200451
H169	H	0.570450	-0.256737	-0.299529
H170	H	1.070450	0.243263	0.200471
F171	F	1.010220	-0.430912	-0.940882
F172	F	1.510220	0.069088	-0.440882
H173	H	0.674569	-0.256738	-0.299520
H174	H	1.174569	0.243262	0.200480
