data_functionalizedCrystal
_audit_creation_method	'MofGen! by Chris Wilmer'
_symmetry_space_group_name_H-M	'P1'
_symmetry_Int_Tables_number	1
_symmetry_cell_setting	triclinic
loop_
_symmetry_equiv_pos_as_xyz
  x,y,z
_cell_length_a	14.395555
_cell_length_b	14.395555
_cell_length_c	14.395555
_cell_angle_alpha	89.998937
_cell_angle_beta	120.002374
_cell_angle_gamma	119.995231
loop_
_atom_site_label
_atom_site_type_symbol
_atom_site_fract_x
_atom_site_fract_y
_atom_site_fract_z
Zr1	Zr	-1.016861	0.894919	-0.122034
O2	O	-1.210644	0.746608	-0.270361
O3	O	-0.823067	0.940377	-0.076554
O4	O	-1.016857	0.940389	-0.270360
O5	O	-1.016860	0.746595	0.076313
O6	O	-1.016867	1.093255	-0.270370
O7	O	-1.016853	0.746597	-0.076555
O8	O	-0.670212	1.093234	0.076314
O9	O	-1.363516	0.746616	-0.270372
O10	O	-0.902789	1.073855	-0.057176
O11	O	-0.902786	0.959773	0.056915
O12	O	-1.130950	0.959786	-0.171268
O13	O	-1.130947	0.845703	-0.057177
Zr14	Zr	-1.016888	1.138721	0.121756
Zr15	Zr	-1.016877	1.138722	-0.122050
Zr16	Zr	-1.016872	0.894917	0.121772
Zr17	Zr	-1.260674	0.894932	-0.122051
Zr18	Zr	-0.773074	1.138708	0.121773
O19	O	-1.210682	1.093262	0.076276
O20	O	-1.210666	1.093265	-0.270384
O21	O	-1.210659	0.746606	0.076299
O22	O	-0.823105	1.287032	0.270084
O23	O	-0.823089	1.287034	-0.076577
O24	O	-0.823083	0.940375	0.270106
O25	O	-1.016888	1.287044	-0.076590
O26	O	-1.016891	1.093251	0.270083
O27	O	-1.016882	0.940385	0.270093
O28	O	-1.016895	1.287043	0.076277
O29	O	-1.363528	0.940407	-0.270385
O30	O	-0.670220	1.093233	0.270107
O31	O	-0.670233	1.287024	0.270094
O32	O	-0.670224	1.287025	0.076301
O33	O	-1.363525	0.746615	-0.076579
O34	O	-1.363537	0.940406	-0.076592
O35	O	-0.902799	1.073854	0.170990
O36	O	-0.902801	1.187937	0.056899
O37	O	-1.130962	1.073867	-0.057192
O38	O	-1.130960	0.959784	0.056898
C39	C	-0.711901	1.016804	-0.000117
C40	C	-0.608396	1.016799	-0.000110
C41	C	-0.547801	0.954598	0.062104
C42	C	-0.562050	0.909519	-0.045169
C43	C	-0.409748	1.061846	0.107140
C44	C	-0.624071	0.971657	-0.107446
C45	C	-0.471706	1.124044	0.044940
C46	C	-0.486001	1.078992	-0.062396
C47	C	-1.016855	0.711859	-0.000119
C48	C	-1.016848	0.608358	-0.000112
C49	C	-0.321843	1.016830	-0.000146
C50	C	-0.425336	1.016819	-0.000112
C51	C	-0.892468	0.548043	0.062068
C52	C	-0.954623	0.578920	-0.045185
C53	C	-0.954661	0.578873	0.107122
C54	C	-1.079057	0.454794	-0.107483
C55	C	-1.079077	0.454750	0.044902
C56	C	-1.141323	0.485554	-0.062416
C57	C	-1.016861	1.016822	-0.305102
C58	C	-1.016856	1.016823	-0.408604
C59	C	-1.016894	1.321781	-0.000159
C60	C	-1.016901	1.425281	-0.000166
C61	C	-0.892452	1.079024	-0.406985
C62	C	-0.954637	0.971757	-0.500004
C63	C	-0.954676	1.124064	-0.500014
C64	C	-1.079041	0.909493	-0.500260
C65	C	-1.079062	1.061877	-0.500255
C66	C	-1.141338	0.954546	-0.593292
C67	C	-1.016888	1.016818	0.304825
C68	C	-1.016893	1.016817	0.408327
C69	C	-0.711921	1.321765	-0.000137
C70	C	-0.608422	1.425260	-0.000137
C71	C	-0.711915	1.016802	0.304846
C72	C	-0.608414	1.016796	0.408355
C73	C	-0.711934	1.321762	0.304826
C74	C	-0.608441	1.425257	0.408329
C75	C	-1.321814	0.711877	-0.305104
C76	C	-1.425308	0.608383	-0.408606
C77	C	-1.321828	0.711875	-0.000140
C78	C	-1.425326	0.608380	-0.000141
C79	C	-1.321834	1.016838	-0.305124
C80	C	-1.425334	1.016844	-0.408633
C81	C	-0.547876	1.548044	0.062029
C82	C	-0.409769	1.578897	0.107089
C83	C	-0.562170	1.578812	-0.045259
C84	C	-0.471616	1.454749	0.044986
C85	C	-0.624090	1.454667	-0.107422
C86	C	-0.485993	1.485446	-0.062389
C87	C	-0.547824	0.954588	0.406750
C88	C	-0.409732	1.061854	0.499770
C89	C	-0.562057	0.909555	0.499776
C90	C	-0.471622	1.124125	0.500013
C91	C	-0.624021	0.971749	0.500005
C92	C	-0.485938	1.079079	0.593043
C93	C	-0.547836	1.423639	0.531122
C94	C	-0.409745	1.516618	0.561919
C95	C	-0.562020	1.516694	0.561947
C96	C	-0.471651	1.516873	0.437762
C97	C	-0.623999	1.516935	0.437794
C98	C	-0.485918	1.609931	0.468517
H99	H	-0.575027	0.901927	0.114634
C100	C	-0.285953	1.113333	0.501037
N101	N	-0.192728	1.152098	0.501985
C102	C	-0.584411	0.883636	0.298998
N103	N	-0.611966	0.830203	0.217840
C104	C	-0.449382	1.717509	0.433864
N105	N	-0.421854	1.798539	0.407767
C106	C	-0.612474	1.651059	-0.096754
N107	N	-0.650363	1.705478	-0.135532
C108	C	-1.283561	0.883380	-0.700881
N109	N	-1.390680	0.829773	-0.781920
C110	C	-0.285970	1.651233	0.229589
N111	N	-0.192729	1.705724	0.321855
C112	C	-0.883589	0.651127	0.229668
N113	N	-0.830050	0.705549	0.321971
H114	H	-0.574927	1.343883	0.556565
C115	C	-0.750345	1.149968	-0.299227
N116	N	-0.643312	1.203396	-0.218062
H117	H	-0.715628	1.515993	0.384309
H118	H	-0.434253	1.214862	0.499185
C119	C	-0.883569	0.651209	-0.096655
N120	N	-0.830044	0.705658	-0.135416
C121	C	-0.584460	1.582406	0.133199
N122	N	-0.612012	1.608284	0.186808
C123	C	-0.612226	1.517953	0.634258
N124	N	-0.650045	1.518893	0.688721
H125	H	-0.458971	1.459789	-0.114996
H126	H	-0.458915	1.131762	0.672669
C127	C	-1.150039	0.382738	-0.230085
N128	N	-1.203496	0.328467	-0.322427
H129	H	-1.131577	0.818755	-0.499436
C130	C	-1.150065	0.382465	0.096411
N131	N	-1.203522	0.328021	0.135221
H132	H	-0.715675	0.933610	0.499015
H133	H	-0.434195	1.401412	0.083203
H134	H	-0.902056	0.933642	-0.500930
H135	H	-1.131598	1.100017	-0.499286
C136	C	-0.612297	0.787030	0.501006
N137	N	-0.650139	0.694742	0.501924
C138	C	-0.747768	0.920048	-0.230037
N139	N	-0.840939	0.881171	-0.322370
H140	H	-0.318145	1.099934	0.197841
H141	H	-0.902083	1.214763	-0.500915
C142	C	-0.747920	1.382348	-0.229901
N143	N	-0.841199	1.327881	-0.322155
C144	C	-0.285988	1.517834	0.634180
N145	N	-0.192780	1.518743	0.688609
C146	C	-0.421196	1.515720	0.365645
N147	N	-0.383194	1.514846	0.311328
H148	H	-0.599228	0.818831	-0.083279
C149	C	-0.421509	1.246532	0.096463
N150	N	-0.383695	1.338793	0.135283
C151	C	-1.283529	0.450968	-0.133584
N152	N	-1.390637	0.424922	-0.187192
C153	C	-0.449594	1.150042	-0.133574
N154	N	-0.422174	1.203550	-0.187190
H155	H	-0.787287	0.573438	0.114586
