data_functionalizedCrystal
_audit_creation_method	'MofGen! by Chris Wilmer'
_symmetry_space_group_name_H-M	'P1'
_symmetry_Int_Tables_number	1
_symmetry_cell_setting	triclinic
loop_
_symmetry_equiv_pos_as_xyz
  x,y,z
_cell_length_a	19.077236
_cell_length_b	15.299816
_cell_length_c	19.076919
_cell_angle_alpha	77.689900
_cell_angle_beta	90.112677
_cell_angle_gamma	83.008515
loop_
_atom_site_label
_atom_site_type_symbol
_atom_site_fract_x
_atom_site_fract_y
_atom_site_fract_z
Zn1	Zn	1.100674	-0.327586	0.486529
Zn2	Zn	1.600674	0.172414	0.986529
Zn3	Zn	1.124025	-0.472208	0.389324
Zn4	Zn	1.624025	0.027792	0.889324
Zn5	Zn	0.987829	-0.327113	0.364242
Zn6	Zn	1.487829	0.172887	0.864242
Zn7	Zn	1.003402	-0.484247	0.503752
Zn8	Zn	1.503402	0.015753	1.003752
O9	O	1.053982	-0.402789	0.435962
O10	O	1.553982	0.097211	0.935962
O11	O	1.201479	-0.341930	0.476923
O12	O	1.701479	0.158070	0.976923
O13	O	1.109213	-0.447724	0.286931
O14	O	1.609213	0.052276	0.786931
O15	O	0.986508	-0.200890	0.362759
O16	O	1.486508	0.299110	0.862759
O17	O	1.218635	-0.448183	0.405507
O18	O	1.718635	0.051817	0.905507
O19	O	1.069415	-0.201238	0.452602
O20	O	1.569415	0.298762	0.952602
O21	O	1.009150	-0.341124	0.268504
O22	O	1.509150	0.158876	0.768504
O23	O	0.892187	-0.352798	0.379460
O24	O	1.392187	0.147202	0.879460
O25	O	1.013051	-0.468702	0.600534
O26	O	1.513051	0.031298	1.100534
O27	O	0.903629	-0.468244	0.481957
O28	O	1.403629	0.031756	0.981957
O29	O	1.084516	-0.353604	0.587879
O30	O	1.584516	0.146396	1.087879
O31	O	1.124314	-0.600091	0.422208
O32	O	1.624314	-0.100091	0.922208
O33	O	1.035693	-0.608936	0.506278
O34	O	1.535693	-0.108936	1.006278
C35	C	0.872573	-0.411777	0.429857
C36	C	1.372573	0.088223	0.929857
C37	C	0.794968	-0.415644	0.427264
C38	C	1.294968	0.084356	0.927264
C39	C	0.749587	-0.362236	0.463311
C40	C	1.249587	0.137764	0.963311
C41	C	0.676668	-0.365866	0.460869
C42	C	1.176668	0.134134	0.960869
C43	C	0.649132	-0.422908	0.422384
C44	C	1.149132	0.077092	0.922384
C45	C	0.694519	-0.476318	0.386333
C46	C	1.194519	0.023682	0.886333
C47	C	0.767436	-0.472683	0.388771
C48	C	1.267436	0.027317	0.888771
C49	C	0.432011	-0.439697	0.411091
C50	C	0.932011	0.060303	0.911091
C51	C	0.359089	-0.443329	0.408657
C52	C	0.859089	0.056671	0.908657
C53	C	0.341243	-0.332875	0.483192
C54	C	0.841243	0.167125	0.983192
C55	C	0.414162	-0.329250	0.485631
C56	C	0.914162	0.170750	0.985631
C57	C	0.459542	-0.382656	0.449577
C58	C	0.959542	0.117344	0.949577
N59	N	0.574598	-0.426622	0.419888
N60	N	1.074598	0.073378	0.919888
N61	N	0.534074	-0.378937	0.452069
N62	N	1.034074	0.121063	0.952069
C63	C	1.084246	-0.637258	0.468850
C64	C	1.584246	-0.137258	0.968850
C65	C	1.097256	-0.737563	0.482946
C66	C	1.597256	-0.237563	0.982946
C67	C	0.961448	-1.019866	0.335475
C68	C	1.461448	-0.519866	0.835475
C69	C	0.949221	-0.925625	0.322233
C70	C	1.449221	-0.425625	0.822233
C71	C	0.986229	-0.878605	0.362410
C72	C	1.486229	-0.378605	0.862410
C73	C	1.035466	-0.925835	0.415831
C74	C	1.535466	-0.425835	0.915831
C75	C	1.047690	-1.020086	0.429078
C76	C	1.547690	-0.520086	0.929078
C77	C	1.072471	-0.878825	0.456013
C78	C	1.572471	-0.378825	0.956013
C79	C	1.121707	-0.926055	0.509434
C80	C	1.621707	-0.426055	1.009434
C81	C	1.133930	-1.020296	0.522679
C82	C	1.633930	-0.520296	1.022679
C83	C	1.096922	-1.067317	0.482502
C84	C	1.596922	-0.567317	0.982502
C85	C	1.060246	-0.784574	0.442766
C86	C	1.560246	-0.284574	0.942766
C87	C	1.146488	-0.784793	0.536369
C88	C	1.646488	-0.284793	1.036369
C89	C	1.158715	-0.879035	0.549611
C90	C	1.658715	-0.379035	1.049611
C91	C	1.236100	-0.393766	0.442092
C92	C	1.736100	0.106234	0.942092
C93	C	1.313708	-0.389922	0.444704
C94	C	1.813708	0.110078	0.944704
C95	C	1.047916	-0.412549	0.620611
C96	C	1.547916	0.087451	1.120611
C97	C	1.045330	-0.416708	0.699298
C98	C	1.545330	0.083292	1.199298
C99	C	1.023619	-0.167404	0.402961
C100	C	1.523619	0.332596	0.902961
C101	C	1.010680	-0.067097	0.388899
C102	C	1.510680	0.432903	0.888899
C103	C	1.060057	-0.392999	0.252023
C104	C	1.560057	0.107001	0.752023
C105	C	1.062745	-0.388579	0.173306
C106	C	1.562745	0.111421	0.673306
C107	C	1.081322	-0.358740	0.729678
C108	C	1.581322	0.141260	1.229678
C109	C	1.078884	-0.362645	0.803612
C110	C	1.578884	0.137355	1.303612
C111	C	1.040458	-0.424524	0.847165
C112	C	1.540458	0.075476	1.347165
C113	C	1.004462	-0.482495	0.816780
C114	C	1.504462	0.017505	1.316780
C115	C	1.006896	-0.478585	0.742846
C116	C	1.506896	0.021415	1.242846
C117	C	1.029183	-0.442640	1.068987
C118	C	1.529183	0.057360	1.568987
C119	C	1.026753	-0.446547	1.142925
C120	C	1.526753	0.053453	1.642925
C121	C	1.101175	-0.326696	1.129752
C122	C	1.601175	0.173304	1.629752
C123	C	1.103609	-0.322795	1.055819
C124	C	1.603609	0.177205	1.555819
C125	C	1.067610	-0.380763	1.025440
C126	C	1.567610	0.119237	1.525440
N127	N	1.037967	-0.428519	0.922737
N128	N	1.537967	0.071481	1.422737
N129	N	1.070098	-0.376763	0.949868
N130	N	1.570098	0.123237	1.449868
H131	H	0.672093	-0.522759	0.354993
H132	H	1.172093	-0.022759	0.854993
Cl133	Cl	0.824487	-0.539829	0.343454
Cl134	Cl	1.324487	-0.039829	0.843454
H135	H	1.176622	-0.746510	0.569086
H136	H	1.676622	-0.246510	1.069086
H137	H	1.134902	-0.272409	1.020363
H138	H	1.634902	0.227591	1.520363
H139	H	0.976271	-0.801869	0.351624
H140	H	1.476271	-0.301869	0.851624
Cl141	Cl	1.112442	-1.185781	0.499004
Cl142	Cl	1.612442	-0.685781	0.999004
H143	H	0.468951	-0.483185	0.381734
H144	H	0.968951	0.016815	0.881734
H145	H	1.174019	-1.058749	0.566181
H146	H	1.674019	-0.558749	1.066181
Cl147	Cl	0.998352	-0.725210	0.375609
Cl148	Cl	1.498352	-0.225210	0.875609
Cl149	Cl	0.887319	-0.866257	0.255085
Cl150	Cl	1.387319	-0.366257	0.755085
Cl151	Cl	0.914920	-1.078982	0.284984
Cl152	Cl	1.414920	-0.578982	0.784984
H153	H	1.112615	-0.308354	0.694222
H154	H	1.612615	0.191646	1.194222
Cl155	Cl	1.124169	-0.289805	0.841807
Cl156	Cl	1.624169	0.210195	1.341807
H157	H	1.198804	-0.917503	0.593108
H158	H	1.698804	-0.417503	1.093108
H159	H	0.772001	-0.315789	0.494652
H160	H	1.272001	0.184211	0.994652
H161	H	1.130482	-0.279501	1.154495
H162	H	1.630482	0.220499	1.654495
Cl163	Cl	0.978438	-0.524339	1.197677
Cl164	Cl	1.478438	-0.024339	1.697677
H165	H	0.999882	-0.489854	1.044264
H166	H	1.499882	0.010146	1.544264
Cl167	Cl	0.448773	-0.257542	0.534019
Cl168	Cl	0.948773	0.242458	1.034019
H169	H	0.977580	-0.525780	0.718111
H170	H	1.477580	-0.025780	1.218111
Cl171	Cl	0.956151	-0.560283	0.871532
Cl172	Cl	1.456151	-0.060283	1.371532
H173	H	0.304287	-0.289394	0.512545
H174	H	0.804287	0.210606	1.012545
Cl175	Cl	0.324476	-0.515068	0.360292
Cl176	Cl	0.824476	-0.015068	0.860292
Cl177	Cl	0.619621	-0.298724	0.506189
Cl178	Cl	1.119621	0.201276	1.006189
