data_functionalizedCrystal
_audit_creation_method	'MofGen! by Chris Wilmer'
_symmetry_space_group_name_H-M	'P1'
_symmetry_Int_Tables_number	1
_symmetry_cell_setting	triclinic
loop_
_symmetry_equiv_pos_as_xyz
  x,y,z
_cell_length_a	16.959455
_cell_length_b	16.959453
_cell_length_c	17.077396
_cell_angle_alpha	90.026431
_cell_angle_beta	90.019378
_cell_angle_gamma	90.020745
loop_
_atom_site_label
_atom_site_type_symbol
_atom_site_fract_x
_atom_site_fract_y
_atom_site_fract_z
Zn1	Zn	-1.208384	0.314792	-0.443851
Zn2	Zn	-0.708384	0.814792	0.056149
Zn3	Zn	-1.208283	0.446980	-0.312590
Zn4	Zn	-0.708283	0.946980	0.187410
Zn5	Zn	-1.076203	0.314807	-0.312599
Zn6	Zn	-0.576203	0.814807	0.187401
Zn7	Zn	-1.076163	0.446920	-0.443814
Zn8	Zn	-0.576163	0.946920	0.056186
O9	O	-1.142258	0.380875	-0.378214
O10	O	-0.642258	0.880875	0.121786
O11	O	-1.318981	0.332345	-0.426451
O12	O	-0.818981	0.832345	0.073549
O13	O	-1.190737	0.429478	-0.202744
O14	O	-0.690737	0.929478	0.297256
O15	O	-1.093795	0.204194	-0.330030
O16	O	-0.593795	0.704194	0.169970
O17	O	-1.318907	0.429463	-0.330014
O18	O	-0.818907	0.929463	0.169986
O19	O	-1.190908	0.204183	-0.426460
O20	O	-0.690908	0.704183	0.073540
O21	O	-1.093698	0.332371	-0.202751
O22	O	-0.593698	0.832371	0.297249
O23	O	-0.965586	0.332314	-0.329994
O24	O	-0.465586	0.832314	0.170006
O25	O	-1.093728	0.429362	-0.553666
O26	O	-0.593728	0.929362	-0.053666
O27	O	-0.965558	0.429377	-0.426396
O28	O	-0.465558	0.929377	0.073604
O29	O	-1.190870	0.332288	-0.553693
O30	O	-0.690870	0.832288	-0.053693
O31	O	-1.190698	0.557583	-0.329977
O32	O	-0.690698	1.057583	0.170023
O33	O	-1.093631	0.557539	-0.426387
O34	O	-0.593631	1.057539	0.073613
C35	C	-0.936892	0.380841	-0.378192
C36	C	-0.436892	0.880841	0.121808
C37	C	-0.849035	0.380845	-0.378202
C38	C	-0.349035	0.880845	0.121798
C39	C	-1.142171	0.586241	-0.378194
C40	C	-0.642171	1.086241	0.121806
C41	C	-1.142206	0.674098	-0.378212
C42	C	-0.642206	1.174098	0.121788
C43	C	-0.477550	0.330267	-0.328111
C44	C	0.022450	0.830267	0.171889
C45	C	-0.477569	0.431497	-0.428340
C46	C	0.022431	0.931497	0.071660
C47	C	-0.560115	0.431488	-0.428337
C48	C	-0.060115	0.931488	0.071663
C49	C	-0.601382	0.380870	-0.378219
C50	C	-0.101382	0.880870	0.121781
C51	C	-0.560104	0.330259	-0.328104
C52	C	-0.060104	0.830259	0.171896
C53	C	-0.601400	0.482104	-0.478444
C54	C	-0.101400	0.982104	0.021556
C55	C	-0.683950	0.482098	-0.478442
C56	C	-0.183950	0.982098	0.021558
C57	C	-0.725219	0.431475	-0.428328
C58	C	-0.225219	0.931475	0.071672
C59	C	-0.683936	0.380862	-0.378212
C60	C	-0.183936	0.880862	0.121788
C61	C	-0.725203	0.330243	-0.328094
C62	C	-0.225203	0.830243	0.171906
C63	C	-0.683921	0.279625	-0.277982
C64	C	-0.183921	0.779625	0.222018
C65	C	-0.601373	0.279636	-0.277990
C66	C	-0.101373	0.779636	0.222010
C67	C	-0.807768	0.431464	-0.428320
C68	C	-0.307768	0.931464	0.071680
C69	C	-0.807757	0.330235	-0.328088
C70	C	-0.307757	0.830235	0.171912
C71	C	-0.348426	0.380900	-0.378231
C72	C	0.151574	0.880900	0.121769
C73	C	-0.436283	0.380886	-0.378229
C74	C	0.063717	0.880886	0.121771
C75	C	-1.142306	0.380816	-0.582958
C76	C	-0.642306	0.880816	-0.082958
C77	C	-1.142326	0.380792	-0.670208
C78	C	-0.642326	0.880792	-0.170208
C79	C	-1.091641	0.715378	-0.428375
C80	C	-0.591641	1.215378	0.071625
C81	C	-1.192808	0.715371	-0.328071
C82	C	-0.692808	1.215371	0.171929
C83	C	-1.192845	0.797917	-0.328089
C84	C	-0.692845	1.297917	0.171911
C85	C	-1.142281	0.839197	-0.378251
C86	C	-0.642281	1.339197	0.121749
C87	C	-1.091679	0.797931	-0.428396
C88	C	-0.591679	1.297931	0.071604
C89	C	-1.243452	0.839189	-0.277951
C90	C	-0.743452	1.339189	0.222049
C91	C	-1.243492	0.921739	-0.277968
C92	C	-0.743492	1.421739	0.222032
C93	C	-1.192923	0.963021	-0.328127
C94	C	-0.692923	1.463021	0.171873
C95	C	-1.142319	0.921750	-0.378273
C96	C	-0.642319	1.421750	0.121727
C97	C	-1.091754	0.963031	-0.428435
C98	C	-0.591754	1.463031	0.071565
C99	C	-1.041145	0.921762	-0.478578
C100	C	-0.541145	1.421762	0.021422
C101	C	-1.041110	0.839213	-0.478555
C102	C	-0.541110	1.339213	0.021445
C103	C	-1.192958	1.045570	-0.328150
C104	C	-0.692958	1.545570	0.171850
C105	C	-1.091792	1.045584	-0.428456
C106	C	-0.591792	1.545584	0.071544
C107	C	-1.142362	1.174706	-0.378262
C108	C	-0.642362	1.674706	0.121738
C109	C	-1.142394	1.086850	-0.378312
C110	C	-0.642394	1.586850	0.121688
C111	C	-1.192910	0.330241	-0.711214
C112	C	-0.692910	0.830241	-0.211214
C113	C	-1.192919	0.330215	-0.793194
C114	C	-0.692919	0.830215	-0.293194
C115	C	-1.142349	0.380744	-0.834167
C116	C	-0.642349	0.880744	-0.334167
C117	C	-1.091760	0.431297	-0.793156
C118	C	-0.591760	0.931297	-0.293156
C119	C	-1.091747	0.431318	-0.711177
C120	C	-0.591747	0.931318	-0.211177
C121	C	-1.091791	0.431249	-0.964026
C122	C	-0.591791	0.931249	-0.464026
C123	C	-1.091805	0.431229	-1.046011
C124	C	-0.591805	0.931229	-0.546011
C125	C	-1.192964	0.330145	-1.046043
C126	C	-0.692964	0.830145	-0.546043
C127	C	-1.192951	0.330167	-0.964064
C128	C	-0.692951	0.830167	-0.464064
C129	C	-1.142363	0.380721	-0.923058
C130	C	-0.642363	0.880721	-0.423058
C131	C	-1.142256	0.380876	-0.174266
C132	C	-0.642256	0.880876	0.325734
C133	C	-1.142389	0.380678	-0.087016
C134	C	-0.642389	0.880678	0.412984
H135	H	-0.841351	0.289010	-0.287280
H136	H	-0.341351	0.789010	0.212720
Br137	Br	-0.545391	0.550826	-0.546428
Br138	Br	-0.045391	1.050826	-0.046428
Br139	Br	-0.545343	0.210946	-0.209988
Br140	Br	-0.045343	0.710946	0.290012
H141	H	-1.233980	0.681758	-0.287234
H142	H	-0.733980	1.181758	0.212766
H143	H	-0.443964	0.472713	-0.469139
H144	H	0.056036	0.972713	0.030861
Br145	Br	-0.863791	0.500160	-0.496316
Br146	Br	-0.363791	1.000160	0.003684
H147	H	-0.717532	0.238415	-0.237173
H148	H	-0.217532	0.738415	0.262827
H149	H	-0.999979	0.955383	-0.519423
H150	H	-0.499979	1.455383	-0.019423
Br151	Br	-1.312174	0.977741	-0.209919
Br152	Br	-0.812174	1.477741	0.290081
Br153	Br	-0.421529	0.261569	-0.260111
Br154	Br	0.078471	0.761569	0.239889
H155	H	-1.234112	0.289053	-0.826577
H156	H	-0.734112	0.789053	-0.326577
Br157	Br	-1.022959	0.659374	-0.496420
Br158	Br	-0.522959	1.159374	0.003580
H159	H	-1.050615	1.079189	-0.469305
H160	H	-0.550615	1.579189	0.030695
Br161	Br	-1.261591	0.261598	-0.908458
Br162	Br	-0.761591	0.761598	-0.408458
Br163	Br	-1.023165	0.499796	-1.101617
Br164	Br	-0.523165	0.999796	-0.601617
H165	H	-0.717555	0.523314	-0.519247
H166	H	-0.217555	1.023314	-0.019247
Br167	Br	-0.972440	0.783201	-0.546607
Br168	Br	-0.472440	1.283201	-0.046607
Br169	Br	-1.261623	0.261539	-1.101693
Br170	Br	-0.761623	0.761539	-0.601693
H171	H	-1.284624	0.805576	-0.237114
H172	H	-0.784624	1.305576	0.262886
H173	H	-1.234168	1.079167	-0.287329
H174	H	-0.734168	1.579167	0.212671
Br175	Br	-1.261552	0.261668	-0.655615
Br176	Br	-0.761552	0.761668	-0.155615
Br177	Br	-1.023132	0.499856	-0.908376
Br178	Br	-0.523132	0.999856	-0.408376
H179	H	-1.050581	0.472435	-0.826523
H180	H	-0.550581	0.972435	-0.326523
H181	H	-1.050548	0.472474	-0.677791
H182	H	-0.550548	0.972474	-0.177791
