data_functionalizedCrystal
_audit_creation_method	'MofGen! by Chris Wilmer'
_symmetry_space_group_name_H-M	'P1'
_symmetry_Int_Tables_number	1
_symmetry_cell_setting	triclinic
loop_
_symmetry_equiv_pos_as_xyz
  x,y,z
_cell_length_a	10.685661
_cell_length_b	10.685194
_cell_length_c	11.169409
_cell_angle_alpha	85.594584
_cell_angle_beta	85.611991
_cell_angle_gamma	89.666413
loop_
_atom_site_label
_atom_site_type_symbol
_atom_site_fract_x
_atom_site_fract_y
_atom_site_fract_z
Zn1	Zn	1.879773	-0.646591	-0.768233
Zn2	Zn	2.379773	-0.146591	-0.268233
Zn3	Zn	1.863577	-0.856427	-0.551058
Zn4	Zn	2.363577	-0.356427	-0.051058
Zn5	Zn	1.669965	-0.630561	-0.553460
Zn6	Zn	2.169965	-0.130561	-0.053460
Zn7	Zn	1.653912	-0.840229	-0.737618
Zn8	Zn	2.153912	-0.340229	-0.237618
O9	O	1.766807	-0.743452	-0.652592
O10	O	2.266807	-0.243452	-0.152592
O11	O	2.053176	-0.687914	-0.751231
O12	O	2.553176	-0.187914	-0.251231
O13	O	1.837835	-0.826536	-0.383417
O14	O	2.337835	-0.326536	0.116583
O15	O	1.711293	-0.457124	-0.595768
O16	O	2.211293	0.042876	-0.095768
O17	O	2.041277	-0.842079	-0.591674
O18	O	2.541277	-0.342079	-0.091674
O19	O	1.865438	-0.468901	-0.753560
O20	O	2.365438	0.031099	-0.253560
O21	O	1.695589	-0.660593	-0.385182
O22	O	2.195589	-0.160593	0.114818
O23	O	1.492285	-0.644886	-0.566082
O24	O	1.992285	-0.144886	-0.066082
O25	O	1.683933	-0.814472	-0.909639
O26	O	2.183933	-0.314472	-0.409639
O27	O	1.480490	-0.798928	-0.701382
O28	O	1.980490	-0.298928	-0.201382
O29	O	1.849872	-0.672207	-0.932131
O30	O	2.349872	-0.172207	-0.432131
O31	O	1.822269	-1.029842	-0.561988
O32	O	2.322269	-0.529842	-0.061988
O33	O	1.668228	-1.017941	-0.699053
O34	O	2.168228	-0.517941	-0.199053
C35	C	1.440869	-0.718411	-0.630671
C36	C	1.940869	-0.218411	-0.130671
C37	C	1.301429	-0.707729	-0.621319
C38	C	1.801429	-0.207729	-0.121319
C39	C	1.741783	-1.069416	-0.626966
C40	C	2.241783	-0.569416	-0.126966
C41	C	1.731193	-1.208873	-0.616051
C42	C	2.231193	-0.708873	-0.116051
C43	C	2.094017	-0.768591	-0.674600
C44	C	2.594017	-0.268591	-0.174600
C45	C	2.233455	-0.779304	-0.683978
C46	C	2.733455	-0.279304	-0.183978
C47	C	1.766918	-0.743321	-0.965653
C48	C	2.266918	-0.243321	-0.465653
C49	C	1.766965	-0.743265	-1.099060
C50	C	2.266965	-0.243265	-0.599060
C51	C	1.791963	-0.416218	-0.678347
C52	C	2.291963	0.083782	-0.178347
C53	C	1.802682	-0.276770	-0.689322
C54	C	2.302682	0.223230	-0.189322
C55	C	1.766775	-0.743498	-0.340762
C56	C	2.266775	-0.243498	0.159238
C57	C	1.766998	-0.743219	-0.207399
C58	C	2.266998	-0.243219	0.292601
H59	H	1.252949	-0.638269	-0.560529
H60	H	1.752949	-0.138269	-0.060529
O61	O	1.648419	-1.266930	-0.531396
O62	O	2.148419	-0.766930	-0.031396
C63	C	1.561641	-1.336494	-0.588348
C64	C	2.061641	-0.836494	-0.088348
H65	H	1.604381	-1.359285	-0.680807
H66	H	2.104381	-0.859285	-0.180807
H67	H	1.537919	-1.427466	-0.531181
H68	H	2.037919	-0.927466	-0.031181
H69	H	1.472452	-1.278983	-0.599107
H70	H	1.972452	-0.778983	-0.099107
H71	H	1.281942	-0.848757	-0.744783
H72	H	1.781942	-0.348757	-0.244783
H73	H	1.871992	-1.228213	-0.760409
H74	H	2.371992	-0.728213	-0.260409
