data_functionalizedCrystal
_audit_creation_method	'MofGen! by Chris Wilmer'
_symmetry_space_group_name_H-M	'P1'
_symmetry_Int_Tables_number	1
_symmetry_cell_setting	triclinic
loop_
_symmetry_equiv_pos_as_xyz
  x,y,z
_cell_length_a	11.792241
_cell_length_b	10.654562
_cell_length_c	9.730223
_cell_angle_alpha	89.996961
_cell_angle_beta	89.998500
_cell_angle_gamma	84.341760
loop_
_atom_site_label
_atom_site_type_symbol
_atom_site_fract_x
_atom_site_fract_y
_atom_site_fract_z
O1	O	0.159484	1.667374	-0.114381
O2	O	0.174657	1.301854	-0.114364
O3	O	0.001921	1.493484	-0.114363
O4	O	0.332220	1.475744	-0.114382
O5	O	0.001925	1.493482	0.114217
O6	O	0.174661	1.301852	0.114216
O7	O	0.159488	1.667371	0.114199
Zn8	Zn	0.167075	1.484611	0.150499
Zn9	Zn	0.167070	1.484614	-0.150664
O10	O	0.332224	1.475742	0.114198
C11	C	0.173542	1.255059	-0.000072
C12	C	0.170200	1.115626	-0.000065
C13	C	0.168643	1.050098	0.124523
C14	C	0.165512	0.919085	0.124500
C15	C	0.165498	0.919137	-0.124710
C16	C	0.168622	1.050149	-0.124686
C17	C	0.168656	1.050066	0.268403
C18	C	0.165524	0.919053	0.268380
C19	C	-0.040371	1.492369	-0.000074
C20	C	-0.166392	1.489033	-0.000075
C21	C	-0.397119	1.482900	-0.000098
C22	C	-0.268726	1.486308	-0.000085
C23	C	0.374516	1.476857	-0.000094
C24	C	0.500537	1.480192	-0.000102
C25	C	0.160603	1.714167	-0.000096
C26	C	0.163945	1.853600	-0.000112
N27	N	0.167079	1.484619	0.356036
N28	N	0.167057	1.484617	-0.356201
C29	C	0.090617	1.569494	0.427962
C30	C	0.090603	1.569491	0.571845
C31	C	0.243522	1.399732	0.571863
C32	C	0.243530	1.399731	0.427982
C33	C	0.002333	1.667507	0.427953
C34	C	0.002320	1.667503	0.571836
H35	H	0.082747	0.889698	0.313031
H36	H	0.305766	1.330618	0.630457
C37	C	0.163768	0.847100	-0.261785
N38	N	0.162467	0.792843	-0.365034
C39	C	-0.109049	1.626582	0.632125
N40	N	-0.192927	1.595752	0.677537
H41	H	0.169872	1.103499	-0.226137
C42	C	0.062687	1.112866	0.343045
N43	N	-0.017128	1.160167	0.399261
H44	H	0.021771	1.763959	0.610881
C45	C	0.280480	1.089710	0.328724
N46	N	0.364707	1.119571	0.374159
C47	C	0.271660	0.856194	0.342646
N48	N	0.351658	0.808841	0.398457
C49	C	0.327731	1.306458	0.348868
N50	N	0.391189	1.236239	0.289280
C51	C	-0.115521	1.638863	0.375195
N52	N	-0.204287	1.617285	0.335457
H53	H	0.029981	1.758612	0.383321
