data_functionalizedCrystal
_audit_creation_method	'MofGen! by Chris Wilmer'
_symmetry_space_group_name_H-M	'P1'
_symmetry_Int_Tables_number	1
_symmetry_cell_setting	triclinic
loop_
_symmetry_equiv_pos_as_xyz
  x,y,z
_cell_length_a	21.395362
_cell_length_b	25.639239
_cell_length_c	21.395355
_cell_angle_alpha	90.019334
_cell_angle_beta	90.043940
_cell_angle_gamma	90.054564
loop_
_atom_site_label
_atom_site_type_symbol
_atom_site_fract_x
_atom_site_fract_y
_atom_site_fract_z
Zn1	Zn	0.957825	-0.207990	0.354582
Zn2	Zn	1.291158	0.125344	0.687915
Zn3	Zn	1.624491	0.458677	1.021249
Zn4	Zn	0.957713	-0.295409	0.249803
Zn5	Zn	1.291046	0.037924	0.583136
Zn6	Zn	1.624379	0.371257	0.916470
Zn7	Zn	0.853040	-0.208014	0.249783
Zn8	Zn	1.186373	0.125319	0.583117
Zn9	Zn	1.519706	0.458653	0.916450
Zn10	Zn	0.852994	-0.295420	0.354508
Zn11	Zn	1.186328	0.037913	0.687841
Zn12	Zn	1.519661	0.371246	1.021174
O13	O	0.905393	-0.251708	0.302169
O14	O	1.238726	0.081625	0.635502
O15	O	1.572060	0.414958	0.968836
O16	O	1.045488	-0.219571	0.340722
O17	O	1.378821	0.113762	0.674056
O18	O	1.712154	0.447095	1.007389
O19	O	0.943800	-0.283822	0.162122
O20	O	1.277133	0.049511	0.495456
O21	O	1.610466	0.382845	0.828789
O22	O	0.867006	-0.134846	0.263708
O23	O	1.200339	0.198488	0.597041
O24	O	1.533672	0.531821	0.930375
O25	O	1.045405	-0.283798	0.263742
O26	O	1.378739	0.049535	0.597075
O27	O	1.712072	0.382868	0.930408
O28	O	0.943991	-0.134828	0.340703
O29	O	1.277324	0.198506	0.674036
O30	O	1.610657	0.531839	1.007370
O31	O	0.866897	-0.219613	0.162108
O32	O	1.200230	0.113720	0.495441
O33	O	1.533564	0.447054	0.828775
O34	O	0.765356	-0.219623	0.263636
O35	O	1.098689	0.113710	0.596969
O36	O	1.432022	0.447043	0.930303
O37	O	0.866928	-0.283817	0.442196
O38	O	1.200262	0.049517	0.775529
O39	O	1.533595	0.382850	1.108862
O40	O	0.765322	-0.283840	0.340576
O41	O	1.098656	0.049493	0.673910
O42	O	1.431989	0.382826	1.007243
O43	O	0.943947	-0.219582	0.442250
O44	O	1.277280	0.113751	0.775583
O45	O	1.610613	0.447085	1.108917
O46	O	0.943756	-0.368576	0.263669
O47	O	1.277089	-0.035243	0.597003
O48	O	1.610422	0.298091	0.930336
O49	O	0.866820	-0.368584	0.340596
O50	O	1.200153	-0.035251	0.673929
O51	O	1.533486	0.298083	1.007262
C52	C	0.742605	-0.251736	0.302096
C53	C	1.075939	0.081597	0.635430
C54	C	1.409272	0.414931	0.968763
C55	C	0.672964	-0.251760	0.302080
C56	C	1.006297	0.081573	0.635413
C57	C	1.339631	0.414906	0.968747
C58	C	0.640250	-0.285243	0.342083
C59	C	0.973583	0.048091	0.675416
C60	C	1.306916	0.381424	1.008750
C61	C	0.574814	-0.285230	0.342111
C62	C	0.908148	0.048104	0.675444
C63	C	1.241481	0.381437	1.008778
C64	C	0.542096	-0.251740	0.302125
C65	C	0.875429	0.081593	0.635458
C66	C	1.208762	0.414926	0.968791
C67	C	0.574818	-0.218252	0.262119
C68	C	0.908151	0.115082	0.595452
C69	C	1.241484	0.448415	0.928786
C70	C	0.640252	-0.218262	0.262097
C71	C	0.973585	0.115071	0.595430
C72	C	1.306918	0.448405	0.928763
C73	C	0.438372	-0.247528	0.245720
C74	C	0.771705	0.085805	0.579053
C75	C	1.105038	0.419138	0.912386
C76	C	0.372939	-0.247522	0.245741
C77	C	0.706272	0.085811	0.579074
C78	C	1.039605	0.419145	0.912407
C79	C	0.340275	-0.251706	0.302194
C80	C	0.673608	0.081627	0.635527
C81	C	1.006942	0.414960	0.968861
C82	C	0.373052	-0.255908	0.358627
C83	C	0.706386	0.077425	0.691961
C84	C	1.039719	0.410759	1.025294
C85	C	0.438486	-0.255918	0.358605
C86	C	0.771820	0.077415	0.691938
C87	C	1.105153	0.410749	1.025272
C88	C	0.471143	-0.251725	0.302145
C89	C	0.804477	0.081608	0.635478
C90	C	1.137810	0.414941	0.968811
C91	C	0.236608	-0.285176	0.342231
C92	C	0.569942	0.048157	0.675564
C93	C	0.903275	0.381490	1.008897
C94	C	0.171172	-0.285160	0.342260
C95	C	0.504505	0.048174	0.675593
C96	C	0.837838	0.381507	1.008926
C97	C	0.171176	-0.218185	0.262262
C98	C	0.504510	0.115149	0.595595
C99	C	0.837843	0.448482	0.928929
C100	C	0.236612	-0.218198	0.262239
C101	C	0.569945	0.115135	0.595572
C102	C	0.903278	0.448468	0.928905
C103	C	0.269324	-0.251697	0.302222
C104	C	0.602657	0.081636	0.635555
C105	C	0.935990	0.414970	0.968889
C106	C	0.905288	-0.387551	0.302140
C107	C	1.238621	-0.054218	0.635474
C108	C	1.571954	0.279116	0.968807
C109	C	0.905300	-0.445665	0.302149
C110	C	1.238633	-0.112332	0.635482
C111	C	1.571966	0.221002	0.968816
C112	C	0.945558	-0.806011	0.262182
C113	C	1.278891	-0.472678	0.595515
C114	C	1.612225	-0.139345	0.928849
C115	C	0.945582	-0.860616	0.262190
C116	C	1.278916	-0.527282	0.595524
C117	C	1.612249	-0.193949	0.928857
O118	O	0.979702	-0.888838	0.228177
O119	O	1.313035	-0.555505	0.561511
O120	O	1.646369	-0.222171	0.894844
N121	N	0.905503	-0.887947	0.302211
N122	N	1.238836	-0.554614	0.635544
N123	N	1.572170	-0.221281	0.968877
C124	C	0.865401	-0.860672	0.342230
C125	C	1.198735	-0.527339	0.675563
C126	C	1.532068	-0.194005	1.008896
O127	O	0.831313	-0.888934	0.376271
O128	O	1.164647	-0.555601	0.709604
O129	O	1.497980	-0.222267	1.042938
C130	C	0.865381	-0.806069	0.342224
C131	C	1.198714	-0.472735	0.675557
C132	C	1.532047	-0.139402	1.008891
C133	C	0.905458	-0.778740	0.302196
C134	C	1.238791	-0.445406	0.635530
C135	C	1.572125	-0.112073	0.968863
C136	C	0.985633	-0.778682	0.222158
C137	C	1.318966	-0.445349	0.555492
C138	C	1.652299	-0.112016	0.888825
C139	C	0.985608	-0.724082	0.222149
C140	C	1.318941	-0.390748	0.555483
C141	C	1.652274	-0.057415	0.888816
C142	C	0.945508	-0.696810	0.262164
C143	C	1.278841	-0.363477	0.595497
C144	C	1.612174	-0.030144	0.928830
C145	C	0.905433	-0.724139	0.302187
C146	C	1.238766	-0.390806	0.635521
C147	C	1.572099	-0.057473	0.968854
C148	C	0.825282	-0.778794	0.382246
C149	C	1.158616	-0.445461	0.715579
C150	C	1.491949	-0.112128	1.048912
C151	C	0.825266	-0.724187	0.382237
C152	C	1.158599	-0.390854	0.715570
C153	C	1.491932	-0.057521	1.048903
C154	C	0.865343	-0.696858	0.342209
C155	C	1.198676	-0.363525	0.675543
C156	C	1.532010	-0.030192	1.008876
C157	C	0.865308	-0.642267	0.342193
C158	C	1.198641	-0.308934	0.675526
C159	C	1.531974	0.024399	1.008860
N160	N	0.905387	-0.614935	0.302173
N161	N	1.238720	-0.281602	0.635506
N162	N	1.572054	0.051731	0.968839
C163	C	0.945487	-0.642207	0.262158
C164	C	1.278820	-0.308874	0.595491
C165	C	1.612154	0.024460	0.928825
C166	C	0.865448	-0.975343	0.342239
C167	C	1.198782	-0.642009	0.675573
C168	C	1.532115	-0.308676	1.008906
C169	C	0.865465	-1.029945	0.342242
C170	C	1.198799	-0.696612	0.675576
C171	C	1.532132	-0.363278	1.008909
C172	C	0.945648	-1.029885	0.262204
C173	C	1.278981	-0.696551	0.595537
C174	C	1.612314	-0.363218	0.928870
C175	C	0.945627	-0.975281	0.262198
C176	C	1.278960	-0.641948	0.595531
C177	C	1.612294	-0.308615	0.928865
C178	C	0.905528	-0.948011	0.302219
C179	C	1.238861	-0.614678	0.635552
C180	C	1.572194	-0.281344	0.968886
C181	C	0.945430	-0.527542	0.262142
C182	C	1.278764	-0.194209	0.595475
C183	C	1.612097	0.139125	0.928808
C184	C	0.945400	-0.472937	0.262134
C185	C	1.278733	-0.139603	0.595468
C186	C	1.612066	0.193730	0.928801
C187	C	0.865220	-0.473002	0.342175
C188	C	1.198554	-0.139668	0.675508
C189	C	1.531887	0.193665	1.008842
C190	C	0.865248	-0.527602	0.342180
C191	C	1.198582	-0.194269	0.675514
C192	C	1.531915	0.139065	1.008847
C193	C	0.905358	-0.554871	0.302162
C194	C	1.238692	-0.221538	0.635495
C195	C	1.572025	0.111796	0.968828
O196	O	0.831207	-0.614010	0.376190
O197	O	1.164540	-0.280677	0.709524
O198	O	1.497874	0.052657	1.042857
O199	O	0.979575	-0.613939	0.228128
O200	O	1.312908	-0.280605	0.561461
O201	O	1.646242	0.052728	0.894795
C202	C	1.068816	-0.251681	0.302242
C203	C	1.402150	0.081652	0.635576
C204	C	1.735483	0.414986	0.968909
C205	C	1.138458	-0.251669	0.302274
C206	C	1.471791	0.081664	0.635607
C207	C	1.805124	0.414997	0.968940
C208	C	0.905445	-0.251698	0.465592
C209	C	1.238778	0.081636	0.798926
C210	C	1.572112	0.414969	1.132259
C211	C	0.905467	-0.251693	0.535234
C212	C	1.238800	0.081640	0.868567
C213	C	1.572134	0.414973	1.201900
C214	C	0.905516	-0.115335	0.302212
C215	C	1.238849	0.217998	0.635545
C216	C	1.572182	0.551331	0.968878
C217	C	0.905568	-0.057221	0.302230
C218	C	1.238901	0.276112	0.635563
C219	C	1.572235	0.609445	0.968896
C220	C	0.905377	-0.251681	0.139381
C221	C	1.238710	0.081652	0.472715
C222	C	1.572044	0.414985	0.806048
C223	C	0.905476	-0.251538	0.069741
C224	C	1.238810	0.081795	0.403074
C225	C	1.572143	0.415128	0.736407
C226	C	0.945569	-0.218245	0.567976
C227	C	1.278902	0.115089	0.901310
C228	C	1.612236	0.448422	1.234643
C229	C	0.945568	-0.218222	0.633412
C230	C	1.278901	0.115111	0.966745
C231	C	1.612235	0.448444	1.300078
C232	C	0.905472	-0.251658	0.666102
C233	C	1.238805	0.081676	0.999435
C234	C	1.572139	0.415009	1.332769
C235	C	0.865362	-0.285108	0.633352
C236	C	1.198696	0.048225	0.966685
C237	C	1.532029	0.381558	1.300018
C238	C	0.865360	-0.285126	0.567917
C239	C	1.198693	0.048207	0.901251
C240	C	1.532027	0.381540	1.234584
C241	C	0.900488	-0.298736	0.769765
C242	C	1.233821	0.034597	1.103098
C243	C	1.567155	0.367931	1.436432
C244	C	0.900495	-0.298719	0.835198
C245	C	1.233828	0.034614	1.168531
C246	C	1.567162	0.367947	1.501865
C247	C	0.905476	-0.251602	0.867923
C248	C	1.238809	0.081731	1.201256
C249	C	1.572143	0.415064	1.534590
C250	C	0.910463	-0.204501	0.835207
C251	C	1.243796	0.128832	1.168540
C252	C	1.577130	0.462166	1.501873
C253	C	0.910461	-0.204519	0.769773
C254	C	1.243794	0.128814	1.103106
C255	C	1.577127	0.462148	1.436439
C256	C	0.905470	-0.251642	0.737054
C257	C	1.238803	0.081691	1.070388
C258	C	1.572137	0.415025	1.403721
C259	C	0.945579	-0.218127	0.971618
C260	C	1.278912	0.115207	1.304951
C261	C	1.612246	0.448540	1.638285
C262	C	0.945574	-0.218103	1.037055
C263	C	1.278907	0.115230	1.370388
C264	C	1.612240	0.448563	1.703721
C265	C	0.865371	-0.284994	1.036993
C266	C	1.198705	0.048339	1.370327
C267	C	1.532038	0.381672	1.703660
C268	C	0.865373	-0.285013	0.971558
C269	C	1.198707	0.048320	1.304891
C270	C	1.532040	0.381654	1.638225
C271	C	0.905480	-0.251580	0.938874
C272	C	1.238814	0.081753	1.272208
C273	C	1.572147	0.415087	1.605541
H274	H	0.464961	-0.244119	0.199746
H275	H	0.798294	0.089215	0.533079
H276	H	1.131628	0.422548	0.866412
H277	H	0.832722	-0.312253	0.944899
H278	H	1.166055	0.021080	1.278232
H279	H	1.499388	0.354413	1.611565
N280	N	0.782057	-0.808255	0.425427
N281	N	1.115391	-0.474922	0.758760
N282	N	1.448724	-0.141588	1.092094
H283	H	0.807515	-0.830869	0.454499
H284	H	1.140849	-0.497536	0.787833
H285	H	1.474182	-0.164203	1.121166
H286	H	0.753042	-0.830922	0.399899
H287	H	1.086376	-0.497588	0.733232
H288	H	1.419709	-0.164255	1.066565
N289	N	0.822191	-0.945931	0.385402
N290	N	1.155524	-0.612598	0.718736
N291	N	1.488858	-0.279264	1.052069
H292	H	0.796806	-0.971535	0.410752
H293	H	1.130139	-0.638202	0.744085
H294	H	1.463473	-0.304868	1.077418
H295	H	0.793198	-0.923317	0.359859
H296	H	1.126531	-0.589984	0.693192
H297	H	1.459865	-0.256650	1.026525
N298	N	0.895124	-0.349559	0.734472
N299	N	1.228457	-0.016225	1.067805
N300	N	1.561791	0.317108	1.401138
H301	H	0.891975	-0.379393	0.765124
H302	H	1.225308	-0.046060	1.098458
H303	H	1.558641	0.287273	1.431791
H304	H	0.933299	-0.354407	0.707355
H305	H	1.266632	-0.021074	1.040689
H306	H	1.599965	0.312259	1.374022
N307	N	0.988822	-0.182144	0.668738
N308	N	1.322155	0.151189	1.002071
N309	N	1.655488	0.484522	1.335404
H310	H	1.014228	-0.160967	0.638103
H311	H	1.347561	0.172366	0.971437
H312	H	1.680894	0.505699	1.304770
H313	H	1.017795	-0.203419	0.695906
H314	H	1.351128	0.129914	1.029240
H315	H	1.684462	0.463247	1.362573
H316	H	0.914520	-0.166167	0.743138
H317	H	1.247853	0.167166	1.076471
H318	H	1.581186	0.500499	1.409804
H319	H	0.978301	-1.052099	0.229624
H320	H	1.311635	-0.718766	0.562957
H321	H	1.644968	-0.385432	0.896290
H322	H	0.832714	-0.312330	0.659972
H323	H	1.166047	0.021003	0.993306
H324	H	1.499381	0.354337	1.326639
H325	H	0.914520	-0.166134	0.861850
H326	H	1.247853	0.167199	1.195183
H327	H	1.581187	0.500532	1.528516
H328	H	0.978262	-0.953033	0.229605
H329	H	1.311595	-0.619700	0.562938
H330	H	1.644928	-0.286367	0.896271
N331	N	0.135885	-0.321278	0.385404
N332	N	0.469218	0.012055	0.718737
N333	N	0.802551	0.345389	1.052071
H334	H	0.108799	-0.300066	0.414501
H335	H	0.442132	0.033267	0.747834
H336	H	0.775466	0.366601	1.081168
H337	H	0.166580	-0.342493	0.410683
H338	H	0.499913	-0.009159	0.744016
H339	H	0.833247	0.324174	1.077350
N340	N	0.782016	-0.694774	0.425405
N341	N	1.115350	-0.361441	0.758738
N342	N	1.448683	-0.028108	1.092072
H343	H	0.756634	-0.720376	0.450760
H344	H	1.089967	-0.387043	0.784093
H345	H	1.423301	-0.053709	1.117426
H346	H	0.753021	-0.672161	0.399864
H347	H	1.086354	-0.338828	0.733197
H348	H	1.419687	-0.005494	1.066530
H349	H	0.978227	-0.191020	0.541369
H350	H	1.311560	0.142313	0.874702
H351	H	1.644893	0.475646	1.208036
N352	N	0.988832	-0.182068	0.936360
N353	N	1.322166	0.151265	1.269694
N354	N	1.655499	0.484599	1.603027
H355	H	1.014234	-0.160871	0.967035
H356	H	1.347567	0.172462	1.300368
H357	H	1.680901	0.505796	1.633701
H358	H	0.963350	-0.157885	0.909190
H359	H	1.296683	0.175448	1.242523
H360	H	1.630017	0.508782	1.575857
H361	H	0.832718	-0.312213	1.063609
H362	H	1.166051	0.021121	1.396943
H363	H	1.499385	0.354454	1.730276
H364	H	0.832616	-0.549855	0.374776
H365	H	1.165949	-0.216521	0.708109
H366	H	1.499283	0.116812	1.041442
N367	N	0.988824	-0.182015	1.072365
N368	N	1.322157	0.151318	1.405698
N369	N	1.655490	0.484652	1.739032
H370	H	1.033583	-0.190132	1.061013
H371	H	1.366917	0.143202	1.394346
H372	H	1.700250	0.476535	1.727680
H373	H	0.982687	-0.187085	1.118767
H374	H	1.316020	0.146248	1.452100
H375	H	1.649354	0.479582	1.785434
N376	N	0.821977	-0.443576	0.385332
N377	N	1.155310	-0.110243	0.718665
N378	N	1.488644	0.223091	1.051999
H379	H	0.831693	-0.453049	0.430112
H380	H	1.165026	-0.119715	0.763446
H381	H	1.498360	0.213618	1.096779
H382	H	0.777233	-0.453137	0.375499
H383	H	1.110566	-0.119803	0.708833
H384	H	1.443899	0.213530	1.042166
H385	H	0.896438	-0.337072	0.861831
H386	H	1.229771	-0.003739	1.195164
H387	H	1.563105	0.329595	1.528497
N388	N	0.675533	-0.182148	0.218942
N389	N	1.008866	0.151186	0.552276
N390	N	1.342200	0.484519	0.885609
H391	H	0.702619	-0.203364	0.189849
H392	H	1.035952	0.129970	0.523183
H393	H	1.369285	0.463303	0.856516
H394	H	0.702708	-0.157961	0.244491
H395	H	1.036042	0.175373	0.577824
H396	H	1.369375	0.508706	0.911157
N397	N	0.822097	-0.321197	0.532597
N398	N	1.155430	0.012136	0.865931
N399	N	1.488763	0.345470	1.199264
H400	H	0.796690	-0.342372	0.563233
H401	H	1.130024	-0.009039	0.896566
H402	H	1.463357	0.324295	1.229900
H403	H	0.847570	-0.345400	0.505464
H404	H	1.180904	-0.012066	0.838797
H405	H	1.514237	0.321267	1.172130
H406	H	0.144537	-0.190914	0.229707
H407	H	0.477871	0.142419	0.563041
H408	H	0.811204	0.475752	0.896374
H409	H	0.666880	-0.312519	0.374642
H410	H	1.000213	0.020814	0.707975
H411	H	1.333547	0.354148	1.041308
H412	H	0.346459	-0.259314	0.404597
H413	H	0.679792	0.074019	0.737930
H414	H	1.013126	0.407352	1.071264
H415	H	0.465171	-0.259338	0.404555
H416	H	0.798504	0.073996	0.737889
H417	H	1.131838	0.407329	1.071222
N418	N	0.539519	-0.321343	0.385260
N419	N	0.872852	0.011991	0.718593
N420	N	1.206186	0.345324	1.051926
H421	H	0.570171	-0.342564	0.410586
H422	H	0.903505	-0.009231	0.743919
H423	H	1.236838	0.324102	1.077252
H424	H	0.512310	-0.345500	0.359707
H425	H	0.845643	-0.012167	0.693041
H426	H	1.178976	0.321166	1.026374
H427	H	0.263244	-0.312450	0.374791
H428	H	0.596577	0.020883	0.708124
H429	H	0.929911	0.354217	1.041457
H430	H	0.263248	-0.190936	0.229661
H431	H	0.596581	0.142397	0.562994
H432	H	0.929914	0.475731	0.896327
N433	N	0.988635	-0.443462	0.218966
N434	N	1.321968	-0.110129	0.552299
N435	N	1.655302	0.223204	0.885632
H436	H	0.982537	-0.404732	0.225029
H437	H	1.315870	-0.071399	0.558362
H438	H	1.649204	0.261934	0.891695
H439	H	0.978911	-0.453036	0.174207
H440	H	1.312245	-0.119703	0.507541
H441	H	1.645578	0.213630	0.840874
N442	N	0.337587	-0.242992	0.184878
N443	N	0.670920	0.090341	0.518211
N444	N	1.004254	0.423674	0.851545
H445	H	0.348905	-0.273189	0.156766
H446	H	0.682239	0.060144	0.490099
H447	H	1.015572	0.393478	0.823432
H448	H	0.349009	-0.209111	0.163684
H449	H	0.682343	0.124223	0.497017
H450	H	1.015676	0.457556	0.830350
N451	N	0.539531	-0.182138	0.218983
N452	N	0.872864	0.151196	0.552316
N453	N	1.206198	0.484529	0.885650
H454	H	0.512437	-0.157937	0.244502
H455	H	0.845770	0.175397	0.577835
H456	H	1.179103	0.508730	0.911168
H457	H	0.512363	-0.203391	0.189922
H458	H	0.845697	0.129942	0.523255
H459	H	1.179030	0.463276	0.856589
N460	N	0.988691	-0.556949	0.218980
N461	N	1.322024	-0.223615	0.552314
N462	N	1.655358	0.109718	0.885647
H463	H	1.014070	-0.531344	0.193627
H464	H	1.347404	-0.198010	0.526960
H465	H	1.680737	0.135323	0.860293
H466	H	0.963213	-0.579643	0.189954
H467	H	1.296546	-0.246309	0.523288
H468	H	1.629879	0.087024	0.856621
N469	N	1.028843	-0.694609	0.178986
N470	N	1.362177	-0.361276	0.512319
N471	N	1.695510	-0.027943	0.845653
H472	H	1.054250	-0.720178	0.153646
H473	H	1.387584	-0.386845	0.486979
H474	H	1.720917	-0.053511	0.820312
H475	H	1.057816	-0.671918	0.204531
H476	H	1.391150	-0.338585	0.537864
H477	H	1.724483	-0.005251	0.871197
H478	H	1.018290	-0.800881	0.189573
H479	H	1.351624	-0.467548	0.522907
H480	H	1.684957	-0.134214	0.856240
H481	H	0.832824	-1.052192	0.374831
H482	H	1.166158	-0.718858	0.708164
H483	H	1.499491	-0.385525	1.041497
