data_functionalizedCrystal
_audit_creation_method	'MofGen! by Chris Wilmer'
_symmetry_space_group_name_H-M	'P1'
_symmetry_Int_Tables_number	1
_symmetry_cell_setting	triclinic
loop_
_symmetry_equiv_pos_as_xyz
  x,y,z
_cell_length_a	13.339070
_cell_length_b	13.185407
_cell_length_c	12.376457
_cell_angle_alpha	97.389854
_cell_angle_beta	104.411354
_cell_angle_gamma	96.198608
loop_
_atom_site_label
_atom_site_type_symbol
_atom_site_fract_x
_atom_site_fract_y
_atom_site_fract_z
O1	O	-1.227964	0.491202	-0.094060
O2	O	-0.951484	0.424907	-0.094049
O3	O	-1.137092	0.313639	-0.094052
O4	O	-1.042356	0.602470	-0.094056
O5	O	-1.090717	0.341407	0.093961
O6	O	-0.905109	0.452675	0.093964
O7	O	-1.181589	0.518971	0.093953
Zn8	Zn	-1.035986	0.490232	0.123810
Zn9	Zn	-1.097087	0.453646	-0.123905
O10	O	-0.995981	0.630239	0.093957
C11	C	-0.893655	0.427592	-0.000041
C12	C	-0.790441	0.394212	-0.000037
C13	C	-0.354987	0.653764	-0.000051
C14	C	-0.451962	0.685130	-0.000058
C15	C	-0.536586	0.612403	-0.000053
C16	C	-0.524226	0.508305	-0.000040
C17	C	-0.427244	0.476935	-0.000042
C18	C	-0.608843	0.435574	-0.000043
C19	C	-0.596484	0.331476	-0.000031
C20	C	-0.499510	0.300112	-0.000032
C21	C	-0.414886	0.372839	-0.000037
C22	C	-0.705825	0.466944	-0.000042
C23	C	-0.778082	0.290115	-0.000033
C24	C	-0.681107	0.258749	-0.000025
C25	C	-1.123509	0.289800	-0.000048
C26	C	-1.152117	0.177395	-0.000053
C27	C	-0.239416	0.516286	-0.000052
C28	C	-0.342629	0.549668	-0.000047
C29	C	-0.879103	-0.194467	-0.000052
C30	C	-0.852224	-0.088859	-0.000059
C31	C	-0.927195	-0.022291	-0.000057
C32	C	-1.029050	-0.061340	-0.000049
C33	C	-1.055933	-0.166960	-0.000052
C34	C	-1.104025	0.005216	-0.000056
C35	C	-1.205880	-0.033834	-0.000049
C36	C	-1.232759	-0.139443	-0.000051
C37	C	-1.157788	-0.206012	-0.000052
C38	C	-1.077141	0.110836	-0.000054
C39	C	-1.253972	0.138343	-0.000053
C40	C	-1.280851	0.032735	-0.000047
C41	C	-1.009564	0.654077	-0.000051
C42	C	-0.980958	0.766481	-0.000053
N43	N	-0.994293	0.515202	0.292869
N44	N	-1.138789	0.428670	-0.292965
C45	C	-1.235577	0.370686	0.647849
C46	C	-1.264753	0.353208	0.529509
C47	C	-1.197140	0.393704	0.470343
C48	C	-1.100347	0.451683	0.529529
C49	C	-1.071172	0.469170	0.647881
C50	C	-1.032735	0.492189	0.470375
C51	C	-0.935942	0.550167	0.529561
C52	C	-0.906771	0.567651	0.647901
C53	C	-0.974384	0.527154	0.707067
C54	C	-1.061910	0.474701	0.352023
C55	C	-0.897505	0.573186	0.352055
C56	C	-0.868329	0.590664	0.470395
H57	H	-0.671032	0.173990	-0.000025
H58	H	-0.489455	0.215347	-0.000034
H59	H	-0.905303	0.063700	-0.000060
H60	H	-0.769295	-0.057073	-0.000068
H61	H	-1.220899	0.379471	0.373985
H62	H	-0.462020	0.769884	-0.000077
H63	H	-0.950628	0.541381	0.803430
H64	H	-0.827962	0.614870	0.696091
H65	H	-1.179664	-0.292006	-0.000034
H66	H	-1.315698	-0.171235	-0.000056
H67	H	-0.789519	0.637872	0.518599
H68	H	-0.842450	0.606164	0.303883
H69	H	-0.286083	0.712966	-0.000065
H70	H	-0.715876	0.551701	-0.000047
H71	H	-0.846987	0.230893	-0.000033
H72	H	-0.615546	0.637947	-0.000061
H73	H	-1.363782	0.000925	-0.000042
H74	H	-1.315033	0.192535	-0.000110
H75	H	-1.343561	0.306003	0.481324
H76	H	-1.140719	0.427495	0.303844
H77	H	-0.335918	0.347306	-0.000031
H78	H	-1.290622	0.337725	0.696030
H79	H	-0.818075	-0.248677	-0.000063
H80	H	-0.994210	0.142620	-0.000059
