data_functionalizedCrystal
_audit_creation_method	'MofGen! by Chris Wilmer'
_symmetry_space_group_name_H-M	'P1'
_symmetry_Int_Tables_number	1
_symmetry_cell_setting	triclinic
loop_
_symmetry_equiv_pos_as_xyz
  x,y,z
_cell_length_a	19.188930
_cell_length_b	18.266242
_cell_length_c	15.537862
_cell_angle_alpha	90.005424
_cell_angle_beta	65.204608
_cell_angle_gamma	90.022918
loop_
_atom_site_label
_atom_site_type_symbol
_atom_site_fract_x
_atom_site_fract_y
_atom_site_fract_z
O1	O	0.896573	0.061103	0.117736
O2	O	0.689280	0.061051	0.133585
O3	O	0.833286	0.061089	-0.011642
O4	O	0.752567	0.061065	0.262963
O5	O	0.833269	-0.060673	-0.011650
O6	O	0.689264	-0.060711	0.133577
O7	O	0.896556	-0.060659	0.117728
Zn8	Zn	0.792907	-0.080017	0.125652
Zn9	Zn	0.792929	0.080410	0.125662
O10	O	0.752551	-0.060697	0.262956
C11	C	0.663390	0.000164	0.133068
C12	C	0.586272	0.000145	0.131527
C13	C	0.519941	0.000149	0.216742
C14	C	0.447481	0.000157	0.215294
C15	C	0.441356	0.000176	0.128627
C16	C	0.507700	0.000168	0.043402
C17	C	0.580158	0.000152	0.044851
N18	N	0.350023	0.041652	0.062384
N19	N	0.281189	0.041668	0.061012
C20	C	0.223046	0.000221	0.124254
N21	N	0.236333	-0.041234	0.188933
N22	N	0.305172	-0.041247	0.190307
C23	C	0.362791	0.000192	0.127046
C24	C	0.078144	0.000233	0.207905
C25	C	0.005684	0.000237	0.206454
C26	C	0.065905	0.000254	0.034559
C27	C	0.138363	0.000243	0.036012
C28	C	0.144477	0.000236	0.122688
N29	N	0.792898	-0.189504	0.125645
C30	C	0.856671	-0.227796	0.061369
C31	C	0.856677	-0.304441	0.061365
C32	C	0.792912	-0.342791	0.125652
C33	C	0.729128	-0.304490	0.189932
C34	C	0.729121	-0.227846	0.189928
N35	N	0.762864	-0.463132	0.209133
N36	N	0.762876	-0.535940	0.209134
C37	C	0.792928	-0.573713	0.125666
N38	N	0.822982	-0.535928	0.042194
N39	N	0.822974	-0.463113	0.042194
C40	C	0.792912	-0.425898	0.125663
C41	C	0.856711	-0.695113	0.061380
C42	C	0.856712	-0.771759	0.061375
C43	C	0.729165	-0.771806	0.189950
C44	C	0.729162	-0.695161	0.189948
C45	C	0.792939	-0.656819	0.125664
C46	C	0.922447	0.000230	0.118245
C47	C	0.999564	0.000254	0.119786
C48	C	0.841723	0.000212	-0.046778
C49	C	0.866880	0.000225	-0.151461
N50	N	0.792946	0.189896	0.125661
C51	C	0.744113	0.000182	0.298092
C52	C	0.718956	0.000174	0.402774
C53	C	0.616985	0.000148	0.561823
C54	C	0.640631	0.000154	0.463457
C55	C	0.773666	0.000191	0.440443
C56	C	0.750031	0.000188	0.538809
C57	C	0.671689	0.000165	0.599492
C58	C	0.804735	0.000206	0.576478
C59	C	0.781101	0.000199	0.674837
C60	C	0.702763	0.000174	0.735526
C61	C	0.648055	0.000158	0.697851
C62	C	0.883076	0.000223	0.515794
C63	C	0.937781	0.000241	0.553463
C64	C	0.914147	0.000239	0.651823
C65	C	0.835809	0.000214	0.712512
C66	C	0.968855	0.000254	0.689498
C67	C	0.945222	0.000247	0.787856
C68	C	0.812175	0.000207	0.810870
H69	H	0.634168	0.000149	-0.024543
H70	H	0.083122	0.000216	0.278481
H71	H	0.584262	0.000145	0.747263
Cl72	Cl	0.936843	-0.179595	-0.019448
H73	H	0.553191	0.000135	0.611236
Cl74	Cl	1.036264	0.000263	0.477168
Cl75	Cl	1.067338	0.000268	0.613200
H76	H	0.192373	0.000244	-0.033379
Cl77	Cl	0.571850	0.000127	0.416105
H78	H	-0.048326	0.000236	0.275849
H79	H	0.908610	-0.335624	0.009022
H80	H	0.902316	0.000235	0.435705
Cl81	Cl	0.872149	0.000214	0.364147
H82	H	0.677209	-0.335718	0.242274
Cl83	Cl	0.648989	-0.647018	0.270760
H84	H	0.989767	0.000261	0.818526
Cl85	Cl	0.058212	0.000269	-0.074396
H86	H	0.677188	-0.196668	0.242270
H87	H	0.524913	0.000144	0.287320
H88	H	0.393464	0.000158	0.284689
H89	H	0.908641	-0.663893	0.009033
Cl90	Cl	0.500001	0.000187	-0.065551
H91	H	0.748382	0.000194	0.860282
Cl92	Cl	0.936888	-0.819901	-0.019441
Cl93	Cl	0.673050	0.000158	0.859178
Cl94	Cl	0.648999	-0.820012	0.270761
