data_functionalizedCrystal
_audit_creation_method	'MofGen! by Chris Wilmer'
_symmetry_space_group_name_H-M	'P1'
_symmetry_Int_Tables_number	1
_symmetry_cell_setting	triclinic
loop_
_symmetry_equiv_pos_as_xyz
  x,y,z
_cell_length_a	10.967819
_cell_length_b	19.188924
_cell_length_c	9.482900
_cell_angle_alpha	99.300357
_cell_angle_beta	68.706355
_cell_angle_gamma	83.943524
loop_
_atom_site_label
_atom_site_type_symbol
_atom_site_fract_x
_atom_site_fract_y
_atom_site_fract_z
O1	O	1.745250	0.047904	-0.558140
O2	O	1.366587	0.065778	-0.463277
O3	O	1.566848	-0.044990	-0.513430
O4	O	1.544989	0.158673	-0.507988
O5	O	1.526170	-0.022404	-0.261450
O6	O	1.325909	0.088365	-0.211298
O7	O	1.704572	0.070491	-0.306161
Cu8	Cu	1.511526	0.081490	-0.235721
Cu9	Cu	1.559633	0.054779	-0.533716
O10	O	1.504311	0.181260	-0.256008
C11	C	1.297804	0.077477	-0.325151
C12	C	1.153454	0.078677	-0.288987
C13	C	0.960987	0.068755	-0.366050
C14	C	1.110180	0.067511	-0.403418
C15	C	1.545802	-0.059696	-0.387261
C16	C	1.543680	-0.137167	-0.386726
C17	C	1.564864	-0.185862	-0.523832
C18	C	1.562855	-0.258653	-0.523340
C19	C	1.539686	-0.282748	-0.385740
C20	C	1.518493	-0.234042	-0.248614
C21	C	1.520490	-0.161251	-0.249107
N22	N	1.594047	-0.394396	-0.301266
N23	N	1.592154	-0.463545	-0.300807
C24	C	1.533665	-0.502060	-0.384246
N25	N	1.477161	-0.468818	-0.468187
N26	N	1.479061	-0.399663	-0.468651
C27	C	1.537518	-0.361675	-0.385190
C28	C	1.552670	-0.629685	-0.520827
C29	C	1.550651	-0.702476	-0.520327
C30	C	1.506302	-0.677864	-0.245600
C31	C	1.508308	-0.605073	-0.246101
C32	C	1.531499	-0.580989	-0.383720
C33	C	1.773356	0.058792	-0.444290
C34	C	1.917708	0.057591	-0.480464
C35	C	1.525358	0.195965	-0.382180
C36	C	1.527481	0.273435	-0.382725
N37	N	1.477700	0.100277	-0.026130
N38	N	1.593469	0.035986	-0.743310
C39	C	1.549647	0.060317	0.028051
C40	C	1.521512	0.075953	0.202515
H41	H	1.183575	0.057036	-0.529044
H42	H	1.580097	-0.298307	-0.634990
F43	F	1.657152	0.000348	-0.080074
F44	F	1.497939	-0.109423	-0.103172
H45	H	1.571546	-0.610073	-0.632883
H46	H	1.491069	-0.565425	-0.134456
F47	F	1.057526	0.092379	-0.124782
F48	F	1.701428	-0.023754	0.148459
H49	H	1.395271	0.146063	0.056643
F50	F	1.013638	0.043899	-0.644659
F51	F	1.589539	-0.160233	-0.670298
H52	H	1.499625	-0.253664	-0.136578
H53	H	1.567896	-0.742123	-0.631979
H54	H	1.439078	0.121741	0.285284
H55	H	0.887587	0.079238	-0.240432
H56	H	1.487428	-0.697480	-0.133561
