data_functionalizedCrystal
_audit_creation_method	'MofGen! by Chris Wilmer'
_symmetry_space_group_name_H-M	'P1'
_symmetry_Int_Tables_number	1
_symmetry_cell_setting	triclinic
loop_
_symmetry_equiv_pos_as_xyz
  x,y,z
_cell_length_a	14.044191
_cell_length_b	15.944564
_cell_length_c	12.503572
_cell_angle_alpha	86.477454
_cell_angle_beta	86.162165
_cell_angle_gamma	91.652144
loop_
_atom_site_label
_atom_site_type_symbol
_atom_site_fract_x
_atom_site_fract_y
_atom_site_fract_z
O1	O	1.263194	-0.198086	-0.089273
O2	O	0.987225	-0.190772	-0.089287
O3	O	1.132739	-0.072720	-0.089270
O4	O	1.117680	-0.316139	-0.089291
O5	O	1.121795	-0.081614	0.089371
O6	O	0.976281	-0.199666	0.089354
O7	O	1.252251	-0.206981	0.089367
Cu8	Cu	1.113267	-0.204136	0.105672
Cu9	Cu	1.126209	-0.193617	-0.105592
O10	O	1.106737	-0.325033	0.089350
C11	C	0.946438	-0.192020	0.000032
C12	C	0.841211	-0.182476	0.000027
C13	C	0.590930	-0.232714	0.000033
C14	C	0.648551	-0.165042	0.000037
C15	C	0.755757	-0.174744	0.000032
C16	C	0.483714	-0.223013	0.000039
C17	C	1.126640	-0.045826	0.000051
C18	C	1.124759	0.047560	0.000052
C19	C	1.030064	0.269509	0.000034
C20	C	1.068633	0.322848	0.088117
C21	C	1.121357	0.218540	0.000045
C22	C	1.079444	0.331599	-0.088009
C23	C	1.118064	0.383699	0.000033
C24	C	1.159947	0.270645	0.088200
C25	C	1.170750	0.279395	-0.088004
C26	C	1.209385	0.332709	0.000100
C27	C	1.123251	0.123396	0.000052
C28	C	1.116177	0.478841	0.000032
C29	C	1.293037	-0.205733	0.000046
C30	C	1.398265	-0.215276	0.000044
N31	N	1.104171	-0.211534	0.254263
C32	C	1.112823	0.648073	0.000028
C33	C	1.114665	0.554685	0.000024
N34	N	1.135312	-0.186213	-0.254183
C35	C	1.090791	-0.222424	0.473377
C36	C	1.148689	-0.175325	0.526711
C37	C	1.141244	-0.181385	0.648633
C38	C	1.098234	-0.216365	0.351443
H39	H	0.954284	0.241873	0.000118
H40	H	1.025458	0.342141	0.162580
H41	H	1.035635	-0.267295	0.519277
O42	O	0.611204	-0.087288	-0.000014
C43	C	0.468738	-0.006607	0.000037
C44	C	0.510913	-0.094706	0.000079
H45	H	0.387646	-0.012575	0.000135
H46	H	0.498191	0.032712	-0.074746
H47	H	0.489161	0.025265	0.074776
H48	H	0.490506	-0.126650	-0.074609
H49	H	0.481462	-0.133964	0.074911
O50	O	0.628284	-0.310456	-0.000030
C51	C	0.770753	-0.391130	0.000006
C52	C	0.728564	-0.303040	0.000058
H53	H	0.851833	-0.385165	0.000101
H54	H	0.750458	-0.423009	-0.074779
H55	H	0.741186	-0.430442	0.074743
H56	H	0.758109	-0.263660	-0.074628
H57	H	0.748851	-0.271228	0.074892
O58	O	1.200464	0.238787	0.177107
C59	C	1.247740	0.114483	0.276820
C60	C	1.201822	0.150451	0.176103
H61	H	1.248871	0.043060	0.276031
H62	H	1.204491	0.132655	0.351826
H63	H	1.323920	0.141122	0.277130
H64	H	1.125646	0.123830	0.175689
H65	H	1.245141	0.132287	0.101143
O66	O	1.299859	0.365448	0.000349
C67	C	1.444482	0.371234	0.093407
C68	C	1.342032	0.334110	0.093266
H69	H	1.478616	0.345900	0.168511
H70	H	1.442490	0.442691	0.092765
H71	H	1.488210	0.352551	0.018997
H72	H	1.298245	0.352730	0.167664
H73	H	1.344096	0.262661	0.093852
H74	H	1.203850	-0.130453	0.480804
O75	O	1.222087	0.256386	-0.176949
C76	C	1.237723	0.261391	-0.370351
C77	C	1.179494	0.287491	-0.269701
H78	H	1.203321	0.286543	-0.445366
H79	H	1.239210	0.189890	-0.369141
H80	H	1.313798	0.288469	-0.371054
H81	H	1.103394	0.260470	-0.268933
H82	H	1.178087	0.358996	-0.270950
H83	H	1.045381	0.358276	-0.162481
