data_functionalizedCrystal
_audit_creation_method	'MofGen! by Chris Wilmer'
_symmetry_space_group_name_H-M	'P1'
_symmetry_Int_Tables_number	1
_symmetry_cell_setting	triclinic
loop_
_symmetry_equiv_pos_as_xyz
  x,y,z
_cell_length_a	27.354012
_cell_length_b	27.353283
_cell_length_c	27.349551
_cell_angle_alpha	60.005606
_cell_angle_beta	60.011434
_cell_angle_gamma	59.993282
loop_
_atom_site_label
_atom_site_type_symbol
_atom_site_fract_x
_atom_site_fract_y
_atom_site_fract_z
O1	O	0.067635	-0.714267	0.597330
O2	O	0.567635	-0.214267	1.097330
O3	O	0.025429	-0.556105	0.481282
O4	O	0.525429	-0.056105	0.981282
O5	O	0.125575	-0.656186	0.481214
O6	O	0.625575	-0.156186	0.981214
O7	O	-0.032512	-0.614186	0.597397
O8	O	0.467488	-0.114186	1.097397
O9	O	0.158797	-0.622968	0.514367
O10	O	0.658797	-0.122968	1.014367
O11	O	0.058650	-0.522887	0.514434
O12	O	0.558650	-0.022887	1.014434
O13	O	0.100856	-0.681048	0.630482
O14	O	0.600856	-0.181048	1.130482
Zn15	Zn	0.085028	-0.596693	0.577722
Zn16	Zn	0.585028	-0.096693	1.077722
Zn17	Zn	0.041257	-0.640460	0.534042
Zn18	Zn	0.541257	-0.140460	1.034042
O19	O	0.000709	-0.580967	0.630549
O20	O	0.500709	-0.080967	1.130549
N21	N	0.114901	-0.566828	0.607534
N22	N	0.614901	-0.066828	1.107534
N23	N	0.011389	-0.670331	0.504229
N24	N	0.511389	-0.170331	1.004229
C25	C	0.179404	-0.338196	0.672015
C26	C	0.679404	0.161804	1.172015
C27	C	0.179501	-0.502386	0.836160
C28	C	0.679501	-0.002386	1.336160
C29	C	0.179415	-0.502363	0.671996
C30	C	0.679415	-0.002363	1.171996
C31	C	0.343611	-0.502373	0.671960
C32	C	0.843611	-0.002373	1.171960
C33	C	0.197478	-0.392371	0.690061
C34	C	0.697478	0.107629	1.190061
C35	C	0.197534	-0.484321	0.781984
C36	C	0.697534	0.015679	1.281984
C37	C	0.289434	-0.484312	0.690032
C38	C	0.789434	0.015688	1.190032
C39	C	0.197486	-0.484308	0.690051
C40	C	0.697486	0.015692	1.190051
C41	C	0.156398	-0.269238	0.649045
C42	C	0.656398	0.230762	1.149045
C43	C	0.156418	-0.525342	0.649015
C44	C	0.656418	-0.025342	1.149015
C45	C	0.220484	-0.461329	0.713032
C46	C	0.720484	0.038671	1.213032
C47	C	0.443889	-0.485097	0.619172
C48	C	0.943889	0.014903	1.119172
C49	C	0.506571	-0.505993	0.598266
C50	C	1.006571	-0.005993	1.098266
C51	C	0.506589	-0.607412	0.636940
C52	C	1.006589	-0.107412	1.136940
C53	C	0.443909	-0.586515	0.657848
C54	C	0.943909	-0.086515	1.157848
C55	C	0.171510	-0.237888	0.587422
C56	C	0.671510	0.262112	1.087422
C57	C	0.150593	-0.175201	0.566543
C58	C	0.650593	0.324799	1.066543
C59	C	0.099458	-0.175218	0.668913
C60	C	0.599458	0.324782	1.168913
C61	C	0.120375	-0.237905	0.689792
C62	C	0.620375	0.262095	1.189792
C63	C	0.094789	-0.510201	0.664176
C64	C	0.594789	-0.010201	1.164176
C65	C	0.073888	-0.531091	0.643278
C66	C	0.573888	-0.031091	1.143278
C67	C	0.176239	-0.582263	0.592072
C68	C	0.676239	-0.082263	1.092072
C69	C	0.197142	-0.561373	0.612963
C70	C	0.697142	-0.061373	1.112963
C71	C	0.094933	-0.510244	0.936476
C72	C	0.594933	-0.010244	1.436476
C73	C	0.074073	-0.531151	0.999161
C74	C	0.574073	-0.031151	1.499161
C75	C	0.176453	-0.582335	0.999126
C76	C	0.676453	-0.082335	1.499126
C77	C	0.197312	-0.561429	0.936439
C78	C	0.697312	-0.061429	1.436439
C79	C	0.156551	-0.525382	0.905116
C80	C	0.656551	-0.025382	1.405116
C81	C	0.412561	-0.525357	0.648961
C82	C	0.912561	-0.025357	1.148961
C83	C	-0.098513	-0.688235	0.485867
C84	C	0.401487	-0.188235	0.985867
C85	C	-0.006461	-0.688368	0.394066
C86	C	0.493539	-0.188368	0.894066
C87	C	-0.006645	-0.780264	0.486040
C88	C	0.493355	-0.280264	0.986040
C89	C	-0.006630	-0.688361	0.486097
C90	C	0.493370	-0.188361	0.986097
C91	C	-0.029562	-0.711308	0.463018
C92	C	0.470438	-0.211308	0.963018
N93	N	0.537030	-0.566846	0.607436
N94	N	1.037030	-0.066846	1.107436
O95	O	0.741877	-0.576849	0.459995
O96	O	1.241877	-0.076849	0.959995
O97	O	0.742050	-0.693241	0.618010
O98	O	1.242050	-0.193241	1.118010
O99	O	0.741986	-0.692977	0.517791
O100	O	1.241986	-0.192977	1.017791
O101	O	0.741941	-0.577114	0.560214
O102	O	1.241941	-0.077114	1.060214
O103	O	0.642405	-0.659839	0.551046
O104	O	1.142405	-0.159839	1.051046
O105	O	0.642469	-0.660104	0.651265
O106	O	1.142469	-0.160104	1.151265
O107	O	0.642296	-0.543712	0.493251
O108	O	1.142296	-0.043712	0.993251
Zn109	Zn	0.626572	-0.596646	0.577538
Zn110	Zn	1.126572	-0.096646	1.077538
Zn111	Zn	0.757774	-0.640307	0.533723
Zn112	Zn	1.257774	-0.140307	1.033723
O113	O	0.642360	-0.543976	0.593469
O114	O	1.142360	-0.043976	1.093469
N115	N	0.847316	-0.670107	0.503818
N116	N	1.347316	-0.170107	1.003818
N117	N	0.114877	-0.144758	0.607577
N118	N	0.614877	0.355242	1.107577
O119	O	-0.032498	0.060193	0.597441
O120	O	0.467502	0.560193	1.097441
O121	O	0.125523	0.060193	0.481067
O122	O	0.625523	0.560193	0.981067
O123	O	0.025289	0.060179	0.481345
O124	O	0.525289	0.560179	0.981345
O125	O	0.067736	0.060207	0.597163
O126	O	0.567736	0.560207	1.097163
O127	O	0.058511	-0.039410	0.514543
O128	O	0.558511	0.460590	1.014543
O129	O	0.158745	-0.039397	0.514265
O130	O	0.658745	0.460603	1.014265
O131	O	0.000724	-0.039396	0.630638
O132	O	0.500724	0.460604	1.130638
Zn133	Zn	0.085009	-0.055208	0.577722
Zn134	Zn	0.585009	0.444792	1.077722
Zn135	Zn	0.041238	0.076005	0.533983
Zn136	Zn	0.541238	0.576005	1.033983
O137	O	0.100958	-0.039382	0.630360
O138	O	0.600958	0.460618	1.130360
N139	N	0.011362	0.165555	0.504130
N140	N	0.511362	0.665555	1.004130
N141	N	0.115121	-0.566884	1.029592
N142	N	0.615121	-0.066884	1.529592
O143	O	0.104990	-0.714248	1.234528
O144	O	0.604990	-0.214248	1.734528
O145	O	-0.011371	-0.556177	1.234539
O146	O	0.488629	-0.056177	1.734539
O147	O	-0.011103	-0.656395	1.234497
O148	O	0.488897	-0.156395	1.734497
O149	O	0.104722	-0.614030	1.234569
O150	O	0.604722	-0.114030	1.734569
O151	O	0.022090	-0.623190	1.134913
O152	O	0.522090	-0.123190	1.634913
O153	O	0.021822	-0.522972	1.134954
O154	O	0.521822	-0.022972	1.634954
O155	O	0.138182	-0.681044	1.134943
O156	O	0.638182	-0.181044	1.634943
Zn157	Zn	0.085272	-0.596736	1.119137
Zn158	Zn	0.585272	-0.096736	1.619137
Zn159	Zn	0.041539	-0.640484	1.250344
Zn160	Zn	0.541539	-0.140484	1.750344
O161	O	0.137914	-0.580826	1.134984
O162	O	0.637914	-0.080826	1.634984
N163	N	0.011689	-0.670343	1.339890
N164	N	0.511689	-0.170343	1.839890
C165	C	0.038085	-0.519567	0.481870
C166	C	0.538085	-0.019567	0.981870
C167	C	0.162104	-0.643505	0.481786
C168	C	0.662104	-0.143505	0.981786
C169	C	0.088200	-0.717587	0.629893
C170	C	0.588200	-0.217587	1.129893
C171	C	-0.035819	-0.593649	0.629977
C172	C	0.464181	-0.093649	1.129977
C173	C	0.692280	-0.692701	0.654545
C174	C	1.192280	-0.192701	1.154545
C175	C	0.692203	-0.692374	0.530435
C176	C	1.192203	-0.192374	1.030435
C177	C	0.692063	-0.544251	0.456717
C178	C	1.192063	-0.044251	0.956717
C179	C	0.692144	-0.544580	0.580825
C180	C	1.192144	-0.044580	1.080825
C181	C	0.162000	0.010521	0.481600
C182	C	0.662000	0.510521	0.981600
C183	C	0.037914	0.010381	0.481984
C184	C	0.537914	0.510381	0.981984
C185	C	-0.035795	0.010399	0.630065
C186	C	0.464205	0.510399	1.130065
C187	C	0.088333	0.010415	0.629722
C188	C	0.588333	0.510415	1.129722
C189	C	-0.010799	-0.519660	1.184747
C190	C	0.489201	-0.019660	1.684747
C191	C	-0.010461	-0.643761	1.184677
C192	C	0.489539	-0.143761	1.684677
C193	C	0.137610	-0.717561	1.184734
C194	C	0.637610	-0.217561	1.684734
C195	C	0.137280	-0.593452	1.184783
C196	C	0.637280	-0.093452	1.684783
H197	H	0.023897	-0.518815	1.024687
H198	H	0.523897	-0.018815	1.524687
C199	C	-0.059493	-0.459097	1.184625
C200	C	0.440507	0.040903	1.684625
C201	C	-0.075400	-0.432814	1.133372
C202	C	0.424600	0.067186	1.633372
C203	C	-0.120249	-0.377020	1.133234
C204	C	0.379751	0.122980	1.633234
H205	H	-0.093569	-0.464257	1.219304
H206	H	0.406431	0.035743	1.719304
H207	H	-0.045043	-0.433913	1.184609
H208	H	0.454957	0.066087	1.684609
H209	H	-0.089851	-0.457992	1.133393
H210	H	0.410149	0.042008	1.633393
H211	H	-0.041338	-0.427639	1.098685
H212	H	0.458662	0.072361	1.598685
H213	H	-0.105799	-0.351836	1.133218
H214	H	0.394201	0.148164	1.633218
H215	H	-0.154320	-0.382185	1.167915
H216	H	0.345680	0.117815	1.667915
H217	H	-0.131043	-0.359177	1.098457
H218	H	0.368957	0.140823	1.598457
C219	C	-0.096359	0.010444	0.678693
C220	C	0.403641	0.510444	1.178693
C221	C	-0.133336	0.010455	0.657236
C222	C	0.366664	0.510455	1.157236
C223	C	-0.189136	0.010509	0.702011
C224	C	0.310864	0.510509	1.202011
H225	H	-0.091194	-0.024268	0.712753
H226	H	0.408806	0.475732	1.212753
H227	H	-0.114298	0.045195	0.689553
H228	H	0.385702	0.545195	1.189553
H229	H	-0.115401	-0.024293	0.646385
H230	H	0.384599	0.475707	1.146385
H231	H	-0.138518	0.045164	0.623182
H232	H	0.361482	0.545164	1.123182
H233	H	-0.207075	0.045260	0.712871
H234	H	0.292925	0.545260	1.212871
H235	H	-0.183965	-0.024204	0.736068
H236	H	0.316035	0.475796	1.236068
H237	H	-0.214234	0.010522	0.687457
H238	H	0.285766	0.510522	1.187457
H239	H	0.173667	-0.584388	1.184797
H240	H	0.673667	-0.084388	1.684797
H241	H	0.174144	-0.762957	1.184724
H242	H	0.674144	-0.262957	1.684724
H243	H	-0.081227	-0.584696	0.666460
H244	H	0.418773	-0.084696	1.166460
C245	C	0.050647	-0.471208	0.902503
C246	C	0.550647	0.028792	1.402503
C247	C	0.014700	-0.502690	0.917747
C248	C	0.514700	-0.002690	1.417747
C249	C	-0.026097	-0.466755	0.886457
C250	C	0.473903	0.033245	1.386457
H251	H	0.026136	-0.435756	0.912762
H252	H	0.526136	0.064244	1.412762
H253	H	0.071870	-0.460936	0.860673
H254	H	0.571870	0.039064	1.360673
H255	H	-0.006522	-0.512953	0.959567
H256	H	0.493478	-0.012953	1.459567
H257	H	0.039194	-0.538139	0.907486
H258	H	0.539194	-0.038139	1.407486
H259	H	-0.004874	-0.456483	0.844627
H260	H	0.495126	0.043517	1.344627
H261	H	-0.050603	-0.431305	0.896719
H262	H	0.449397	0.068695	1.396719
H263	H	-0.050488	-0.488112	0.896791
H264	H	0.449512	0.011888	1.396791
C265	C	0.220804	-0.621487	1.033026
C266	C	0.720804	-0.121487	1.533026
C267	C	0.279232	-0.630282	0.992146
C268	C	0.779232	-0.130282	1.492146
C269	C	0.320102	-0.666359	1.023352
C270	C	0.820102	-0.166359	1.523352
H271	H	0.214874	-0.602406	1.057488
H272	H	0.714874	-0.102406	1.557488
H273	H	0.214829	-0.659082	1.057457
H274	H	0.714829	-0.159082	1.557457
H275	H	0.285204	-0.592694	0.967725
H276	H	0.785204	-0.092694	1.467725
H277	H	0.285181	-0.649370	0.967682
H278	H	0.785181	-0.149370	1.467682
H279	H	0.314127	-0.703954	1.047784
H280	H	0.814127	-0.203954	1.547784
H281	H	0.314166	-0.647275	1.047814
H282	H	0.814166	-0.147275	1.547814
H283	H	0.359749	-0.672336	0.995620
H284	H	0.859749	-0.172336	1.495620
C285	C	0.100318	-0.778216	0.678407
C286	C	0.600318	-0.278216	1.178407
C287	C	0.158755	-0.815064	0.656784
C288	C	0.658755	-0.315064	1.156784
C289	C	0.169937	-0.870922	0.701454
C290	C	0.669937	-0.370922	1.201454
H291	H	0.095888	-0.773110	0.712468
H292	H	0.595888	-0.273110	1.212468
H293	H	0.072695	-0.796222	0.689309
H294	H	0.572695	-0.296222	1.189309
H295	H	0.186370	-0.797062	0.645890
H296	H	0.686370	-0.297062	1.145890
H297	H	0.163199	-0.820188	0.622728
H298	H	0.663199	-0.320188	1.122728
H299	H	0.142314	-0.888928	0.712356
H300	H	0.642314	-0.388928	1.212356
H301	H	0.165504	-0.865810	0.735512
H302	H	0.665504	-0.365810	1.235512
H303	H	0.209585	-0.895932	0.686787
H304	H	0.709585	-0.395932	1.186787
C305	C	0.026121	-0.459048	0.433182
C306	C	0.526121	0.040952	0.933182
C307	C	0.032773	-0.466871	0.383095
C308	C	0.532773	0.033129	0.883095
C309	C	0.021765	-0.411136	0.338229
C310	C	0.521765	0.088864	0.838229
H311	H	-0.013511	-0.433918	0.447666
H312	H	0.486489	0.066082	0.947666
H313	H	0.053784	-0.441067	0.422231
H314	H	0.553784	0.058933	0.922231
H315	H	0.005111	-0.484844	0.394046
H316	H	0.505111	0.015156	0.894046
H317	H	0.072402	-0.491991	0.368594
H318	H	0.572402	0.008009	0.868594
H319	H	0.049428	-0.393155	0.327278
H320	H	0.549428	0.106845	0.827278
H321	H	-0.017867	-0.386011	0.352719
H322	H	0.482133	0.113989	0.852719
H323	H	0.026282	-0.416438	0.304238
H324	H	0.526282	0.083562	0.804238
C325	C	0.691895	-0.495544	0.396214
C326	C	1.191895	0.004456	0.896214
C327	C	0.640653	-0.481814	0.385621
C328	C	1.140653	0.018186	0.885621
C329	C	0.640481	-0.436954	0.329889
C330	C	1.140481	0.063046	0.829889
H331	H	0.691842	-0.460733	0.396097
H332	H	1.191842	0.039267	0.896097
H333	H	0.726591	-0.509246	0.365708
H334	H	1.226591	-0.009246	0.865708
H335	H	0.605966	-0.468111	0.416119
H336	H	1.105966	0.031889	0.916119
H337	H	0.640696	-0.516612	0.385725
H338	H	1.140696	-0.016612	0.885725
H339	H	0.675177	-0.450655	0.299383
H340	H	1.175177	0.049345	0.799383
H341	H	0.640429	-0.402146	0.329778
H342	H	1.140429	0.097854	0.829778
H343	H	0.605717	-0.427636	0.322692
H344	H	1.105717	0.072364	0.822692
H345	H	0.692323	-0.729239	0.699929
H346	H	1.192323	-0.229239	1.199929
H347	H	0.207509	-0.652460	0.445301
H348	H	0.707509	-0.152460	0.945301
H349	H	0.692221	-0.728771	0.521355
H350	H	1.192221	-0.228771	1.021355
C351	C	0.100574	0.010382	0.678177
C352	C	0.600574	0.510382	1.178177
C353	C	0.159036	0.010366	0.656469
C354	C	0.659036	0.510366	1.156469
C355	C	0.170337	0.010323	0.701093
C356	C	0.670337	0.510323	1.201093
H357	H	0.073008	0.045099	0.689120
H358	H	0.573008	0.545099	1.189120
H359	H	0.096157	-0.024364	0.712230
H360	H	0.596157	0.475636	1.212230
H361	H	0.163448	0.045107	0.622427
H362	H	0.663448	0.545107	1.122427
H363	H	0.186614	-0.024349	0.645531
H364	H	0.686614	0.475651	1.145531
H365	H	0.165921	-0.024423	0.735146
H366	H	0.665921	0.475577	1.235146
H367	H	0.142769	0.045040	0.712033
H368	H	0.642769	0.545040	1.212033
H369	H	0.210007	0.010306	0.686373
H370	H	0.710007	0.510306	1.186373
H371	H	0.692134	-0.508185	0.589902
H372	H	1.192134	-0.008185	1.089902
H373	H	-0.046832	-0.652809	1.184615
H374	H	0.453168	-0.152809	1.684615
C375	C	0.222414	0.010923	0.432824
C376	C	0.722414	0.510923	0.932824
C377	C	0.259342	0.011060	0.454231
C378	C	0.759342	0.511060	0.954231
C379	C	0.314997	0.011439	0.409313
C380	C	0.814997	0.511439	0.909313
H381	H	0.240547	-0.023721	0.421754
H382	H	0.740547	0.476279	0.921754
H383	H	0.216985	0.045741	0.398903
H384	H	0.716985	0.545741	0.898903
H385	H	0.264773	-0.023754	0.488141
H386	H	0.764773	0.476246	0.988141
H387	H	0.241229	0.045702	0.465297
H388	H	0.741229	0.545702	0.965297
H389	H	0.309567	0.046256	0.375393
H390	H	0.809567	0.546256	0.875393
H391	H	0.333123	-0.023205	0.398246
H392	H	0.833123	0.476795	0.898246
H393	H	0.340057	0.011538	0.423830
H394	H	0.840057	0.511538	0.923830
C395	C	0.025789	0.010489	0.433410
C396	C	0.525789	0.510489	0.933410
C397	C	0.032371	0.061728	0.383296
C398	C	0.532371	0.561728	0.883296
C399	C	0.021196	0.061849	0.338545
C400	C	0.521196	0.561849	0.838545
H401	H	0.053394	-0.024203	0.422435
H402	H	0.553394	0.475797	0.922435
H403	H	-0.013869	0.010518	0.448022
H404	H	0.486131	0.510518	0.948022
H405	H	0.072023	0.061694	0.368686
H406	H	0.572023	0.561694	0.868686
H407	H	0.004768	0.096428	0.394252
H408	H	0.504768	0.596428	0.894252
H409	H	-0.018463	0.061878	0.353156
H410	H	0.481537	0.561878	0.853156
H411	H	0.048801	0.027155	0.327575
H412	H	0.548801	0.527155	0.827575
H413	H	0.025654	0.096616	0.304539
H414	H	0.525654	0.596616	0.804539
C415	C	0.264193	-0.577825	0.902284
C416	C	0.764193	-0.077825	1.402284
C417	C	0.273740	-0.551818	0.840683
C418	C	0.773740	-0.051818	1.340683
C419	C	0.335341	-0.566916	0.809203
C420	C	0.835341	-0.066916	1.309203
H421	H	0.281871	-0.563416	0.912481
H422	H	0.781871	-0.063416	1.412481
H423	H	0.281825	-0.620123	0.912513
H424	H	0.781825	-0.120123	1.412513
H425	H	0.256116	-0.509529	0.830459
H426	H	0.756116	-0.009529	1.330459
H427	H	0.256077	-0.566223	0.830469
H428	H	0.756077	-0.066223	1.330469
H429	H	0.352973	-0.609213	0.819432
H430	H	0.852973	-0.109213	1.319432
H431	H	0.353014	-0.552505	0.819405
H432	H	0.853014	-0.052505	1.319405
H433	H	0.341827	-0.549276	0.767404
H434	H	0.841827	-0.049276	1.267404
C435	C	0.050478	-0.471059	0.703280
C436	C	0.550478	0.028941	1.203280
C437	C	-0.007966	-0.462254	0.712065
C438	C	0.492034	0.037746	1.212065
C439	C	-0.048801	-0.426193	0.748079
C440	C	0.451199	0.073807	1.248079
H441	H	0.056439	-0.490155	0.740880
H442	H	0.556439	0.009845	1.240880
H443	H	0.056457	-0.433466	0.684144
H444	H	0.556457	0.066534	1.184144
H445	H	-0.013942	-0.499841	0.731202
H446	H	0.486058	0.000159	1.231202
H447	H	-0.013946	-0.443152	0.674476
H448	H	0.486054	0.056848	1.174476
H449	H	-0.042823	-0.388600	0.728943
H450	H	0.457177	0.111400	1.228943
H451	H	-0.042835	-0.445293	0.785676
H452	H	0.457165	0.054707	1.285676
H453	H	-0.088460	-0.420210	0.754039
H454	H	0.411540	0.079790	1.254039
H455	H	0.023705	-0.518748	0.655609
H456	H	0.523705	-0.018748	1.155609
H457	H	0.209407	-0.611608	0.562721
H458	H	0.709407	-0.111608	1.062721
H459	H	0.247325	-0.573698	0.600612
H460	H	0.747325	-0.073698	1.100612
H461	H	0.532110	-0.657210	0.644171
H462	H	1.032110	-0.157210	1.144171
C463	C	0.410005	-0.630319	0.690150
C464	C	0.910005	-0.130319	1.190150
C465	C	0.450880	-0.688347	0.693438
C466	C	0.950880	-0.188347	1.193438
C467	C	0.419671	-0.728716	0.723184
C468	C	0.919671	-0.228716	1.223184
H469	H	0.385566	-0.628800	0.729446
H470	H	0.885566	-0.128800	1.229446
H471	H	0.385552	-0.619864	0.668793
H472	H	0.885552	-0.119864	1.168793
H473	H	0.475323	-0.698799	0.714796
H474	H	0.975323	-0.198799	1.214796
H475	H	0.475321	-0.689885	0.654152
H476	H	0.975321	-0.189885	1.154152
H477	H	0.395217	-0.718261	0.701827
H478	H	0.895217	-0.218261	1.201827
H479	H	0.395233	-0.727191	0.762477
H480	H	0.895233	-0.227191	1.262477
H481	H	0.447400	-0.768091	0.725414
H482	H	0.947400	-0.268091	1.225414
H483	H	0.532080	-0.473208	0.574011
H484	H	1.032080	0.026792	1.074011
H485	H	0.418366	-0.435297	0.611936
H486	H	0.918366	0.064703	1.111936
H487	H	0.162897	-0.149674	0.516363
H488	H	0.662897	0.350326	1.016363
C489	C	0.210515	-0.271873	0.543153
C490	C	0.710515	0.228127	1.043153
C491	C	0.179006	-0.256633	0.507218
C492	C	0.679006	0.243367	1.007218
C493	C	0.214916	-0.287936	0.466438
C494	C	0.714916	0.212064	0.966438
H495	H	0.245959	-0.261621	0.518631
H496	H	0.745959	0.238379	1.018631
H497	H	0.220797	-0.313703	0.564392
H498	H	0.720797	0.186297	1.064392
H499	H	0.168733	-0.214812	0.485981
H500	H	0.668733	0.285188	0.985981
H501	H	0.143566	-0.266887	0.531723
H502	H	0.643566	0.233113	1.031723
H503	H	0.225198	-0.329766	0.487676
H504	H	0.725198	0.170234	0.987676
H505	H	0.250358	-0.277682	0.441920
H506	H	0.750358	0.222318	0.941920
H507	H	0.193541	-0.277605	0.442055
H508	H	0.693541	0.222395	0.942055
C509	C	0.060435	-0.141275	0.713221
C510	C	0.560435	0.358725	1.213221
C511	C	0.091937	-0.156540	0.749172
C512	C	0.591937	0.343460	1.249172
C513	C	0.056005	-0.125294	0.790002
C514	C	0.556005	0.374706	1.290002
H515	H	0.050121	-0.099441	0.692039
H516	H	0.550121	0.400559	1.192039
H517	H	0.025005	-0.151568	0.737721
H518	H	0.525005	0.348432	1.237721
H519	H	0.127356	-0.146244	0.724675
H520	H	0.627356	0.353756	1.224675
H521	H	0.102250	-0.198369	0.770366
H522	H	0.602250	0.301631	1.270366
H523	H	0.020576	-0.135587	0.814502
H524	H	0.520576	0.364413	1.314502
H525	H	0.045693	-0.083461	0.768816
H526	H	0.545693	0.416539	1.268816
H527	H	0.077372	-0.135651	0.814404
H528	H	0.577372	0.364349	1.314404
C529	C	0.104110	-0.271998	0.756686
C530	C	0.604110	0.228002	1.256686
C531	C	0.156474	-0.307975	0.771629
C532	C	0.656474	0.192025	1.271629
C533	C	0.141522	-0.339389	0.833249
C534	C	0.641522	0.160611	1.333249
H535	H	0.079694	-0.244410	0.778013
H536	H	0.579694	0.255590	1.278013
H537	H	0.082870	-0.296501	0.767020
H538	H	0.582870	0.203499	1.267020
H539	H	0.177705	-0.283475	0.761301
H540	H	0.677705	0.216525	1.261301
H541	H	0.180896	-0.335574	0.750317
H542	H	0.680896	0.164426	1.250317
H543	H	0.120282	-0.363892	0.843583
H544	H	0.620282	0.136108	1.343583
H545	H	0.117106	-0.311797	0.854570
H546	H	0.617106	0.188203	1.354570
H547	H	0.177048	-0.363807	0.843395
H548	H	0.677048	0.136193	1.343395
