data_functionalizedCrystal
_audit_creation_method	'MofGen! by Chris Wilmer'
_symmetry_space_group_name_H-M	'P1'
_symmetry_Int_Tables_number	1
_symmetry_cell_setting	triclinic
loop_
_symmetry_equiv_pos_as_xyz
  x,y,z
_cell_length_a	19.121063
_cell_length_b	18.101398
_cell_length_c	18.101390
_cell_angle_alpha	90.008947
_cell_angle_beta	92.404924
_cell_angle_gamma	87.536641
loop_
_atom_site_label
_atom_site_type_symbol
_atom_site_fract_x
_atom_site_fract_y
_atom_site_fract_z
Zn1	Zn	-0.279683	-1.119561	-0.431092
Zn2	Zn	0.053651	-0.786227	-0.097759
Zn3	Zn	0.386984	-0.452894	0.235574
Zn4	Zn	-0.397147	-1.114180	-0.312528
Zn5	Zn	-0.063813	-0.780846	0.020806
Zn6	Zn	0.269520	-0.447513	0.354139
Zn7	Zn	-0.279704	-0.995718	-0.307288
Zn8	Zn	0.053629	-0.662385	0.026045
Zn9	Zn	0.386963	-0.329051	0.359378
Zn10	Zn	-0.397086	-0.990397	-0.436348
Zn11	Zn	-0.063753	-0.657064	-0.103014
Zn12	Zn	0.269581	-0.323730	0.230319
O13	O	-0.338405	-1.054964	-0.371814
O14	O	-0.005072	-0.721631	-0.038481
O15	O	0.328262	-0.388297	0.294853
O16	O	-0.295281	-1.222479	-0.415358
O17	O	0.038052	-0.889146	-0.082024
O18	O	0.371386	-0.555812	0.251309
O19	O	-0.381602	-1.098440	-0.208201
O20	O	-0.048269	-0.765107	0.125132
O21	O	0.285065	-0.431774	0.458465
O22	O	-0.181417	-1.016625	-0.319319
O23	O	0.151916	-0.683292	0.014014
O24	O	0.485249	-0.349958	0.347347
O25	O	-0.381581	-1.218526	-0.328249
O26	O	-0.048248	-0.885192	0.005084
O27	O	0.285085	-0.551859	0.338418
O28	O	-0.181402	-1.107612	-0.410277
O29	O	0.151932	-0.774278	-0.076944
O30	O	0.485265	-0.440945	0.256389
O31	O	-0.295318	-1.011407	-0.204352
O32	O	0.038016	-0.678074	0.128981
O33	O	0.371349	-0.344740	0.462315
O34	O	-0.295259	-0.891380	-0.324415
O35	O	0.038075	-0.558047	0.008918
O36	O	0.371408	-0.224713	0.342252
O37	O	-0.381478	-1.007556	-0.539282
O38	O	-0.048144	-0.674223	-0.205949
O39	O	0.285189	-0.340889	0.127385
O40	O	-0.381499	-0.887471	-0.419234
O41	O	-0.048165	-0.554137	-0.085901
O42	O	0.285168	-0.220804	0.247432
O43	O	-0.295222	-1.102452	-0.535421
O44	O	0.038111	-0.769119	-0.202087
O45	O	0.371445	-0.435785	0.131246
O46	O	-0.495423	-1.093281	-0.333345
O47	O	-0.162089	-0.759947	-0.000011
O48	O	0.171244	-0.426614	0.333322
O49	O	-0.495378	-1.002338	-0.424315
O50	O	-0.162045	-0.669005	-0.090981
O51	O	0.171289	-0.335671	0.242352
C52	C	-0.338375	-0.862555	-0.371827
C53	C	-0.005042	-0.529221	-0.038494
C54	C	0.328292	-0.195888	0.294840
C55	C	-0.338379	-0.780240	-0.371851
C56	C	-0.005046	-0.446907	-0.038517
C57	C	0.328288	-0.113574	0.294816
C58	C	-0.338417	-0.481148	-0.371827
C59	C	-0.005083	-0.147814	-0.038494
C60	C	0.328250	0.185519	0.294839
C61	C	-0.392939	-0.510026	-0.431214
C62	C	-0.059606	-0.176693	-0.097881
C63	C	0.273727	0.156640	0.235453
C64	C	-0.392770	-0.595652	-0.431439
C65	C	-0.059436	-0.262319	-0.098105
C66	C	0.273897	0.071014	0.235228
C67	C	-0.338399	-0.629531	-0.371839
C68	C	-0.005065	-0.296198	-0.038506
C69	C	0.328268	0.037136	0.294828
C70	C	-0.264420	-0.601800	-0.389844
C71	C	0.068913	-0.268466	-0.056511
C72	C	0.402246	0.064867	0.276823
C73	C	-0.264747	-0.516140	-0.390265
C74	C	0.068587	-0.182807	-0.056932
C75	C	0.401920	0.150527	0.276401
C76	C	-0.357220	-0.511850	-0.294269
C77	C	-0.023887	-0.178517	0.039064
C78	C	0.309446	0.154817	0.372398
C79	C	-0.358845	-0.597427	-0.294759
C80	C	-0.025511	-0.264094	0.038574
C81	C	0.307822	0.069240	0.371908
C82	C	-0.338384	-0.713391	-0.371844
C83	C	-0.005050	-0.380058	-0.038511
C84	C	0.328283	-0.046725	0.294823
C85	C	-0.338426	-0.397288	-0.371824
C86	C	-0.005093	-0.063954	-0.038491
C87	C	0.328240	0.269379	0.294843
C88	C	-0.520884	-1.046668	-0.379985
C89	C	-0.187551	-0.713335	-0.046651
C90	C	0.145782	-0.380002	0.286682
C91	C	-0.598950	-1.043187	-0.383505
C92	C	-0.265616	-0.709854	-0.050171
C93	C	0.067717	-0.376520	0.283162
C94	C	-0.635625	-1.088937	-0.337835
C95	C	-0.302292	-0.755604	-0.004501
C96	C	0.031042	-0.422271	0.328832
C97	C	-0.708976	-1.085668	-0.341150
C98	C	-0.375642	-0.752334	-0.007816
C99	C	-0.042309	-0.419001	0.325517
C100	C	-0.745650	-1.036644	-0.390132
C101	C	-0.412317	-0.703310	-0.056798
C102	C	-0.078983	-0.369977	0.276535
C103	C	-0.708969	-0.990891	-0.435807
C104	C	-0.375636	-0.657558	-0.102474
C105	C	-0.042303	-0.324225	0.230860
C106	C	-0.635620	-0.994165	-0.432495
C107	C	-0.302287	-0.660832	-0.099162
C108	C	0.031047	-0.327499	0.234172
C109	C	-0.967118	-1.024391	-0.402502
C110	C	-0.633784	-0.691058	-0.069169
C111	C	-0.300451	-0.357725	0.264164
C112	C	-1.040472	-1.021119	-0.405809
C113	C	-0.707139	-0.687786	-0.072476
C114	C	-0.373806	-0.354453	0.260857
C115	C	-1.040473	-1.115897	-0.311153
C116	C	-0.707140	-0.782564	0.022181
C117	C	-0.373807	-0.449230	0.355514
C118	C	-0.967123	-1.119163	-0.307842
C119	C	-0.633789	-0.785830	0.025491
C120	C	-0.300456	-0.452497	0.358825
C121	C	-0.930449	-1.073414	-0.353520
C122	C	-0.597115	-0.740081	-0.020187
C123	C	-0.263782	-0.406747	0.313147
C124	C	-0.820626	-1.033299	-0.393520
C125	C	-0.487293	-0.699965	-0.060186
C126	C	-0.153959	-0.366632	0.273147
C127	C	-0.855474	-1.076763	-0.350135
C128	C	-0.522140	-0.743430	-0.016802
C129	C	-0.188807	-0.410097	0.316532
C130	C	-0.155213	-1.063312	-0.363628
C131	C	0.178120	-0.729979	-0.030294
C132	C	0.511454	-0.396645	0.303039
C133	C	-0.077148	-1.066870	-0.360139
C134	C	0.256186	-0.733536	-0.026806
C135	C	0.589519	-0.400203	0.306528
C136	C	-0.338341	-1.055011	-0.564973
C137	C	-0.005007	-0.721677	-0.231640
C138	C	0.328326	-0.388344	0.101694
C139	C	-0.338313	-1.055031	-0.647286
C140	C	-0.004980	-0.721697	-0.313953
C141	C	0.328353	-0.388364	0.019381
C142	C	-0.338432	-0.248124	-0.371806
C143	C	-0.005099	0.085209	-0.038473
C144	C	0.328234	0.418542	0.294860
C145	C	-0.338436	-0.330438	-0.371816
C146	C	-0.005103	0.002895	-0.038482
C147	C	0.328231	0.336228	0.294851
C148	C	-0.338270	-1.055073	-0.946375
C149	C	-0.004936	-0.721739	-0.613042
C150	C	0.328397	-0.388406	-0.279709
C151	C	-0.284191	-1.114959	-0.912629
C152	C	0.049142	-0.781625	-0.579296
C153	C	0.382476	-0.448292	-0.245963
C154	C	-0.283990	-1.114789	-0.827002
C155	C	0.049343	-0.781455	-0.493669
C156	C	0.382677	-0.448122	-0.160335
C157	C	-0.338291	-1.055053	-0.797994
C158	C	-0.004958	-0.721719	-0.464660
C159	C	0.328375	-0.388386	-0.131327
C160	C	-0.318176	-0.977939	-0.828178
C161	C	0.015158	-0.644606	-0.494844
C162	C	0.348491	-0.311273	-0.161511
C163	C	-0.317770	-0.978302	-0.913805
C164	C	0.015563	-0.644968	-0.580471
C165	C	0.348896	-0.311635	-0.247138
C166	C	-0.412603	-1.071606	-0.918123
C167	C	-0.079270	-0.738273	-0.584790
C168	C	0.254064	-0.404940	-0.251456
C169	C	-0.412224	-1.073336	-0.832456
C170	C	-0.078891	-0.740002	-0.499122
C171	C	0.254443	-0.406669	-0.165789
C172	C	-0.338305	-1.055036	-0.714135
C173	C	-0.004971	-0.721703	-0.380801
C174	C	0.328362	-0.388370	-0.047468
C175	C	-0.338254	-1.055084	-1.030234
C176	C	-0.004921	-0.721750	-0.696901
C177	C	0.328412	-0.388417	-0.363567
C178	C	-0.338418	-1.054962	-0.179404
C179	C	-0.005085	-0.721629	0.153929
C180	C	0.328249	-0.388295	0.487263
C181	C	-0.338248	-1.055094	-0.097083
C182	C	-0.004914	-0.721761	0.236251
C183	C	0.328419	-0.388428	0.569584
H184	H	-0.248799	-0.496896	-0.446865
H185	H	0.084535	-0.163562	-0.113532
H186	H	0.417868	0.169771	0.219802
H187	H	-0.229431	-1.104431	-0.931709
H188	H	0.103903	-0.771097	-0.598376
H189	H	0.437236	-0.437764	-0.265043
Br190	Br	-0.449584	-0.627176	-0.272028
Br191	Br	-0.116251	-0.293843	0.061305
Br192	Br	0.217083	0.039490	0.394639
Br193	Br	-1.090249	-1.177986	-0.249169
Br194	Br	-0.756915	-0.844652	0.084165
Br195	Br	-0.423582	-0.511319	0.417498
Br196	Br	-0.758741	-0.924364	-0.502290
Br197	Br	-0.425407	-0.591031	-0.168956
Br198	Br	-0.092074	-0.257697	0.164377
H199	H	-0.605760	-0.956911	-0.469685
H200	H	-0.272426	-0.623578	-0.136352
H201	H	0.060907	-0.290245	0.196981
Br202	Br	-0.479761	-0.998837	-0.954889
Br203	Br	-0.146428	-0.665503	-0.621556
Br204	Br	0.186906	-0.332170	-0.288222
H205	H	-0.355445	-0.932343	-0.936213
H206	H	-0.022112	-0.599010	-0.602880
H207	H	0.311222	-0.265677	-0.269547
Br208	Br	-0.484212	-0.626542	-0.413300
Br209	Br	-0.150878	-0.293209	-0.079966
Br210	Br	0.182455	0.040124	0.253367
Br211	Br	-0.297461	-0.635845	-0.217492
Br212	Br	0.035873	-0.302512	0.115842
Br213	Br	0.369206	0.030821	0.449175
H214	H	-0.228923	-1.104108	-0.804058
H215	H	0.104411	-0.770775	-0.470725
H216	H	0.437744	-0.437441	-0.137391
H217	H	-0.380328	-0.616714	-0.488970
H218	H	-0.046995	-0.283380	-0.155637
H219	H	0.286339	0.049953	0.177696
H220	H	-0.222667	-0.497308	-0.348806
H221	H	0.110666	-0.163975	-0.015473
H222	H	0.443999	0.169359	0.317861
H223	H	-0.447977	-0.486939	-0.420469
H224	H	-0.114643	-0.153605	-0.087136
H225	H	0.218690	0.179728	0.246198
Br226	Br	-0.372485	-0.475075	-0.526557
Br227	Br	-0.039151	-0.141742	-0.193223
Br228	Br	0.294182	0.191592	0.140110
H229	H	-0.222696	-0.624038	-0.347792
H230	H	0.110637	-0.290705	-0.014459
H231	H	0.443971	0.042629	0.318874
H232	H	-0.850494	-0.993382	-0.433400
H233	H	-0.517161	-0.660048	-0.100066
H234	H	-0.183828	-0.326715	0.233267
Br235	Br	-0.237356	-0.638788	-0.483119
Br236	Br	0.095977	-0.305455	-0.149786
Br237	Br	0.429310	0.027878	0.183547
H238	H	-0.263433	-0.963895	-0.931358
H239	H	0.069900	-0.630562	-0.598025
H240	H	0.403234	-0.297229	-0.264691
H241	H	-0.296588	-1.172074	-0.806549
H242	H	0.036745	-0.838740	-0.473216
H243	H	0.370079	-0.505407	-0.139882
Br244	Br	-1.090245	-0.954569	-0.472277
Br245	Br	-0.756911	-0.621236	-0.138943
Br246	Br	-0.423578	-0.287903	0.194390
H247	H	-0.317506	-0.493375	-0.250061
H248	H	0.015827	-0.160042	0.083272
H249	H	0.349160	0.173291	0.416605
Br250	Br	-0.445586	-0.471843	-0.265925
Br251	Br	-0.112253	-0.138510	0.067408
Br252	Br	0.221080	0.194823	0.400741
H253	H	-0.605770	-1.128855	-0.297945
H254	H	-0.272436	-0.795521	0.035388
H255	H	0.060897	-0.462188	0.368722
H256	H	-0.296633	-1.172440	-0.933780
H257	H	0.036700	-0.839107	-0.600446
H258	H	0.370034	-0.505773	-0.267113
H259	H	-0.738833	-1.122922	-0.303960
H260	H	-0.405500	-0.789589	0.029374
H261	H	-0.072167	-0.456255	0.362707
H262	H	-0.937264	-0.987139	-0.439694
H263	H	-0.603930	-0.653806	-0.106360
H264	H	-0.270597	-0.320472	0.226973
H265	H	-0.937264	-1.159083	-0.267957
H266	H	-0.603931	-0.825749	0.065376
H267	H	-0.270597	-0.492416	0.398710
H268	H	-0.825611	-1.116682	-0.310257
H269	H	-0.492278	-0.783348	0.023077
H270	H	-0.158945	-0.450015	0.356410
H271	H	-0.356351	-0.932253	-0.809522
H272	H	-0.023018	-0.598920	-0.476189
H273	H	0.310316	-0.265586	-0.142855
Br274	Br	-0.228613	-0.953371	-0.788437
Br275	Br	0.104720	-0.620037	-0.455103
Br276	Br	0.438054	-0.286704	-0.121770
H277	H	-0.430918	-1.126676	-0.940580
H278	H	-0.097585	-0.793343	-0.607246
H279	H	0.235748	-0.460009	-0.273913
Br280	Br	-0.437506	-1.167897	-0.799732
Br281	Br	-0.104172	-0.834564	-0.466399
Br282	Br	0.229161	-0.501231	-0.133066
H283	H	-0.454682	-1.032623	-0.812953
H284	H	-0.121349	-0.699289	-0.479620
H285	H	0.211984	-0.365956	-0.146286
