data_functionalizedCrystal
_audit_creation_method	'MofGen! by Chris Wilmer'
_symmetry_space_group_name_H-M	'P1'
_symmetry_Int_Tables_number	1
_symmetry_cell_setting	triclinic
loop_
_symmetry_equiv_pos_as_xyz
  x,y,z
_cell_length_a	16.625548
_cell_length_b	13.032721
_cell_length_c	13.032268
_cell_angle_alpha	103.289627
_cell_angle_beta	82.837807
_cell_angle_gamma	82.794397
loop_
_atom_site_label
_atom_site_type_symbol
_atom_site_fract_x
_atom_site_fract_y
_atom_site_fract_z
Zn1	Zn	1.119641	0.499057	0.654215
Zn2	Zn	1.619641	0.999057	1.154215
Zn3	Zn	1.119553	0.654142	0.499163
Zn4	Zn	1.619553	1.154142	0.999163
Zn5	Zn	1.004420	0.476555	0.476634
Zn6	Zn	1.504420	0.976555	0.976634
Zn7	Zn	0.965173	0.676619	0.676703
Zn8	Zn	1.465173	1.176619	1.176703
O9	O	1.052197	0.576593	0.576679
O10	O	1.552197	1.076593	1.076679
O11	O	1.232459	0.519640	0.633665
O12	O	1.732459	1.019640	1.133665
O13	O	1.120669	0.611760	0.347555
O14	O	1.620669	1.111760	0.847555
O15	O	1.036166	0.330909	0.481350
O16	O	1.536166	0.830909	0.981350
O17	O	1.232395	0.633580	0.519749
O18	O	1.732395	1.133580	1.019749
O19	O	1.120819	0.347442	0.611819
O20	O	1.620819	0.847442	1.111819
O21	O	1.036081	0.481288	0.331002
O22	O	1.536081	0.981288	0.831002
O23	O	0.886384	0.503083	0.503156
O24	O	1.386384	1.003083	1.003156
O25	O	0.969275	0.671889	0.822340
O26	O	1.469275	1.171889	1.322340
O27	O	0.857549	0.650069	0.650146
O28	O	1.357549	1.150069	1.150146
O29	O	1.082763	0.541436	0.805818
O30	O	1.582763	1.041436	1.305818
O31	O	1.082613	0.805754	0.541554
O32	O	1.582613	1.305754	1.041554
O33	O	0.969190	0.822268	0.671992
O34	O	1.469190	1.322268	1.171992
C35	C	1.021652	0.852553	0.611681
C36	C	1.521652	1.352553	1.111681
C37	C	1.008655	0.970614	0.626691
C38	C	1.508655	1.470614	1.126691
C39	C	0.842711	0.576574	0.576647
C40	C	1.342711	1.076574	1.076647
C41	C	0.753086	0.576595	0.576662
C42	C	1.253086	1.076595	1.076662
C43	C	1.021651	0.611680	0.853692
C44	C	1.521651	1.111680	1.353692
C45	C	1.008634	0.626632	0.971738
C46	C	1.508634	1.126632	1.471738
C47	C	0.424905	0.576608	0.576708
C48	C	0.924905	1.076608	1.076708
C49	C	0.516216	0.576601	0.576692
C50	C	1.016216	1.076601	1.076692
C51	C	0.588993	0.576602	0.576684
C52	C	1.088993	1.076602	1.076684
C53	C	0.680309	0.576594	0.576669
C54	C	1.180309	1.076594	1.076669
C55	C	1.262501	0.576613	0.576711
C56	C	1.762501	1.076613	1.076711
C57	C	1.352119	0.576622	0.576725
C58	C	1.852119	1.076622	1.076725
C59	C	1.082880	0.299559	0.541563
C60	C	1.582880	0.799559	1.041563
C61	C	1.095956	0.181504	0.526599
C62	C	1.595956	0.681504	1.026599
C63	C	1.059018	1.015050	0.568893
C64	C	1.559018	1.515050	1.068893
C65	C	1.045586	1.137072	0.584405
C66	C	1.545586	1.637072	1.084405
C67	C	1.082679	0.541567	0.300734
C68	C	1.582679	1.041567	0.800734
C69	C	1.095885	0.526316	0.182650
C70	C	1.595885	1.026316	0.682650
C71	C	1.058982	0.568752	1.016192
C72	C	1.558982	1.068752	1.516192
C73	C	1.045530	0.584204	1.138199
C74	C	1.545530	1.084204	1.638199
H75	H	0.992523	1.189362	0.645380
H76	H	1.492523	1.689362	1.145380
N77	N	1.162531	1.115925	0.450109
N78	N	1.662531	1.615925	0.950109
N79	N	1.234809	1.129037	0.458775
N80	N	1.734809	1.629037	0.958775
H81	H	1.281826	1.082719	0.404754
H82	H	1.781826	1.582719	0.904754
N83	N	0.978952	0.660730	1.203738
N84	N	1.478952	1.160730	1.703738
N85	N	0.931608	0.715153	1.162006
N86	N	1.431608	1.215153	1.662006
H87	H	0.884586	0.769198	1.208292
H88	H	1.384586	1.269198	1.708292
N89	N	0.942096	1.036221	0.703179
N90	N	1.442096	1.536221	1.203179
N91	N	0.931281	1.135251	0.715674
N92	N	1.431281	1.635251	1.215674
H93	H	0.884272	1.181586	0.769696
H94	H	1.384272	1.681586	1.269696
N95	N	1.125544	0.492231	0.950619
N96	N	1.625544	0.992231	1.450619
N97	N	1.136375	0.479784	0.851601
N98	N	1.636375	0.979784	1.351601
H99	H	1.183385	0.425738	0.805289
H100	H	1.683385	0.925738	1.305289
N101	N	1.162449	0.449787	1.117081
N102	N	1.662449	0.949787	1.617081
N103	N	1.173281	0.437336	1.018063
N104	N	1.673281	0.937336	1.518063
H105	H	1.220290	0.383287	0.971753
H106	H	1.720290	0.883287	1.471753
N107	N	0.942051	0.703139	1.037282
N108	N	1.442051	1.203139	1.537282
N109	N	0.869781	0.694532	1.024068
N110	N	1.369781	1.194532	1.524068
H111	H	0.822753	0.748565	1.070356
H112	H	1.322753	1.248565	1.570356
N113	N	1.125591	0.949445	0.492426
N114	N	1.625591	1.449445	0.992426
N115	N	1.136412	0.850416	0.479941
N116	N	1.636412	1.350416	0.979941
H117	H	1.183433	0.804083	0.425938
H118	H	1.683433	1.304083	0.925938
