data_functionalizedCrystal
_audit_creation_method	'MofGen! by Chris Wilmer'
_symmetry_space_group_name_H-M	'P1'
_symmetry_Int_Tables_number	1
_symmetry_cell_setting	triclinic
loop_
_symmetry_equiv_pos_as_xyz
  x,y,z
_cell_length_a	19.805407
_cell_length_b	19.805405
_cell_length_c	19.805399
_cell_angle_alpha	89.973385
_cell_angle_beta	89.982197
_cell_angle_gamma	90.024042
loop_
_atom_site_label
_atom_site_type_symbol
_atom_site_fract_x
_atom_site_fract_y
_atom_site_fract_z
Zn1	Zn	1.034734	-0.269527	-0.382692
Zn2	Zn	1.368067	0.063806	-0.049359
Zn3	Zn	1.701401	0.397139	0.283974
Zn4	Zn	1.034648	-0.382716	-0.269506
Zn5	Zn	1.367982	-0.049382	0.063827
Zn6	Zn	1.701315	0.283951	0.397161
Zn7	Zn	0.921549	-0.269541	-0.269520
Zn8	Zn	1.254882	0.063793	0.063813
Zn9	Zn	1.588215	0.397126	0.397146
Zn10	Zn	0.921512	-0.382674	-0.382656
Zn11	Zn	1.254845	-0.049341	-0.049323
Zn12	Zn	1.588178	0.283992	0.284011
O13	O	0.978111	-0.326115	-0.326094
O14	O	1.311444	0.007219	0.007240
O15	O	1.644777	0.340552	0.340573
O16	O	1.129439	-0.284554	-0.367687
O17	O	1.462773	0.048780	-0.034354
O18	O	1.796106	0.382113	0.298980
O19	O	1.019625	-0.367726	-0.174791
O20	O	1.352958	-0.034392	0.158542
O21	O	1.686292	0.298941	0.491876
O22	O	0.936615	-0.174822	-0.284554
O23	O	1.269948	0.158511	0.048779
O24	O	1.603281	0.491844	0.382113
O25	O	1.129376	-0.367713	-0.284529
O26	O	1.462710	-0.034379	0.048804
O27	O	1.796043	0.298954	0.382137
O28	O	1.019771	-0.174813	-0.367701
O29	O	1.353105	0.158521	-0.034368
O30	O	1.686438	0.491854	0.298966
O31	O	0.936531	-0.284576	-0.174802
O32	O	1.269865	0.048757	0.158532
O33	O	1.603198	0.382090	0.491865
O34	O	0.826827	-0.284536	-0.284519
O35	O	1.160161	0.048797	0.048814
O36	O	1.493494	0.382130	0.382148
O37	O	0.936551	-0.367642	-0.477378
O38	O	1.269885	-0.034309	-0.144044
O39	O	1.603218	0.299024	0.189289
O40	O	0.826800	-0.367655	-0.367639
O41	O	1.160133	-0.034322	-0.034306
O42	O	1.493467	0.299011	0.299027
O43	O	1.019735	-0.284514	-0.477404
O44	O	1.353069	0.048820	-0.144071
O45	O	1.686402	0.382153	0.189263
O46	O	1.019589	-0.477427	-0.284494
O47	O	1.352922	-0.144093	0.048839
O48	O	1.686256	0.189240	0.382172
O49	O	0.936468	-0.477396	-0.367625
O50	O	1.269801	-0.144063	-0.034292
O51	O	1.603135	0.189270	0.299041
C52	C	0.802255	-0.326093	-0.326077
C53	C	1.135588	0.007240	0.007256
C54	C	1.468921	0.340573	0.340589
C55	C	0.727023	-0.326101	-0.326086
C56	C	1.060356	0.007233	0.007247
C57	C	1.393689	0.340566	0.340580
C58	C	0.691712	-0.282876	-0.369452
C59	C	1.025045	0.050457	-0.036119
C60	C	1.358379	0.383790	0.297215
C61	C	0.621024	-0.282880	-0.369455
C62	C	0.954357	0.050454	-0.036121
C63	C	1.287690	0.383787	0.297212
C64	C	0.585647	-0.326112	-0.326094
C65	C	0.918981	0.007222	0.007239
C66	C	1.252314	0.340555	0.340572
C67	C	0.620963	-0.369338	-0.282724
C68	C	0.954296	-0.036004	0.050610
C69	C	1.287629	0.297329	0.383943
C70	C	0.691650	-0.369330	-0.282718
C71	C	1.024983	-0.035997	0.050615
C72	C	1.358317	0.297336	0.383949
C73	C	0.335890	-0.369368	-0.282744
C74	C	0.669223	-0.036035	0.050589
C75	C	1.002556	0.297298	0.383922
C76	C	0.265197	-0.369374	-0.282755
C77	C	0.598531	-0.036040	0.050579
C78	C	0.931864	0.297293	0.383912
C79	C	0.265263	-0.282918	-0.369481
C80	C	0.598597	0.050416	-0.036148
C81	C	0.931930	0.383749	0.297186
C82	C	0.335950	-0.282910	-0.369476
C83	C	0.669284	0.050423	-0.036142
C84	C	1.002617	0.383756	0.297191
C85	C	0.371260	-0.326134	-0.326103
C86	C	0.704593	0.007200	0.007231
C87	C	1.037926	0.340533	0.340564
C88	C	0.447908	-0.326128	-0.326099
C89	C	0.781242	0.007205	0.007234
C90	C	1.114575	0.340538	0.340567
C91	C	0.509000	-0.326121	-0.326100
C92	C	0.842333	0.007213	0.007233
C93	C	1.175667	0.340546	0.340566
C94	C	0.978034	-0.501971	-0.326069
C95	C	1.311367	-0.168637	0.007264
C96	C	1.644700	0.164696	0.340598
C97	C	0.978063	-0.577203	-0.326081
C98	C	1.311396	-0.243869	0.007252
C99	C	1.644729	0.089464	0.340585
C100	C	1.021337	-0.612483	-0.369410
C101	C	1.354670	-0.279150	-0.036076
C102	C	1.688003	0.054183	0.297257
C103	C	1.021361	-0.683172	-0.369422
C104	C	1.354694	-0.349838	-0.036089
C105	C	1.688028	-0.016505	0.297244
C106	C	0.978114	-0.718578	-0.326103
C107	C	1.311448	-0.385245	0.007231
C108	C	1.644781	-0.051911	0.340564
C109	C	0.934835	-0.683292	-0.282772
C110	C	1.268169	-0.349959	0.050561
C111	C	1.601502	-0.016626	0.383895
C112	C	0.934808	-0.612605	-0.282763
C113	C	1.268141	-0.279272	0.050570
C114	C	1.601475	0.054061	0.383903
C115	C	0.934944	-0.968366	-0.282807
C116	C	1.268277	-0.635032	0.050527
C117	C	1.601611	-0.301699	0.383860
C118	C	0.934976	-1.039058	-0.282817
C119	C	1.268310	-0.705724	0.050516
C120	C	1.601643	-0.372391	0.383849
C121	C	1.021497	-1.038932	-0.369466
C122	C	1.354830	-0.705599	-0.036132
C123	C	1.688164	-0.372266	0.297201
C124	C	1.021470	-0.968245	-0.369457
C125	C	1.354803	-0.634912	-0.036124
C126	C	1.688136	-0.301578	0.297210
C127	C	0.978189	-0.932965	-0.326129
C128	C	1.311522	-0.599632	0.007204
C129	C	1.644855	-0.266299	0.340537
C130	C	0.978162	-0.856317	-0.326117
C131	C	1.311495	-0.522984	0.007216
C132	C	1.644829	-0.189650	0.340549
C133	C	0.978144	-0.795225	-0.326111
C134	C	1.311477	-0.461892	0.007222
C135	C	1.644811	-0.128559	0.340556
C136	C	1.154653	-0.326136	-0.326111
C137	C	1.487987	0.007197	0.007223
C138	C	1.821320	0.340530	0.340556
C139	C	1.229885	-0.326146	-0.326118
C140	C	1.563219	0.007188	0.007216
C141	C	1.896552	0.340521	0.340549
C142	C	0.978149	-0.326072	-0.502636
C143	C	1.311482	0.007261	-0.169303
C144	C	1.644815	0.340595	0.164030
C145	C	0.978165	-0.326054	-0.577868
C146	C	1.311498	0.007280	-0.244535
C147	C	1.644832	0.340613	0.088798
C148	C	0.978207	-0.149572	-0.326133
C149	C	1.311540	0.183762	0.007200
C150	C	1.644873	0.517095	0.340534
C151	C	0.978247	-0.074340	-0.326150
C152	C	1.311581	0.258994	0.007184
C153	C	1.644914	0.592327	0.340517
C154	C	1.021480	-0.282766	-0.613227
C155	C	1.354813	0.050567	-0.279894
C156	C	1.688146	0.383900	0.053439
C157	C	1.021487	-0.282747	-0.683916
C158	C	1.354820	0.050586	-0.350583
C159	C	1.688153	0.383920	-0.017249
C160	C	0.978182	-0.326018	-0.719244
C161	C	1.311515	0.007315	-0.385911
C162	C	1.644848	0.340648	-0.052577
C163	C	0.934862	-0.369308	-0.683880
C164	C	1.268195	-0.035974	-0.350547
C165	C	1.601529	0.297359	-0.017213
C166	C	0.934852	-0.369323	-0.613193
C167	C	1.268186	-0.035990	-0.279860
C168	C	1.601519	0.297343	0.053474
C169	C	0.934900	-0.369244	-0.968954
C170	C	1.268234	-0.035911	-0.635620
C171	C	1.601567	0.297422	-0.302287
C172	C	0.934915	-0.369227	-1.039646
C173	C	1.268248	-0.035894	-0.706312
C174	C	1.601582	0.297440	-0.372979
C175	C	1.021535	-0.282668	-1.039677
C176	C	1.354868	0.050665	-0.706343
C177	C	1.688201	0.383999	-0.373010
C178	C	1.021525	-0.282684	-0.968989
C179	C	1.354858	0.050650	-0.635656
C180	C	1.688192	0.383983	-0.302323
C181	C	0.978203	-0.325970	-0.933632
C182	C	1.311536	0.007363	-0.600298
C183	C	1.644870	0.340697	-0.266965
C184	C	0.978195	-0.325990	-0.856983
C185	C	1.311528	0.007343	-0.523650
C186	C	1.644862	0.340677	-0.190316
C187	C	0.978193	-0.326002	-0.795891
C188	C	1.311526	0.007331	-0.462558
C189	C	1.644859	0.340664	-0.129225
C190	C	0.978112	-0.326108	-0.150238
C191	C	1.311445	0.007225	0.183096
C192	C	1.644779	0.340558	0.516429
C193	C	0.978227	-0.325936	-0.075006
C194	C	1.311560	0.007398	0.258327
C195	C	1.644894	0.340731	0.591661
H196	H	0.236396	-0.404580	-0.247443
H197	H	0.569729	-0.071247	0.085891
H198	H	0.903063	0.262087	0.419224
H199	H	1.056807	-0.247420	-1.068473
H200	H	1.390141	0.085914	-0.735140
H201	H	1.723474	0.419247	-0.401807
O202	O	0.227181	-0.236285	-0.416255
O203	O	0.560514	0.097048	-0.082922
O204	O	0.893848	0.430382	0.250412
H205	H	0.172084	-0.243543	-0.408970
H206	H	0.505418	0.089790	-0.075637
H207	H	0.838751	0.423124	0.257697
O208	O	0.582811	-0.415964	-0.235950
O209	O	0.916144	-0.082631	0.097383
O210	O	1.249478	0.250703	0.430717
H211	H	0.550611	-0.450449	-0.266183
H212	H	0.883944	-0.117116	0.067150
H213	H	1.217278	0.216217	0.400483
H214	H	0.899704	-0.939647	-0.247527
H215	H	1.233038	-0.606313	0.085807
H216	H	1.566371	-0.272980	0.419140
O217	O	0.373970	-0.415983	-0.235964
O218	O	0.707303	-0.082650	0.097369
O219	O	1.040637	0.250684	0.430703
H220	H	0.337493	-0.446048	-0.205819
H221	H	0.670826	-0.112714	0.127515
H222	H	1.004160	0.220619	0.460848
H223	H	0.899600	-0.404538	-0.712650
H224	H	1.232933	-0.071204	-0.379317
H225	H	1.566267	0.262129	-0.045983
H226	H	1.056791	-0.247450	-0.940229
H227	H	1.390124	0.085883	-0.606895
H228	H	1.723457	0.419217	-0.273562
O229	O	0.888197	-0.721475	-0.236037
O230	O	1.221531	-0.388142	0.097296
O231	O	1.554864	-0.054809	0.430629
H232	H	0.895494	-0.776556	-0.243313
H233	H	1.228827	-0.443223	0.090020
H234	H	1.562161	-0.109890	0.423353
O235	O	0.374101	-0.236276	-0.416242
O236	O	0.707434	0.097057	-0.082908
O237	O	1.040767	0.430391	0.250425
H238	H	0.406307	-0.266608	-0.450628
H239	H	0.739640	0.066725	-0.117294
H240	H	1.072973	0.400059	0.216039
O241	O	0.888126	-0.416002	-0.575050
O242	O	1.221459	-0.082669	-0.241717
O243	O	1.554792	0.250665	0.091617
H244	H	0.858014	-0.446090	-0.611490
H245	H	1.191348	-0.112756	-0.278157
H246	H	1.524681	0.220577	0.055177
O247	O	1.067990	-0.574301	-0.416130
O248	O	1.401323	-0.240968	-0.082797
O249	O	1.734656	0.092365	0.250536
H250	H	1.037668	-0.542094	-0.450534
H251	H	1.371002	-0.208761	-0.117201
H252	H	1.704335	0.124572	0.216132
O253	O	0.888140	-0.574547	-0.236025
O254	O	1.221473	-0.241213	0.097308
O255	O	1.554807	0.092120	0.430641
H256	H	0.858078	-0.611041	-0.205898
H257	H	1.191411	-0.277708	0.127436
H258	H	1.524744	0.055626	0.460769
H259	H	1.056604	-0.711894	-0.404700
H260	H	1.389938	-0.378561	-0.071366
H261	H	1.723271	-0.045228	0.261967
O262	O	0.729868	-0.236243	-0.416216
O263	O	1.063201	0.097090	-0.082882
O264	O	1.396534	0.430423	0.250451
H265	H	0.693435	-0.206182	-0.446365
H266	H	1.026768	0.127152	-0.113031
H267	H	1.360102	0.460485	0.220302
O268	O	0.888198	-0.415892	-1.077754
O269	O	1.221531	-0.082559	-0.744421
O270	O	1.554865	0.250774	-0.411087
H271	H	0.858065	-0.445989	-1.041293
H272	H	1.191398	-0.112656	-0.707959
H273	H	1.524732	0.220678	-0.374626
H274	H	1.056737	-1.067665	-0.404747
H275	H	1.390070	-0.734332	-0.071414
H276	H	1.723403	-0.400999	0.261919
H277	H	0.592277	-0.247684	-0.404769
H278	H	0.925610	0.085650	-0.071436
H279	H	1.258943	0.418983	0.261898
O280	O	0.888325	-1.077242	-0.236090
O281	O	1.221658	-0.743909	0.097243
O282	O	1.554991	-0.410576	0.430576
H283	H	0.918653	-1.109435	-0.201679
H284	H	1.251987	-0.776101	0.131654
H285	H	1.585320	-0.442768	0.464988
H286	H	1.056746	-0.247532	-0.584468
H287	H	1.390079	0.085802	-0.251135
H288	H	1.723413	0.419135	0.082198
H289	H	0.720399	-0.404528	-0.247405
H290	H	1.053732	-0.071194	0.085929
H291	H	1.387066	0.262139	0.419262
H292	H	1.056688	-0.939419	-0.404730
H293	H	1.390021	-0.606086	-0.071396
H294	H	1.723354	-0.272753	0.261937
H295	H	1.056760	-0.247500	-0.712702
H296	H	1.390093	0.085834	-0.379369
H297	H	1.723426	0.419167	-0.046036
H298	H	0.899635	-0.404501	-0.940174
H299	H	1.232968	-0.071167	-0.606840
H300	H	1.566301	0.262166	-0.273507
