data_functionalizedCrystal
_audit_creation_method	'MofGen! by Chris Wilmer'
_symmetry_space_group_name_H-M	'P1'
_symmetry_Int_Tables_number	1
_symmetry_cell_setting	triclinic
loop_
_symmetry_equiv_pos_as_xyz
  x,y,z
_cell_length_a	12.827892
_cell_length_b	12.827893
_cell_length_c	12.827885
_cell_angle_alpha	89.978811
_cell_angle_beta	90.029976
_cell_angle_gamma	89.986589
loop_
_atom_site_label
_atom_site_type_symbol
_atom_site_fract_x
_atom_site_fract_y
_atom_site_fract_z
Zn1	Zn	-0.416032	-1.597671	0.590901
Zn2	Zn	-0.082699	-1.264338	0.924234
Zn3	Zn	0.250634	-0.931004	1.257567
Zn4	Zn	-0.590810	-1.597566	0.416160
Zn5	Zn	-0.257476	-1.264232	0.749494
Zn6	Zn	0.075857	-0.930899	1.082827
Zn7	Zn	-0.416078	-1.422912	0.416169
Zn8	Zn	-0.082744	-1.089579	0.749502
Zn9	Zn	0.250589	-0.756246	1.082835
Zn10	Zn	-0.590727	-1.422898	0.590855
Zn11	Zn	-0.257393	-1.089565	0.924188
Zn12	Zn	0.075940	-0.756232	1.257521
O13	O	-0.503412	-1.510262	0.503521
O14	O	-0.170078	-1.176928	0.836854
O15	O	0.163255	-0.843595	1.170188
O16	O	-0.439233	-1.743893	0.567737
O17	O	-0.105899	-1.410560	0.901070
O18	O	0.227434	-1.077226	1.234404
O19	O	-0.567685	-1.574359	0.269925
O20	O	-0.234352	-1.241026	0.603259
O21	O	0.098982	-0.907693	0.936592
O22	O	-0.269836	-1.446144	0.439370
O23	O	0.063498	-1.112811	0.772703
O24	O	0.396831	-0.779478	1.106036
O25	O	-0.567641	-1.743816	0.439356
O26	O	-0.234308	-1.410482	0.772689
O27	O	0.099026	-1.077149	1.106023
O28	O	-0.269802	-1.574539	0.567745
O29	O	0.063531	-1.241206	0.901078
O30	O	0.396864	-0.907872	1.234411
O31	O	-0.439310	-1.446042	0.269931
O32	O	-0.105977	-1.112709	0.603265
O33	O	0.227356	-0.779376	0.936598
O34	O	-0.439230	-1.276674	0.439325
O35	O	-0.105896	-0.943341	0.772658
O36	O	0.227437	-0.610008	1.105992
O37	O	-0.567499	-1.446120	0.737097
O38	O	-0.234166	-1.112787	1.070430
O39	O	0.099167	-0.779454	1.403764
O40	O	-0.567543	-1.276664	0.567666
O41	O	-0.234210	-0.943331	0.900999
O42	O	0.099123	-0.609997	1.234333
O43	O	-0.439152	-1.574525	0.737131
O44	O	-0.105819	-1.241192	1.070464
O45	O	0.227515	-0.907858	1.403797
O46	O	-0.737035	-1.574346	0.439311
O47	O	-0.403701	-1.241012	0.772645
O48	O	-0.070368	-0.907679	1.105978
O49	O	-0.736974	-1.446018	0.567658
O50	O	-0.403640	-1.112685	0.900992
O51	O	-0.070307	-0.779352	1.234325
C52	C	-0.503383	-1.238752	0.503492
C53	C	-0.170050	-0.905419	0.836825
C54	C	0.163284	-0.572085	1.170159
C55	C	-0.503396	-1.122599	0.503504
C56	C	-0.170063	-0.789265	0.836838
C57	C	0.163271	-0.455932	1.170171
C58	C	-0.439967	-1.070852	0.567129
C59	C	-0.106633	-0.737519	0.900462
C60	C	0.226700	-0.404186	1.233795
C61	C	-0.439979	-0.950802	0.567143
C62	C	-0.106645	-0.617468	0.900476
C63	C	0.226688	-0.284135	1.233810
C64	C	-0.774922	-1.510197	0.503502
C65	C	-0.441588	-1.176864	0.836835
C66	C	-0.108255	-0.843531	1.170168
C67	C	-0.891075	-1.510265	0.503528
C68	C	-0.557741	-1.176932	0.836862
C69	C	-0.224408	-0.843599	1.170195
C70	C	-0.942864	-1.446750	0.566992
C71	C	-0.609530	-1.113417	0.900325
C72	C	-0.276197	-0.780083	1.233659
C73	C	-1.062914	-1.446819	0.567021
C74	C	-0.729581	-1.113486	0.900354
C75	C	-0.396247	-0.780152	1.233688
C76	C	-0.230841	-1.510355	0.503563
C77	C	0.102492	-1.177022	0.836897
C78	C	0.435825	-0.843688	1.170230
C79	C	-0.114688	-1.510395	0.503581
C80	C	0.218645	-1.177061	0.836915
C81	C	0.551978	-0.843728	1.170248
C82	C	-0.503311	-1.510333	0.776091
C83	C	-0.169978	-1.177000	1.109425
C84	C	0.163355	-0.843666	1.442758
C85	C	-0.503269	-1.510363	0.892245
C86	C	-0.169935	-1.177030	1.225578
C87	C	0.163398	-0.843697	1.558911
C88	C	-0.503432	-0.782832	0.503542
C89	C	-0.170099	-0.449499	0.836876
C90	C	0.163234	-0.116165	1.170209
C91	C	-0.503419	-0.898985	0.503530
C92	C	-0.170086	-0.565652	0.836863
C93	C	0.163247	-0.232318	1.170197
C94	C	-0.503436	-1.510251	0.232011
C95	C	-0.170103	-1.176918	0.565344
C96	C	0.163231	-0.843584	0.898678
C97	C	-0.503185	-1.510423	0.115859
C98	C	-0.169851	-1.177090	0.449192
C99	C	0.163482	-0.843757	0.782525
C100	C	-0.439746	-1.573909	0.944046
C101	C	-0.106413	-1.240576	1.277379
C102	C	0.226921	-0.907242	1.610713
C103	C	-0.439700	-1.573942	1.064097
C104	C	-0.106367	-1.240608	1.397430
C105	C	0.226966	-0.907275	1.730763
H106	H	-0.557732	-0.943479	0.449062
H107	H	-0.224399	-0.610146	0.782395
H108	H	0.108934	-0.276813	1.115729
H109	H	-0.385678	-0.906301	0.621617
H110	H	-0.052344	-0.572967	0.954951
H111	H	0.280989	-0.239634	1.288284
O112	O	-0.950068	-1.582380	0.431601
O113	O	-0.616735	-1.249046	0.764934
O114	O	-0.283402	-0.915713	1.098267
H115	H	-0.999889	-1.535630	0.378452
H116	H	-0.666556	-1.202297	0.711785
H117	H	-0.333222	-0.868964	1.045118
H118	H	-0.385650	-1.115427	0.621585
H119	H	-0.052316	-0.782093	0.954919
H120	H	0.281017	-0.448760	1.288252
H121	H	-0.557575	-1.456020	1.071317
H122	H	-0.224242	-1.122687	1.404651
H123	H	0.109091	-0.789354	1.737984
O124	O	-0.575261	-1.438318	0.951212
O125	O	-0.241928	-1.104985	1.284545
O126	O	0.091405	-0.771652	1.617878
H127	H	-0.628377	-1.485126	1.000934
H128	H	-0.295043	-1.151793	1.334268
H129	H	0.038290	-0.818460	1.667601
H130	H	-0.898328	-1.392316	0.621301
H131	H	-0.564995	-1.058983	0.954634
H132	H	-0.231661	-0.725650	1.287968
H133	H	-0.557707	-1.078024	0.449042
H134	H	-0.224374	-0.744691	0.782375
H135	H	0.108960	-0.411358	1.115709
O136	O	-1.121895	-1.374774	0.638990
O137	O	-0.788561	-1.041440	0.972323
O138	O	-0.455228	-0.708107	1.305657
H139	H	-1.206931	-1.386124	0.627710
H140	H	-0.873597	-1.052791	0.961043
H141	H	-0.540264	-0.719457	1.294376
H142	H	-1.070159	-1.564780	0.449249
H143	H	-0.736825	-1.231446	0.782582
H144	H	-0.403492	-0.898113	1.115915
H145	H	-0.385392	-1.628285	0.899519
H146	H	-0.052059	-1.294951	1.232852
H147	H	0.281275	-0.961618	1.566185
O148	O	-0.367637	-1.645994	1.123092
O149	O	-0.034304	-1.312661	1.456425
O150	O	0.299030	-0.979327	1.789758
H151	H	-0.378895	-1.634699	1.208125
H152	H	-0.045562	-1.301365	1.541459
H153	H	0.287771	-0.968032	1.874792
