data_functionalizedCrystal
_audit_creation_method	'MofGen! by Chris Wilmer'
_symmetry_space_group_name_H-M	'P1'
_symmetry_Int_Tables_number	1
_symmetry_cell_setting	triclinic
loop_
_symmetry_equiv_pos_as_xyz
  x,y,z
_cell_length_a	12.837943
_cell_length_b	15.995350
_cell_length_c	11.295483
_cell_angle_alpha	94.097343
_cell_angle_beta	85.461227
_cell_angle_gamma	89.160657
loop_
_atom_site_label
_atom_site_type_symbol
_atom_site_fract_x
_atom_site_fract_y
_atom_site_fract_z
O1	O	1.382434	0.212589	-0.098992
O2	O	1.080629	0.201836	-0.099000
O3	O	1.239781	0.085983	-0.098995
O4	O	1.223282	0.328442	-0.098997
O5	O	1.225803	0.096142	0.099056
O6	O	1.066650	0.211995	0.099051
O7	O	1.368455	0.222747	0.099058
Cu8	Cu	1.216276	0.218299	0.117138
Cu9	Cu	1.232808	0.206285	-0.117080
O10	O	1.209303	0.338600	0.099053
C11	C	1.035019	0.203283	0.000024
C12	C	0.919942	0.192449	0.000021
C13	C	0.678983	0.322688	0.000037
C14	C	0.570857	0.312513	0.000035
C15	C	0.595562	0.161925	0.000024
C16	C	0.703688	0.172100	0.000026
C17	C	0.745394	0.252484	0.000031
C18	C	0.853523	0.262658	0.000024
C19	C	0.878225	0.112072	0.000021
C20	C	0.770100	0.101896	0.000019
C21	C	1.232110	0.059813	0.000028
C22	C	1.230066	-0.033301	0.000021
C23	C	1.222721	-0.371634	0.000025
C24	C	1.109407	-0.333266	-0.000422
C25	C	1.111421	-0.236390	0.000025
C26	C	1.226364	-0.203783	0.000023
C27	C	1.274288	-0.234599	0.113118
C28	C	1.271434	-0.331457	0.113213
C29	C	1.289672	-0.343180	-0.112007
C30	C	1.289750	-0.246314	-0.113502
C31	C	1.228429	-0.108920	0.000025
C32	C	1.220659	-0.466496	0.000031
C33	C	1.414065	0.221301	0.000031
C34	C	1.529143	0.232134	0.000027
C35	C	1.216974	0.364770	0.000027
C36	C	1.219019	0.457884	0.000026
N37	N	1.204657	0.226748	0.281874
N38	N	1.244436	0.197830	-0.281816
C39	C	1.328081	0.136958	0.531167
C40	C	1.319308	0.143350	0.655831
C41	C	1.178331	0.245919	0.655866
C42	C	1.187105	0.239527	0.531203
C43	C	1.261983	0.185046	0.468858
C44	C	1.270762	0.178659	0.344192
C45	C	1.129781	0.281223	0.344230
C46	C	1.121007	0.287615	0.468893
H47	H	0.712940	0.388139	0.000039
N48	N	1.395501	-0.219074	-0.122075
N49	N	1.426011	-0.167646	-0.044303
H50	H	1.500699	-0.148403	-0.050353
H51	H	1.389057	0.092603	0.480405
H52	H	0.516788	0.369680	0.000043
N53	N	1.212791	-0.353079	0.219248
N54	N	1.200078	-0.428387	0.238486
H55	H	1.158657	-0.443655	0.313374
N56	N	0.727511	0.019784	0.000000
N57	N	0.786823	-0.042891	-0.000013
H58	H	0.756749	-0.100886	-0.000030
N59	N	0.946080	0.040363	0.000006
N60	N	1.042619	0.049456	-0.000000
H61	H	1.090543	-0.001187	-0.000016
H62	H	1.331734	0.134300	0.293432
H63	H	1.073197	-0.215632	-0.081047
N64	N	1.379844	-0.208138	0.118391
N65	N	1.399803	-0.131774	0.123377
H66	H	1.474353	-0.113082	0.127097
H67	H	0.887477	0.328111	0.000030
N68	N	1.062277	0.330351	0.280563
N69	N	1.070127	0.324646	0.169258
H70	H	1.022458	0.359345	0.124291
H71	H	1.373130	0.104191	0.706560
H72	H	1.354288	-0.356802	0.118343
N73	N	1.101845	0.301552	0.719580
N74	N	1.094019	0.307242	0.830885
H75	H	1.040000	0.346532	0.875886
N76	N	1.218106	-0.197477	0.218695
N77	N	1.122579	-0.210045	0.237782
H78	H	1.082893	-0.183830	0.312343
N79	N	0.552932	0.079828	0.000032
N80	N	0.456389	0.070760	0.000039
H81	H	0.426278	0.012778	0.000044
H82	H	1.069828	-0.359572	-0.081525
N83	N	1.045692	-0.357177	0.100752
N84	N	1.083375	-0.402352	0.173185
H85	H	1.038379	-0.419242	0.244641
N86	N	1.250773	-0.378183	-0.219534
N87	N	1.173224	-0.424532	-0.214900
H88	H	1.145742	-0.449256	-0.290835
N89	N	1.245939	-0.221535	-0.218456
N90	N	1.168328	-0.172737	-0.209771
H91	H	1.137382	-0.155232	-0.283893
H92	H	1.061448	-0.207890	0.081232
H93	H	1.373295	-0.368312	-0.112769
H94	H	1.060039	0.331970	0.519669
