data_functionalizedCrystal
_audit_creation_method	'MofGen! by Chris Wilmer'
_symmetry_space_group_name_H-M	'P1'
_symmetry_Int_Tables_number	1
_symmetry_cell_setting	triclinic
loop_
_symmetry_equiv_pos_as_xyz
  x,y,z
_cell_length_a	10.686220
_cell_length_b	19.120786
_cell_length_c	10.686551
_cell_angle_alpha	83.348156
_cell_angle_beta	90.307919
_cell_angle_gamma	97.023401
loop_
_atom_site_label
_atom_site_type_symbol
_atom_site_fract_x
_atom_site_fract_y
_atom_site_fract_z
Zn1	Zn	1.958088	-0.172364	-0.550237
Zn2	Zn	1.931316	-0.300331	-0.331453
Zn3	Zn	1.730716	-0.190450	-0.355278
Zn4	Zn	1.737864	-0.298899	-0.557332
O5	O	1.839496	-0.240511	-0.448575
O6	O	2.130653	-0.182369	-0.508275
O7	O	1.890511	-0.293924	-0.158492
O8	O	1.769090	-0.089110	-0.388141
O9	O	2.110984	-0.276386	-0.347536
O10	O	1.936139	-0.075822	-0.531376
O11	O	1.743131	-0.213195	-0.175996
O12	O	1.555548	-0.211806	-0.395021
O13	O	1.781273	-0.273945	-0.732512
O14	O	1.560800	-0.291483	-0.543469
O15	O	1.943070	-0.180980	-0.727299
O16	O	1.897442	-0.399083	-0.354415
O17	O	1.755314	-0.398030	-0.520367
C18	C	1.512509	-0.253452	-0.472600
C19	C	1.372624	-0.259004	-0.482907
C20	C	1.824285	-0.424208	-0.435601
C21	C	1.817895	-0.502788	-0.430084
C22	C	1.901813	-0.532725	-0.502137
C23	C	1.895804	-0.606559	-0.496956
C24	C	1.805884	-0.650455	-0.419714
C25	C	1.721958	-0.620513	-0.347659
C26	C	1.727961	-0.546680	-0.352847
C27	C	1.783404	-0.873732	-0.400319
C28	C	1.777410	-0.947569	-0.395133
C29	C	1.951255	-0.933611	-0.544433
C30	C	1.957255	-0.859777	-0.549609
C31	C	1.873325	-0.829841	-0.477558
C32	C	1.799743	-0.725925	-0.414413
C33	C	1.879461	-0.754372	-0.482867
C34	C	2.167760	-0.227520	-0.424456
C35	C	2.307646	-0.221984	-0.414178
C36	C	1.865955	-0.225285	-0.776849
C37	C	1.877231	-0.218797	-0.916740
C38	C	1.854804	-0.056094	-0.461625
C39	C	1.861327	0.022493	-0.467186
C40	C	1.813217	-0.255624	-0.121576
C41	C	1.802202	-0.261903	0.018318
H42	H	1.359038	-0.186044	-0.347440
H43	H	1.975040	-0.496990	-0.565029
O44	O	1.977472	-0.635525	-0.566965
C45	C	2.058118	-0.580949	-0.636259
H46	H	2.062616	-0.530542	-0.588093
H47	H	2.020323	-0.570502	-0.735765
C48	C	2.185666	-0.665451	-0.701758
C49	C	2.191199	-0.603541	-0.642594
H50	H	2.267756	-0.679387	-0.705672
H51	H	2.131331	-0.702220	-0.655078
H52	H	2.154165	-0.656736	-0.784674
H53	H	2.222685	-0.612259	-0.559675
H54	H	2.245543	-0.566774	-0.689261
O55	O	1.964331	-0.168914	-0.978007
C56	C	2.085929	-0.180857	-0.935640
H57	H	2.084713	-0.238749	-0.894957
H58	H	2.115898	-0.145141	-0.859698
C59	C	2.181410	-0.092843	-1.096871
C60	C	2.179918	-0.163949	-1.046913
H61	H	2.239389	-0.082410	-1.165507
H62	H	2.099488	-0.084794	-1.125412
H63	H	2.206381	-0.063088	-1.033575
H64	H	2.154933	-0.193703	-1.110204
H65	H	2.261839	-0.172002	-1.018385
H66	H	1.726533	-0.761673	-0.351519
O67	O	2.044650	-0.817242	-0.624745
C68	C	2.117457	-0.859499	-0.687202
H69	H	2.061969	-0.913993	-0.691621
H70	H	2.208725	-0.865665	-0.633604
C71	C	2.216804	-0.756783	-0.816434
C72	C	2.148648	-0.823712	-0.821871
H73	H	2.236050	-0.734708	-0.899502
H74	H	2.167757	-0.728313	-0.774353
H75	H	2.292853	-0.761931	-0.771763
H76	H	2.072594	-0.818563	-0.866528
H77	H	2.197684	-0.852181	-0.863964
O78	O	1.690004	-0.990286	-0.320271
C79	C	1.610948	-1.032915	-0.394838
H80	H	1.662057	-1.037748	-0.486224
H81	H	1.521079	-1.007569	-0.417438
C82	C	1.514180	-1.101252	-0.210073
C83	C	1.576957	-1.107193	-0.322310
H84	H	1.493207	-1.147070	-0.165334
H85	H	1.567438	-1.072531	-0.159835
H86	H	1.439297	-1.080128	-0.228923
H87	H	1.651846	-1.128309	-0.303459
H88	H	1.523711	-1.135920	-0.372544
O89	O	2.032595	-0.962728	-0.614572
C90	C	1.963936	-1.004541	-0.698042
H91	H	1.867234	-0.985904	-0.714571
H92	H	1.951943	-1.062482	-0.655506
C93	C	2.154538	-1.020011	-0.804047
C94	C	2.035771	-0.997117	-0.824357
H95	H	2.198850	-1.015434	-0.881963
H96	H	2.200796	-0.991842	-0.747809
H97	H	2.144527	-1.068294	-0.768598
H98	H	2.045784	-0.948832	-0.859791
H99	H	1.989516	-1.025277	-0.880604
O100	O	1.311291	-0.301776	-0.562664
C101	C	1.245127	-0.260801	-0.652423
H102	H	1.290063	-0.203198	-0.661399
H103	H	1.142611	-0.264041	-0.620941
C104	C	1.195446	-0.360224	-0.769845
C105	C	1.250643	-0.289476	-0.780878
H106	H	1.198841	-0.377914	-0.849082
H107	H	1.240017	-0.387831	-0.709371
H108	H	1.110020	-0.362915	-0.743606
H109	H	1.336070	-0.286787	-0.807101
H110	H	1.206085	-0.261869	-0.841360
O111	O	1.701834	-0.844775	-0.330192
C112	C	1.621173	-0.899353	-0.260922
H113	H	1.668105	-0.950116	-0.249137
H114	H	1.528611	-0.908896	-0.313392
C115	C	1.537059	-0.815158	-0.144770
C116	C	1.594706	-0.877505	-0.130286
H117	H	1.520727	-0.801681	-0.064190
H118	H	1.591398	-0.778387	-0.191442
H119	H	1.459931	-0.823119	-0.188500
H120	H	1.671839	-0.869540	-0.086572
H121	H	1.540379	-0.914274	-0.083604
O122	O	1.634495	-0.663048	-0.272602
C123	C	1.561734	-0.620789	-0.210097
H124	H	1.565768	-0.565935	-0.265668
H125	H	1.600836	-0.615534	-0.111708
C126	C	1.419029	-0.723199	-0.131404
C127	C	1.423975	-0.655827	-0.199664
H128	H	1.334054	-0.744813	-0.124962
H129	H	1.468051	-0.751670	-0.173510
H130	H	1.451621	-0.718811	-0.049420
H131	H	1.391398	-0.660217	-0.281650
H132	H	1.374943	-0.627357	-0.157570
O133	O	1.646330	-0.517560	-0.283046
C134	C	1.574251	-0.474767	-0.363616
H135	H	1.572581	-0.492719	-0.461747
H136	H	1.618064	-0.417047	-0.369061
C137	C	1.440638	-0.459696	-0.191184
C138	C	1.438578	-0.481748	-0.311708
H139	H	1.356950	-0.463998	-0.159164
H140	H	1.489201	-0.488524	-0.136901
H141	H	1.477155	-0.411597	-0.195738
H142	H	1.402077	-0.529848	-0.307150
H143	H	1.390006	-0.452927	-0.365990
O144	O	1.715251	-0.311917	-0.920540
C145	C	1.647737	-0.350683	-1.009005
H146	H	1.706546	-0.346788	-1.098788
H147	H	1.555406	-0.327941	-1.031787
C148	C	1.547040	-0.433794	-0.843308
C149	C	1.619275	-0.429015	-0.953578
H150	H	1.529477	-0.482112	-0.809118
H151	H	1.592521	-0.407676	-0.783707
H152	H	1.470105	-0.414838	-0.862309
H153	H	1.696213	-0.447962	-0.934573
H154	H	1.573806	-0.455138	-1.013175
H155	H	1.952670	-0.718630	-0.545762
