data_functionalizedCrystal
_audit_creation_method	'MofGen! by Chris Wilmer'
_symmetry_space_group_name_H-M	'P1'
_symmetry_Int_Tables_number	1
_symmetry_cell_setting	triclinic
loop_
_symmetry_equiv_pos_as_xyz
  x,y,z
_cell_length_a	25.639243
_cell_length_b	10.686285
_cell_length_c	10.686551
_cell_angle_alpha	99.084519
_cell_angle_beta	94.399423
_cell_angle_gamma	85.634099
loop_
_atom_site_label
_atom_site_type_symbol
_atom_site_fract_x
_atom_site_fract_y
_atom_site_fract_z
Zn1	Zn	0.835287	-0.450060	0.679151
Zn2	Zn	0.835245	-0.678640	0.450649
Zn3	Zn	0.741621	-0.466425	0.466897
Zn4	Zn	0.754083	-0.662267	0.662839
O5	O	0.791559	-0.564348	0.564884
O6	O	0.908448	-0.480384	0.648867
O7	O	0.817592	-0.664190	0.275173
O8	O	0.748848	-0.286632	0.508680
O9	O	0.908417	-0.648321	0.480987
O10	O	0.817664	-0.274609	0.664622
O11	O	0.748807	-0.508277	0.287110
O12	O	0.670108	-0.492401	0.492862
O13	O	0.770089	-0.620416	0.842634
O14	O	0.679264	-0.636285	0.636819
O15	O	0.829749	-0.464508	0.854619
O16	O	0.829677	-0.854090	0.465170
O17	O	0.770048	-0.842061	0.621064
C18	C	0.801225	-0.894128	0.539611
C19	C	0.805409	-1.035207	0.528842
C20	C	0.655715	-0.564343	0.564834
C21	C	0.597602	-0.564369	0.564841
C22	C	0.237258	-0.477020	0.652425
C23	C	0.182654	-0.477019	0.652433
O24	O	0.154431	-0.402732	0.726838
N25	N	0.155321	-0.564341	0.564919
C26	C	0.182595	-0.651663	0.477384
O27	O	0.154332	-0.725937	0.402947
C28	C	0.237197	-0.651658	0.477371
C29	C	0.264528	-0.564338	0.564898
C30	C	0.264588	-0.389706	0.739944
C31	C	0.319189	-0.389710	0.739937
C32	C	0.346459	-0.477027	0.652411
C33	C	0.319128	-0.564341	0.564892
C34	C	0.264470	-0.738973	0.389831
C35	C	0.319076	-0.738959	0.389825
C36	C	0.346407	-0.651639	0.477352
C37	C	0.400999	-0.651662	0.477359
N38	N	0.428331	-0.564340	0.564872
C39	C	0.401061	-0.477022	0.652398
C40	C	0.067925	-0.651666	0.477416
C41	C	0.013324	-0.651678	0.477434
C42	C	0.013386	-0.477032	0.652481
C43	C	0.067989	-0.477027	0.652468
C44	C	0.095258	-0.564343	0.564929
C45	C	0.515726	-0.477037	0.652378
C46	C	0.570332	-0.477052	0.652367
C47	C	0.570264	-0.651693	0.477316
C48	C	0.515664	-0.651683	0.477330
C49	C	0.488396	-0.564345	0.564867
O50	O	0.429256	-0.725907	0.402987
O51	O	0.429330	-0.402750	0.726812
C52	C	0.927934	-0.564353	0.564935
C53	C	0.986049	-0.564356	0.564956
C54	C	0.801313	-0.538810	0.895972
C55	C	0.805470	-0.527928	1.037062
C56	C	0.781871	-0.233277	0.590283
C57	C	0.777742	-0.092195	0.601107
C58	C	0.781870	-0.589694	0.235091
C59	C	0.777804	-0.600219	0.094029
H60	H	0.750855	-1.033057	0.671216
H61	H	0.592582	-0.405944	0.723647
H62	H	0.832294	-1.094353	0.458720
N63	N	-0.014598	-0.740880	0.388051
N64	N	-0.041382	-0.818399	0.426374
H65	H	-0.061102	-0.881396	0.363242
H66	H	0.493531	-0.405914	0.723655
H67	H	0.341436	-0.318603	0.811209
N68	N	0.236746	-0.300491	0.829360
N69	N	0.261165	-0.222543	0.907484
H70	H	0.241505	-0.159532	0.970646
H71	H	0.090238	-0.405920	0.723739
N72	N	0.095779	-0.740895	0.388020
N73	N	0.129932	-0.818418	0.426338
H74	H	0.149601	-0.881436	0.363203
N75	N	0.236570	-0.828183	0.300417
N76	N	0.260935	-0.906125	0.222279
H77	H	0.241232	-0.969135	0.159124
H78	H	0.341275	-0.810063	0.318536
N79	N	-0.014483	-0.387847	0.741884
N80	N	-0.063235	-0.387872	0.741870
H81	H	-0.082920	-0.324891	0.805007
N82	N	0.487752	-0.740898	0.387930
N83	N	0.512110	-0.818857	0.309793
H84	H	0.492401	-0.881861	0.246645
H85	H	0.592477	-0.722787	0.406056
N86	N	0.744104	-0.688309	1.019797
N87	N	0.740662	-0.697324	0.901444
H88	H	0.716861	-0.759538	0.849009
N89	N	0.839179	-0.439850	1.111299
N90	N	0.842625	-0.430839	1.229651
H91	H	0.866432	-0.368636	1.282084
