data_functionalizedCrystal
_audit_creation_method	'MofGen! by Chris Wilmer'
_symmetry_space_group_name_H-M	'P1'
_symmetry_Int_Tables_number	1
_symmetry_cell_setting	triclinic
loop_
_symmetry_equiv_pos_as_xyz
  x,y,z
_cell_length_a	12.837943
_cell_length_b	7.681481
_cell_length_c	8.559649
_cell_angle_alpha	85.069100
_cell_angle_beta	82.303802
_cell_angle_gamma	96.334007
loop_
_atom_site_label
_atom_site_type_symbol
_atom_site_fract_x
_atom_site_fract_y
_atom_site_fract_z
O1	O	1.331910	-0.146382	0.423878
O2	O	1.031718	-0.146393	0.403605
O3	O	1.208261	-0.146385	0.185166
O4	O	1.155367	-0.146391	0.642317
O5	O	1.229996	0.146474	0.158212
O6	O	1.053453	0.146465	0.376652
O7	O	1.353645	0.146477	0.396924
Zn8	Zn	1.207000	0.192969	0.382508
Zn9	Zn	1.178363	-0.192885	0.418021
O10	O	1.177102	0.146468	0.615363
C11	C	1.004510	0.000035	0.383280
C12	C	0.891059	0.000030	0.362854
N13	N	1.226551	0.456304	0.358272
N14	N	1.158821	-0.456221	0.442246
C15	C	0.630553	0.000052	0.608412
C16	C	0.523954	0.000049	0.589227
C17	C	0.571261	0.000034	0.305300
C18	C	0.677860	0.000037	0.324485
C19	C	0.707501	0.000043	0.476046
C20	C	0.814101	0.000034	0.495230
C21	C	0.861407	0.000031	0.211304
C22	C	0.754808	0.000028	0.192119
C23	C	1.380853	0.000045	0.417250
C24	C	1.494303	0.000038	0.437677
C25	C	1.223137	0.000041	0.112770
C26	C	1.235068	0.000032	-0.062793
C27	C	1.162226	0.000038	0.687760
C28	C	1.150294	0.000036	0.863323
H29	H	0.838232	0.000042	0.618638
N30	N	1.067226	0.444177	0.555761
H31	H	1.024098	0.530420	0.609232
H32	H	1.095307	0.367669	0.638459
H33	H	1.295701	0.531513	0.272568
N34	N	1.042059	0.000058	-0.042572
H35	H	1.048590	0.000056	0.073711
H36	H	0.994525	-0.108501	-0.059318
N37	N	1.343313	0.000064	-0.156909
H38	H	1.336785	0.000078	-0.273194
H39	H	1.374727	-0.108502	-0.120187
H40	H	0.924070	0.000012	0.103522
N41	N	0.722820	0.000014	0.028667
H42	H	0.743650	-0.108556	-0.020057
H43	H	0.759776	0.108642	-0.039941
N44	N	0.440943	0.000055	0.731974
H45	H	0.403725	0.108621	0.720324
H46	H	0.475958	-0.000003	0.830835
N47	N	0.662531	0.000031	0.771872
H48	H	0.597607	0.000026	0.852818
H49	H	0.713788	0.108596	0.776028
H50	H	0.547118	0.000174	0.181893
