data_functionalizedCrystal
_audit_creation_method	'MofGen! by Chris Wilmer'
_symmetry_space_group_name_H-M	'P1'
_symmetry_Int_Tables_number	1
_symmetry_cell_setting	triclinic
loop_
_symmetry_equiv_pos_as_xyz
  x,y,z
_cell_length_a	14.044209
_cell_length_b	17.699077
_cell_length_c	16.776229
_cell_angle_alpha	90.007527
_cell_angle_beta	89.991211
_cell_angle_gamma	88.234265
loop_
_atom_site_label
_atom_site_type_symbol
_atom_site_fract_x
_atom_site_fract_y
_atom_site_fract_z
O1	O	-0.119823	-1.012331	0.066283
O2	O	-0.135422	-0.793028	0.066287
O3	O	0.010354	-0.899388	0.066274
O4	O	-0.265600	-0.905970	0.066296
O5	O	0.010364	-0.899403	-0.066303
O6	O	-0.135413	-0.793043	-0.066289
O7	O	-0.119814	-1.012346	-0.066294
Zn8	Zn	-0.127612	-0.902697	-0.087341
Zn9	Zn	-0.127624	-0.902677	0.087334
O10	O	-0.265590	-0.905985	-0.066280
C11	C	0.045667	-0.896514	-0.000016
C12	C	0.150873	-0.887919	-0.000019
C13	C	-0.134859	-0.764800	-0.000000
C14	C	-0.133185	-0.680666	0.000001
C15	C	-0.120377	-1.040574	-0.000004
C16	C	-0.122051	-1.124708	-0.000000
C17	C	0.343498	-0.872205	-0.000012
C18	C	0.401273	-0.933171	-0.000012
C19	C	0.508456	-0.924428	-0.000008
C20	C	0.236304	-0.880947	-0.000016
C21	C	0.699097	-0.908861	0.000005
C22	C	0.593892	-0.917461	-0.000005
N23	N	-0.127603	-0.902715	-0.206552
C24	C	-0.132392	-0.641152	-0.072268
C25	C	-0.130804	-0.562100	-0.072268
C26	C	-0.130016	-0.522563	-0.000000
C27	C	-0.130807	-0.562082	0.072274
C28	C	-0.132389	-0.641133	0.072274
C29	C	-0.124430	-0.243279	0.072275
C30	C	-0.122851	-0.164222	0.072269
C31	C	-0.122845	-0.164246	-0.072268
C32	C	-0.124426	-0.243297	-0.072267
C33	C	-0.125212	-0.282809	0.000006
C34	C	-0.126932	-0.368527	0.000006
C35	C	-0.128303	-0.436847	0.000000
N36	N	-0.127626	-0.902663	0.206546
C37	C	-0.063188	-0.949916	0.751704
C38	C	-0.063187	-0.949906	0.668252
C39	C	-0.127607	-0.902700	0.626545
C40	C	-0.192025	-0.855494	0.668294
C41	C	-0.192021	-0.855500	0.751745
C42	C	-0.192045	-0.855467	0.331747
C43	C	-0.192046	-0.855466	0.248291
C44	C	-0.063211	-0.949874	0.248254
C45	C	-0.063206	-0.949880	0.331705
C46	C	-0.127621	-0.902671	0.373447
C47	C	-0.127620	-0.902681	0.463935
C48	C	-0.127613	-0.902693	0.536058
H49	H	0.370239	-0.991933	0.000041
N50	N	-0.257843	-0.807239	0.374366
N51	N	-0.315353	-0.765095	0.337115
H52	H	-0.361826	-0.731031	0.367217
N53	N	0.382406	-0.798487	-0.000030
N54	N	0.328152	-0.741159	-0.000042
H55	H	0.355639	-0.689095	-0.000060
N56	N	-0.133218	-0.681522	-0.146096
N57	N	-0.132516	-0.646229	-0.210616
H58	H	-0.133102	-0.674737	-0.262761
N59	N	-0.257847	-0.807248	0.205674
N60	N	-0.316711	-0.835132	0.159111
H61	H	-0.363181	-0.801081	0.129011
N62	N	-0.257816	-0.807271	0.625682
N63	N	-0.257813	-0.807271	0.551173
H64	H	-0.304280	-0.773214	0.521078
N65	N	-0.129985	-0.521750	-0.146096
N66	N	-0.130691	-0.557060	-0.210616
H67	H	-0.130111	-0.528564	-0.262761
H68	H	-0.125072	-0.275484	-0.131116
H69	H	-0.122209	-0.132033	0.131122
N70	N	-0.122043	-0.123872	-0.146089
N71	N	-0.120632	-0.053292	-0.146084
H72	H	-0.120070	-0.024777	-0.198219
N73	N	0.002600	-0.998079	0.205604
N74	N	0.061462	-0.970184	0.159038
H75	H	0.107940	-1.004228	0.128917
H76	H	-0.125067	-0.275441	0.131124
N77	N	0.002641	-0.998086	0.625600
N78	N	0.002662	-0.998049	0.551092
H79	H	0.049172	-1.032063	0.520967
N80	N	0.002608	-0.998104	0.374291
N81	N	0.090228	-0.991291	0.364955
H82	H	0.136714	-1.025351	0.395028
N83	N	-0.129993	-0.521687	0.146088
N84	N	-0.128581	-0.451107	0.146079
H85	H	-0.128008	-0.422578	0.198212
H86	H	-0.133037	-0.673304	0.131122
H87	H	-0.010733	-0.988361	0.785657
H88	H	-0.244473	-0.817064	0.785732
