data_functionalizedCrystal
_audit_creation_method	'MofGen! by Chris Wilmer'
_symmetry_space_group_name_H-M	'P1'
_symmetry_Int_Tables_number	1
_symmetry_cell_setting	triclinic
loop_
_symmetry_equiv_pos_as_xyz
  x,y,z
_cell_length_a	8.559649
_cell_length_b	16.776229
_cell_length_c	17.699092
_cell_angle_alpha	89.995030
_cell_angle_beta	76.532516
_cell_angle_gamma	89.992917
loop_
_atom_site_label
_atom_site_type_symbol
_atom_site_fract_x
_atom_site_fract_y
_atom_site_fract_z
O1	O	2.120232	-0.066276	-0.025680
O2	O	1.654879	-0.066279	0.013416
O3	O	1.900696	-0.066275	-0.117073
O4	O	1.874415	-0.066279	0.104809
O5	O	1.900663	0.066301	-0.117079
O6	O	1.654846	0.066298	0.013410
O7	O	2.120199	0.066301	-0.025686
Zn8	Zn	1.887517	0.087349	-0.006138
Zn9	Zn	1.887560	-0.087327	-0.006131
O10	O	1.874382	0.066297	0.104804
C11	C	1.595321	0.000009	0.016376
C12	C	1.417907	0.000008	0.025195
N13	N	1.887500	0.206560	-0.006144
N14	N	1.887591	-0.206538	-0.006132
C15	C	2.179757	0.000011	-0.028646
C16	C	2.357171	0.000008	-0.037465
C17	C	1.899735	0.000012	-0.145219
C18	C	1.896904	0.000008	-0.229075
C19	C	1.996381	0.248279	-0.063906
C20	C	1.996390	0.331731	-0.063907
C21	C	1.887524	0.373463	-0.006143
C22	C	1.778631	0.331738	0.051622
C23	C	1.778616	0.248288	0.051619
C24	C	1.778689	0.668285	0.051633
C25	C	1.778716	0.751742	0.051633
C26	C	1.996463	0.751729	-0.063893
C27	C	1.996447	0.668278	-0.063895
C28	C	1.887550	0.626561	-0.006134
C29	C	1.887540	0.536072	-0.006134
C30	C	1.887541	0.463950	-0.006139
C31	C	1.895595	-0.072260	-0.268463
C32	C	1.892924	-0.072261	-0.347253
C33	C	1.891573	0.000007	-0.386655
C34	C	1.892877	0.072281	-0.347260
C35	C	1.895537	0.072281	-0.268470
C36	C	1.882150	0.072282	-0.665011
C37	C	1.879495	0.072276	-0.743807
C38	C	1.879536	-0.072260	-0.743794
C39	C	1.882196	-0.072260	-0.665004
C40	C	1.883491	0.000013	-0.625615
C41	C	1.886385	0.000013	-0.540182
C42	C	1.888691	0.000008	-0.472088
C43	C	1.875342	0.000009	0.132949
C44	C	1.878174	0.000007	0.216805
H45	H	1.440898	0.000005	-0.097858
C46	C	1.304800	0.000005	0.106787
H47	H	1.196394	0.000009	0.102213
H48	H	1.324119	-0.046226	0.134244
H49	H	1.324092	0.046245	0.134236
C50	C	1.883688	-0.151753	-0.621664
H51	H	1.885475	-0.141402	-0.569100
H52	H	1.790101	-0.181451	-0.623387
H53	H	1.976437	-0.181443	-0.645763
C54	C	1.883603	0.151779	-0.621696
H55	H	1.882440	0.194817	-0.656451
H56	H	1.791481	0.154791	-0.579773
H57	H	1.977817	0.154781	-0.602151
C58	C	2.116133	0.202381	-0.127448
H59	H	2.180968	0.239182	-0.161853
H60	H	2.182547	0.169814	-0.104068
H61	H	2.058750	0.169840	-0.155639
C62	C	1.658831	0.377637	0.115143
H63	H	1.593959	0.340837	0.149533
H64	H	1.716151	0.410193	0.143345
H65	H	1.592434	0.410189	0.091731
H66	H	2.085047	0.365698	-0.110941
H67	H	1.891768	0.131123	-0.379346
C68	C	1.658854	0.202397	0.115159
H69	H	1.594029	0.239202	0.149566
H70	H	1.592431	0.169853	0.091774
H71	H	1.716223	0.169833	0.143348
H72	H	2.085101	0.634302	-0.110930
H73	H	1.896703	-0.131110	-0.236389
H74	H	1.891864	-0.131109	-0.379321
H75	H	1.690024	0.634326	0.098666
H76	H	2.085128	0.785704	-0.110928
H77	H	1.878473	-0.131109	-0.775873
C78	C	1.658955	0.797650	0.115172
H79	H	1.674577	0.853324	0.106903
H80	H	1.552326	0.783991	0.113116
H81	H	1.676107	0.783964	0.164697
H82	H	1.878391	0.131129	-0.775885
C83	C	1.896981	0.151776	-0.225143
H84	H	1.895809	0.194817	-0.259894
H85	H	1.804855	0.154779	-0.183221
H86	H	1.991191	0.154782	-0.205595
