data_functionalizedCrystal
_audit_creation_method	'MofGen! by Chris Wilmer'
_symmetry_space_group_name_H-M	'P1'
_symmetry_Int_Tables_number	1
_symmetry_cell_setting	triclinic
loop_
_symmetry_equiv_pos_as_xyz
  x,y,z
_cell_length_a	25.639240
_cell_length_b	18.101398
_cell_length_c	18.101389
_cell_angle_alpha	90.014346
_cell_angle_beta	90.015431
_cell_angle_gamma	90.030211
loop_
_atom_site_label
_atom_site_type_symbol
_atom_site_fract_x
_atom_site_fract_y
_atom_site_fract_z
Zn1	Zn	-0.208231	1.132116	0.418657
Zn2	Zn	0.291769	1.632116	0.918657
Zn3	Zn	-0.295653	1.132010	0.294822
Zn4	Zn	0.204347	1.632010	0.794822
Zn5	Zn	-0.208230	1.008275	0.294840
Zn6	Zn	0.291770	1.508275	0.794840
Zn7	Zn	-0.295635	1.008224	0.418632
Zn8	Zn	0.204365	1.508224	0.918632
O9	O	-0.251937	1.070156	0.356738
O10	O	0.248063	1.570156	0.856738
O11	O	-0.219836	1.235735	0.402233
O12	O	0.280164	1.735735	0.902233
O13	O	-0.284063	1.115573	0.191191
O14	O	0.215937	1.615573	0.691191
O15	O	-0.135065	1.024769	0.311282
O16	O	0.364935	1.524769	0.811282
O17	O	-0.284064	1.235657	0.311252
O18	O	0.215936	1.735657	0.811252
O19	O	-0.135066	1.115754	0.402250
O20	O	0.364934	1.615754	0.902250
O21	O	-0.219834	1.024666	0.191204
O22	O	0.280166	1.524666	0.691204
O23	O	-0.219817	0.904635	0.311258
O24	O	0.280183	1.404635	0.811258
O25	O	-0.284033	1.024681	0.522268
O26	O	0.215967	1.524681	1.022268
O27	O	-0.284032	0.904598	0.402208
O28	O	0.215968	1.404598	0.902208
O29	O	-0.219819	1.115704	0.522287
O30	O	0.280181	1.615704	1.022287
O31	O	-0.368816	1.115523	0.311228
O32	O	0.131184	1.615523	0.811228
O33	O	-0.368802	1.024578	0.402190
O34	O	0.131198	1.524578	0.902190
C35	C	-0.251923	0.877746	0.356732
C36	C	0.248077	1.377746	0.856732
C37	C	-0.251929	0.795431	0.356748
C38	C	0.248071	1.295431	0.856748
C39	C	-0.251939	0.644723	0.356747
C40	C	0.248061	1.144723	0.856747
C41	C	-0.292404	0.613370	0.413881
C42	C	0.207596	1.113370	0.913881
C43	C	-0.292568	0.527752	0.413712
C44	C	0.207432	1.027752	0.913712
C45	C	-0.251949	0.496340	0.356747
C46	C	0.248051	0.996340	0.856747
C47	C	-0.266643	0.527393	0.278606
C48	C	0.233357	1.027393	0.778606
C49	C	-0.266931	0.613038	0.278936
C50	C	0.233069	1.113038	0.778936
C51	C	-0.196680	0.613203	0.377071
C52	C	0.303320	1.113203	0.877071
C53	C	-0.196983	0.527553	0.378792
C54	C	0.303017	1.027553	0.878792
C55	C	-0.251953	0.412481	0.356742
C56	C	0.248047	0.912481	0.856742
C57	C	-0.251936	0.728583	0.356746
C58	C	0.248064	1.228583	0.856746
C59	C	-0.387780	1.070054	0.356721
C60	C	0.112220	1.570054	0.856721
C61	C	-0.445894	1.070078	0.356738
C62	C	0.054106	1.570078	0.856738
C63	C	-0.697036	1.117528	0.404153
C64	C	-0.197036	1.617528	0.904153
C65	C	-0.642432	1.117506	0.404147
C66	C	-0.142432	1.617506	0.904147
O67	O	-0.614152	1.157764	0.444437
O68	O	-0.114152	1.657764	0.944437
N69	N	-0.615168	1.070159	0.356747
N70	N	-0.115168	1.570159	0.856747
C71	C	-0.642511	1.022836	0.309344
C72	C	-0.142511	1.522836	0.809344
O73	O	-0.614306	0.982563	0.269026
O74	O	-0.114306	1.482563	0.769026
C75	C	-0.697114	1.022863	0.309347
C76	C	-0.197114	1.522863	0.809347
C77	C	-0.724375	1.070208	0.356755
C78	C	-0.224375	1.570208	0.856755
C79	C	-0.724298	1.164869	0.451557
C80	C	-0.224298	1.664869	0.951557
C81	C	-0.778899	1.164891	0.451564
C82	C	-0.278899	1.664891	0.951564
C83	C	-0.806238	1.117570	0.404166
C84	C	-0.306238	1.617570	0.904166
C85	C	-0.778976	1.070229	0.356762
C86	C	-0.278976	1.570229	0.856762
C87	C	-0.724456	0.975545	0.261941
C88	C	-0.224456	1.475545	0.761941
C89	C	-0.779063	0.975576	0.261947
C90	C	-0.279063	1.475576	0.761947
C91	C	-0.806324	1.022921	0.309355
C92	C	-0.306324	1.522921	0.809355
C93	C	-0.860915	1.022929	0.309370
C94	C	-0.360915	1.522929	0.809370
N95	N	-0.888180	1.070276	0.356770
N96	N	-0.388180	1.570276	0.856770
C97	C	-0.860841	1.117597	0.404168
C98	C	-0.360841	1.617597	0.904168
C99	C	-0.527840	1.022785	0.309342
C100	C	-0.027840	1.522785	0.809342
C101	C	-0.473238	1.022754	0.309343
C102	C	0.026762	1.522754	0.809343
C103	C	-0.473163	1.117425	0.404145
C104	C	0.026837	1.617425	0.904145
C105	C	-0.527766	1.117451	0.404147
C106	C	-0.027766	1.617451	0.904147
C107	C	-0.555104	1.070132	0.356742
C108	C	-0.055104	1.570132	0.856742
C109	C	-0.975506	1.117637	0.404179
C110	C	-0.475506	1.617637	0.904179
C111	C	-1.030111	1.117652	0.404183
C112	C	-0.530111	1.617652	0.904183
C113	C	-1.030181	1.022984	0.309378
C114	C	-0.530181	1.522984	0.809378
C115	C	-0.975581	1.022966	0.309376
C116	C	-0.475581	1.522966	0.809376
C117	C	-0.948244	1.070299	0.356779
C118	C	-0.448244	1.570299	0.856779
O119	O	-0.889230	0.982693	0.269099
O120	O	-0.389230	1.482693	0.769099
O121	O	-0.889052	1.157871	0.444473
O122	O	-0.389052	1.657871	0.944473
C123	C	-0.115564	1.070279	0.356771
C124	C	0.384436	1.570279	0.856771
C125	C	-0.057450	1.070331	0.356785
C126	C	0.442550	1.570331	0.856785
C127	C	-0.251924	1.070199	0.549900
C128	C	0.248076	1.570199	1.049900
C129	C	-0.251918	1.070217	0.632214
C130	C	0.248082	1.570217	1.132214
C131	C	-0.251952	1.263318	0.356743
C132	C	0.248048	1.763318	0.856743
C133	C	-0.251958	1.345632	0.356746
C134	C	0.248042	1.845632	0.856746
C135	C	-0.251913	1.070156	0.164327
C136	C	0.248087	1.570156	0.664327
C137	C	-0.251771	1.070281	0.082013
C138	C	0.248229	1.570281	0.582013
C139	C	-0.251820	1.070260	0.931305
C140	C	0.248180	1.570260	1.431305
C141	C	-0.292094	1.012794	0.899968
C142	C	0.207906	1.512794	1.399968
C143	C	-0.292281	1.012949	0.814350
C144	C	0.207719	1.512949	1.314350
C145	C	-0.251869	1.070238	0.782922
C146	C	0.248131	1.570238	1.282922
C147	C	-0.266827	1.148263	0.814015
C148	C	0.233173	1.648263	1.314015
C149	C	-0.267091	1.147943	0.899661
C150	C	0.232909	1.647943	1.399661
C151	C	-0.196499	1.050380	0.899728
C152	C	0.303501	1.550380	1.399728
C153	C	-0.196819	1.048644	0.814078
C154	C	0.303181	1.548644	1.314078
C155	C	-0.251896	1.070231	0.699063
C156	C	0.248104	1.570231	1.199063
C157	C	-0.251795	1.070273	1.015164
C158	C	0.248205	1.570273	1.515164
H159	H	-0.333119	0.634857	0.400561
H160	H	0.166881	1.134857	0.900561
H161	H	-0.185898	0.507261	0.436299
H162	H	0.314102	1.007261	0.936299
O163	O	-0.694822	1.215920	0.502683
O164	O	-0.194822	1.715920	1.002683
H165	H	-0.669954	1.182750	0.540337
H166	H	-0.169954	1.682750	1.040337
O167	O	-0.557171	1.168516	0.455277
O168	O	-0.057171	1.668516	0.955277
H169	H	-0.546659	1.226641	0.442621
H170	H	-0.046659	1.726641	0.942621
O171	O	-0.346811	0.500568	0.395843
O172	O	0.153189	1.000568	0.895843
H173	H	-0.361584	0.466532	0.442352
H174	H	0.138416	0.966532	0.942352
H175	H	-0.238415	1.192230	0.793660
H176	H	0.261585	1.692230	1.293660
O177	O	-0.181866	0.972593	0.787149
O178	O	0.318134	1.472593	1.287149
H179	H	-0.213505	0.950261	0.751720
H180	H	0.286495	1.450261	1.251720
O181	O	-0.154964	1.100054	0.785753
O182	O	0.345036	1.600054	1.285753
H183	H	-0.135866	1.128089	0.833128
H184	H	0.364134	1.628089	1.333128
O185	O	-0.156748	1.105815	0.926574
O186	O	0.343252	1.605815	1.426574
H187	H	-0.176263	1.147327	0.962233
H188	H	0.323737	1.647327	1.462233
O189	O	-0.443672	1.168474	0.455262
O190	O	0.056328	1.668474	0.955262
H191	H	-0.401124	1.160505	0.447285
H192	H	0.098876	1.660505	0.947285
H193	H	-0.801318	0.937043	0.223342
H194	H	-0.301318	1.437043	0.723342
O195	O	-0.946030	1.168691	0.455304
O196	O	-0.446030	1.668691	0.955304
H197	H	-0.921159	1.135520	0.492953
H198	H	-0.421159	1.635520	0.992953
H199	H	-0.306838	1.165408	0.792573
H200	H	0.193162	1.665408	1.292573
O201	O	-0.156748	0.640083	0.321965
O202	O	0.343252	1.140083	0.821965
H203	H	-0.126215	0.672306	0.351185
H204	H	0.373785	1.172306	0.851185
O205	O	-0.320427	0.639462	0.256189
O206	O	0.179573	1.139462	0.756189
H207	H	-0.345848	0.591070	0.245060
H208	H	0.154152	1.091070	0.745060
H209	H	-0.283403	0.506757	0.471643
H210	H	0.216597	1.006757	0.971643
H211	H	-0.238717	0.633778	0.234906
H212	H	0.261283	1.133778	0.734906
H213	H	-1.052450	0.984455	0.270790
H214	H	-0.552450	1.484455	0.770790
H215	H	-0.306589	0.505913	0.261136
H216	H	0.193411	1.005913	0.761136
H217	H	-0.550095	0.984245	0.270741
H218	H	-0.050095	1.484245	0.770741
H219	H	-0.238073	0.507047	0.234867
H220	H	0.261927	1.007047	0.734867
H221	H	-0.283345	0.633991	0.471992
H222	H	0.216655	1.133991	0.971992
H223	H	-0.165243	0.506173	0.340245
H224	H	0.334757	1.006173	0.840245
O225	O	-0.443836	0.971690	0.258210
O226	O	0.056164	1.471690	0.758210
H227	H	-0.472025	0.938798	0.225250
H228	H	0.027975	1.438798	0.725250
H229	H	-0.953384	0.984407	0.270779
H230	H	-0.453384	1.484407	0.770779
O231	O	-0.279820	0.935918	0.927237
O232	O	0.220180	1.435918	1.427237
H233	H	-0.313548	0.914238	0.958978
H234	H	0.186452	1.414238	1.458978
H235	H	-0.282921	0.955090	0.793327
H236	H	0.217079	1.455090	1.293327
O237	O	-0.320661	1.170257	0.926133
O238	O	0.179339	1.670257	1.426133
H239	H	-0.317524	1.221006	0.960278
H240	H	0.182476	1.721006	1.460278
H241	H	-0.702267	0.936993	0.223336
H242	H	-0.202267	1.436993	0.723336
H243	H	-0.332850	1.025788	0.921494
H244	H	0.167150	1.525788	1.421494
O245	O	-0.178887	0.641848	0.451272
O246	O	0.321113	1.141848	0.951272
H247	H	-0.209237	0.678873	0.474496
H248	H	0.290763	1.178873	0.974496
O249	O	-0.346611	1.030238	0.787208
O250	O	0.153389	1.530238	1.287208
H251	H	-0.372850	1.038544	0.835256
H252	H	0.127150	1.538544	1.335256
O253	O	-0.229934	1.206590	0.927131
O254	O	0.270066	1.706590	1.427131
H255	H	-0.211859	1.235058	0.879241
H256	H	0.288141	1.735058	1.379241
H257	H	-1.052305	1.156204	0.442793
H258	H	-0.552305	1.656204	0.942793
H259	H	-0.182872	0.994473	0.921323
H260	H	0.317128	1.494473	1.421323
O261	O	-0.808300	1.215961	0.502691
O262	O	-0.308300	1.715961	1.002691
H263	H	-0.780108	1.248863	0.535638
H264	H	-0.280108	1.748863	1.035638
