data_functionalizedCrystal
_audit_creation_method	'MofGen! by Chris Wilmer'
_symmetry_space_group_name_H-M	'P1'
_symmetry_Int_Tables_number	1
_symmetry_cell_setting	triclinic
loop_
_symmetry_equiv_pos_as_xyz
  x,y,z
_cell_length_a	14.853569
_cell_length_b	23.532357
_cell_length_c	13.930277
_cell_angle_alpha	89.989902
_cell_angle_beta	89.994756
_cell_angle_gamma	83.231928
loop_
_atom_site_label
_atom_site_type_symbol
_atom_site_fract_x
_atom_site_fract_y
_atom_site_fract_z
O1	O	1.195533	0.074359	-0.079799
O2	O	0.932974	0.083215	-0.079812
O3	O	1.072195	-0.004112	-0.079785
O4	O	1.056313	0.161686	-0.079826
O5	O	1.072175	-0.004114	0.079876
O6	O	0.932955	0.083213	0.079850
O7	O	1.195514	0.074357	0.079863
Zn8	Zn	1.064232	0.078785	0.105206
Zn9	Zn	1.064257	0.078787	-0.105155
O10	O	1.056294	0.161684	0.079836
C11	C	0.899381	0.082813	0.000018
C12	C	0.799311	0.081610	0.000013
C13	C	0.763522	0.029171	0.000023
C14	C	0.741069	0.132918	0.000008
C15	C	0.647047	0.131790	0.000010
C16	C	0.611259	0.079351	0.000019
C17	C	0.669492	0.028041	0.000027
C18	C	0.588807	0.183099	0.000012
C19	C	0.494779	0.181972	0.000014
C20	C	0.458990	0.129533	0.000016
C21	C	0.517229	0.078221	0.000023
C22	C	0.481441	0.025782	0.000033
C23	C	0.539679	-0.025531	0.000033
C24	C	0.633703	-0.024399	0.000029
C25	C	0.364966	0.128401	0.000020
C26	C	0.387411	0.024652	0.000037
C27	C	1.071788	-0.025331	0.000049
C28	C	1.070594	-0.088555	0.000057
C29	C	1.063106	-0.480598	-0.087026
C30	C	1.061970	-0.540003	-0.087032
O31	O	1.061362	-0.570721	-0.161049
N32	N	1.061397	-0.569717	-0.000001
C33	C	1.061950	-0.540024	0.087040
O34	O	1.061357	-0.570753	0.161066
C35	C	1.063079	-0.480620	0.087045
C36	C	1.063661	-0.450909	0.000009
C37	C	1.063687	-0.450887	-0.174055
C38	C	1.064824	-0.391487	-0.174050
C39	C	1.065380	-0.361798	-0.087015
C40	C	1.064798	-0.391509	0.000014
C41	C	1.063625	-0.450927	0.174085
C42	C	1.064753	-0.391519	0.174082
C43	C	1.065336	-0.361808	0.087046
C44	C	1.066491	-0.302420	0.087055
N45	N	1.067064	-0.272705	0.000025
C46	C	1.066509	-0.302394	-0.087010
C47	C	1.059577	-0.664776	0.087024
C48	C	1.058455	-0.724179	0.087021
C49	C	1.058474	-0.724154	-0.087052
C50	C	1.059603	-0.664750	-0.087047
C51	C	1.060151	-0.635061	-0.000006
C52	C	1.068897	-0.177649	-0.086991
C53	C	1.070038	-0.118244	-0.086977
C54	C	1.070014	-0.118275	0.087094
C55	C	1.068878	-0.177675	0.087081
C56	C	1.068317	-0.207361	0.000031
O57	O	1.067096	-0.271663	0.161035
O58	O	1.067090	-0.271657	-0.161023
C59	C	1.229108	0.074759	0.000031
C60	C	1.329178	0.075962	0.000029
C61	C	1.056700	0.182903	0.000000
C62	C	1.057895	0.246127	-0.000015
N63	N	1.064221	0.078783	0.248772
N64	N	1.064275	0.078785	-0.248721
C65	C	1.002608	0.117440	0.701030
C66	C	1.125931	0.040129	0.701023
C67	C	1.125920	0.040128	0.600527
C68	C	1.064253	0.078783	0.550278
C69	C	1.002597	0.117441	0.600525
C70	C	1.187581	0.001475	0.550273
C71	C	1.187573	0.001472	0.449771
C72	C	1.125902	0.040125	0.399520
C73	C	1.064242	0.078784	0.449773
C74	C	1.002576	0.117440	0.399524
C75	C	0.940911	0.156096	0.449775
C76	C	0.940925	0.156095	0.550274
C77	C	1.125888	0.040127	0.299021
C78	C	1.002565	0.117440	0.299019
H79	H	1.070515	-0.094057	-0.157856
H80	H	0.890705	0.187573	0.408851
N81	N	0.777620	0.186481	-0.000016
N82	N	0.759611	0.221090	-0.067325
H83	H	0.785428	0.258921	-0.067344
N84	N	1.063009	-0.481273	0.262984
N85	N	1.061989	-0.534310	0.262988
H86	H	1.061550	-0.555742	0.325777
H87	H	0.952399	0.148913	0.741947
H88	H	1.063232	-0.475054	-0.244934
N89	N	1.188933	0.000663	0.752361
N90	N	1.188946	0.000677	0.842092
H91	H	1.233448	-0.027195	0.878355
N92	N	0.625377	0.236655	0.000012
N93	N	0.709329	0.237654	0.000003
H94	H	0.735162	0.275480	0.000002
H95	H	1.065186	-0.367348	0.244963
N96	N	1.250568	-0.038016	0.601584
N97	N	1.305615	-0.072527	0.556710
H98	H	1.350101	-0.100421	0.592951
N99	N	1.250581	-0.038015	0.398478
N100	N	1.249867	-0.090659	0.409729
H101	H	1.294376	-0.118546	0.373510
N102	N	0.350873	-0.028919	0.000036
N103	N	0.402882	-0.074726	0.000033
H104	H	0.377079	-0.112561	0.000032
N105	N	0.503118	-0.079095	0.000065
N106	N	0.453159	-0.091298	0.067379
H107	H	0.427334	-0.129127	0.067404
H108	H	1.176098	0.008656	0.258111
N109	N	1.068291	-0.208019	0.175993
N110	N	1.068788	-0.181501	0.253696
H111	H	1.068363	-0.202926	0.316492
H112	H	0.890721	0.187568	0.591194
H113	H	0.447369	0.223755	0.000012
H114	H	0.952345	0.148917	0.258112
H115	H	0.317553	0.170179	0.000028
H116	H	1.060026	-0.640607	0.157908
N117	N	1.057859	-0.754533	0.175917
N118	N	1.056840	-0.807570	0.175913
H119	H	1.056413	-0.829007	0.238699
H120	H	0.681128	-0.066175	0.000032
H121	H	1.058019	-0.748337	-0.157921
H122	H	0.810944	-0.012607	0.000019
H123	H	1.068436	-0.201812	-0.157876
H124	H	1.065295	-0.367301	-0.244923
H125	H	1.060076	-0.640563	-0.157920
N126	N	1.070590	-0.087933	0.175986
N127	N	1.071602	-0.034895	0.175967
H128	H	1.072005	-0.013464	0.238747
