data_functionalizedCrystal
_audit_creation_method	'MofGen! by Chris Wilmer'
_symmetry_space_group_name_H-M	'P1'
_symmetry_Int_Tables_number	1
_symmetry_cell_setting	triclinic
loop_
_symmetry_equiv_pos_as_xyz
  x,y,z
_cell_length_a	9.065218
_cell_length_b	10.540539
_cell_length_c	7.540329
_cell_angle_alpha	89.998539
_cell_angle_beta	89.996962
_cell_angle_gamma	84.770688
loop_
_atom_site_label
_atom_site_type_symbol
_atom_site_fract_x
_atom_site_fract_y
_atom_site_fract_z
O1	O	1.959469	0.186143	-0.147478
O2	O	2.459469	0.686143	0.352522
O3	O	1.530108	0.201412	-0.147479
O4	O	2.030108	0.701412	0.352521
O5	O	1.754584	0.009107	-0.147476
O6	O	2.254584	0.509107	0.352524
O7	O	1.734993	0.378448	-0.147481
O8	O	2.234993	0.878448	0.352519
O9	O	1.754570	0.009105	0.147489
O10	O	2.254570	0.509105	0.647489
O11	O	1.530094	0.201409	0.147486
O12	O	2.030094	0.701409	0.647486
O13	O	1.959455	0.186141	0.147487
O14	O	2.459455	0.686141	0.647487
Cu15	Cu	1.744773	0.193775	0.174419
Cu16	Cu	2.244773	0.693775	0.674419
Cu17	Cu	1.744789	0.193778	-0.174411
Cu18	Cu	2.244789	0.693778	0.325589
O19	O	1.734979	0.378445	0.147484
O20	O	2.234979	0.878445	0.647484
C21	C	1.475122	0.199943	0.000003
C22	C	1.975122	0.699943	0.500003
C23	C	1.311301	0.195556	0.000002
C24	C	1.811301	0.695556	0.500002
C25	C	1.753108	-0.038202	0.000003
C26	C	2.253108	0.461798	0.500003
C27	C	1.748712	-0.179167	-0.000007
C28	C	2.248712	0.320833	0.499993
C29	C	1.580278	-0.363216	-0.000669
C30	C	2.080278	0.136784	0.499331
C31	C	1.584734	-0.216582	-0.000005
C32	C	2.084734	0.283418	0.499995
C33	C	1.827618	-0.240534	0.168433
C34	C	2.327618	0.259466	0.668433
C35	C	1.822022	-0.387099	0.168575
C36	C	2.322022	0.112901	0.668575
C37	C	1.825372	-0.387602	-0.166855
C38	C	2.325372	0.112398	0.333145
C39	C	1.826883	-0.240615	-0.169082
C40	C	2.326883	0.259385	0.330918
C41	C	2.014441	0.187610	0.000001
C42	C	2.514441	0.687610	0.500001
C43	C	2.178262	0.191997	-0.000009
C44	C	2.678262	0.691997	0.499991
C45	C	1.736455	0.425755	0.000001
C46	C	2.236455	0.925755	0.500001
C47	C	1.740851	0.566719	-0.000001
C48	C	2.240851	1.066719	0.499999
N49	N	1.744773	0.193772	0.419768
N50	N	2.244773	0.693772	0.919768
N51	N	1.744801	0.193771	-0.419760
N52	N	2.244801	0.693771	0.080240
H53	H	1.522646	-0.174207	-0.120750
H54	H	2.022646	0.325793	0.379250
H55	H	1.763695	-0.415515	0.294487
H56	H	2.263695	0.084485	0.794487
Cl57	Cl	1.480385	-0.410768	0.184229
Cl58	Cl	1.980385	0.089232	0.684229
H59	H	1.939952	-0.434632	0.176217
H60	H	2.439952	0.065368	0.676217
H61	H	1.948039	-0.217735	0.174697
H62	H	2.448039	0.282265	0.674697
H63	H	1.772795	-0.198138	0.293780
H64	H	2.272795	0.301862	0.793780
Cl65	Cl	1.743428	-0.436598	-0.363965
Cl66	Cl	2.243428	0.063402	0.136035
H67	H	1.522200	-0.175058	0.120940
H68	H	2.022200	0.324942	0.620940
Cl69	Cl	1.738491	-0.177109	-0.361499
Cl70	Cl	2.238491	0.322891	0.138501
H71	H	1.515508	-0.392055	-0.121460
H72	H	2.015508	0.107945	0.378540
Cl73	Cl	2.011464	-0.202532	-0.184799
Cl74	Cl	2.511464	0.297468	0.315201
H75	H	1.943813	-0.434390	-0.167987
H76	H	2.443813	0.065610	0.332013
