data_functionalizedCrystal
_audit_creation_method	'MofGen! by Chris Wilmer'
_symmetry_space_group_name_H-M	'P1'
_symmetry_Int_Tables_number	1
_symmetry_cell_setting	triclinic
loop_
_symmetry_equiv_pos_as_xyz
  x,y,z
_cell_length_a	12.827893
_cell_length_b	14.908520
_cell_length_c	14.908858
_cell_angle_alpha	90.221996
_cell_angle_beta	86.720297
_cell_angle_gamma	93.320575
loop_
_atom_site_label
_atom_site_type_symbol
_atom_site_fract_x
_atom_site_fract_y
_atom_site_fract_z
Zn1	Zn	1.540287	-0.328610	0.529007
Zn2	Zn	1.539001	-0.487664	0.387320
Zn3	Zn	1.374997	-0.337323	0.378670
Zn4	Zn	1.354868	-0.478929	0.537634
O5	O	1.452288	-0.408132	0.458158
O6	O	1.686351	-0.349718	0.510222
O7	O	1.525131	-0.475023	0.260349
O8	O	1.405885	-0.210340	0.391381
O9	O	1.685406	-0.466574	0.406125
O10	O	1.527323	-0.203939	0.501834
O11	O	1.404638	-0.364568	0.253994
O12	O	1.226092	-0.356098	0.399746
O13	O	1.371578	-0.451687	0.662313
O14	O	1.211303	-0.460136	0.516537
O15	O	1.507805	-0.341248	0.655975
O16	O	1.505613	-0.612333	0.414490
O17	O	1.370331	-0.605915	0.524925
C18	C	1.180780	-0.408115	0.458139
C19	C	1.064625	-0.408129	0.458154
C20	C	1.005550	-0.459700	0.515866
C21	C	0.885497	-0.459715	0.515883
C22	C	1.435675	-0.641748	0.471602
C23	C	1.428662	-0.741689	0.477384
C24	C	1.556483	-0.936104	0.373345
C25	C	1.549897	-1.030007	0.378775
C26	C	1.408910	-1.023400	0.493676
C27	C	1.415495	-0.929497	0.488247
C28	C	1.489284	-0.885852	0.428078
C29	C	1.495864	-0.791948	0.422645
C30	C	1.354882	-0.785342	0.537550
C31	C	1.348296	-0.879245	0.542980
C32	C	1.724856	-0.408149	0.458176
C33	C	1.841008	-0.408156	0.458184
C34	C	1.437590	-0.394522	0.692680
C35	C	1.431326	-0.388722	0.792620
C36	C	1.468993	-0.173601	0.444680
C37	C	1.476112	-0.073659	0.438937
C38	C	1.466994	-0.421624	0.224543
C39	C	1.473477	-0.427170	0.124590
C40	C	1.359772	-0.323041	0.930171
C41	C	1.365653	-0.328489	0.836269
C42	C	1.491126	-0.443509	0.842881
C43	C	1.485245	-0.438061	0.936783
C44	C	1.419564	-0.377826	0.980425
C45	C	1.413678	-0.372383	1.074329
C46	C	1.539156	-0.487398	1.080939
C47	C	1.545037	-0.492845	0.987037
H48	H	1.026324	-0.363984	0.408761
H49	H	1.598515	-0.541884	0.951491
Br50	Br	1.324544	-0.290637	1.133557
H51	H	1.306288	-0.274000	0.965705
H52	H	1.316966	-0.283876	0.795355
H53	H	0.891777	-0.364005	0.408769
H54	H	0.834721	-0.503870	0.565290
H55	H	1.555943	-0.756413	0.373650
Br56	Br	1.641105	-1.098204	0.304496
H57	H	1.616558	-0.900568	0.324348
Br58	Br	1.620300	-0.561760	1.149146
Br59	Br	1.263660	-0.717139	0.611820
H60	H	1.043851	-0.503837	0.565267
Br61	Br	1.308793	-1.082647	0.575341
H62	H	1.288223	-0.914794	0.591969
H63	H	1.544607	-0.492543	0.807331
