data_functionalizedCrystal
_audit_creation_method	'MofGen! by Chris Wilmer'
_symmetry_space_group_name_H-M	'P1'
_symmetry_Int_Tables_number	1
_symmetry_cell_setting	triclinic
loop_
_symmetry_equiv_pos_as_xyz
  x,y,z
_cell_length_a	14.519731
_cell_length_b	14.519709
_cell_length_c	9.130313
_cell_angle_alpha	89.994534
_cell_angle_beta	89.996385
_cell_angle_gamma	83.684499
loop_
_atom_site_label
_atom_site_type_symbol
_atom_site_fract_x
_atom_site_fract_y
_atom_site_fract_z
O1	O	1.223854	0.120985	-0.121806
O2	O	1.473854	0.370985	0.128194
O3	O	1.723854	0.620985	0.378194
O4	O	1.973854	0.870985	0.628194
O5	O	0.955380	0.135201	-0.121808
O6	O	1.205380	0.385201	0.128192
O7	O	1.455380	0.635201	0.378192
O8	O	1.705380	0.885201	0.628192
O9	O	1.096735	-0.006145	-0.121794
O10	O	1.346735	0.243855	0.128206
O11	O	1.596735	0.493855	0.378206
O12	O	1.846735	0.743855	0.628206
O13	O	1.082499	0.262331	-0.121820
O14	O	1.332499	0.512331	0.128180
O15	O	1.582499	0.762331	0.378180
O16	O	1.832499	1.012331	0.628180
O17	O	1.096726	-0.006149	0.121805
O18	O	1.346726	0.243851	0.371805
O19	O	1.596726	0.493851	0.621805
O20	O	1.846726	0.743851	0.871805
O21	O	0.955370	0.135197	0.121791
O22	O	1.205370	0.385197	0.371791
O23	O	1.455370	0.635197	0.621791
O24	O	1.705370	0.885197	0.871791
O25	O	1.223844	0.120981	0.121793
O26	O	1.473844	0.370981	0.371793
O27	O	1.723844	0.620981	0.621793
O28	O	1.973844	0.870981	0.871793
Cu29	Cu	1.089606	0.128088	0.144034
Cu30	Cu	1.339606	0.378088	0.394034
Cu31	Cu	1.589606	0.628088	0.644034
Cu32	Cu	1.839606	0.878088	0.894034
Cu33	Cu	1.089618	0.128093	-0.144050
Cu34	Cu	1.339618	0.378093	0.105950
Cu35	Cu	1.589618	0.628093	0.355950
Cu36	Cu	1.839618	0.878093	0.605950
O37	O	1.082489	0.262326	0.121779
O38	O	1.332489	0.512326	0.371779
O39	O	1.582489	0.762326	0.621779
O40	O	1.832489	1.012326	0.871779
C41	C	0.921016	0.134532	-0.000009
C42	C	1.171016	0.384532	0.249991
C43	C	1.421016	0.634532	0.499991
C44	C	1.671016	0.884532	0.749991
C45	C	0.818635	0.132536	-0.000010
C46	C	1.068635	0.382536	0.249990
C47	C	1.318635	0.632536	0.499990
C48	C	1.568635	0.882536	0.749990
C49	C	0.735491	0.130915	-0.000015
C50	C	0.985491	0.380915	0.249985
C51	C	1.235491	0.630915	0.499985
C52	C	1.485491	0.880915	0.749985
C53	C	0.631182	0.128888	-0.000016
C54	C	0.881182	0.378888	0.249984
C55	C	1.131182	0.628888	0.499984
C56	C	1.381182	0.878888	0.749984
C57	C	0.548043	0.127280	-0.000016
C58	C	0.798043	0.377280	0.249984
C59	C	1.048043	0.627280	0.499984
C60	C	1.298043	0.877280	0.749984
C61	C	0.443728	0.125253	-0.000019
C62	C	0.693728	0.375253	0.249981
C63	C	0.943728	0.625253	0.499981
C64	C	1.193728	0.875253	0.749981
C65	C	1.096067	-0.040507	0.000006
C66	C	1.346067	0.209493	0.250006
C67	C	1.596067	0.459493	0.500006
C68	C	1.846067	0.709493	0.750006
C69	C	1.094079	-0.142889	0.000007
C70	C	1.344079	0.107111	0.250007
C71	C	1.594079	0.357111	0.500007
C72	C	1.844079	0.607111	0.750007
C73	C	1.086759	-0.517785	-0.000031
C74	C	1.336759	-0.267785	0.249969
C75	C	1.586759	-0.017785	0.499969
C76	C	1.836759	0.232215	0.749969
C77	C	1.088792	-0.413477	-0.000020
C78	C	1.338792	-0.163477	0.249980
C79	C	1.588792	0.086523	0.499980
C80	C	1.838792	0.336523	0.749980
C81	C	1.090419	-0.330340	-0.000011
C82	C	1.340419	-0.080340	0.249989
C83	C	1.590419	0.169660	0.499989
C84	C	1.840419	0.419660	0.749989
C85	C	1.092452	-0.226025	-0.000003
C86	C	1.342452	0.023975	0.249997
C87	C	1.592452	0.273975	0.499997
C88	C	1.842452	0.523975	0.749997
C89	C	1.258209	0.121649	-0.000009
C90	C	1.508209	0.371649	0.249991
C91	C	1.758209	0.621649	0.499991
C92	C	2.008209	0.871649	0.749991
C93	C	1.360589	0.123645	-0.000018
C94	C	1.610589	0.373645	0.249982
C95	C	1.860589	0.623645	0.499982
C96	C	2.110589	0.873645	0.749982
C97	C	1.083157	0.296688	-0.000024
C98	C	1.333157	0.546688	0.249976
C99	C	1.583157	0.796688	0.499976
C100	C	1.833157	1.046688	0.749976
C101	C	1.085146	0.399070	-0.000035
C102	C	1.335146	0.649070	0.249965
C103	C	1.585146	0.899070	0.499965
C104	C	1.835146	1.149070	0.749965
N105	N	1.089605	0.128084	0.346657
N106	N	1.339605	0.378084	0.596657
N107	N	1.589605	0.628084	0.846657
N108	N	1.839605	0.878084	1.096657
N109	N	1.089626	0.128090	-0.346672
N110	N	1.339626	0.378090	-0.096672
N111	N	1.589626	0.628090	0.153328
N112	N	1.839626	0.878090	0.403328
C113	C	1.152218	0.065522	0.423315
C114	C	1.402218	0.315522	0.673315
C115	C	1.652218	0.565522	0.923315
C116	C	1.902218	0.815522	1.173315
C117	C	1.152227	0.065523	0.576652
C118	C	1.402227	0.315523	0.826652
C119	C	1.652227	0.565523	1.076652
C120	C	1.902227	0.815523	1.326652
C121	C	1.027007	0.190654	0.576659
C122	C	1.277007	0.440654	0.826659
C123	C	1.527007	0.690654	1.076659
C124	C	1.777007	0.940654	1.326659
C125	C	1.026994	0.190649	0.423325
C126	C	1.276994	0.440649	0.673325
C127	C	1.526994	0.690649	0.923325
C128	C	1.776994	0.940649	1.173325
H129	H	1.203211	0.014578	0.639063
H130	H	1.453211	0.264578	0.889063
H131	H	1.703211	0.514578	1.139063
H132	H	1.953211	0.764578	1.389063
H133	H	0.976031	0.241595	0.639097
H134	H	1.226031	0.491595	0.889097
H135	H	1.476031	0.741595	1.139097
H136	H	1.726031	0.991595	1.389097
O137	O	0.959449	0.258131	0.340646
O138	O	1.209449	0.508131	0.590646
O139	O	1.459449	0.758131	0.840646
O140	O	1.709449	1.008131	1.090646
H141	H	0.914560	0.219193	0.270830
H142	H	1.164560	0.469193	0.520830
H143	H	1.414560	0.719193	0.770830
H144	H	1.664560	0.969193	1.020830
H145	H	1.203199	0.014577	0.360896
H146	H	1.453199	0.264577	0.610896
H147	H	1.703199	0.514577	0.860896
H148	H	1.953199	0.764577	1.110896
