data_functionalizedCrystal
_audit_creation_method	'MofGen! by Chris Wilmer'
_symmetry_space_group_name_H-M	'P1'
_symmetry_Int_Tables_number	1
_symmetry_cell_setting	triclinic
loop_
_symmetry_equiv_pos_as_xyz
  x,y,z
_cell_length_a	15.995350
_cell_length_b	10.654554
_cell_length_c	9.730223
_cell_angle_alpha	90.000949
_cell_angle_beta	90.003443
_cell_angle_gamma	83.989560
loop_
_atom_site_label
_atom_site_type_symbol
_atom_site_fract_x
_atom_site_fract_y
_atom_site_fract_z
O1	O	1.111922	0.161867	-0.114166
O2	O	0.868263	0.181856	-0.114194
O3	O	0.995693	-0.010950	-0.114178
O4	O	0.984493	0.354674	-0.114182
O5	O	0.995692	-0.010945	0.114402
O6	O	0.868262	0.181861	0.114386
O7	O	1.111921	0.161872	0.114414
Zn8	Zn	0.990091	0.171867	0.150692
Zn9	Zn	0.990093	0.171861	-0.150472
O10	O	0.984491	0.354679	0.114398
C11	C	0.837063	0.181032	0.000093
C12	C	0.744098	0.178555	0.000082
C13	C	0.994869	-0.057735	0.000109
C14	C	0.992406	-0.197146	0.000101
N15	N	0.990096	0.171871	0.356228
C16	C	0.406299	0.169658	0.000111
C17	C	0.452934	0.032344	0.000622
C18	C	0.549639	0.034822	0.000097
C19	C	0.573885	0.174071	0.000097
C20	C	0.533193	0.241796	-0.130428
C21	C	0.436537	0.238346	-0.130528
C22	C	0.436213	0.241189	0.129410
C23	C	0.533158	0.241156	0.131126
C24	C	0.668597	0.176572	0.000085
C25	C	0.311587	0.167160	0.000114
C26	C	1.143121	0.162696	0.000124
C27	C	1.236086	0.165174	0.000126
C28	C	0.985315	0.401463	0.000108
C29	C	0.987778	0.540874	0.000107
C30	C	0.915061	0.752333	0.000090
C31	C	0.912746	0.621342	0.000098
C32	C	1.065130	0.591404	0.000122
C33	C	1.067444	0.722393	0.000124
C34	C	0.840023	0.832794	0.000066
C35	C	0.762671	0.782274	0.000053
C36	C	0.760357	0.651282	0.000061
C37	C	0.835394	0.570812	0.000082
N38	N	0.990095	0.171848	-0.356008
C39	C	1.046537	0.086525	0.428161
C40	C	1.046534	0.086510	0.572044
C41	C	0.933648	0.257198	0.572049
C42	C	0.933647	0.257206	0.428168
C43	C	1.102985	0.001190	0.356221
C44	C	1.159431	-0.084162	0.428154
C45	C	1.159429	-0.084177	0.572037
C46	C	1.102981	0.001160	0.643987
H47	H	0.577757	-0.018413	0.093664
H48	H	0.697373	0.610153	0.000066
N49	N	0.832901	0.429528	0.000110
H50	H	0.772515	0.409729	0.000107
H51	H	0.862297	0.392182	-0.084622
N52	N	0.554287	0.375667	0.141571
H53	H	0.500733	0.434997	0.140417
H54	H	0.585584	0.386901	0.230134
N55	N	0.842513	0.974077	0.000049
H56	H	0.813152	1.011516	0.084773
H57	H	0.902918	0.993772	0.000008
H58	H	0.404875	0.339159	-0.136452
N59	N	1.220313	-0.176194	0.350557
H60	H	1.256066	-0.230265	0.417963
H61	H	1.187942	-0.231738	0.290845
N62	N	1.102982	0.001213	0.201036
H63	H	1.159971	0.019546	0.166387
H64	H	1.090278	-0.084136	0.166471
H65	H	0.434092	-0.022541	0.094227
N66	N	0.394928	0.375294	0.130589
H67	H	0.357029	0.389698	0.047821
H68	H	0.360578	0.390295	0.217243
N69	N	1.150864	0.776896	0.000144
H70	H	1.198049	0.706050	0.000148
H71	H	1.155144	0.830594	-0.084590
H72	H	0.887687	0.326701	0.369600
N73	N	0.426544	-0.040055	-0.122651
H74	H	0.384512	0.015708	-0.178828
H75	H	0.477481	-0.067454	-0.180854
N76	N	0.568954	0.175678	0.259042
H77	H	0.611376	0.102862	0.232243
H78	H	0.597315	0.237534	0.316935
H79	H	0.415416	0.196300	0.228346
H80	H	1.205383	-0.153682	0.630604
H81	H	1.126221	0.525875	0.000137
N82	N	0.681742	0.869056	0.000068
H83	H	0.694942	0.959705	0.000070
H84	H	0.648058	0.852701	-0.084664
H85	H	0.547913	0.344098	-0.135282
N86	N	1.102967	0.001150	0.799175
H87	H	1.090293	-0.084189	0.833822
H88	H	1.159967	0.019522	0.833739
H89	H	0.887691	0.326677	0.630640
H90	H	0.577186	-0.018777	-0.093631
H91	H	0.417942	0.188954	-0.228099
H92	H	0.561294	0.194753	-0.227568
