data_functionalizedCrystal
_audit_creation_method	'MofGen! by Chris Wilmer'
_symmetry_space_group_name_H-M	'P1'
_symmetry_Int_Tables_number	1
_symmetry_cell_setting	triclinic
loop_
_symmetry_equiv_pos_as_xyz
  x,y,z
_cell_length_a	16.109301
_cell_length_b	16.992695
_cell_length_c	14.586319
_cell_angle_alpha	90.000324
_cell_angle_beta	90.003133
_cell_angle_gamma	87.064852
loop_
_atom_site_label
_atom_site_type_symbol
_atom_site_fract_x
_atom_site_fract_y
_atom_site_fract_z
O1	O	1.109859	0.100779	0.076183
O2	O	0.868634	0.113322	0.076198
O3	O	0.988280	-0.007092	0.076183
O4	O	0.990214	0.221193	0.076198
O5	O	0.988264	-0.007085	-0.076298
O6	O	0.868619	0.113329	-0.076283
O7	O	1.109844	0.100786	-0.076298
Cu8	Cu	0.989230	0.107058	-0.090213
Cu9	Cu	0.989248	0.107050	0.090113
O10	O	0.990199	0.221200	-0.076283
C11	C	0.837618	0.112817	-0.000041
C12	C	0.745221	0.111294	-0.000035
C13	C	0.985784	-0.036300	-0.000057
C14	C	0.978361	-0.123343	-0.000056
C15	C	0.527480	0.179203	-0.000042
C16	C	0.440664	0.177766	-0.000048
C17	C	0.451005	0.034899	-0.000053
C18	C	0.537819	0.036337	-0.000054
C19	C	0.576055	0.108492	-0.000043
C20	C	0.402424	0.105616	-0.000049
C21	C	0.308294	0.104057	-0.000055
C22	C	0.670191	0.110051	-0.000039
C23	C	1.049987	-0.173601	-0.000062
C24	C	1.043007	-0.255386	-0.000052
C25	C	0.964400	-0.286911	-0.000045
C26	C	0.892768	-0.236645	-0.000037
C27	C	0.899749	-0.154862	-0.000039
C28	C	0.935467	-0.530501	-0.000030
C29	C	0.928491	-0.612291	-0.000030
C30	C	1.078731	-0.631026	-0.000045
C31	C	1.085704	-0.549240	-0.000053
C32	C	1.014073	-0.498982	-0.000040
N33	N	0.957263	-0.370508	-0.000038
N34	N	1.021210	-0.415387	-0.000040
C35	C	1.140860	0.101291	-0.000057
C36	C	1.233257	0.102814	-0.000057
C37	C	0.992694	0.250408	-0.000041
C38	C	1.000118	0.337451	-0.000036
N39	N	0.989224	0.107064	-0.217045
C40	C	1.042820	0.154622	-0.452051
C41	C	1.042828	0.154617	-0.548033
C42	C	0.935662	0.059474	-0.548042
C43	C	0.935658	0.059476	-0.452063
C44	C	0.989236	0.107055	-0.404070
C45	C	0.989248	0.107047	-0.596030
C46	C	0.989257	0.107041	-0.700098
C47	C	0.989229	0.107060	-0.299996
N48	N	0.989261	0.107038	0.216945
H49	H	0.558608	0.237956	-0.000040
H50	H	0.828765	-0.262319	-0.000024
H51	H	1.086463	0.193350	-0.587095
H52	H	1.149714	-0.523580	-0.000059
H53	H	0.401118	0.235347	-0.000048
H54	H	1.086447	0.193363	-0.412978
Cl55	Cl	0.402931	-0.055804	-0.000060
Cl56	Cl	1.133056	-0.318566	-0.000062
H57	H	0.577371	-0.021248	-0.000057
Cl58	Cl	0.868305	-0.000329	-0.608382
Cl59	Cl	1.168775	-0.694211	-0.000058
Cl60	Cl	0.868289	-0.000327	-0.391738
H61	H	0.864477	-0.637954	-0.000039
Cl62	Cl	1.148812	-0.133979	-0.000081
H63	H	0.877139	-0.489590	-0.000020
Cl64	Cl	0.809701	-0.091679	-0.000029
