data_functionalizedCrystal
_audit_creation_method	'MofGen! by Chris Wilmer'
_symmetry_space_group_name_H-M	'P1'
_symmetry_Int_Tables_number	1
_symmetry_cell_setting	triclinic
loop_
_symmetry_equiv_pos_as_xyz
  x,y,z
_cell_length_a	18.215407
_cell_length_b	19.805404
_cell_length_c	18.215399
_cell_angle_alpha	90.028419
_cell_angle_beta	90.019833
_cell_angle_gamma	90.030041
loop_
_atom_site_label
_atom_site_type_symbol
_atom_site_fract_x
_atom_site_fract_y
_atom_site_fract_z
Zn1	Zn	1.125048	-0.269462	0.416113
Zn2	Zn	1.625048	0.230538	0.916113
Zn3	Zn	1.124946	-0.382653	0.293046
Zn4	Zn	1.624946	0.117347	0.793046
Zn5	Zn	1.001980	-0.269484	0.293061
Zn6	Zn	1.501980	0.230516	0.793061
Zn7	Zn	1.001936	-0.382615	0.416071
Zn8	Zn	1.501936	0.117385	0.916071
O9	O	1.063478	-0.326054	0.354573
O10	O	1.563478	0.173946	0.854573
O11	O	1.228019	-0.284484	0.399800
O12	O	1.728019	0.215516	0.899800
O13	O	1.108610	-0.367666	0.190064
O14	O	1.608610	0.132334	0.690064
O15	O	1.018367	-0.174765	0.309408
O16	O	1.518367	0.325235	0.809408
O17	O	1.227944	-0.367644	0.309383
O18	O	1.727944	0.132356	0.809383
O19	O	1.108784	-0.174748	0.399814
O20	O	1.608784	0.325252	0.899814
O21	O	1.018268	-0.284521	0.190075
O22	O	1.518268	0.215479	0.690075
O23	O	0.898990	-0.284485	0.309367
O24	O	1.398990	0.215515	0.809367
O25	O	1.018291	-0.367580	0.519061
O26	O	1.518291	0.132420	1.019061
O27	O	0.898958	-0.367602	0.399742
O28	O	1.398958	0.132398	0.899742
O29	O	1.108741	-0.284447	0.519092
O30	O	1.608741	0.215553	1.019092
O31	O	1.108568	-0.477365	0.309342
O32	O	1.608568	0.022635	0.809342
O33	O	1.018193	-0.477337	0.399728
O34	O	1.518193	0.022663	0.899728
C35	C	0.872271	-0.326042	0.354552
C36	C	1.372271	0.173958	0.854552
C37	C	0.790473	-0.326053	0.354560
C38	C	1.290473	0.173947	0.854560
C39	C	0.602281	-0.369400	0.401559
C40	C	1.102281	0.130600	0.901559
C41	C	0.525422	-0.369403	0.401569
C42	C	1.025422	0.130597	0.901569
C43	C	0.525426	-0.282719	0.307602
C44	C	1.025426	0.217281	0.807602
C45	C	0.602284	-0.282714	0.307597
C46	C	1.102284	0.217286	0.807597
C47	C	0.640709	-0.326059	0.354575
C48	C	1.140709	0.173941	0.854575
C49	C	0.486993	-0.326066	0.354589
C50	C	0.986993	0.173934	0.854589
C51	C	0.403659	-0.326068	0.354599
C52	C	0.903659	0.173932	0.854599
C53	C	0.724048	-0.326056	0.354566
C54	C	1.224048	0.173944	0.854566
C55	C	1.063384	-0.501910	0.354545
C56	C	1.563384	-0.001910	0.854545
C57	C	1.063412	-0.577142	0.354557
C58	C	1.563412	-0.077142	0.854557
C59	C	1.110717	-1.038925	0.307612
C60	C	1.610717	-0.538925	0.807612
C61	C	1.110682	-0.968236	0.307598
C62	C	1.610682	-0.468236	0.807598
C63	C	1.063574	-0.932903	0.354612
C64	C	1.563574	-0.432903	0.854612
C65	C	1.016492	-0.968263	0.401638
C66	C	1.516492	-0.468263	0.901638
C67	C	1.016524	-1.038950	0.401648
C68	C	1.516524	-0.538950	0.901648
C69	C	1.016364	-0.683189	0.401598
C70	C	1.516364	-0.183189	0.901598
C71	C	1.016338	-0.612497	0.401586
C72	C	1.516338	-0.112497	0.901586
C73	C	1.110523	-0.612476	0.307547
C74	C	1.610523	-0.112476	0.807547
C75	C	1.110554	-0.683163	0.307557
C76	C	1.610554	-0.183163	0.807557
C77	C	1.063470	-0.718516	0.354581
C78	C	1.563470	-0.218516	0.854581
C79	C	1.063507	-0.795164	0.354595
C80	C	1.563507	-0.295164	0.854595
C81	C	1.063540	-0.856256	0.354602
C82	C	1.563540	-0.356256	0.854602
C83	C	1.255431	-0.326066	0.354594
C84	C	1.755431	0.173934	0.854594
C85	C	1.337229	-0.326071	0.354604
C86	C	1.837229	0.173929	0.854604
C87	C	1.063523	-0.326007	0.546526
C88	C	1.563523	0.173993	1.046526
C89	C	1.063542	-0.325987	0.628325
C90	C	1.563542	0.174013	1.128325
C91	C	1.063592	-0.149511	0.354617
C92	C	1.563592	0.350489	0.854617
C93	C	1.063640	-0.074279	0.354636
C94	C	1.563640	0.425721	0.854636
C95	C	1.063475	-0.326051	0.163367
C96	C	1.563475	0.173949	0.663367
C97	C	1.063599	-0.325880	0.081568
C98	C	1.563599	0.174120	0.581568
C99	C	1.110656	-0.282659	0.816536
C100	C	1.610656	0.217341	1.316536
C101	C	1.110664	-0.282639	0.893395
C102	C	1.610664	0.217361	1.393395
C103	C	1.016480	-0.369210	0.893351
C104	C	1.516480	0.130790	1.393351
C105	C	1.016468	-0.369226	0.816494
C106	C	1.516468	0.130774	1.316494
C107	C	1.063560	-0.325952	0.778088
C108	C	1.563560	0.174048	1.278088
C109	C	1.063581	-0.325916	0.931805
C110	C	1.563581	0.174084	1.431805
C111	C	1.063590	-0.325895	1.015138
C112	C	1.563590	0.174105	1.515138
C113	C	1.063550	-0.325972	0.694749
C114	C	1.563550	0.174028	1.194749
H115	H	1.149081	-1.067687	0.269331
H116	H	1.649081	-0.567687	0.769331
H117	H	0.633564	-0.404693	0.439813
H118	H	1.133564	0.095307	0.939813
Cl119	Cl	1.169854	-0.228254	0.768258
Cl120	Cl	1.669854	0.271746	1.268258
H121	H	0.978140	-0.404444	0.924630
H122	H	1.478140	0.095556	1.424630
H123	H	1.148859	-0.583684	0.269256
H124	H	1.648859	-0.083684	0.769256
Cl125	Cl	1.169880	-0.228218	0.941726
Cl126	Cl	1.669880	0.271782	1.441726
H127	H	0.978111	-0.404480	0.785189
H128	H	1.478111	0.095520	1.285189
Cl129	Cl	1.169875	-0.923793	0.248487
Cl130	Cl	1.669875	-0.423793	0.748487
Cl131	Cl	0.650597	-0.228218	0.248531
Cl132	Cl	1.150597	0.271782	0.748531
H133	H	1.148917	-0.711927	0.269276
H134	H	1.648917	-0.211927	0.769276
H135	H	0.494137	-0.404695	0.439829
H136	H	0.994137	0.095305	0.939829
H137	H	0.977974	-0.583731	0.439872
H138	H	1.477974	-0.083731	0.939872
H139	H	0.978020	-0.711965	0.439882
H140	H	1.478020	-0.211965	0.939882
Cl141	Cl	0.477115	-0.228234	0.248547
Cl142	Cl	0.977115	0.271766	0.748547
H143	H	0.978193	-1.067734	0.439944
H144	H	1.478193	-0.567734	0.939944
Cl145	Cl	0.957270	-0.923844	0.460742
Cl146	Cl	1.457270	-0.423844	0.960742
