data_functionalizedCrystal
_audit_creation_method	'MofGen! by Chris Wilmer'
_symmetry_space_group_name_H-M	'P1'
_symmetry_Int_Tables_number	1
_symmetry_cell_setting	triclinic
loop_
_symmetry_equiv_pos_as_xyz
  x,y,z
_cell_length_a	14.908571
_cell_length_b	12.759400
_cell_length_c	14.908308
_cell_angle_alpha	93.269141
_cell_angle_beta	90.175053
_cell_angle_gamma	86.710990
loop_
_atom_site_label
_atom_site_type_symbol
_atom_site_fract_x
_atom_site_fract_y
_atom_site_fract_z
Zn1	Zn	1.345342	-0.548282	-0.587598
Zn2	Zn	1.353936	-0.714462	-0.437243
Zn3	Zn	1.203655	-0.528102	-0.428595
Zn4	Zn	1.194964	-0.713214	-0.578895
O5	O	1.274474	-0.626015	-0.508083
O6	O	1.472309	-0.579294	-0.574915
O7	O	1.341235	-0.681818	-0.310271
O8	O	1.222491	-0.383762	-0.449711
O9	O	1.478623	-0.701385	-0.464450
O10	O	1.326587	-0.398588	-0.566529
O11	O	1.230825	-0.544900	-0.303918
O12	O	1.076676	-0.543690	-0.441272
O13	O	1.207677	-0.699258	-0.705874
O14	O	1.070290	-0.679690	-0.551696
O15	O	1.318160	-0.578083	-0.712269
O16	O	1.332807	-0.861313	-0.456011
O17	O	1.216011	-0.860396	-0.560082
C18	C	1.040857	-0.609366	-0.494601
C19	C	0.940914	-0.602270	-0.488855
C20	C	0.746517	-0.730752	-0.592888
C21	C	0.652611	-0.724088	-0.587492
C22	C	0.659193	-0.582274	-0.472673
C23	C	0.753099	-0.588938	-0.478069
C24	C	0.796758	-0.663180	-0.538177
C25	C	0.890666	-0.669848	-0.543568
C26	C	0.897246	-0.528030	-0.428754
C27	C	0.803340	-0.521366	-0.423358
C28	C	1.274422	-0.898977	-0.508061
C29	C	1.274480	-1.015760	-0.508087
C30	C	1.335356	-1.071073	-0.453964
C31	C	1.335410	-1.180802	-0.453995
C32	C	1.213704	-1.179896	-0.562273
C33	C	1.213655	-1.070169	-0.562246
C34	C	1.396181	-1.016664	-0.399805
C35	C	1.457061	-1.071977	-0.345677
C36	C	1.457115	-1.181707	-0.345708
C37	C	1.396289	-1.236123	-0.399867
C38	C	1.509003	-0.642730	-0.521618
C39	C	1.608946	-0.649853	-0.527386
C40	C	1.260990	-0.640783	-0.742609
C41	C	1.255244	-0.647076	-0.842550
C42	C	1.274550	-0.351990	-0.508126
C43	C	1.274582	-0.235216	-0.508144
C44	C	1.359489	-0.532697	-1.037009
C45	C	1.354093	-0.538607	-1.130913
C46	C	1.239052	-0.664798	-1.124262
C47	C	1.244448	-0.658888	-1.030358
C48	C	1.304670	-0.592837	-0.986735
C49	C	1.310070	-0.586934	-0.892830
C50	C	1.195025	-0.713119	-0.886181
C51	C	1.189629	-0.719028	-0.980085
C52	C	1.287957	-0.611233	-0.274473
C53	C	1.293878	-0.604656	-0.174542
H54	H	0.611708	-0.779110	-0.632045
O55	O	1.368466	-0.522616	-0.850489
C56	C	1.413828	-0.345210	-0.824349
C57	C	1.347624	-0.417933	-0.872331
H58	H	1.397014	-0.260562	-0.842006
H59	H	1.408271	-0.351221	-0.748586
H60	H	1.485262	-0.370032	-0.846983
H61	H	1.276162	-0.393160	-0.849771
H62	H	1.353260	-0.411913	-0.948086
O63	O	0.760964	-0.449110	-0.365068
C64	C	0.734782	-0.265555	-0.319981
C65	C	0.782804	-0.347272	-0.386070
H66	H	0.752436	-0.183202	-0.336926
H67	H	0.659022	-0.272301	-0.325523
H68	H	0.757385	-0.280681	-0.248519
H69	H	0.760274	-0.332199	-0.457561
H70	H	0.858555	-0.340506	-0.380450
H71	H	1.164085	-1.025132	-0.606319
O72	O	1.154494	-1.232624	-0.614823
C73	C	0.999022	-1.258217	-0.649489
C74	C	1.065981	-1.198411	-0.589931
H75	H	0.927444	-1.230594	-0.629373
H76	H	1.010500	-1.242256	-0.722918
H77	H	1.009558	-1.346142	-0.640228
H78	H	1.055485	-1.110470	-0.599114
H79	H	1.054486	-1.214460	-0.516524
H80	H	1.506590	-1.027666	-0.301588
O81	O	1.418009	-0.468456	-0.994769
C82	C	1.531593	-0.343975	-1.011275
C83	C	1.465343	-0.416666	-1.059223
H84	H	1.569894	-0.302100	-1.063365
H85	H	1.492895	-0.283266	-0.964965
H86	H	1.581083	-0.392809	-0.969991
H87	H	1.415839	-0.367919	-1.100556
H88	H	1.504100	-0.477379	-1.105480
O89	O	1.407383	-0.480344	-1.179852
C90	C	1.522728	-0.481522	-1.292838
C91	C	1.462416	-0.547635	-1.237489
H92	H	1.567251	-0.535900	-1.339437
H93	H	1.478975	-0.426441	-1.334489
H94	H	1.566653	-0.433271	-1.245508
H95	H	1.418482	-0.595949	-1.284754
H96	H	1.506222	-0.602650	-1.195827
O97	O	1.516287	-1.235274	-0.293052
C98	C	1.637030	-1.224591	-0.185690
C99	C	1.570054	-1.163798	-0.245269
H100	H	1.680531	-1.166831	-0.147056
H101	H	1.598560	-1.270099	-0.136219
H102	H	1.681625	-1.281869	-0.229743
H103	H	1.525442	-1.106467	-0.201287
H104	H	1.608580	-1.118360	-0.294746
O105	O	1.396507	-1.342727	-0.399915
C106	C	1.481417	-1.507691	-0.428159
C107	C	1.481302	-1.386977	-0.428127
H108	H	1.549960	-1.543504	-0.450983
H109	H	1.466893	-1.531892	-0.357449
H110	H	1.427450	-1.537047	-0.476131
H111	H	1.535267	-1.357534	-0.380199
H112	H	1.495784	-1.362846	-0.498866
H113	H	1.190022	-0.718573	-1.159796
O114	O	0.946186	-0.462436	-0.375695
C115	C	1.093772	-0.409904	-0.333069
C116	C	1.038458	-0.484229	-0.393227
H117	H	1.168385	-0.427512	-0.347209
H118	H	1.074476	-0.324887	-0.347920
H119	H	1.079399	-0.422339	-0.259487
H120	H	1.052802	-0.471888	-0.466828
H121	H	1.057763	-0.569219	-0.378299
H122	H	1.140596	-0.772803	-1.015615
O123	O	1.141896	-0.771597	-0.837256
C124	C	1.135857	-0.905965	-0.730574
C125	C	1.196126	-0.839788	-0.785912
H126	H	1.179677	-0.961128	-0.689063
H127	H	1.091395	-0.851676	-0.683842
H128	H	1.091873	-0.954134	-0.777907
H129	H	1.240165	-0.791611	-0.738648
H130	H	1.240528	-0.894133	-0.832654
O131	O	0.933031	-0.741855	-0.602084
C132	C	0.952964	-0.804815	-0.756610
C133	C	0.904944	-0.723192	-0.690438
H134	H	0.930259	-0.789769	-0.828057
H135	H	1.028718	-0.797976	-0.751149
H136	H	0.935417	-0.887183	-0.739597
H137	H	0.922417	-0.640788	-0.707407
H138	H	0.829201	-0.730123	-0.695911
O139	O	0.788789	-0.802898	-0.651348
C140	C	0.772355	-0.942905	-0.764618
C141	C	0.724370	-0.861232	-0.698466
H142	H	0.720295	-0.990106	-0.802718
H143	H	0.813599	-0.900892	-0.814290
H144	H	0.818710	-0.998234	-0.725768
H145	H	0.677971	-0.805881	-0.737241
H146	H	0.683183	-0.903314	-0.648795
H147	H	1.396142	-0.927316	-0.399771
H148	H	0.623630	-0.521823	-0.423741
