data_functionalizedCrystal
_audit_creation_method	'MofGen! by Chris Wilmer'
_symmetry_space_group_name_H-M	'P1'
_symmetry_Int_Tables_number	1
_symmetry_cell_setting	triclinic
loop_
_symmetry_equiv_pos_as_xyz
  x,y,z
_cell_length_a	10.540539
_cell_length_b	14.519709
_cell_length_c	13.596369
_cell_angle_alpha	89.999684
_cell_angle_beta	89.998232
_cell_angle_gamma	95.897182
loop_
_atom_site_label
_atom_site_type_symbol
_atom_site_fract_x
_atom_site_fract_y
_atom_site_fract_z
O1	O	0.166389	-1.224767	0.081658
O2	O	0.185985	-0.956395	0.081688
O3	O	-0.008582	-1.096704	0.081671
O4	O	0.360956	-1.084458	0.081675
O5	O	-0.008571	-1.096686	-0.081912
O6	O	0.185995	-0.956378	-0.081895
O7	O	0.166400	-1.224749	-0.081924
Zn8	Zn	0.176199	-1.090561	-0.107882
Zn9	Zn	0.176185	-1.090584	0.107646
O10	O	0.360967	-1.084441	-0.081908
C11	C	0.185077	-0.922022	-0.000100
C12	C	0.182340	-0.819626	-0.000088
C13	C	-0.055870	-1.095777	-0.000118
C14	C	-0.196790	-1.093029	-0.000113
C15	C	0.167308	-1.259123	-0.000135
C16	C	0.170044	-1.361519	-0.000140
C17	C	-0.379142	-0.987750	0.000266
C18	C	-0.232553	-0.990535	-0.000102
C19	C	-0.258945	-1.142344	-0.093532
C20	C	-0.405454	-1.138846	-0.093610
C21	C	-0.406006	-1.140950	0.092414
C22	C	-0.259034	-1.141895	0.093649
C23	C	0.408255	-1.085368	-0.000116
C24	C	0.549175	-1.088115	-0.000115
N25	N	0.176208	-1.090552	-0.254974
C26	C	0.172266	-0.444676	-0.000133
C27	C	0.175063	-0.548999	-0.000120
C28	C	0.177303	-0.632148	-0.000110
C29	C	0.180101	-0.736477	-0.000099
C30	C	0.176211	-1.090557	-0.343972
C31	C	0.176202	-1.090566	-0.455623
C32	C	0.176188	-1.090577	-0.544614
C33	C	0.176181	-1.090588	-0.656272
N34	N	0.176166	-1.090600	0.254737
H35	H	-0.407334	-0.947269	0.067259
H36	H	-0.235576	-1.216621	0.099282
C37	C	-0.419386	-0.933256	-0.089707
H38	H	-0.375646	-0.872696	-0.088906
H39	H	-0.398611	-0.964166	-0.148215
H40	H	-0.508740	-0.929274	-0.087493
H41	H	-0.237359	-1.217613	-0.097013
H42	H	-0.433277	-1.102385	-0.163435
C43	C	-0.200941	-1.096041	-0.187439
H44	H	-0.138862	-1.046664	-0.169914
H45	H	-0.161818	-1.140337	-0.225241
H46	H	-0.266370	-1.072536	-0.225087
C47	C	-0.470833	-1.240955	0.093262
H48	H	-0.524957	-1.250500	0.037534
H49	H	-0.407577	-1.283036	0.091209
H50	H	-0.519988	-1.251015	0.151561
H51	H	-0.190393	-0.951444	-0.067172
C52	C	-0.471278	-1.238418	-0.099365
H53	H	-0.408443	-1.280826	-0.101653
H54	H	-0.523584	-1.250804	-0.043041
H55	H	-0.522398	-1.245057	-0.156974
C56	C	-0.203240	-1.093223	0.187014
H57	H	-0.142261	-1.043333	0.168941
H58	H	-0.269848	-1.070137	0.223696
H59	H	-0.163159	-1.136174	0.225999
H60	H	-0.437225	-1.107786	0.163219
H61	H	-0.189558	-0.951731	0.066865
