data_functionalizedCrystal
_audit_creation_method	'MofGen! by Chris Wilmer'
_symmetry_space_group_name_H-M	'P1'
_symmetry_Int_Tables_number	1
_symmetry_cell_setting	triclinic
loop_
_symmetry_equiv_pos_as_xyz
  x,y,z
_cell_length_a	13.897449
_cell_length_b	13.897447
_cell_length_c	12.759401
_cell_angle_alpha	90.008336
_cell_angle_beta	90.005783
_cell_angle_gamma	90.020810
loop_
_atom_site_label
_atom_site_type_symbol
_atom_site_fract_x
_atom_site_fract_y
_atom_site_fract_z
Zn1	Zn	1.474548	-0.384151	0.594034
Zn2	Zn	1.974548	0.115849	1.094034
Zn3	Zn	1.474479	-0.545414	0.418353
Zn4	Zn	1.974479	-0.045414	0.918353
Zn5	Zn	1.313279	-0.384138	0.418367
Zn6	Zn	1.813279	0.115862	0.918367
Zn7	Zn	1.313214	-0.545409	0.593988
Zn8	Zn	1.813214	-0.045409	1.093988
O9	O	1.393880	-0.464778	0.506186
O10	O	1.893880	0.035222	1.006186
O11	O	1.609520	-0.405550	0.570743
O12	O	2.109520	0.094450	1.070743
O13	O	1.453094	-0.524016	0.271334
O14	O	1.953094	-0.024016	0.771334
O15	O	1.334728	-0.249158	0.441695
O16	O	1.834728	0.250842	0.941695
O17	O	1.609470	-0.524029	0.441671
O18	O	2.109470	-0.024029	0.941671
O19	O	1.453212	-0.249168	0.570757
O20	O	1.953212	0.250832	1.070757
O21	O	1.334661	-0.405528	0.271345
O22	O	1.834661	0.094472	0.771345
O23	O	1.178289	-0.405524	0.441651
O24	O	1.678289	0.094476	0.941651
O25	O	1.334616	-0.524022	0.741015
O26	O	1.834616	-0.024022	1.241015
O27	O	1.178241	-0.524009	0.570678
O28	O	1.678241	-0.024009	1.070678
O29	O	1.453148	-0.405546	0.741049
O30	O	1.953148	0.094454	1.241049
O31	O	1.453030	-0.680395	0.441626
O32	O	1.953030	-0.180395	0.941626
O33	O	1.334549	-0.680392	0.570664
O34	O	1.834549	-0.180392	1.070664
C35	C	1.393801	-0.715392	0.506161
C36	C	1.893801	-0.215392	1.006161
C37	C	1.393856	-0.822606	0.506186
C38	C	1.893856	-0.322606	1.006186
C39	C	1.143266	-0.464765	0.506162
C40	C	1.643266	0.035235	1.006162
C41	C	1.036052	-0.464783	0.506176
C42	C	1.536052	0.035217	1.006176
C43	C	1.393903	-0.909676	0.506210
C44	C	1.893903	-0.409676	1.006210
C45	C	1.393970	-1.018908	0.506237
C46	C	1.893970	-0.518908	1.006237
C47	C	0.839757	-0.464786	0.506204
C48	C	1.339757	0.035214	1.006204
C49	C	0.948989	-0.464781	0.506186
C50	C	1.448989	0.035219	1.006186
C51	C	1.645473	-0.464792	0.506210
C52	C	2.145473	0.035208	1.006210
C53	C	1.752687	-0.464797	0.506221
C54	C	2.252687	0.035203	1.006221
C55	C	1.393883	-0.464785	0.780219
C56	C	1.893883	0.035215	1.280219
C57	C	1.393884	-0.464788	0.896995
C58	C	1.893884	0.035212	1.396995
C59	C	1.393985	-0.213185	0.506233
C60	C	1.893985	0.286815	1.006233
C61	C	1.394030	-0.105971	0.506253
C62	C	1.894030	0.394029	1.006253
C63	C	1.455594	-0.403106	1.061602
C64	C	1.955594	0.096894	1.561602
C65	C	1.455597	-0.403106	0.951878
C66	C	1.955597	0.096894	1.451878
C67	C	1.332171	-0.526481	0.951843
C68	C	1.832171	-0.026481	1.451843
C69	C	1.332174	-0.526485	1.061565
C70	C	1.832174	-0.026485	1.561565
C71	C	1.526851	-0.331873	1.061621
C72	C	2.026851	0.168127	1.561621
C73	C	1.526853	-0.331873	0.951897
C74	C	2.026853	0.168127	1.451897
C75	C	1.393874	-0.464793	1.233218
C76	C	1.893874	0.035207	1.733218
C77	C	1.393884	-0.464792	1.116442
C78	C	1.893884	0.035208	1.616442
H79	H	1.281929	-0.576710	0.907149
H80	H	1.781929	-0.076710	1.407149
H81	H	1.506874	-0.257164	0.922131
H82	H	2.006874	0.242836	1.422131
H83	H	1.597808	-0.358637	0.917868
H84	H	2.097808	0.141363	1.417868
N85	N	1.620559	-0.356959	1.098989
N86	N	2.120559	0.143041	1.598989
N87	N	1.691522	-0.306122	1.075335
N88	N	2.191522	0.193878	1.575335
H89	H	1.757703	-0.323837	1.101727
H90	H	2.257703	0.176163	1.601727
N91	N	1.269159	-0.589529	1.117567
N92	N	1.769159	-0.089529	1.617567
N93	N	1.214078	-0.644614	1.068555
N94	N	1.714078	-0.144614	1.568555
H95	H	1.169577	-0.689148	1.108105
H96	H	1.669577	-0.189148	1.608105
N97	N	1.493311	-0.242850	1.104323
N98	N	1.993311	0.257150	1.604323
N99	N	1.468194	-0.176180	1.044548
N100	N	1.968194	0.323820	1.544548
H101	H	1.444503	-0.113307	1.074705
H102	H	1.944503	0.386693	1.574705
