data_functionalizedCrystal
_audit_creation_method	'MofGen! by Chris Wilmer'
_symmetry_space_group_name_H-M	'P1'
_symmetry_Int_Tables_number	1
_symmetry_cell_setting	triclinic
loop_
_symmetry_equiv_pos_as_xyz
  x,y,z
_cell_length_a	12.594517
_cell_length_b	11.169416
_cell_length_c	11.169409
_cell_angle_alpha	89.969184
_cell_angle_beta	89.985625
_cell_angle_gamma	90.006226
loop_
_atom_site_label
_atom_site_type_symbol
_atom_site_fract_x
_atom_site_fract_y
_atom_site_fract_z
Zn1	Zn	1.627340	-0.477842	-0.678357
Zn2	Zn	1.627239	-0.678583	-0.477679
Zn3	Zn	1.449334	-0.477898	-0.477713
Zn4	Zn	1.449343	-0.678468	-0.678345
O5	O	1.538314	-0.578198	-0.578023
O6	O	1.776272	-0.504496	-0.651727
O7	O	1.603594	-0.652033	-0.309733
O8	O	1.472986	-0.309941	-0.504348
O9	O	1.776198	-0.651979	-0.504290
O10	O	1.603765	-0.309900	-0.651760
O11	O	1.472888	-0.504591	-0.309758
O12	O	1.300390	-0.504479	-0.504337
O13	O	1.473001	-0.651783	-0.846297
O14	O	1.300396	-0.651837	-0.651740
O15	O	1.603774	-0.504385	-0.846305
O16	O	1.603603	-0.846517	-0.504279
O17	O	1.472903	-0.846433	-0.651707
C18	C	1.538272	-0.890022	-0.578014
C19	C	1.538351	-1.023422	-0.578050
C20	C	1.261773	-0.578152	-0.578042
C21	C	1.143468	-0.578162	-0.578078
C22	C	1.074249	-0.658467	-0.658096
C23	C	1.003432	-0.549036	-0.687609
C24	C	1.003486	-0.687683	-0.548538
C25	C	1.074209	-0.468673	-0.607649
C26	C	1.074269	-0.607393	-0.468526
C27	C	1.003484	-0.497887	-0.497998
C28	C	1.815935	-0.578244	-0.578006
C29	C	1.934240	-0.578264	-0.577998
C30	C	1.538399	-0.578065	-0.891066
C31	C	1.538436	-0.578008	-1.024466
C32	C	1.538386	-0.265155	-0.578059
C33	C	1.538416	-0.131755	-0.578074
C34	C	1.538290	-0.578244	-0.266199
C35	C	1.538460	-0.577962	-0.132799
H36	H	1.105323	-0.726247	-0.725851
H37	H	0.972317	-0.524348	-0.780221
H38	H	1.105146	-0.376068	-0.632705
H39	H	0.972414	-0.780260	-0.523589
O40	O	1.111605	-0.636812	-0.358134
C41	C	1.265685	-0.670954	-0.234907
C42	C	1.223543	-0.637579	-0.359975
H43	H	1.356191	-0.671610	-0.236361
H44	H	1.236745	-0.602456	-0.166668
H45	H	1.235303	-0.763597	-0.209120
H46	H	1.253907	-0.544965	-0.385874
H47	H	1.252474	-0.706154	-0.428141
O48	O	0.966690	-0.416672	-0.417365
C49	C	0.961228	-0.209572	-0.357356
C50	C	1.002951	-0.301419	-0.448765
H51	H	0.990547	-0.116373	-0.382695
H52	H	0.870715	-0.210656	-0.357356
H53	H	0.991598	-0.233714	-0.264282
H54	H	0.972660	-0.277341	-0.541883
H55	H	1.093463	-0.300317	-0.448660
