data_functionalizedCrystal
_audit_creation_method	'MofGen! by Chris Wilmer'
_symmetry_space_group_name_H-M	'P1'
_symmetry_Int_Tables_number	1
_symmetry_cell_setting	triclinic
loop_
_symmetry_equiv_pos_as_xyz
  x,y,z
_cell_length_a	18.215407
_cell_length_b	16.120444
_cell_length_c	18.215399
_cell_angle_alpha	87.129468
_cell_angle_beta	90.017368
_cell_angle_gamma	92.923925
loop_
_atom_site_label
_atom_site_type_symbol
_atom_site_fract_x
_atom_site_fract_y
_atom_site_fract_z
Zn1	Zn	1.110204	-0.331974	0.430919
Zn2	Zn	1.103869	-0.471396	0.314090
Zn3	Zn	0.987136	-0.331994	0.307872
Zn4	Zn	0.980861	-0.471342	0.437118
O5	O	1.045517	-0.401676	0.372500
O6	O	1.212347	-0.350483	0.415429
O7	O	1.088358	-0.452934	0.210282
O8	O	1.008739	-0.215325	0.318999
O9	O	1.207693	-0.452915	0.329595
O10	O	1.099157	-0.215310	0.409400
O11	O	1.002595	-0.350517	0.205714
O12	O	0.883320	-0.350464	0.325009
O13	O	0.998044	-0.452824	0.539278
O14	O	0.878710	-0.452843	0.419965
O15	O	1.093072	-0.350430	0.534724
O16	O	1.082274	-0.588055	0.335606
O17	O	0.991901	-0.588015	0.425994
C18	C	0.854312	-0.401651	0.372486
C19	C	0.772513	-0.401660	0.372498
C20	C	0.586737	-0.348433	0.417271
C21	C	0.509878	-0.348440	0.417274
C22	C	0.505049	-0.454943	0.327742
C23	C	0.581907	-0.454931	0.327736
C24	C	0.622749	-0.401677	0.372505
C25	C	0.469032	-0.401696	0.372514
C26	C	0.385698	-0.401704	0.372516
C27	C	0.706088	-0.401668	0.372501
C28	C	1.035739	-0.618285	0.382163
C29	C	1.031623	-0.710951	0.386322
C30	C	1.067050	-0.921893	0.351084
C31	C	1.024121	-0.880608	0.393923
C32	C	1.028296	-0.786202	0.389692
C33	C	1.062876	-1.016308	0.355314
C34	C	1.237469	-0.401703	0.372514
C35	C	1.319267	-0.401714	0.372520
C36	C	1.045565	-0.401619	0.564450
C37	C	1.045585	-0.401594	0.646248
C38	C	1.055354	-0.184222	0.362814
C39	C	1.059546	-0.091555	0.358687
C40	C	1.045515	-0.401673	0.181293
C41	C	1.045648	-0.401463	0.099485
C42	C	1.095085	-0.348228	0.832070
C43	C	1.095095	-0.348204	0.908927
C44	C	0.996143	-0.454831	0.913659
C45	C	0.996130	-0.454851	0.836802
C46	C	1.045605	-0.401551	0.796010
C47	C	1.045628	-0.401507	0.949724
C48	C	1.045638	-0.401481	1.033056
C49	C	1.045594	-0.401575	0.712672
H50	H	0.471786	-0.498301	0.291294
H51	H	0.955832	-0.498271	0.807441
C52	C	0.621525	-0.513505	0.278490
C53	C	0.675969	-0.477285	0.219144
C54	C	0.715587	-0.535852	0.169898
C55	C	0.700762	-0.630640	0.179998
C56	C	0.646315	-0.666865	0.239347
C57	C	0.606696	-0.608297	0.288593
H58	H	0.686946	-0.407113	0.211665
H59	H	0.755892	-0.509036	0.125964
H60	H	0.730089	-0.673995	0.143543
H61	H	0.635338	-0.737036	0.246826
H62	H	0.566391	-0.635113	0.332527
C63	C	0.631664	-0.289849	0.466509
C64	C	0.592048	-0.231277	0.515747
C65	C	0.636973	-0.172690	0.564984
C66	C	0.721514	-0.172673	0.564983
C67	C	0.761134	-0.231247	0.515743
C68	C	0.716210	-0.289835	0.466506
H69	H	0.529462	-0.231288	0.515749
H70	H	0.607643	-0.129329	0.601435
H71	H	0.754770	-0.129303	0.601431
H72	H	0.823721	-0.231236	0.515740
H73	H	0.745540	-0.333195	0.430055
C74	C	0.970226	-0.928634	0.447754
C75	C	0.966066	-1.024406	0.451957
C76	C	0.912168	-1.072436	0.505782
C77	C	0.862431	-1.024694	0.555402
C78	C	0.866589	-0.928918	0.551201
C79	C	0.920486	-0.880888	0.497376
H80	H	1.002886	-1.059751	0.415223
H81	H	0.909090	-1.143336	0.508892
H82	H	0.822533	-1.060249	0.595246
H83	H	0.829769	-0.893572	0.587934
H84	H	0.923564	-0.809987	0.494266
C85	C	1.120929	-0.873866	0.297246
C86	C	1.091655	-0.814054	0.236817
C87	C	1.145532	-0.766014	0.182978
C88	C	1.228682	-0.777785	0.189567
C89	C	1.257960	-0.837599	0.249998
C90	C	1.204083	-0.885639	0.303837
H91	H	1.030099	-0.805338	0.231937
H92	H	1.123858	-0.721736	0.138243
H93	H	1.268564	-0.742223	0.149712
H94	H	1.319516	-0.846315	0.254878
H95	H	1.225757	-0.929918	0.348572
C96	C	0.470267	-0.289873	0.466521
C97	C	0.480554	-0.296800	0.550481
C98	C	0.440944	-0.238229	0.599731
C99	C	0.391047	-0.172730	0.565021
C100	C	0.380758	-0.165800	0.481056
C101	C	0.420367	-0.224371	0.431807
H102	H	0.517493	-0.345289	0.576180
H103	H	0.448561	-0.243360	0.661887
H104	H	0.361725	-0.129373	0.601478
H105	H	0.343819	-0.117312	0.455358
H106	H	0.412750	-0.219241	0.369651
C107	C	1.149501	-0.289593	0.787197
C108	C	1.203924	-0.230936	0.826866
C109	C	1.258339	-0.172296	0.781995
C110	C	1.258331	-0.172314	0.697456
C111	C	1.203905	-0.230973	0.657782
C112	C	1.149490	-0.289613	0.702653
H113	H	1.203932	-0.230920	0.889451
H114	H	1.298629	-0.128872	0.811364
H115	H	1.298612	-0.128905	0.664240
H116	H	1.203897	-0.230989	0.595197
H117	H	1.109201	-0.333037	0.673283
C118	C	1.149526	-0.289550	0.948592
C119	C	1.232878	-0.296368	0.938343
C120	C	1.287310	-0.237710	0.978007
C121	C	1.258391	-0.172233	1.027921
C122	C	1.175035	-0.165412	1.038173
C123	C	1.120602	-0.224070	0.998508
H124	H	1.254289	-0.344841	0.901392
H125	H	1.349016	-0.242760	0.970418
H126	H	1.298685	-0.128810	1.057283
H127	H	1.153623	-0.116939	1.075124
H128	H	1.058896	-0.219020	1.006097
C129	C	0.941727	-0.513466	0.958532
C130	C	0.941741	-0.513451	1.043072
C131	C	0.887326	-0.572090	1.087944
C132	C	0.832897	-0.630742	1.048276
C133	C	0.832881	-0.630759	0.963732
C134	C	0.887296	-0.572120	0.918860
H135	H	0.982035	-0.470031	1.072440
H136	H	0.887338	-0.572077	1.150529
H137	H	0.792616	-0.674150	1.081493
H138	H	0.792588	-0.674179	0.934364
H139	H	0.887284	-0.572133	0.856275
