data_functionalizedCrystal
_audit_creation_method	'MofGen! by Chris Wilmer'
_symmetry_space_group_name_H-M	'P1'
_symmetry_Int_Tables_number	1
_symmetry_cell_setting	triclinic
loop_
_symmetry_equiv_pos_as_xyz
  x,y,z
_cell_length_a	14.908520
_cell_length_b	17.077404
_cell_length_c	17.077396
_cell_angle_alpha	90.019501
_cell_angle_beta	93.268321
_cell_angle_gamma	86.679062
loop_
_atom_site_label
_atom_site_type_symbol
_atom_site_fract_x
_atom_site_fract_y
_atom_site_fract_z
Zn1	Zn	-0.359154	-1.182024	-0.461868
Zn2	Zn	0.140846	-0.682024	0.038132
Zn3	Zn	-0.510026	-1.174357	-0.338173
Zn4	Zn	-0.010026	-0.674357	0.161827
Zn5	Zn	-0.359186	-1.050754	-0.330617
Zn6	Zn	0.140814	-0.550754	0.169383
Zn7	Zn	-0.509972	-1.043152	-0.469394
Zn8	Zn	-0.009972	-0.543152	0.030606
O9	O	-0.434584	-1.112572	-0.400013
O10	O	0.065416	-0.612572	0.099987
O11	O	-0.379177	-1.290853	-0.445472
O12	O	0.120823	-0.790853	0.054528
O13	O	-0.490052	-1.157933	-0.227326
O14	O	0.009948	-0.657933	0.272674
O15	O	-0.232937	-1.074557	-0.341715
O16	O	0.267063	-0.574557	0.158285
O17	O	-0.490021	-1.285220	-0.354594
O18	O	0.009979	-0.785220	0.145406
O19	O	-0.232913	-1.171001	-0.438145
O20	O	0.267087	-0.671001	0.061855
O21	O	-0.379231	-1.067123	-0.221774
O22	O	0.120769	-0.567123	0.278226
O23	O	-0.379179	-0.939899	-0.349014
O24	O	0.120821	-0.439899	0.150986
O25	O	-0.489930	-1.061601	-0.578241
O26	O	0.010070	-0.561601	-0.078241
O27	O	-0.489961	-0.934314	-0.450973
O28	O	0.010039	-0.434314	0.049027
O29	O	-0.379125	-1.163629	-0.572711
O30	O	0.120875	-0.663629	-0.072711
O31	O	-0.636263	-1.150562	-0.361892
O32	O	-0.136263	-0.650562	0.138108
O33	O	-0.636224	-1.054166	-0.458300
O34	O	-0.136224	-0.554166	0.041700
C35	C	-0.434568	-0.908625	-0.399990
C36	C	0.065432	-0.408625	0.100010
C37	C	-0.434583	-0.821374	-0.400001
C38	C	0.065417	-0.321374	0.099999
C39	C	-0.668978	-1.100728	-0.411750
C40	C	-0.168978	-0.600728	0.088250
C41	C	-0.769252	-1.095734	-0.416797
C42	C	-0.269252	-0.595734	0.083203
C43	C	-0.434518	-1.112622	-0.604754
C44	C	0.065482	-0.612622	-0.104754
C45	C	-0.434490	-1.112644	-0.692002
C46	C	0.065510	-0.612644	-0.192002
C47	C	-0.957658	-1.186828	-0.325973
C48	C	-0.457658	-0.686828	0.174027
C49	C	-1.051875	-1.182137	-0.330713
C50	C	-0.551875	-0.682137	0.169287
C51	C	-1.051904	-1.081667	-0.431020
C52	C	-0.551904	-0.581667	0.068980
C53	C	-0.957687	-1.086357	-0.426280
C54	C	-0.457687	-0.586357	0.073720
C55	C	-0.910568	-1.138939	-0.373754
C56	C	-0.410568	-0.638939	0.126246
C57	C	-0.816349	-1.143625	-0.369011
C58	C	-0.316349	-0.643625	0.130989
C59	C	-0.816380	-1.043159	-0.469321
C60	C	-0.316380	-0.543159	0.030679
C61	C	-0.910597	-1.038468	-0.474061
C62	C	-0.410597	-0.538468	0.025939
C63	C	-0.199276	-1.124482	-0.388248
C64	C	0.300724	-0.624482	0.111752
C65	C	-0.099001	-1.129558	-0.383234
C66	C	0.400999	-0.629558	0.116766
C67	C	-0.434601	-1.317315	-0.400036
C68	C	0.065399	-0.817315	0.099964
C69	C	-0.434609	-1.404564	-0.400046
C70	C	0.065391	-0.904564	0.099954
C71	C	-0.492354	-0.777492	-0.453014
C72	C	0.007646	-0.277492	0.046986
C73	C	-0.492356	-0.695511	-0.453027
C74	C	0.007644	-0.195511	0.046973
C75	C	-0.434591	-0.657414	-0.400022
C76	C	0.065409	-0.157414	0.099978
C77	C	-0.376813	-0.701302	-0.347005
C78	C	0.123187	-0.201302	0.152995
C79	C	-0.376807	-0.783282	-0.346997
C80	C	0.123193	-0.283282	0.153003
C81	C	-0.376831	-0.530432	-0.347025
C82	C	0.123169	-0.030432	0.152975
C83	C	-0.376837	-0.448447	-0.347032
C84	C	0.123163	0.051553	0.152968
C85	C	-0.492380	-0.442661	-0.453055
C86	C	0.007620	0.057339	0.046945
C87	C	-0.492374	-0.524640	-0.453047
C88	C	0.007626	-0.024640	0.046953
C89	C	-0.434597	-0.568523	-0.400029
C90	C	0.065403	-0.068523	0.099971
C91	C	-0.376788	-1.165772	-0.730114
C92	C	0.123212	-0.665772	-0.230114
C93	C	-0.376758	-1.165783	-0.812093
C94	C	0.123242	-0.665783	-0.312093
C95	C	-0.434435	-1.112669	-0.855959
C96	C	0.065565	-0.612669	-0.355959
C97	C	-0.492138	-1.059535	-0.817842
C98	C	0.007862	-0.559535	-0.317842
C99	C	-0.492163	-1.059521	-0.735864
C100	C	0.007837	-0.559521	-0.235864
C101	C	-0.492084	-1.059569	-0.988709
C102	C	0.007916	-0.559569	-0.488709
C103	C	-0.492061	-1.059584	-1.070693
C104	C	0.007939	-0.559584	-0.570693
C105	C	-0.376679	-1.165832	-1.064938
C106	C	0.123321	-0.665832	-0.564938
C107	C	-0.376704	-1.165818	-0.982961
C108	C	0.123296	-0.665818	-0.482961
C109	C	-0.434409	-1.112684	-0.944849
C110	C	0.065591	-0.612684	-0.444849
C111	C	-0.434585	-1.112569	-0.196065
C112	C	0.065415	-0.612569	0.303935
C113	C	-0.434360	-1.112713	-0.108804
C114	C	0.065640	-0.612713	0.391196
H115	H	-0.777985	-1.186437	-0.326240
H116	H	-0.277985	-0.686437	0.173760
H117	H	-0.329775	-0.670278	-0.303850
H118	H	0.170225	-0.170278	0.196150
H119	H	-0.539060	-1.016291	-0.957681
H120	H	-0.039060	-0.516291	-0.457681
F121	F	-0.315376	-1.222355	-0.852652
F122	F	0.184624	-0.722355	-0.352652
F123	F	-0.553519	-1.003004	-0.864529
F124	F	-0.053519	-0.503004	-0.364529
F125	F	-0.553574	-1.002973	-0.695303
F126	F	-0.053574	-0.502973	-0.195303
F127	F	-0.553439	-1.003048	-1.117376
F128	F	-0.053439	-0.503048	-0.617376
F129	F	-0.315265	-1.222381	-1.105500
F130	F	0.184735	-0.722381	-0.605500
H131	H	-0.919293	-1.229636	-0.283199
H132	H	-0.419293	-0.729636	0.216801
H133	H	-0.329824	-1.209027	-0.694404
H134	H	0.170176	-0.709027	-0.194404
H135	H	-0.948974	-0.995660	-0.516828
H136	H	-0.448974	-0.495660	-0.016828
F137	F	-1.101989	-1.233109	-0.279860
F138	F	-0.601989	-0.733109	0.220140
F139	F	-1.102067	-1.025720	-0.486926
F140	F	-0.602067	-0.525720	0.013074
F141	F	-0.315317	-0.829984	-0.290574
F142	F	0.184683	-0.329984	0.209426
H143	H	-0.539421	-0.406928	-0.496226
H144	H	-0.039421	0.093072	0.003774
H145	H	-0.329744	-1.209072	-0.947247
H146	H	0.170256	-0.709072	-0.447247
H147	H	-0.329789	-0.417431	-0.303879
H148	H	0.170211	0.082569	0.196121
H149	H	-0.329775	-0.566159	-0.303859
H150	H	0.170225	-0.066159	0.196141
H151	H	-0.539396	-0.808504	-0.496175
H152	H	-0.039396	-0.308504	0.003825
F153	F	-0.553844	-0.648812	-0.509452
F154	F	-0.053844	-0.148812	-0.009452
F155	F	-0.553860	-0.565184	-0.509456
F156	F	-0.053860	-0.065184	-0.009456
F157	F	-0.766256	-0.992180	-0.520168
F158	F	-0.266256	-0.492180	-0.020168
