data_functionalizedCrystal
_audit_creation_method	'MofGen! by Chris Wilmer'
_symmetry_space_group_name_H-M	'P1'
_symmetry_Int_Tables_number	1
_symmetry_cell_setting	triclinic
loop_
_symmetry_equiv_pos_as_xyz
  x,y,z
_cell_length_a	23.532407
_cell_length_b	23.532407
_cell_length_c	10.268362
_cell_angle_alpha	89.986236
_cell_angle_beta	89.999248
_cell_angle_gamma	97.151287
loop_
_atom_site_label
_atom_site_type_symbol
_atom_site_fract_x
_atom_site_fract_y
_atom_site_fract_z
O1	O	0.755260	-0.069135	0.108161
O2	O	1.255260	0.430865	0.608161
O3	O	0.589396	-0.079138	0.108203
O4	O	1.089396	0.420862	0.608203
O5	O	0.677329	0.008795	0.108144
O6	O	1.177329	0.508795	0.608144
O7	O	0.667326	-0.157069	0.108220
O8	O	1.167326	0.342931	0.608220
O9	O	0.677322	0.008798	-0.108456
O10	O	1.177322	0.508798	0.391544
O11	O	0.589389	-0.079135	-0.108398
O12	O	1.089389	0.420865	0.391602
O13	O	0.755252	-0.069132	-0.108439
O14	O	1.255252	0.430868	0.391561
Cu15	Cu	0.672320	-0.074133	-0.128196
Cu16	Cu	1.172320	0.425867	0.371804
Cu17	Cu	0.672329	-0.074137	0.127960
Cu18	Cu	1.172329	0.425863	0.627960
O19	O	0.667319	-0.157065	-0.108381
O20	O	1.167319	0.342935	0.391619
C21	C	0.568176	-0.078882	-0.000093
C22	C	1.068176	0.421118	0.499907
C23	C	0.504959	-0.078116	-0.000078
C24	C	1.004959	0.421884	0.499922
C25	C	0.105856	-0.125350	-0.000116
C26	C	0.605856	0.374650	0.499884
C27	C	0.046456	-0.124638	-0.000124
C28	C	0.546456	0.375362	0.499876
O29	O	0.009711	-0.168424	-0.000152
O30	O	0.509711	0.331576	0.499848
N31	N	0.023830	-0.072362	-0.000146
N32	N	0.523830	0.427638	0.499854
C33	C	0.060607	-0.020794	-0.000172
C34	C	0.560607	0.479206	0.499828
O35	O	0.035908	0.023737	-0.000193
O36	O	0.535908	0.523737	0.499807
C37	C	0.120006	-0.021506	-0.000173
C38	C	0.620006	0.478494	0.499827
C39	C	0.142629	-0.073785	-0.000139
C40	C	0.642629	0.426215	0.499861
C41	C	0.128480	-0.177625	-0.000082
C42	C	0.628480	0.322375	0.499918
C43	C	0.187876	-0.178336	-0.000072
C44	C	0.687876	0.321664	0.499928
C45	C	0.224649	-0.126772	-0.000094
C46	C	0.724649	0.373228	0.499906
C47	C	0.202025	-0.074496	-0.000128
C48	C	0.702025	0.425504	0.499872
C49	C	0.156783	0.030062	-0.000209
C50	C	0.656783	0.530062	0.499791
C51	C	0.216185	0.029345	-0.000211
C52	C	0.716185	0.529345	0.499789
C53	C	0.238808	-0.022934	-0.000176
C54	C	0.738808	0.477066	0.499824
C55	C	0.298194	-0.023643	-0.000140
C56	C	0.798194	0.476357	0.499860
N57	N	0.320821	-0.075920	-0.000118
N58	N	0.820821	0.424080	0.499882
C59	C	0.284048	-0.127484	-0.000095
C60	C	0.784048	0.372516	0.499905
C61	C	-0.064135	-0.019302	-0.000173
C62	C	0.435865	0.480698	0.499827
C63	C	-0.123533	-0.018589	-0.000162
C64	C	0.376467	0.481411	0.499838
C65	C	-0.137680	-0.122434	-0.000116
C66	C	0.362320	0.377566	0.499884
C67	C	-0.078281	-0.123146	-0.000117
C68	C	0.421719	0.376854	0.499883
C69	C	-0.041509	-0.071578	-0.000151
C70	C	0.458491	0.428422	0.499849
C71	C	0.408784	-0.128974	-0.000072
C72	C	0.908784	0.371026	0.499928
C73	C	0.468186	-0.129680	-0.000056
C74	C	0.968186	0.370320	0.499944
C75	C	0.482329	-0.025836	-0.000108
C76	C	0.982329	0.474164	0.499892
C77	C	0.422932	-0.025129	-0.000118
C78	C	0.922932	0.474871	0.499882
C79	C	0.386160	-0.076702	-0.000104
C80	C	0.886160	0.423298	0.499896
O81	O	0.334974	0.020119	-0.000118
O82	O	0.834974	0.520119	0.499882
O83	O	0.308756	-0.172007	-0.000092
O84	O	0.808756	0.327993	0.499908
C85	C	0.677071	0.030013	-0.000162
C86	C	1.177071	0.530013	0.499838
C87	C	0.676305	0.093230	-0.000182
C88	C	1.176305	0.593230	0.499818
C89	C	0.776472	-0.069388	-0.000141
C90	C	1.276472	0.430612	0.499859
C91	C	0.839689	-0.070154	-0.000146
C92	C	1.339689	0.429846	0.499854
C93	C	0.667577	-0.178283	-0.000071
C94	C	1.167577	0.321717	0.499929
C95	C	0.668343	-0.241500	-0.000043
C96	C	1.168343	0.258500	0.499957
N97	N	0.672317	-0.074130	-0.308362
N98	N	1.172317	0.425870	0.191638
C99	C	0.621110	0.359397	-0.000087
C100	C	1.121110	0.859397	0.499913
C101	C	0.621821	0.299997	-0.000097
C102	C	1.121821	0.799997	0.499903
O103	O	0.578035	0.263252	-0.000045
O104	O	1.078035	0.763252	0.499955
N105	N	0.674097	0.277371	-0.000125
N106	N	1.174097	0.777371	0.499875
C107	C	0.725666	0.314148	-0.000130
C108	C	1.225666	0.814148	0.499870
O109	O	0.770196	0.289449	-0.000153
O110	O	1.270196	0.789449	0.499847
C111	C	0.724954	0.373547	-0.000110
C112	C	1.224954	0.873547	0.499890
C113	C	0.672674	0.396170	-0.000095
C114	C	1.172674	0.896170	0.499905
C115	C	0.568834	0.382020	-0.000071
C116	C	1.068834	0.882020	0.499929
C117	C	0.568123	0.441417	-0.000063
C118	C	1.068123	0.941417	0.499937
C119	C	0.619687	0.478189	-0.000071
C120	C	1.119687	0.978189	0.499929
C121	C	0.671963	0.455566	-0.000088
C122	C	1.171963	0.955566	0.499912
C123	C	0.776521	0.410324	-0.000106
C124	C	1.276521	0.910324	0.499894
C125	C	0.775805	0.469726	-0.000085
C126	C	1.275805	0.969726	0.499915
C127	C	0.723525	0.492349	-0.000070
C128	C	1.223525	0.992349	0.499930
C129	C	0.722816	0.551735	-0.000088
C130	C	1.222816	1.051735	0.499912
N131	N	0.670539	0.574361	-0.000060
N132	N	1.170539	1.074361	0.499940
C133	C	0.618975	0.537589	-0.000052
C134	C	1.118975	1.037589	0.499948
C135	C	0.727157	0.189406	-0.000169
C136	C	1.227157	0.689406	0.499831
C137	C	0.727870	0.130008	-0.000197
C138	C	1.227870	0.630008	0.499803
C139	C	0.624025	0.115861	-0.000162
C140	C	1.124025	0.615861	0.499838
C141	C	0.623313	0.175260	-0.000143
C142	C	1.123313	0.675260	0.499857
C143	C	0.674881	0.212032	-0.000140
C144	C	1.174881	0.712032	0.499860
C145	C	0.617486	0.662325	-0.000037
C146	C	1.117486	1.162325	0.499963
C147	C	0.616779	0.721727	-0.000034
C148	C	1.116779	1.221727	0.499966
C149	C	0.720623	0.735869	-0.000063
C150	C	1.220623	1.235869	0.499937
C151	C	0.721330	0.676473	-0.000072
C152	C	1.221330	1.176473	0.499928
C153	C	0.669757	0.639701	-0.000054
C154	C	1.169757	1.139701	0.499946
O155	O	0.766579	0.588514	-0.000135
O156	O	1.266579	1.088514	0.499865
O157	O	0.574452	0.562296	-0.000011
O158	O	1.074452	1.062296	0.499989
C159	C	0.672326	-0.074136	-0.574032
C160	C	1.172326	0.425864	-0.074032
C161	C	0.672319	-0.074134	-0.426194
C162	C	1.172319	0.425866	0.073806
N163	N	0.672335	-0.074136	0.308125
N164	N	1.172335	0.425864	0.808125
H165	H	0.206289	-0.220908	-0.000043
H166	H	0.706289	0.279092	0.499957
H167	H	0.762606	0.765820	-0.000076
H168	H	1.262606	1.265820	0.499924
H169	H	-0.167632	-0.164421	-0.000104
H170	H	0.332368	0.335579	0.499896
N171	N	0.832913	0.385941	-0.000099
N172	N	1.332913	0.885941	0.499901
H173	H	0.835525	0.361604	0.080194
H174	H	1.335525	0.861604	0.580194
H175	H	0.835502	0.361652	-0.080447
H176	H	1.335502	0.861652	0.419553
H177	H	0.525552	0.459830	-0.000039
H178	H	1.025552	0.959830	0.499961
H179	H	0.575489	0.632392	-0.000022
H180	H	1.075489	1.132392	0.499978
N181	N	0.513214	0.342363	-0.000058
N182	N	1.013214	0.842363	0.499942
H183	H	0.479995	0.365718	-0.000044
H184	H	0.979995	0.865718	0.499956
H185	H	0.511241	0.317425	-0.080365
H186	H	1.011241	0.817425	0.419635
H187	H	0.246123	0.071339	-0.000240
H188	H	0.746123	0.571339	0.499760
N189	N	0.777716	0.652068	-0.000110
N190	N	1.277716	1.152068	0.499890
H191	H	0.810273	0.684379	-0.000120
H192	H	1.310273	1.184379	0.499880
H193	H	0.780277	0.627724	0.080186
H194	H	1.280277	1.127724	0.580186
H195	H	0.486602	-0.172255	-0.000027
H196	H	0.986602	0.327745	0.499973
H197	H	0.580742	0.193674	-0.000136
H198	H	1.080742	0.693674	0.499864
H199	H	0.378852	-0.170970	-0.000065
H200	H	0.878852	0.329030	0.499935
N201	N	0.088822	-0.233245	-0.000132
N202	N	0.588822	0.266755	0.499868
H203	H	0.112177	-0.266464	-0.000135
H204	H	0.612177	0.233536	0.499865
H205	H	0.063855	-0.235238	0.080145
H206	H	0.563855	0.264762	0.580145
N207	N	0.568407	0.076192	-0.000155
N208	N	1.068407	0.576192	0.499845
H209	H	0.576795	0.035132	-0.000166
H210	H	1.076795	0.535132	0.499834
H211	H	0.545612	0.083471	0.080151
H212	H	1.045612	0.583471	0.580151
N213	N	-0.053883	-0.179533	-0.000076
N214	N	0.446117	0.320467	0.499924
H215	H	-0.086197	-0.212087	-0.000056
H216	H	0.413803	0.287913	0.499944
H217	H	-0.029547	-0.182094	-0.080371
H218	H	0.470453	0.317906	0.419629
H219	H	0.770441	0.111594	-0.000230
H220	H	1.270441	0.611594	0.499770
N221	N	0.782780	0.229066	-0.000181
N222	N	1.282780	0.729066	0.499819
H223	H	0.816001	0.205714	-0.000205
H224	H	1.316001	0.705714	0.499795
H225	H	0.784744	0.254031	-0.080473
H226	H	1.284744	0.754031	0.419527
H227	H	0.817799	0.499664	-0.000076
H228	H	1.317799	0.999664	0.499924
H229	H	-0.141947	0.023982	-0.000170
H230	H	0.358053	0.523982	0.499830
N231	N	-0.024480	0.036324	-0.000185
N232	N	0.475520	0.536324	0.499815
H233	H	0.000479	0.038345	0.080109
H234	H	0.500479	0.538345	0.580109
H235	H	0.000444	0.038319	-0.080532
H236	H	0.500444	0.538319	0.419468
N237	N	0.132392	0.086450	-0.000253
N238	N	0.632392	0.586450	0.499747
H239	H	0.164709	0.119002	-0.000278
H240	H	0.664709	0.619002	0.499722
H241	H	0.108060	0.089007	-0.080557
H242	H	0.608060	0.589007	0.419443
H243	H	0.574205	0.740143	-0.000028
H244	H	1.074205	1.240143	0.499972
N245	N	0.398521	0.031253	-0.000143
N246	N	0.898521	0.531253	0.499857
H247	H	0.411944	0.053829	0.080143
H248	H	0.911944	0.553829	0.580143
H249	H	0.411962	0.053784	-0.080498
H250	H	0.911962	0.553784	0.419502
N251	N	0.521994	0.029779	-0.000140
N252	N	1.021994	0.529779	0.499860
H253	H	0.546955	0.031799	0.080150
H254	H	1.046955	0.531799	0.580150
H255	H	0.546916	0.031758	-0.080491
H256	H	1.046916	0.531758	0.419509
