data_functionalizedCrystal
_audit_creation_method	'MofGen! by Chris Wilmer'
_symmetry_space_group_name_H-M	'P1'
_symmetry_Int_Tables_number	1
_symmetry_cell_setting	triclinic
loop_
_symmetry_equiv_pos_as_xyz
  x,y,z
_cell_length_a	13.032831
_cell_length_b	16.120444
_cell_length_c	16.120256
_cell_angle_alpha	95.616860
_cell_angle_beta	86.057501
_cell_angle_gamma	86.079645
loop_
_atom_site_label
_atom_site_type_symbol
_atom_site_fract_x
_atom_site_fract_y
_atom_site_fract_z
Zn1	Zn	1.523142	-0.519561	-0.651752
Zn2	Zn	2.023142	-0.019561	-0.151752
Zn3	Zn	1.523010	-0.652233	-0.519049
Zn4	Zn	2.023010	-0.152233	-0.019049
Zn5	Zn	1.359933	-0.495049	-0.494607
Zn6	Zn	1.859933	0.004951	0.005393
Zn7	Zn	1.341469	-0.639875	-0.639430
Zn8	Zn	1.841469	-0.139875	-0.139430
O9	O	1.436888	-0.576680	-0.576210
O10	O	1.936888	-0.076680	-0.076210
O11	O	1.667404	-0.552591	-0.649535
O12	O	2.167404	-0.052591	-0.149535
O13	O	1.509049	-0.626296	-0.399662
O14	O	2.009049	-0.126296	0.100338
O15	O	1.389366	-0.382166	-0.510381
O16	O	1.889366	0.117834	-0.010381
O17	O	1.667306	-0.650065	-0.552039
O18	O	2.167306	-0.150065	-0.052039
O19	O	1.509275	-0.400176	-0.625834
O20	O	2.009275	0.099824	-0.125834
O21	O	1.389237	-0.510813	-0.381704
O22	O	1.889237	-0.010813	0.118296
O23	O	1.213204	-0.498830	-0.498432
O24	O	1.713204	0.001170	0.001568
O25	O	1.357897	-0.629002	-0.757209
O26	O	1.857897	-0.129002	-0.257209
O27	O	1.199639	-0.605233	-0.604832
O28	O	1.699639	-0.105233	-0.104832
O29	O	1.491371	-0.540608	-0.766263
O30	O	1.991371	-0.040608	-0.266263
O31	O	1.491145	-0.766728	-0.540090
O32	O	1.991145	-0.266728	-0.040090
O33	O	1.357768	-0.757649	-0.628533
O34	O	1.857768	-0.257649	-0.128533
C35	C	1.169012	-0.548031	-0.547643
C36	C	1.669012	-0.048031	-0.047643
C37	C	1.054410	-0.535796	-0.535443
C38	C	1.554410	-0.035796	-0.035443
C39	C	0.996633	-0.583066	-0.582577
C40	C	1.496633	-0.083066	-0.082577
C41	C	0.878186	-0.570421	-0.569969
C42	C	1.378186	-0.070421	-0.069969
C43	C	1.422465	-0.792305	-0.585648
C44	C	1.922465	-0.292305	-0.085648
C45	C	1.416388	-0.884561	-0.589723
C46	C	1.916388	-0.384561	-0.089723
C47	C	1.468658	-1.099057	-0.555273
C48	C	1.968658	-0.599057	-0.055273
C49	C	1.405309	-1.053473	-0.597175
C50	C	1.905309	-0.553473	-0.097175
C51	C	1.411475	-0.959482	-0.593028
C52	C	1.911475	-0.459482	-0.093028
C53	C	1.462494	-1.193056	-0.559419
C54	C	1.962494	-0.693056	-0.059419
C55	C	1.705811	-0.605441	-0.604888
C56	C	2.205811	-0.105441	-0.104888
C57	C	1.820410	-0.617697	-0.617109
C58	C	2.320410	-0.117697	-0.117109
C59	C	1.422589	-0.586161	-0.792693
C60	C	1.922589	-0.086161	-0.292693
C61	C	1.416496	-0.590201	-0.884946
C62	C	1.916496	-0.090201	-0.384946
C63	C	1.451395	-0.360217	-0.566756
C64	C	1.951395	0.139783	-0.066756
C65	C	1.457577	-0.267973	-0.562727
C66	C	1.957577	0.232027	-0.062727
C67	C	1.468665	-0.555589	-1.099430
C68	C	1.968665	-0.055589	-0.599430
C69	C	1.405338	-0.597540	-1.053842
C70	C	1.905338	-0.097540	-0.553842
C71	C	1.411548	-0.593455	-0.959859
C72	C	1.911548	-0.093455	-0.459859
C73	C	1.462457	-0.559672	-1.193421
C74	C	1.962457	-0.059672	-0.693421
C75	C	1.451196	-0.567182	-0.360572
C76	C	1.951196	-0.067182	0.139428
C77	C	1.457504	-0.562929	-0.268331
C78	C	1.957504	-0.062929	0.231669
H79	H	1.034857	-0.632893	-0.632267
H80	H	1.534857	-0.132893	-0.132267
Cl81	Cl	1.559554	-0.495394	-1.050713
Cl82	Cl	2.059554	0.004606	-0.550713
Cl83	Cl	1.314421	-1.102200	-0.657367
Cl84	Cl	1.814421	-0.602200	-0.157367
Cl85	Cl	1.314433	-0.657729	-1.102556
Cl86	Cl	1.814433	-0.157729	-0.602556
Cl87	Cl	0.819185	-0.493477	-0.493253
Cl88	Cl	1.319185	0.006523	0.006747
Cl89	Cl	0.879408	-0.694625	-0.693841
Cl90	Cl	1.379408	-0.194625	-0.193841
H91	H	1.016186	-0.485963	-0.485759
H92	H	1.516186	0.014037	0.014241
H93	H	1.527518	-1.067497	-0.516287
H94	H	2.027518	-0.567497	-0.016287
