data_functionalizedCrystal
_audit_creation_method	'MofGen! by Chris Wilmer'
_symmetry_space_group_name_H-M	'P1'
_symmetry_Int_Tables_number	1
_symmetry_cell_setting	triclinic
loop_
_symmetry_equiv_pos_as_xyz
  x,y,z
_cell_length_a	17.077404
_cell_length_b	18.101395
_cell_length_c	17.077396
_cell_angle_alpha	89.971698
_cell_angle_beta	89.982756
_cell_angle_gamma	90.031329
loop_
_atom_site_label
_atom_site_type_symbol
_atom_site_fract_x
_atom_site_fract_y
_atom_site_fract_z
Zn1	Zn	1.199992	-0.294819	-0.443848
Zn2	Zn	1.199886	-0.418670	-0.312585
Zn3	Zn	1.068729	-0.294847	-0.312596
Zn4	Zn	1.068673	-0.418624	-0.443808
O5	O	1.134320	-0.356740	-0.378209
O6	O	1.309825	-0.311256	-0.426448
O7	O	1.182466	-0.402275	-0.202739
O8	O	1.086210	-0.191210	-0.330029
O9	O	1.309747	-0.402248	-0.330009
O10	O	1.182648	-0.191190	-0.426459
O11	O	1.086106	-0.311303	-0.202748
O12	O	0.958875	-0.311259	-0.329990
O13	O	1.086114	-0.402170	-0.553660
O14	O	0.958834	-0.402197	-0.426391
O15	O	1.182594	-0.311211	-0.553690
O16	O	1.182412	-0.522296	-0.329970
O17	O	1.086011	-0.522263	-0.426379
C18	C	0.930372	-0.356726	-0.378188
C19	C	0.843123	-0.356738	-0.378197
C20	C	0.802131	-0.404162	-0.428312
C21	C	0.720151	-0.404163	-0.428325
C22	C	0.679163	-0.356745	-0.378218
C23	C	0.720160	-0.309317	-0.328100
C24	C	0.802139	-0.309312	-0.328092
C25	C	0.549290	-0.309331	-0.328119
C26	C	0.467305	-0.309337	-0.328126
C27	C	0.467302	-0.404183	-0.428352
C28	C	0.549281	-0.404178	-0.428344
C29	C	0.590272	-0.356750	-0.378225
C30	C	1.134215	-0.549150	-0.378186
C31	C	1.134242	-0.631464	-0.378203
C32	C	1.134414	-0.930555	-0.378245
C33	C	1.073902	-0.899240	-0.439054
C34	C	1.073614	-0.813622	-0.438863
C35	C	1.134329	-0.782173	-0.378225
C36	C	1.111935	-0.813326	-0.295495
C37	C	1.111545	-0.898971	-0.295859
C38	C	1.217453	-0.898898	-0.399437
C39	C	1.216965	-0.813247	-0.401252
C40	C	1.134282	-0.698313	-0.378208
C41	C	1.134459	-1.014415	-0.378256
C42	C	1.339064	-0.356754	-0.378231
C43	C	1.426314	-0.356760	-0.378241
C44	C	1.134360	-0.356682	-0.582954
C45	C	1.134376	-0.356658	-0.670203
C46	C	1.134447	-0.163578	-0.378250
C47	C	1.134501	-0.081264	-0.378267
C48	C	1.084217	-0.309283	-0.711197
C49	C	1.084230	-0.309266	-0.793178
C50	C	1.134407	-0.356621	-0.834163
C51	C	1.184568	-0.404001	-0.793163
C52	C	1.184551	-0.404021	-0.711184
C53	C	1.184602	-0.403955	-0.964033
C54	C	1.184621	-0.403934	-1.046018
C55	C	1.084281	-0.309200	-1.046027
C56	C	1.084264	-0.309220	-0.964048
C57	C	1.134427	-0.356599	-0.923054
C58	C	1.134326	-0.356744	-0.174261
C59	C	1.134461	-0.356559	-0.087012
H60	H	0.582662	-0.270704	-0.287314
H61	H	1.043362	-0.270717	-0.677833
F62	F	0.845747	-0.454635	-0.481641
F63	F	1.030814	-0.258871	-0.836803
F64	F	1.237966	-0.454404	-0.836785
H65	H	1.043409	-0.270656	-0.930680
H66	H	0.433923	-0.442798	-0.469163
F67	F	1.238029	-0.454330	-1.089636
F68	F	1.091925	-0.786086	-0.519044
H69	H	0.433935	-0.270716	-0.287333
F70	F	1.167730	-0.786703	-0.234658
H71	H	0.686780	-0.442780	-0.469133
F72	F	1.237935	-0.454447	-0.667556
F73	F	1.030895	-0.258774	-1.089657
F74	F	1.092029	-0.926097	-0.519495
H75	H	1.012726	-0.920827	-0.425192
F76	F	1.237988	-0.454385	-0.920406
H77	H	0.582651	-0.442794	-0.469141
H78	H	1.153708	-0.919689	-0.249007
F79	F	0.676535	-0.258846	-0.274777
H80	H	0.835513	-0.270691	-0.287287
H81	H	1.012064	-0.793199	-0.424826
H82	H	1.051877	-0.791941	-0.277221
F83	F	1.032205	-0.925171	-0.272395
F84	F	1.239040	-0.786631	-0.480832
F85	F	1.244140	-0.927061	-0.476945
H86	H	1.262537	-0.919149	-0.355148
F87	F	1.279014	-0.785256	-0.347586
