data_functionalizedCrystal
_audit_creation_method	'MofGen! by Chris Wilmer'
_symmetry_space_group_name_H-M	'P1'
_symmetry_Int_Tables_number	1
_symmetry_cell_setting	triclinic
loop_
_symmetry_equiv_pos_as_xyz
  x,y,z
_cell_length_a	19.077105
_cell_length_b	16.625546
_cell_length_c	19.077569
_cell_angle_alpha	87.674615
_cell_angle_beta	85.299277
_cell_angle_gamma	87.718759
loop_
_atom_site_label
_atom_site_type_symbol
_atom_site_fract_x
_atom_site_fract_y
_atom_site_fract_z
Zn1	Zn	1.093727	-0.351109	-0.441842
Zn2	Zn	1.088914	-0.491150	-0.323948
Zn3	Zn	0.971109	-0.351121	-0.319237
Zn4	Zn	0.975810	-0.480687	-0.437068
O5	O	1.032390	-0.418516	-0.380524
O6	O	1.191739	-0.374059	-0.430172
O7	O	1.069305	-0.476958	-0.224672
O8	O	0.987422	-0.238288	-0.335527
O9	O	1.188202	-0.476947	-0.343556
O10	O	1.077509	-0.238279	-0.425604
O11	O	0.982755	-0.374079	-0.221211
O12	O	0.873082	-0.363934	-0.330898
O13	O	0.995433	-0.459114	-0.536353
O14	O	0.876536	-0.459126	-0.417468
O15	O	1.082067	-0.363914	-0.539860
O16	O	1.073863	-0.602593	-0.338928
O17	O	0.990766	-0.594906	-0.422037
C18	C	0.849230	-0.410396	-0.373155
C19	C	0.770874	-0.406941	-0.370019
C20	C	1.032322	-0.628006	-0.380492
C21	C	1.032358	-0.717628	-0.380504
C22	C	0.735876	-0.454960	-0.413547
C23	C	0.662253	-0.451703	-0.410604
C24	C	0.623629	-0.400430	-0.364128
C25	C	0.658632	-0.352406	-0.320598
C26	C	0.732254	-0.355660	-0.323546
C27	C	0.403247	-0.385372	-0.350492
C28	C	0.329619	-0.382124	-0.347547
C29	C	0.333246	-0.481420	-0.437553
C30	C	0.406869	-0.484673	-0.440493
C31	C	0.441866	-0.436645	-0.396966
N32	N	0.548373	-0.397102	-0.361117
N33	N	0.517120	-0.439971	-0.399981
C34	C	1.032484	-1.045806	-0.380582
C35	C	1.032447	-0.954496	-0.380562
C36	C	1.032421	-0.881720	-0.380543
C37	C	1.032385	-0.790405	-0.380524
C38	C	1.216265	-0.426669	-0.387922
C39	C	1.294621	-0.430143	-0.391075
C40	C	1.039811	-0.410346	-0.564401
C41	C	1.042974	-0.406864	-0.642758
C42	C	1.032478	-0.208209	-0.380572
C43	C	1.032515	-0.118589	-0.380593
C44	C	0.999355	-0.454790	-0.677746
C45	C	1.002333	-0.451519	-0.751371
C46	C	1.048926	-0.400317	-0.790008
C47	C	1.092549	-0.352389	-0.755015
C48	C	1.089575	-0.355665	-0.681391
C49	C	1.062661	-0.385208	-1.010396
C50	C	1.065631	-0.381934	-1.084024
C51	C	0.975415	-0.481065	-1.080376
C52	C	0.972442	-0.484333	-1.006751
C53	C	1.016068	-0.436408	-0.971764
N54	N	1.051968	-0.396970	-0.865265
N55	N	1.013028	-0.439760	-0.896509
C56	C	1.025038	-0.426599	-0.197364
C57	C	1.022012	-0.429860	-0.119012
H58	H	0.767319	-0.496714	-0.451390
C59	C	0.616145	-0.296001	-0.269480
C60	C	0.626530	-0.204536	-0.275790
C61	C	0.584043	-0.148130	-0.224671
C62	C	0.531171	-0.183191	-0.167241
C63	C	0.520783	-0.274661	-0.160928
C64	C	0.563270	-0.331066	-0.212047
H65	H	0.665671	-0.178578	-0.318305
H66	H	0.591733	-0.080418	-0.229344
H67	H	0.499719	-0.141436	-0.129399
H68	H	0.481642	-0.300619	-0.118412
H69	H	0.555580	-0.398779	-0.207373
C70	C	0.770757	-0.302838	-0.275665
C71	C	0.760898	-0.210479	-0.281162
C72	C	0.799400	-0.157651	-0.233284
C73	C	0.847761	-0.197184	-0.179909
C74	C	0.857622	-0.289548	-0.174410
C75	C	0.819120	-0.342375	-0.222288
H76	H	0.725096	-0.181210	-0.320675
H77	H	0.792100	-0.089277	-0.237355
H78	H	0.876263	-0.158078	-0.144467
H79	H	0.893424	-0.318817	-0.134897
H80	H	0.826420	-0.410750	-0.218217
H81	H	1.103570	-0.340231	-1.115480
C82	C	0.921160	-0.540638	-0.964270
C83	C	0.863776	-0.505462	-0.911463
C84	C	0.812477	-0.561754	-0.868990
C85	C	0.818561	-0.653222	-0.879323
C86	C	0.875947	-0.688402	-0.932132
C87	C	0.927246	-0.632110	-0.974605
H88	H	0.859270	-0.437748	-0.903812
H89	H	0.769996	-0.535710	-0.829897
H90	H	0.780586	-0.694892	-0.847881
H91	H	0.880453	-0.756116	-0.939783
H92	H	0.969727	-0.658154	-1.013698
H93	H	0.633761	-0.490806	-0.446049
H94	H	0.939897	-0.520083	-1.108870
H95	H	1.098185	-0.346184	-0.981919
C96	C	0.948103	-0.511115	-0.635248
C97	C	0.868373	-0.500536	-0.642151
C98	C	0.817122	-0.556865	-0.599654
C99	C	0.845601	-0.623771	-0.550255
C100	C	0.925334	-0.634353	-0.543350
C101	C	0.976585	-0.578024	-0.585847
H102	H	0.847288	-0.451005	-0.678721
H103	H	0.758098	-0.549031	-0.604766
H104	H	0.807661	-0.665469	-0.518796
H105	H	0.946419	-0.683884	-0.506780
H106	H	1.035609	-0.585858	-0.580735
H107	H	1.130489	-0.310703	-0.786478
H108	H	1.125093	-0.316638	-0.652905
H109	H	0.438312	-0.526426	-0.478337
H110	H	0.298174	-0.340362	-0.309705
C111	C	0.294748	-0.534240	-0.485437
C112	C	0.213767	-0.530664	-0.482203
C113	C	0.175270	-0.583483	-0.530092
C114	C	0.217755	-0.639879	-0.581216
C115	C	0.298741	-0.643458	-0.584452
C116	C	0.337238	-0.590638	-0.536563
H117	H	0.182313	-0.488914	-0.444357
H118	H	0.115319	-0.580834	-0.527696
H119	H	0.189258	-0.678979	-0.616666
H120	H	0.330195	-0.685207	-0.622299
H121	H	0.397189	-0.593288	-0.538959
H122	H	0.431732	-0.346271	-0.315044
H123	H	0.966815	-0.490546	-0.779855
