data_functionalizedCrystal
_audit_creation_method	'MofGen! by Chris Wilmer'
_symmetry_space_group_name_H-M	'P1'
_symmetry_Int_Tables_number	1
_symmetry_cell_setting	triclinic
loop_
_symmetry_equiv_pos_as_xyz
  x,y,z
_cell_length_a	17.699083
_cell_length_b	23.532407
_cell_length_c	16.176319
_cell_angle_alpha	89.988536
_cell_angle_beta	89.998611
_cell_angle_gamma	83.065847
loop_
_atom_site_label
_atom_site_type_symbol
_atom_site_fract_x
_atom_site_fract_y
_atom_site_fract_z
O1	O	1.003713	0.072020	-0.068639
O2	O	0.783287	0.081390	-0.068667
O3	O	0.900147	-0.006208	-0.068637
O4	O	0.886853	0.159618	-0.068669
O5	O	0.900131	-0.006213	0.068856
O6	O	0.783271	0.081384	0.068826
O7	O	1.003697	0.072014	0.068854
Cu8	Cu	0.893483	0.076699	0.081394
Cu9	Cu	0.893502	0.076705	-0.081207
O10	O	0.886837	0.159612	0.068824
C11	C	0.755084	0.081051	0.000076
C12	C	0.671071	0.080044	0.000066
C13	C	0.622189	0.131462	0.000056
C14	C	0.543251	0.130512	0.000067
C15	C	0.513196	0.078144	0.000082
C16	C	0.562084	0.026722	0.000094
C17	C	0.641021	0.027672	0.000089
C18	C	0.243740	0.022888	0.000115
C19	C	0.164797	0.021942	0.000117
C20	C	0.145970	0.125728	0.000093
C21	C	0.224907	0.126678	0.000088
C22	C	0.273788	0.075257	0.000105
C23	C	0.359382	0.076287	0.000094
C24	C	0.427603	0.077113	0.000086
C25	C	0.899801	-0.027427	0.000111
C26	C	0.898783	-0.090647	0.000118
C27	C	0.961554	-0.489570	0.000080
C28	C	0.960609	-0.548973	0.000074
O29	O	1.018799	-0.585550	0.000051
N30	N	0.891136	-0.571799	0.000066
C31	C	0.822604	-0.535218	0.000055
O32	O	0.763424	-0.560088	0.000047
C33	C	0.823550	-0.475816	0.000056
C34	C	0.893028	-0.452994	0.000073
C35	C	1.031026	-0.466747	0.000096
C36	C	1.031972	-0.407348	0.000104
C37	C	0.963445	-0.370772	0.000096
C38	C	0.893973	-0.393595	0.000080
C39	C	0.755019	-0.439237	0.000040
C40	C	0.755971	-0.379832	0.000039
C41	C	0.825448	-0.357009	0.000056
C42	C	0.826391	-0.297620	0.000081
N43	N	0.895864	-0.274795	0.000089
C44	C	0.964391	-0.311371	0.000097
C45	C	0.820622	-0.659966	0.000053
C46	C	0.819674	-0.719367	0.000058
C47	C	0.957680	-0.733118	0.000075
C48	C	0.958626	-0.673716	0.000076
C49	C	0.890095	-0.637141	0.000061
C50	C	0.966371	-0.186628	0.000114
C51	C	0.967310	-0.127223	0.000125
C52	C	0.829305	-0.113478	0.000104
C53	C	0.828365	-0.172877	0.000097
C54	C	0.896904	-0.209452	0.000099
O55	O	0.768232	-0.261008	0.000100
O56	O	1.023560	-0.286493	0.000094
C57	C	1.031901	0.072353	0.000109
C58	C	1.115914	0.073360	0.000114
C59	C	0.887184	0.180832	0.000073
C60	C	0.888202	0.244052	0.000062
N61	N	0.893475	0.076694	0.195759
N62	N	0.893516	0.076706	-0.195573
C63	C	0.945236	0.037921	0.239037
C64	C	0.945240	0.037921	0.325584
C65	C	0.893486	0.076696	0.368852
C66	C	0.841719	0.115470	0.325568
C67	C	0.841713	0.115467	0.239023
C68	C	0.841745	0.115481	0.674597
C69	C	0.841758	0.115481	0.761148
C70	C	0.945273	0.037934	0.761158
C71	C	0.945266	0.037932	0.674612
C72	C	0.893497	0.076704	0.631336
C73	C	0.893493	0.076703	0.537492
C74	C	0.893493	0.076700	0.462695
H75	H	0.106161	0.167598	0.000084
H76	H	0.283530	-0.018983	0.000129
O77	O	0.253976	0.177599	0.000111
C78	C	0.193903	0.222779	0.000086
H79	H	0.140394	0.206888	0.026121
H80	H	0.210127	0.259345	0.039997
H81	H	0.182612	0.238639	-0.065879
H82	H	1.015201	-0.655139	0.000089
O83	O	0.754094	-0.624381	0.000160
C84	C	0.750492	-0.589629	0.071381
H85	H	0.810539	-0.586698	0.095127
H86	H	0.721946	-0.544947	0.055365
H87	H	0.716076	-0.609140	0.121240
O88	O	1.032899	-0.222209	0.000230
C89	C	1.036486	-0.256982	0.071447
H90	H	0.976432	-0.259923	0.095175
H91	H	1.065038	-0.301659	0.055435
H92	H	1.070887	-0.237485	0.121320
O93	O	0.791402	0.153168	0.803052
C94	C	0.745719	0.187397	0.746298
H95	H	0.745036	0.164048	0.684613
H96	H	0.685215	0.196136	0.771314
H97	H	0.769962	0.229685	0.737076
O98	O	1.024180	-0.768735	0.000036
C99	C	1.008439	-0.826057	0.000048
H100	H	0.949007	-0.828248	-0.025984
H101	H	1.052143	-0.853020	-0.039873
H102	H	1.011437	-0.843253	0.066008
O103	O	0.532765	-0.024099	0.000073
C104	C	0.452611	-0.013914	0.000093
H105	H	0.433736	0.030556	-0.025947
H106	H	0.428624	-0.047416	-0.039816
H107	H	0.430657	-0.016645	0.066057
H108	H	0.799595	0.147051	0.639368
H109	H	0.646653	0.174106	0.000044
H110	H	0.771791	-0.191460	0.000106
O111	O	0.995627	0.000241	0.803069
C112	C	1.041291	-0.033991	0.746320
H113	H	1.041966	-0.010640	0.684622
H114	H	1.101799	-0.042740	0.771322
H115	H	1.017034	-0.076274	0.737127
H116	H	0.680820	-0.014197	0.000096
H117	H	1.023889	-0.108645	0.000141
O118	O	0.791518	0.153115	0.367724
C119	C	0.802611	0.144796	0.453392
H120	H	0.862944	0.123454	0.465213
H121	H	0.793866	0.187935	0.486268
H122	H	0.759993	0.116273	0.477970
H123	H	1.088547	-0.388773	0.000114
H124	H	1.086833	-0.496522	0.000099
H125	H	0.773512	-0.083687	0.000101
O126	O	0.752117	-0.741438	0.000015
C127	C	0.691842	-0.696411	0.000032
H128	H	0.712755	-0.656080	-0.025990
H129	H	0.643311	-0.708752	-0.039895
H130	H	0.670720	-0.687989	0.065992
O131	O	0.791405	0.153188	0.197108
C132	C	0.745714	0.187403	0.253854
H133	H	0.776744	0.188021	0.315542
H134	H	0.733819	0.232895	0.228832
H135	H	0.689634	0.168963	0.263073
O136	O	0.687460	-0.461302	-0.000017
C137	C	0.627190	-0.416271	-0.000009
H138	H	0.648111	-0.375943	-0.026029
H139	H	0.578662	-0.428609	-0.039942
H140	H	0.606061	-0.407847	0.065949
O141	O	0.689417	-0.344279	-0.000119
C142	C	0.685852	-0.309485	-0.071314
H143	H	0.724733	-0.331278	-0.121080
H144	H	0.624838	-0.302727	-0.095228
H145	H	0.705100	-0.266314	-0.055206
O146	O	0.995602	0.000242	0.367495
C147	C	1.041274	-0.033986	0.310748
H148	H	1.041936	-0.010639	0.249045
H149	H	1.101785	-0.042719	0.335745
H150	H	1.017035	-0.076276	0.301565
H151	H	0.987383	0.006349	0.203814
H152	H	0.987411	0.006359	0.639386
O153	O	0.495875	0.180512	0.000020
C154	C	0.539329	0.226937	0.000022
H155	H	0.598356	0.212400	-0.026012
H156	H	0.509934	0.262958	-0.039903
H157	H	0.544835	0.242994	0.065979
O158	O	0.135727	-0.028982	0.000173
C159	C	0.195796	-0.074165	0.000168
H160	H	0.249307	-0.058277	0.026192
H161	H	0.179570	-0.110731	0.040099
H162	H	0.207086	-0.090022	-0.065789
