data_functionalizedCrystal
_audit_creation_method	'MofGen! by Chris Wilmer'
_symmetry_space_group_name_H-M	'P1'
_symmetry_Int_Tables_number	1
_symmetry_cell_setting	triclinic
loop_
_symmetry_equiv_pos_as_xyz
  x,y,z
_cell_length_a	10.968094
_cell_length_b	10.065918
_cell_length_c	11.026607
_cell_angle_alpha	82.346549
_cell_angle_beta	83.620158
_cell_angle_gamma	87.802429
loop_
_atom_site_label
_atom_site_type_symbol
_atom_site_fract_x
_atom_site_fract_y
_atom_site_fract_z
O1	O	1.645788	-0.273542	-0.131913
O2	O	1.300464	-0.192331	-0.159693
O3	O	1.444505	-0.226211	0.030149
O4	O	1.501747	-0.239663	-0.321755
O5	O	1.406139	-0.444178	0.060885
O6	O	1.262098	-0.410298	-0.128958
O7	O	1.607423	-0.491509	-0.101177
Zn8	Zn	1.428669	-0.485510	-0.110188
Zn9	Zn	1.479217	-0.198330	-0.150683
O10	O	1.463381	-0.457629	-0.291020
C11	C	1.236385	-0.290756	-0.144627
C12	C	1.102605	-0.259295	-0.145513
C13	C	0.884811	-0.325656	-0.130889
C14	C	1.023078	-0.358187	-0.129981
N15	N	1.394180	-0.681506	-0.082550
C16	C	1.467210	-0.766458	-0.141067
C17	C	1.440674	-0.917385	-0.119785
C18	C	1.671502	-0.393081	-0.116243
C19	C	1.805283	-0.424534	-0.115359
C20	C	1.414763	-0.332709	0.090469
C21	C	1.383284	-0.325302	0.224411
N22	N	1.513714	-0.002337	-0.178311
C23	C	1.493124	-0.351128	-0.351340
C24	C	1.524604	-0.358527	-0.485283
C25	C	1.470204	-0.345741	0.300347
C26	C	1.437672	-0.338085	0.438783
H27	H	1.068337	-0.150552	-0.159483
C28	C	1.578223	-0.713788	-0.230026
H29	H	1.620607	-0.786659	-0.263971
H30	H	1.550628	-0.651555	-0.294381
H31	H	1.631941	-0.670676	-0.186593
H32	H	1.057347	-0.466929	-0.116006
C33	C	1.657677	-0.389835	0.464112
H34	H	1.662086	-0.390887	0.377709
H35	H	1.709905	-0.322966	0.480976
H36	H	1.683125	-0.474991	0.502422
C37	C	0.838528	-0.178760	-0.149779
H38	H	0.906353	-0.120943	-0.159403
H39	H	0.796473	-0.163804	-0.221361
H40	H	0.784219	-0.160899	-0.080214
C41	C	0.851575	-0.571428	-0.096491
H42	H	0.938434	-0.574022	-0.098365
H43	H	0.816305	-0.614009	-0.019169
H44	H	0.828558	-0.616876	-0.160322
H45	H	1.358502	-0.956384	-0.053922
H46	H	1.568703	-0.368913	0.262871
H47	H	1.595891	-0.963341	-0.244168
C48	C	1.304598	-0.306780	0.489385
H49	H	1.254285	-0.294939	0.423790
H50	H	1.275320	-0.379045	0.548512
H51	H	1.302093	-0.227019	0.527056
C52	C	1.283173	-0.734184	0.006414
H53	H	1.279895	-0.828712	0.009040
H54	H	1.291224	-0.712725	0.086426
H55	H	1.209904	-0.693621	-0.021357
H56	H	1.284786	-0.302129	0.261886
