data_functionalizedCrystal
_audit_creation_method	'MofGen! by Chris Wilmer'
_symmetry_space_group_name_H-M	'P1'
_symmetry_Int_Tables_number	1
_symmetry_cell_setting	triclinic
loop_
_symmetry_equiv_pos_as_xyz
  x,y,z
_cell_length_a	10.686220
_cell_length_b	18.101395
_cell_length_c	10.685880
_cell_angle_alpha	94.338576
_cell_angle_beta	89.641569
_cell_angle_gamma	94.412841
loop_
_atom_site_label
_atom_site_type_symbol
_atom_site_fract_x
_atom_site_fract_y
_atom_site_fract_z
Zn1	Zn	1.972144	-0.231178	-0.562366
Zn2	Zn	1.955871	-0.346339	-0.352610
Zn3	Zn	1.746273	-0.232688	-0.368689
Zn4	Zn	1.762280	-0.365163	-0.578382
O5	O	1.859142	-0.293842	-0.465512
O6	O	2.145532	-0.237945	-0.521110
O7	O	1.914559	-0.324017	-0.179202
O8	O	1.776347	-0.128851	-0.394407
O9	O	2.133577	-0.322553	-0.367004
O10	O	1.942293	-0.127742	-0.536701
O11	O	1.760568	-0.240518	-0.191015
O12	O	1.572850	-0.258770	-0.409936
O13	O	1.803628	-0.354636	-0.751798
O14	O	1.584610	-0.356100	-0.563997
O15	O	1.957814	-0.256198	-0.740032
O16	O	1.930080	-0.452473	-0.382533
O17	O	1.787849	-0.466303	-0.548406
C18	C	1.533212	-0.309642	-0.490450
C19	C	1.393780	-0.316420	-0.501148
C20	C	1.858971	-0.486259	-0.465488
C21	C	1.859016	-0.568572	-0.465511
C22	C	1.859297	-0.867653	-0.465557
C23	C	1.770052	-0.845059	-0.570143
C24	C	1.769569	-0.759451	-0.569875
C25	C	1.859158	-0.719276	-0.465535
C26	C	1.813222	-0.746683	-0.336069
C27	C	1.812643	-0.832383	-0.336699
C28	C	1.994600	-0.830961	-0.489256
C29	C	1.994042	-0.745468	-0.492216
C30	C	1.859081	-0.635419	-0.465514
C31	C	1.859370	-0.951509	-0.465569
C32	C	2.186345	-0.277981	-0.440477
C33	C	2.325779	-0.271222	-0.429809
C34	C	1.884322	-0.307348	-0.792703
C35	C	1.895052	-0.313104	-0.932133
C36	C	1.859350	-0.100673	-0.465561
C37	C	1.859438	-0.018356	-0.465582
C38	C	1.834133	-0.280331	-0.139588
C39	C	1.823646	-0.274355	-0.000140
H40	H	1.799769	-0.868608	-0.666793
H41	H	1.754293	-0.236780	-0.951697
N42	N	1.986910	-0.362893	-0.996294
H43	H	1.981818	-0.360090	-1.090145
H44	H	2.074779	-0.346093	-0.966602
H45	H	1.374229	-0.227341	-0.360546
H46	H	1.345323	-0.360309	-0.570408
H47	H	1.799484	-0.741364	-0.666190
N48	N	1.638296	-0.878713	-0.550723
H49	H	1.579293	-0.837819	-0.537653
H50	H	1.611265	-0.912343	-0.627050
N51	N	2.047466	-0.862606	-0.611465
H52	H	1.984235	-0.901054	-0.652706
H53	H	2.066246	-0.821354	-0.668950
H54	H	1.669484	-0.742871	-0.554978
H55	H	1.874276	-0.846727	-0.256663
N56	N	1.681238	-0.863599	-0.308538
H57	H	1.624233	-0.821670	-0.295836
H58	H	1.649520	-0.898916	-0.381118
N59	N	1.896014	-0.711237	-0.230614
H60	H	1.964258	-0.676988	-0.265833
H61	H	1.843839	-0.681823	-0.168686
H62	H	2.028498	-0.727829	-0.587445
N63	N	1.683120	-0.722923	-0.307128
H64	H	1.623222	-0.745093	-0.375072
H65	H	1.654493	-0.740820	-0.223614
N66	N	2.087855	-0.708623	-0.397596
H67	H	2.061607	-0.721732	-0.310549
H68	H	2.173526	-0.726522	-0.417209
N69	N	2.082846	-0.849261	-0.388196
H70	H	2.035482	-0.881159	-0.327346
H71	H	2.153198	-0.877086	-0.427799
