data_functionalizedCrystal
_audit_creation_method	'MofGen! by Chris Wilmer'
_symmetry_space_group_name_H-M	'P1'
_symmetry_Int_Tables_number	1
_symmetry_cell_setting	triclinic
loop_
_symmetry_equiv_pos_as_xyz
  x,y,z
_cell_length_a	19.805407
_cell_length_b	16.625545
_cell_length_c	19.805399
_cell_angle_alpha	90.025578
_cell_angle_beta	90.019573
_cell_angle_gamma	90.025558
loop_
_atom_site_label
_atom_site_type_symbol
_atom_site_fract_x
_atom_site_fract_y
_atom_site_fract_z
Zn1	Zn	1.034740	-0.321020	0.382729
Zn2	Zn	1.284740	-0.071020	0.632729
Zn3	Zn	1.534740	0.178980	0.882729
Zn4	Zn	1.784740	0.428980	1.132729
Zn5	Zn	1.034656	-0.455857	0.269545
Zn6	Zn	1.284656	-0.205857	0.519545
Zn7	Zn	1.534656	0.044143	0.769545
Zn8	Zn	1.784656	0.294143	1.019545
Zn9	Zn	0.921554	-0.321043	0.269554
Zn10	Zn	1.171554	-0.071043	0.519554
Zn11	Zn	1.421554	0.178957	0.769554
Zn12	Zn	1.671554	0.428957	1.019554
Zn13	Zn	0.921520	-0.455815	0.382692
Zn14	Zn	1.171520	-0.205815	0.632692
Zn15	Zn	1.421520	0.044185	0.882692
Zn16	Zn	1.671520	0.294185	1.132692
O17	O	0.978117	-0.388434	0.326130
O18	O	1.228117	-0.138434	0.576130
O19	O	1.478117	0.111566	0.826130
O20	O	1.728117	0.361566	1.076130
O21	O	1.129445	-0.338915	0.367727
O22	O	1.379445	-0.088915	0.617727
O23	O	1.629445	0.161085	0.867727
O24	O	1.879445	0.411085	1.117727
O25	O	1.019633	-0.438001	0.174829
O26	O	1.269633	-0.188001	0.424829
O27	O	1.519633	0.061999	0.674829
O28	O	1.769633	0.311999	0.924829
O29	O	0.936618	-0.208207	0.284586
O30	O	1.186618	0.041793	0.534586
O31	O	1.436618	0.291793	0.784586
O32	O	1.686618	0.541793	1.034586
O33	O	1.129384	-0.437980	0.284571
O34	O	1.379384	-0.187980	0.534571
O35	O	1.629384	0.062020	0.784571
O36	O	1.879384	0.312020	1.034571
O37	O	1.019775	-0.208191	0.367736
O38	O	1.269775	0.041809	0.617736
O39	O	1.519775	0.291809	0.867736
O40	O	1.769775	0.541809	1.117736
O41	O	0.936537	-0.338953	0.174836
O42	O	1.186537	-0.088953	0.424836
O43	O	1.436537	0.161047	0.674836
O44	O	1.686537	0.411047	0.924836
O45	O	0.826833	-0.338912	0.284550
O46	O	1.076833	-0.088912	0.534550
O47	O	1.326833	0.161088	0.784550
O48	O	1.576833	0.411088	1.034550
O49	O	0.936559	-0.437907	0.477413
O50	O	1.186559	-0.187907	0.727413
O51	O	1.436559	0.062093	0.977413
O52	O	1.686559	0.312093	1.227413
O53	O	0.826808	-0.437928	0.367672
O54	O	1.076808	-0.187928	0.617672
O55	O	1.326808	0.062072	0.867672
O56	O	1.576808	0.312072	1.117672
O57	O	1.019741	-0.338874	0.477441
O58	O	1.269741	-0.088874	0.727441
O59	O	1.519741	0.161126	0.977441
O60	O	1.769741	0.411126	1.227441
O61	O	1.019599	-0.568684	0.284535
O62	O	1.269599	-0.318684	0.534535
O63	O	1.519599	-0.068684	0.784535
O64	O	1.769599	0.181316	1.034535
O65	O	0.936478	-0.568653	0.367663
O66	O	1.186478	-0.318653	0.617663
O67	O	1.436478	-0.068653	0.867663
O68	O	1.686478	0.181347	1.117663
C69	C	0.802261	-0.388418	0.326108
C70	C	1.052261	-0.138418	0.576108
C71	C	1.302261	0.111582	0.826108
C72	C	1.552261	0.361582	1.076108
C73	C	0.727029	-0.388431	0.326115
C74	C	0.977029	-0.138431	0.576115
C75	C	1.227029	0.111569	0.826115
C76	C	1.477029	0.361569	1.076115
C77	C	0.978044	-0.597925	0.326108
C78	C	1.228044	-0.347925	0.576108
C79	C	1.478044	-0.097925	0.826108
C80	C	1.728044	0.152075	1.076108
C81	C	0.978074	-0.687546	0.326122
C82	C	1.228074	-0.437546	0.576122
C83	C	1.478074	-0.187546	0.826122
C84	C	1.728074	0.062454	1.076122
C85	C	0.691690	-0.440067	0.369326
C86	C	0.941690	-0.190067	0.619326
C87	C	1.191690	0.059933	0.869326
C88	C	1.441690	0.309933	1.119326
C89	C	0.621001	-0.440068	0.369336
C90	C	0.871001	-0.190068	0.619336
C91	C	1.121001	0.059932	0.869336
C92	C	1.371001	0.309932	1.119336
C93	C	0.585654	-0.388437	0.326130
C94	C	0.835654	-0.138437	0.576130
C95	C	1.085654	0.111563	0.826130
C96	C	1.335654	0.361563	1.076130
C97	C	0.620999	-0.336796	0.282916
C98	C	0.870999	-0.086796	0.532916
C99	C	1.120999	0.163204	0.782916
C100	C	1.370999	0.413204	1.032916
C101	C	0.691686	-0.336791	0.282911
C102	C	0.941686	-0.086791	0.532911
C103	C	1.191686	0.163209	0.782911
C104	C	1.441686	0.413209	1.032911
C105	C	0.335925	-0.336814	0.282939
C106	C	0.585925	-0.086814	0.532939
C107	C	0.835925	0.163186	0.782939
C108	C	1.085925	0.413186	1.032939
C109	C	0.265233	-0.336825	0.282946
C110	C	0.515233	-0.086825	0.532946
C111	C	0.765233	0.163175	0.782946
C112	C	1.015233	0.413175	1.032946
C113	C	0.265241	-0.440091	0.369364
C114	C	0.515241	-0.190091	0.619364
C115	C	0.765241	0.059909	0.869364
C116	C	1.015241	0.309909	1.119364
C117	C	0.335928	-0.440086	0.369358
C118	C	0.585928	-0.190086	0.619358
C119	C	0.835928	0.059914	0.869358
C120	C	1.085928	0.309914	1.119358
C121	C	0.371266	-0.388442	0.326147
C122	C	0.621266	-0.138442	0.576147
C123	C	0.871266	0.111558	0.826147
C124	C	1.121266	0.361558	1.076147
C125	C	0.447915	-0.388440	0.326138
C126	C	0.697915	-0.138440	0.576138
C127	C	0.947915	0.111560	0.826138
C128	C	1.197915	0.361560	1.076138
C129	C	0.509007	-0.388443	0.326135
C130	C	0.759007	-0.138443	0.576135
C131	C	1.009007	0.111557	0.826135
C132	C	1.259007	0.361557	1.076135
C133	C	0.978101	-0.760328	0.326135
C134	C	1.228101	-0.510328	0.576135
C135	C	1.478101	-0.260328	0.826135
C136	C	1.728101	-0.010328	1.076135
C137	C	0.978140	-0.851637	0.326150
C138	C	1.228140	-0.601637	0.576150
C139	C	1.478140	-0.351637	0.826150
C140	C	1.728140	-0.101637	1.076150
C141	C	0.978175	-0.924413	0.326159
C142	C	1.228175	-0.674413	0.576159
C143	C	1.478175	-0.424413	0.826159
C144	C	1.728175	-0.174413	1.076159
C145	C	0.978214	-1.015727	0.326173
C146	C	1.228214	-0.765727	0.576173
C147	C	1.478214	-0.515727	0.826173
C148	C	1.728214	-0.265727	1.076173
C149	C	1.154660	-0.388450	0.326152
C150	C	1.404660	-0.138450	0.576152
C151	C	1.654660	0.111550	0.826152
C152	C	1.904660	0.361550	1.076152
C153	C	1.229892	-0.388457	0.326162
C154	C	1.479892	-0.138457	0.576162
C155	C	1.729892	0.111543	0.826162
C156	C	1.979892	0.361543	1.076162
C157	C	0.978155	-0.388383	0.502673
C158	C	1.228155	-0.138383	0.752673
C159	C	1.478155	0.111617	1.002673
C160	C	1.728155	0.361617	1.252673
C161	C	0.978172	-0.388361	0.577905
C162	C	1.228172	-0.138361	0.827905
C163	C	1.478172	0.111639	1.077905
C164	C	1.728172	0.361639	1.327905
C165	C	0.978210	-0.178125	0.326166
C166	C	1.228210	0.071875	0.576166
C167	C	1.478210	0.321875	0.826166
C168	C	1.728210	0.571875	1.076166
C169	C	0.978249	-0.088504	0.326181
C170	C	1.228249	0.161496	0.576181
C171	C	1.478249	0.411496	0.826181
C172	C	1.728249	0.661496	1.076181
C173	C	0.978119	-0.388426	0.150274
C174	C	1.228119	-0.138426	0.400274
C175	C	1.478119	0.111574	0.650274
C176	C	1.728119	0.361574	0.900274
C177	C	0.978234	-0.388221	0.075042
C178	C	1.228234	-0.138221	0.325042
C179	C	1.478234	0.111779	0.575042
C180	C	1.728234	0.361779	0.825042
C181	C	1.021486	-0.336792	0.613264
C182	C	1.271486	-0.086792	0.863264
C183	C	1.521486	0.163208	1.113264
C184	C	1.771486	0.413208	1.363264
C185	C	1.021493	-0.336769	0.683953
C186	C	1.271493	-0.086769	0.933953
C187	C	1.521493	0.163231	1.183953
C188	C	1.771493	0.413231	1.433953
C189	C	0.978188	-0.388319	0.719280
C190	C	1.228188	-0.138319	0.969280
C191	C	1.478188	0.111681	1.219280
C192	C	1.728188	0.361681	1.469280
C193	C	0.934870	-0.439890	0.683916
C194	C	1.184870	-0.189890	0.933916
C195	C	1.434870	0.060110	1.183916
C196	C	1.684870	0.310110	1.433916
C197	C	0.934860	-0.439909	0.613228
C198	C	1.184860	-0.189909	0.863228
C199	C	1.434860	0.060091	1.113228
C200	C	1.684860	0.310091	1.363228
C201	C	0.934908	-0.439815	0.968989
C202	C	1.184908	-0.189815	1.218989
C203	C	1.434908	0.060185	1.468989
C204	C	1.684908	0.310185	1.718989
C205	C	0.934922	-0.439794	1.039681
C206	C	1.184922	-0.189794	1.289681
C207	C	1.434922	0.060206	1.539681
C208	C	1.684922	0.310206	1.789681
C209	C	1.021541	-0.336675	1.039713
C210	C	1.271541	-0.086675	1.289713
C211	C	1.521541	0.163325	1.539713
C212	C	1.771541	0.413325	1.789713
C213	C	1.021531	-0.336694	0.969026
C214	C	1.271531	-0.086694	1.219026
C215	C	1.521531	0.163306	1.469026
C216	C	1.771531	0.413306	1.719026
C217	C	0.978210	-0.388262	0.933668
C218	C	1.228210	-0.138262	1.183668
C219	C	1.478210	0.111738	1.433668
C220	C	1.728210	0.361738	1.683668
C221	C	0.978202	-0.388285	0.857019
C222	C	1.228202	-0.138285	1.107019
C223	C	1.478202	0.111715	1.357019
C224	C	1.728202	0.361715	1.607019
C225	C	0.978199	-0.388300	0.795927
C226	C	1.228199	-0.138300	1.045927
C227	C	1.478199	0.111700	1.295927
C228	C	1.728199	0.361700	1.545927
H229	H	0.720464	-0.482113	0.404507
H230	H	0.970464	-0.232113	0.654507
H231	H	1.220464	0.017887	0.904507
H232	H	1.470464	0.267887	1.154507
Br233	Br	0.383876	-0.266722	0.224299
Br234	Br	0.633876	-0.016722	0.474299
Br235	Br	0.883876	0.233278	0.724299
Br236	Br	1.133876	0.483278	0.974299
Br237	Br	0.876114	-0.509799	0.921012
Br238	Br	1.126114	-0.259799	1.171012
Br239	Br	1.376114	-0.009799	1.421012
Br240	Br	1.626114	0.240201	1.671012
Br241	Br	0.876095	-0.509848	0.731859
Br242	Br	1.126095	-0.259848	0.981859
Br243	Br	1.376095	-0.009848	1.231859
Br244	Br	1.626095	0.240152	1.481859
Br245	Br	1.080334	-0.266687	1.087703
Br246	Br	1.330334	-0.016687	1.337703
Br247	Br	1.580334	0.233313	1.587703
Br248	Br	1.830334	0.483313	1.837703
Br249	Br	1.080264	-0.266834	0.565326
Br250	Br	1.330264	-0.016834	0.815326
Br251	Br	1.580264	0.233166	1.065326
Br252	Br	1.830264	0.483166	1.315326
H253	H	0.236455	-0.294776	0.247763
H254	H	0.486455	-0.044776	0.497763
H255	H	0.736455	0.205224	0.747763
H256	H	0.986455	0.455224	0.997763
H257	H	0.592231	-0.482116	0.404522
H258	H	0.842231	-0.232116	0.654522
H259	H	1.092231	0.017884	0.904522
H260	H	1.342231	0.267884	1.154522
Br261	Br	1.080310	-0.266817	0.731938
Br262	Br	1.330310	-0.016817	0.981938
Br263	Br	1.580310	0.233183	1.231938
Br264	Br	1.830310	0.483183	1.481938
Br265	Br	0.876070	-0.509893	0.565239
Br266	Br	1.126070	-0.259893	0.815239
Br267	Br	1.376070	-0.009893	1.065239
Br268	Br	1.626070	0.240107	1.315239
Br269	Br	0.573028	-0.266717	0.224285
Br270	Br	0.823028	-0.016717	0.474285
Br271	Br	1.073028	0.233283	0.724285
Br272	Br	1.323028	0.483283	0.974285
Br273	Br	0.739648	-0.266707	0.224268
Br274	Br	0.989648	-0.016707	0.474268
Br275	Br	1.239648	0.233293	0.724268
Br276	Br	1.489648	0.483293	0.974268
H277	H	0.364704	-0.482132	0.404538
H278	H	0.614704	-0.232132	0.654538
H279	H	0.864704	0.017868	0.904538
H280	H	1.114704	0.267868	1.154538
Br281	Br	1.080306	-0.266735	0.921085
Br282	Br	1.330306	-0.016735	1.171085
Br283	Br	1.580306	0.233265	1.421085
Br284	Br	1.830306	0.483265	1.671085
H285	H	0.236460	-0.482139	0.404550
H286	H	0.486460	-0.232139	0.654550
H287	H	0.736460	0.017861	0.904550
H288	H	0.986460	0.267861	1.154550
Br289	Br	0.876149	-0.509761	1.087626
Br290	Br	1.126149	-0.259761	1.337626
Br291	Br	1.376149	-0.009761	1.587626
Br292	Br	1.626149	0.240239	1.837626
