data_functionalizedCrystal
_audit_creation_method	'MofGen! by Chris Wilmer'
_symmetry_space_group_name_H-M	'P1'
_symmetry_Int_Tables_number	1
_symmetry_cell_setting	triclinic
loop_
_symmetry_equiv_pos_as_xyz
  x,y,z
_cell_length_a	10.654549
_cell_length_b	14.519731
_cell_length_c	9.730223
_cell_angle_alpha	89.994614
_cell_angle_beta	89.997731
_cell_angle_gamma	84.086815
loop_
_atom_site_label
_atom_site_type_symbol
_atom_site_fract_x
_atom_site_fract_y
_atom_site_fract_z
O1	O	1.666607	0.129529	-0.114262
O2	O	2.166607	0.629529	0.385738
O3	O	1.301011	0.141871	-0.114272
O4	O	1.801011	0.641871	0.385728
O5	O	1.493489	0.001513	-0.114254
O6	O	1.993489	0.501513	0.385746
O7	O	1.474130	0.269887	-0.114279
O8	O	1.974130	0.769887	0.385721
O9	O	1.493476	0.001509	0.114326
O10	O	1.993476	0.501509	0.614326
O11	O	1.300999	0.141867	0.114308
O12	O	1.800999	0.641867	0.614308
O13	O	1.666595	0.129525	0.114318
O14	O	2.166595	0.629525	0.614318
Zn15	Zn	1.483795	0.135695	0.150605
Zn16	Zn	1.983795	0.635695	0.650605
Zn17	Zn	1.483811	0.135701	-0.150559
Zn18	Zn	1.983811	0.635701	0.349441
O19	O	1.474118	0.269883	0.114301
O20	O	1.974118	0.769883	0.614301
C21	C	1.254216	0.140963	0.000017
C22	C	1.754216	0.640963	0.500017
C23	C	1.114798	0.138252	0.000014
C24	C	1.614798	0.638252	0.500014
C25	C	0.903522	0.218338	0.000012
C26	C	1.403522	0.718338	0.500012
C27	C	1.034518	0.220892	0.000003
C28	C	1.534518	0.720892	0.500003
C29	C	1.064076	0.053051	0.000019
C30	C	1.564076	0.553051	0.500019
C31	C	0.933082	0.050498	0.000017
C32	C	1.433082	0.550498	0.500017
C33	C	1.492575	-0.032853	0.000036
C34	C	1.992575	0.467147	0.500036
C35	C	1.489857	-0.135247	0.000037
C36	C	1.989857	0.364753	0.500037
C37	C	1.487649	-0.218403	0.000034
C38	C	1.987649	0.281597	0.500034
C39	C	1.484889	-0.322726	0.000023
C40	C	1.984889	0.177274	0.500023
C41	C	1.482699	-0.405876	0.000014
C42	C	1.982699	0.094124	0.500014
C43	C	1.479939	-0.510206	0.000006
C44	C	1.979939	-0.010206	0.500006
C45	C	1.713391	0.130433	0.000026
C46	C	2.213391	0.630433	0.500026
C47	C	1.852808	0.133144	0.000021
C48	C	2.352808	0.633144	0.500021
C49	C	1.475031	0.304249	0.000007
C50	C	1.975031	0.804249	0.500007
C51	C	1.477749	0.406643	-0.000003
C52	C	1.977749	0.906643	0.499997
N53	N	1.483793	0.135691	0.356142
N54	N	1.983793	0.635691	0.856142
N55	N	1.483823	0.135697	-0.356095
N56	N	1.983823	0.635697	0.143905
C57	C	1.569051	0.073568	0.428075
C58	C	2.069051	0.573568	0.928075
C59	C	1.569063	0.073568	0.571958
C60	C	2.069063	0.573568	1.071958
C61	C	1.398556	0.197824	0.571961
C62	C	1.898556	0.697824	1.071961
C63	C	1.398539	0.197819	0.428081
C64	C	1.898539	0.697819	0.928081
H65	H	0.891792	-0.018880	0.000020
H66	H	1.391792	0.481120	0.500020
H67	H	1.638468	0.022979	0.369506
H68	H	2.138468	0.522979	0.869506
H69	H	1.638486	0.022980	0.630523
H70	H	2.138486	0.522980	1.130523
H71	H	1.329146	0.248408	0.630548
H72	H	1.829146	0.748408	1.130548
H73	H	1.329106	0.248408	0.369508
H74	H	1.829106	0.748408	0.869508
H75	H	0.838165	0.285634	0.000014
H76	H	1.338165	0.785634	0.500014
H77	H	1.129451	-0.014236	0.000019
H78	H	1.629451	0.485764	0.500019
H79	H	1.075802	0.290265	-0.000005
H80	H	1.575802	0.790265	0.499995
