data_functionalizedCrystal
_audit_creation_method	'MofGen! by Chris Wilmer'
_symmetry_space_group_name_H-M	'P1'
_symmetry_Int_Tables_number	1
_symmetry_cell_setting	triclinic
loop_
_symmetry_equiv_pos_as_xyz
  x,y,z
_cell_length_a	11.026607
_cell_length_b	11.026607
_cell_length_c	16.176319
_cell_angle_alpha	89.991517
_cell_angle_beta	90.005437
_cell_angle_gamma	108.586017
loop_
_atom_site_label
_atom_site_type_symbol
_atom_site_fract_x
_atom_site_fract_y
_atom_site_fract_z
O1	O	1.726730	0.533603	0.068745
O2	O	2.226730	1.033603	0.568745
O3	O	1.360150	0.472839	0.068746
O4	O	1.860150	0.972839	0.568746
O5	O	1.513058	0.319931	0.068742
O6	O	2.013058	0.819931	0.568742
O7	O	1.573822	0.686511	0.068748
O8	O	2.073822	1.186511	0.568748
O9	O	1.513047	0.319963	-0.068751
O10	O	2.013047	0.819963	0.431249
O11	O	1.360139	0.472871	-0.068747
O12	O	1.860139	0.972871	0.431253
O13	O	1.726719	0.533634	-0.068749
O14	O	2.226719	1.033634	0.431251
Cu15	Cu	1.543428	0.503255	-0.081302
Cu16	Cu	2.043428	1.003255	0.418698
Cu17	Cu	1.543441	0.503218	0.081299
Cu18	Cu	2.043441	1.003218	0.581299
O19	O	1.573811	0.686543	-0.068745
O20	O	2.073811	1.186543	0.431255
C21	C	1.312485	0.461645	-0.000001
C22	C	1.812485	0.961645	0.499999
C23	C	1.170471	0.428228	-0.000000
C24	C	1.670471	0.928228	0.500000
C25	C	1.116821	0.520498	0.000002
C26	C	1.616821	1.020498	0.500002
C27	C	0.970043	0.485962	0.000002
C28	C	1.470043	0.985962	0.500002
C29	C	1.501843	0.272287	-0.000003
C30	C	2.001843	0.772287	0.499997
C31	C	1.468426	0.130273	-0.000000
C32	C	1.968426	0.630273	0.500000
C33	C	1.560695	0.076624	0.000001
C34	C	2.060695	0.576624	0.500001
C35	C	1.526160	-0.070155	0.000004
C36	C	2.026160	0.429845	0.500004
C37	C	1.774384	0.544828	-0.000000
C38	C	2.274384	1.044828	0.500000
C39	C	1.916398	0.578245	0.000004
C40	C	2.416398	1.078245	0.500004
C41	C	1.585026	0.734187	0.000002
C42	C	2.085026	1.234187	0.500002
C43	C	1.618443	0.876200	0.000005
C44	C	2.118443	1.376200	0.500005
N45	N	1.543428	0.503283	-0.195667
N46	N	2.043428	1.003283	0.304333
C47	C	1.449272	0.408976	-0.761058
C48	C	1.949272	0.908976	-0.261058
C49	C	1.449272	0.408986	-0.674511
C50	C	1.949272	0.908986	-0.174511
C51	C	1.543444	0.503208	-0.631243
C52	C	2.043444	1.003208	-0.131243
C53	C	1.637630	0.597420	-0.674526
C54	C	2.137630	1.097420	-0.174526
C55	C	1.637634	0.597405	-0.761071
C56	C	2.137634	1.097405	-0.261071
C57	C	1.637614	0.597485	-0.325498
C58	C	2.137614	1.097485	0.174502
C59	C	1.637600	0.597496	-0.238946
C60	C	2.137600	1.097496	0.261054
C61	C	1.449252	0.409066	-0.238937
C62	C	1.949252	0.909066	0.261063
C63	C	1.449256	0.409051	-0.325483
C64	C	1.949256	0.909051	0.174517
C65	C	1.543445	0.503258	-0.368759
C66	C	2.043445	1.003258	0.131241
C67	C	1.543446	0.503245	-0.462603
C68	C	2.043446	1.003245	0.037397
C69	C	1.543439	0.503228	-0.537400
C70	C	2.043439	1.003228	-0.037400
N71	N	1.543449	0.503183	0.195665
N72	N	2.043449	1.003183	0.695665
H73	H	0.907314	0.381393	0.000022
H74	H	1.407314	0.881393	0.500022
F75	F	1.349010	0.308798	-0.192874
F76	F	1.849010	0.808798	0.307126
F77	F	1.331751	0.048283	0.000008
F78	F	1.831751	0.548283	0.500008
F79	F	1.088480	0.291554	-0.000008
F80	F	1.588480	0.791554	0.499992
F81	F	1.737860	0.697695	-0.628474
F82	F	2.237860	1.197695	-0.128474
F83	F	1.737853	0.697755	-0.371544
F84	F	2.237853	1.197755	0.128456
H85	H	1.372587	0.332270	-0.639279
H86	H	1.872587	0.832270	-0.139279
H87	H	1.372581	0.332254	-0.796281
H88	H	1.872581	0.832254	-0.296281
H89	H	1.179555	0.625061	-0.000001
H90	H	1.679555	1.125061	0.499999
F91	F	1.737835	0.697786	-0.192898
F92	F	2.237835	1.197786	0.307102
H93	H	1.714323	0.674117	-0.796306
H94	H	2.214323	1.174117	-0.296306
F95	F	0.998382	0.714928	-0.000003
F96	F	1.498382	1.214928	0.499997
H97	H	1.665258	0.139357	-0.000005
H98	H	2.165258	0.639357	0.499995
H99	H	1.421590	-0.132884	0.000010
H100	H	1.921590	0.367116	0.500010
H101	H	1.723013	-0.061072	0.000066
H102	H	2.223013	0.438928	0.500066
H103	H	1.372568	0.332328	-0.360708
H104	H	1.872568	0.832328	0.139292
