data_functionalizedCrystal
_audit_creation_method	'MofGen! by Chris Wilmer'
_symmetry_space_group_name_H-M	'P1'
_symmetry_Int_Tables_number	1
_symmetry_cell_setting	triclinic
loop_
_symmetry_equiv_pos_as_xyz
  x,y,z
_cell_length_a	29.839134
_cell_length_b	21.295419
_cell_length_c	21.295411
_cell_angle_alpha	89.995824
_cell_angle_beta	89.965732
_cell_angle_gamma	89.996921
loop_
_atom_site_label
_atom_site_type_symbol
_atom_site_fract_x
_atom_site_fract_y
_atom_site_fract_z
Zn1	Zn	0.686897	-0.250767	-0.356151
Zn2	Zn	1.186897	0.249233	0.143849
Zn3	Zn	0.686865	-0.356019	-0.250908
Zn4	Zn	1.186865	0.143981	0.249092
Zn5	Zn	0.611764	-0.250758	-0.250878
Zn6	Zn	1.111764	0.249242	0.249122
Zn7	Zn	0.611779	-0.355993	-0.356122
Zn8	Zn	1.111779	0.144007	0.143878
O9	O	0.649326	-0.303384	-0.303515
O10	O	1.149326	0.196616	0.196485
O11	O	0.749760	-0.264744	-0.342215
O12	O	1.249760	0.235256	0.157785
O13	O	0.676882	-0.342063	-0.162815
O14	O	1.176882	0.157937	0.337185
O15	O	0.621737	-0.162670	-0.264842
O16	O	1.121737	0.337330	0.235158
O17	O	0.749736	-0.342072	-0.264894
O18	O	1.249736	0.157928	0.235106
O19	O	0.676938	-0.162677	-0.342186
O20	O	1.176938	0.337323	0.157814
O21	O	0.621706	-0.264728	-0.162793
O22	O	1.121706	0.235272	0.337207
O23	O	0.548899	-0.264703	-0.264814
O24	O	1.048899	0.235297	0.235186
O25	O	0.621764	-0.342027	-0.444216
O26	O	1.121764	0.157973	0.055784
O27	O	0.548910	-0.342019	-0.342137
O28	O	1.048910	0.157981	0.157863
O29	O	0.676953	-0.264718	-0.444237
O30	O	1.176953	0.235282	0.055763
O31	O	0.676897	-0.444105	-0.264866
O32	O	1.176897	0.055895	0.235134
O33	O	0.621732	-0.444086	-0.342166
O34	O	1.121732	0.055914	0.157834
C35	C	0.532604	-0.303358	-0.303470
C36	C	1.032604	0.196642	0.196530
C37	C	0.482669	-0.303361	-0.303465
C38	C	0.982669	0.196639	0.196535
C39	C	0.649325	-0.466936	-0.303530
C40	C	1.149325	0.033064	0.196470
C41	C	0.649366	-0.536904	-0.303558
C42	C	1.149366	-0.036904	0.196442
C43	C	0.649363	-0.303371	-0.467705
C44	C	1.149363	0.196629	0.032295
C45	C	0.649379	-0.303365	-0.537673
C46	C	1.149379	0.196635	-0.037673
C47	C	0.173041	-0.343702	-0.343727
C48	C	0.673041	0.156298	0.156273
C49	C	-0.014632	-0.343720	-0.343755
C50	C	0.485368	0.156280	0.156245
O51	O	-0.038884	-0.377989	-0.377961
O52	O	0.461116	0.122011	0.122039
N53	N	-0.038116	-0.303407	-0.303562
N54	N	0.461884	0.196593	0.196438
C55	C	-0.014679	-0.263085	-0.263362
C56	C	0.485321	0.236915	0.236638
O57	O	-0.038960	-0.228792	-0.229181
O58	O	0.461040	0.271208	0.270819
C59	C	0.172993	-0.263064	-0.263338
C60	C	0.672993	0.236936	0.236662
C61	C	0.196475	-0.303384	-0.303529
C62	C	0.696475	0.196616	0.196471
C63	C	0.196523	-0.384018	-0.383916
C64	C	0.696523	0.115982	0.116084
C65	C	0.243438	-0.384015	-0.383906
C66	C	0.743438	0.115985	0.116094
C67	C	0.266872	-0.343697	-0.343708
C68	C	0.766872	0.156303	0.156292
C69	C	0.243390	-0.303381	-0.303519
C70	C	0.743390	0.196619	0.196481
C71	C	0.196430	-0.222739	-0.223142
C72	C	0.696430	0.277261	0.276858
C73	C	0.243351	-0.222736	-0.223140
C74	C	0.743351	0.277264	0.276860
C75	C	0.266832	-0.263056	-0.263331
C76	C	0.766832	0.236944	0.236669
C77	C	0.313740	-0.263061	-0.263311
C78	C	0.813740	0.236939	0.236689
N79	N	0.337224	-0.303373	-0.303504
N80	N	0.837224	0.196627	0.196496
C81	C	0.313790	-0.343691	-0.343703
C82	C	0.813790	0.156309	0.156297
C83	C	-0.113209	-0.263099	-0.263377
C84	C	0.386791	0.236901	0.236623
C85	C	-0.160127	-0.263105	-0.263382
C86	C	0.339873	0.236895	0.236618
C87	C	-0.160077	-0.343739	-0.343776
C88	C	0.339923	0.156261	0.156224
C89	C	-0.113158	-0.343736	-0.343768
C90	C	0.386842	0.156264	0.156232
C91	C	-0.089725	-0.303412	-0.303570
C92	C	0.410275	0.196588	0.196430
C93	C	0.412316	-0.343684	-0.343679
C94	C	0.912316	0.156316	0.156321
C95	C	0.459235	-0.343679	-0.343663
C96	C	0.959235	0.156321	0.156337
C97	C	0.459181	-0.263043	-0.263272
C98	C	0.959181	0.236957	0.236728
C99	C	0.412266	-0.263049	-0.263284
C100	C	0.912266	0.236951	0.236716
C101	C	0.388834	-0.303372	-0.303493
C102	C	0.888834	0.196628	0.196507
O103	O	0.338020	-0.228804	-0.229129
O104	O	0.838020	0.271196	0.270871
O105	O	0.338079	-0.377969	-0.377889
O106	O	0.838079	0.122031	0.122111
C107	C	0.126126	-0.343704	-0.343737
C108	C	0.626126	0.156296	0.156263
C109	C	0.102644	-0.303389	-0.303549
C110	C	0.602644	0.196611	0.196451
C111	C	0.126078	-0.263071	-0.263351
C112	C	0.626078	0.236929	0.236649
C113	C	0.055726	-0.303394	-0.303554
C114	C	0.555726	0.196606	0.196446
C115	C	0.032292	-0.343713	-0.343752
C116	C	0.532292	0.156287	0.156248
C117	C	0.055776	-0.384025	-0.383945
C118	C	0.555776	0.115975	0.116055
C119	C	0.102692	-0.384023	-0.383936
C120	C	0.602692	0.115977	0.116064
C121	C	0.102594	-0.222758	-0.223158
C122	C	0.602594	0.277242	0.276842
C123	C	0.055678	-0.222764	-0.223170
C124	C	0.555678	0.277236	0.276830
C125	C	0.032245	-0.263083	-0.263368
C126	C	0.532245	0.236917	0.236632
C127	C	0.766505	-0.303412	-0.303561
C128	C	1.266505	0.196588	0.196439
C129	C	0.816439	-0.303423	-0.303581
C130	C	1.316439	0.196577	0.196419
C131	C	0.649339	-0.139194	-0.303514
C132	C	1.149339	0.360806	0.196486
C133	C	0.649345	-0.069226	-0.303513
C134	C	1.149345	0.430774	0.196487
C135	C	0.620610	-0.036355	-0.263245
C136	C	1.120610	0.463645	0.236755
C137	C	0.620610	0.029388	-0.263253
C138	C	1.120610	0.529388	0.236747
C139	C	0.649352	0.062257	-0.303521
C140	C	1.149352	0.562257	0.196479
C141	C	0.678088	0.029378	-0.343797
C142	C	1.178088	0.529378	0.156203
C143	C	0.678085	-0.036364	-0.343793
C144	C	1.178085	0.463636	0.156207
N145	N	0.688683	0.165470	-0.308370
N146	N	1.188683	0.665470	0.191630
N147	N	0.688685	0.227921	-0.308371
N148	N	1.188685	0.727921	0.191629
C149	C	0.649363	0.260331	-0.303538
C150	C	1.149363	0.760331	0.196462
N151	N	0.610038	0.227931	-0.298692
N152	N	1.110038	0.727931	0.201308
N153	N	0.610037	0.165474	-0.298688
N154	N	1.110037	0.665474	0.201312
C155	C	0.649359	0.133542	-0.303531
C156	C	1.149359	0.633542	0.196469
C157	C	0.620626	0.364488	-0.263276
C158	C	1.120626	0.864488	0.236724
C159	C	0.620624	0.430232	-0.263288
C160	C	1.120624	0.930232	0.236712
C161	C	0.678107	0.430220	-0.343829
C162	C	1.178107	0.930220	0.156171
C163	C	0.678104	0.364478	-0.343820
C164	C	1.178104	0.864478	0.156180
C165	C	0.649364	0.331616	-0.303540
C166	C	1.149364	0.831616	0.196460
C167	C	0.678115	-0.263109	-0.570552
C168	C	1.178115	0.236891	-0.070552
C169	C	0.678114	-0.263081	-0.636295
C170	C	1.178114	0.236919	-0.136295
C171	C	0.649383	-0.303322	-0.669156
C172	C	1.149383	0.196678	-0.169156
C173	C	0.620642	-0.343581	-0.636269
C174	C	1.120642	0.156419	-0.136269
C175	C	0.620640	-0.343603	-0.570528
C176	C	1.120640	0.156397	-0.070528
N177	N	0.645936	-0.358389	-0.772387
N178	N	1.145936	0.141611	-0.272387
N179	N	0.645941	-0.358367	-0.834839
N180	N	1.145941	0.141633	-0.334839
C181	C	0.649386	-0.303258	-0.867231
C182	C	1.149386	0.196742	-0.367231
N183	N	0.652835	-0.248171	-0.834812
N184	N	1.152835	0.251829	-0.334812
N185	N	0.652833	-0.248195	-0.772355
N186	N	1.152833	0.251805	-0.272355
C187	C	0.649381	-0.303303	-0.740441
C188	C	1.149381	0.196697	-0.240441
C189	C	0.678122	-0.262969	-0.971395
C190	C	1.178122	0.237031	-0.471395
C191	C	0.678118	-0.262940	-1.037139
C192	C	1.178118	0.237060	-0.537139
C193	C	0.620648	-0.343446	-1.037112
C194	C	1.120648	0.156554	-0.537112
C195	C	0.620649	-0.343469	-0.971370
C196	C	1.120649	0.156531	-0.471370
C197	C	0.649389	-0.303231	-0.938515
C198	C	1.149389	0.196769	-0.438515
C199	C	0.649315	-0.303352	-0.139963
C200	C	1.149315	0.196648	0.360037
C201	C	0.649386	-0.303180	-0.069996
C202	C	1.149386	0.196820	0.430004
H203	H	0.393243	-0.376516	-0.376422
H204	H	0.893243	0.123484	0.123578
C205	C	0.269264	-0.428376	-0.428105
C206	C	0.769264	0.071624	0.071895
H207	H	0.300564	-0.422613	-0.422342
H208	H	0.800564	0.077387	0.077658
H209	H	0.261598	-0.419239	-0.470419
H210	H	0.761598	0.080761	0.029581
H211	H	0.261566	-0.470655	-0.418810
H212	H	0.761566	0.029345	0.081190
C213	C	0.589015	0.466390	-0.218990
C214	C	1.089015	0.966390	0.281010
H215	H	0.571903	0.437400	-0.194998
H216	H	1.071903	0.937400	0.305002
H217	H	0.569445	0.492039	-0.243060
H218	H	1.069445	0.992039	0.256940
H219	H	0.606201	0.492033	-0.191572
H220	H	1.106201	0.992033	0.308428
H221	H	0.597250	-0.376204	-1.063867
H222	H	1.097250	0.123796	-0.563867
C223	C	0.709699	0.065528	-0.388099
C224	C	1.209699	0.565528	0.111901
H225	H	0.726809	0.036532	-0.412087
H226	H	1.226809	0.536532	0.087913
H227	H	0.729272	0.091173	-0.364037
H228	H	1.229272	0.591173	0.135963
H229	H	0.692513	0.091172	-0.415521
H230	H	1.192513	0.591172	0.084479
H231	H	0.701505	0.337714	-0.376607
H232	H	1.201505	0.837714	0.123393
H233	H	-0.094135	-0.230261	-0.230640
H234	H	0.405865	0.269739	0.269360
H235	H	0.701516	-0.230343	-0.543806
H236	H	1.201516	0.269657	-0.043806
C237	C	0.170610	-0.178382	-0.178936
C238	C	0.670610	0.321618	0.321064
H239	H	0.191292	-0.154367	-0.155005
H240	H	0.691292	0.345633	0.344995
H241	H	0.152294	-0.202412	-0.151467
H242	H	0.652294	0.297588	0.348533
H243	H	0.152320	-0.150988	-0.203067
H244	H	0.652320	0.349012	0.296933
H245	H	0.597253	-0.376254	-0.944600
H246	H	1.097253	0.123746	-0.444600
C247	C	0.709726	-0.218700	-0.935252
C248	C	1.209726	0.281300	-0.435252
H249	H	0.726834	-0.194711	-0.964252
H250	H	1.226834	0.305289	-0.464252
H251	H	0.729300	-0.242787	-0.909627
H252	H	1.229300	0.257213	-0.409627
H253	H	0.692536	-0.191277	-0.909588
H254	H	1.192536	0.308723	-0.409588
H255	H	0.177448	-0.416850	-0.416654
H256	H	0.677448	0.083150	0.083346
H257	H	0.597207	-0.063107	-0.230447
H258	H	1.097207	0.436893	0.269553
H259	H	0.597210	0.056156	-0.230461
H260	H	1.097210	0.556156	0.269539
C261	C	0.709698	-0.072523	-0.388084
C262	C	1.209698	0.427477	0.111916
H263	H	0.726818	-0.043535	-0.412067
H264	H	1.226818	0.456465	0.087933
H265	H	0.692519	-0.098170	-0.415502
H266	H	1.192519	0.401830	0.084498
H267	H	0.729268	-0.098168	-0.364003
H268	H	1.229268	0.401832	0.135997
H269	H	0.478352	-0.376515	-0.376392
H270	H	0.978352	0.123485	0.123608
C271	C	0.029854	-0.178409	-0.178958
C272	C	0.529854	0.321591	0.321042
H273	H	0.050534	-0.154394	-0.155023
H274	H	0.550534	0.345606	0.344977
H275	H	0.011536	-0.202441	-0.151493
H276	H	0.511536	0.297559	0.348507
H277	H	0.011565	-0.151014	-0.203091
H278	H	0.511565	0.348986	0.296909
C279	C	0.589012	0.328334	-0.218976
C280	C	1.089012	0.828334	0.281024
H281	H	0.593129	0.284472	-0.224734
H282	H	1.093129	0.784472	0.275266
H283	H	0.558829	0.339110	-0.228177
H284	H	1.058829	0.839110	0.271823
H285	H	0.595580	0.339109	-0.176683
H286	H	1.095580	0.839109	0.323317
C287	C	0.709728	-0.218803	-0.672469
C288	C	1.209728	0.281197	-0.172469
H289	H	0.726846	-0.194845	-0.643486
H290	H	1.226846	0.305155	-0.143486
H291	H	0.692550	-0.191361	-0.698097
H292	H	1.192550	0.308639	-0.198097
H293	H	0.729300	-0.242890	-0.698132
H294	H	1.229300	0.257110	-0.198132
H295	H	0.597247	-0.376344	-0.663029
H296	H	1.097247	0.123656	-0.163029
C297	C	0.029993	-0.428372	-0.428164
C298	C	0.529993	0.071628	0.071836
H299	H	-0.001311	-0.422591	-0.422413
H300	H	0.498689	0.077409	0.077587
H301	H	0.037677	-0.470655	-0.418891
H302	H	0.537677	0.029345	0.081109
H303	H	0.037702	-0.419214	-0.470475
H304	H	0.537702	0.080786	0.029525
C305	C	0.709722	0.466368	-0.388124
C306	C	1.209722	0.966368	0.111876
H307	H	0.705611	0.510230	-0.382357
H308	H	1.205611	1.010230	0.117643
H309	H	0.703158	0.455595	-0.430415
H310	H	1.203158	0.955595	0.069585
H311	H	0.739906	0.455589	-0.378917
H312	H	1.239906	0.955589	0.121083
C313	C	0.589036	-0.387896	-0.534360
C314	C	1.089036	0.112104	-0.034360
H315	H	0.571926	-0.411863	-0.563344
H316	H	1.071926	0.088137	-0.063344
H317	H	0.569463	-0.363826	-0.508687
H318	H	1.069463	0.136174	-0.008687
H319	H	0.606226	-0.415338	-0.508742
H320	H	1.106226	0.084662	-0.008742
H321	H	-0.179242	-0.230279	-0.230648
H322	H	0.320758	0.269721	0.269352
C323	C	0.709733	-0.218664	-1.073308
C324	C	1.209733	0.281336	-0.573308
H325	H	0.705617	-0.224410	-1.117168
H326	H	1.205617	0.275590	-0.617168
H327	H	0.739915	-0.227898	-1.062559
H328	H	1.239915	0.272102	-0.562559
H329	H	0.703167	-0.176366	-1.062520
H330	H	1.203167	0.323634	-0.562520
C331	C	-0.185860	-0.388084	-0.387998
C332	C	0.314140	0.111916	0.112002
H333	H	-0.217165	-0.382305	-0.382245
H334	H	0.282835	0.117695	0.117755
H335	H	-0.178175	-0.430368	-0.378729
H336	H	0.321825	0.069632	0.121271
H337	H	-0.178152	-0.378922	-0.430308
H338	H	0.321848	0.121078	0.069692
C339	C	0.269124	-0.178378	-0.178922
C340	C	0.769124	0.321622	0.321078
H341	H	0.248417	-0.154371	-0.154987
H342	H	0.748417	0.345629	0.345013
H343	H	0.287437	-0.150985	-0.203042
H344	H	0.787437	0.349015	0.296958
H345	H	0.287414	-0.202416	-0.151448
H346	H	0.787414	0.297584	0.348552
C347	C	-0.087333	-0.388082	-0.387982
C348	C	0.412667	0.111918	0.112018
H349	H	-0.108013	-0.412090	-0.411924
H350	H	0.391987	0.087910	0.088076
H351	H	-0.069037	-0.415473	-0.363863
H352	H	0.430963	0.084527	0.136137
H353	H	-0.069022	-0.364036	-0.415450
H354	H	0.430978	0.135964	0.084550
H355	H	0.393146	-0.230219	-0.230556
H356	H	0.893146	0.269781	0.269444
H357	H	0.478269	-0.230219	-0.230541
H358	H	0.978269	0.269781	0.269459
H359	H	0.121807	-0.416855	-0.416664
H360	H	0.621807	0.083145	0.083336
H361	H	0.121669	-0.189925	-0.190423
H362	H	0.621669	0.310075	0.309577
