data_functionalizedCrystal
_audit_creation_method	'MofGen! by Chris Wilmer'
_symmetry_space_group_name_H-M	'P1'
_symmetry_Int_Tables_number	1
_symmetry_cell_setting	triclinic
loop_
_symmetry_equiv_pos_as_xyz
  x,y,z
_cell_length_a	12.837943
_cell_length_b	14.185569
_cell_length_c	12.811434
_cell_angle_alpha	97.970830
_cell_angle_beta	89.411196
_cell_angle_gamma	75.423762
loop_
_atom_site_label
_atom_site_type_symbol
_atom_site_fract_x
_atom_site_fract_y
_atom_site_fract_z
O1	O	1.360559	0.057220	0.287691
O2	O	1.860559	0.557220	0.787691
O3	O	1.058358	0.058425	0.274516
O4	O	1.558358	0.558425	0.774516
O5	O	1.213262	0.071335	0.132548
O6	O	1.713262	0.571335	0.632548
O7	O	1.205655	0.044310	0.429660
O8	O	1.705655	0.544310	0.929660
O9	O	1.259022	-0.091686	0.090614
O10	O	1.759022	0.408314	0.590614
O11	O	1.104118	-0.104596	0.232583
O12	O	1.604118	0.395404	0.732583
O13	O	1.406319	-0.105801	0.245757
O14	O	1.906319	0.394199	0.745757
Cu15	Cu	1.259397	-0.120084	0.235341
Cu16	Cu	1.759397	0.379916	0.735341
Cu17	Cu	1.205280	0.072708	0.284933
Cu18	Cu	1.705280	0.572708	0.784933
O19	O	1.251415	-0.118711	0.387726
O20	O	1.751415	0.381289	0.887726
C21	C	1.042484	-0.022680	0.249098
C22	C	1.542484	0.477320	0.749098
C23	C	0.927008	-0.021470	0.235824
C24	C	1.427008	0.478530	0.735824
C25	C	0.690831	-0.036000	0.395415
C26	C	1.190831	0.464000	0.895415
C27	C	0.582332	-0.034865	0.382947
C28	C	1.082332	0.465135	0.882947
C29	C	0.601510	-0.018069	0.198418
C30	C	1.101510	0.481931	0.698418
C31	C	0.710009	-0.019205	0.210886
C32	C	1.210009	0.480795	0.710886
C33	C	0.754665	-0.028170	0.309388
C34	C	1.254665	0.471830	0.809388
C35	C	0.863165	-0.029298	0.321857
C36	C	1.363165	0.470702	0.821857
C37	C	0.882343	-0.012510	0.137328
C38	C	1.382343	0.487490	0.637328
C39	C	0.773843	-0.011374	0.124860
C40	C	1.273843	0.488626	0.624860
N41	N	1.297467	-0.255683	0.200461
N42	N	1.797467	0.244317	0.700461
C43	C	1.055366	-0.643501	0.422238
C44	C	1.555366	-0.143501	0.922238
C45	C	1.084211	-0.746120	0.395824
C46	C	1.584211	-0.246120	0.895824
C47	C	1.221409	-0.734654	0.270166
C48	C	1.721409	-0.234654	0.770166
C49	C	1.192571	-0.632031	0.296565
C50	C	1.692571	-0.132031	0.796565
C51	C	1.109550	-0.586463	0.372602
C52	C	1.609550	-0.086463	0.872602
C53	C	1.246756	-0.574993	0.246930
C54	C	1.746756	-0.074993	0.746930
C55	C	1.217924	-0.472380	0.273331
C56	C	1.717924	0.027620	0.773331
C57	C	1.134908	-0.426804	0.349368
C58	C	1.634908	0.073196	0.849368
C59	C	1.080719	-0.483849	0.399004
C60	C	1.580719	0.016151	0.899004
C61	C	1.329782	-0.620564	0.170898
C62	C	1.829782	-0.120564	0.670898
C63	C	1.383966	-0.563527	0.121262
C64	C	1.883966	-0.063527	0.621262
C65	C	1.355130	-0.460911	0.147658
C66	C	1.855130	0.039089	0.647658
C67	C	1.272114	-0.415335	0.223695
C68	C	1.772114	0.084665	0.723695
C69	C	1.409320	-0.403865	0.098022
C70	C	1.909320	0.096135	0.598022
C71	C	1.380488	-0.301252	0.124424
C72	C	1.880488	0.198748	0.624424
C73	C	1.243283	-0.312721	0.250096
C74	C	1.743283	0.187279	0.750096
C75	C	1.422193	-0.024694	0.271176
C76	C	1.922193	0.475306	0.771176
C77	C	1.537666	-0.025898	0.284452
C78	C	2.037666	0.474102	0.784452
C79	C	1.234313	-0.006690	0.073288
C80	C	1.734313	0.493310	0.573288
C81	C	1.228850	0.003695	-0.040813
C82	C	1.728850	0.503695	0.459187
N83	N	1.167218	0.208307	0.319805
N84	N	1.667218	0.708307	0.819805
C85	C	1.196207	0.107180	-0.178778
C86	C	1.696207	0.607180	0.321222
C87	C	1.201340	0.097433	-0.071568
C88	C	1.701340	0.597433	0.428432
C89	C	1.251232	-0.080303	-0.117278
C90	C	1.751232	0.419697	0.382722
C91	C	1.246098	-0.070556	-0.224488
C92	C	1.746098	0.429444	0.275512
C93	C	1.218584	0.023189	-0.255234
C94	C	1.718584	0.523189	0.244766
C95	C	1.213443	0.032935	-0.362446
C96	C	1.713443	0.532935	0.137554
C97	C	1.263341	-0.144800	-0.408155
C98	C	1.763341	0.355200	0.091845
C99	C	1.268475	-0.154547	-0.300944
C100	C	1.768475	0.345453	0.199056
C101	C	1.230364	-0.040684	0.446986
C102	C	1.730364	0.459316	0.946986
C103	C	1.235824	-0.051062	0.561088
C104	C	1.735824	0.448938	1.061088
H105	H	0.934327	-0.006127	0.067280
H106	H	1.434327	0.493873	0.567280
H107	H	1.476924	-0.440981	0.036119
H108	H	1.976924	0.059019	0.536119
H109	H	1.013107	-0.446745	0.460913
H110	H	1.513107	0.053255	0.960913
H111	H	1.040081	-0.792557	0.436251
H112	H	1.540081	-0.292557	0.936251
H113	H	1.175671	-0.275617	0.312006
H114	H	1.675671	0.224383	0.812006
H115	H	1.290881	-0.230871	-0.275895
H116	H	1.790881	0.269129	0.224105
H117	H	1.424613	-0.254811	0.084006
H118	H	1.924613	0.245189	0.584006
H119	H	1.281555	-0.213192	-0.470418
H120	H	1.781555	0.286808	0.029582
H121	H	0.727190	-0.043298	0.475620
H122	H	1.227190	0.456702	0.975620
H123	H	1.183120	0.165827	-0.009319
H124	H	1.683120	0.665827	0.490681
H125	H	1.191032	0.109266	-0.387476
H126	H	1.691032	0.609266	0.112524
H127	H	1.353257	-0.704120	0.149408
H128	H	1.853257	-0.204120	0.649408
H129	H	1.111438	-0.343249	0.370866
H130	H	1.611438	0.156751	0.870866
H131	H	0.899522	-0.036599	0.402062
H132	H	1.399522	0.463401	0.902062
H133	H	0.987754	-0.606397	0.484147
H134	H	1.487754	-0.106397	0.984147
H135	H	0.530362	-0.041244	0.452998
H136	H	1.030362	0.458756	0.952998
H137	H	0.737472	-0.004087	0.044659
H138	H	1.237472	0.495913	0.544659
H139	H	1.289008	-0.771768	0.208258
H140	H	1.789008	-0.271768	0.708258
H141	H	1.451566	-0.600641	0.059354
H142	H	1.951566	-0.100641	0.559354
H143	H	1.273644	-0.156625	-0.092225
H144	H	1.773644	0.343375	0.407775
H145	H	0.565154	-0.010852	0.118201
H146	H	1.065154	0.489148	0.618201
H147	H	1.173788	0.183510	-0.203811
H148	H	1.673788	0.683510	0.296189
