data_functionalizedCrystal
_audit_creation_method	'MofGen! by Chris Wilmer'
_symmetry_space_group_name_H-M	'P1'
_symmetry_Int_Tables_number	1
_symmetry_cell_setting	triclinic
loop_
_symmetry_equiv_pos_as_xyz
  x,y,z
_cell_length_a	14.853567
_cell_length_b	14.971490
_cell_length_c	14.048226
_cell_angle_alpha	90.008793
_cell_angle_beta	90.008429
_cell_angle_gamma	83.625289
loop_
_atom_site_label
_atom_site_type_symbol
_atom_site_fract_x
_atom_site_fract_y
_atom_site_fract_z
O1	O	-0.117504	-1.186966	-0.079216
O2	O	-0.131569	-0.926569	-0.079208
O3	O	0.006694	-1.063723	-0.079201
O4	O	-0.255767	-1.049812	-0.079223
O5	O	0.006703	-1.063707	0.079120
O6	O	-0.131561	-0.926553	0.079114
O7	O	-0.117495	-1.186950	0.079105
Zn8	Zn	-0.124527	-1.056749	0.104246
Zn9	Zn	-0.124538	-1.056770	-0.104349
O10	O	-0.255759	-1.049796	0.079098
C11	C	-0.130936	-0.893236	-0.000046
C12	C	-0.129049	-0.793939	-0.000042
C13	C	-0.120911	-0.366241	-0.086360
C14	C	-0.122681	-0.459541	-0.086358
C15	C	-0.123568	-0.506178	-0.000054
C16	C	-0.122675	-0.459511	0.086253
C17	C	-0.120898	-0.366213	0.086249
C18	C	-0.126380	-0.653973	0.086254
C19	C	-0.128159	-0.747278	0.086258
C20	C	-0.128163	-0.747302	-0.086353
C21	C	-0.126387	-0.654004	-0.086356
C22	C	-0.125496	-0.607343	-0.000049
C23	C	-0.289352	-1.050434	-0.000065
C24	C	-0.389435	-1.052323	-0.000074
C25	C	-0.801954	-1.141780	-0.000043
C26	C	-0.823263	-0.978838	-0.000038
C27	C	-0.729229	-0.977062	-0.000047
C28	C	-0.671554	-1.057646	-0.000052
C29	C	-0.707911	-1.140007	-0.000049
C30	C	-0.692864	-0.894703	-0.000041
C31	C	-0.598825	-0.892924	-0.000049
C32	C	-0.541148	-0.973509	-0.000061
C33	C	-0.577511	-1.055873	-0.000059
C34	C	-0.519836	-1.136457	-0.000064
C35	C	-0.556197	-1.218822	-0.000068
C36	C	-0.650234	-1.220592	-0.000061
C37	C	-0.447111	-0.971739	-0.000069
C38	C	-0.425793	-1.134683	-0.000070
C39	C	0.040287	-1.063085	-0.000040
C40	C	0.140371	-1.061196	-0.000037
C41	C	-0.118130	-0.220283	-0.000057
C42	C	-0.120021	-0.319579	-0.000060
N43	N	-0.124519	-1.056740	0.246607
N44	N	-0.124539	-1.056786	-0.246710
C45	C	-0.063321	-1.117491	0.296428
C46	C	-0.063321	-1.117497	0.396085
C47	C	-0.124523	-1.056756	0.445920
C48	C	-0.185724	-0.995998	0.396093
C49	C	-0.185719	-0.995989	0.296437
C50	C	-0.185731	-0.996024	0.603807
C51	C	-0.185736	-0.996035	0.703469
C52	C	-0.063332	-1.117533	0.703456
C53	C	-0.063327	-1.117523	0.603800
C54	C	-0.124529	-1.056766	0.553979
H55	H	-0.120183	-0.328221	0.156524
C56	C	-0.559229	-0.803567	-0.000205
C57	C	-0.505869	-0.797810	-0.081654
C58	C	-0.469368	-0.715512	-0.081828
H59	H	-0.606955	-0.755753	-0.000250
H60	H	-0.522923	-0.799468	0.054971
H61	H	-0.542173	-0.801899	-0.136816
H62	H	-0.458128	-0.845604	-0.081627
H63	H	-0.433062	-0.711414	-0.026653
H64	H	-0.517100	-0.667705	-0.081871
H65	H	-0.433152	-0.711599	-0.137086
C66	C	-0.363327	-1.222275	-0.000029
C67	C	-0.415301	-1.294779	-0.000009
C68	C	-0.357789	-1.375481	0.000041
H69	H	-0.326187	-1.225102	-0.055225
H70	H	-0.326205	-1.225016	0.055202
H71	H	-0.452407	-1.292039	-0.055235
H72	H	-0.452438	-1.291982	0.055182
H73	H	-0.320667	-1.378222	0.055273
H74	H	-0.320652	-1.378299	-0.055156
H75	H	-0.393044	-1.424684	0.000063
C76	C	-0.689888	-1.309919	-0.000007
C77	C	-0.784585	-1.294221	0.000031
C78	C	-0.821149	-1.376486	0.000098
H79	H	-0.670214	-1.343182	-0.055203
H80	H	-0.670137	-1.343103	0.055225
H81	H	-0.804329	-1.261051	-0.055194
H82	H	-0.804284	-1.260971	0.055223
H83	H	-0.801397	-1.409670	0.055330
H84	H	-0.801468	-1.409743	-0.055098
H85	H	-0.885404	-1.365847	0.000133
H86	H	-0.128885	-0.785246	0.156534
H87	H	-0.125666	-0.615983	0.156535
H88	H	-0.235565	-0.946547	0.563246
C89	C	0.002973	-1.183502	0.450305
C90	C	-0.045155	-1.238291	0.507512
C91	C	0.015886	-1.299099	0.557484
H92	H	0.039448	-1.219770	0.406466
H93	H	0.040544	-1.151313	0.489252
H94	H	-0.082711	-1.270479	0.468568
H95	H	-0.081626	-1.202049	0.551368
H96	H	0.053458	-1.266909	0.596431
H97	H	0.052358	-1.335360	0.513639
H98	H	-0.016759	-1.336275	0.596311
H99	H	-0.120196	-0.328275	-0.156639
C100	C	-0.755331	-0.807120	0.000007
C101	C	-0.703364	-0.734611	0.000033
C102	C	-0.760882	-0.653913	0.000085
H103	H	-0.792483	-0.804308	-0.055190
H104	H	-0.792441	-0.804369	0.055237
H105	H	-0.666270	-0.737360	-0.055192
H106	H	-0.666214	-0.737393	0.055226
H107	H	-0.797991	-0.651163	0.055315
H108	H	-0.798030	-0.651110	-0.055113
H109	H	-0.725631	-0.604706	0.000111
H110	H	-0.831564	-1.208840	-0.000050
C111	C	-0.252210	-0.929945	0.450024
C112	C	-0.305785	-0.876721	0.385059
C113	C	-0.367034	-0.815853	0.434703
H114	H	-0.289884	-0.962058	0.488887
H115	H	-0.219735	-0.892631	0.488895
H116	H	-0.338257	-0.914029	0.346204
H117	H	-0.268136	-0.844587	0.346194
H118	H	-0.334560	-0.778539	0.473574
H119	H	-0.404702	-0.847974	0.473564
H120	H	-0.403387	-0.779728	0.390632
C121	C	0.003226	-1.183353	0.757589
C122	C	0.058517	-1.135656	0.814804
C123	C	0.119843	-1.196261	0.864678
H124	H	-0.029163	-1.220650	0.796527
H125	H	0.039724	-1.219516	0.713663
H126	H	0.022025	-1.099509	0.858724
H127	H	0.090926	-1.098363	0.775889
H128	H	0.156340	-1.232423	0.820752
H129	H	0.087447	-1.233554	0.903611
H130	H	0.157371	-1.163907	0.903497
H131	H	-0.870227	-0.913230	-0.000028
H132	H	-0.235573	-0.946572	0.744040
C133	C	-0.252210	-0.930175	0.242219
C134	C	-0.307461	-0.977876	0.184961
C135	C	-0.368714	-0.917275	0.134994
H136	H	-0.288750	-0.893976	0.286060
H137	H	-0.219736	-0.892914	0.203307
H138	H	-0.339933	-1.015121	0.223870
H139	H	-0.270947	-1.014072	0.141102
H140	H	-0.336240	-0.880014	0.096082
H141	H	-0.405248	-0.881079	0.178842
H142	H	-0.406203	-0.949631	0.096132
H143	H	-0.123401	-0.497529	-0.156632
C144	C	-0.125381	-0.603534	-0.180156
C145	C	-0.126515	-0.664367	-0.255740
C146	C	-0.125573	-0.617910	-0.342162
H147	H	-0.177204	-0.560379	-0.183886
H148	H	-0.072133	-0.573919	-0.183785
H149	H	-0.179756	-0.693967	-0.252113
H150	H	-0.074695	-0.707524	-0.252041
H151	H	-0.072326	-0.588295	-0.345791
H152	H	-0.177398	-0.574756	-0.345882
H153	H	-0.126334	-0.659179	-0.393456
H154	H	-0.417510	-0.904679	-0.000051
H155	H	-0.013487	-1.166957	0.255859
H156	H	-0.123391	-0.497491	0.156523
H157	H	-0.013496	-1.166987	0.563224
H158	H	-0.509225	-1.284433	-0.000067
H159	H	-0.128890	-0.785298	-0.156627
