data_functionalizedCrystal
_audit_creation_method	'MofGen! by Chris Wilmer'
_symmetry_space_group_name_H-M	'P1'
_symmetry_Int_Tables_number	1
_symmetry_cell_setting	triclinic
loop_
_symmetry_equiv_pos_as_xyz
  x,y,z
_cell_length_a	18.215407
_cell_length_b	16.625546
_cell_length_c	18.215399
_cell_angle_alpha	89.970824
_cell_angle_beta	89.980167
_cell_angle_gamma	90.022916
loop_
_atom_site_label
_atom_site_type_symbol
_atom_site_fract_x
_atom_site_fract_y
_atom_site_fract_z
Zn1	Zn	1.125084	-0.321000	-0.416110
Zn2	Zn	1.375084	-0.071000	-0.166110
Zn3	Zn	1.625084	0.179000	0.083890
Zn4	Zn	1.875084	0.429000	0.333890
Zn5	Zn	1.124998	-0.455841	-0.293041
Zn6	Zn	1.374998	-0.205841	-0.043041
Zn7	Zn	1.624998	0.044159	0.206959
Zn8	Zn	1.874998	0.294159	0.456959
Zn9	Zn	1.002017	-0.321027	-0.293057
Zn10	Zn	1.252017	-0.071027	-0.043057
Zn11	Zn	1.502017	0.178973	0.206943
Zn12	Zn	1.752017	0.428973	0.456943
Zn13	Zn	1.001988	-0.455796	-0.416066
Zn14	Zn	1.251988	-0.205796	-0.166066
Zn15	Zn	1.501988	0.044204	0.083934
Zn16	Zn	1.751988	0.294204	0.333934
O17	O	1.063522	-0.388416	-0.354568
O18	O	1.313522	-0.138416	-0.104568
O19	O	1.563522	0.111584	0.145432
O20	O	1.813522	0.361584	0.395432
O21	O	1.228057	-0.338895	-0.399796
O22	O	1.478057	-0.088895	-0.149796
O23	O	1.728057	0.161105	0.100204
O24	O	1.978057	0.411105	0.350204
O25	O	1.108660	-0.437987	-0.190059
O26	O	1.358660	-0.187987	0.059941
O27	O	1.608660	0.062013	0.309941
O28	O	1.858660	0.312013	0.559941
O29	O	1.018390	-0.208191	-0.309405
O30	O	1.268390	0.041809	-0.059405
O31	O	1.518390	0.291809	0.190595
O32	O	1.768390	0.541809	0.440595
O33	O	1.227994	-0.437961	-0.309378
O34	O	1.477994	-0.187961	-0.059378
O35	O	1.727994	0.062039	0.190622
O36	O	1.977994	0.312039	0.440622
O37	O	1.108807	-0.208171	-0.399812
O38	O	1.358807	0.041829	-0.149812
O39	O	1.608807	0.291829	0.100188
O40	O	1.858807	0.541829	0.350188
O41	O	1.018307	-0.338940	-0.190070
O42	O	1.268307	-0.088940	0.059930
O43	O	1.518307	0.161060	0.309930
O44	O	1.768307	0.411060	0.559930
O45	O	0.899029	-0.338896	-0.309363
O46	O	1.149029	-0.088896	-0.059363
O47	O	1.399029	0.161104	0.190637
O48	O	1.649029	0.411104	0.440637
O49	O	1.018341	-0.437885	-0.519056
O50	O	1.268341	-0.187885	-0.269056
O51	O	1.518341	0.062115	-0.019056
O52	O	1.768341	0.312115	0.230944
O53	O	0.899008	-0.437910	-0.399737
O54	O	1.149008	-0.187910	-0.149737
O55	O	1.399008	0.062090	0.100263
O56	O	1.649008	0.312090	0.350263
O57	O	1.108779	-0.338851	-0.519088
O58	O	1.358779	-0.088851	-0.269088
O59	O	1.608779	0.161149	-0.019088
O60	O	1.858779	0.411149	0.230912
O61	O	1.108632	-0.568667	-0.309335
O62	O	1.358632	-0.318667	-0.059335
O63	O	1.608632	-0.068667	0.190665
O64	O	1.858632	0.181333	0.440665
O65	O	1.018257	-0.568634	-0.399721
O66	O	1.268257	-0.318634	-0.149721
O67	O	1.518257	-0.068634	0.100279
O68	O	1.768257	0.181366	0.350279
C69	C	0.872315	-0.388402	-0.354547
C70	C	1.122315	-0.138402	-0.104547
C71	C	1.372315	0.111598	0.145453
C72	C	1.622315	0.361598	0.395453
C73	C	0.790517	-0.388415	-0.354556
C74	C	1.040517	-0.138415	-0.104556
C75	C	1.290517	0.111585	0.145444
C76	C	1.540517	0.361585	0.395444
C77	C	0.602331	-0.440053	-0.401554
C78	C	0.852331	-0.190053	-0.151554
C79	C	1.102331	0.059947	0.098446
C80	C	1.352331	0.309947	0.348446
C81	C	0.525472	-0.440056	-0.401563
C82	C	0.775472	-0.190056	-0.151563
C83	C	1.025472	0.059944	0.098437
C84	C	1.275472	0.309944	0.348437
C85	C	0.525465	-0.336793	-0.307598
C86	C	0.775465	-0.086793	-0.057598
C87	C	1.025465	0.163207	0.192402
C88	C	1.275465	0.413207	0.442402
C89	C	0.602322	-0.336787	-0.307593
C90	C	0.852322	-0.086787	-0.057593
C91	C	1.102322	0.163213	0.192407
C92	C	1.352322	0.413213	0.442407
C93	C	0.640753	-0.388422	-0.354570
C94	C	0.890753	-0.138422	-0.104570
C95	C	1.140753	0.111578	0.145430
C96	C	1.390753	0.361578	0.395430
C97	C	0.487037	-0.388430	-0.354584
C98	C	0.737037	-0.138430	-0.104584
C99	C	0.987037	0.111570	0.145416
C100	C	1.237037	0.361570	0.395416
C101	C	0.403703	-0.388433	-0.354594
C102	C	0.653703	-0.138433	-0.104594
C103	C	0.903703	0.111567	0.145406
C104	C	1.153703	0.361567	0.395406
C105	C	0.724092	-0.388418	-0.354562
C106	C	0.974092	-0.138418	-0.104562
C107	C	1.224092	0.111582	0.145438
C108	C	1.474092	0.361582	0.395438
C109	C	1.063452	-0.597907	-0.354537
C110	C	1.313452	-0.347907	-0.104537
C111	C	1.563452	-0.097907	0.145463
C112	C	1.813452	0.152093	0.395463
C113	C	1.063490	-0.687528	-0.354549
C114	C	1.313490	-0.437528	-0.104549
C115	C	1.563490	-0.187528	0.145451
C116	C	1.813490	0.062472	0.395451
C117	C	1.063618	-1.015703	-0.354625
C118	C	1.313618	-0.765703	-0.104625
C119	C	1.563618	-0.515703	0.145375
C120	C	1.813618	-0.265703	0.395375
C121	C	1.063580	-0.924395	-0.354606
C122	C	1.313580	-0.674395	-0.104606
C123	C	1.563580	-0.424395	0.145394
C124	C	1.813580	-0.174395	0.395394
C125	C	1.063553	-0.851618	-0.354587
C126	C	1.313553	-0.601618	-0.104587
C127	C	1.563553	-0.351618	0.145413
C128	C	1.813553	-0.101618	0.395413
C129	C	1.063516	-0.760304	-0.354568
C130	C	1.313516	-0.510304	-0.104568
C131	C	1.563516	-0.260304	0.145432
C132	C	1.813516	-0.010304	0.395432
C133	C	1.255475	-0.388430	-0.354590
C134	C	1.505475	-0.138430	-0.104590
C135	C	1.755475	0.111570	0.145410
C136	C	2.005475	0.361570	0.395410
C137	C	1.337274	-0.388436	-0.354599
C138	C	1.587274	-0.138436	-0.104599
C139	C	1.837274	0.111564	0.145401
C140	C	2.087274	0.361564	0.395401
C141	C	1.063567	-0.388360	-0.546521
C142	C	1.313567	-0.138360	-0.296521
C143	C	1.563567	0.111640	-0.046521
C144	C	1.813567	0.361640	0.203479
C145	C	1.063586	-0.388336	-0.628320
C146	C	1.313586	-0.138336	-0.378320
C147	C	1.563586	0.111664	-0.128320
C148	C	1.813586	0.361664	0.121680
C149	C	1.063612	-0.178107	-0.354615
C150	C	1.313612	0.071893	-0.104615
C151	C	1.563612	0.321893	0.145385
C152	C	1.813612	0.571893	0.395385
C153	C	1.063650	-0.088486	-0.354635
C154	C	1.313650	0.161514	-0.104635
C155	C	1.563650	0.411514	0.145365
C156	C	1.813650	0.661514	0.395365
C157	C	1.110694	-0.336721	-0.816532
C158	C	1.360694	-0.086721	-0.566532
C159	C	1.610694	0.163279	-0.316532
C160	C	1.860694	0.413279	-0.066532
C161	C	1.110703	-0.336698	-0.893391
C162	C	1.360703	-0.086698	-0.643391
C163	C	1.610703	0.163302	-0.393391
C164	C	1.860703	0.413302	-0.143391
C165	C	1.016530	-0.439827	-0.893346
C166	C	1.266530	-0.189827	-0.643346
C167	C	1.516530	0.060173	-0.393346
C168	C	1.766530	0.310173	-0.143346
C169	C	1.016518	-0.439846	-0.816489
C170	C	1.266518	-0.189846	-0.566489
C171	C	1.516518	0.060154	-0.316489
C172	C	1.766518	0.310154	-0.066489
C173	C	1.063604	-0.388294	-0.778084
C174	C	1.313604	-0.138294	-0.528084
C175	C	1.563604	0.111706	-0.278084
C176	C	1.813604	0.361706	-0.028084
C177	C	1.063625	-0.388252	-0.931800
C178	C	1.313625	-0.138252	-0.681800
C179	C	1.563625	0.111748	-0.431800
C180	C	1.813625	0.361748	-0.181800
C181	C	1.063634	-0.388227	-1.015134
C182	C	1.313634	-0.138227	-0.765134
C183	C	1.563634	0.111773	-0.515134
C184	C	1.813634	0.361773	-0.265134
C185	C	1.063594	-0.388318	-0.694745
C186	C	1.313594	-0.138318	-0.444745
C187	C	1.563594	0.111682	-0.194745
C188	C	1.813594	0.361682	0.055255
C189	C	1.063519	-0.388413	-0.163362
C190	C	1.313519	-0.138413	0.086638
C191	C	1.563519	0.111587	0.336638
C192	C	1.813519	0.361587	0.586638
C193	C	1.063643	-0.388209	-0.081563
C194	C	1.313643	-0.138209	0.168437
C195	C	1.563643	0.111791	0.418437
C196	C	1.813643	0.361791	0.668437
H197	H	0.633606	-0.294737	-0.269333
H198	H	0.883606	-0.044737	-0.019333
H199	H	1.133606	0.205263	0.230667
H200	H	1.383606	0.455263	0.480667
N201	N	0.643779	-0.495742	-0.452222
N202	N	0.893779	-0.245742	-0.202222
N203	N	1.143779	0.004258	0.047778
N204	N	1.393779	0.254258	0.297778
H205	H	0.630430	-0.483291	-0.504825
H206	H	0.880430	-0.233291	-0.254825
H207	H	1.130430	0.016709	-0.004825
H208	H	1.380430	0.266709	0.245175
H209	H	0.698286	-0.487883	-0.445027
H210	H	0.948286	-0.237883	-0.195027
H211	H	1.198286	0.012117	0.054973
H212	H	1.448286	0.262117	0.304973
N213	N	0.484017	-0.281115	-0.256920
N214	N	0.734017	-0.031115	-0.006920
N215	N	0.984017	0.218885	0.243080
N216	N	1.234017	0.468885	0.493080
H217	H	0.497377	-0.293573	-0.204321
H218	H	0.747377	-0.043573	0.045679
H219	H	0.997377	0.206427	0.295679
H220	H	1.247377	0.456427	0.545679
H221	H	0.497430	-0.223540	-0.268499
H222	H	0.747430	0.026460	-0.018499
H223	H	0.997430	0.276460	0.231501
H224	H	1.247430	0.526460	0.481501
H225	H	1.149047	-0.294701	-0.924692
H226	H	1.399047	-0.044701	-0.674692
H227	H	1.649047	0.205299	-0.424692
H228	H	1.899047	0.455299	-0.174692
N229	N	0.965735	-0.495414	-0.934769
N230	N	1.215735	-0.245414	-0.684769
N231	N	1.465735	0.004586	-0.434769
N232	N	1.715735	0.254586	-0.184769
H233	H	0.972884	-0.487575	-0.989292
H234	H	1.222884	-0.237575	-0.739292
H235	H	1.472884	0.012425	-0.489292
H236	H	1.722884	0.262425	-0.239292
H237	H	0.977151	-0.553008	-0.921327
H238	H	1.227151	-0.303008	-0.671327
H239	H	1.477151	-0.053008	-0.421327
H240	H	1.727151	0.196992	-0.171327
H241	H	0.978166	-0.481842	-0.785183
H242	H	1.228166	-0.231842	-0.535183
H243	H	1.478166	0.018158	-0.285183
H244	H	1.728166	0.268158	-0.035183
N245	N	1.161476	-0.281122	-0.775108
N246	N	1.411476	-0.031122	-0.525108
N247	N	1.661476	0.218878	-0.275108
N248	N	1.911476	0.468878	-0.025108
H249	H	1.191308	-0.248446	-0.811131
H250	H	1.441308	0.001554	-0.561131
H251	H	1.691308	0.251554	-0.311131
H252	H	1.941308	0.501554	-0.061131
H253	H	1.131530	-0.243815	-0.743222
H254	H	1.381530	0.006185	-0.493222
H255	H	1.631530	0.256185	-0.243222
H256	H	1.881530	0.506185	0.006778
N257	N	0.484030	-0.495747	-0.452235
N258	N	0.734030	-0.245747	-0.202235
N259	N	0.984030	0.004253	0.047765
N260	N	1.234030	0.254253	0.297765
H261	H	0.520041	-0.528456	-0.481991
H262	H	0.770041	-0.278456	-0.231991
H263	H	1.020041	-0.028456	0.018009
H264	H	1.270041	0.221544	0.268009
H265	H	0.452118	-0.533019	-0.422216
H266	H	0.702118	-0.283019	-0.172216
H267	H	0.952118	-0.033019	0.077784
H268	H	1.202118	0.216981	0.327784
