data_functionalizedCrystal
_audit_creation_method	'MofGen! by Chris Wilmer'
_symmetry_space_group_name_H-M	'P1'
_symmetry_Int_Tables_number	1
_symmetry_cell_setting	triclinic
loop_
_symmetry_equiv_pos_as_xyz
  x,y,z
_cell_length_a	15.944493
_cell_length_b	15.944551
_cell_length_c	9.198806
_cell_angle_alpha	89.995864
_cell_angle_beta	89.996623
_cell_angle_gamma	83.486891
loop_
_atom_site_label
_atom_site_type_symbol
_atom_site_fract_x
_atom_site_fract_y
_atom_site_fract_z
O1	O	1.114554	0.108098	-0.120876
O2	O	0.869998	0.121505	-0.120884
O3	O	0.998954	-0.007474	-0.120867
O4	O	0.985598	0.237078	-0.120893
O5	O	0.998944	-0.007475	0.120918
O6	O	0.869988	0.121505	0.120901
O7	O	1.114544	0.108098	0.120909
Cu8	Cu	0.992265	0.114802	0.142982
Cu9	Cu	0.992277	0.114802	-0.142957
O10	O	0.985587	0.237078	0.120892
C11	C	0.838698	0.120957	0.000008
C12	C	0.745449	0.119314	0.000005
C13	C	0.509689	0.195235	-0.000004
C14	C	0.459126	0.154294	0.119220
C15	C	0.574728	0.116270	0.000009
C16	C	0.459141	0.154275	-0.119162
C17	C	0.409819	0.113336	0.000005
C18	C	0.525393	0.075351	0.119330
C19	C	0.525411	0.075344	-0.119158
C20	C	0.474880	0.034345	0.000095
C21	C	0.669728	0.117963	0.000012
C22	C	0.314821	0.111637	0.000013
C23	C	0.998395	-0.038768	0.000026
C24	C	0.996732	-0.132014	0.000027
C25	C	0.912826	-0.346853	0.000004
C26	C	0.951784	-0.407879	0.119220
C27	C	0.993725	-0.302739	0.000016
C28	C	0.951813	-0.407862	-0.119161
C29	C	0.990814	-0.467651	-0.000002
C30	C	1.032706	-0.362537	0.119330
C31	C	1.032723	-0.362513	-0.119158
C32	C	1.071741	-0.423521	0.000087
C33	C	0.995399	-0.207737	0.000027
C34	C	0.989146	-0.562652	-0.000002
C35	C	1.145844	0.108646	0.000014
C36	C	1.239092	0.110289	0.000007
C37	C	0.986147	0.268372	-0.000004
C38	C	0.987809	0.361617	-0.000015
N39	N	0.992262	0.114801	0.344096
N40	N	0.992286	0.114796	-0.344071
C41	C	1.046409	0.060409	0.416300
C42	C	1.046423	0.060406	0.583712
H43	H	0.554361	0.042021	-0.219948
H44	H	0.525313	0.263254	0.000100
H45	H	1.066915	-0.342390	-0.219949
F46	F	1.107021	-0.000458	0.664868
F47	F	1.106842	-0.000604	0.335108
H48	H	0.554217	0.042023	0.220224
H49	H	0.917563	-0.427980	0.220005
H50	H	1.066890	-0.342553	0.220228
F51	F	0.421322	0.197883	-0.250889
H52	H	0.430184	0.187642	0.220005
H53	H	0.945929	0.161368	0.593846
H54	H	0.945911	0.161362	0.406218
F55	F	0.825056	-0.303300	0.000149
H56	H	0.459415	-0.033726	0.000171
F57	F	1.159587	-0.466883	0.000173
F58	F	0.907076	-0.434113	-0.250888
