data_functionalizedCrystal
_audit_creation_method	'MofGen! by Chris Wilmer'
_symmetry_space_group_name_H-M	'P1'
_symmetry_Int_Tables_number	1
_symmetry_cell_setting	triclinic
loop_
_symmetry_equiv_pos_as_xyz
  x,y,z
_cell_length_a	25.639239
_cell_length_b	25.639243
_cell_length_c	25.639233
_cell_angle_alpha	90.015962
_cell_angle_beta	90.018747
_cell_angle_gamma	90.041410
loop_
_atom_site_label
_atom_site_type_symbol
_atom_site_fract_x
_atom_site_fract_y
_atom_site_fract_z
Zn1	Zn	-0.208176	0.799225	0.295656
Zn2	Zn	0.291824	1.299225	0.795656
Zn3	Zn	-0.295595	0.799149	0.208220
Zn4	Zn	0.204405	1.299149	0.708220
Zn5	Zn	-0.208180	0.711801	0.208229
Zn6	Zn	0.291820	1.211801	0.708229
Zn7	Zn	-0.295587	0.711746	0.295619
Zn8	Zn	0.204413	1.211746	0.795619
O9	O	-0.251885	0.755480	0.251931
O10	O	0.248115	1.255480	0.751931
O11	O	-0.219775	0.872380	0.284069
O12	O	0.280225	1.372380	0.784069
O13	O	-0.284004	0.787553	0.135056
O14	O	0.215996	1.287553	0.635056
O15	O	-0.135014	0.723453	0.219846
O16	O	0.364986	1.223453	0.719846
O17	O	-0.284001	0.872324	0.219830
O18	O	0.215999	1.372324	0.719830
O19	O	-0.135012	0.787683	0.284077
O20	O	0.364988	1.287683	0.784077
O21	O	-0.219781	0.723379	0.135063
O22	O	0.280219	1.223379	0.635063
O23	O	-0.219772	0.638629	0.219810
O24	O	0.280228	1.138629	0.719810
O25	O	-0.283987	0.723360	0.368789
O26	O	0.216013	1.223360	0.868789
O27	O	-0.283990	0.638589	0.284016
O28	O	0.216010	1.138589	0.784016
O29	O	-0.219767	0.787630	0.368816
O30	O	0.280233	1.287630	0.868816
O31	O	-0.368759	0.787499	0.219795
O32	O	0.131241	1.287499	0.719795
O33	O	-0.368753	0.723286	0.284007
O34	O	0.131247	1.223286	0.784007
C35	C	-0.251881	0.619638	0.251910
C36	C	0.248119	1.119638	0.751910
C37	C	-0.251892	0.561524	0.251914
C38	C	0.248108	1.061524	0.751914
C39	C	-0.218495	0.201184	0.285436
C40	C	0.281505	0.701184	0.785436
C41	C	-0.218494	0.146580	0.285439
C42	C	0.281506	0.646580	0.785439
O43	O	-0.190088	0.118363	0.313915
O44	O	0.309912	0.618363	0.813915
N45	N	-0.251883	0.119241	0.251945
N46	N	0.248117	0.619241	0.751945
C47	C	-0.285271	0.146510	0.218443
C48	C	0.214729	0.646510	0.718443
O49	O	-0.313670	0.118242	0.189954
O50	O	0.186330	0.618242	0.689954
C51	C	-0.285268	0.201113	0.218437
C52	C	0.214732	0.701113	0.718437
C53	C	-0.251881	0.228449	0.251937
C54	C	0.248119	0.728449	0.751937
C55	C	-0.185109	0.228520	0.318932
C56	C	0.314891	0.728520	0.818932
C57	C	-0.185111	0.283121	0.318930
C58	C	0.314889	0.783121	0.818930
C59	C	-0.218497	0.310385	0.285431
C60	C	0.281503	0.810385	0.785431
C61	C	-0.251882	0.283049	0.251934
C62	C	0.248118	0.783049	0.751934
C63	C	-0.318653	0.228380	0.184932
C64	C	0.181347	0.728380	0.684932
C65	C	-0.318647	0.282987	0.184929
C66	C	0.181353	0.782987	0.684929
C67	C	-0.285260	0.310323	0.218429
C68	C	0.214740	0.810323	0.718429
C69	C	-0.285270	0.364915	0.218432
C70	C	0.214730	0.864915	0.718432
N71	N	-0.251881	0.392253	0.251926
N72	N	0.248119	0.892253	0.751926
C73	C	-0.218494	0.364989	0.285425
C74	C	0.281506	0.864989	0.785425
C75	C	-0.285273	0.031839	0.218456
C76	C	0.214727	0.531839	0.718456
C77	C	-0.285279	-0.022763	0.218464
C78	C	0.214721	0.477237	0.718464
C79	C	-0.218501	-0.022689	0.285460
C80	C	0.281499	0.477311	0.785460
C81	C	-0.218499	0.031914	0.285454
C82	C	0.281501	0.531914	0.785454
C83	C	-0.251884	0.059178	0.251950
C84	C	0.248116	0.559178	0.751950
C85	C	-0.218500	0.479654	0.285417
C86	C	0.281500	0.979654	0.785417
C87	C	-0.218506	0.534259	0.285413
C88	C	0.281494	1.034259	0.785413
C89	C	-0.285281	0.534180	0.218415
C90	C	0.214719	1.034180	0.718415
C91	C	-0.285278	0.479580	0.218421
C92	C	0.214722	0.979580	0.718421
C93	C	-0.251883	0.452318	0.251924
C94	C	0.248117	0.952318	0.751924
O95	O	-0.313659	0.393166	0.189969
O96	O	0.186341	0.893166	0.689969
O97	O	-0.190095	0.393263	0.313904
O98	O	0.309905	0.893263	0.813904
C99	C	-0.387727	0.755392	0.251907
C100	C	0.112273	1.255392	0.751907
C101	C	-0.445841	0.755403	0.251914
C102	C	0.054159	1.255403	0.751914
C103	C	-0.806195	0.789004	0.218553
C104	C	-0.306195	1.289004	0.718553
C105	C	-0.860799	0.789024	0.218560
C106	C	-0.360799	1.289024	0.718560
O107	O	-0.889028	0.817502	0.190169
O108	O	-0.389028	1.317502	0.690169
N109	N	-0.888124	0.755572	0.251966
N110	N	-0.388124	1.255572	0.751966
C111	C	-0.860841	0.722102	0.285371
C112	C	-0.360841	1.222102	0.785371
O113	O	-0.889096	0.693651	0.313786
O114	O	-0.389096	1.193651	0.813786
C115	C	-0.806238	0.722085	0.285366
C116	C	-0.306238	1.222085	0.785366
C117	C	-0.778916	0.755535	0.251954
C118	C	-0.278916	1.255535	0.751954
C119	C	-0.778873	0.822452	0.185144
C120	C	-0.278873	1.322452	0.685144
C121	C	-0.724273	0.822431	0.185137
C122	C	-0.224273	1.322431	0.685137
C123	C	-0.696994	0.788962	0.218538
C124	C	-0.196994	1.288962	0.718538
C125	C	-0.724315	0.755514	0.251946
C126	C	-0.224315	1.255514	0.751946
C127	C	-0.778956	0.688617	0.318773
C128	C	-0.278956	1.188617	0.818773
C129	C	-0.724349	0.688603	0.318765
C130	C	-0.224349	1.188603	0.818765
C131	C	-0.697027	0.722053	0.285354
C132	C	-0.197027	1.222053	0.785354
C133	C	-0.642436	0.722024	0.285340
C134	C	-0.142436	1.222024	0.785340
N135	N	-0.615112	0.755475	0.251934
N136	N	-0.115112	1.255475	0.751934
C137	C	-0.642390	0.788944	0.218533
C138	C	-0.142390	1.288944	0.718533
C139	C	-0.975511	0.722141	0.285379
C140	C	-0.475511	1.222141	0.785379
C141	C	-1.030114	0.722155	0.285381
C142	C	-0.530114	1.222155	0.785381
C143	C	-1.030068	0.789078	0.218571
C144	C	-0.530068	1.289078	0.718571
C145	C	-0.975465	0.789061	0.218566
C146	C	-0.475465	1.289061	0.718566
C147	C	-0.948187	0.755593	0.251973
C148	C	-0.448187	1.255593	0.751973
C149	C	-0.527725	0.788897	0.218519
C150	C	-0.027725	1.288897	0.718519
C151	C	-0.473120	0.788872	0.218513
C152	C	0.026880	1.288872	0.718513
C153	C	-0.473170	0.721951	0.285325
C154	C	0.026830	1.221951	0.785325
C155	C	-0.527771	0.721974	0.285329
C156	C	-0.027771	1.221974	0.785329
C157	C	-0.555047	0.755452	0.251925
C158	C	-0.055047	1.255452	0.751925
O159	O	-0.614173	0.693562	0.313718
O160	O	-0.114173	1.193562	0.813718
O161	O	-0.614128	0.817396	0.190127
O162	O	-0.114128	1.317396	0.690127
C163	C	-0.115512	0.755583	0.251967
C164	C	0.384488	1.255583	0.751967
C165	C	-0.057397	0.755627	0.251982
C166	C	0.442603	1.255627	0.751982
C167	C	-0.251875	0.755497	0.388304
C168	C	0.248125	1.255497	0.888304
C169	C	-0.251871	0.755504	0.446418
C170	C	0.248129	1.255504	0.946418
C171	C	-0.251888	0.891853	0.251952
C172	C	0.248112	1.391853	0.751952
C173	C	-0.251890	0.949967	0.251961
C174	C	0.248110	1.449967	0.751961
C175	C	-0.251856	0.755494	0.116089
C176	C	0.248144	1.255494	0.616089
C177	C	-0.251713	0.755588	0.057975
C178	C	0.248287	1.255588	0.557975
C179	C	-0.218333	0.789012	0.806801
C180	C	0.281667	1.289012	1.306801
C181	C	-0.218318	0.789019	0.861405
C182	C	0.281682	1.289019	1.361405
O183	O	-0.189864	0.817466	0.889659
O184	O	0.310136	1.317466	1.389659
N185	N	-0.251749	0.755562	0.888701
N186	N	0.248251	1.255562	1.388701
C187	C	-0.285192	0.722093	0.861389
C188	C	0.214808	1.222093	1.361389
O189	O	-0.313626	0.693636	0.889620
O190	O	0.186374	1.193636	1.389620
C191	C	-0.285204	0.722084	0.806786
C192	C	0.214796	1.222084	1.306786
C193	C	-0.251775	0.755547	0.779493
C194	C	0.248225	1.255547	1.279493
C195	C	-0.184906	0.822472	0.779508
C196	C	0.315094	1.322472	1.279508
C197	C	-0.184921	0.822466	0.724908
C198	C	0.315079	1.322466	1.224908
C199	C	-0.218363	0.789001	0.697600
C200	C	0.281637	1.289001	1.197600
C201	C	-0.251790	0.755541	0.724893
C202	C	0.248210	1.255541	1.224893
C203	C	-0.318644	0.688613	0.779475
C204	C	0.181356	1.188613	1.279475
C205	C	-0.318653	0.688607	0.724868
C206	C	0.181347	1.188607	1.224868
C207	C	-0.285223	0.722069	0.697576
C208	C	0.214777	1.222069	1.197576
C209	C	-0.285247	0.722070	0.642984
C210	C	0.214753	1.222070	1.142984
N211	N	-0.251817	0.755526	0.615689
N212	N	0.248183	1.255526	1.115689
C213	C	-0.218375	0.788992	0.642996
C214	C	0.281625	1.288992	1.142996
C215	C	-0.285165	0.722113	0.976060
C216	C	0.214835	1.222113	1.476060
C217	C	-0.285157	0.722124	1.030662
C218	C	0.214843	1.222124	1.530662
C219	C	-0.218282	0.789049	1.030675
C220	C	0.281718	1.289049	1.530675
C221	C	-0.218293	0.789041	0.976071
C222	C	0.281707	1.289041	1.476071
C223	C	-0.251735	0.755570	0.948764
C224	C	0.248265	1.255570	1.448764
C225	C	-0.218410	0.788977	0.528331
C226	C	0.281590	1.288977	1.028331
C227	C	-0.218429	0.788970	0.473726
C228	C	0.281571	1.288970	0.973726
C229	C	-0.285302	0.722043	0.473719
C230	C	0.214698	1.222043	0.973719
C231	C	-0.285285	0.722052	0.528319
C232	C	0.214715	1.222052	1.028319
C233	C	-0.251834	0.755521	0.555624
C234	C	0.248166	1.255521	1.055624
O235	O	-0.313686	0.693635	0.614696
O236	O	0.186314	1.193635	1.114696
O237	O	-0.189941	0.817439	0.614759
O238	O	0.310059	1.317439	1.114759
H239	H	-0.191317	0.556514	0.312694
H240	H	0.308683	1.056514	0.812694
H241	H	-0.702031	0.849670	0.157932
H242	H	-0.202031	1.349670	0.657932
H243	H	-0.312384	0.694881	1.052880
H244	H	0.187616	1.194881	1.552880
C245	C	-0.322061	0.685245	0.558342
C246	C	0.177939	1.185245	1.058342
N247	N	-0.349759	0.657517	0.580952
N248	N	0.150241	1.157517	1.080952
C249	C	-0.181491	0.825859	1.060724
C250	C	0.318509	1.325859	1.560724
N251	N	-0.153782	0.853581	1.083358
N252	N	0.346218	1.353581	1.583358
C253	C	-0.322008	0.061824	0.181602
C254	C	0.177992	0.561824	0.681602
N255	N	-0.349678	0.084406	0.153844
N256	N	0.150322	0.584406	0.653844
C257	C	-0.321961	0.685295	0.946027
C258	C	0.178039	1.185295	1.446027
N259	N	-0.349675	0.657564	0.923410
N260	N	0.150325	1.157564	1.423410
H261	H	-0.191071	0.816288	0.953853
H262	H	0.308929	1.316288	1.453853
C263	C	-0.148374	0.313183	0.355775
C264	C	0.351626	0.813183	0.855775
N265	N	-0.120700	0.335823	0.383526
N266	N	0.379300	0.835823	0.883526
C267	C	-0.557826	0.685176	0.322082
C268	C	-0.057826	1.185176	0.822082
N269	N	-0.580459	0.657462	0.349769
N270	N	-0.080459	1.157462	0.849769
H271	H	-0.345866	0.661364	0.801688
H272	H	0.154134	1.161364	1.301688
C273	C	-0.945511	0.685323	0.322133
C274	C	-0.445511	1.185323	0.822133
N275	N	-0.922917	0.657595	0.349819
N276	N	-0.422917	1.157595	0.849819
C277	C	-0.148381	0.198538	0.355790
C278	C	0.351619	0.698538	0.855790
N279	N	-0.120717	0.175959	0.383556
N280	N	0.379283	0.675959	0.883556
H281	H	-0.312472	-0.045016	0.191191
H282	H	0.187528	0.454984	0.691191
C283	C	-0.945416	0.825860	0.181813
C284	C	-0.445416	1.325860	0.681813
N285	N	-0.922786	0.853580	0.154129
N286	N	-0.422786	1.353580	0.654129
H287	H	-0.345834	0.305183	0.157644
H288	H	0.154166	0.805183	0.657644
H289	H	-0.801078	0.849709	0.157945
H290	H	-0.301078	1.349709	0.657945
C291	C	-0.322000	0.564182	0.181564
C292	C	0.178000	1.064182	0.681564
N293	N	-0.349653	0.586780	0.153803
N294	N	0.150347	1.086780	0.653803
H295	H	-0.191207	0.816221	0.451507
H296	H	0.308793	1.316221	0.951507
C297	C	-1.060086	0.825899	0.181833
C298	C	-0.560086	1.325899	0.681833
N299	N	-1.082696	0.853632	0.154164
N300	N	-0.582696	1.353632	0.654164
H301	H	-0.191315	-0.044898	0.312735
H302	H	0.308685	0.455102	0.812735
H303	H	-0.191305	0.457464	0.312697
H304	H	0.308695	0.957464	0.812697
C305	C	-1.060161	0.685352	0.322132
C306	C	-0.560161	1.185352	0.822132
N307	N	-1.082791	0.657633	0.349816
N308	N	-0.582791	1.157633	0.849816
H309	H	-0.345880	0.661345	0.702638
H310	H	0.154120	1.161345	1.202638
C311	C	-0.808998	0.651820	0.355531
C312	C	-0.308998	1.151820	0.855531
N313	N	-0.831624	0.624103	0.383220
N314	N	-0.331624	1.124103	0.883220
H315	H	-0.312531	0.694798	0.451475
H316	H	0.187469	1.194798	0.951475
H317	H	-0.345840	0.206133	0.157652
H318	H	0.154160	0.706133	0.657652
C319	C	-0.181766	0.061979	0.322302
C320	C	0.318234	0.561979	0.822302
N321	N	-0.154096	0.084620	0.350056
N322	N	0.345904	0.584620	0.850056
H323	H	-0.702142	0.661350	0.345971
H324	H	-0.202142	1.161350	0.845971
C325	C	-0.443153	0.685139	0.322067
C326	C	0.056847	1.185139	0.822067
N327	N	-0.420543	0.657415	0.349744
N328	N	0.079457	1.157415	0.849744
H329	H	-0.312470	0.457322	0.191149
H330	H	0.187530	0.957322	0.691149
C331	C	-0.443070	0.825669	0.181754
C332	C	0.056930	1.325669	0.681754
N333	N	-0.420437	0.853383	0.154067
N334	N	0.079563	1.353383	0.654067
H335	H	-0.549927	0.816159	0.191319
H336	H	-0.049927	1.316159	0.691319
H337	H	-0.191169	0.816229	0.550557
H338	H	0.308831	1.316229	1.050557
C339	C	-0.148139	0.859270	0.694893
C340	C	0.351861	1.359270	1.194893
N341	N	-0.120430	0.886991	0.672289
N342	N	0.379570	1.386991	1.172289
C343	C	-0.148116	0.859292	0.809538
C344	C	0.351884	1.359292	1.309538
N345	N	-0.120406	0.887030	0.832153
N346	N	0.379594	1.387030	1.332153
