data_functionalizedCrystal
_audit_creation_method	'MofGen! by Chris Wilmer'
_symmetry_space_group_name_H-M	'P1'
_symmetry_Int_Tables_number	1
_symmetry_cell_setting	triclinic
loop_
_symmetry_equiv_pos_as_xyz
  x,y,z
_cell_length_a	19.188930
_cell_length_b	19.188930
_cell_length_c	18.266242
_cell_angle_alpha	90.011475
_cell_angle_beta	89.977082
_cell_angle_gamma	96.855221
loop_
_atom_site_label
_atom_site_type_symbol
_atom_site_fract_x
_atom_site_fract_y
_atom_site_fract_z
O1	O	0.926149	-0.087169	-0.061124
O2	O	1.426149	0.412831	0.438876
O3	O	0.722838	-0.098903	-0.061075
O4	O	1.222838	0.401097	0.438925
O5	O	0.830361	0.008620	-0.061087
O6	O	1.330361	0.508620	0.438913
O7	O	0.818627	-0.194691	-0.061113
O8	O	1.318627	0.305309	0.438887
O9	O	0.830343	0.008625	0.060675
O10	O	1.330343	0.508625	0.560675
O11	O	0.722820	-0.098897	0.060687
O12	O	1.222820	0.401103	0.560687
O13	O	0.926131	-0.087163	0.060638
O14	O	1.426131	0.412837	0.560638
Zn15	Zn	0.824473	-0.093029	0.079994
Zn16	Zn	1.324473	0.406971	0.579994
Zn17	Zn	0.824497	-0.093037	-0.080432
Zn18	Zn	1.324497	0.406963	0.419568
O19	O	0.818608	-0.194686	0.060649
O20	O	1.318608	0.305314	0.560649
C21	C	0.696818	-0.098520	-0.000188
C22	C	1.196818	0.401480	0.499812
C23	C	0.619313	-0.097380	-0.000169
C24	C	1.119313	0.402620	0.499831
C25	C	0.574389	-0.160470	-0.000188
C26	C	1.074389	0.339530	0.499812
C27	C	0.501566	-0.159399	-0.000196
C28	C	1.001566	0.340601	0.499804
C29	C	0.473669	-0.095233	-0.000199
C30	C	0.973669	0.404767	0.499801
C31	C	0.518603	-0.032133	-0.000175
C32	C	1.018603	0.467867	0.499825
C33	C	0.591425	-0.033207	-0.000160
C34	C	1.091425	0.466793	0.499840
N35	N	0.365695	-0.046188	-0.041663
N36	N	0.865695	0.453812	0.458337
N37	N	0.296516	-0.045172	-0.041679
N38	N	0.796516	0.454828	0.458321
C39	C	0.254260	-0.091994	-0.000243
C40	C	0.754260	0.408006	0.499757
N41	N	0.283795	-0.139881	0.041200
N42	N	0.783795	0.360119	0.541200
N43	N	0.352980	-0.140899	0.041213
N44	N	0.852980	0.359101	0.541213
C45	C	0.394707	-0.094062	-0.000215
C46	C	0.894707	0.405938	0.499785
C47	C	0.130372	-0.153928	-0.000270
C48	C	0.630372	0.346072	0.499730
C49	C	0.057547	-0.152853	-0.000274
C50	C	0.557547	0.347147	0.499726
C51	C	0.074586	-0.025586	-0.000261
C52	C	0.574586	0.474414	0.499739
C53	C	0.147409	-0.026662	-0.000250
C54	C	0.647409	0.473338	0.499750
C55	C	0.175298	-0.090835	-0.000258
C56	C	0.675298	0.409165	0.499742
C57	C	0.829972	0.034634	-0.000204
C58	C	1.329972	0.534634	0.499796
C59	C	0.828831	0.112138	-0.000197
C60	C	1.328831	0.612138	0.499803
C61	C	0.952151	-0.087546	-0.000252
C62	C	1.452151	0.412454	0.499748
C63	C	1.029656	-0.088687	-0.000276
C64	C	1.529656	0.411313	0.499724
C65	C	0.818997	-0.220700	-0.000236
C66	C	1.318997	0.279300	0.499764
C67	C	0.820138	-0.298204	-0.000247
C68	C	1.320138	0.201796	0.499753
N69	N	0.824461	-0.093024	0.189481
N70	N	1.324461	0.406976	0.689481
C71	C	0.891922	0.157062	-0.000209
C72	C	1.391922	0.657062	0.499791
C73	C	0.890850	0.229886	-0.000220
C74	C	1.390850	0.729886	0.499780
C75	C	0.826684	0.257782	-0.000206
C76	C	1.326684	0.757782	0.499794
C77	C	0.763585	0.212849	-0.000198
C78	C	1.263585	0.712849	0.499802
C79	C	0.764658	0.140026	-0.000194
C80	C	1.264658	0.640026	0.499806
N81	N	0.777631	0.365789	0.041244
N82	N	1.277631	0.865789	0.541244
N83	N	0.776615	0.434968	0.041242
N84	N	1.276615	0.934968	0.541242
C85	C	0.823446	0.477191	-0.000220
C86	C	1.323446	0.977191	0.499780
N87	N	0.871341	0.447624	-0.041669
N88	N	1.371341	0.947624	0.458331
N89	N	0.872359	0.378439	-0.041664
N90	N	1.372359	0.878439	0.458336
C91	C	0.825513	0.336745	-0.000210
C92	C	1.325513	0.836745	0.499790
C93	C	0.885379	0.601079	-0.000245
C94	C	1.385379	1.101079	0.499755
C95	C	0.884305	0.673904	-0.000261
C96	C	1.384305	1.173904	0.499739
C97	C	0.757038	0.656865	-0.000231
C98	C	1.257038	1.156865	0.499769
C99	C	0.758114	0.584042	-0.000222
C100	C	1.258114	1.084042	0.499778
C101	C	0.822287	0.556154	-0.000226
C102	C	1.322287	1.056154	0.499774
N103	N	0.824513	-0.093037	-0.189919
N104	N	1.324513	0.406963	0.310081
C105	C	0.872088	-0.045436	0.227785
C106	C	1.372088	0.454564	0.727785
C107	C	0.872092	-0.045433	0.304430
C108	C	1.372092	0.454567	0.804430
C109	C	0.824477	-0.093030	0.342768
C110	C	1.324477	0.406970	0.842768
C111	C	0.776841	-0.140621	0.304455
C112	C	1.276841	0.359379	0.804455
C113	C	0.776834	-0.140618	0.227812
C114	C	1.276834	0.359382	0.727812
N115	N	0.815401	-0.154837	0.463094
N116	N	1.315401	0.345163	0.963094
N117	N	0.815413	-0.154838	0.535902
N118	N	1.315413	0.345162	1.035902
C119	C	0.824496	-0.093040	0.573691
C120	C	1.324496	0.406960	1.073691
N121	N	0.833582	-0.031239	0.535920
N122	N	1.333582	0.468761	1.035920
N123	N	0.833574	-0.031240	0.463106
N124	N	1.333574	0.468760	0.963106
C125	C	0.824480	-0.093038	0.425875
C126	C	1.324480	0.406962	0.925875
C127	C	0.872131	-0.045444	0.695101
C128	C	1.372131	0.454556	1.195101
C129	C	0.872130	-0.045440	0.771748
C130	C	1.372130	0.454560	1.271748
C131	C	0.776882	-0.140634	0.771772
C132	C	1.276882	0.359366	1.271772
C133	C	0.776879	-0.140632	0.695127
C134	C	1.276879	0.359368	1.195127
C135	C	0.824507	-0.093038	0.656796
C136	C	1.324507	0.406962	1.156796
H137	H	0.153080	-0.206181	-0.000267
H138	H	0.653080	0.293819	0.499733
H139	H	0.910868	-0.006681	0.196579
H140	H	1.410868	0.493319	0.696579
H141	H	0.738100	-0.179386	0.663938
H142	H	1.238100	0.320614	1.163938
C143	C	0.043912	0.044997	-0.000261
C144	C	0.543912	0.544997	0.499739
H145	H	0.081101	0.082419	-0.000244
H146	H	0.581101	0.582419	0.499756
H147	H	0.015880	0.048062	-0.042725
H148	H	0.515880	0.548062	0.457275
H149	H	0.015838	0.048061	0.042203
H150	H	0.515838	0.548061	0.542203
H151	H	0.944176	0.134360	-0.000214
H152	H	1.444176	0.634360	0.499786
C153	C	0.686454	0.687539	-0.000217
C154	C	1.186454	1.187539	0.499783
H155	H	0.649032	0.650351	-0.000212
H156	H	1.149032	1.150351	0.499788
H157	H	0.683381	0.715605	0.042241
H158	H	1.183381	1.215605	0.542241
H159	H	0.683399	0.715580	-0.042687
H160	H	1.183399	1.215580	0.457313
C161	C	0.196828	0.042738	-0.000240
C162	C	0.696828	0.542738	0.499760
H163	H	0.169786	0.081108	-0.000249
H164	H	0.669786	0.581108	0.499751
H165	H	0.225568	0.044969	0.042226
H166	H	0.725568	0.544969	0.542226
H167	H	0.225611	0.044960	-0.042702
H168	H	0.725611	0.544960	0.457298
H169	H	0.738071	-0.179374	0.335674
H170	H	1.238071	0.320626	0.835674
H171	H	0.935683	0.710481	-0.000274
H172	H	1.435683	1.210481	0.499726
H173	H	0.464982	-0.210776	-0.000210
H174	H	0.964982	0.289224	0.499790
H175	H	0.495885	0.020111	-0.000188
H176	H	0.995885	0.520111	0.499812
C177	C	0.605067	-0.231055	-0.000193
C178	C	1.105067	0.268945	0.499807
H179	H	0.654872	-0.222661	-0.000188
H180	H	1.154872	0.277339	0.499812
H181	H	0.589607	-0.257026	0.042260
H182	H	1.089607	0.242974	0.542260
H183	H	0.589656	-0.257021	-0.042668
H184	H	1.089656	0.242979	0.457332
H185	H	0.628003	0.018171	-0.000145
H186	H	1.128003	0.518171	0.499855
H187	H	0.942228	0.266470	-0.000233
H188	H	1.442228	0.766470	0.499767
H189	H	0.713281	0.103448	-0.000184
H190	H	1.213281	0.603448	0.499816
C191	C	0.688713	0.534624	-0.000197
C192	C	1.188713	1.034624	0.499803
H193	H	0.650343	0.561666	-0.000183
H194	H	1.150343	1.061666	0.499817
H195	H	0.686490	0.505849	-0.042654
H196	H	1.186490	1.005849	0.457346
H197	H	0.686483	0.505875	0.042274
H198	H	1.186483	1.005875	0.542274
C199	C	0.693004	0.243532	-0.000179
C200	C	1.193004	0.743532	0.499821
H201	H	0.701400	0.293337	-0.000175
H202	H	1.201400	0.793337	0.499825
H203	H	0.667041	0.228090	-0.042633
H204	H	1.167041	0.728090	0.457367
H205	H	0.667030	0.228105	0.042294
H206	H	1.167030	0.728105	0.542294
C207	C	0.924518	0.006911	0.813886
C208	C	1.424518	0.506911	1.313886
H209	H	0.917696	0.000100	0.865022
H210	H	1.417696	0.500100	1.365022
H211	H	0.971089	-0.000558	0.801302
H212	H	1.471089	0.499442	1.301302
H213	H	0.917077	0.053493	0.801337
H214	H	1.417077	0.553493	1.301337
C215	C	0.724506	-0.192990	0.813934
C216	C	1.224506	0.307010	1.313934
H217	H	0.731333	-0.186179	0.865067
H218	H	1.231333	0.313821	1.365067
H219	H	0.677933	-0.185523	0.801399
H220	H	1.177933	0.314477	1.301399
H221	H	0.731947	-0.239572	0.801358
H222	H	1.231947	0.260428	1.301358
H223	H	0.937632	0.578372	-0.000251
H224	H	1.437632	1.078372	0.499749
C225	C	0.008130	-0.222257	-0.000295
C226	C	0.508130	0.277743	0.499705
H227	H	0.035172	-0.260626	-0.000305
H228	H	0.535172	0.239374	0.499695
H229	H	-0.020655	-0.224487	0.042160
H230	H	0.479345	0.275513	0.542160
H231	H	-0.020608	-0.224480	-0.042768
H232	H	0.479392	0.275520	0.457232
H233	H	0.910877	-0.006680	0.335623
H234	H	1.410877	0.493320	0.835623
C235	C	0.724447	-0.192972	0.185676
C236	C	1.224447	0.307028	0.685676
H237	H	0.696090	-0.221322	0.219483
H238	H	1.196090	0.278678	0.719483
H239	H	0.695461	-0.167928	0.155795
H240	H	1.195461	0.332072	0.655795
H241	H	0.749476	-0.221977	0.155761
H242	H	1.249476	0.278023	0.655761
C243	C	0.924510	0.006913	0.652935
C244	C	1.424510	0.506913	1.152935
H245	H	0.952870	0.035263	0.686728
H246	H	1.452870	0.535263	1.186728
H247	H	0.953494	-0.018129	0.623015
H248	H	1.453494	0.481871	1.123015
H249	H	0.899477	0.035917	0.623057
H250	H	1.399477	0.535917	1.123057
