data_functionalizedCrystal
_audit_creation_method	'MofGen! by Chris Wilmer'
_symmetry_space_group_name_H-M	'P1'
_symmetry_Int_Tables_number	1
_symmetry_cell_setting	triclinic
loop_
_symmetry_equiv_pos_as_xyz
  x,y,z
_cell_length_a	18.101398
_cell_length_b	18.101395
_cell_length_c	18.101389
_cell_angle_alpha	89.983159
_cell_angle_beta	90.024327
_cell_angle_gamma	89.973629
loop_
_atom_site_label
_atom_site_type_symbol
_atom_site_fract_x
_atom_site_fract_y
_atom_site_fract_z
Zn1	Zn	1.132121	0.295001	0.418847
Zn2	Zn	1.632121	0.795001	0.918847
Zn3	Zn	1.132017	0.418826	0.295009
Zn4	Zn	1.632017	0.918826	0.795009
Zn5	Zn	1.008280	0.294993	0.295008
Zn6	Zn	1.508280	0.794993	0.795008
Zn7	Zn	1.008231	0.418795	0.418797
Zn8	Zn	1.508231	0.918795	0.918797
O9	O	1.070162	0.356904	0.356915
O10	O	1.570162	0.856904	0.856915
O11	O	1.235740	0.311443	0.402440
O12	O	1.735740	0.811443	0.902440
O13	O	1.115580	0.402410	0.191376
O14	O	1.615580	0.902410	0.691376
O15	O	1.024772	0.191361	0.311456
O16	O	1.524772	0.691361	0.811456
O17	O	1.235664	0.402417	0.311457
O18	O	1.735664	0.902417	0.811457
O19	O	1.115757	0.191367	0.402440
O20	O	1.615757	0.691367	0.902440
O21	O	1.024671	0.311430	0.191375
O22	O	1.524671	0.811430	0.691375
O23	O	0.904641	0.311399	0.311408
O24	O	1.404641	0.811399	0.811408
O25	O	1.024688	0.402363	0.522437
O26	O	1.524688	0.902363	1.022437
O27	O	0.904604	0.402356	0.402355
O28	O	1.404604	0.902356	0.902355
O29	O	1.115710	0.311412	0.522473
O30	O	1.615710	0.811412	1.022473
O31	O	1.115532	0.522455	0.311409
O32	O	1.615532	1.022455	0.811409
O33	O	1.024587	0.522432	0.402356
O34	O	1.524587	1.022432	0.902356
C35	C	0.877752	0.356874	0.356877
C36	C	1.377752	0.856874	0.856877
C37	C	0.795437	0.356879	0.356878
C38	C	1.295437	0.856879	0.856878
C39	C	1.070063	0.549314	0.356893
C40	C	1.570063	1.049314	0.856893
C41	C	1.070088	0.631628	0.356909
C42	C	1.570088	1.131628	0.856909
C43	C	0.496347	0.356925	0.356940
C44	C	0.996347	0.856925	0.856940
C45	C	0.527670	0.299412	0.299997
C46	C	1.027670	0.799412	0.799997
C47	C	0.613288	0.299566	0.299754
C48	C	1.113288	0.799566	0.799754
C49	C	0.644729	0.356901	0.356909
C50	C	1.144729	0.856901	0.856909
C51	C	0.613611	0.434909	0.335587
C52	C	1.113611	0.934909	0.835587
C53	C	0.527966	0.434590	0.335191
C54	C	1.027966	0.934590	0.835191
C55	C	0.527961	0.337109	0.435339
C56	C	1.027961	0.837109	0.935339
C57	C	0.613612	0.335371	0.434911
C58	C	1.113612	0.835371	0.934911
C59	C	0.728589	0.356893	0.356893
C60	C	1.228589	0.856893	0.856893
C61	C	0.412487	0.356939	0.356954
C62	C	0.912487	0.856939	0.856954
C63	C	1.070205	0.356885	0.550077
C64	C	1.570205	0.856885	1.050077
C65	C	1.070223	0.356877	0.632391
C66	C	1.570223	0.856877	1.132391
C67	C	1.263324	0.356934	0.356954
C68	C	1.763324	0.856934	0.856954
C69	C	1.345638	0.356948	0.356971
C70	C	1.845638	0.856948	0.856971
C71	C	1.070282	0.163742	0.356953
C72	C	1.570282	0.663742	0.856953
C73	C	1.070333	0.081428	0.356970
C74	C	1.570333	0.581428	0.856970
C75	C	1.070251	0.930719	0.356949
C76	C	1.570251	1.430719	0.856949
C77	C	1.013163	0.899410	0.414312
C78	C	1.513163	1.399410	0.914312
C79	C	1.012892	0.813792	0.414133
C80	C	1.512892	1.313792	0.914133
C81	C	1.070170	0.782337	0.356930
C82	C	1.570170	1.282337	0.856930
C83	C	1.049041	0.813472	0.278878
C84	C	1.549041	1.313472	0.778878
C85	C	1.048673	0.899117	0.279221
C86	C	1.548673	1.399117	0.779221
C87	C	1.148593	0.899073	0.376950
C88	C	1.648593	1.399073	0.876950
C89	C	1.148132	0.813422	0.378661
C90	C	1.648132	1.313422	0.878661
C91	C	1.070126	0.698477	0.356914
C92	C	1.570126	1.198477	0.856914
C93	C	1.070293	1.014579	0.356959
C94	C	1.570293	1.514579	0.856959
C95	C	1.070162	0.356869	0.164505
C96	C	1.570162	0.856869	0.664505
C97	C	1.070287	0.356668	0.082191
C98	C	1.570287	0.856668	0.582191
C99	C	1.070266	0.356738	0.931482
C100	C	1.570266	0.856738	1.431482
C101	C	1.012801	0.413780	0.900134
C102	C	1.512801	0.913780	1.400134
C103	C	1.012956	0.414045	0.814516
C104	C	1.512956	0.914045	1.314516
C105	C	1.070244	0.356807	0.783100
C106	C	1.570244	0.856807	1.283100
C107	C	1.148270	0.377998	0.814206
C108	C	1.648270	0.877998	1.314206
C109	C	1.147949	0.378372	0.899851
C110	C	1.647949	0.878372	1.399851
C111	C	1.050385	0.278379	0.899905
C112	C	1.550385	0.778379	1.399905
C113	C	1.048649	0.278832	0.814254
C114	C	1.548649	0.778832	1.314254
C115	C	1.070237	0.356845	0.699240
C116	C	1.570237	0.856845	1.199240
C117	C	1.070279	0.356702	1.015342
C118	C	1.570279	0.856702	1.515342
H119	H	0.634329	0.241719	0.313119
H120	H	1.134329	0.741719	0.813119
H121	H	0.507244	0.478892	0.374857
H122	H	1.007244	0.978892	0.874857
F123	F	0.499768	0.264052	0.460678
F124	F	0.999768	0.764052	0.960678
H125	H	1.167856	0.920633	0.432895
H126	H	1.667856	1.420633	0.932895
F127	F	1.105092	0.222829	0.926404
F128	F	1.605092	0.722829	1.426404
F129	F	0.640212	0.260344	0.455933
F130	F	1.140212	0.760344	0.955933
H131	H	0.955448	0.920990	0.401230
H132	H	1.455448	1.420990	0.901230
F133	F	1.030147	0.489955	0.787743
F134	F	1.530147	0.989955	1.287743
F135	F	1.205779	0.326393	0.926961
F136	F	1.705779	0.826393	1.426961
F137	F	0.937331	0.396708	0.787022
F138	F	1.437331	0.896708	1.287022
H139	H	0.633975	0.478909	0.375763
H140	H	1.133975	0.978909	0.875763
F141	F	1.168960	0.786823	0.453742
F142	F	1.668960	1.286823	0.953742
H143	H	1.192915	0.792007	0.339927
H144	H	1.692915	1.292007	0.839927
F145	F	1.204188	0.925547	0.322350
F146	F	1.704188	1.425547	0.822350
H147	H	1.025796	0.471508	0.921661
H148	H	1.525796	0.971508	1.421661
F149	F	0.641586	0.386138	0.493338
F150	F	1.141586	0.886138	0.993338
H151	H	0.954768	0.400655	0.920720
H152	H	1.454768	0.900655	1.420720
F153	F	0.641599	0.457260	0.261482
F154	F	1.141599	0.957260	0.761482
H155	H	0.506120	0.312363	0.242242
H156	H	1.006120	0.812363	0.742242
F157	F	0.501484	0.391861	0.490795
F158	F	1.001484	0.891861	0.990795
F159	F	0.500784	0.223569	0.317272
F160	F	1.000784	0.723569	0.817272
H161	H	1.088449	0.919830	0.235023
H162	H	1.588449	1.419830	0.735023
H163	H	1.026111	0.792740	0.472007
H164	H	1.526111	1.292740	0.972007
H165	H	0.954823	0.793362	0.400884
H166	H	1.454823	1.293362	0.900884
F167	F	0.973821	0.925307	0.257077
F168	F	1.473821	1.425307	0.757077
H169	H	1.192236	0.337757	0.793859
H170	H	1.692236	0.837757	1.293859
F171	F	0.640026	0.316684	0.223822
F172	F	1.140026	0.816684	0.723822
H173	H	1.026252	0.919970	0.472374
H174	H	1.526252	1.419970	0.972374
F175	F	1.101678	0.786843	0.221488
F176	F	1.601678	1.286843	0.721488
H177	H	0.507954	0.451397	0.277877
H178	H	1.007954	0.951397	0.777877
H179	H	0.992380	0.792080	0.261633
H180	H	1.492380	1.292080	0.761633
F181	F	1.169978	0.453243	0.925975
F182	F	1.669978	0.953243	1.425975
F183	F	1.170683	0.452073	0.786183
F184	F	1.670683	0.952073	1.286183
H185	H	0.994478	0.259074	0.921490
H186	H	1.494478	0.759074	1.421490
F187	F	0.973593	0.257946	0.787686
F188	F	1.473593	0.757946	1.287686
H189	H	1.087450	0.234076	0.792868
H190	H	1.587450	0.734076	1.292868
