data_functionalizedCrystal
_audit_creation_method	'MofGen! by Chris Wilmer'
_symmetry_space_group_name_H-M	'P1'
_symmetry_Int_Tables_number	1
_symmetry_cell_setting	triclinic
loop_
_symmetry_equiv_pos_as_xyz
  x,y,z
_cell_length_a	10.968094
_cell_length_b	19.188924
_cell_length_c	10.065875
_cell_angle_alpha	98.757069
_cell_angle_beta	93.118877
_cell_angle_gamma	83.943566
loop_
_atom_site_label
_atom_site_type_symbol
_atom_site_fract_x
_atom_site_fract_y
_atom_site_fract_z
O1	O	1.612222	0.121715	0.265633
O2	O	1.262173	0.123713	0.183312
O3	O	1.447301	0.021341	0.226865
O4	O	1.427094	0.224088	0.222080
O5	O	1.411999	0.040944	0.445548
O6	O	1.226871	0.143316	0.401995
O7	O	1.576920	0.141318	0.484317
Zn8	Zn	1.396291	0.145430	0.477877
Zn9	Zn	1.442803	0.119602	0.189752
O10	O	1.391792	0.243691	0.440764
C11	C	1.199738	0.131889	0.282122
C12	C	1.066295	0.127037	0.250740
C13	C	0.850590	0.130005	0.317592
C14	C	0.988506	0.135026	0.350039
C15	C	1.428997	0.005113	0.336054
C16	C	1.427036	-0.072446	0.335596
C17	C	1.445364	-0.119556	0.216177
C18	C	1.443506	-0.192431	0.215729
C19	C	1.423343	-0.218194	0.334714
C20	C	1.405006	-0.171074	0.454149
C21	C	1.406852	-0.098200	0.454590
N22	N	1.474530	-0.328083	0.438839
N23	N	1.472780	-0.397311	0.438413
C24	C	1.417777	-0.437760	0.333392
N25	N	1.364609	-0.406367	0.228798
N26	N	1.366365	-0.337133	0.229222
C27	C	1.421338	-0.297213	0.334249
C28	C	1.434090	-0.563890	0.213479
C29	C	1.432224	-0.636766	0.213035
C30	C	1.393736	-0.615407	0.451460
C31	C	1.395591	-0.542533	0.451898
C32	C	1.415774	-0.516779	0.332905
C33	C	1.639356	0.133142	0.385504
C34	C	1.772800	0.137994	0.416877
C35	C	1.410097	0.259918	0.331572
C36	C	1.412060	0.337476	0.332021
N37	N	1.364556	0.163056	0.674517
N38	N	1.474546	0.101970	-0.006886
C39	C	1.431754	0.125730	0.758104
C40	C	1.407339	0.139301	0.909528
H41	H	1.030798	0.116480	0.141710
H42	H	1.447144	-0.675123	0.115783
H43	H	1.288947	0.205057	0.715055
C44	C	1.533874	0.068971	0.703338
N45	N	1.610788	0.026215	0.662088
H46	H	1.377310	-0.636382	0.548338
H47	H	1.331725	0.181305	0.950060
C48	C	1.375441	-0.490710	0.583274
N49	N	1.360261	-0.451676	0.682233
C50	C	0.802631	0.115741	0.170304
N51	N	0.766511	0.104998	0.059362
C52	C	1.036457	0.149300	0.497335
N53	N	1.072574	0.160057	0.608275
H54	H	1.550152	0.059961	0.952580
H55	H	0.808306	0.148547	0.525899
H56	H	1.461795	-0.098593	0.119282
H57	H	1.458424	-0.230795	0.118478
C58	C	1.382824	-0.199415	0.585032
N59	N	1.366112	-0.220760	0.683617
C60	C	1.456274	-0.535558	0.082581
N61	N	1.472979	-0.514220	-0.016013
C62	C	1.386696	-0.046377	0.585969
N63	N	1.371518	-0.007342	0.684926
