data_functionalizedCrystal
_audit_creation_method	'MofGen! by Chris Wilmer'
_symmetry_space_group_name_H-M	'P1'
_symmetry_Int_Tables_number	1
_symmetry_cell_setting	triclinic
loop_
_symmetry_equiv_pos_as_xyz
  x,y,z
_cell_length_a	16.625548
_cell_length_b	16.625546
_cell_length_c	10.685880
_cell_angle_alpha	94.335175
_cell_angle_beta	85.603426
_cell_angle_gamma	90.023536
loop_
_atom_site_label
_atom_site_type_symbol
_atom_site_fract_x
_atom_site_fract_y
_atom_site_fract_z
Zn1	Zn	1.267656	-0.355868	-0.713450
Zn2	Zn	1.257214	-0.480392	-0.502437
Zn3	Zn	1.122474	-0.345581	-0.502466
Zn4	Zn	1.132784	-0.490661	-0.713375
O5	O	1.195032	-0.418125	-0.607932
O6	O	1.379104	-0.372394	-0.685478
O7	O	1.230657	-0.453906	-0.325866
O8	O	1.141788	-0.234115	-0.530497
O9	O	1.371433	-0.463881	-0.530448
O10	O	1.248452	-0.241673	-0.685505
O11	O	1.131664	-0.354860	-0.325887
O12	O	1.011009	-0.364818	-0.530424
O13	O	1.159359	-0.481383	-0.889960
O14	O	1.018583	-0.471408	-0.685378
O15	O	1.258449	-0.382351	-0.890015
O16	O	1.240653	-0.594584	-0.530375
O17	O	1.149235	-0.602129	-0.685350
C18	C	0.985540	-0.418112	-0.607897
C19	C	0.895919	-0.418127	-0.607911
C20	C	1.194953	-0.627614	-0.607879
C21	C	1.194995	-0.717236	-0.607899
C22	C	1.195142	-1.045418	-0.608030
C23	C	1.195099	-0.954107	-0.607997
C24	C	1.195068	-0.881329	-0.607964
C25	C	1.195026	-0.790014	-0.607932
C26	C	0.567746	-0.418135	-0.607965
C27	C	0.659054	-0.418130	-0.607946
C28	C	0.731830	-0.418132	-0.607937
C29	C	0.823143	-0.418126	-0.607920
C30	C	1.405343	-0.418139	-0.607968
C31	C	1.494965	-0.418145	-0.607983
C32	C	1.211219	-0.434160	-0.937052
C33	C	1.218117	-0.440994	-1.077303
C34	C	1.195135	-0.207820	-0.608013
C35	C	1.195178	-0.118201	-0.608047
C36	C	1.178955	-0.402094	-0.280093
C37	C	1.172213	-0.395034	-0.139842
H38	H	1.127630	-0.350460	-1.086089
Cl39	Cl	1.286947	-0.509827	-1.160295
