data_functionalizedCrystal
_audit_creation_method	'MofGen! by Chris Wilmer'
_symmetry_space_group_name_H-M	'P1'
_symmetry_Int_Tables_number	1
_symmetry_cell_setting	triclinic
loop_
_symmetry_equiv_pos_as_xyz
  x,y,z
_cell_length_a	15.944551
_cell_length_b	10.654550
_cell_length_c	9.730223
_cell_angle_alpha	90.004253
_cell_angle_beta	89.992517
_cell_angle_gamma	96.008166
loop_
_atom_site_label
_atom_site_type_symbol
_atom_site_fract_x
_atom_site_fract_y
_atom_site_fract_z
O1	O	1.115460	-0.161966	-0.114423
O2	O	0.871026	-0.181935	-0.114397
O3	O	0.998863	0.010862	-0.114402
O4	O	0.987623	-0.354762	-0.114418
O5	O	0.998855	0.010867	0.114178
O6	O	0.871018	-0.181929	0.114183
O7	O	1.115452	-0.161961	0.114157
Zn8	Zn	0.993234	-0.171944	0.150462
Zn9	Zn	0.993244	-0.171951	-0.150702
O10	O	0.987615	-0.354757	0.114162
C11	C	0.839723	-0.181103	-0.000103
C12	C	0.746463	-0.178618	-0.000093
C13	C	1.146755	-0.162792	-0.000140
C14	C	1.240015	-0.165278	-0.000159
C15	C	0.998034	0.057652	-0.000112
C16	C	0.995565	0.197063	-0.000114
C17	C	1.455598	-0.290722	-0.000133
C18	C	1.516285	-0.232472	-0.112831
C19	C	1.410767	-0.169774	-0.000139
C20	C	1.516255	-0.232439	0.112531
C21	C	1.575705	-0.174126	-0.000114
C22	C	1.470226	-0.111491	-0.112930
C23	C	1.470189	-0.111474	0.112533
C24	C	1.530858	-0.053136	-0.000193
C25	C	1.315750	-0.167270	-0.000155
C26	C	1.670721	-0.176620	-0.000108
C27	C	0.988444	-0.401547	-0.000130
C28	C	0.990913	-0.540958	-0.000137
N29	N	0.993232	-0.171939	0.355999
C30	C	1.070833	0.277522	-0.000123
C31	C	1.068508	0.408513	-0.000139
C32	C	0.915639	0.378572	-0.000133
C33	C	0.917965	0.247584	-0.000126
N34	N	0.993252	-0.171947	-0.356238
C35	C	1.049858	-0.086604	0.427922
C36	C	1.049866	-0.086605	0.571805
C37	C	0.936621	-0.257285	0.571828
C38	C	0.936609	-0.257278	0.427948
H39	H	1.422873	-0.391116	-0.000250
O40	O	0.844766	0.169595	-0.000056
C41	C	0.775776	0.242271	-0.000091
H42	H	0.796518	0.340038	0.043182
H43	H	0.722989	0.193955	0.066274
H44	H	0.752035	0.251589	-0.109752
H45	H	1.134019	0.236393	-0.000116
H46	H	1.536699	-0.283633	-0.208110
O47	O	1.445891	-0.050603	-0.226689
C48	C	1.357584	-0.049020	-0.225341
H49	H	1.327851	-0.129632	-0.158549
H50	H	1.332210	-0.060901	-0.334615
H51	H	1.341284	0.044750	-0.181771
O52	O	1.104885	-0.003581	0.358242
C53	C	1.154879	0.071717	0.452585
H54	H	1.120441	0.073161	0.555163
H55	H	1.167108	0.172000	0.411026
H56	H	1.217511	0.030879	0.467854
O57	O	1.141703	0.486492	-0.000083
C58	C	1.210687	0.413806	-0.000108
H59	H	1.189933	0.316050	0.043176
H60	H	1.263468	0.462130	0.066251
H61	H	1.234444	0.404461	-0.109768
O62	O	1.104794	-0.003761	0.641884
C63	C	1.092679	-0.022079	0.784306
H64	H	1.026173	-0.068946	0.803980
H65	H	1.101481	0.073017	0.838994
H66	H	1.140584	-0.085118	0.825110
H67	H	0.890520	-0.326768	0.630424
H68	H	0.852460	0.419723	-0.000140
H69	H	1.536632	-0.283614	0.207808
H70	H	0.890493	-0.326768	0.369384
H71	H	1.563429	0.047348	-0.000245
H72	H	1.449757	-0.060360	0.207821
