data_functionalizedCrystal
_audit_creation_method	'MofGen! by Chris Wilmer'
_symmetry_space_group_name_H-M	'P1'
_symmetry_Int_Tables_number	1
_symmetry_cell_setting	triclinic
loop_
_symmetry_equiv_pos_as_xyz
  x,y,z
_cell_length_a	19.805407
_cell_length_b	12.594516
_cell_length_c	19.805398
_cell_angle_alpha	89.978180
_cell_angle_beta	89.986879
_cell_angle_gamma	90.016053
loop_
_atom_site_label
_atom_site_type_symbol
_atom_site_fract_x
_atom_site_fract_y
_atom_site_fract_z
Zn1	Zn	1.034741	-0.423756	-0.382752
Zn2	Zn	1.034689	-0.601753	-0.269577
Zn3	Zn	0.921569	-0.423789	-0.269576
Zn4	Zn	0.921540	-0.601693	-0.382723
O5	O	0.978135	-0.512748	-0.326157
O6	O	1.129451	-0.447379	-0.367751
O7	O	1.019674	-0.578184	-0.174860
O8	O	0.936615	-0.274838	-0.284601
O9	O	1.129413	-0.578152	-0.284602
O10	O	1.019762	-0.274815	-0.367750
O11	O	0.936565	-0.447434	-0.174860
O12	O	0.826848	-0.447377	-0.284573
O13	O	0.936566	-0.578051	-0.477444
O14	O	0.826827	-0.578082	-0.367702
O15	O	1.019735	-0.447321	-0.477464
O16	O	1.019646	-0.750691	-0.284574
O17	O	0.936516	-0.750647	-0.367703
C18	C	0.802279	-0.512727	-0.326135
C19	C	0.727047	-0.512744	-0.326142
C20	C	0.691709	-0.580905	-0.369357
C21	C	0.621021	-0.580907	-0.369366
C22	C	0.585671	-0.512752	-0.326157
C23	C	0.621014	-0.444584	-0.282940
C24	C	0.691701	-0.444578	-0.282934
C25	C	0.335940	-0.444608	-0.282962
C26	C	0.265248	-0.444622	-0.282970
C27	C	0.265260	-0.580937	-0.369394
C28	C	0.335948	-0.580930	-0.369389
C29	C	0.371284	-0.512759	-0.326175
C30	C	0.447932	-0.512756	-0.326166
C31	C	0.509024	-0.512760	-0.326162
C32	C	0.978090	-0.789289	-0.326150
C33	C	0.978133	-0.907594	-0.326170
C34	C	0.932914	-0.976862	-0.371352
C35	C	0.916433	-1.047720	-0.309590
C36	C	0.994677	-1.047535	-0.387943
C37	C	0.961619	-0.976894	-0.264375
C38	C	1.039892	-0.976703	-0.342770
C39	C	1.023434	-1.047529	-0.280965
C40	C	1.154678	-0.512769	-0.326179
C41	C	1.229909	-0.512778	-0.326189
C42	C	0.978153	-0.512676	-0.502700
C43	C	0.978161	-0.512645	-0.577932
C44	C	0.978198	-0.235127	-0.326178
C45	C	0.978225	-0.116821	-0.326188
C46	C	1.021542	-0.580557	-1.039721
C47	C	1.021524	-0.580586	-0.969032
C48	C	0.978245	-0.512525	-0.933694
C49	C	0.934977	-0.444438	-0.969047
C50	C	0.934993	-0.444416	-1.039734
C51	C	0.934911	-0.444529	-0.683974
C52	C	0.934900	-0.444555	-0.613282
C53	C	1.021442	-0.580700	-0.613272
C54	C	1.021458	-0.580677	-0.683959
C55	C	0.978188	-0.512595	-0.719306
C56	C	0.978208	-0.512566	-0.795955
C57	C	0.978228	-0.512548	-0.857047
C58	C	0.978156	-0.512742	-0.150301
C59	C	0.978279	-0.512473	-0.075069
H60	H	0.592252	-0.636411	-0.404556
H61	H	0.364726	-0.636432	-0.404572
F62	F	0.373539	-0.372050	-0.236972
H63	H	0.864247	-1.078937	-0.295564
F64	F	0.943301	-0.936507	-0.196083
F65	F	1.067523	-0.653114	-0.721565
H66	H	0.899677	-0.389094	-0.712745
F67	F	0.888949	-0.371947	-1.077355
H68	H	0.720486	-0.636408	-0.404541
F69	F	0.227648	-0.653491	-0.415388
H70	H	0.899735	-0.389027	-0.940269
F71	F	1.108087	-0.935900	-0.361141
H72	H	1.056788	-0.635975	-1.068488
F73	F	0.227628	-0.372077	-0.236979
F74	F	1.073469	-1.087831	-0.230978
F75	F	0.583390	-0.372042	-0.236957
H76	H	0.894606	-0.945832	-0.409505
F77	F	0.729309	-0.372029	-0.236940
F78	F	1.012918	-1.088098	-0.456214
F79	F	1.067571	-0.653048	-0.931415
H80	H	1.056673	-0.636139	-0.584483
F81	F	0.888834	-0.372113	-0.575673
