data_functionalizedCrystal
_audit_creation_method	'MofGen! by Chris Wilmer'
_symmetry_space_group_name_H-M	'P1'
_symmetry_Int_Tables_number	1
_symmetry_cell_setting	triclinic
loop_
_symmetry_equiv_pos_as_xyz
  x,y,z
_cell_length_a	10.489741
_cell_length_b	8.559649
_cell_length_c	7.088929
_cell_angle_alpha	95.344185
_cell_angle_beta	83.729901
_cell_angle_gamma	77.158919
loop_
_atom_site_label
_atom_site_type_symbol
_atom_site_fract_x
_atom_site_fract_y
_atom_site_fract_z
O1	O	-1.655669	-0.241423	-0.158862
O2	O	-1.282245	-0.262562	-0.158891
O3	O	-1.501856	-0.019769	-0.158872
O4	O	-1.436058	-0.484216	-0.158881
O5	O	-1.531212	0.012752	0.159106
O6	O	-1.311601	-0.230041	0.159087
O7	O	-1.685025	-0.208902	0.159116
Cu8	Cu	-1.500993	-0.216502	0.188135
Cu9	Cu	-1.466276	-0.254962	-0.187910
O10	O	-1.465414	-0.451695	0.159097
C11	C	-1.521520	0.055964	0.000114
C12	C	-1.536361	0.233172	0.000104
C13	C	-1.249559	-0.244706	0.000094
C14	C	-1.108431	-0.239931	0.000083
C15	C	-1.717710	-0.226759	0.000126
C16	C	-1.858837	-0.231535	0.000125
C17	C	-1.056559	-0.085447	0.000104
C18	C	-0.942275	-0.174457	-0.156673
C19	C	-0.971248	-0.142431	0.156828
C20	C	-0.995993	-0.329017	-0.156824
C21	C	-1.024991	-0.296955	0.156818
C22	C	-0.910718	-0.386081	0.000003
C23	C	-1.445749	-0.527429	0.000107
C24	C	-1.430907	-0.704638	0.000104
N25	N	-1.525421	-0.189451	0.452625
N26	N	-1.441860	-0.282001	-0.452401
H27	H	-1.119603	0.041526	-0.000090
C28	C	-1.673683	0.344383	0.000126
H29	H	-1.737850	0.281606	0.000137
H30	H	-1.673727	0.398741	-0.110748
H31	H	-1.694197	0.421400	0.111037
H32	H	-1.329267	0.213034	0.000102
H33	H	-1.061397	-0.348710	0.289368
H34	H	-1.355260	-0.377910	0.465946
C35	C	-1.011783	-0.435575	-0.336090
H36	H	-0.928083	-0.477050	-0.410855
H37	H	-1.069652	-0.372887	-0.409380
H38	H	-1.047340	-0.522548	-0.298622
C39	C	-1.642420	-0.059882	0.562931
H40	H	-1.640748	-0.061733	0.696438
H41	H	-1.722788	-0.081418	0.530202
H42	H	-1.635886	0.043454	0.530225
C43	C	-0.955233	-0.035790	0.335887
H44	H	-1.005945	0.070982	0.335679
H45	H	-0.864907	-0.034298	0.335231
H46	H	-0.985000	-0.078249	0.447219
C47	C	-0.893131	-0.104472	-0.335717
H48	H	-0.943856	0.002352	-0.335529
H49	H	-0.902295	-0.169712	-0.447055
H50	H	-0.802924	-0.102846	-0.334996
H51	H	-0.847900	-0.513218	-0.000085
