data_functionalizedCrystal
_audit_creation_method	'MofGen! by Chris Wilmer'
_symmetry_space_group_name_H-M	'P1'
_symmetry_Int_Tables_number	1
_symmetry_cell_setting	triclinic
loop_
_symmetry_equiv_pos_as_xyz
  x,y,z
_cell_length_a	18.101398
_cell_length_b	18.101397
_cell_length_c	16.625539
_cell_angle_alpha	90.031854
_cell_angle_beta	90.026387
_cell_angle_gamma	90.018196
loop_
_atom_site_label
_atom_site_type_symbol
_atom_site_fract_x
_atom_site_fract_y
_atom_site_fract_z
Zn1	Zn	1.132187	-0.294873	0.456015
Zn2	Zn	1.632187	0.205127	0.956015
Zn3	Zn	1.132103	-0.418722	0.321173
Zn4	Zn	1.632103	0.081278	0.821173
Zn5	Zn	1.008343	-0.294894	0.321181
Zn6	Zn	1.508343	0.205106	0.821181
Zn7	Zn	1.008320	-0.418672	0.455950
Zn8	Zn	1.508320	0.081328	0.955950
O9	O	1.070238	-0.356790	0.388580
O10	O	1.570238	0.143210	0.888580
O11	O	1.235809	-0.311314	0.438151
O12	O	1.735809	0.188686	0.938151
O13	O	1.115660	-0.402326	0.208342
O14	O	1.615660	0.097674	0.708342
O15	O	1.024816	-0.191258	0.339098
O16	O	1.524816	0.308742	0.839098
O17	O	1.235747	-0.402305	0.339084
O18	O	1.735747	0.097695	0.839084
O19	O	1.115804	-0.191243	0.438159
O20	O	1.615804	0.308757	0.938159
O21	O	1.024734	-0.311350	0.208348
O22	O	1.524734	0.188650	0.708348
O23	O	0.904707	-0.311301	0.339035
O24	O	1.404707	0.188699	0.839035
O25	O	1.024777	-0.402221	0.568791
O26	O	1.524777	0.097779	1.068791
O27	O	0.904690	-0.402241	0.438049
O28	O	1.404690	0.097759	0.938049
O29	O	1.115782	-0.311266	0.568838
O30	O	1.615782	0.188734	1.068838
O31	O	1.115638	-0.522348	0.339021
O32	O	1.615638	-0.022348	0.839021
O33	O	1.024695	-0.522312	0.438041
O34	O	1.524695	-0.022312	0.938041
C35	C	0.877828	-0.356769	0.388536
C36	C	1.377828	0.143231	0.888536
C37	C	0.795514	-0.356777	0.388536
C38	C	1.295514	0.143223	0.888536
C39	C	0.644805	-0.356792	0.388573
C40	C	1.144805	0.143208	0.888573
C41	C	0.613437	-0.299494	0.326380
C42	C	1.113437	0.200506	0.826380
C43	C	0.527819	-0.299278	0.326584
C44	C	1.027819	0.200722	0.826584
C45	C	0.496423	-0.356807	0.388607
C46	C	0.996423	0.143193	0.888607
C47	C	0.527561	-0.335973	0.473679
C48	C	1.027561	0.164027	0.973679
C49	C	0.613206	-0.335549	0.473300
C50	C	1.113206	0.164451	0.973300
C51	C	0.613215	-0.435073	0.366443
C52	C	1.113215	0.064927	0.866443
C53	C	0.527564	-0.434661	0.364590
C54	C	1.027564	0.065339	0.864590
C55	C	0.412563	-0.356817	0.388632
C56	C	0.912563	0.143183	0.888632
C57	C	0.728665	-0.356781	0.388554
C58	C	1.228665	0.143219	0.888554
C59	C	1.070175	-0.549201	0.388541
C60	C	1.570175	-0.049201	0.888541
C61	C	1.070216	-0.631515	0.388551
C62	C	1.570216	-0.131515	0.888551
C63	C	1.070310	-0.930606	0.388625
C64	C	1.570310	-0.430606	0.888625
C65	C	1.127369	-0.899273	0.326157
C66	C	1.627369	-0.399273	0.826157
C67	C	1.127567	-0.813654	0.326319
C68	C	1.627567	-0.313654	0.826319
C69	C	1.070263	-0.782223	0.388587
C70	C	1.570263	-0.282223	0.888587
C71	C	1.091421	-0.813230	0.473580
C72	C	1.591421	-0.313230	0.973580
C73	C	1.091863	-0.898875	0.473240
C74	C	1.591863	-0.398875	0.973240
C75	C	0.991941	-0.899112	0.366835
C76	C	1.491941	-0.399112	0.866835
C77	C	0.992328	-0.813463	0.364938
C78	C	1.492328	-0.313463	0.864938
C79	C	1.070235	-0.698364	0.388572
C80	C	1.570235	-0.198364	0.888572
C81	C	1.070340	-1.014465	0.388646
C82	C	1.570340	-0.514465	0.888646
C83	C	1.263400	-0.356813	0.388624
C84	C	1.763400	0.143187	0.888624
C85	C	1.345714	-0.356822	0.388643
C86	C	1.845714	0.143178	0.888643
C87	C	1.070286	-0.356735	0.598889
C88	C	1.570286	0.143265	1.098889
C89	C	1.070307	-0.356712	0.688510
C90	C	1.570307	0.143288	1.188510
C91	C	1.070322	-0.163628	0.388637
C92	C	1.570322	0.336372	0.888637
C93	C	1.070358	-0.081314	0.388661
C94	C	1.570358	0.418686	0.888661
C95	C	1.070233	-0.356792	0.179089
C96	C	1.570233	0.143208	0.679089
C97	C	1.070356	-0.356607	0.089468
C98	C	1.570356	0.143393	0.589468
C99	C	1.070341	-0.356629	1.016686
C100	C	1.570341	0.143371	1.516686
C101	C	1.070330	-0.356654	0.925377
C102	C	1.570330	0.143346	1.425377
C103	C	1.070324	-0.356671	0.852601
C104	C	1.570324	0.143329	1.352601
C105	C	1.070312	-0.356695	0.761286
C106	C	1.570312	0.143305	1.261286
H107	H	0.634975	-0.241817	0.340883
H108	H	1.134975	0.258183	0.840883
C109	C	1.169249	-0.925790	0.498161
C110	C	1.669249	-0.425790	0.998161
H111	H	1.200123	-0.884383	0.508394
H112	H	1.700123	-0.384383	1.008394
H113	H	1.165485	-0.954989	0.545441
H114	H	1.665485	-0.454989	1.045441
H115	H	1.189891	-0.954593	0.456010
H116	H	1.689891	-0.454593	0.956010
H117	H	0.506763	-0.312276	0.263515
H118	H	1.006763	0.187724	0.763515
C119	C	0.641210	-0.316830	0.240898
C120	C	1.141210	0.183170	0.740898
H121	H	0.672189	-0.359165	0.242370
H122	H	1.172189	0.140835	0.742370
H123	H	0.600212	-0.326160	0.206679
H124	H	1.100212	0.173840	0.706679
H125	H	0.668383	-0.275860	0.220915
H126	H	1.168383	0.224140	0.720915
C127	C	0.640631	-0.492743	0.427620
C128	C	1.140631	0.007257	0.927620
H129	H	0.671181	-0.469270	0.466461
H130	H	1.171181	0.030730	0.966461
H131	H	0.599469	-0.514753	0.453711
H132	H	1.099469	-0.014753	0.953711
H133	H	0.668177	-0.529778	0.400426
H134	H	1.168177	-0.029778	0.900426
H135	H	1.052124	-0.919599	0.521387
H136	H	1.552124	-0.419599	1.021387
C137	C	0.641248	-0.389494	0.538067
C138	C	1.141248	0.110506	1.038067
H139	H	0.600295	-0.411566	0.564498
H140	H	1.100295	0.088434	1.064498
H141	H	0.670389	-0.426835	0.513477
H142	H	1.170389	0.073165	1.013477
H143	H	0.670349	-0.363349	0.576196
H144	H	1.170349	0.136651	1.076196
H145	H	1.051133	-0.792868	0.521375
H146	H	1.551133	-0.292868	1.021375
C147	C	0.500092	-0.390626	0.538017
C148	C	1.000092	0.109374	1.038017
H149	H	0.469312	-0.426720	0.513509
H150	H	0.969312	0.073280	1.013509
H151	H	0.541224	-0.414236	0.562468
H152	H	1.041224	0.085764	1.062468
H153	H	0.472776	-0.364638	0.577761
H154	H	0.972776	0.135362	1.077761
H155	H	0.507346	-0.241277	0.341276
H156	H	1.007346	0.258723	0.841276
H157	H	1.148064	-0.791724	0.492348
H158	H	1.648064	-0.291724	0.992348
H159	H	0.972693	-0.920773	0.305933
H160	H	1.472693	-0.420773	0.805933
C161	C	0.498700	-0.495391	0.421289
C162	C	0.998700	0.004609	0.921289
H163	H	0.467142	-0.473964	0.460530
H164	H	0.967142	0.026036	0.960530
H165	H	0.471928	-0.531005	0.391051
H166	H	0.971928	-0.031005	0.891051
H167	H	0.539228	-0.518661	0.447283
H168	H	1.039228	-0.018661	0.947283
C169	C	0.970768	-0.786092	0.280447
C170	C	1.470768	-0.286092	0.780447
H171	H	1.009095	-0.755749	0.259665
H172	H	1.509095	-0.255749	0.759665
H173	H	0.963580	-0.827282	0.245886
H174	H	1.463580	-0.327282	0.745886
H175	H	0.926330	-0.758342	0.283668
H176	H	1.426330	-0.258342	0.783668
C177	C	1.205986	-0.785899	0.345801
C178	C	1.705986	-0.285899	0.845801
H179	H	1.237845	-0.826967	0.353655
H180	H	1.737845	-0.326967	0.853655
H181	H	1.223747	-0.756777	0.302403
H182	H	1.723747	-0.256777	0.802403
H183	H	1.204748	-0.756838	0.393380
H184	H	1.704748	-0.256838	0.893380
H185	H	0.633200	-0.278337	0.492004
H186	H	1.133200	0.221663	0.992004
H187	H	0.634778	-0.454098	0.305444
H188	H	1.134778	0.045902	0.805444
C189	C	0.500063	-0.455898	0.280014
C190	C	1.000063	0.044102	0.780014
H191	H	0.469726	-0.417486	0.259421
H192	H	0.969726	0.082514	0.759421
H193	H	0.541201	-0.462965	0.245403
H194	H	1.041201	0.037035	0.745403
H195	H	0.472279	-0.500342	0.283045
H196	H	0.972279	-0.000342	0.783045
C197	C	0.931803	-0.784572	0.421897
C198	C	1.431803	-0.284572	0.921897
H199	H	0.953369	-0.752943	0.461024
H200	H	1.453369	-0.252943	0.961024
H201	H	0.896072	-0.757871	0.391807
H202	H	1.396072	-0.257871	0.891807
H203	H	0.908638	-0.825084	0.448016
H204	H	1.408638	-0.325084	0.948016
C205	C	1.109694	-0.785334	0.241184
C206	C	1.609694	-0.285334	0.741184
H207	H	1.102250	-0.826173	0.206187
H208	H	1.602250	-0.326173	0.706187
H209	H	1.066144	-0.756106	0.242819
H210	H	1.566144	-0.256106	0.742819
H211	H	1.149678	-0.756262	0.222015
H212	H	1.649678	-0.256262	0.722015
H213	H	0.949427	-0.919375	0.412332
H214	H	1.449427	-0.419375	0.912332
C215	C	0.498619	-0.259540	0.499394
C216	C	0.998619	0.240460	0.999394
H217	H	0.467568	-0.240223	0.458406
H218	H	0.967568	0.259777	0.958406
H219	H	0.471292	-0.264170	0.547897
H220	H	0.971292	0.235830	1.047897
H221	H	0.539148	-0.227065	0.507726
H222	H	1.039148	0.272935	1.007726
H223	H	1.185104	-0.920743	0.340409
H224	H	1.685104	-0.420743	0.840409
C225	C	1.109782	-0.927260	0.240786
C226	C	1.609782	-0.427260	0.740786
H227	H	1.067479	-0.958298	0.242469
H228	H	1.567479	-0.458298	0.742469
H229	H	1.100318	-0.886367	0.206515
H230	H	1.600318	-0.386367	0.706515
H231	H	1.150719	-0.954424	0.220715
H232	H	1.650719	-0.454424	0.720715
