data_functionalizedCrystal
_audit_creation_method	'MofGen! by Chris Wilmer'
_symmetry_space_group_name_H-M	'P1'
_symmetry_Int_Tables_number	1
_symmetry_cell_setting	triclinic
loop_
_symmetry_equiv_pos_as_xyz
  x,y,z
_cell_length_a	10.968094
_cell_length_b	10.654550
_cell_length_c	9.130313
_cell_angle_alpha	90.004369
_cell_angle_beta	102.123932
_cell_angle_gamma	95.400548
loop_
_atom_site_label
_atom_site_type_symbol
_atom_site_fract_x
_atom_site_fract_y
_atom_site_fract_z
O1	O	1.657150	-0.176106	0.296422
O2	O	1.294014	-0.192976	0.204773
O3	O	1.483931	-0.001801	0.252714
O4	O	1.467233	-0.367282	0.248481
O5	O	1.483918	-0.001795	0.496309
O6	O	1.294001	-0.192971	0.448369
O7	O	1.657137	-0.176101	0.540017
Cu8	Cu	1.475568	-0.184535	0.516435
Cu9	Cu	1.475583	-0.184542	0.228355
O10	O	1.467220	-0.367276	0.492077
C11	C	1.247509	-0.191748	0.314836
C12	C	1.108960	-0.188080	0.279869
C13	C	0.903978	-0.182639	0.354319
C14	C	1.047176	-0.186438	0.390474
C15	C	1.482699	0.045000	0.374201
C16	C	1.479030	0.184443	0.373273
C17	C	1.703642	-0.177329	0.429952
C18	C	1.842191	-0.180997	0.464909
C19	C	1.468452	-0.414077	0.370586
C20	C	1.472121	-0.553520	0.371504
N21	N	1.475566	-0.184530	0.719057
C22	C	1.590851	0.263948	0.401494
C23	C	1.587396	0.394968	0.400605
C24	C	1.360292	0.366965	0.343277
C25	C	1.363747	0.235947	0.344156
N26	N	1.475595	-0.184537	0.025736
C27	C	1.559690	-0.099913	0.816945
C28	C	1.559702	-0.099913	0.970285
C29	C	1.391462	-0.269158	0.927835
C30	C	1.391445	-0.269151	0.774497
H31	H	1.684721	0.222018	0.425200
O32	O	1.641268	-0.017509	0.763153
C33	C	1.619904	0.106982	0.795333
H34	H	1.519989	0.108476	0.812268
H35	H	1.688735	0.143216	0.901730
C36	C	1.761274	0.190173	0.643081
C37	C	1.638553	0.192008	0.663868
H38	H	1.772783	0.242624	0.561992
H39	H	1.775672	0.106301	0.621405
H40	H	1.818619	0.220365	0.731754
H41	H	1.581212	0.161802	0.575202
H42	H	1.624147	0.275877	0.685526
O43	O	1.255001	0.158887	0.316777
C44	C	1.152509	0.232437	0.290865
H45	H	1.183323	0.329941	0.344760
H46	H	1.117238	0.242055	0.165094
C47	C	1.008724	0.048321	0.293458
C48	C	1.046568	0.168073	0.359664
H49	H	0.943371	0.008617	0.335889
H50	H	1.077773	-0.001233	0.310910
H51	H	0.979340	0.056352	0.188652
H52	H	1.075966	0.160039	0.464464
H53	H	0.977520	0.217624	0.342231
H54	H	1.628202	-0.031009	1.049982
H55	H	1.322974	-0.338056	0.972990
O56	O	1.309896	-0.351412	0.679283
C57	C	1.377380	-0.429523	0.607619
H58	H	1.474590	-0.380397	0.609171
H59	H	1.386661	-0.522428	0.669036
C60	C	1.187851	-0.516048	0.442371
C61	C	1.307242	-0.455706	0.444265
H62	H	1.144585	-0.532205	0.341608
H63	H	1.142384	-0.463427	0.490655
H64	H	1.195602	-0.593462	0.493559
H65	H	1.299490	-0.378287	0.393094
H66	H	1.352706	-0.508315	0.395968
O67	O	0.840540	-0.181183	0.209448
C68	C	0.752011	-0.287749	0.179282
H69	H	0.782091	-0.364681	0.262169
H70	H	0.656371	-0.260580	0.190965
C71	C	0.706922	-0.242442	-0.083221
C72	C	0.743873	-0.336936	0.018574
H73	H	0.701896	-0.272781	-0.182355
H74	H	0.766562	-0.170644	-0.062898
H75	H	0.627225	-0.219810	-0.073467
H76	H	0.823574	-0.359555	0.008832
H77	H	0.684246	-0.408739	-0.001754
O78	O	1.110681	-0.187950	0.535318
C79	C	1.199163	-0.081349	0.565511
H80	H	1.222953	-0.045666	0.456197
H81	H	1.158295	-0.003987	0.620801
C82	C	1.289665	-0.161437	0.805732
C83	C	1.318893	-0.117616	0.671471
H84	H	1.363518	-0.183805	0.871098
H85	H	1.230050	-0.233254	0.785394
H86	H	1.255606	-0.096961	0.851788
H87	H	1.352935	-0.182097	0.625408
H88	H	1.378516	-0.045810	0.691804
H89	H	1.055852	-0.186675	0.158413
H90	H	0.895306	-0.182398	0.586356
O91	O	1.696103	0.472069	0.427849
C92	C	1.766025	0.448573	0.319325
H93	H	1.736246	0.349460	0.269756
H94	H	1.748352	0.520360	0.226512
C95	C	1.943076	0.581553	0.453995
C96	C	1.906509	0.459816	0.393123
H97	H	2.029733	0.588493	0.499513
H98	H	1.895967	0.597387	0.527108
H99	H	1.928338	0.641362	0.376639
H100	H	1.921232	0.400011	0.470481
H101	H	1.953623	0.443972	0.320024
H102	H	1.266432	0.408916	0.319574
