data_functionalizedCrystal
_audit_creation_method	'MofGen! by Chris Wilmer'
_symmetry_space_group_name_H-M	'P1'
_symmetry_Int_Tables_number	1
_symmetry_cell_setting	triclinic
loop_
_symmetry_equiv_pos_as_xyz
  x,y,z
_cell_length_a	12.837943
_cell_length_b	12.837942
_cell_length_c	11.295483
_cell_angle_alpha	94.530417
_cell_angle_beta	85.461227
_cell_angle_gamma	94.828940
loop_
_atom_site_label
_atom_site_type_symbol
_atom_site_fract_x
_atom_site_fract_y
_atom_site_fract_z
O1	O	1.408689	0.265788	-0.099003
O2	O	1.105556	0.252345	-0.099010
O3	O	1.250401	0.107500	-0.098999
O4	O	1.263845	0.410633	-0.099013
O5	O	1.237676	0.120201	0.099051
O6	O	1.092832	0.265045	0.099040
O7	O	1.395965	0.278489	0.099047
Cu8	Cu	1.243237	0.272927	0.117127
Cu9	Cu	1.258285	0.257907	-0.117090
O10	O	1.251121	0.423333	0.099037
C11	C	1.060125	0.254153	0.000014
C12	C	0.943710	0.240609	0.000012
C13	C	0.718835	0.403439	0.000021
C14	C	0.609453	0.390717	0.000020
C15	C	0.615561	0.202446	0.000016
C16	C	0.724943	0.215167	0.000017
C17	C	0.776576	0.315667	0.000018
C18	C	0.885961	0.328387	0.000011
C19	C	0.892066	0.140117	0.000016
C20	C	0.782684	0.127396	0.000015
C21	C	1.239497	0.074781	0.000025
C22	C	1.225953	-0.041634	0.000023
C23	C	1.388784	-0.266509	0.000002
C24	C	1.376062	-0.375892	-0.000000
C25	C	1.187791	-0.369784	0.000008
C26	C	1.200512	-0.260402	0.000010
C27	C	1.301011	-0.208768	0.000009
C28	C	1.313731	-0.099383	0.000020
C29	C	1.125461	-0.093278	0.000019
C30	C	1.112740	-0.202660	0.000017
C31	C	1.441396	0.276680	0.000021
C32	C	1.557812	0.290224	0.000015
C33	C	1.262024	0.456052	0.000010
C34	C	1.275569	0.572467	0.000004
N35	N	1.232661	0.283491	0.281863
N36	N	1.268868	0.247335	-0.281825
C37	C	1.344996	0.171231	0.531161
C38	C	1.337012	0.179223	0.655824
C39	C	1.208702	0.307459	0.655854
C40	C	1.216687	0.299467	0.531191
C41	C	1.284837	0.231353	0.468849
C42	C	1.292826	0.223367	0.344183
C43	C	1.164512	0.351597	0.344216
C44	C	1.156528	0.359589	0.468879
H45	H	0.562444	0.462191	0.000025
H46	H	1.400494	0.115777	0.480401
C47	C	0.995747	-0.328656	-0.101787
C48	C	1.002276	-0.259426	0.000022
H49	H	0.927552	-0.363703	-0.101775
H50	H	1.009046	-0.290534	-0.170837
H51	H	1.046208	-0.378695	-0.101783
H52	H	0.951821	-0.209382	0.000013
H53	H	0.988966	-0.297551	0.069090
C54	C	1.498551	-0.116412	-0.000012
C55	C	1.424198	-0.042625	0.000006
H56	H	1.566750	-0.081373	-0.000032
H57	H	1.485247	-0.154519	0.069050
H58	H	1.494091	-0.163378	-0.069079
H59	H	1.428653	0.004336	0.069079
H60	H	1.437507	-0.004501	-0.069062
C61	C	0.924411	-0.009927	0.101818
C62	C	0.955537	0.043628	0.000013
H63	H	0.963593	-0.069495	0.101806
H64	H	0.936656	0.035259	0.170870
H65	H	0.851876	-0.031879	0.101808
H66	H	1.028072	0.065587	0.000027
H67	H	0.943301	-0.001566	-0.069058
H68	H	0.573495	0.120630	0.000114
H69	H	1.470613	-0.224468	0.000013
H70	H	0.740628	0.045572	0.000028
C71	C	1.563436	-0.370937	0.000001
C72	C	1.472544	-0.439362	-0.000001
H73	H	1.623000	-0.410123	0.000006
H74	H	1.568916	-0.332575	-0.069059
H75	H	1.560039	-0.323718	0.069070
H76	H	1.475937	-0.486576	-0.069075
H77	H	1.467063	-0.477741	0.069066
H78	H	1.105969	-0.411844	-0.000004
C79	C	1.037066	0.026745	-0.101786
C80	C	1.028970	-0.029811	0.000021
H81	H	0.977494	0.065920	-0.101783
H82	H	1.098726	0.073153	-0.101776
H83	H	1.040453	-0.020487	-0.170845
H84	H	1.025591	0.017422	0.069080
H85	H	0.967293	-0.076223	0.000021
C86	C	1.418841	0.097405	0.356679
C87	C	1.367730	0.148492	0.275653
H88	H	1.465077	0.051173	0.314371
H89	H	1.457689	0.147834	0.405289
H90	H	1.368416	0.058546	0.405317
H91	H	1.418155	0.187358	0.227021
H92	H	1.328880	0.098056	0.227023
H93	H	1.385998	0.130265	0.706555
C94	C	1.011958	0.445400	-0.101803
C95	C	0.942718	0.438854	0.000009
H96	H	1.046988	0.513602	-0.101804
H97	H	1.062001	0.394957	-0.101797
H98	H	0.973837	0.432095	-0.170858
H99	H	0.980840	0.452152	0.069065
H100	H	0.892668	0.489312	0.000014
H101	H	1.153209	0.362909	0.706630
H102	H	1.115530	0.400555	0.293468
C103	C	0.831769	0.533492	0.101824
C104	C	0.775601	0.513902	0.000016
H105	H	0.866817	0.601687	0.101814
H106	H	0.784787	0.529052	0.170875
H107	H	0.881809	0.483032	0.101815
H108	H	0.725555	0.564358	0.000029
H109	H	0.822587	0.518352	-0.069053
C110	C	1.087320	0.428784	0.659994
C111	C	1.081625	0.434463	0.537413
H112	H	1.041083	0.475017	0.702299
H113	H	1.067733	0.359108	0.680421
H114	H	1.157007	0.448395	0.680395
H115	H	1.011940	0.414845	0.517010
H116	H	1.101206	0.504155	0.516978
