data_functionalizedCrystal
_audit_creation_method	'MofGen! by Chris Wilmer'
_symmetry_space_group_name_H-M	'P1'
_symmetry_Int_Tables_number	1
_symmetry_cell_setting	triclinic
loop_
_symmetry_equiv_pos_as_xyz
  x,y,z
_cell_length_a	9.065218
_cell_length_b	7.088929
_cell_length_c	9.065215
_cell_angle_alpha	96.315081
_cell_angle_beta	85.015291
_cell_angle_gamma	83.703834
loop_
_atom_site_label
_atom_site_type_symbol
_atom_site_fract_x
_atom_site_fract_y
_atom_site_fract_z
O1	O	1.945454	0.158989	0.231323
O2	O	2.445454	0.658989	0.731323
O3	O	1.516169	0.158991	0.249070
O4	O	2.016169	0.658991	0.749070
O5	O	1.739688	0.158982	0.025553
O6	O	2.239688	0.658982	0.525553
O7	O	1.721935	0.158998	0.454840
O8	O	2.221935	0.658998	0.954840
O9	O	1.769558	-0.158995	-0.004386
O10	O	2.269558	0.341005	0.495614
O11	O	1.546039	-0.158985	0.219131
O12	O	2.046039	0.341015	0.719131
O13	O	1.975324	-0.158988	0.201384
O14	O	2.475324	0.341012	0.701384
Cu15	Cu	1.763409	-0.188020	0.207524
Cu16	Cu	2.263409	0.311980	0.707524
Cu17	Cu	1.728084	0.188024	0.242930
Cu18	Cu	2.228084	0.688024	0.742930
O19	O	1.751806	-0.158978	0.424901
O20	O	2.251806	0.341022	0.924901
C21	C	1.476118	0.000003	0.232395
C22	C	1.976118	0.500003	0.732395
C23	C	1.312275	0.000004	0.227295
C24	C	1.812275	0.500004	0.727295
N25	N	1.788266	-0.452509	0.182620
N26	N	2.288266	0.047491	0.682620
C27	C	2.015376	0.000005	0.218059
C28	C	2.515376	0.500005	0.718059
C29	C	2.179217	0.000016	0.223160
C30	C	2.679217	0.500016	0.723160
C31	C	1.752918	-0.000004	-0.044403
C32	C	2.252918	0.499996	0.455597
C33	C	1.747819	0.000001	-0.208246
C34	C	2.247819	0.500001	0.291754
N35	N	1.703240	0.452513	0.267823
N36	N	2.203240	0.952513	0.767823
C37	C	1.738575	0.000012	0.494857
C38	C	2.238575	0.500012	0.994857
C39	C	1.743673	0.000019	0.658701
C40	C	2.243673	0.500019	1.158701
H41	H	1.615120	-0.465837	0.356117
H42	H	2.115120	0.034163	0.856117
H43	H	1.876402	-0.534169	0.094330
H44	H	2.376402	-0.034169	0.594330
