data_functionalizedCrystal
_audit_creation_method	'MofGen! by Chris Wilmer'
_symmetry_space_group_name_H-M	'P1'
_symmetry_Int_Tables_number	1
_symmetry_cell_setting	triclinic
loop_
_symmetry_equiv_pos_as_xyz
  x,y,z
_cell_length_a	16.959455
_cell_length_b	10.686203
_cell_length_c	10.685910
_cell_angle_alpha	80.941639
_cell_angle_beta	94.380566
_cell_angle_gamma	94.360766
loop_
_atom_site_label
_atom_site_type_symbol
_atom_site_fract_x
_atom_site_fract_y
_atom_site_fract_z
Zn1	Zn	1.262623	0.450529	0.679046
Zn2	Zn	1.262577	0.678999	0.450540
Zn3	Zn	1.121054	0.466776	0.466805
Zn4	Zn	1.139841	0.662716	0.662727
O5	O	1.196524	0.564755	0.564779
O6	O	1.373230	0.480851	0.648756
O7	O	1.235922	0.664461	0.275072
O8	O	1.131991	0.287004	0.508595
O9	O	1.373196	0.648707	0.480874
O10	O	1.236001	0.275067	0.664527
O11	O	1.131946	0.508542	0.287022
O12	O	1.012934	0.492753	0.492772
O13	O	1.164010	0.620955	0.842517
O14	O	1.026736	0.636709	0.636716
O15	O	1.254217	0.465062	0.854506
O16	O	1.254139	0.854456	0.465051
O17	O	1.163965	0.842493	0.620944
C18	C	0.991154	0.564728	0.564739
C19	C	0.903299	0.564745	0.564749
C20	C	0.854816	0.489667	0.489943
C21	C	0.869230	0.639830	0.639573
C22	C	0.786685	0.639843	0.639591
C23	C	0.738202	0.564766	0.564785
C24	C	0.772263	0.489675	0.489961
C25	C	0.752618	0.714922	0.714422
C26	C	0.670069	0.714937	0.714444
C27	C	0.621584	0.639866	0.639630
C28	C	0.655650	0.564774	0.564803
C29	C	0.607167	0.489697	0.489997
C30	C	0.641231	0.414610	0.415162
C31	C	0.723779	0.414604	0.415148
C32	C	0.539036	0.639872	0.639644
C33	C	0.524614	0.489705	0.490015
C34	C	1.211108	0.894526	0.539489
C35	C	1.217422	1.035601	0.528713
C36	C	1.402695	0.564783	0.564821
C37	C	1.490553	0.564795	0.564838
C38	C	1.181880	1.233695	0.590182
C39	C	1.175576	1.092620	0.600973
C40	C	1.211214	0.539380	0.895855
C41	C	1.217474	0.528567	1.036940
C42	C	1.181887	0.590062	1.234989
C43	C	1.175632	0.600882	1.093904
H44	H	0.511305	0.700998	0.700583
Cl45	Cl	1.112930	0.709250	1.002560
Cl46	Cl	1.280188	0.420207	1.128287
Cl47	Cl	1.112804	1.001357	0.709230
Cl48	Cl	0.463670	0.395323	0.395960
Cl49	Cl	0.766608	0.320211	0.321086
Cl50	Cl	0.580272	0.320221	0.321134
Cl51	Cl	0.930180	0.734218	0.733599
Cl52	Cl	0.897637	0.395282	0.395866
Cl53	Cl	0.813570	0.809323	0.808432
H54	H	0.642341	0.776079	0.775378
H55	H	1.258071	1.094711	0.458593
