data_functionalizedCrystal
_audit_creation_method	'MofGen! by Chris Wilmer'
_symmetry_space_group_name_H-M	'P1'
_symmetry_Int_Tables_number	1
_symmetry_cell_setting	triclinic
loop_
_symmetry_equiv_pos_as_xyz
  x,y,z
_cell_length_a	23.532407
_cell_length_b	22.010155
_cell_length_c	23.532407
_cell_angle_alpha	89.990798
_cell_angle_beta	97.151322
_cell_angle_gamma	90.010358
loop_
_atom_site_label
_atom_site_type_symbol
_atom_site_fract_x
_atom_site_fract_y
_atom_site_fract_z
O1	O	0.755269	0.050455	-0.069133
O2	O	1.255269	0.550455	0.430867
O3	O	0.589406	0.050474	-0.079137
O4	O	1.089406	0.550474	0.420863
O5	O	0.677339	0.050453	0.008797
O6	O	1.177339	0.550453	0.508797
O7	O	0.667336	0.050476	-0.157067
O8	O	1.167336	0.550476	0.342933
O9	O	0.677312	-0.050597	0.008797
O10	O	1.177312	0.449403	0.508797
O11	O	0.589379	-0.050576	-0.079137
O12	O	1.089379	0.449424	0.420863
O13	O	0.755243	-0.050595	-0.069133
O14	O	1.255243	0.449405	0.430867
Cu15	Cu	0.672308	-0.059812	-0.074135
Cu16	Cu	1.172308	0.440188	0.425865
Cu17	Cu	0.672340	0.059691	-0.074135
Cu18	Cu	1.172340	0.559691	0.425865
O19	O	0.667309	-0.050574	-0.157067
O20	O	1.167309	0.449426	0.342933
C21	C	0.568176	-0.000049	-0.078882
C22	C	1.068176	0.499951	0.421118
C23	C	0.504959	-0.000042	-0.078116
C24	C	1.004959	0.499958	0.421884
C25	C	0.105856	-0.000063	-0.125350
C26	C	0.605856	0.499937	0.374650
C27	C	0.046456	-0.000067	-0.124638
C28	C	0.546456	0.499933	0.375362
O29	O	0.009711	-0.000083	-0.168424
O30	O	0.509711	0.499917	0.331576
N31	N	0.023830	-0.000073	-0.072362
N32	N	0.523830	0.499927	0.427638
C33	C	0.060607	-0.000082	-0.020794
C34	C	0.560607	0.499918	0.479206
O35	O	0.035908	-0.000088	0.023737
O36	O	0.535908	0.499912	0.523737
C37	C	0.120006	-0.000082	-0.021506
C38	C	0.620006	0.499918	0.478494
C39	C	0.142629	-0.000070	-0.073785
C40	C	0.642629	0.499930	0.426215
C41	C	0.128479	-0.000051	-0.177625
C42	C	0.628479	0.499949	0.322375
C43	C	0.187876	-0.000046	-0.178336
C44	C	0.687876	0.499954	0.321664
C45	C	0.224649	-0.000053	-0.126772
C46	C	0.724649	0.499947	0.373228
C47	C	0.202025	-0.000065	-0.074497
C48	C	0.702025	0.499935	0.425503
C49	C	0.156783	-0.000096	0.030062
C50	C	0.656783	0.499904	0.530062
C51	C	0.216185	-0.000097	0.029345
C52	C	0.716185	0.499903	0.529345
C53	C	0.238808	-0.000084	-0.022934
C54	C	0.738808	0.499916	0.477066
C55	C	0.298194	-0.000067	-0.023643
C56	C	0.798194	0.499933	0.476357
N57	N	0.320820	-0.000061	-0.075920
N58	N	0.820820	0.499939	0.424080
C59	C	0.284048	-0.000054	-0.127484
C60	C	0.784048	0.499946	0.372516
C61	C	-0.064135	-0.000082	-0.019302
C62	C	0.435865	0.499918	0.480698
C63	C	-0.123533	-0.000077	-0.018589
C64	C	0.376467	0.499923	0.481411
C65	C	-0.137680	-0.000063	-0.122434
C66	C	0.362320	0.499937	0.377566
C67	C	-0.078281	-0.000064	-0.123146
C68	C	0.421719	0.499936	0.376854
C69	C	-0.041509	-0.000076	-0.071578
C70	C	0.458491	0.499924	0.428422
C71	C	0.408784	-0.000043	-0.128974
C72	C	0.908784	0.499957	0.371026
C73	C	0.468186	-0.000035	-0.129680
C74	C	0.968186	0.499965	0.370320
C75	C	0.482329	-0.000052	-0.025836
C76	C	0.982329	0.499948	0.474164
C77	C	0.422932	-0.000057	-0.025129
C78	C	0.922932	0.499943	0.474871
C79	C	0.386160	-0.000054	-0.076702
C80	C	0.886160	0.499946	0.423298
O81	O	0.334974	-0.000054	0.020119
O82	O	0.834974	0.499946	0.520119
O83	O	0.308755	-0.000055	-0.172007
O84	O	0.808755	0.499945	0.327993
N85	N	0.672291	-0.143865	-0.074135
N86	N	1.172291	0.356135	0.425865
C87	C	0.706685	-0.563643	-0.108496
C88	C	1.206685	-0.063643	0.391504
C89	C	0.706692	-0.627251	-0.108494
C90	C	1.206692	-0.127251	0.391506
O91	O	0.735915	-0.660141	-0.137705
O92	O	1.235915	-0.160141	0.362295
N93	N	0.672351	-0.659072	-0.074128
N94	N	1.172351	-0.159072	0.425872
C95	C	0.638005	-0.627282	-0.039758
C96	C	1.138005	-0.127282	0.460242
O97	O	0.608796	-0.660189	-0.010527
O98	O	1.108796	-0.160189	0.489473
C99	C	0.638002	-0.563676	-0.039757
C100	C	1.138002	-0.063676	0.460243
C101	C	0.672341	-0.531858	-0.074129
C102	C	1.172341	-0.031858	0.425871
C103	C	0.741022	-0.531825	-0.142864
C104	C	1.241022	-0.031825	0.357136
C105	C	0.741014	-0.468222	-0.142867
C106	C	1.241014	0.031778	0.357133
C107	C	0.706670	-0.436437	-0.108500
C108	C	1.206670	0.063563	0.391500
C109	C	0.672333	-0.468255	-0.074131
C110	C	1.172333	0.031745	0.425869
C111	C	0.603660	-0.531887	-0.005383
C112	C	1.103660	-0.031887	0.494617
C113	C	0.603660	-0.468276	-0.005384
C114	C	1.103660	0.031724	0.494616
C115	C	0.637999	-0.436458	-0.039757
C116	C	1.137999	0.063542	0.460243
C117	C	0.637981	-0.372866	-0.039766
C118	C	1.137981	0.127134	0.460234
N119	N	0.672322	-0.341045	-0.074132
N120	N	1.172322	0.158955	0.425868
C121	C	0.706667	-0.372830	-0.108498
C122	C	1.206667	0.127170	0.391502
C123	C	0.638015	-0.760860	-0.039762
C124	C	1.138015	-0.260860	0.460238
C125	C	0.638015	-0.824465	-0.039766
C126	C	1.138015	-0.324465	0.460234
C127	C	0.706703	-0.824429	-0.108502
C128	C	1.206703	-0.324429	0.391498
C129	C	0.706700	-0.760823	-0.108501
C130	C	1.206700	-0.260823	0.391499
C131	C	0.672356	-0.729039	-0.074128
C132	C	1.172356	-0.229039	0.425872
C133	C	0.706648	-0.239259	-0.108501
C134	C	1.206648	0.260741	0.391499
C135	C	0.706635	-0.175650	-0.108502
C136	C	1.206635	0.324350	0.391498
C137	C	0.637950	-0.175691	-0.039764
C138	C	1.137950	0.324309	0.460236
C139	C	0.637960	-0.239295	-0.039765
C140	C	1.137960	0.260705	0.460235
C141	C	0.672313	-0.271077	-0.074135
C142	C	1.172313	0.228923	0.425865
O143	O	0.608775	-0.339935	-0.010568
O144	O	1.108775	0.160065	0.489432
O145	O	0.735876	-0.339916	-0.137719
O146	O	1.235876	0.160084	0.362281
C147	C	0.776472	-0.000071	-0.069388
C148	C	1.276472	0.499929	0.430612
C149	C	0.839689	-0.000073	-0.070154
C150	C	1.339689	0.499927	0.429846
C151	C	0.677071	-0.000074	0.030013
C152	C	1.177071	0.499926	0.530013
C153	C	0.676305	-0.000078	0.093230
C154	C	1.176305	0.499922	0.593230
N155	N	0.672362	0.143744	-0.074131
N156	N	1.172362	0.643744	0.425869
C157	C	0.667577	-0.000046	-0.178283
C158	C	1.167577	0.499954	0.321717
C159	C	0.668343	-0.000037	-0.241500
C160	C	1.168343	0.499963	0.258500
C161	C	0.723539	-0.000050	0.492333
C162	C	1.223539	0.499950	0.992333
C163	C	0.722827	-0.000046	0.551733
C164	C	1.222827	0.499954	1.051733
O165	O	0.766613	-0.000028	0.588478
O166	O	1.266613	0.499972	1.088478
N167	N	0.670551	-0.000040	0.574359
N168	N	1.170551	0.499960	1.074359
C169	C	0.618983	-0.000033	0.537582
C170	C	1.118983	0.499967	1.037582
O171	O	0.574452	-0.000027	0.562281
O172	O	1.074452	0.499973	1.062281
C173	C	0.619695	-0.000033	0.478182
C174	C	1.119695	0.499967	0.978182
C175	C	0.671974	-0.000045	0.455560
C176	C	1.171974	0.499955	0.955560
C177	C	0.775814	-0.000061	0.469710
C178	C	1.275814	0.499939	0.969710
C179	C	0.776525	-0.000067	0.410313
C180	C	1.276525	0.499933	0.910313
C181	C	0.724961	-0.000062	0.373540
C182	C	1.224961	0.499938	0.873540
C183	C	0.672685	-0.000051	0.396164
C184	C	1.172685	0.499949	0.896164
C185	C	0.568127	-0.000022	0.441406
C186	C	1.068127	0.499978	0.941406
C187	C	0.568844	-0.000022	0.382004
C188	C	1.068844	0.499978	0.882004
C189	C	0.621123	-0.000034	0.359381
C190	C	1.121123	0.499966	0.859381
C191	C	0.621832	-0.000052	0.299995
C192	C	1.121832	0.499948	0.799995
N193	N	0.674109	-0.000057	0.277368
N194	N	1.174109	0.499943	0.777368
C195	C	0.725673	-0.000062	0.314141
C196	C	1.225673	0.499938	0.814141
C197	C	0.617491	-0.000031	0.662324
C198	C	1.117491	0.499969	1.162324
C199	C	0.616778	-0.000035	0.721722
C200	C	1.116778	0.499965	1.221722
C201	C	0.720623	-0.000047	0.735869
C202	C	1.220623	0.499953	1.235869
C203	C	0.721335	-0.000047	0.676470
C204	C	1.221335	0.499953	1.176470
C205	C	0.669767	-0.000037	0.639698
C206	C	1.169767	0.499963	1.139698
C207	C	0.727163	-0.000075	0.189405
C208	C	1.227163	0.499925	0.689405
C209	C	0.727869	-0.000083	0.130003
C210	C	1.227869	0.499917	0.630003
C211	C	0.624025	-0.000069	0.115860
C212	C	1.124025	0.499931	0.615860
C213	C	0.623318	-0.000064	0.175257
C214	C	1.123318	0.499936	0.675257
C215	C	0.674891	-0.000065	0.212029
C216	C	1.174891	0.499935	0.712029
O217	O	0.578070	-0.000067	0.263215
O218	O	1.078070	0.499933	0.763215
O219	O	0.770196	-0.000060	0.289433
O220	O	1.270196	0.499940	0.789433
H221	H	0.138375	-0.000106	0.072634
H222	H	0.638375	0.499894	0.572634
H223	H	-0.034198	-0.000086	0.022693
H224	H	0.465802	0.499914	0.522693
O225	O	0.743756	-0.858717	-0.145563
O226	O	1.243756	-0.358717	0.354437
H227	H	0.737993	-0.908291	-0.139780
H228	H	1.237993	-0.408291	0.360220
O229	O	0.521995	-0.000068	0.029779
O230	O	1.021995	0.499932	0.529779
H231	H	0.567098	-0.000073	0.020496
H232	H	1.067098	0.499927	0.520496
O233	O	0.831437	-0.000070	0.509364
O234	O	1.331437	0.499930	1.009364
H235	H	0.822171	-0.000065	0.554472
H236	H	1.322171	0.499935	1.054472
H237	H	0.734622	-0.265129	-0.136488
H238	H	1.234622	0.234871	0.363512
H239	H	0.582043	-0.000067	0.085909
H240	H	1.082043	0.499933	0.585909
O241	O	0.600947	-0.141404	-0.002658
O242	O	1.100947	0.358596	0.497342
H243	H	0.606733	-0.091830	-0.008419
H244	H	1.106733	0.408170	0.491581
O245	O	0.566642	-0.433998	0.031718
O246	O	1.066642	0.066002	0.531718
H247	H	0.572417	-0.384422	0.025959
H248	H	1.072417	0.115578	0.525959
H249	H	0.486602	-0.000025	-0.172255
H250	H	0.986602	0.499975	0.327745
O251	O	0.255849	-0.000107	0.084966
O252	O	0.755849	0.499893	0.584966
H253	H	0.230134	-0.000111	0.121435
H254	H	0.730134	0.499889	0.621435
H255	H	0.575698	-0.557782	0.022607
H256	H	1.075698	-0.057782	0.522607
H257	H	-0.141947	-0.000078	0.023982
H258	H	0.358053	0.499922	0.523982
H259	H	0.206289	-0.000036	-0.220908
H260	H	0.706289	0.499964	0.279092
O261	O	0.777722	-0.000056	0.652072
O262	O	1.277722	0.499944	1.152072
H263	H	0.780541	0.041130	0.625342
H264	H	1.280541	0.541130	1.125342
H265	H	0.575496	-0.000028	0.632386
H266	H	1.075496	0.499972	1.132386
O267	O	0.369128	-0.000034	-0.184597
O268	O	0.869128	0.499966	0.315403
H269	H	0.394847	-0.000019	-0.221063
H270	H	0.894847	0.499981	0.278937
O271	O	0.784258	-0.000086	0.105601
O272	O	1.284258	0.499914	0.605601
H273	H	0.819993	-0.000080	0.141155
H274	H	1.319993	0.499920	0.641155
O275	O	0.398525	-0.000068	0.031256
O276	O	0.898525	0.499932	0.531256
H277	H	0.434078	-0.000075	0.066992
H278	H	0.934078	0.499925	0.566992
H279	H	0.734598	-0.149747	-0.136494
H280	H	1.234598	0.350253	0.363506
O281	O	0.832917	-0.000068	0.385924
O282	O	1.332917	0.499932	0.885924
H283	H	0.835729	-0.041257	0.359211
H284	H	1.335729	0.458743	0.859211
O285	O	0.566934	-0.000058	0.199666
O286	O	1.066934	0.499942	0.699666
H287	H	0.542187	0.041132	0.184867
H288	H	1.042187	0.541132	0.684867
O289	O	0.778054	-0.433907	-0.179937
O290	O	1.278054	0.066093	0.320063
H291	H	0.801937	-0.466704	-0.203827
H292	H	1.301937	0.033296	0.296173
O293	O	0.513222	-0.000013	0.342342
O294	O	1.013222	0.499987	0.842342
H295	H	0.511051	-0.041199	0.314947
H296	H	1.011051	0.458801	0.814947
H297	H	0.098544	-0.000048	-0.219617
H298	H	0.598544	0.499952	0.280383
H299	H	0.768992	-0.557698	-0.170850
H300	H	1.268992	-0.057698	0.329150
O301	O	0.743739	-0.726506	-0.145569
O302	O	1.243739	-0.226506	0.354431
H303	H	0.767621	-0.759301	-0.169463
H304	H	1.267621	-0.259301	0.330537
H305	H	-0.059867	-0.000057	-0.165717
H306	H	0.440133	0.499943	0.334283
H307	H	0.610046	-0.850366	-0.011784
H308	H	1.110046	-0.350366	0.488216
H309	H	0.574207	-0.000036	0.740136
H310	H	1.074207	0.499964	1.240136
O311	O	0.600962	-0.726578	-0.002696
O312	O	1.100962	-0.226578	0.497304
H313	H	0.577082	-0.759396	0.021193
H314	H	1.077082	-0.259396	0.521193
O315	O	0.782786	-0.000085	0.229061
O316	O	1.282786	0.499915	0.729061
H317	H	0.819252	-0.000101	0.203342
H318	H	1.319252	0.499899	0.703342
O319	O	0.600923	-0.273619	-0.002695
O320	O	1.100923	0.226381	0.497305
H321	H	0.577042	-0.240827	0.021203
H322	H	1.077042	0.259173	0.521203
O323	O	0.511737	-0.000007	0.465793
O324	O	1.011737	0.499993	0.965793
H325	H	0.519893	-0.000011	0.513276
H326	H	1.019893	0.499989	1.013276
H327	H	0.762610	-0.000048	0.765821
H328	H	1.262610	0.499952	1.265821
O329	O	-0.177352	-0.000066	-0.178051
O330	O	0.322648	0.499934	0.321949
H331	H	-0.169349	0.041125	-0.203089
H332	H	0.330651	0.541125	0.296911
