data_functionalizedCrystal
_audit_creation_method	'MofGen! by Chris Wilmer'
_symmetry_space_group_name_H-M	'P1'
_symmetry_Int_Tables_number	1
_symmetry_cell_setting	triclinic
loop_
_symmetry_equiv_pos_as_xyz
  x,y,z
_cell_length_a	12.759395
_cell_length_b	12.759394
_cell_length_c	12.759387
_cell_angle_alpha	90.031660
_cell_angle_beta	90.020509
_cell_angle_gamma	90.016374
loop_
_atom_site_label
_atom_site_type_symbol
_atom_site_fract_x
_atom_site_fract_y
_atom_site_fract_z
Zn1	Zn	1.606268	-0.418168	0.593999
Zn2	Zn	1.606158	-0.593885	0.418317
Zn3	Zn	1.430566	-0.418225	0.418336
Zn4	Zn	1.430558	-0.593810	0.593956
O5	O	1.518387	-0.506022	0.506152
O6	O	1.753274	-0.441485	0.570704
O7	O	1.582823	-0.570639	0.271298
O8	O	1.453922	-0.271197	0.441664
O9	O	1.753194	-0.570583	0.441631
O10	O	1.583010	-0.271155	0.570723
O11	O	1.453816	-0.441582	0.271312
O12	O	1.283544	-0.441510	0.441622
O13	O	1.453909	-0.570456	0.740983
O14	O	1.283538	-0.570511	0.570649
O15	O	1.583002	-0.441412	0.741014
O16	O	1.582815	-0.740896	0.441590
O17	O	1.453802	-0.740841	0.570631
C18	C	1.245420	-0.506009	0.506134
C19	C	1.128643	-0.506029	0.506151
C20	C	1.518324	-0.778990	0.506126
C21	C	1.518393	-0.895766	0.506151
C22	C	1.128676	-0.640576	0.640290
C23	C	1.073831	-0.707857	0.707362
C24	C	0.964109	-0.707870	0.707375
C25	C	0.909230	-0.640592	0.640310
C26	C	0.964074	-0.573310	0.573238
C27	C	1.073799	-0.573307	0.573230
C28	C	0.964042	-0.438760	0.439106
C29	C	1.073764	-0.438751	0.439086
C30	C	0.909162	-0.371482	0.372042
C31	C	0.964007	-0.304204	0.304962
C32	C	1.073735	-0.304195	0.304951
C33	C	1.128608	-0.371469	0.372014
C34	C	1.652835	-0.895770	0.371881
C35	C	1.720083	-0.950633	0.304758
C36	C	1.720145	-1.060354	0.304786
C37	C	1.652953	-1.115216	0.371947
C38	C	1.585705	-1.060353	0.439070
C39	C	1.585648	-0.950629	0.439032
C40	C	1.451270	-1.060349	0.573343
C41	C	1.451202	-0.950628	0.573311
C42	C	1.384079	-1.115211	0.640504
C43	C	1.316823	-1.060348	0.707623
C44	C	1.316764	-0.950620	0.707591
C45	C	1.383954	-0.895765	0.640434
C46	C	1.792421	-0.506036	0.506170
C47	C	1.909197	-0.506042	0.506178
C48	C	1.518467	-0.505919	0.780185
C49	C	1.518500	-0.505875	0.896962
C50	C	1.518479	-0.231989	0.506200
C51	C	1.518518	-0.115212	0.506221
C52	C	1.518369	-0.506049	0.233184
C53	C	1.518538	-0.505797	0.116408
C54	C	1.652934	-0.371511	0.897015
C55	C	1.720166	-0.304313	0.951902
C56	C	1.720192	-0.304275	1.061624
C57	C	1.652976	-0.371439	1.116461
C58	C	1.585744	-0.438637	1.061574
C59	C	1.585728	-0.438671	0.951849
C60	C	1.451307	-0.572995	1.061521
C61	C	1.451285	-0.573040	0.951799
C62	C	1.384091	-0.640159	1.116358
C63	C	1.316863	-0.707364	1.061471
C64	C	1.316841	-0.707400	0.951742
C65	C	1.384053	-0.640238	0.896912
H66	H	1.118526	-0.762632	0.761966
H67	H	1.217949	-0.371471	0.372008
O68	O	0.802580	-0.371326	0.372146
C69	C	0.765947	-0.270668	0.399290
H70	H	0.829202	-0.227285	0.445170
H71	H	0.746454	-0.225058	0.324994
C72	C	0.589124	-0.334213	0.410975
C73	C	0.666812	-0.280932	0.467333
H74	H	0.527971	-0.340543	0.452943
H75	H	0.613803	-0.402028	0.392684
H76	H	0.572893	-0.296197	0.349064
H77	H	0.683052	-0.318954	0.529235
H78	H	0.642134	-0.213123	0.485637
O79	O	1.785429	-0.239177	0.898471
C80	C	1.770980	-0.253600	0.789857
H81	H	1.736525	-0.334677	0.774849
H82	H	1.715060	-0.191279	0.758721
C83	C	1.919596	-0.144440	0.751982
C84	C	1.877287	-0.244023	0.733548
H85	H	1.985170	-0.138528	0.717245
H86	H	1.929329	-0.134719	0.825156
H87	H	1.872986	-0.092517	0.726035
H88	H	1.923890	-0.295943	0.759506
H89	H	1.867564	-0.253752	0.660376
O90	O	0.910940	-0.773168	0.772676
C91	C	0.937778	-0.750316	0.877429
H92	H	1.017457	-0.709933	0.879677
H93	H	0.876055	-0.696340	0.912910
C94	C	0.844975	-0.902412	0.938131
C95	C	0.942842	-0.852822	0.940892
H96	H	0.848094	-0.965642	0.977280
H97	H	0.826890	-0.917807	0.867557
H98	H	0.793549	-0.857423	0.967697
H99	H	0.994263	-0.897806	0.911314
H100	H	0.960936	-0.837437	1.011462
H101	H	0.819889	-0.640599	0.640336
H102	H	1.383905	-0.806424	0.640394
O103	O	1.384119	-0.640317	1.222941
C104	C	1.411087	-0.740997	1.259575
H105	H	1.393094	-0.801528	1.196326
H106	H	1.498265	-0.743234	1.279053
C107	C	1.369188	-0.691840	1.436402
C108	C	1.347080	-0.766186	1.358722
H109	H	1.329710	-0.707377	1.497563
H110	H	1.351023	-0.624008	1.411722
H111	H	1.441837	-0.693712	1.452621
H112	H	1.274435	-0.764304	1.342495
H113	H	1.365232	-0.834018	1.383401
H114	H	1.653018	-1.204557	0.371973
H115	H	1.652778	-0.806429	0.371837
O116	O	0.910653	-0.239007	0.239710
C117	C	0.847114	-0.298741	0.171776
H118	H	0.880157	-0.381478	0.165132
H119	H	0.763975	-0.302405	0.204270
C120	C	0.804795	-0.145660	0.070810
C121	C	0.845385	-0.247277	0.062642
H122	H	0.803724	-0.113913	0.003492
H123	H	0.847599	-0.105415	0.116580
H124	H	0.735516	-0.148727	0.097892
H125	H	0.914666	-0.244207	0.035573
H126	H	0.802592	-0.287521	0.016865
H127	H	1.652994	-0.371393	1.205802
H128	H	1.774792	-0.905955	0.250078
H129	H	1.384138	-1.204552	0.640527
O130	O	1.126846	-0.238805	0.239694
C131	C	1.054875	-0.179414	0.180530
H132	H	0.976650	-0.222448	0.176829
H133	H	1.043244	-0.099671	0.219151
C134	C	1.193716	-0.111272	0.073278
C135	C	1.097641	-0.164132	0.068725
H136	H	1.220097	-0.101840	0.004312
H137	H	1.242205	-0.151281	0.113139
H138	H	1.184011	-0.044825	0.105466
H139	H	1.107351	-0.230582	0.036549
H140	H	1.049155	-0.124133	0.028855
O141	O	1.251478	-0.772634	1.114575
C142	C	1.192157	-0.831981	1.042607
H143	H	1.188522	-0.788982	0.964397
H144	H	1.230598	-0.911783	1.030935
C145	C	1.084807	-0.899906	1.181466
C146	C	1.080334	-0.847089	1.085410
H147	H	1.015830	-0.909230	1.207870
H148	H	1.124774	-0.859926	1.229953
H149	H	1.116845	-0.966402	1.171727
H150	H	1.048309	-0.780590	1.095153
H151	H	1.040358	-0.887058	1.036925
H152	H	1.218017	-0.640580	0.640278
H153	H	1.774909	-1.105023	0.250135
H154	H	1.262126	-1.105025	0.762305
O155	O	1.251343	-0.897492	0.772833
C156	C	1.192081	-0.969447	0.832133
H157	H	1.188502	-1.047698	0.789117
H158	H	1.230537	-0.981018	0.911955
C159	C	1.084630	-0.830599	0.900023
C160	C	1.080227	-0.926707	0.847186
H161	H	1.015634	-0.804235	0.909314
H162	H	1.124557	-0.782121	0.860075
H163	H	1.116681	-0.840256	0.966536
H164	H	1.048188	-0.917047	0.780670
H165	H	1.040291	-0.975183	0.887123
H166	H	1.384046	-0.640265	0.807571
H167	H	1.652930	-0.371545	0.807674
H168	H	1.774931	-0.249550	1.106313
H169	H	1.262082	-0.762110	0.907060
