data_functionalizedCrystal
_audit_creation_method	'MofGen! by Chris Wilmer'
_symmetry_space_group_name_H-M	'P1'
_symmetry_Int_Tables_number	1
_symmetry_cell_setting	triclinic
loop_
_symmetry_equiv_pos_as_xyz
  x,y,z
_cell_length_a	8.597340
_cell_length_b	10.723024
_cell_length_c	7.088929
_cell_angle_alpha	83.718137
_cell_angle_beta	103.954719
_cell_angle_gamma	84.901851
loop_
_atom_site_label
_atom_site_type_symbol
_atom_site_fract_x
_atom_site_fract_y
_atom_site_fract_z
O1	O	2.103244	0.171369	0.187485
O2	O	1.638784	0.191739	0.110971
O3	O	1.881728	-0.000106	0.151001
O4	O	1.860300	0.363215	0.147456
O5	O	1.914194	-0.025802	0.474325
O6	O	1.671250	0.166043	0.434296
O7	O	2.135710	0.145673	0.510810
Cu8	Cu	1.906445	0.153512	0.502075
Cu9	Cu	1.868049	0.183901	0.119706
O10	O	1.892766	0.337519	0.470781
C11	C	1.595546	0.178135	0.262837
C12	C	1.418340	0.175867	0.233644
C13	C	1.896402	-0.059441	0.312404
C14	C	1.891736	-0.197958	0.311628
C15	C	2.027674	-0.273999	0.334020
C16	C	2.022855	-0.417165	0.333219
C17	C	2.178948	0.159278	0.358941
C18	C	2.356153	0.161547	0.388120
C19	C	1.878092	0.396854	0.309374
C20	C	1.882757	0.535373	0.310136
N21	N	1.933462	0.132138	0.771015
N22	N	1.841045	0.205265	-0.149231
H23	H	1.438482	0.151012	0.542715
H24	H	2.029258	0.056360	0.868455
H25	H	1.336002	0.186394	0.079039
C26	C	2.180077	-0.505431	0.359118
N27	N	2.298501	-0.571917	0.378622
H28	H	2.147624	-0.233112	0.353792
C29	C	1.711641	0.307638	0.719147
N30	N	1.614170	0.384746	0.619996
H31	H	1.766378	-0.399297	0.290979
C32	C	1.729684	-0.253190	0.284935
N33	N	1.607623	-0.294789	0.264835
