data_functionalizedCrystal
_audit_creation_method	'MofGen! by Chris Wilmer'
_symmetry_space_group_name_H-M	'P1'
_symmetry_Int_Tables_number	1
_symmetry_cell_setting	triclinic
loop_
_symmetry_equiv_pos_as_xyz
  x,y,z
_cell_length_a	12.759400
_cell_length_b	12.645331
_cell_length_c	12.759393
_cell_angle_alpha	89.977064
_cell_angle_beta	89.970195
_cell_angle_gamma	90.013624
loop_
_atom_site_label
_atom_site_type_symbol
_atom_site_fract_x
_atom_site_fract_y
_atom_site_fract_z
Zn1	Zn	-0.418244	1.620756	-0.594081
Zn2	Zn	0.081756	2.120756	-0.094081
Zn3	Zn	-0.593960	1.620647	-0.418403
Zn4	Zn	-0.093960	2.120647	0.081597
Zn5	Zn	-0.418292	1.443470	-0.418410
Zn6	Zn	0.081708	1.943470	0.081590
Zn7	Zn	-0.593878	1.443462	-0.594034
Zn8	Zn	-0.093878	1.943462	-0.094034
O9	O	-0.506094	1.532084	-0.506232
O10	O	-0.006094	2.032084	-0.006232
O11	O	-0.441567	1.769089	-0.570794
O12	O	0.058433	2.269089	-0.070794
O13	O	-0.570711	1.597101	-0.271383
O14	O	-0.070711	2.097101	0.228617
O15	O	-0.271265	1.467037	-0.441736
O16	O	0.228735	1.967037	0.058264
O17	O	-0.570664	1.769009	-0.441724
O18	O	-0.070664	2.269009	0.058276
O19	O	-0.271229	1.597288	-0.570800
O20	O	0.228771	2.097288	-0.070800
O21	O	-0.441649	1.466930	-0.271388
O22	O	0.058351	1.966930	0.228612
O23	O	-0.441570	1.295122	-0.441690
O24	O	0.058430	1.795122	0.058310
O25	O	-0.570526	1.467023	-0.741062
O26	O	-0.070526	1.967023	-0.241062
O27	O	-0.570573	1.295116	-0.570721
O28	O	-0.070573	1.795116	-0.070721
O29	O	-0.441488	1.597281	-0.741096
O30	O	0.058512	2.097281	-0.241096
O31	O	-0.740970	1.597094	-0.441679
O32	O	-0.240970	2.097094	0.058321
O33	O	-0.740910	1.466917	-0.570714
O34	O	-0.240910	1.966917	-0.070714
C35	C	-0.506069	1.256654	-0.506202
C36	C	-0.006069	1.756654	-0.006202
C37	C	-0.506083	1.138824	-0.506214
C38	C	-0.006083	1.638824	-0.006214
C39	C	-0.424554	0.971228	-0.425489
C40	C	0.075446	1.471228	0.074511
C41	C	-0.424765	1.093788	-0.425133
C42	C	0.075235	1.593788	0.074867
C43	C	-0.616761	1.094310	-0.475970
C44	C	-0.116761	1.594310	0.024030
C45	C	-0.616316	0.971711	-0.475419
C46	C	-0.116316	1.471711	0.024581
C47	C	-0.477988	0.971674	-0.617494
C48	C	0.022012	1.471674	-0.117494
C49	C	-0.475515	1.094279	-0.616876
C50	C	0.024485	1.594279	-0.116876
C51	C	-0.779061	1.532021	-0.506214
C52	C	-0.279061	2.032021	-0.006214
C53	C	-0.895838	1.532091	-0.506241
C54	C	-0.395838	2.032091	-0.006241
C55	C	-0.950591	1.599884	-0.573502
C56	C	-0.450591	2.099884	-0.073502
C57	C	-1.060315	1.599943	-0.573530
C58	C	-0.560315	2.099943	-0.073530
C59	C	-1.060522	1.464415	-0.439028
C60	C	-0.560522	1.964415	0.060972
C61	C	-0.950800	1.464351	-0.439005
C62	C	-0.450800	1.964351	0.060995
C63	C	-0.232060	1.532176	-0.506274
C64	C	0.267940	2.032176	-0.006274
C65	C	-0.115284	1.532215	-0.506292
C66	C	0.384716	2.032215	-0.006292
C67	C	-0.505993	1.532163	-0.780266
C68	C	-0.005993	2.032163	-0.280266
C69	C	-0.505950	1.532197	-0.897042
C70	C	-0.005950	2.032197	-0.397042
C71	C	-0.506119	1.808589	-0.506263
C72	C	-0.006119	2.308589	-0.006263
C73	C	-0.506130	1.926419	-0.506277
C74	C	-0.006130	2.426419	-0.006277
C75	C	-0.438749	1.600027	-0.951924
C76	C	0.061251	2.100027	-0.451924
C77	C	-0.438704	1.600045	-1.061648
C78	C	0.061296	2.100045	-0.561648
C79	C	-0.573069	1.464400	-1.061600
C80	C	-0.073069	1.964400	-0.561600
C81	C	-0.573108	1.464377	-0.951877
C82	C	-0.073108	1.964377	-0.451877
C83	C	-0.506118	1.532066	-0.233265
C84	C	-0.006118	2.032066	0.266735
C85	C	-0.505865	1.532237	-0.116489
C86	C	-0.005865	2.032237	0.383511
H87	H	-0.640181	0.943066	-0.394114
H88	H	-0.140181	1.443066	0.105886
H89	H	-0.530596	1.124940	-0.680289
H90	H	-0.030596	1.624940	-0.180289
N91	N	-0.891739	1.391235	-0.366446
N92	N	-0.391739	1.891235	0.133554
H93	H	-0.813891	1.401473	-0.376638
H94	H	-0.313891	1.901473	0.123362
H95	H	-0.910965	1.315526	-0.382732
H96	H	-0.410965	1.815526	0.117268
H97	H	-0.627749	1.409186	-1.106260
H98	H	-0.127749	1.909186	-0.606260
N99	N	-0.366232	1.673206	-1.120852
N100	N	0.133768	2.173206	-0.620852
H101	H	-0.317522	1.630149	-1.166371
H102	H	0.182478	2.130149	-0.666371
H103	H	-0.323764	1.716152	-1.069402
H104	H	0.176236	2.216152	-0.569402
N105	N	-0.645571	1.391193	-0.892674
N106	N	-0.145571	1.891193	-0.392674
H107	H	-0.688109	1.348233	-0.944059
H108	H	-0.188109	1.848233	-0.444059
H109	H	-0.694217	1.434300	-0.847138
H110	H	-0.194217	1.934300	-0.347138
H111	H	-0.537404	0.942698	-0.677689
H112	H	-0.037404	1.442698	-0.177689
N113	N	-0.366317	1.673170	-0.892778
N114	N	0.133683	2.173170	-0.392778
H115	H	-0.323738	1.716141	-0.944199
H116	H	0.176262	2.216141	-0.444199
H117	H	-0.317708	1.630027	-0.847252
H118	H	0.182292	2.130027	-0.347252
H119	H	-0.342236	0.941760	-0.444242
H120	H	0.157764	1.441760	0.055758
N121	N	-0.891308	1.672940	-0.646019
N122	N	-0.391308	2.172940	-0.146019
H123	H	-0.942648	1.715893	-0.688634
H124	H	-0.442648	2.215893	-0.188634
H125	H	-0.845782	1.629736	-0.694590
H126	H	-0.345782	2.129736	-0.194590
H127	H	-0.342694	1.123885	-0.444089
H128	H	0.157306	1.623885	0.055911
H129	H	-1.104891	1.655144	-0.628304
H130	H	-0.604891	2.155144	-0.128304
H131	H	-0.679154	0.942070	-0.531696
H132	H	-0.179154	1.442070	-0.031696
H133	H	-0.442950	0.940381	-0.343556
H134	H	0.057050	1.440381	0.156444
H135	H	-0.679166	1.123483	-0.532966
H136	H	-0.179166	1.623483	-0.032966
N137	N	-0.449397	1.132584	-0.315964
N138	N	0.050603	1.632584	0.184036
H139	H	-0.460168	1.070044	-0.267887
H140	H	0.039832	1.570044	0.232113
H141	H	-0.515284	1.176794	-0.317696
H142	H	-0.015284	1.676794	0.182304
N143	N	-0.648931	1.134897	-0.369426
N144	N	-0.148931	1.634897	0.130574
H145	H	-0.652019	1.214693	-0.370893
H146	H	-0.152019	1.714693	0.129107
H147	H	-0.596051	1.111307	-0.315389
H148	H	-0.096051	1.611307	0.184611
N149	N	-0.372953	0.930743	-0.653938
N150	N	0.127047	1.430743	-0.153938
H151	H	-0.342547	0.882442	-0.598715
H152	H	0.157453	1.382442	-0.098715
H153	H	-0.323896	0.992245	-0.666031
H154	H	0.176104	1.492245	-0.166031
H155	H	-1.105286	1.409265	-0.384285
H156	H	-0.605286	1.909265	0.115715
N157	N	-0.367626	1.132807	-0.647089
N158	N	0.132374	1.632807	-0.147089
H159	H	-0.338663	1.178927	-0.589343
H160	H	0.161337	1.678927	-0.089343
H161	H	-0.372262	1.175077	-0.714102
H162	H	0.127738	1.675077	-0.214102
