data_functionalizedCrystal
_audit_creation_method	'MofGen! by Chris Wilmer'
_symmetry_space_group_name_H-M	'P1'
_symmetry_Int_Tables_number	1
_symmetry_cell_setting	triclinic
loop_
_symmetry_equiv_pos_as_xyz
  x,y,z
_cell_length_a	6.817900
_cell_length_b	11.102233
_cell_length_c	16.015572
_cell_angle_alpha	76.745633
_cell_angle_beta	104.485554
_cell_angle_gamma	108.604738
loop_
_atom_site_label
_atom_site_type_symbol
_atom_site_fract_x
_atom_site_fract_y
_atom_site_fract_z
V1	V	-3.999219	-0.051261	-0.269394
O2	O	-3.960394	0.130656	-0.264263
O3	O	-3.976761	-0.224932	-0.267554
O4	O	-3.927019	0.005776	-0.386884
O5	O	-4.010480	-0.101650	-0.144106
V6	V	-4.482570	-0.036148	-0.254408
O7	O	-4.260856	-0.084413	-0.302266
O8	O	-4.671130	-0.002996	-0.221536
O9	O	-4.281822	0.137524	-0.256248
O10	O	-4.638792	-0.218064	-0.259539
O11	O	-4.588707	0.014242	-0.379695
O12	O	-4.331563	-0.093185	-0.136918
C13	C	-3.828843	-0.269027	-0.263305
C14	C	-3.891608	-0.410644	-0.262585
C15	C	-3.797853	-0.605767	-0.257247
C16	C	-3.738879	-0.472701	-0.257932
C17	C	-4.103329	-0.481657	-0.266561
C18	C	-4.162302	-0.614719	-0.265882
C19	C	-3.587439	-0.600596	-0.252261
C20	C	-3.528465	-0.467531	-0.252946
C21	C	-3.765391	0.025266	-0.415522
C22	C	-3.787815	0.070751	-0.511571
C23	C	-4.136754	-0.332974	-0.889211
C24	C	-4.157823	-0.290192	-0.979459
C25	C	-4.047774	-0.068856	-0.954749
C26	C	-4.026685	-0.111619	-0.864496
C27	C	-4.071182	-0.243679	-0.831734
C28	C	-3.961112	-0.022324	-0.807020
C29	C	-3.940036	-0.065084	-0.716775
C30	C	-3.984533	-0.197139	-0.684007
C31	C	-4.050106	-0.286439	-0.741490
C32	C	-3.916631	0.109736	-0.839783
C33	C	-3.851058	0.199030	-0.782307
C34	C	-3.829967	0.156271	-0.692060
C35	C	-3.874464	0.024216	-0.659292
C36	C	-3.764395	0.245571	-0.634577
C37	C	-3.743319	0.202811	-0.544332
C38	C	-3.853388	-0.018544	-0.569047
C39	C	-4.093083	0.181611	-0.260494
C40	C	-4.009555	0.323229	-0.261221
C41	C	-4.156535	-0.112681	-0.108276
C42	C	-4.113349	-0.158160	-0.012226
H43	H	-3.518916	-0.654870	-0.187831
H44	H	-4.172961	-0.440510	-0.862534
H45	H	-4.334689	-0.672523	-0.269129
H46	H	-3.689924	0.275524	-0.497533
C47	C	-3.444617	-0.389873	-0.335805
H48	H	-3.448073	-0.447367	-0.372229
H49	H	-3.530392	-0.334922	-0.366533
H50	H	-3.303633	-0.339431	-0.319768
H51	H	-4.086312	-0.393975	-0.714814
H52	H	-4.211213	-0.362917	-1.026255
C53	C	-3.961359	-0.244185	-0.584741
H54	H	-3.997267	-0.335623	-0.573463
H55	H	-3.819725	-0.210229	-0.556947
H56	H	-4.052832	-0.215744	-0.562574
C57	C	-3.369557	-0.435178	-0.168546
H58	H	-3.344238	-0.512172	-0.133367
H59	H	-3.240939	-0.378332	-0.183007
H60	H	-3.425500	-0.395090	-0.137185
H61	H	-4.011558	0.038668	-0.981436
H62	H	-3.933764	0.144547	-0.913266
C63	C	-3.802107	0.344287	-0.818350
H64	H	-3.824036	0.356967	-0.880328
H65	H	-3.892572	0.380006	-0.801291
H66	H	-3.659478	0.385501	-0.795673
H67	H	-4.227683	-0.431117	-0.270357
H68	H	-3.889594	-0.126080	-0.542371
C69	C	-3.528123	-0.627590	-0.331484
H70	H	-3.568125	-0.717888	-0.331013
H71	H	-3.599463	-0.587360	-0.383858
H72	H	-3.380165	-0.594192	-0.328443
H73	H	-3.728191	0.353095	-0.661266
