data_functionalizedCrystal
_audit_creation_method	'MofGen! by Chris Wilmer'
_symmetry_space_group_name_H-M	'P1'
_symmetry_Int_Tables_number	1
_symmetry_cell_setting	triclinic
loop_
_symmetry_equiv_pos_as_xyz
  x,y,z
_cell_length_a	17.038278
_cell_length_b	17.038272
_cell_length_c	16.776229
_cell_angle_alpha	89.993292
_cell_angle_beta	89.992923
_cell_angle_gamma	91.111028
loop_
_atom_site_label
_atom_site_type_symbol
_atom_site_fract_x
_atom_site_fract_y
_atom_site_fract_z
O1	O	1.048757	0.170529	-0.066296
O2	O	1.548757	0.670529	0.433704
O3	O	0.820945	0.167823	-0.066296
O4	O	1.320945	0.667823	0.433704
O5	O	0.933497	0.055270	-0.066290
O6	O	1.433497	0.555270	0.433710
O7	O	0.936205	0.283082	-0.066302
O8	O	1.436205	0.783082	0.433698
O9	O	0.933481	0.055262	0.066287
O10	O	1.433481	0.555262	0.566287
O11	O	0.820929	0.167815	0.066280
O12	O	1.320929	0.667815	0.566280
O13	O	1.048740	0.170521	0.066281
O14	O	1.548740	0.670521	0.566281
Zn15	Zn	0.934832	0.169166	0.087330
Zn16	Zn	1.434832	0.669166	0.587330
Zn17	Zn	0.934854	0.169178	-0.087345
Zn18	Zn	1.434854	0.669178	0.412655
O19	O	0.936189	0.283074	0.066274
O20	O	1.436189	0.783074	0.566274
C21	C	0.791645	0.165356	-0.000008
C22	C	1.291645	0.665356	0.499992
C23	C	0.704361	0.158009	-0.000008
C24	C	1.204361	0.658009	0.499992
C25	C	0.210935	0.112872	-0.000008
C26	C	0.710935	0.612872	0.499992
C27	C	0.292947	0.119781	-0.000004
C28	C	0.792947	0.619781	0.499996
C29	C	0.329347	0.194155	-0.000012
C30	C	0.829347	0.694155	0.499988
C31	C	0.283730	0.261623	-0.000016
C32	C	0.783730	0.761623	0.499984
C33	C	0.201720	0.254713	-0.000014
C34	C	0.701720	0.754713	0.499986
C35	C	0.576734	0.218567	-0.000011
C36	C	1.076734	0.718567	0.499989
C37	C	0.658751	0.225473	-0.000014
C38	C	1.158751	0.725473	0.499986
C39	C	0.667962	0.083630	-0.000001
C40	C	1.167962	0.583630	0.499999
C41	C	0.585949	0.076726	-0.000005
C42	C	1.085949	0.576726	0.499995
C43	C	0.540340	0.144194	-0.000004
C44	C	1.040340	0.644194	0.499996
C45	C	0.413176	0.201219	-0.000010
C46	C	0.913176	0.701219	0.499990
C47	C	0.456513	0.137129	-0.000001
C48	C	0.956513	0.637129	0.499999
C49	C	0.931026	0.025974	-0.000002
C50	C	1.431026	0.525974	0.499998
C51	C	0.923678	-0.061310	-0.000002
C52	C	1.423678	0.438690	0.499998
C53	C	0.991142	-0.106920	-0.000001
C54	C	1.491142	0.393080	0.499999
C55	C	0.984233	-0.188932	-0.000009
C56	C	1.484233	0.311068	0.499991
C57	C	0.909859	-0.225332	-0.000011
C58	C	1.409859	0.274668	0.499989
C59	C	0.842391	-0.179716	-0.000015
C60	C	1.342391	0.320284	0.499985
C61	C	0.849300	-0.097706	-0.000013
C62	C	1.349300	0.402294	0.499987
C63	C	0.885449	-0.472720	-0.000022
C64	C	1.385449	0.027280	0.499978
C65	C	0.878544	-0.554736	-0.000022
C66	C	1.378544	-0.054736	0.499978
C67	C	1.020387	-0.563946	-0.000017
C68	C	1.520387	-0.063946	0.499983
C69	C	1.027290	-0.481934	-0.000010
C70	C	1.527290	0.018066	0.499990
C71	C	0.959821	-0.436325	-0.000018
C72	C	1.459821	0.063675	0.499982
C73	C	0.902796	-0.309161	-0.000017
C74	C	1.402796	0.190839	0.499983
C75	C	0.966886	-0.352497	-0.000018
C76	C	1.466886	0.147503	0.499982
C77	C	1.078041	0.172988	-0.000010
C78	C	1.578041	0.672988	0.499990
C79	C	1.165325	0.180335	-0.000015
C80	C	1.665325	0.680335	0.499985
C81	C	0.938660	0.312370	-0.000016
C82	C	1.438660	0.812370	0.499984
C83	C	0.946008	0.399654	-0.000021
C84	C	1.446008	0.899654	0.499979
N85	N	0.934823	0.169159	0.206541
N86	N	1.434823	0.669159	0.706541
N87	N	0.934869	0.169180	-0.206557
N88	N	1.434869	0.669180	0.293443
C89	C	0.984679	0.119343	0.248261
C90	C	1.484679	0.619343	0.748261
C91	C	0.984683	0.119343	0.331713
C92	C	1.484683	0.619343	0.831713
C93	C	0.934835	0.169163	0.373444
C94	C	1.434835	0.669163	0.873444
C95	C	0.884974	0.218980	0.331718
C96	C	1.384974	0.718980	0.831718
C97	C	0.884966	0.218976	0.248267
C98	C	1.384966	0.718976	0.748267
C99	C	0.885003	0.218997	0.668265
C100	C	1.385003	0.718997	1.168265
C101	C	0.885017	0.219000	0.751722
C102	C	1.385017	0.719000	1.251722
C103	C	0.984720	0.119364	0.751711
C104	C	1.484720	0.619364	1.251711
C105	C	0.984712	0.119360	0.668260
C106	C	1.484712	0.619360	1.168260
C107	C	0.934849	0.169175	0.626542
C108	C	1.434849	0.669175	1.126542
C109	C	0.934843	0.169173	0.536054
C110	C	1.434843	0.669173	1.036054
C111	C	0.934844	0.169168	0.463931
C112	C	1.434844	0.669168	0.963931
H113	H	0.539609	0.273505	-0.000015
H114	H	1.039609	0.773505	0.499985
Br115	Br	1.052342	0.051732	0.388336
Br116	Br	1.552342	0.551732	0.888336
Br117	Br	0.333129	0.362560	-0.000022
Br118	Br	0.833129	0.862560	0.499978
Br119	Br	0.801863	-0.358569	-0.000028
Br120	Br	1.301863	0.141431	0.499972
H121	H	0.164585	0.309649	-0.000017
H122	H	0.664585	0.809649	0.499983
Br123	Br	0.817335	0.286602	0.611652
Br124	Br	1.317335	0.786602	1.111652
H125	H	0.844383	0.259541	0.365700
H126	H	1.344383	0.759541	0.865700
H127	H	0.844368	0.259540	0.214300
H128	H	1.344368	0.759540	0.714300
H129	H	0.426872	0.076575	-0.000004
H130	H	0.926872	0.576575	0.499996
H131	H	1.025306	0.078795	0.634286
H132	H	1.525306	0.578795	1.134286
Br133	Br	0.536555	-0.024213	-0.000029
Br134	Br	1.036555	0.475787	0.499971
Br135	Br	1.128229	-0.432539	-0.000032
Br136	Br	1.628229	0.067461	0.499968
Br137	Br	0.161544	0.011931	-0.000004
Br138	Br	0.661544	0.511931	0.499996
H139	H	1.025320	0.078800	0.785687
H140	H	1.525320	0.578800	1.285687
Br141	Br	1.052340	0.051733	0.191635
Br142	Br	1.552340	0.551733	0.691635
H143	H	0.442822	0.261775	-0.000018
H144	H	0.942822	0.761775	0.499982
H145	H	0.330080	0.064845	0.000005
H146	H	0.830080	0.564845	0.500005
Br147	Br	0.729863	-0.007929	0.000003
Br148	Br	1.229863	0.492071	0.500003
H149	H	0.794364	-0.060571	-0.000014
H150	H	1.294364	0.439429	0.499986
Br151	Br	1.092082	-0.057527	0.000014
Br152	Br	1.592082	0.442473	0.500014
Br153	Br	0.817362	0.286617	0.808357
Br154	Br	1.317362	0.786617	1.308357
H155	H	1.039169	-0.226064	-0.000006
H156	H	1.539169	0.273936	0.499994
H157	H	1.075316	-0.601089	-0.000013
H158	H	1.575316	-0.101089	0.499987
H159	H	0.688384	0.286039	-0.000009
H160	H	1.188384	0.786039	0.499991
Br161	Br	0.741454	-0.229116	-0.000032
Br162	Br	1.241454	0.270884	0.499968
Br163	Br	0.777602	-0.604136	-0.000017
Br164	Br	1.277602	-0.104136	0.499983
Br165	Br	1.067818	-0.303096	-0.000022
Br166	Br	1.567818	0.196904	0.499978
H167	H	0.830511	-0.435595	-0.000028
H168	H	1.330511	0.064405	0.499972
