data_functionalizedCrystal
_audit_creation_method	'MofGen! by Chris Wilmer'
_symmetry_space_group_name_H-M	'P1'
_symmetry_Int_Tables_number	1
_symmetry_cell_setting	triclinic
loop_
_symmetry_equiv_pos_as_xyz
  x,y,z
_cell_length_a	15.944493
_cell_length_b	15.944551
_cell_length_c	8.965430
_cell_angle_alpha	89.999468
_cell_angle_beta	89.996758
_cell_angle_gamma	83.486891
loop_
_atom_site_label
_atom_site_type_symbol
_atom_site_fract_x
_atom_site_fract_y
_atom_site_fract_z
O1	O	1.114554	0.108094	-0.124023
O2	O	1.614554	0.608094	0.375977
O3	O	0.869998	0.121501	-0.124031
O4	O	1.369998	0.621501	0.375969
O5	O	0.998955	-0.007479	-0.124013
O6	O	1.498955	0.492521	0.375987
O7	O	0.985598	0.237074	-0.124040
O8	O	1.485598	0.737074	0.375960
O9	O	0.998944	-0.007470	0.124066
O10	O	1.498944	0.492530	0.624066
O11	O	0.869987	0.121510	0.124048
O12	O	1.369987	0.621510	0.624048
O13	O	1.114543	0.108102	0.124056
O14	O	1.614543	0.608102	0.624056
Cu15	Cu	0.992264	0.114807	0.146704
Cu16	Cu	1.492264	0.614807	0.646704
Cu17	Cu	0.992277	0.114797	-0.146678
Cu18	Cu	1.492277	0.614797	0.353322
O19	O	0.985587	0.237082	0.124039
O20	O	1.485587	0.737082	0.624039
C21	C	0.838698	0.120957	0.000008
C22	C	1.338698	0.620957	0.500008
C23	C	0.745449	0.119314	0.000006
C24	C	1.245449	0.619314	0.500006
C25	C	0.509689	0.195235	-0.000004
C26	C	1.009689	0.695235	0.499996
C27	C	0.459126	0.154298	0.122323
C28	C	0.959126	0.654298	0.622323
C29	C	0.574728	0.116270	0.000009
C30	C	1.074728	0.616270	0.500009
C31	C	0.459141	0.154271	-0.122263
C32	C	0.959141	0.654271	0.377737
C33	C	0.409819	0.113336	0.000005
C34	C	0.909819	0.613336	0.500005
C35	C	0.525393	0.075355	0.122437
C36	C	1.025393	0.575355	0.622437
C37	C	0.525411	0.075339	-0.122260
C38	C	1.025411	0.575339	0.377740
C39	C	0.474880	0.034345	0.000097
C40	C	0.974880	0.534345	0.500097
C41	C	0.669728	0.117963	0.000012
C42	C	1.169728	0.617963	0.500012
C43	C	0.314821	0.111637	0.000013
C44	C	0.814821	0.611637	0.500013
C45	C	0.998395	-0.038768	0.000027
C46	C	1.498395	0.461232	0.500027
C47	C	0.996732	-0.132014	0.000027
C48	C	1.496732	0.367986	0.500027
C49	C	0.912826	-0.346853	0.000004
C50	C	1.412826	0.153147	0.500004
C51	C	0.951784	-0.407874	0.122323
C52	C	1.451784	0.092126	0.622323
C53	C	0.993725	-0.302739	0.000016
C54	C	1.493725	0.197261	0.500016
C55	C	0.951813	-0.407866	-0.122263
C56	C	1.451813	0.092134	0.377737
C57	C	0.990814	-0.467651	-0.000002
C58	C	1.490814	0.032349	0.499998
C59	C	1.032705	-0.362532	0.122436
C60	C	1.532705	0.137468	0.622436
C61	C	1.032724	-0.362518	-0.122260
C62	C	1.532724	0.137482	0.377740
C63	C	1.071741	-0.423521	0.000089
C64	C	1.571741	0.076479	0.500089
C65	C	0.995399	-0.207737	0.000027
C66	C	1.495399	0.292263	0.500027
C67	C	0.989146	-0.562652	-0.000002
C68	C	1.489146	-0.062652	0.499998
C69	C	1.145844	0.108646	0.000014
C70	C	1.645844	0.608646	0.500014
C71	C	1.239092	0.110289	0.000007
C72	C	1.739092	0.610289	0.500007
C73	C	0.986147	0.268372	-0.000004
C74	C	1.486147	0.768372	0.499996
C75	C	0.987809	0.361617	-0.000015
C76	C	1.487809	0.861617	0.499985
N77	N	0.992261	0.114813	0.353053
N78	N	1.492261	0.614813	0.853053
N79	N	0.992287	0.114783	-0.353027
N80	N	1.492287	0.614783	0.146973
C81	C	0.932605	0.174443	0.450351
C82	C	1.432605	0.674443	0.950351
C83	C	1.008511	0.190730	0.549765
C84	C	1.508511	0.690730	1.049765
C85	C	0.916387	0.098533	0.549766
C86	C	1.416387	0.598533	1.049766
C87	C	1.068206	0.131138	0.450278
C88	C	1.568206	0.631138	0.950278
C89	C	0.976032	0.038909	0.450271
C90	C	1.476032	0.538909	0.950271
C91	C	1.051993	0.055164	0.549640
C92	C	1.551993	0.555164	1.049640
H93	H	0.525313	0.263254	0.000103
H94	H	1.025313	0.763254	0.500103
H95	H	0.430207	0.187631	-0.225666
H96	H	0.930207	0.687631	0.274334
H97	H	0.554216	0.042031	0.225957
H98	H	1.054216	0.542031	0.725957
H99	H	0.917590	-0.427940	-0.225681
H100	H	1.417590	0.072060	0.274319
H101	H	1.102508	0.004721	0.592962
H102	H	1.602508	0.504721	1.092962
H103	H	0.459415	-0.033726	0.000175
H104	H	0.959415	0.466274	0.500175
Br105	Br	1.089686	-0.329227	0.294982
Br106	Br	1.589686	0.170773	0.794982
H107	H	0.554362	0.042013	-0.225674
H108	H	1.054362	0.542013	0.274326
Br109	Br	0.800905	-0.291316	0.000189
Br110	Br	1.300905	0.208684	0.500189
H111	H	0.962263	-0.025249	0.406534
H112	H	1.462263	0.474751	0.906534
Br113	Br	0.848596	0.258561	0.377679
Br114	Br	1.348596	0.758561	0.877679
H115	H	0.430184	0.187650	0.225732
H116	H	0.930184	0.687650	0.725732
Br117	Br	1.183759	-0.478814	0.000197
Br118	Br	1.683759	0.021186	0.500197
H119	H	1.022256	0.254908	0.593466
H120	H	1.522256	0.754908	1.093466
H121	H	0.917562	-0.427972	0.225732
H122	H	1.417562	0.072028	0.725732
Br123	Br	0.809425	0.075602	0.622613
Br124	Br	1.309425	0.575602	1.122613
H125	H	1.066916	-0.342398	-0.225674
H126	H	1.566916	0.157602	0.274326
H127	H	1.132396	0.144972	0.406761
H128	H	1.632396	0.644972	0.906761
