data_functionalizedCrystal
_audit_creation_method	'MofGen! by Chris Wilmer'
_symmetry_space_group_name_H-M	'P1'
_symmetry_Int_Tables_number	1
_symmetry_cell_setting	triclinic
loop_
_symmetry_equiv_pos_as_xyz
  x,y,z
_cell_length_a	14.628931
_cell_length_b	20.875492
_cell_length_c	20.875641
_cell_angle_alpha	60.662107
_cell_angle_beta	90.001288
_cell_angle_gamma	58.317473
loop_
_atom_site_label
_atom_site_type_symbol
_atom_site_fract_x
_atom_site_fract_y
_atom_site_fract_z
Zr1	Zr	0.832656	0.731507	-0.117949
O2	O	0.682366	0.864503	-0.223426
O3	O	0.885686	0.593227	-0.080715
O4	O	0.883107	0.723888	-0.216362
O5	O	0.679064	0.741695	0.013649
O6	O	1.033539	0.723888	-0.216363
O7	O	0.684945	0.733842	-0.087779
O8	O	1.038153	0.490160	0.026285
O9	O	0.674450	0.975423	-0.228999
O10	O	1.012161	0.652060	-0.070754
O11	O	0.895506	0.657920	0.004941
O12	O	0.892470	0.811757	-0.154766
O13	O	0.775815	0.817617	-0.079071
Zr14	Zr	1.063197	0.744030	0.043818
Zr15	Zr	1.072577	0.731507	-0.117949
Zr16	Zr	0.823275	0.744030	0.043818
Zr17	Zr	0.820031	0.908411	-0.126836
Zr18	Zr	1.075822	0.567126	0.052705
O19	O	1.010166	0.882310	0.006584
O20	O	1.023504	0.864503	-0.223427
O21	O	0.669029	0.882310	0.006585
O22	O	1.213486	0.611034	0.149296
O23	O	1.226824	0.593227	-0.080716
O24	O	0.872349	0.611034	0.149296
O25	O	1.216789	0.733842	-0.087780
O26	O	1.012745	0.751649	0.142232
O27	O	0.862313	0.751649	0.142232
O28	O	1.210907	0.741695	0.013648
O29	O	0.865156	0.975423	-0.228999
O30	O	1.030697	0.500114	0.154868
O31	O	1.221402	0.500114	0.154868
O32	O	1.228858	0.490160	0.026285
O33	O	0.666994	0.985377	-0.100416
O34	O	0.857700	0.985377	-0.100416
O35	O	1.003383	0.663780	0.080635
O36	O	1.120038	0.657920	0.004940
O37	O	1.000346	0.817617	-0.079072
O38	O	0.883691	0.823477	-0.003376
C39	C	0.963718	0.516488	-0.025949
C40	C	0.969078	0.441388	-0.022176
C41	C	0.887597	0.462907	-0.079364
C42	C	0.892637	0.392353	-0.075846
C43	C	0.979154	0.300281	-0.015136
C44	C	1.060643	0.278763	0.042055
C45	C	1.055607	0.349316	0.038533
C46	C	1.003228	0.083184	0.001714
C47	C	1.008256	0.012630	0.005233
C48	C	0.840250	0.126226	-0.112669
C49	C	0.835217	0.196775	-0.116183
C50	C	0.916710	0.175250	-0.058994
N51	N	0.984306	0.228163	-0.011538
N52	N	0.911562	0.247368	-0.062596
C53	C	0.647821	0.737769	-0.037065
C54	C	0.545968	0.737769	-0.037065
C55	C	0.503638	0.733657	-0.090168
C56	C	0.398368	0.733657	-0.090169
C57	C	1.248031	0.737769	-0.037066
C58	C	1.349884	0.737769	-0.037066
C59	C	0.959660	0.722104	-0.239411
C60	C	0.963642	0.716787	-0.308085
C61	C	0.932134	0.959049	-0.048182
C62	C	0.926774	1.034149	-0.051955
C63	C	0.903037	0.797647	-0.384202
C64	C	0.906794	0.792646	-0.448725
C65	C	0.971149	0.706784	-0.437131
C66	C	1.031761	0.625918	-0.361007
C67	C	1.028011	0.630920	-0.296484
C68	C	0.989072	0.682886	-0.625399
C69	C	0.992815	0.677890	-0.689929
C70	C	0.867849	0.844619	-0.777644
C71	C	0.864099	0.849613	-0.713116
C72	C	0.924715	0.768747	-0.636998
N73	N	0.974987	0.701670	-0.503084
N74	N	0.920883	0.773862	-0.571047
C75	C	0.936193	0.753434	0.165280
C76	C	0.932211	0.758750	0.233954
C77	C	1.263824	0.516488	-0.025949
C78	C	1.371036	0.441388	-0.022176
C79	C	0.951985	0.532153	0.176397
C80	C	0.953362	0.462369	0.248844
C81	C	1.252090	0.532153	0.176396
C82	C	1.355321	0.462369	0.248843
C83	C	0.643762	0.943384	-0.250527
C84	C	0.540532	1.013168	-0.322974
C85	C	0.632029	0.959049	-0.048182
C86	C	0.524816	1.034149	-0.051954
C87	C	0.943868	0.943384	-0.250528
C88	C	0.942490	1.013168	-0.322975
C89	C	1.365075	0.403060	-0.059923
C90	C	1.465803	0.332504	-0.056394
C91	C	1.572493	0.300272	-0.015113
C92	C	1.578452	0.338607	0.022635
C93	C	1.477724	0.409166	0.019101
C94	C	1.010319	0.432658	0.322384
C95	C	1.011608	0.367099	0.390462
C96	C	0.955946	0.331248	0.384997
C97	C	0.898982	0.360966	0.311449
C98	C	0.897687	0.426529	0.243373
C99	C	1.464701	0.426539	0.243353
C100	C	1.561706	0.360979	0.311418
C101	C	1.549328	0.331246	0.384973
C102	C	1.439935	0.367083	0.390461
C103	C	1.342933	0.432646	0.322397
C104	C	0.431150	1.049006	-0.317484
C105	C	0.334144	1.114588	-0.385550
C106	C	0.346522	1.144326	-0.459105
C107	C	0.455915	1.108484	-0.464593
C108	C	0.552918	1.042908	-0.396528
C109	C	0.530778	1.072484	-0.014215
C110	C	0.430049	1.143058	-0.017763
C111	C	0.323359	1.175292	-0.059046
C112	C	0.317400	1.136955	-0.096791
C113	C	0.418128	1.066386	-0.093247
C114	C	0.998163	1.048998	-0.317485
C115	C	0.996891	1.114559	-0.385550
C116	C	0.939938	1.144292	-0.459104
C117	C	0.884264	1.108455	-0.464592
C118	C	0.885544	1.042891	-0.396528
H119	H	0.764782	0.271741	-0.165629
C120	C	0.631980	1.085629	0.063535
C121	C	0.648043	1.037063	0.031168
H122	H	0.704373	1.063769	0.091547
H123	H	0.591064	1.076704	0.098217
H124	H	0.589624	1.149351	0.022787
H125	H	0.690392	0.973341	0.071916
H126	H	0.688977	1.045980	-0.003517
H127	H	1.121958	0.331788	0.085102
C128	C	1.121731	0.432146	0.407336
C129	C	1.071487	0.472071	0.328405
H130	H	1.159481	0.456487	0.411055
H131	H	1.175712	0.367357	0.434209
H132	H	1.064068	0.445534	0.430270
H133	H	1.129152	0.458678	0.305472
H134	H	1.017502	0.536875	0.301521
H135	H	0.818499	0.910455	-0.839624
H136	H	1.460929	0.301300	-0.087133
C137	C	0.150304	1.249482	-0.419102
C138	C	0.213910	1.153970	-0.379503
H139	H	0.076082	1.273790	-0.415362
H140	H	0.143782	1.276580	-0.472644
H141	H	0.187904	1.262849	-0.396143
H142	H	0.176314	1.140603	-0.402465
H143	H	0.220427	1.126863	-0.325950
C144	C	0.525855	1.180942	-0.555861
C145	C	0.469601	1.141041	-0.545419
H146	H	0.534322	1.201004	-0.605753
H147	H	0.599242	1.136784	-0.516084
H148	H	0.482137	1.232110	-0.552839
H149	H	0.513323	1.089868	-0.548434
H150	H	0.396202	1.185202	-0.585206
C151	C	0.191422	1.099932	-0.109629
C152	C	0.200121	1.172385	-0.142160
H153	H	0.119018	1.121804	-0.137638
H154	H	0.198786	1.076433	-0.056268
H155	H	0.250554	1.052428	-0.112934
H156	H	0.140994	1.219886	-0.138850
H157	H	0.192745	1.195897	-0.195535
H158	H	0.811697	0.919531	-0.722566
C159	C	0.479888	0.804895	-0.226759
C160	C	0.559912	0.728904	-0.151547
H161	H	0.514628	0.801955	-0.264651
H162	H	0.454241	0.859992	-0.231835
H163	H	0.416531	0.804264	-0.234801
H164	H	0.623265	0.729539	-0.143502
H165	H	0.585575	0.673793	-0.146468
H166	H	0.413258	1.035176	-0.123978
H167	H	0.837894	1.132674	-0.524490
H168	H	0.504278	0.741283	0.008401
C169	C	1.428756	0.545590	0.005413
C170	C	1.484286	0.451280	0.060609
H171	H	1.432819	0.571583	0.031043
H172	H	1.350808	0.574883	-0.019671
H173	H	1.464997	0.554262	-0.032558
H174	H	1.448039	0.442609	0.098577
H175	H	1.562248	0.421979	0.085706
H176	H	0.850624	0.867565	-0.393652
H177	H	1.654503	0.242817	-0.012240
C178	C	1.659261	0.181354	0.506893
C179	C	1.655957	0.259177	0.459790
H180	H	1.725088	0.136865	0.553082
H181	H	1.662600	0.155970	0.478865
H182	H	1.592341	0.198447	0.520687
H183	H	1.722874	0.242084	0.445991
H184	H	1.652628	0.284564	0.487823
H185	H	0.773904	0.143740	-0.159230
H186	H	0.857445	0.858491	-0.510701
H187	H	1.044541	1.024800	-0.257599
C188	C	1.178650	0.534241	-0.635036
C189	C	1.063566	0.583503	-0.677181
H190	H	1.222323	0.475976	-0.627172
H191	H	1.185088	0.525646	-0.585720
H192	H	1.206591	0.567687	-0.663641
H193	H	1.035622	0.550060	-0.648573
H194	H	1.057122	0.592094	-0.726505
C195	C	1.016244	0.542326	-0.530806
C196	C	1.055686	0.593990	-0.541741
H197	H	1.057365	0.487443	-0.479155
H198	H	1.027679	0.527082	-0.567582
H199	H	0.936940	0.577412	-0.538252
H200	H	1.134989	0.558907	-0.534301
H201	H	1.044260	0.609232	-0.504953
C202	C	0.254452	0.729819	-0.139665
C203	C	0.349221	0.728902	-0.151546
H204	H	0.224116	0.726876	-0.177555
H205	H	0.197517	0.784924	-0.144752
H206	H	0.277460	0.678267	-0.088633
H207	H	0.326211	0.780458	-0.202576
H208	H	0.406167	0.673790	-0.146466
H209	H	0.817133	0.537874	-0.128793
C210	C	0.473659	0.921199	-0.192188
C211	C	0.417517	1.016337	-0.236640
H212	H	0.465226	0.901041	-0.142283
H213	H	0.552683	0.890465	-0.185702
H214	H	0.441126	0.907573	-0.218429
H215	H	0.450056	1.029963	-0.210402
H216	H	0.338478	1.047081	-0.243124
H217	H	0.641980	1.013728	-0.401007
H218	H	0.851310	0.450711	0.183496
C219	C	1.010191	1.197591	-0.342032
C220	C	1.058077	1.153954	-0.379508
H221	H	1.047960	1.221916	-0.338306
H222	H	1.019103	1.154289	-0.290977
H223	H	0.931036	1.246173	-0.371405
H224	H	1.137230	1.105367	-0.350131
H225	H	1.049175	1.197260	-0.430571
C226	C	1.361931	0.409706	0.475915
C227	C	1.426349	0.334391	0.471319
H228	H	1.353556	0.389516	0.525837
H229	H	1.288506	0.453870	0.436179
H230	H	1.400057	0.436800	0.468857
H231	H	1.388219	0.307301	0.478372
H232	H	1.499788	0.290211	0.511067
C233	C	1.370095	0.524331	0.103912
C234	C	1.478326	0.459216	0.162506
H235	H	1.378517	0.544498	0.054003
H236	H	1.326392	0.575419	0.107029
H237	H	1.331984	0.497227	0.110960
H238	H	1.516434	0.486323	0.155461
H239	H	1.522047	0.408119	0.159387
C240	C	1.090565	-0.145959	0.062982
C241	C	1.103365	-0.088582	0.071968
H242	H	1.149274	-0.208440	0.104183
H243	H	1.095827	-0.136130	0.014063
H244	H	1.017917	-0.132228	0.064620
H245	H	1.176009	-0.102309	0.070324
H246	H	1.098113	-0.098417	0.120899
H247	H	0.434923	1.174261	0.012977
C248	C	0.178529	1.182279	-0.532182
C249	C	0.239887	1.216400	-0.533919
H250	H	0.112699	1.226772	-0.578369
H251	H	0.155514	1.169702	-0.487591
H252	H	0.225760	1.127228	-0.529420
H253	H	0.192658	1.271448	-0.536675
H254	H	0.262900	1.228989	-0.578522
C255	C	1.672310	0.361523	0.226437
C256	C	1.681942	0.321587	0.305373
H257	H	1.746537	0.337199	0.222706
H258	H	1.629155	0.426313	0.199566
H259	H	1.634720	0.348126	0.203509
H260	H	1.719525	0.334990	0.328299
H261	H	1.725114	0.256781	0.332254
C262	C	0.240421	1.279685	-0.021078
C263	C	0.212644	1.252856	-0.062930
H264	H	0.172072	1.327564	-0.023469
H265	H	0.283282	1.301174	-0.043401
H266	H	0.284734	1.228512	0.032025
H267	H	0.168338	1.304028	-0.116034
H268	H	0.169764	1.231370	-0.040609
H269	H	1.057999	0.342910	0.450341
C270	C	1.092929	0.544213	-0.420960
C271	C	1.102501	0.531535	-0.348256
H272	H	1.136596	0.485941	-0.413084
H273	H	1.120859	0.577654	-0.449581
H274	H	1.014840	0.577629	-0.449518
H275	H	1.180590	0.498124	-0.319700
H276	H	1.074577	0.498079	-0.319624
H277	H	0.938905	1.197680	-0.514521
H278	H	1.253874	0.461811	0.326878
H279	H	1.665332	0.312353	0.056245
C280	C	0.837407	0.939733	-0.327303
C281	C	0.824288	1.003547	-0.402571
H282	H	0.799580	0.915452	-0.331041
H283	H	0.804980	0.969337	-0.301878
H284	H	0.916560	0.891122	-0.297949
H285	H	0.745135	1.052162	-0.431924
H286	H	0.856710	0.973943	-0.428008
C287	C	0.726055	0.511722	-0.192730
C288	C	0.803064	0.416009	-0.138705
H289	H	0.670752	0.526326	-0.231535
H290	H	0.766532	0.534933	-0.216931
H291	H	0.688641	0.538817	-0.166362
H292	H	0.840485	0.388915	-0.165073
H293	H	0.762582	0.392788	-0.114503
C294	C	1.169789	-0.036194	0.118611
C295	C	1.092796	0.059519	0.064580
H296	H	1.225082	-0.050801	0.157426
H297	H	1.207209	-0.063295	0.092256
H298	H	1.129290	-0.059395	0.142805
H299	H	1.133295	0.082719	0.040382
H300	H	1.055373	0.086630	0.090939
H301	H	0.957010	0.277863	0.440435
C302	C	1.106339	0.136399	0.151679
C303	C	1.155743	0.177557	0.108790
H304	H	1.165051	0.073920	0.192883
H305	H	1.058543	0.139116	0.118124
H306	H	1.061932	0.168240	0.173127
H307	H	1.200143	0.145719	0.087337
H308	H	1.203559	0.174834	0.142351
C309	C	0.334048	0.746340	0.073406
C310	C	0.399018	0.742533	0.024309
H311	H	0.364382	0.749290	0.111291
H312	H	0.336828	0.692833	0.099174
H313	H	0.256875	0.799490	0.043050
H314	H	0.476191	0.689379	0.054665
H315	H	0.396250	0.796045	-0.001460
C316	C	1.151899	0.465615	-0.216260
C317	C	1.094624	0.542036	-0.212813
H318	H	1.193020	0.410742	-0.164603
H319	H	1.203777	0.467132	-0.243247
H320	H	1.097735	0.467138	-0.243256
H321	H	1.148788	0.540517	-0.185822
H322	H	1.042740	0.540519	-0.185814
H323	H	1.278212	0.429302	-0.093548
H324	H	0.853664	0.331766	0.307011
