data_functionalizedCrystal
_audit_creation_method	'MofGen! by Chris Wilmer'
_symmetry_space_group_name_H-M	'P1'
_symmetry_Int_Tables_number	1
_symmetry_cell_setting	triclinic
loop_
_symmetry_equiv_pos_as_xyz
  x,y,z
_cell_length_a	21.395364
_cell_length_b	21.395361
_cell_length_c	17.077395
_cell_angle_alpha	89.968008
_cell_angle_beta	89.984081
_cell_angle_gamma	90.029041
loop_
_atom_site_label
_atom_site_type_symbol
_atom_site_fract_x
_atom_site_fract_y
_atom_site_fract_z
Zn1	Zn	0.957805	-0.249474	-0.443822
Zn2	Zn	1.457805	0.250526	0.056178
Zn3	Zn	0.957723	-0.354253	-0.312546
Zn4	Zn	1.457723	0.145747	0.187454
Zn5	Zn	0.853036	-0.249490	-0.312570
Zn6	Zn	1.353036	0.250510	0.187430
Zn7	Zn	0.852989	-0.354215	-0.443768
Zn8	Zn	1.352989	0.145785	0.056232
O9	O	0.905388	-0.301858	-0.378177
O10	O	1.405388	0.198142	0.121823
O11	O	1.045472	-0.263383	-0.426421
O12	O	1.545472	0.236617	0.073579
O13	O	0.943822	-0.340379	-0.202702
O14	O	1.443822	0.159621	0.297298
O15	O	0.866987	-0.161810	-0.330013
O16	O	1.366987	0.338190	0.169987
O17	O	1.045412	-0.340363	-0.329972
O18	O	1.545412	0.159637	0.170028
O19	O	0.943960	-0.161798	-0.426444
O20	O	1.443960	0.338202	0.073556
O21	O	0.866908	-0.263410	-0.202720
O22	O	1.366908	0.236590	0.297280
O23	O	0.765352	-0.263373	-0.329961
O24	O	1.265352	0.236627	0.170039
O25	O	0.866907	-0.340298	-0.553623
O26	O	1.366907	0.159702	-0.053623
O27	O	0.765317	-0.340314	-0.426352
O28	O	1.265317	0.159686	0.073648
O29	O	0.943915	-0.263345	-0.553662
O30	O	1.443915	0.236655	-0.053662
O31	O	0.943776	-0.441926	-0.329920
O32	O	1.443776	0.058074	0.170080
O33	O	0.866828	-0.441898	-0.426329
O34	O	1.366828	0.058102	0.073671
C35	C	0.742600	-0.301841	-0.378154
C36	C	1.242600	0.198159	0.121846
C37	C	0.672959	-0.301849	-0.378163
C38	C	1.172959	0.198151	0.121837
C39	C	0.171161	-0.341995	-0.428319
C40	C	0.671161	0.158005	0.071681
C41	C	0.236597	-0.341995	-0.428311
C42	C	0.736597	0.158005	0.071689
C43	C	0.269321	-0.301872	-0.378201
C44	C	0.769321	0.198128	0.121799
C45	C	0.236604	-0.261757	-0.328082
C46	C	0.736604	0.238243	0.171918
C47	C	0.171170	-0.261763	-0.328087
C48	C	0.671170	0.238237	0.171913
C49	C	0.373010	-0.245408	-0.372127
C50	C	0.873010	0.254592	0.127873
C51	C	0.438443	-0.245401	-0.372129
C52	C	0.938443	0.254599	0.127871
C53	C	0.471142	-0.301855	-0.378184
C54	C	0.971142	0.198145	0.121816
C55	C	0.438399	-0.358318	-0.384255
C56	C	0.938399	0.141682	0.115745
C57	C	0.372965	-0.358323	-0.384259
C58	C	0.872965	0.141677	0.115741
C59	C	0.340273	-0.301862	-0.378191
C60	C	0.840273	0.198138	0.121809
C61	C	0.574803	-0.341971	-0.428287
C62	C	1.074803	0.158029	0.071713
C63	C	0.640240	-0.341972	-0.428273
C64	C	1.140240	0.158028	0.071727
C65	C	0.640246	-0.261729	-0.328049
C66	C	1.140246	0.238271	0.171951
C67	C	0.574810	-0.261733	-0.328059
C68	C	1.074810	0.238267	0.171941
C69	C	0.542093	-0.301853	-0.378182
C70	C	1.042093	0.198147	0.121818
C71	C	0.905305	-0.464646	-0.378133
C72	C	1.405305	0.035354	0.121867
C73	C	0.905327	-0.534287	-0.378140
C74	C	1.405327	-0.034287	0.121860
C75	C	0.945430	-0.566994	-0.327992
C76	C	1.445430	-0.066994	0.172008
C77	C	0.945459	-0.632429	-0.328009
C78	C	1.445459	-0.132429	0.171991
C79	C	0.905374	-0.665155	-0.378167
C80	C	1.405374	-0.165155	0.121833
C81	C	0.865269	-0.632440	-0.428326
C82	C	1.365269	-0.132440	0.071674
C83	C	0.865246	-0.567006	-0.428312
C84	C	1.365246	-0.067006	0.071688
C85	C	0.848959	-0.768868	-0.384319
C86	C	1.348959	-0.268868	0.115681
C87	C	0.848981	-0.834301	-0.384326
C88	C	1.348981	-0.334301	0.115674
C89	C	0.905447	-0.866976	-0.378213
C90	C	1.405447	-0.366976	0.121787
C91	C	0.961892	-0.834210	-0.372076
C92	C	1.461892	-0.334210	0.127924
C93	C	0.961869	-0.768776	-0.372062
C94	C	1.461869	-0.268776	0.127938
C95	C	0.905396	-0.736108	-0.378188
C96	C	1.405396	-0.236108	0.121812
C97	C	0.945585	-0.970636	-0.328081
C98	C	1.445585	-0.470636	0.171919
C99	C	0.945615	-1.036072	-0.328104
C100	C	1.445615	-0.536072	0.171896
C101	C	0.865420	-1.036082	-0.428417
C102	C	1.365420	-0.536082	0.071583
C103	C	0.865395	-0.970647	-0.428398
C104	C	1.365395	-0.470647	0.071602
C105	C	0.905477	-0.937927	-0.378226
C106	C	1.405477	-0.437927	0.121774
C107	C	1.068811	-0.301875	-0.378200
C108	C	1.568811	0.198125	0.121800
C109	C	1.138453	-0.301883	-0.378210
C110	C	1.638453	0.198117	0.121790
C111	C	0.905415	-0.301816	-0.582921
C112	C	1.405415	0.198184	-0.082921
C113	C	0.905426	-0.301797	-0.670171
C114	C	1.405426	0.198203	-0.170171
C115	C	0.905488	-0.138435	-0.378238
C116	C	1.405488	0.361565	0.121762
C117	C	0.905531	-0.068794	-0.378264
C118	C	1.405531	0.431206	0.121736
C119	C	0.945594	-0.261643	-1.046007
C120	C	1.445594	0.238357	-0.546007
C121	C	0.945581	-0.261665	-0.964027
C122	C	1.445581	0.238335	-0.464027
C123	C	0.905478	-0.301738	-0.923020
C124	C	1.405478	0.198262	-0.423020
C125	C	0.865390	-0.341796	-0.963998
C126	C	1.365390	0.158204	-0.463998
C127	C	0.865406	-0.341777	-1.045977
C128	C	1.365406	0.158223	-0.545977
C129	C	0.865357	-0.341833	-0.793128
C130	C	1.365357	0.158167	-0.293128
C131	C	0.865340	-0.341851	-0.711143
C132	C	1.365340	0.158149	-0.211143
C133	C	0.945532	-0.261721	-0.711178
C134	C	1.445532	0.238279	-0.211178
C135	C	0.945549	-0.261701	-0.793157
C136	C	1.445549	0.238299	-0.293157
C137	C	0.905459	-0.301759	-0.834129
C138	C	1.405459	0.198241	-0.334129
C139	C	0.905397	-0.301855	-0.174229
C140	C	1.405397	0.198145	0.325771
C141	C	0.905507	-0.301697	-0.086979
C142	C	1.405507	0.198303	0.413021
H143	H	0.346308	-0.404297	-0.389200
H144	H	0.846308	0.095703	0.110800
O145	O	0.542986	-0.380854	-0.477051
O146	O	1.042986	0.119146	0.022949
C147	C	0.469102	-0.389388	-0.582985
C148	C	0.969102	0.110612	-0.082985
C149	C	0.505107	-0.345283	-0.527822
C150	C	1.005107	0.154717	-0.027822
H151	H	0.438459	-0.360647	-0.624036
H152	H	0.938459	0.139353	-0.124036
H153	H	0.503692	-0.418053	-0.618855
H154	H	1.003692	0.081947	-0.118855
H155	H	0.438469	-0.422125	-0.546856
H156	H	0.938469	0.077875	-0.046856
H157	H	0.535741	-0.312508	-0.563890
H158	H	1.035741	0.187492	-0.063890
H159	H	0.470484	-0.316661	-0.491949
H160	H	0.970484	0.183339	0.008051
O161	O	0.671918	-0.380960	-0.477025
O162	O	1.171918	0.119040	0.022975
C163	C	0.665004	-0.460568	-0.576408
C164	C	1.165004	0.039432	-0.076408
C165	C	0.629050	-0.416435	-0.521250
C166	C	1.129050	0.083565	-0.021250
H167	H	0.630361	-0.489271	-0.612166
H168	H	1.130361	0.010729	-0.112166
H169	H	0.695648	-0.431869	-0.617564
H170	H	1.195648	0.068131	-0.117564
H171	H	0.695630	-0.493268	-0.540282
H172	H	1.195630	0.006732	-0.040282
H173	H	0.598390	-0.383727	-0.557313
H174	H	1.098390	0.116273	-0.057313
H175	H	0.598446	-0.445173	-0.480092
H176	H	1.098446	0.054827	0.019908
O177	O	0.984384	-0.222766	-0.671305
O178	O	1.484384	0.277234	-0.171305
C179	C	0.992822	-0.138148	-0.578843
C180	C	1.492822	0.361852	-0.078843
C181	C	0.948763	-0.182244	-0.623933
C182	C	1.448763	0.317756	-0.123933
H183	H	0.964039	-0.105366	-0.540545
H184	H	1.464039	0.394634	-0.040545
H185	H	1.025560	-0.166873	-0.540395
H186	H	1.525560	0.333127	-0.040395
H187	H	1.021488	-0.109531	-0.622260
H188	H	1.521488	0.390469	-0.122260
H189	H	0.920056	-0.210871	-0.580573
H190	H	1.420056	0.289129	-0.080573
H191	H	0.916066	-0.153484	-0.662394
H192	H	1.416066	0.346516	-0.162394
O193	O	0.984319	-0.664272	-0.279235
O194	O	1.484319	-0.164272	0.220765
C195	C	0.992786	-0.738153	-0.173219
C196	C	1.492786	-0.238153	0.326781
C197	C	0.948713	-0.702149	-0.228430
C198	C	1.448713	-0.202149	0.271570
H199	H	0.964016	-0.768775	-0.132119
H200	H	1.464016	-0.268775	0.367881
H201	H	1.025540	-0.768790	-0.209232
H202	H	1.525540	-0.268790	0.290768
H203	H	1.021434	-0.703508	-0.137396
H204	H	1.521434	-0.203508	0.362604
H205	H	0.920024	-0.736750	-0.264265
H206	H	1.420024	-0.236750	0.235735
H207	H	0.916000	-0.671503	-0.192372
H208	H	1.416000	-0.171503	0.307628
H209	H	0.666889	-0.229062	-0.287247
H210	H	1.166889	0.270938	0.212753
O211	O	0.984684	-1.067749	-0.279428
O212	O	1.484684	-0.567749	0.220572
C213	C	1.091315	-1.087634	-0.241514
C214	C	1.591315	-0.587634	0.258486
C215	C	1.047123	-1.051729	-0.296675
C216	C	1.547123	-0.551729	0.203325
H217	H	1.141806	-1.074706	-0.255449
H218	H	1.641806	-0.574706	0.244551
H219	H	1.080397	-1.074793	-0.178192
H220	H	1.580397	-0.574793	0.321808
H221	H	1.084454	-1.140027	-0.250099
H222	H	1.584454	-0.640027	0.249901
H223	H	1.053959	-0.999327	-0.288159
H224	H	1.553959	-0.499327	0.211841
H225	H	1.058052	-1.064622	-0.359977
H226	H	1.558052	-0.564622	0.140023
O227	O	0.984609	-0.222695	-1.085717
O228	O	1.484609	0.277305	-0.585717
C229	C	1.064123	-0.143195	-1.077089
C230	C	1.564123	0.356805	-0.577089
C231	C	1.019978	-0.187281	-1.032024
C232	C	1.519978	0.312719	-0.532024
H233	H	1.092720	-0.114542	-1.033698
H234	H	1.592720	0.385458	-0.533698
H235	H	1.096915	-0.171926	-1.115440
H236	H	1.596915	0.328074	-0.615440
H237	H	1.035377	-0.110446	-1.115500
H238	H	1.535377	0.389554	-0.615500
H239	H	1.048673	-0.220039	-0.993571
H240	H	1.548673	0.279961	-0.493571
H241	H	0.987184	-0.158511	-0.993723
H242	H	1.487184	0.341489	-0.493723
H243	H	0.144539	-0.229097	-0.287281
H244	H	0.644539	0.270903	0.212719
H245	H	0.548178	-0.229068	-0.287257
H246	H	1.048178	0.270932	0.212743
H247	H	0.832589	-0.540376	-0.469150
H248	H	1.332589	-0.040376	0.030850
H249	H	0.978068	-0.540356	-0.287141
H250	H	1.478068	-0.040356	0.212859
O251	O	0.826475	-0.380881	-0.671329
O252	O	1.326475	0.119119	-0.171329
C253	C	0.796031	-0.487474	-0.646213
C254	C	1.296031	0.012526	-0.146213
C255	C	0.840082	-0.443337	-0.691346
C256	C	1.340082	0.056663	-0.191346
H257	H	0.807008	-0.537978	-0.662393
H258	H	1.307008	-0.037978	-0.162393
H259	H	0.802926	-0.480652	-0.580578
H260	H	1.302926	0.019348	-0.080578
H261	H	0.745512	-0.476458	-0.662297
H262	H	1.245512	0.023542	-0.162297
H263	H	0.890618	-0.454325	-0.675327
H264	H	1.390618	0.045675	-0.175327
H265	H	0.833132	-0.450166	-0.756970
H266	H	1.333132	0.049834	-0.256970
H267	H	0.346393	-0.199433	-0.367183
H268	H	0.846393	0.300567	0.132817
O269	O	0.826503	-0.380809	-0.832965
O270	O	1.326503	0.119191	-0.332965
C271	C	0.818028	-0.465349	-0.925533
C272	C	1.318028	0.034651	-0.425533
C273	C	0.862103	-0.421263	-0.880452
C274	C	1.362103	0.078737	-0.380452
H275	H	0.846793	-0.498058	-0.963950
H276	H	1.346793	0.001942	-0.463950
H277	H	0.789370	-0.494038	-0.882181
H278	H	1.289370	0.005962	-0.382181
H279	H	0.785283	-0.436552	-0.963886
H280	H	1.285283	0.063448	-0.463886
H281	H	0.894886	-0.450012	-0.842099
H282	H	1.394886	0.049988	-0.342099
H283	H	0.890717	-0.392572	-0.923847
H284	H	1.390717	0.107428	-0.423847
O285	O	0.826495	-0.380771	-1.085693
O286	O	1.326495	0.119229	-0.585693
C287	C	0.796045	-0.487342	-1.110774
C288	C	1.296045	0.012658	-0.610774
C289	C	0.840139	-0.443247	-1.065735
C290	C	1.340139	0.056753	-0.565735
H291	H	0.807068	-0.537863	-1.094667
H292	H	1.307068	-0.037863	-0.594667
H293	H	0.745517	-0.476388	-1.094644
H294	H	1.245517	0.023612	-0.594644
H295	H	0.802936	-0.480414	-1.176406
H296	H	1.302936	0.019586	-0.676406
H297	H	0.833304	-0.450150	-1.000092
H298	H	1.333304	0.049850	-0.500092
H299	H	0.890651	-0.454211	-1.081930
H300	H	1.390651	0.045789	-0.581930
H301	H	0.263234	-0.374658	-0.469118
H302	H	0.763234	0.125342	0.030882
H303	H	0.832740	-0.374427	-0.930603
H304	H	1.332740	0.125573	-0.430603
H305	H	1.007873	-0.860813	-0.367098
H306	H	1.507873	-0.360813	0.132902
O307	O	0.470056	-0.413217	-0.390173
O308	O	0.970056	0.086783	0.109827
C309	C	0.463102	-0.525219	-0.402144
C310	C	0.963102	-0.025219	0.097856
C311	C	0.427170	-0.463094	-0.395464
C312	C	0.927170	0.036906	0.104536
H313	H	0.428444	-0.565562	-0.406408
H314	H	0.928444	-0.065562	0.093592
H315	H	0.493738	-0.524346	-0.456765
H316	H	0.993738	-0.024346	0.043235
H317	H	0.493732	-0.531742	-0.348145
H318	H	0.993732	-0.031742	0.151855
H319	H	0.396505	-0.456532	-0.449423
H320	H	0.896505	0.043468	0.050577
H321	H	0.396572	-0.463995	-0.340811
H322	H	0.896572	0.036005	0.159189
H323	H	0.465098	-0.199425	-0.367195
H324	H	0.965098	0.300575	0.132805
O325	O	0.984422	-0.222705	-0.924154
O326	O	1.484422	0.277295	-0.424154
C327	C	0.992848	-0.138078	-0.831704
C328	C	1.492848	0.361922	-0.331704
C329	C	0.948795	-0.182184	-0.876788
C330	C	1.448795	0.317816	-0.376788
H331	H	0.964061	-0.105297	-0.793410
H332	H	1.464061	0.394703	-0.293410
H333	H	1.025590	-0.166794	-0.793251
H334	H	1.525590	0.333206	-0.293251
H335	H	1.021510	-0.109460	-0.875124
H336	H	1.521510	0.390540	-0.375124
H337	H	0.920092	-0.210811	-0.833424
H338	H	1.420092	0.289189	-0.333424
H339	H	0.916094	-0.153432	-0.915252
H340	H	1.416094	0.346568	-0.415252
H341	H	0.978201	-0.229068	-0.826542
H342	H	1.478201	0.270932	-0.326542
H343	H	0.263252	-0.229090	-0.287282
H344	H	0.763252	0.270910	0.212718
H345	H	0.144527	-0.374666	-0.469130
H346	H	0.644527	0.125334	0.030870
H347	H	1.007828	-0.742100	-0.367067
H348	H	1.507828	-0.242100	0.132933
H349	H	0.978223	-0.943994	-0.287230
H350	H	1.478223	-0.443994	0.212770
O351	O	0.826570	-1.067932	-0.477182
O352	O	1.326570	-0.567932	0.022818
C353	C	0.818119	-1.141720	-0.583207
C354	C	1.318119	-0.641720	-0.083207
C355	C	0.862185	-1.105698	-0.528011
C356	C	1.362185	-0.605698	-0.028011
H357	H	0.846897	-1.172253	-0.624327
H358	H	1.346897	-0.672253	-0.124327
H359	H	0.785396	-1.172449	-0.547183
H360	H	1.285396	-0.672449	-0.047183
H361	H	0.789436	-1.107087	-0.619009
H362	H	1.289436	-0.607087	-0.119009
H363	H	0.890908	-1.140286	-0.492197
H364	H	1.390908	-0.640286	0.007803
H365	H	0.894866	-1.074960	-0.564079
H366	H	1.394866	-0.574960	-0.064079
O367	O	0.826374	-0.938968	-0.477130
O368	O	1.326374	-0.438968	0.022870
C369	C	0.746859	-0.945885	-0.576655
C370	C	1.246859	-0.445885	-0.076655
C371	C	0.791009	-0.981838	-0.521489
C372	C	1.291009	-0.481838	-0.021489
H373	H	0.718265	-0.980530	-0.612546
H374	H	1.218265	-0.480530	-0.112546
H375	H	0.714064	-0.915319	-0.540607
H376	H	1.214064	-0.415319	-0.040607
H377	H	0.775601	-0.915184	-0.617694
H378	H	1.275601	-0.415184	-0.117694
H379	H	0.762318	-1.012574	-0.480439
H380	H	1.262318	-0.512574	0.019561
H381	H	0.823806	-1.012366	-0.557587
H382	H	1.323806	-0.512366	-0.057587
H383	H	0.802974	-0.742270	-0.389300
H384	H	1.302974	-0.242270	0.110700
O385	O	0.794100	-0.866030	-0.390326
O386	O	1.294100	-0.366030	0.109674
C387	C	0.682103	-0.859213	-0.402438
C388	C	1.182103	-0.359213	0.097562
C389	C	0.744213	-0.823204	-0.395667
C390	C	1.244213	-0.323204	0.104333
H391	H	0.641752	-0.824604	-0.406741
H392	H	1.141752	-0.324604	0.093259
H393	H	0.683017	-0.889800	-0.457067
H394	H	1.183017	-0.389800	0.042933
H395	H	0.675558	-0.889899	-0.348457
H396	H	1.175558	-0.389899	0.151543
H397	H	0.750797	-0.792484	-0.449607
H398	H	1.250797	-0.292484	0.050393
H399	H	0.743270	-0.792657	-0.341005
H400	H	1.243270	-0.292657	0.158995
O401	O	0.826418	-0.664296	-0.477087
O402	O	1.326418	-0.164296	0.022913
C403	C	0.817963	-0.738093	-0.583102
C404	C	1.317963	-0.238093	-0.083102
C405	C	0.862031	-0.702068	-0.527912
C406	C	1.362031	-0.202068	-0.027912
H407	H	0.846740	-0.768630	-0.624219
H408	H	1.346740	-0.268630	-0.124219
H409	H	0.785240	-0.768818	-0.547074
H410	H	1.285240	-0.268818	-0.047074
H411	H	0.789282	-0.703462	-0.618908
H412	H	1.289282	-0.203462	-0.118908
H413	H	0.890754	-0.736654	-0.492094
H414	H	1.390754	-0.236654	0.007906
H415	H	0.894713	-0.671334	-0.563985
H416	H	1.394713	-0.171334	-0.063985
