data_functionalizedCrystal
_audit_creation_method	'MofGen! by Chris Wilmer'
_symmetry_space_group_name_H-M	'P1'
_symmetry_Int_Tables_number	1
_symmetry_cell_setting	triclinic
loop_
_symmetry_equiv_pos_as_xyz
  x,y,z
_cell_length_a	17.640112
_cell_length_b	21.395363
_cell_length_c	21.395355
_cell_angle_alpha	89.996048
_cell_angle_beta	101.169017
_cell_angle_gamma	101.224970
loop_
_atom_site_label
_atom_site_type_symbol
_atom_site_fract_x
_atom_site_fract_y
_atom_site_fract_z
Zn1	Zn	1.208374	-0.055622	-0.160944
Zn2	Zn	1.208317	-0.160391	-0.056202
Zn3	Zn	1.076201	-0.076830	-0.077333
Zn4	Zn	1.076228	-0.181569	-0.182081
O5	O	1.142280	-0.118603	-0.119140
O6	O	1.318961	-0.051781	-0.129360
O7	O	1.190757	-0.149319	0.028667
O8	O	1.093747	0.013664	-0.088421
O9	O	1.318919	-0.128754	-0.052407
O10	O	1.190854	0.029245	-0.149850
O11	O	1.093692	-0.087927	0.013143
O12	O	0.965611	-0.108462	-0.108917
O13	O	1.093793	-0.164849	-0.266949
O14	O	0.965630	-0.185414	-0.185875
O15	O	1.190880	-0.072316	-0.251420
O16	O	1.190783	-0.250880	-0.072903
O17	O	1.093738	-0.266439	-0.165385
C18	C	0.936945	-0.151538	-0.151983
C19	C	0.849101	-0.165643	-0.166048
C20	C	1.142278	-0.281391	-0.119155
C21	C	1.142350	-0.351020	-0.119171
C22	C	1.142346	-0.118579	-0.282553
C23	C	1.142374	-0.118570	-0.352189
C24	C	0.560033	-0.011439	-0.012292
C25	C	0.477491	-0.024705	-0.025517
C26	C	0.477566	-0.104945	-0.105515
C27	C	0.560110	-0.091683	-0.092299
C28	C	0.601337	-0.044930	-0.045687
C29	C	0.601414	-0.125174	-0.125694
C30	C	0.683951	-0.111915	-0.112476
C31	C	0.725183	-0.065166	-0.065864
C32	C	0.683874	-0.031671	-0.032469
C33	C	0.560185	-0.171930	-0.172303
C34	C	0.601489	-0.205421	-0.205698
C35	C	0.684027	-0.192160	-0.192483
C36	C	0.725260	-0.145410	-0.145871
C37	C	0.725337	-0.225654	-0.225879
C38	C	0.807874	-0.212396	-0.212661
C39	C	0.807797	-0.132152	-0.132654
C40	C	1.348418	-0.085539	-0.086169
C41	C	1.436262	-0.071450	-0.072118
C42	C	1.142304	0.044824	-0.119135
C43	C	1.142314	0.114467	-0.119132
C44	C	1.091765	0.139070	-0.087149
C45	C	1.091764	0.204506	-0.087157
C46	C	1.142326	0.245338	-0.119139
C47	C	1.192879	0.220727	-0.151129
C48	C	1.192873	0.155292	-0.151126
C49	C	1.213542	0.360430	-0.112700
C50	C	1.213549	0.425864	-0.112698
C51	C	1.142345	0.447161	-0.119152
C52	C	1.071130	0.403016	-0.125595
C53	C	1.071124	0.337581	-0.125591
C54	C	1.142338	0.316292	-0.119146
C55	C	1.091790	0.542716	-0.087176
C56	C	1.091788	0.608152	-0.087188
C57	C	1.192910	0.624374	-0.151156
C58	C	1.192905	0.558937	-0.151148
C59	C	1.142346	0.518113	-0.119154
C60	C	1.192925	-0.070386	-0.376818
C61	C	1.192924	-0.070360	-0.442253
C62	C	1.142380	-0.118526	-0.483057
C63	C	1.091819	-0.166713	-0.458422
C64	C	1.091816	-0.166735	-0.392988
C65	C	1.136139	-0.175943	-0.587735
C66	C	1.136148	-0.175921	-0.653167
C67	C	1.142385	-0.118459	-0.684877
C68	C	1.148630	-0.061014	-0.651144
C69	C	1.148627	-0.061036	-0.585711
C70	C	1.142377	-0.118507	-0.554010
C71	C	1.192938	-0.070243	-0.780457
C72	C	1.192931	-0.070216	-0.845895
C73	C	1.091830	-0.166575	-0.862062
C74	C	1.091833	-0.166597	-0.796626
C75	C	1.142391	-0.118431	-0.755827
C76	C	1.142261	-0.118573	0.043645
C77	C	1.142386	-0.118382	0.113306
H78	H	0.841367	-0.094071	-0.094706
H79	H	0.443864	0.002576	0.001676
Cl80	Cl	0.859803	-0.254501	-0.254641
Cl81	Cl	1.028275	-0.227263	-0.509717
H82	H	1.234100	-0.031021	-0.747238
H83	H	1.234094	-0.030976	-0.865946
Cl84	Cl	0.425730	-0.163725	-0.164105
H85	H	1.050594	0.105834	-0.061099
Cl86	Cl	1.028217	0.235444	-0.046941
H87	H	0.691757	-0.263725	-0.263826
H88	H	1.050669	-0.205788	-0.895285
Cl89	Cl	1.256425	0.124361	-0.191337
Cl90	Cl	0.456423	-0.188606	-0.188912
H91	H	0.792390	-0.054373	-0.055102
H92	H	1.153710	-0.014223	-0.676961
Cl93	Cl	1.256479	-0.009832	-0.325532
Cl94	Cl	0.549653	-0.264202	-0.264287
Cl95	Cl	0.735709	0.027110	0.026127
H96	H	1.153710	-0.014263	-0.558249
H97	H	1.050648	-0.205972	-0.372938
H98	H	0.593603	0.026642	0.025655
Cl99	Cl	1.028225	0.639080	-0.046986
H100	H	1.050673	-0.205836	-0.776574
H101	H	1.013139	0.301640	-0.130839
H102	H	1.013150	0.420355	-0.130849
Cl103	Cl	1.028229	0.491391	-0.046960
Cl104	Cl	1.256473	0.675699	-0.191364
H105	H	1.234072	0.538907	-0.177188
H106	H	1.271535	0.461804	-0.107449
Cl107	Cl	1.303065	0.333664	-0.104585
H108	H	1.234046	0.253975	-0.177171
H109	H	1.234087	-0.031120	-0.462310
H110	H	1.131067	-0.222695	-0.680626
Cl111	Cl	1.128321	-0.248186	-0.547875
