data_functionalizedCrystal
_audit_creation_method	'MofGen! by Chris Wilmer'
_symmetry_space_group_name_H-M	'P1'
_symmetry_Int_Tables_number	1
_symmetry_cell_setting	triclinic
loop_
_symmetry_equiv_pos_as_xyz
  x,y,z
_cell_length_a	13.339070
_cell_length_b	10.654550
_cell_length_c	9.130313
_cell_angle_alpha	89.996938
_cell_angle_beta	89.997670
_cell_angle_gamma	100.057099
loop_
_atom_site_label
_atom_site_type_symbol
_atom_site_fract_x
_atom_site_fract_y
_atom_site_fract_z
O1	O	-1.346707	-0.631120	0.121838
O2	O	-1.051599	-0.548281	0.121831
O3	O	-1.205938	-0.409253	0.121829
O4	O	-1.192368	-0.770149	0.121840
O5	O	-1.205932	-0.409245	-0.121769
O6	O	-1.051592	-0.548274	-0.121768
O7	O	-1.346701	-0.631113	-0.121761
Cu8	Cu	-1.199146	-0.589693	-0.144007
Cu9	Cu	-1.199153	-0.589701	0.144077
O10	O	-1.192362	-0.770142	-0.121759
C11	C	-1.013808	-0.534285	0.000031
C12	C	-0.901214	-0.492575	0.000028
C13	C	-1.204938	-0.362115	0.000032
C14	C	-1.201957	-0.221665	0.000037
C15	C	-1.384491	-0.645109	0.000043
C16	C	-1.497086	-0.686819	0.000055
C17	C	-0.538696	-0.816889	0.000061
C18	C	-0.644484	-0.856082	0.000068
C19	C	-0.708671	-0.765208	0.000058
C20	C	-0.667061	-0.635136	0.000041
C21	C	-0.561263	-0.595939	0.000046
C22	C	-0.731238	-0.544258	0.000042
C23	C	-0.689628	-0.414186	0.000026
C24	C	-0.583840	-0.374996	0.000029
C25	C	-0.519653	-0.465870	0.000040
C26	C	-0.837036	-0.583455	0.000038
C27	C	-0.859603	-0.362505	0.000022
C28	C	-0.753815	-0.323313	0.000015
C29	C	-1.193361	-0.817280	0.000042
C30	C	-1.196342	-0.957730	0.000047
N31	N	-1.199148	-0.589689	-0.346629
C32	C	-1.292830	-0.172863	0.000035
C33	C	-1.290023	-0.040894	0.000045
C34	C	-1.105463	-0.006540	0.000053
C35	C	-1.108271	-0.138506	0.000054
C36	C	-1.399384	-0.192696	0.000023
C37	C	-1.396577	-0.060727	0.000033
C38	C	-1.137120	-0.491861	-0.423309
C39	C	-1.137123	-0.491868	-0.576645
C40	C	-1.261189	-0.687536	-0.576610
C41	C	-1.261181	-0.687533	-0.423276
C42	C	-1.065495	-0.378891	-0.423330
C43	C	-1.065497	-0.378898	-0.576667
N44	N	-1.199159	-0.589698	0.346700
H45	H	-0.870905	-0.689361	0.000045
H46	H	-1.436723	-0.032520	-0.101909
H47	H	-1.311682	-0.767201	-0.360849
H48	H	-1.433312	-0.239776	-0.105157
H49	H	-0.911865	-0.288508	0.000020
H50	H	-0.719921	-0.217405	0.000014
Cl51	Cl	-0.994026	-0.199853	0.000093
H52	H	-1.311693	-0.767198	-0.639034
Cl53	Cl	-0.386656	-0.416604	0.000028
Cl54	Cl	-0.947585	-0.400016	-0.650120
H55	H	-0.486426	-0.890864	0.000082
Cl56	Cl	-1.463732	-0.259763	0.157405
Cl57	Cl	-0.531532	-0.211476	0.000058
H58	H	-1.029186	0.061183	0.000068
Cl59	Cl	-1.104073	-0.239024	-0.640935
H60	H	-1.428782	-0.025960	0.105213
Cl61	Cl	-0.942011	-0.384854	-0.359095
H62	H	-1.097414	-0.295107	-0.375771
H63	H	-0.794808	-0.797127	0.000067
H64	H	-0.678355	-0.961986	0.000093
