data_functionalizedCrystal
_audit_creation_method	'MofGen! by Chris Wilmer'
_symmetry_space_group_name_H-M	'P1'
_symmetry_Int_Tables_number	1
_symmetry_cell_setting	triclinic
loop_
_symmetry_equiv_pos_as_xyz
  x,y,z
_cell_length_a	21.395364
_cell_length_b	19.805405
_cell_length_c	21.395356
_cell_angle_alpha	89.972988
_cell_angle_beta	89.983440
_cell_angle_gamma	90.024743
loop_
_atom_site_label
_atom_site_type_symbol
_atom_site_fract_x
_atom_site_fract_y
_atom_site_fract_z
Zn1	Zn	0.957827	-0.269524	-0.354258
Zn2	Zn	0.957753	-0.382708	-0.249478
Zn3	Zn	0.853057	-0.269535	-0.249495
Zn4	Zn	0.853019	-0.382673	-0.354218
O5	O	0.905414	-0.326110	-0.301862
O6	O	1.045495	-0.284548	-0.340369
O7	O	0.943849	-0.367715	-0.161802
O8	O	0.867002	-0.174817	-0.263415
O9	O	1.045440	-0.367704	-0.263387
O10	O	0.943976	-0.174809	-0.340385
O11	O	0.866930	-0.284567	-0.161815
O12	O	0.765374	-0.284533	-0.263377
O13	O	0.866938	-0.367645	-0.441901
O14	O	0.765346	-0.367655	-0.340316
O15	O	0.943940	-0.284515	-0.441931
O16	O	0.943812	-0.477420	-0.263349
O17	O	0.866865	-0.477395	-0.340300
C18	C	0.742626	-0.326092	-0.301844
C19	C	0.672985	-0.326101	-0.301851
C20	C	0.171191	-0.369471	-0.341886
C21	C	0.236626	-0.369471	-0.341880
C22	C	0.269347	-0.326125	-0.301882
C23	C	0.236627	-0.282788	-0.261877
C24	C	0.171192	-0.282793	-0.261880
C25	C	0.373032	-0.265127	-0.297032
C26	C	0.438465	-0.265120	-0.297033
C27	C	0.471168	-0.326107	-0.301868
C28	C	0.438429	-0.387103	-0.306715
C29	C	0.372995	-0.387109	-0.306719
C30	C	0.340299	-0.326114	-0.301874
C31	C	0.574833	-0.369445	-0.341861
C32	C	0.640269	-0.369447	-0.341850
C33	C	0.640268	-0.282757	-0.261851
C34	C	0.574833	-0.282762	-0.261858
C35	C	0.542119	-0.326105	-0.301867
C36	C	0.905344	-0.501966	-0.301832
C37	C	0.905371	-0.577198	-0.301840
C38	C	0.945476	-0.612533	-0.261813
C39	C	0.945503	-0.683222	-0.261827
C40	C	0.905420	-0.718574	-0.301865
C41	C	0.865313	-0.683234	-0.341896
C42	C	0.865290	-0.612547	-0.341885
C43	C	0.865406	-0.968307	-0.341943
C44	C	0.865430	-1.038999	-0.341949
C45	C	0.945618	-1.038982	-0.261885
C46	C	0.945595	-0.968295	-0.261873
C47	C	0.905491	-0.932961	-0.301907
C48	C	0.905463	-0.856313	-0.301892
C49	C	0.905444	-0.795221	-0.301877
C50	C	1.068837	-0.326129	-0.301881
C51	C	1.138479	-0.326137	-0.301889
C52	C	0.905443	-0.326075	-0.465286
C53	C	0.905455	-0.326059	-0.534927
C54	C	0.905502	-0.149567	-0.301906
C55	C	0.905539	-0.074335	-0.301925
C56	C	0.945577	-0.369213	-1.036718
C57	C	0.945566	-0.369234	-0.971282
C58	C	0.905515	-0.325952	-0.938565
C59	C	0.865460	-0.282658	-0.971290
C60	C	0.865468	-0.282642	-1.036724
C61	C	0.900585	-0.264995	-0.834912
C62	C	0.900581	-0.265009	-0.769479
C63	C	0.905487	-0.326000	-0.736745
C64	C	0.910408	-0.386979	-0.769452
C65	C	0.910416	-0.386963	-0.834886
C66	C	0.905501	-0.325964	-0.867613
C67	C	0.945523	-0.369318	-0.633076
C68	C	0.945507	-0.369341	-0.567639
C69	C	0.865405	-0.282759	-0.567648
C70	C	0.865418	-0.282742	-0.633083
C71	C	0.905480	-0.326021	-0.665793
C72	C	0.905422	-0.326097	-0.139075
C73	C	0.905531	-0.325921	-0.069434
H74	H	0.144558	-0.247503	-0.229309
H75	H	0.978231	-0.939513	-0.229269
O76	O	0.826440	-0.240692	-0.535972
C77	C	0.791109	-0.202462	-0.578884
H78	H	0.788933	-0.230173	-0.625521
H79	H	0.741744	-0.195242	-0.559973
H80	H	0.814078	-0.151056	-0.585858
O81	O	0.826563	-1.073311	-0.380939
C82	C	0.840207	-1.055975	-0.443394
H83	H	0.890252	-1.036497	-0.446596
H84	H	0.834811	-1.102448	-0.474348
H85	H	0.806592	-1.014964	-0.459741
H86	H	0.144559	-0.404767	-0.374462
O87	O	0.826300	-0.578147	-0.380680
C88	C	0.785830	-0.537328	-0.344969
H89	H	0.807952	-0.526750	-0.297505
H90	H	0.777402	-0.487612	-0.370477
H91	H	0.739411	-0.564614	-0.338047
H92	H	0.978115	-0.404600	-0.541003
H93	H	0.978186	-0.404479	-0.944639
O94	O	0.895842	-0.205681	-0.866609
C95	C	0.891488	-0.151867	-0.823713
H96	H	0.912528	-0.167904	-0.777068
H97	H	0.918122	-0.106372	-0.842634
H98	H	0.840292	-0.137810	-0.816748
H99	H	0.978275	-1.067759	-0.229290
H100	H	0.914404	-0.436643	-0.742801
O101	O	0.826533	-0.933963	-0.380893
C102	C	0.862158	-0.893005	-0.421383
H103	H	0.911512	-0.914257	-0.425303
H104	H	0.839463	-0.892198	-0.469579
H105	H	0.864307	-0.839441	-0.402011
H106	H	0.914422	-0.436614	-0.861513
H107	H	0.346411	-0.215462	-0.293085
O108	O	0.826548	-0.240521	-1.068411
C109	C	0.791180	-0.202336	-1.025506
H110	H	0.816835	-0.200006	-0.978866
H111	H	0.784523	-0.149002	-1.044423
H112	H	0.743582	-0.227122	-1.018537
O113	O	0.268478	-0.240775	-0.222993
C114	C	0.306292	-0.279252	-0.182453
H115	H	0.316084	-0.330576	-0.204468
H116	H	0.352312	-0.251667	-0.174101
H117	H	0.281058	-0.286627	-0.136010
H118	H	0.832810	-0.247487	-0.659721
O119	O	0.984611	-0.717525	-0.223080
C120	C	1.025058	-0.758292	-0.258868
H121	H	1.028759	-0.736952	-0.308225
H122	H	1.073336	-0.758971	-0.236345
H123	H	1.005788	-0.811918	-0.260973
H124	H	0.832680	-0.712023	-0.374499
O125	O	0.984507	-0.411321	-1.068394
C126	C	1.019862	-0.449525	-1.025480
H127	H	0.994192	-0.451875	-0.978831
H128	H	1.026523	-0.502851	-1.044372
H129	H	1.067458	-0.424743	-1.018537
H130	H	0.548198	-0.247472	-0.229290
H131	H	0.666903	-0.404740	-0.374419
O132	O	0.984453	-0.411426	-0.664758
C133	C	1.019804	-0.449635	-0.621846
H134	H	0.994132	-0.451990	-0.575199
H135	H	1.026466	-0.502959	-0.640743
H136	H	1.067400	-0.424855	-0.614898
H137	H	0.263266	-0.404759	-0.374452
H138	H	0.896577	-0.215357	-0.742854
O139	O	0.826525	-0.240707	-0.939442
C140	C	0.786027	-0.279250	-0.901586
H141	H	0.808102	-0.330548	-0.891776
H142	H	0.777638	-0.251691	-0.855578
H143	H	0.739594	-0.286680	-0.926793
H144	H	0.465054	-0.436764	-0.310657
O145	O	0.341290	-0.446418	-0.311398
C146	C	0.384178	-0.500248	-0.315682
H147	H	0.430822	-0.484192	-0.294655
H148	H	0.365246	-0.545702	-0.288994
H149	H	0.391147	-0.514377	-0.366859
H150	H	0.666909	-0.247466	-0.229282
O151	O	0.543147	-0.411610	-0.380744
C152	C	0.586055	-0.449849	-0.416056
H153	H	0.632686	-0.452162	-0.390382
H154	H	0.567129	-0.503185	-0.422662
H155	H	0.593046	-0.425123	-0.463678
H156	H	0.465116	-0.215454	-0.293094
O157	O	0.984470	-0.578300	-0.222898
C158	C	1.019862	-0.624649	-0.187561
H159	H	1.022032	-0.675017	-0.213236
H160	H	1.069225	-0.604188	-0.180918
H161	H	0.996949	-0.632221	-0.139957
