data_functionalizedCrystal
_audit_creation_method	'MofGen! by Chris Wilmer'
_symmetry_space_group_name_H-M	'P1'
_symmetry_Int_Tables_number	1
_symmetry_cell_setting	triclinic
loop_
_symmetry_equiv_pos_as_xyz
  x,y,z
_cell_length_a	12.759401
_cell_length_b	15.297327
_cell_length_c	12.759393
_cell_angle_alpha	80.357592
_cell_angle_beta	90.017176
_cell_angle_gamma	99.706546
loop_
_atom_site_label
_atom_site_type_symbol
_atom_site_fract_x
_atom_site_fract_y
_atom_site_fract_z
Zn1	Zn	1.533782	-0.359112	0.666298
Zn2	Zn	1.503235	-0.509997	0.521003
Zn3	Zn	1.358079	-0.359156	0.490647
Zn4	Zn	1.327641	-0.509930	0.696631
O5	O	1.430684	-0.434549	0.593645
O6	O	1.676749	-0.379136	0.647035
O7	O	1.483934	-0.490034	0.369965
O8	O	1.406908	-0.232905	0.488549
O9	O	1.654306	-0.489991	0.540287
O10	O	1.535997	-0.232872	0.617599
O11	O	1.377289	-0.379213	0.347662
O12	O	1.207022	-0.379148	0.517961
O13	O	1.355031	-0.489877	0.839619
O14	O	1.184659	-0.489920	0.669297
O15	O	1.506482	-0.379071	0.817334
O16	O	1.454420	-0.636233	0.569700
O17	O	1.325412	-0.636184	0.698733
C18	C	1.157720	-0.434532	0.593627
C19	C	1.040941	-0.434547	0.593649
C20	C	0.974443	-0.492318	0.672357
C21	C	0.864717	-0.492330	0.672371
C22	C	0.887995	-0.376795	0.514959
C23	C	0.997720	-0.376780	0.514951
C24	C	1.017663	-0.550085	0.751056
C25	C	0.951165	-0.607862	0.829770
C26	C	0.841438	-0.607873	0.829784
C27	C	0.798211	-0.550108	0.751083
C28	C	1.383327	-0.668943	0.640825
C29	C	1.363163	-0.769217	0.661044
C30	C	1.575229	-1.051852	0.449496
C31	C	1.594173	-0.957639	0.430494
C32	C	1.536423	-0.910529	0.488130
C33	C	1.459724	-0.957641	0.564771
C34	C	1.440772	-1.051864	0.583769
C35	C	1.401966	-0.910541	0.622403
C36	C	1.325267	-0.957653	0.699044
C37	C	1.306319	-1.051866	0.718039
C38	C	1.364070	-1.098976	0.660403
C39	C	1.420918	-0.816318	0.603405
C40	C	1.286461	-0.816330	0.737678
C41	C	1.267517	-0.910543	0.756679
C42	C	1.704714	-0.434566	0.593663
C43	C	1.821489	-0.434573	0.593671
C44	C	1.430769	-0.434461	0.867661
C45	C	1.430805	-0.434424	0.984430
C46	C	1.478255	-0.199239	0.546304
C47	C	1.498527	-0.098965	0.526130
C48	C	1.430673	-0.434571	0.320682
C49	C	1.430892	-0.434354	0.203862
C50	C	1.351973	-0.492094	1.050893
C51	C	1.352018	-0.492061	1.160610
C52	C	1.509732	-0.376682	1.137392
C53	C	1.509691	-0.376720	1.027677
C54	C	1.273087	-0.549798	1.007646
C55	C	1.194248	-0.607471	1.074109
C56	C	1.194293	-0.607439	1.183826
C57	C	1.273177	-0.549733	1.227081
H58	H	0.852790	-0.329766	0.450884
H59	H	1.573955	-0.329699	1.172618
H60	H	1.051866	-0.329731	0.450866
H61	H	0.986370	-0.654887	0.893850
C62	C	1.273234	-0.549698	1.347768
H63	H	1.331506	-0.507074	1.364007
H64	H	1.208602	-0.534087	1.369456
H65	H	1.279650	-0.607914	1.384296
C66	C	0.768290	-0.671418	0.916364
H67	H	0.696752	-0.663149	0.905108
H68	H	0.774030	-0.732015	0.913067
H69	H	0.788953	-0.658281	0.984338
H70	H	1.573882	-0.329759	0.973561
C71	C	1.273036	-0.549838	0.886961
H72	H	1.214770	-0.592467	0.870722
H73	H	1.266636	-0.491626	0.850429
H74	H	1.337669	-0.565463	0.865282
C75	C	1.221949	-1.103687	0.802335
H76	H	1.190274	-1.062140	0.833948
H77	H	1.168790	-1.140500	0.769532
H78	H	1.254742	-1.140382	0.855548
C79	C	1.138358	-0.550070	0.751049
H80	H	1.154578	-0.592741	0.809194
H81	H	1.160023	-0.565591	0.686342
H82	H	1.174935	-0.491865	0.757625
C83	C	0.677518	-0.550101	0.751119
H84	H	0.644103	-0.592778	0.809270
H85	H	0.664476	-0.491900	0.757690
H86	H	0.649513	-0.565637	0.686422
H87	H	1.551851	-0.833817	0.472653
H88	H	1.622235	-1.090218	0.402571
H89	H	1.483366	-0.777968	0.541003
C90	C	1.107576	-0.670876	1.256933
H91	H	1.060588	-0.705241	1.215458
H92	H	1.139828	-0.710176	1.307643
H93	H	1.068795	-0.636339	1.292786
H94	H	1.656620	-0.919284	0.368093
C95	C	1.343236	-1.202611	0.681314
H96	H	1.289290	-1.223925	0.735215
H97	H	1.320812	-1.223992	0.617814
H98	H	1.406759	-1.223854	0.703835
C99	C	1.183150	-0.962368	0.840978
H100	H	1.151472	-0.920824	0.872592
H101	H	1.129992	-0.999184	0.808175
H102	H	1.215947	-0.999061	0.894188
H103	H	1.239433	-0.777973	0.784608
C104	C	1.107483	-0.670944	1.026533
H105	H	1.118740	-0.662699	0.951671
H106	H	1.110607	-0.731555	1.056707
H107	H	1.039570	-0.657721	1.041860
