data_functionalizedCrystal
_audit_creation_method	'MofGen! by Chris Wilmer'
_symmetry_space_group_name_H-M	'P1'
_symmetry_Int_Tables_number	1
_symmetry_cell_setting	triclinic
loop_
_symmetry_equiv_pos_as_xyz
  x,y,z
_cell_length_a	12.811453
_cell_length_b	11.295483
_cell_length_c	16.992695
_cell_angle_alpha	94.374931
_cell_angle_beta	87.341904
_cell_angle_gamma	80.460400
loop_
_atom_site_label
_atom_site_type_symbol
_atom_site_fract_x
_atom_site_fract_y
_atom_site_fract_z
O1	O	-1.418420	0.252200	-0.092273
O2	O	-0.918420	0.752200	0.407727
O3	O	-1.111581	0.219067	-0.105514
O4	O	-0.611581	0.719067	0.394486
O5	O	-1.263770	0.235491	0.015246
O6	O	-0.763770	0.735491	0.515246
O7	O	-1.266231	0.235776	-0.213032
O8	O	-0.766231	0.735776	0.286968
O9	O	-1.250401	0.035998	0.004656
O10	O	-0.750401	0.535998	0.504656
O11	O	-1.098212	0.019574	-0.116104
O12	O	-0.598212	0.519574	0.383896
O13	O	-1.405051	0.052707	-0.102863
O14	O	-0.905051	0.552707	0.397137
Cu15	Cu	-1.250411	0.017925	-0.110450
Cu16	Cu	-0.750411	0.517925	0.389550
Cu17	Cu	-1.266221	0.253849	-0.097926
Cu18	Cu	-0.766221	0.753849	0.402074
O19	O	-1.252863	0.036283	-0.223623
O20	O	-0.752863	0.536283	0.276377
C21	C	-1.065453	0.115062	-0.110391
C22	C	-0.565453	0.615062	0.389609
C23	C	-0.947924	0.102370	-0.109135
C24	C	-0.447924	0.602370	0.390865
N25	N	-1.239299	-0.148011	-0.119259
N26	N	-0.739299	0.351989	0.380741
C27	C	-0.741646	0.296032	-0.095244
C28	C	-0.241646	0.796032	0.404756
C29	C	-0.631217	0.284113	-0.094064
C30	C	-0.131217	0.784113	0.405936
C31	C	-0.616635	0.066614	-0.105601
C32	C	-0.116635	0.566614	0.394399
C33	C	-0.727064	0.078533	-0.106781
C34	C	-0.227064	0.578533	0.393219
C35	C	-0.789566	0.193246	-0.101601
C36	C	-0.289566	0.693246	0.398399
C37	C	-0.899997	0.205164	-0.102775
C38	C	-0.399997	0.705164	0.397225
C39	C	-0.885413	-0.012334	-0.114318
C40	C	-0.385413	0.487666	0.385682
C41	C	-0.774984	-0.024254	-0.113138
C42	C	-0.274984	0.475746	0.386862
C43	C	-1.357328	-0.384563	-0.025660
C44	C	-0.857328	0.115437	0.474340
C45	C	-1.348938	-0.510132	-0.032322
C46	C	-0.848938	-0.010132	0.467678
C47	C	-1.214126	-0.524720	-0.139241
C48	C	-0.714126	-0.024720	0.360759
C49	C	-1.222515	-0.399151	-0.132579
C50	C	-0.722515	0.100849	0.367421
C51	C	-1.294120	-0.329076	-0.075787
C52	C	-0.794120	0.170924	0.424213
C53	C	-1.302514	-0.203505	-0.069129
C54	C	-0.802514	0.296495	0.430871
C55	C	-1.167697	-0.218096	-0.176044
C56	C	-0.667697	0.281904	0.323956
C57	C	-1.159307	-0.343665	-0.182706
C58	C	-0.659307	0.156335	0.317294
C59	C	-0.451179	0.156714	-0.097986
C60	C	0.048821	0.656714	0.402014
C61	C	-0.568708	0.169407	-0.099241
C62	C	-0.068708	0.669407	0.400759
C63	C	-1.253921	0.135403	0.039156
C64	C	-0.753921	0.635403	0.539156
C65	C	-1.244478	0.134384	0.126176
C66	C	-0.744478	0.634384	0.626176
N67	N	-1.277341	0.419785	-0.089112
N68	N	-0.777341	0.919785	0.410888
C69	C	-1.262712	0.136374	-0.247532
C70	C	-0.762712	0.636374	0.252468
C71	C	-1.272155	0.137401	-0.334552
C72	C	-0.772155	0.637401	0.165448
C73	C	-1.335586	0.144221	0.176642
C74	C	-0.835586	0.644221	0.676642
C75	C	-1.326709	0.143273	0.258408
C76	C	-0.826709	0.643273	0.758408
C77	C	-1.226721	0.132480	0.289705
C78	C	-0.726721	0.632480	0.789705
C79	C	-1.135606	0.122647	0.239232
C80	C	-0.635606	0.622647	0.739232
C81	C	-1.144485	0.123603	0.157469
C82	C	-0.644485	0.623603	0.657469
C83	C	-1.189919	0.128523	0.533212
C84	C	-0.689919	0.628523	1.033212
C85	C	-1.181046	0.127564	0.614982
C86	C	-0.681046	0.627564	1.114982
C87	C	-1.372150	0.148193	0.634151
C88	C	-0.872150	0.648193	1.134151
C89	C	-1.381021	0.149141	0.552385
C90	C	-0.881021	0.649141	1.052385
C91	C	-1.289906	0.139313	0.501921
C92	C	-0.789906	0.639313	1.001921
N93	N	-1.217643	0.131508	0.373281
N94	N	-0.717643	0.631508	0.873281
N95	N	-1.298985	0.140294	0.418346
N96	N	-0.798985	0.640294	0.918346
H97	H	-0.950885	0.298570	-0.098556
H98	H	-0.450885	0.798570	0.401444
H99	H	-0.565727	-0.026781	-0.109826
H100	H	-0.065727	0.473219	0.390174
H101	H	-0.792537	0.389436	-0.091022
H102	H	-0.292537	0.889436	0.408978
H103	H	-0.592206	0.367813	-0.088889
H104	H	-0.092206	0.867813	0.411111
H105	H	-1.415638	-0.327505	0.020577
H106	H	-0.915638	0.172495	0.520577
Br107	Br	-1.020834	0.110262	0.088978
Br108	Br	-0.520834	0.610262	0.588978
Br109	Br	-0.950453	-0.151839	-0.122929
Br110	Br	-0.450453	0.348161	0.377071
Br111	Br	-1.081921	-0.142782	-0.244084
Br112	Br	-0.581921	0.357218	0.255916
H113	H	-0.724079	-0.117650	-0.117359
H114	H	-0.224079	0.382350	0.382641
H115	H	-1.462441	0.157929	0.526910
H116	H	-0.962441	0.657929	1.026910
Br117	Br	-1.399695	-0.108404	0.007940
Br118	Br	-0.899695	0.391596	0.507940
Br119	Br	-1.066263	0.115193	0.464735
Br120	Br	-0.566263	0.615193	0.964735
Br121	Br	-1.116939	-0.619835	-0.216300
Br122	Br	-0.616939	-0.119835	0.283700
Br123	Br	-1.434719	-0.585432	0.035714
Br124	Br	-0.934719	-0.085432	0.535714
H125	H	-1.101005	-0.400735	-0.228943
H126	H	-0.601005	0.099265	0.271057
Br127	Br	-1.495799	0.161530	0.702643
Br128	Br	-0.995799	0.661530	1.202643
Br129	Br	-1.471290	0.158851	0.134176
Br130	Br	-0.971290	0.658851	0.634176
Br131	Br	-1.045339	0.112903	0.657455
Br132	Br	-0.545339	0.612903	1.157455
Br133	Br	-0.999907	0.108019	0.281707
Br134	Br	-0.499907	0.608019	0.781707
Br135	Br	-1.450362	0.156624	0.326895
Br136	Br	-0.950362	0.656624	0.826895
