data_functionalizedCrystal
_audit_creation_method	'MofGen! by Chris Wilmer'
_symmetry_space_group_name_H-M	'P1'
_symmetry_Int_Tables_number	1
_symmetry_cell_setting	triclinic
loop_
_symmetry_equiv_pos_as_xyz
  x,y,z
_cell_length_a	21.395362
_cell_length_b	19.121063
_cell_length_c	21.395355
_cell_angle_alpha	92.420740
_cell_angle_beta	89.956060
_cell_angle_gamma	92.485681
loop_
_atom_site_label
_atom_site_type_symbol
_atom_site_fract_x
_atom_site_fract_y
_atom_site_fract_z
Zn1	Zn	0.947241	-0.279403	-0.365205
Zn2	Zn	0.942680	-0.396839	-0.264891
Zn3	Zn	0.842454	-0.279436	-0.260407
Zn4	Zn	0.837961	-0.396853	-0.369596
O5	O	0.892584	-0.338133	-0.315025
O6	O	1.034314	-0.294962	-0.351936
O7	O	0.929357	-0.381273	-0.176618
O8	O	0.860144	-0.181145	-0.270595
O9	O	1.030964	-0.381241	-0.278236
O10	O	0.937130	-0.181121	-0.347589
O11	O	0.855721	-0.295017	-0.173324
O12	O	0.754180	-0.295031	-0.274853
O13	O	0.852486	-0.381266	-0.456691
O14	O	0.750879	-0.381297	-0.355073
O15	O	0.932773	-0.294976	-0.453465
O16	O	0.925000	-0.495127	-0.282494
O17	O	0.848063	-0.495138	-0.359420
C18	C	0.729795	-0.338170	-0.314953
C19	C	0.660152	-0.338203	-0.314938
C20	C	0.625735	-0.383181	-0.356651
C21	C	0.560300	-0.383164	-0.356679
C22	C	0.529285	-0.338176	-0.314982
C23	C	0.563711	-0.293189	-0.273266
C24	C	0.629145	-0.293202	-0.273244
C25	C	0.425776	-0.332517	-0.258362
C26	C	0.360343	-0.332509	-0.258383
C27	C	0.327466	-0.338130	-0.315049
C28	C	0.360030	-0.343774	-0.371698
C29	C	0.425463	-0.343788	-0.371676
C30	C	0.458334	-0.338156	-0.315001
C31	C	0.222096	-0.383092	-0.356795
C32	C	0.156661	-0.383070	-0.356824
C33	C	0.160073	-0.293098	-0.273405
C34	C	0.225508	-0.293117	-0.273383
C35	C	0.256516	-0.338117	-0.315077
C36	C	0.885566	-0.520617	-0.321934
C37	C	0.882621	-0.598685	-0.324911
C38	C	0.921325	-0.635332	-0.286291
C39	C	0.918559	-0.708685	-0.289094
C40	C	0.877085	-0.745389	-0.330515
C41	C	0.838379	-0.708736	-0.369139
C42	C	0.841149	-0.635385	-0.366338
C43	C	0.866720	-0.966864	-0.340976
C44	C	0.863952	-1.040221	-0.343772
C45	C	0.944133	-1.040164	-0.263728
C46	C	0.946896	-0.966812	-0.260928
C47	C	0.908193	-0.930165	-0.299555
C48	C	0.874256	-0.820367	-0.333380
C49	C	0.911026	-0.855188	-0.296692
C50	C	1.056009	-0.338096	-0.315097
C51	C	1.125651	-0.338080	-0.315127
C52	C	0.892637	-0.338119	-0.478447
C53	C	0.892659	-0.338112	-0.548089
C54	C	0.899647	-0.154936	-0.308102
C55	C	0.902656	-0.076868	-0.305152
C56	C	0.934463	-0.293179	-0.579123
C57	C	0.934463	-0.293149	-0.644557
C58	C	0.892666	-0.338065	-0.678955
C59	C	0.850854	-0.383001	-0.647913
C60	C	0.850851	-0.383025	-0.582480
C61	C	0.885286	-0.401308	-0.785023
C62	C	0.885294	-0.401285	-0.850455
C63	C	0.892672	-0.337990	-0.880773
C64	C	0.900056	-0.274717	-0.845651
C65	C	0.900053	-0.274741	-0.780218
C66	C	0.892664	-0.338043	-0.749907
C67	C	0.934479	-0.293021	-0.982759
C68	C	0.934475	-0.292989	-1.048194
C69	C	0.850869	-0.382847	-1.051549
C70	C	0.850870	-0.382872	-0.986115
C71	C	0.892678	-0.337960	-0.951723
C72	C	0.892570	-0.338096	-0.152236
C73	C	0.892676	-0.337904	-0.082588
H74	H	0.452538	-0.327937	-0.212214
Br75	Br	0.991215	-0.232068	-0.936081
H76	H	0.816820	-0.419569	-0.675924
Br77	Br	0.521622	-0.232127	-0.216682
Br78	Br	0.264182	-0.444159	-0.413381
H79	H	0.835205	-0.937033	-0.372426
Br80	Br	0.794111	-0.444009	-0.540359
Br81	Br	0.788624	-0.585648	-0.418757
H82	H	0.968506	-0.256607	-0.551125
H83	H	0.950076	-0.738520	-0.257645
Br84	Br	0.991186	-0.232147	-0.686684
H85	H	0.816830	-0.419411	-1.079555
H86	H	0.451974	-0.348381	-0.417801
H87	H	0.333263	-0.348350	-0.417841
H88	H	0.816832	-0.419466	-0.960847
Br89	Br	0.875290	-0.487217	-0.743883
H90	H	0.906064	-0.223221	-0.751624
H91	H	0.980668	-0.936929	-0.227201
Br92	Br	0.967314	-0.805375	-0.240485
Br93	Br	0.667814	-0.444251	-0.413238
H94	H	0.804613	-0.738626	-0.402867
H95	H	0.134822	-0.256465	-0.239458
H96	H	0.532271	-0.419790	-0.390649
Br97	Br	0.875282	-0.487155	-0.898113
H98	H	0.975644	-1.070010	-0.232282
H99	H	0.830186	-1.070103	-0.377512
Br100	Br	0.817972	-0.870186	-0.389593
Br101	Br	0.675859	-0.232154	-0.216630
Br102	Br	0.910076	-0.188811	-0.886789
Br103	Br	0.991223	-0.232014	-1.090314
H104	H	0.955095	-0.605453	-0.252559
H105	H	0.128639	-0.419695	-0.390795
H106	H	0.333835	-0.327917	-0.212256
H107	H	0.253531	-0.256494	-0.239412
