data_functionalizedCrystal
_audit_creation_method	'MofGen! by Chris Wilmer'
_symmetry_space_group_name_H-M	'P1'
_symmetry_Int_Tables_number	1
_symmetry_cell_setting	triclinic
loop_
_symmetry_equiv_pos_as_xyz
  x,y,z
_cell_length_a	12.759395
_cell_length_b	13.897448
_cell_length_c	12.759387
_cell_angle_alpha	89.967288
_cell_angle_beta	89.979491
_cell_angle_gamma	90.019229
loop_
_atom_site_label
_atom_site_type_symbol
_atom_site_fract_x
_atom_site_fract_y
_atom_site_fract_z
Zn1	Zn	1.606247	-0.383924	-0.593991
Zn2	Zn	1.606128	-0.545252	-0.418306
Zn3	Zn	1.430545	-0.383977	-0.418328
Zn4	Zn	1.430528	-0.545184	-0.593945
O5	O	1.518362	-0.464584	-0.506142
O6	O	1.753252	-0.405332	-0.570696
O7	O	1.582794	-0.523909	-0.271287
O8	O	1.453909	-0.248988	-0.441659
O9	O	1.753165	-0.523858	-0.441621
O10	O	1.582996	-0.248950	-0.570718
O11	O	1.453794	-0.405421	-0.271304
O12	O	1.283522	-0.405355	-0.441614
O13	O	1.453880	-0.523741	-0.740972
O14	O	1.283509	-0.523792	-0.570639
O15	O	1.582980	-0.405265	-0.741006
O16	O	1.582778	-0.680225	-0.441576
O17	O	1.453765	-0.680174	-0.570617
C18	C	1.245395	-0.464573	-0.506124
C19	C	1.128618	-0.464591	-0.506142
C20	C	1.128644	-0.588119	-0.640278
C21	C	1.073796	-0.649891	-0.707349
C22	C	0.964074	-0.649903	-0.707362
C23	C	0.909198	-0.588134	-0.640299
C24	C	0.964046	-0.526362	-0.573227
C25	C	1.073770	-0.526359	-0.573220
C26	C	0.964020	-0.402830	-0.439098
C27	C	1.073742	-0.402822	-0.439078
C28	C	0.909144	-0.341061	-0.372035
C29	C	0.963992	-0.279293	-0.304957
C30	C	1.073720	-0.279284	-0.304946
C31	C	1.128590	-0.341050	-0.372007
C32	C	1.518285	-0.715199	-0.506112
C33	C	1.518349	-0.822413	-0.506134
C34	C	1.518459	-1.018708	-0.506200
C35	C	1.518395	-0.909475	-0.506167
C36	C	1.792395	-0.464597	-0.506161
C37	C	1.909172	-0.464602	-0.506169
C38	C	1.518441	-0.464490	-0.780176
C39	C	1.518475	-0.464449	-0.896953
C40	C	1.518468	-0.212991	-0.506196
C41	C	1.518513	-0.105777	-0.506219
C42	C	1.652916	-0.341088	-0.897008
C43	C	1.720151	-0.279393	-0.951896
C44	C	1.720176	-0.279358	-1.061618
C45	C	1.652958	-0.341022	-1.116454
C46	C	1.585723	-0.402718	-1.061565
C47	C	1.585707	-0.402748	-0.951841
C48	C	1.451278	-0.526072	-1.061510
C49	C	1.451256	-0.526114	-0.951789
C50	C	1.384059	-0.587737	-1.116346
C51	C	1.316828	-0.649438	-1.061458
C52	C	1.316806	-0.649472	-0.951729
C53	C	1.384021	-0.587809	-0.896900
C54	C	1.518344	-0.464609	-0.233175
C55	C	1.518513	-0.464377	-0.116399
H56	H	1.652912	-0.341120	-0.807667
O57	O	0.910627	-0.709816	-0.772479
C58	C	0.802018	-0.696594	-0.758083
H59	H	0.787043	-0.622114	-0.723824
H60	H	0.770842	-0.753745	-0.702020
C61	C	0.764115	-0.797038	-0.906446
C62	C	0.745722	-0.705557	-0.864376
H63	H	0.729387	-0.802570	-0.972010
H64	H	0.837287	-0.805949	-0.916143
H65	H	0.738135	-0.844653	-0.859716
H66	H	0.771714	-0.657944	-0.911099
H67	H	0.672553	-0.696638	-0.854689
O68	O	1.383912	-0.587621	-1.222929
C69	C	1.283234	-0.562849	-1.259580
H70	H	1.239812	-0.520804	-1.196358
H71	H	1.237684	-0.631127	-1.279018
C72	C	1.346781	-0.551993	-1.436413
C73	C	1.293451	-0.500345	-1.358766
H74	H	1.353081	-0.513441	-1.497598
H75	H	1.414609	-0.568686	-1.411722
H76	H	1.308815	-0.608889	-1.452598
H77	H	1.331423	-0.443456	-1.342573
H78	H	1.225629	-0.483640	-1.383457
H79	H	0.819857	-0.588141	-0.640324
O80	O	1.251689	-0.709435	-1.114770
C81	C	1.311483	-0.771700	-1.178259
H82	H	1.394221	-0.777681	-1.145208
H83	H	1.315132	-0.741843	-1.261421
C84	C	1.158486	-0.864624	-1.220516
C85	C	1.260104	-0.871976	-1.179916
H86	H	1.126792	-0.926477	-1.221543
H87	H	1.118200	-0.822673	-1.177746
H88	H	1.161540	-0.839739	-1.289814
H89	H	1.257047	-0.896849	-1.110616
H90	H	1.300389	-0.913934	-1.222676
O91	O	0.910803	-0.219344	-0.239673
C92	C	0.937530	-0.240320	-0.134913
H93	H	1.017183	-0.277393	-0.132645
H94	H	0.875742	-0.289874	-0.099441
C95	C	0.844762	-0.100677	-0.074242
C96	C	0.942597	-0.146204	-0.071457
H97	H	0.847883	-0.042623	-0.035097
H98	H	0.826752	-0.086546	-0.144820
H99	H	0.793282	-0.141982	-0.044684
H100	H	0.994072	-0.104904	-0.101026
H101	H	0.960616	-0.160325	-0.000881
O102	O	1.127113	-0.219413	-0.239739
C103	C	1.190511	-0.274246	-0.171743
H104	H	1.206946	-0.347388	-0.208646
H105	H	1.148182	-0.284754	-0.093870
C106	C	1.274555	-0.131309	-0.107487
C107	C	1.294749	-0.221141	-0.152816
H108	H	1.338852	-0.098551	-0.095808
H109	H	1.231840	-0.094366	-0.153295
H110	H	1.239278	-0.140079	-0.042598
H111	H	1.330013	-0.212370	-0.217710
H112	H	1.337472	-0.258082	-0.107019
H113	H	1.774918	-0.229114	-1.106308
O114	O	1.251467	-0.709502	-0.898576
C115	C	1.192134	-0.763900	-0.970508
H116	H	1.235178	-0.767208	-1.048731
H117	H	1.112358	-0.728569	-0.982165
C118	C	1.124077	-0.862516	-0.831597
C119	C	1.176948	-0.866585	-0.927668
H120	H	1.114705	-0.925856	-0.805170
H121	H	1.164047	-0.825865	-0.783134
H122	H	1.057602	-0.833069	-0.841324
H123	H	1.243426	-0.896020	-0.917938
H124	H	1.136989	-0.903244	-0.976129
O125	O	1.785417	-0.219591	-0.898466
C126	C	1.770967	-0.232833	-0.789853
H127	H	1.736508	-0.307270	-0.774843
H128	H	1.715050	-0.175616	-0.758718
C129	C	1.919589	-0.132612	-0.751979
C130	C	1.877274	-0.224040	-0.733543
H131	H	1.985163	-0.127184	-0.717243
H132	H	1.929322	-0.123687	-0.825154
H133	H	1.872982	-0.084941	-0.726033
H134	H	1.923875	-0.271709	-0.759501
H135	H	1.867551	-0.232973	-0.660371
H136	H	0.819803	-0.341071	-0.372054
O137	O	1.653145	-0.341068	-1.223037
C138	C	1.753838	-0.365810	-1.259711
H139	H	1.797242	-0.407891	-1.196482
H140	H	1.799389	-0.297517	-1.279201
C141	C	1.690357	-0.376565	-1.436515
C142	C	1.743663	-0.428256	-1.358860
H143	H	1.684082	-0.415080	-1.497677
H144	H	1.622518	-0.359892	-1.411809
H145	H	1.728323	-0.319656	-1.452744
H146	H	1.705690	-0.485156	-1.342623
H147	H	1.811495	-0.444940	-1.383566
H148	H	1.217985	-0.588123	-0.640266
H149	H	1.118488	-0.700181	-0.761952
H150	H	1.217931	-0.341052	-0.372002
H151	H	1.384014	-0.587834	-0.807559
