data_functionalizedCrystal
_audit_creation_method	'MofGen! by Chris Wilmer'
_symmetry_space_group_name_H-M	'P1'
_symmetry_Int_Tables_number	1
_symmetry_cell_setting	triclinic
loop_
_symmetry_equiv_pos_as_xyz
  x,y,z
_cell_length_a	18.050591
_cell_length_b	19.120786
_cell_length_c	18.050583
_cell_angle_alpha	87.525261
_cell_angle_beta	89.975765
_cell_angle_gamma	92.460873
loop_
_atom_site_label
_atom_site_type_symbol
_atom_site_fract_x
_atom_site_fract_y
_atom_site_fract_z
Zn1	Zn	1.122716	-0.279681	-0.407401
Zn2	Zn	1.622716	0.220319	0.092599
Zn3	Zn	1.117327	-0.397152	-0.277906
Zn4	Zn	1.617327	0.102848	0.222094
Zn5	Zn	0.998527	-0.279704	-0.283211
Zn6	Zn	1.498527	0.220296	0.216789
Zn7	Zn	0.993193	-0.397095	-0.402044
Zn8	Zn	1.493193	0.102905	0.097956
O9	O	1.057941	-0.338408	-0.342641
O10	O	1.557941	0.161592	0.157359
O11	O	1.225925	-0.295278	-0.390245
O12	O	1.725925	0.204722	0.109755
O13	O	1.101545	-0.381606	-0.174684
O14	O	1.601545	0.118394	0.325316
O15	O	1.019488	-0.181411	-0.304147
O16	O	1.519488	0.318589	0.195853
O17	O	1.221966	-0.381584	-0.295106
O18	O	1.721966	0.118416	0.204894
O19	O	1.110729	-0.181394	-0.395389
O20	O	1.610729	0.318606	0.104611
O21	O	1.014263	-0.295318	-0.178581
O22	O	1.514263	0.204682	0.321419
O23	O	0.893895	-0.295262	-0.298953
O24	O	1.393895	0.204738	0.201047
O25	O	1.010398	-0.381486	-0.506681
O26	O	1.510398	0.118514	-0.006681
O27	O	0.889977	-0.381508	-0.386259
O28	O	1.389977	0.118492	0.113741
O29	O	1.105557	-0.295223	-0.510617
O30	O	1.605557	0.204777	-0.010617
O31	O	1.096372	-0.495435	-0.289912
O32	O	1.596372	0.004565	0.210088
O33	O	1.005172	-0.495393	-0.381115
O34	O	1.505172	0.004607	0.118885
C35	C	0.864990	-0.338382	-0.342601
C36	C	1.364990	0.161618	0.157399
C37	C	0.782444	-0.338388	-0.342601
C38	C	1.282444	0.161612	0.157399
C39	C	0.585105	-0.291433	-0.295240
C40	C	1.085105	0.208567	0.204760
C41	C	0.532798	-0.355499	-0.274071
C42	C	1.032798	0.144501	0.225929
C43	C	0.631312	-0.338409	-0.342633
C44	C	1.131312	0.161591	0.157367
C45	C	0.536537	-0.274365	-0.363800
C46	C	1.036537	0.225635	0.136200
C47	C	0.485327	-0.338424	-0.342664
C48	C	0.985327	0.161576	0.157336
C49	C	0.580091	-0.402509	-0.321427
C50	C	1.080091	0.097491	0.178573
C51	C	0.583836	-0.321332	-0.411189
C52	C	1.083836	0.178668	0.088811
C53	C	0.531549	-0.385442	-0.390044
C54	C	1.031549	0.114558	0.109956
C55	C	0.715411	-0.338400	-0.342614
C56	C	1.215411	0.161600	0.157386
C57	C	0.401229	-0.338441	-0.342683
C58	C	0.901229	0.161559	0.157317
C59	C	1.049629	-0.520899	-0.334373
C60	C	1.549629	-0.020899	0.165627
C61	C	1.046141	-0.598970	-0.330860
C62	C	1.546141	-0.098970	0.169140
C63	C	1.091971	-0.635579	-0.376754
C64	C	1.591971	-0.135579	0.123246
C65	C	1.088691	-0.708934	-0.373455
C66	C	1.588691	-0.208934	0.126545
C67	C	1.039584	-0.745680	-0.324258
C68	C	1.539584	-0.245680	0.175742
C69	C	0.993748	-0.709066	-0.278363
C70	C	1.493748	-0.209066	0.221637
C71	C	0.997025	-0.635712	-0.281666
C72	C	1.497025	-0.135712	0.218334
C73	C	1.027311	-0.967166	-0.311910
C74	C	1.527311	-0.467166	0.188090
C75	C	1.024039	-1.040525	-0.308608
C76	C	1.524039	-0.540525	0.191392
C77	C	1.118981	-1.040388	-0.403701
C78	C	1.618981	-0.540388	0.096299
C79	C	1.122257	-0.967032	-0.406997
C80	C	1.622257	-0.467032	0.093003
C81	C	1.076419	-0.930425	-0.361105
C82	C	1.576419	-0.430425	0.138895
C83	C	1.036231	-0.820661	-0.320883
C84	C	1.536231	-0.320661	0.179117
C85	C	1.079768	-0.855445	-0.364484
C86	C	1.579768	-0.355445	0.135516
C87	C	1.251645	-0.338435	-0.342681
C88	C	1.751645	0.161565	0.157319
C89	C	1.334190	-0.338446	-0.342699
C90	C	1.834190	0.161554	0.157301
C91	C	1.057984	-0.338345	-0.536349
C92	C	1.557984	0.161655	-0.036349
C93	C	1.058002	-0.338319	-0.618896
C94	C	1.558002	0.161681	-0.118896
C95	C	1.066305	-0.155204	-0.350958
C96	C	1.566305	0.344796	0.149042
C97	C	1.069869	-0.077134	-0.354502
C98	C	1.569869	0.422866	0.145498
C99	C	1.109799	-0.291361	-0.869865
C100	C	1.609799	0.208639	-0.369865
C101	C	1.125033	-0.355452	-0.817558
C102	C	1.625033	0.144548	-0.317558
C103	C	1.058052	-0.338274	-0.916019
C104	C	1.558052	0.161726	-0.416019
C105	C	1.042828	-0.274209	-0.821243
C106	C	1.542828	0.225791	-0.321243
C107	C	1.058029	-0.338293	-0.770033
C108	C	1.558029	0.161707	-0.270033
C109	C	1.073320	-0.402398	-0.864798
C110	C	1.573320	0.097602	-0.364798
C111	C	0.991086	-0.321112	-0.868489
C112	C	1.491086	0.178888	-0.368489
C113	C	1.006292	-0.385247	-0.816203
C114	C	1.506292	0.114753	-0.316203
C115	C	1.058067	-0.338262	-1.000118
C116	C	1.558067	0.161738	-0.500118
C117	C	1.058014	-0.338311	-0.685936
C118	C	1.558014	0.161689	-0.185936
C119	C	1.057943	-0.338420	-0.149688
C120	C	1.557943	0.161580	0.350312
C121	C	1.058077	-0.338249	-0.067151
C122	C	1.558077	0.161751	0.432849
H123	H	0.508238	-0.425221	-0.430133
H124	H	1.008238	0.074779	0.069867
Cl125	Cl	1.177418	-0.230174	-0.906134
Cl126	Cl	1.677418	0.269826	-0.406134
H127	H	1.086270	-0.456596	-0.883936
H128	H	1.586270	0.043404	-0.383936
Cl129	Cl	1.176599	-1.086412	-0.461394
Cl130	Cl	1.676599	-0.586412	0.038606
Cl131	Cl	1.153713	-0.589391	-0.438600
Cl132	Cl	1.653713	-0.089391	0.061400
Cl133	Cl	1.212452	-0.377884	-0.783055
Cl134	Cl	1.712452	0.122116	-0.283055
Cl135	Cl	0.939406	-0.589690	-0.223970
Cl136	Cl	1.439406	-0.089690	0.276030
Cl137	Cl	0.498223	-0.377818	-0.184581
Cl138	Cl	0.998223	0.122182	0.315419
H139	H	0.996250	-0.850588	-0.280826
H140	H	1.496250	-0.350588	0.219174
Cl141	Cl	0.609631	-0.486165	-0.293702
Cl142	Cl	1.109631	0.013835	0.206298
H143	H	1.126017	-0.738737	-0.410820
H144	H	1.626017	-0.238737	0.089180
Cl145	Cl	0.938709	-0.446578	-0.780141
Cl146	Cl	1.438709	0.053422	-0.280141
Cl147	Cl	0.618437	-0.298985	-0.500658
Cl148	Cl	1.118437	0.201015	-0.000658
H149	H	1.029961	-0.220023	-0.802012
H150	H	1.529961	0.279977	-0.302012
Cl151	Cl	0.962302	-1.086719	-0.246754
Cl152	Cl	1.462302	-0.586719	0.253246
Cl153	Cl	0.506845	-0.190736	-0.391419
Cl154	Cl	1.006845	0.309264	0.108581
H155	H	0.608548	-0.251749	-0.255114
H156	H	1.108548	0.248251	0.244886
H157	H	1.162244	-0.937115	-0.447057
H158	H	1.662244	-0.437115	0.052943
Cl159	Cl	0.903693	-0.298652	-0.903024
Cl160	Cl	1.403693	0.201348	-0.403024
H161	H	0.953761	-0.738991	-0.238309
H162	H	1.453761	-0.238991	0.261691
Cl163	Cl	0.969679	-0.921155	-0.254223
Cl164	Cl	1.469679	-0.421155	0.245777
Cl165	Cl	1.141497	-0.809249	-0.426332
Cl166	Cl	1.641497	-0.309249	0.073668
