data_functionalizedCrystal
_audit_creation_method	'MofGen! by Chris Wilmer'
_symmetry_space_group_name_H-M	'P1'
_symmetry_Int_Tables_number	1
_symmetry_cell_setting	triclinic
loop_
_symmetry_equiv_pos_as_xyz
  x,y,z
_cell_length_a	29.839131
_cell_length_b	25.639242
_cell_length_c	25.639233
_cell_angle_alpha	90.023283
_cell_angle_beta	89.980415
_cell_angle_gamma	89.963922
loop_
_atom_site_label
_atom_site_type_symbol
_atom_site_fract_x
_atom_site_fract_y
_atom_site_fract_z
Zn1	Zn	-0.178972	-0.799215	-0.295755
Zn2	Zn	-0.254086	-0.799134	-0.208318
Zn3	Zn	-0.178964	-0.711791	-0.208317
Zn4	Zn	-0.254069	-0.711732	-0.295706
O5	O	-0.216523	-0.755468	-0.252024
O6	O	-0.188947	-0.872370	-0.284177
O7	O	-0.244126	-0.787539	-0.135153
O8	O	-0.116098	-0.723447	-0.219936
O9	O	-0.244133	-0.872310	-0.219937
O10	O	-0.116104	-0.787677	-0.284176
O11	O	-0.188934	-0.723369	-0.135152
O12	O	-0.188916	-0.638618	-0.219889
O13	O	-0.244103	-0.723346	-0.368878
O14	O	-0.244095	-0.638575	-0.284093
O15	O	-0.188930	-0.787619	-0.368914
O16	O	-0.316951	-0.787482	-0.219890
O17	O	-0.316938	-0.723268	-0.284094
C18	C	-0.216503	-0.619626	-0.251986
C19	C	-0.216506	-0.561512	-0.251982
C20	C	-0.187742	-0.310332	-0.218637
C21	C	-0.187738	-0.364936	-0.218632
O22	O	-0.163256	-0.393185	-0.190259
N23	N	-0.216511	-0.392238	-0.252003
C24	C	-0.245287	-0.364932	-0.285385
O25	O	-0.269760	-0.393168	-0.313770
C26	C	-0.245288	-0.310329	-0.285392
C27	C	-0.216516	-0.283030	-0.252016
C28	C	-0.158972	-0.283033	-0.185264
C29	C	-0.158977	-0.228433	-0.185268
C30	C	-0.187751	-0.201131	-0.218646
C31	C	-0.216521	-0.228430	-0.252020
C32	C	-0.274061	-0.283024	-0.318776
C33	C	-0.274060	-0.228417	-0.318781
C34	C	-0.245288	-0.201118	-0.285404
C35	C	-0.245300	-0.146527	-0.285403
N36	N	-0.216527	-0.119226	-0.252032
C37	C	-0.187752	-0.146528	-0.218654
C38	C	-0.245281	-0.479603	-0.285368
C39	C	-0.245282	-0.534205	-0.285358
C40	C	-0.187733	-0.534206	-0.218606
C41	C	-0.187734	-0.479602	-0.218613
C42	C	-0.216508	-0.452301	-0.251997
C43	C	-0.187765	-0.031863	-0.218665
C44	C	-0.187773	0.022743	-0.218671
C45	C	-0.245321	0.022739	-0.285425
C46	C	-0.245314	-0.031862	-0.285417
C47	C	-0.216532	-0.059161	-0.252036
O48	O	-0.269768	-0.118244	-0.313763
O49	O	-0.163279	-0.118285	-0.190279
C50	C	-0.333245	-0.755374	-0.251998
C51	C	-0.383180	-0.755381	-0.252004
C52	C	-0.692817	-0.788965	-0.218642
C53	C	-0.880490	-0.789030	-0.218662
O54	O	-0.904750	-0.817509	-0.190276
N55	N	-0.903965	-0.755577	-0.252063
C56	C	-0.880518	-0.722108	-0.285464
O57	O	-0.904791	-0.693659	-0.313878
C58	C	-0.692846	-0.722046	-0.285446
C59	C	-0.669374	-0.755498	-0.252039
C60	C	-0.669345	-0.822415	-0.185238
C61	C	-0.622430	-0.822396	-0.185231
C62	C	-0.598987	-0.788928	-0.218628
C63	C	-0.622459	-0.755479	-0.252032
C64	C	-0.669400	-0.688580	-0.318849
C65	C	-0.622479	-0.688568	-0.318843
C66	C	-0.599007	-0.722020	-0.285436
C67	C	-0.552100	-0.721993	-0.285423
N68	N	-0.528625	-0.755446	-0.252022
C69	C	-0.552069	-0.788914	-0.218624
C70	C	-0.979049	-0.722141	-0.285471
C71	C	-1.025967	-0.722156	-0.285475
C72	C	-1.025936	-0.789079	-0.218673
C73	C	-0.979017	-0.789062	-0.218667
C74	C	-0.955574	-0.755595	-0.252069
C75	C	-0.453543	-0.788872	-0.218612
C76	C	-0.406623	-0.788849	-0.218607
C77	C	-0.406658	-0.721928	-0.285410
C78	C	-0.453574	-0.721949	-0.285414
C79	C	-0.477015	-0.755425	-0.252013
O80	O	-0.527811	-0.693533	-0.313798
O81	O	-0.527788	-0.817366	-0.190223
C82	C	-0.739733	-0.788984	-0.218649
C83	C	-0.763205	-0.755535	-0.252053
C84	C	-0.739762	-0.722067	-0.285450
C85	C	-0.810123	-0.755549	-0.252057
C86	C	-0.833566	-0.789017	-0.218659
C87	C	-0.810092	-0.822470	-0.185258
C88	C	-0.763176	-0.822451	-0.185251
C89	C	-0.763236	-0.688614	-0.318851
C90	C	-0.810151	-0.688635	-0.318855
C91	C	-0.833595	-0.722102	-0.285457
C92	C	-0.099344	-0.755577	-0.252061
C93	C	-0.049410	-0.755624	-0.252077
C94	C	-0.216515	-0.755485	-0.388397
C95	C	-0.216512	-0.755492	-0.446511
C96	C	-0.216542	0.108159	-0.252055
C97	C	-0.216548	0.050045	-0.252049
C98	C	-0.187698	-0.789002	-0.806899
C99	C	-0.187685	-0.789008	-0.861503
O100	O	-0.163239	-0.817457	-0.889760
N101	N	-0.216406	-0.755550	-0.888794
C102	C	-0.245139	-0.722079	-0.861477
O103	O	-0.269567	-0.693621	-0.889704
C104	C	-0.245148	-0.722071	-0.806874
C105	C	-0.216429	-0.755535	-0.779586
C106	C	-0.158980	-0.822463	-0.779610
C107	C	-0.158993	-0.822457	-0.725010
C108	C	-0.187724	-0.788990	-0.697697
C109	C	-0.216442	-0.755529	-0.724985
C110	C	-0.273878	-0.688598	-0.779559
C111	C	-0.273885	-0.688592	-0.724952
C112	C	-0.245165	-0.722056	-0.697664
C113	C	-0.245186	-0.722056	-0.643072
N114	N	-0.216465	-0.755514	-0.615782
C115	C	-0.187734	-0.788981	-0.643094
C116	C	-0.245115	-0.722100	-0.976148
C117	C	-0.245108	-0.722110	-1.030750
C118	C	-0.187654	-0.789039	-1.030772
C119	C	-0.187664	-0.789030	-0.976169
C120	C	-0.216394	-0.755558	-0.948857
C121	C	-0.187764	-0.788967	-0.528429
C122	C	-0.187781	-0.788959	-0.473824
C123	C	-0.245233	-0.722029	-0.473807
C124	C	-0.245218	-0.722038	-0.528407
C125	C	-0.216480	-0.755509	-0.555717
O126	O	-0.269618	-0.693620	-0.614780
O127	O	-0.163305	-0.817430	-0.614860
C128	C	-0.216498	-0.755482	-0.116181
C129	C	-0.216375	-0.755576	-0.058068
H130	H	-0.135547	-0.206211	-0.158089
C131	C	-0.276506	-0.563934	-0.321537
C132	C	-0.270356	-0.617599	-0.314385
C133	C	-0.299114	-0.644999	-0.347703
H134	H	-0.270004	-0.555067	-0.356701
H135	H	-0.306691	-0.554991	-0.313816
H136	H	-0.240177	-0.626538	-0.322110
H137	H	-0.276861	-0.626482	-0.279228
H138	H	-0.329299	-0.636056	-0.339982
H139	H	-0.292610	-0.636127	-0.382865
H140	H	-0.294948	-0.681413	-0.342852
H141	H	-0.268746	-0.054090	-0.312591
H142	H	-0.688428	-0.849671	-0.158042
H143	H	-0.297277	-0.661328	-0.702717
H144	H	-0.268513	-0.694842	-0.953914
H145	H	-0.297490	-0.305241	-0.345955
C146	C	-0.156483	0.052286	-0.182413
C147	C	-0.131274	0.016685	-0.153193
C148	C	-0.102442	0.043879	-0.119794
H149	H	-0.173589	0.073611	-0.159550
H150	H	-0.136911	0.073553	-0.202445
H151	H	-0.150844	-0.004573	-0.133163
H152	H	-0.114159	-0.004641	-0.176043
H153	H	-0.082870	0.065146	-0.139826
H154	H	-0.119551	0.065202	-0.096934
H155	H	-0.085331	0.019727	-0.099968
H156	H	-0.135581	-0.849716	-0.801843
H157	H	-0.959909	-0.816301	-0.191464
C158	C	-0.305349	-0.198871	-0.355049
C159	C	-0.330549	-0.234470	-0.384267
C160	C	-0.359380	-0.207273	-0.417677
H161	H	-0.288242	-0.177592	-0.377914
H162	H	-0.324926	-0.177558	-0.335026
H163	H	-0.310974	-0.255774	-0.404289
H164	H	-0.347665	-0.255750	-0.361416
H165	H	-0.378957	-0.185960	-0.397653
H166	H	-0.342270	-0.185995	-0.440538
H167	H	-0.376485	-0.231422	-0.437501
C168	C	-0.276454	-0.449936	-0.321675
C169	C	-0.251065	-0.418633	-0.355258
C170	C	-0.279765	-0.391306	-0.388715
H171	H	-0.296013	-0.428569	-0.301697
H172	H	-0.293581	-0.474003	-0.341576
H173	H	-0.233946	-0.394569	-0.335359
H174	H	-0.231507	-0.439987	-0.375247
H175	H	-0.296891	-0.415372	-0.408616
H176	H	-0.299323	-0.369942	-0.368733
H177	H	-0.262542	-0.370067	-0.411508
H178	H	-0.164258	-0.816288	-1.053020
C179	C	-0.276510	0.052481	-0.321645
C180	C	-0.270342	0.106142	-0.314512
C181	C	-0.299059	0.133559	-0.347877
H182	H	-0.306705	0.043623	-0.313966
H183	H	-0.269973	0.043542	-0.356798
H184	H	-0.276883	0.115078	-0.279367
H185	H	-0.240154	0.115016	-0.322195
H186	H	-0.292522	0.124620	-0.383030
H187	H	-0.329252	0.124697	-0.340195
H188	H	-0.294876	0.169970	-0.343046
H189	H	-0.387563	-0.694677	-0.312600
C190	C	-0.381221	-0.825228	-0.182316
C191	C	-0.411798	-0.854551	-0.153082
C192	C	-0.388415	-0.888073	-0.119652
H193	H	-0.362942	-0.805296	-0.159463
H194	H	-0.362901	-0.848017	-0.202327
H195	H	-0.430110	-0.831765	-0.133073
H196	H	-0.430077	-0.874494	-0.175921
H197	H	-0.370096	-0.910862	-0.139662
H198	H	-0.370138	-0.868137	-0.096802
H199	H	-0.409158	-0.907976	-0.099816
C200	C	-0.156547	-0.825312	-0.444292
C201	C	-0.131374	-0.854610	-0.479902
C202	C	-0.102594	-0.888097	-0.452719
H203	H	-0.173689	-0.848123	-0.422994
H204	H	-0.136950	-0.805340	-0.422998
H205	H	-0.150969	-0.874582	-0.501187
H206	H	-0.114223	-0.831814	-0.501201
H207	H	-0.082996	-0.868124	-0.431425
H208	H	-0.119739	-0.910904	-0.431422
H209	H	-0.085508	-0.907976	-0.476876
C210	C	-1.051504	-0.685918	-0.321773
C211	C	-1.078412	-0.715506	-0.355312
C212	C	-1.101946	-0.682143	-0.388756
H213	H	-1.030870	-0.665975	-0.341711
H214	H	-1.069859	-0.663162	-0.301767
H215	H	-1.060060	-0.738253	-0.375316
H216	H	-1.099055	-0.735448	-0.335388
H217	H	-1.120300	-0.659387	-0.368750
H218	H	-1.081309	-0.662201	-0.408691
H219	H	-1.120209	-0.702213	-0.411514
H220	H	-0.297265	-0.661347	-0.801767
C221	C	-0.737777	-0.858831	-0.148963
C222	C	-0.768358	-0.888150	-0.119731
C223	C	-0.744980	-0.921676	-0.086300
H224	H	-0.719497	-0.838902	-0.126109
H225	H	-0.719459	-0.881623	-0.168973
H226	H	-0.786668	-0.865362	-0.099722
H227	H	-0.786639	-0.908090	-0.142571
H228	H	-0.726662	-0.944468	-0.106311
H229	H	-0.726701	-0.901743	-0.063450
H230	H	-0.765726	-0.941577	-0.066466
H231	H	-0.268608	-0.694794	-0.550626
H232	H	-0.135605	-0.849706	-0.702797
H233	H	-0.164304	-0.457379	-0.191437
C234	C	-0.479007	-0.825289	-0.182439
C235	C	-0.505890	-0.858805	-0.212084
C236	C	-0.529348	-0.892364	-0.178779
H237	H	-0.497374	-0.805382	-0.159622
H238	H	-0.458314	-0.845234	-0.162560
H239	H	-0.526582	-0.838861	-0.231954
H240	H	-0.487535	-0.878723	-0.234900
H241	H	-0.508654	-0.912310	-0.158900
H242	H	-0.547712	-0.872453	-0.155964
H243	H	-0.547587	-0.915112	-0.198889
H244	H	-0.959965	-0.694887	-0.312672
C245	C	-0.276504	-0.685769	-0.444168
C246	C	-0.320953	-0.697126	-0.457434
C247	C	-0.349772	-0.663739	-0.430132
H248	H	-0.269987	-0.650624	-0.453076
H249	H	-0.272423	-0.690570	-0.407737
H250	H	-0.325032	-0.692319	-0.493857
H251	H	-0.327484	-0.732264	-0.448525
H252	H	-0.345692	-0.668541	-0.393701
H253	H	-0.343251	-0.628597	-0.439042
H254	H	-0.379935	-0.671444	-0.439126
H255	H	-0.164326	-0.054083	-0.191485
H256	H	-0.164277	-0.816279	-0.953954
H257	H	-0.135538	-0.305257	-0.158083
C258	C	-0.156505	-0.563949	-0.182426
C259	C	-0.162656	-0.617610	-0.189578
C260	C	-0.133895	-0.645026	-0.156264
H261	H	-0.163004	-0.555044	-0.147260
H262	H	-0.126320	-0.555056	-0.190149
H263	H	-0.192834	-0.626499	-0.181850
H264	H	-0.156154	-0.626530	-0.224736
H265	H	-0.103710	-0.636133	-0.163988
H266	H	-0.140397	-0.636117	-0.121101
H267	H	-0.138062	-0.681438	-0.161116
H268	H	-0.829187	-0.849719	-0.158064
C269	C	-0.597031	-0.858780	-0.148947
C270	C	-0.627612	-0.888100	-0.119716
C271	C	-0.604234	-0.921631	-0.086291
H272	H	-0.578749	-0.838854	-0.126091
H273	H	-0.578715	-0.881570	-0.168960
H274	H	-0.645920	-0.865313	-0.099703
H275	H	-0.645894	-0.908036	-0.142558
H276	H	-0.585918	-0.944421	-0.106305
H277	H	-0.585953	-0.901702	-0.063439
H278	H	-0.624979	-0.941533	-0.066457
C279	C	-1.051475	-0.825434	-0.182507
C280	C	-1.097586	-0.818309	-0.189691
C281	C	-1.121128	-0.851811	-0.156411
H282	H	-1.043878	-0.817878	-0.147333
H283	H	-1.043767	-0.860555	-0.190241
H284	H	-1.105291	-0.783196	-0.181954
H285	H	-1.105196	-0.825868	-0.224859
H286	H	-1.113420	-0.886932	-0.164145
H287	H	-1.113528	-0.844253	-0.121238
H288	H	-1.152417	-0.846985	-0.161284
C289	C	-0.835551	-0.652293	-0.355185
C290	C	-0.804973	-0.622992	-0.384440
C291	C	-0.828352	-0.589519	-0.417920
H292	H	-0.853884	-0.629483	-0.335227
H293	H	-0.853816	-0.672275	-0.378020
H294	H	-0.786715	-0.603012	-0.361608
H295	H	-0.786639	-0.645788	-0.404409
H296	H	-0.846618	-0.609501	-0.440755
H297	H	-0.846684	-0.566713	-0.397957
H298	H	-0.807608	-0.569638	-0.437777
C299	C	-0.276311	-0.685725	-1.060280
C300	C	-0.301465	-0.656408	-1.024666
C301	C	-0.330208	-0.622876	-1.051847
H302	H	-0.295924	-0.705649	-1.081587
H303	H	-0.259128	-0.662932	-1.081563
H304	H	-0.318646	-0.679198	-1.003392
H305	H	-0.281863	-0.636473	-1.003358
H306	H	-0.313026	-0.600083	-1.073131
H307	H	-0.349819	-0.642804	-1.073153
H308	H	-0.347276	-0.602978	-1.027688
H309	H	-0.688503	-0.661337	-0.346051
C310	C	-0.597109	-0.652175	-0.355131
C311	C	-0.627711	-0.622879	-0.384377
C312	C	-0.604358	-0.589345	-0.417806
H313	H	-0.578781	-0.672097	-0.377977
H314	H	-0.578842	-0.629370	-0.335119
H315	H	-0.645971	-0.645681	-0.404388
H316	H	-0.646041	-0.602947	-0.361545
H317	H	-0.586090	-0.566539	-0.397794
H318	H	-0.586030	-0.609271	-0.440648
H319	H	-0.625117	-0.569460	-0.437650
C320	C	-0.479119	-0.685713	-0.321710
C321	C	-0.506023	-0.715306	-0.355250
C322	C	-0.529563	-0.681946	-0.388692
H323	H	-0.458489	-0.665764	-0.341648
H324	H	-0.497477	-0.662962	-0.301702
H325	H	-0.487667	-0.738047	-0.375256
H326	H	-0.526662	-0.735253	-0.335327
H327	H	-0.547920	-0.659196	-0.368685
H328	H	-0.508929	-0.661999	-0.408627
H329	H	-0.547822	-0.702020	-0.411450
C330	C	-0.156508	-0.825221	-0.558101
C331	C	-0.127689	-0.795654	-0.589433
C332	C	-0.098890	-0.829034	-0.616769
H333	H	-0.173639	-0.848000	-0.579449
H334	H	-0.139383	-0.845137	-0.534039
H335	H	-0.144813	-0.775746	-0.613492
H336	H	-0.110549	-0.772875	-0.568098
H337	H	-0.081765	-0.848950	-0.592707
H338	H	-0.116024	-0.851812	-0.638114
H339	H	-0.079330	-0.808978	-0.638027
H340	H	-0.744152	-0.661361	-0.346048
