data_functionalizedCrystal
_audit_creation_method	'MofGen! by Chris Wilmer'
_symmetry_space_group_name_H-M	'P1'
_symmetry_Int_Tables_number	1
_symmetry_cell_setting	triclinic
loop_
_symmetry_equiv_pos_as_xyz
  x,y,z
_cell_length_a	27.732048
_cell_length_b	26.809956
_cell_length_c	27.732048
_cell_angle_alpha	89.999364
_cell_angle_beta	97.357345
_cell_angle_gamma	90.003258
loop_
_atom_site_label
_atom_site_type_symbol
_atom_site_fract_x
_atom_site_fract_y
_atom_site_fract_z
O1	O	0.640931	0.041421	-0.057510
O2	O	0.890931	0.291421	0.192490
O3	O	1.140931	0.541421	0.442490
O4	O	1.390931	0.791421	0.692490
O5	O	0.500138	0.041436	-0.066256
O6	O	0.750138	0.291436	0.183744
O7	O	1.000138	0.541436	0.433744
O8	O	1.250138	0.791436	0.683744
O9	O	0.574907	0.041419	0.008514
O10	O	0.824907	0.291419	0.258514
O11	O	1.074907	0.541419	0.508514
O12	O	1.324907	0.791419	0.758514
O13	O	0.566162	0.041439	-0.132280
O14	O	0.816162	0.291439	0.117720
O15	O	1.066162	0.541439	0.367720
O16	O	1.316162	0.791439	0.617720
O17	O	0.574893	-0.041541	0.008502
O18	O	0.824893	0.208459	0.258502
O19	O	1.074893	0.458459	0.508502
O20	O	1.324893	0.708459	0.758502
O21	O	0.500123	-0.041523	-0.066267
O22	O	0.750123	0.208477	0.183733
O23	O	1.000123	0.458477	0.433733
O24	O	1.250123	0.708477	0.683733
O25	O	0.640917	-0.041539	-0.057522
O26	O	0.890917	0.208461	0.192478
O27	O	1.140917	0.458461	0.442478
O28	O	1.390917	0.708461	0.692478
Zn29	Zn	0.570518	-0.054702	-0.061896
Zn30	Zn	0.820518	0.195298	0.188104
Zn31	Zn	1.070518	0.445298	0.438104
Zn32	Zn	1.320518	0.695298	0.688104
Zn33	Zn	0.570536	0.054600	-0.061881
Zn34	Zn	0.820536	0.304600	0.188119
Zn35	Zn	1.070536	0.554600	0.438119
Zn36	Zn	1.320536	0.804600	0.688119
O37	O	0.566147	-0.041521	-0.132291
O38	O	0.816147	0.208479	0.117709
O39	O	1.066147	0.458479	0.367709
O40	O	1.316147	0.708479	0.617709
C41	C	0.482124	-0.000041	-0.066078
C42	C	0.732124	0.249959	0.183922
C43	C	0.982124	0.499959	0.433922
C44	C	1.232124	0.749959	0.683922
C45	C	0.428469	-0.000036	-0.065525
C46	C	0.678469	0.249964	0.184475
C47	C	0.928469	0.499964	0.434475
C48	C	1.178469	0.749964	0.684475
N49	N	0.570509	-0.129298	-0.061906
N50	N	0.820509	0.120702	0.188094
N51	N	1.070509	0.370702	0.438094
N52	N	1.320509	0.620702	0.688094
C53	C	0.089654	-0.000051	-0.106229
C54	C	0.339654	0.249949	0.143771
C55	C	0.589654	0.499949	0.393771
C56	C	0.839654	0.749949	0.643771
C57	C	-0.112006	-0.000056	-0.104178
C58	C	0.137994	0.249944	0.145822
C59	C	0.387994	0.499944	0.395822
C60	C	0.637994	0.749944	0.645822
O61	O	-0.143262	-0.000073	-0.141398
O62	O	0.106738	0.249927	0.108602
O63	O	0.356738	0.499927	0.358602
O64	O	0.606738	0.749927	0.608602
N65	N	-0.131130	-0.000062	-0.059843
N66	N	0.118870	0.249938	0.190157
N67	N	0.368870	0.499938	0.440157
N68	N	0.618870	0.749938	0.690157
C69	C	-0.099835	-0.000069	-0.016017
C70	C	0.150165	0.249931	0.233983
C71	C	0.400165	0.499931	0.483983
C72	C	0.650165	0.749931	0.733983
O73	O	-0.120728	-0.000079	0.021740
O74	O	0.129272	0.249921	0.271740
O75	O	0.379272	0.499921	0.521740
O76	O	0.629272	0.749921	0.771740
C77	C	0.101824	-0.000068	-0.018068
C78	C	0.351824	0.249932	0.231932
C79	C	0.601824	0.499932	0.481932
C80	C	0.851824	0.749932	0.731932
C81	C	0.120944	-0.000057	-0.062407
C82	C	0.370944	0.249943	0.187593
C83	C	0.620944	0.499943	0.437593
C84	C	0.870944	0.749943	0.687593
C85	C	0.108775	-0.000042	-0.150563
C86	C	0.358775	0.249958	0.099437
C87	C	0.608775	0.499958	0.349437
C88	C	0.858775	0.749958	0.599437
C89	C	0.159187	-0.000038	-0.151076
C90	C	0.409187	0.249962	0.098924
C91	C	0.659187	0.499962	0.348924
C92	C	0.909187	0.749962	0.598924
C93	C	0.190477	-0.000044	-0.107253
C94	C	0.440477	0.249956	0.142747
C95	C	0.690477	0.499956	0.392747
C96	C	0.940477	0.749956	0.642747
C97	C	0.171356	-0.000054	-0.062919
C98	C	0.421356	0.249946	0.187081
C99	C	0.671356	0.499946	0.437081
C100	C	0.921356	0.749946	0.687081
C101	C	0.133117	-0.000079	0.025757
C102	C	0.383117	0.249921	0.275757
C103	C	0.633117	0.499921	0.525757
C104	C	0.883117	0.749921	0.775757
C105	C	0.183535	-0.000080	0.025240
C106	C	0.433535	0.249920	0.275240
C107	C	0.683535	0.499920	0.525240
C108	C	0.933535	0.749920	0.775240
C109	C	0.202655	-0.000069	-0.019098
C110	C	0.452655	0.249931	0.230902
C111	C	0.702655	0.499931	0.480902
C112	C	0.952655	0.749931	0.730902
C113	C	0.253059	-0.000056	-0.019609
C114	C	0.503059	0.249944	0.230391
C115	C	0.753059	0.499944	0.480391
C116	C	1.003059	0.749944	0.730391
N117	N	0.272183	-0.000050	-0.063944
N118	N	0.522183	0.249950	0.186056
N119	N	0.772183	0.499950	0.436056
N120	N	1.022183	0.749950	0.686056
C121	C	0.240892	-0.000044	-0.107766
C122	C	0.490892	0.249956	0.142234
C123	C	0.740892	0.499956	0.392234
C124	C	0.990892	0.749956	0.642234
C125	C	-0.205709	-0.000069	-0.014943
C126	C	0.044291	0.249931	0.235057
C127	C	0.294291	0.499931	0.485057
C128	C	0.544291	0.749931	0.735057
C129	C	-0.256124	-0.000068	-0.014430
C130	C	-0.006124	0.249932	0.235570
C131	C	0.243876	0.499932	0.485570
C132	C	0.493876	0.749932	0.735570
C133	C	-0.268291	-0.000056	-0.102591
C134	C	-0.018291	0.249944	0.147409
C135	C	0.231709	0.499944	0.397409
C136	C	0.481709	0.749944	0.647409
C137	C	-0.217876	-0.000053	-0.103104
C138	C	0.032124	0.249947	0.146896
C139	C	0.282124	0.499947	0.396896
C140	C	0.532124	0.749947	0.646896
C141	C	-0.186585	-0.000063	-0.059278
C142	C	0.063415	0.249937	0.190722
C143	C	0.313415	0.499937	0.440722
C144	C	0.563415	0.749937	0.690722
C145	C	0.346761	-0.000036	-0.108839
C146	C	0.596761	0.249964	0.141161
C147	C	0.846761	0.499964	0.391161
C148	C	1.096761	0.749964	0.641161
C149	C	0.397178	-0.000030	-0.109347
C150	C	0.647178	0.249970	0.140653
C151	C	0.897178	0.499970	0.390653
C152	C	1.147178	0.749970	0.640653
C153	C	0.409341	-0.000044	-0.021186
C154	C	0.659341	0.249956	0.228814
C155	C	0.909341	0.499956	0.478814
C156	C	1.159341	0.749956	0.728814
C157	C	0.358929	-0.000048	-0.020678
C158	C	0.608929	0.249952	0.229322
C159	C	0.858929	0.499952	0.479322
C160	C	1.108929	0.749952	0.729322
C161	C	0.327639	-0.000045	-0.064508
C162	C	0.577639	0.249955	0.185492
C163	C	0.827639	0.499955	0.435492
C164	C	1.077639	0.749955	0.685492
O165	O	0.284343	-0.000045	0.017592
O166	O	0.534343	0.249955	0.267592
O167	O	0.784343	0.499955	0.517592
O168	O	1.034343	0.749955	0.767592
O169	O	0.261794	-0.000045	-0.145518
O170	O	0.511794	0.249955	0.104482
O171	O	0.761794	0.499955	0.354482
O172	O	1.011794	0.749955	0.604482
C173	C	0.039242	-0.000055	-0.105716
C174	C	0.289242	0.249945	0.144284
C175	C	0.539242	0.499945	0.394284
C176	C	0.789242	0.749945	0.644284
C177	C	0.020120	-0.000065	-0.061382
C178	C	0.270120	0.249935	0.188618
C179	C	0.520120	0.499935	0.438618
C180	C	0.770120	0.749935	0.688618
C181	C	0.051411	-0.000071	-0.017560
C182	C	0.301411	0.249929	0.232440
C183	C	0.551411	0.499929	0.482440
C184	C	0.801411	0.749929	0.732440
C185	C	-0.030294	-0.000065	-0.060869
C186	C	0.219706	0.249935	0.189131
C187	C	0.469706	0.499935	0.439131
C188	C	0.719706	0.749935	0.689131
C189	C	-0.061585	-0.000059	-0.104691
C190	C	0.188415	0.249941	0.145309
C191	C	0.438415	0.499941	0.395309
C192	C	0.688415	0.749941	0.645309
C193	C	-0.042461	-0.000053	-0.149026
C194	C	0.207539	0.249947	0.100974
C195	C	0.457539	0.499947	0.350974
C196	C	0.707539	0.749947	0.600974
C197	C	0.007951	-0.000049	-0.149539
C198	C	0.257951	0.249951	0.100461
C199	C	0.507951	0.499951	0.350461
C200	C	0.757951	0.749951	0.600461
C201	C	0.032287	-0.000077	0.026775
C202	C	0.282287	0.249923	0.276775
C203	C	0.532287	0.499923	0.526775
C204	C	0.782287	0.749923	0.776775
C205	C	-0.018125	-0.000080	0.027284
C206	C	0.231875	0.249920	0.277284
C207	C	0.481875	0.499920	0.527284
C208	C	0.731875	0.749920	0.777284
C209	C	-0.049416	-0.000074	-0.016538
C210	C	0.200584	0.249926	0.233462
C211	C	0.450584	0.499926	0.483462
C212	C	0.700584	0.749926	0.733462
C213	C	0.603640	-0.473932	-0.028781
C214	C	0.853640	-0.223932	0.221219
C215	C	1.103640	0.026068	0.471219
C216	C	1.353640	0.276068	0.721219
C217	C	0.603652	-0.682810	-0.028774
C218	C	0.853652	-0.432810	0.221226
C219	C	1.103652	-0.182810	0.471226
C220	C	1.353652	0.067190	0.721226
O221	O	0.631801	-0.709820	-0.000613
O222	O	0.881801	-0.459820	0.249387
O223	O	1.131801	-0.209820	0.499387
O224	O	1.381801	0.040180	0.749387
N225	N	0.570539	-0.708925	-0.061870
N226	N	0.820539	-0.458925	0.188130
N227	N	1.070539	-0.208925	0.438130
N228	N	1.320539	0.041075	0.688130
C229	C	0.537419	-0.682818	-0.094969
C230	C	0.787419	-0.432818	0.155031
C231	C	1.037419	-0.182818	0.405031
C232	C	1.287419	0.067182	0.655031
O233	O	0.509252	-0.709824	-0.123116
O234	O	0.759252	-0.459824	0.126884
O235	O	1.009252	-0.209824	0.376884
O236	O	1.259252	0.040176	0.626884
C237	C	0.537406	-0.473941	-0.094974
C238	C	0.787406	-0.223941	0.155026
C239	C	1.037406	0.026059	0.405026
C240	C	1.287406	0.276059	0.655026
C241	C	0.570524	-0.447829	-0.061878
C242	C	0.820524	-0.197829	0.188122
C243	C	1.070524	0.052171	0.438122
C244	C	1.320524	0.302171	0.688122
C245	C	0.636755	-0.447819	0.004312
C246	C	0.886755	-0.197819	0.254312
C247	C	1.136755	0.052181	0.504312
C248	C	1.386755	0.302181	0.754312
C249	C	0.636754	-0.395603	0.004308
C250	C	0.886754	-0.145603	0.254308
C251	C	1.136754	0.104397	0.504308
C252	C	1.386754	0.354397	0.754308
C253	C	0.603637	-0.369500	-0.028789
C254	C	0.853637	-0.119500	0.221211
C255	C	1.103637	0.130500	0.471211
C256	C	1.353637	0.380500	0.721211
C257	C	0.570522	-0.395612	-0.061882
C258	C	0.820522	-0.145612	0.188118
C259	C	1.070522	0.104388	0.438118
C260	C	1.320522	0.354388	0.688118
C261	C	0.504284	-0.447835	-0.128070
C262	C	0.754284	-0.197835	0.121930
C263	C	1.004284	0.052165	0.371930
C264	C	1.254284	0.302165	0.621930
C265	C	0.504283	-0.395613	-0.128067
C266	C	0.754283	-0.145613	0.121933
C267	C	1.004283	0.104387	0.371933
C268	C	1.254283	0.354387	0.621933
C269	C	0.537401	-0.369500	-0.094972
C270	C	0.787401	-0.119500	0.155028
C271	C	1.037401	0.130500	0.405028
C272	C	1.287401	0.380500	0.655028
C273	C	0.537405	-0.317293	-0.094983
C274	C	0.787405	-0.067293	0.155017
C275	C	1.037405	0.182707	0.405017
C276	C	1.287405	0.432707	0.655017
N277	N	0.570517	-0.291177	-0.061887
N278	N	0.820517	-0.041177	0.188113
N279	N	1.070517	0.208823	0.438113
N280	N	1.320517	0.458823	0.688113
C281	C	0.603633	-0.317281	-0.028790
C282	C	0.853633	-0.067281	0.221210
C283	C	1.103633	0.182719	0.471210
C284	C	1.353633	0.432719	0.721210
C285	C	0.537429	-0.792481	-0.094965
C286	C	0.787429	-0.542481	0.155035
C287	C	1.037429	-0.292481	0.405035
C288	C	1.287429	-0.042481	0.655035
C289	C	0.537433	-0.844700	-0.094964
C290	C	0.787433	-0.594700	0.155036
C291	C	1.037433	-0.344700	0.405036
C292	C	1.287433	-0.094700	0.655036
C293	C	0.603665	-0.844689	-0.028768
C294	C	0.853665	-0.594689	0.221232
C295	C	1.103665	-0.344689	0.471232
C296	C	1.353665	-0.094689	0.721232
C297	C	0.603663	-0.792469	-0.028772
C298	C	0.853663	-0.542469	0.221228
C299	C	1.103663	-0.292469	0.471228
C300	C	1.353663	-0.042469	0.721228
C301	C	0.570542	-0.766366	-0.061868
C302	C	0.820542	-0.516366	0.188132
C303	C	1.070542	-0.266366	0.438132
C304	C	1.320542	-0.016366	0.688132
C305	C	0.603628	-0.207623	-0.028801
C306	C	0.853628	0.042377	0.221199
C307	C	1.103628	0.292377	0.471199
C308	C	1.353628	0.542377	0.721199
C309	C	0.603625	-0.155402	-0.028809
C310	C	0.853625	0.094598	0.221191
C311	C	1.103625	0.344598	0.471191
C312	C	1.353625	0.594598	0.721191
C313	C	0.537392	-0.155418	-0.095003
C314	C	0.787392	0.094582	0.154997
C315	C	1.037392	0.344582	0.404997
C316	C	1.287392	0.594582	0.654997
C317	C	0.537396	-0.207635	-0.094997
C318	C	0.787396	0.042365	0.155003
C319	C	1.037396	0.292365	0.405003
C320	C	1.287396	0.542365	0.655003
C321	C	0.570516	-0.233735	-0.061892
C322	C	0.820516	0.016265	0.188108
C323	C	1.070516	0.266265	0.438108
C324	C	1.320516	0.516265	0.688108
O325	O	0.509266	-0.290250	-0.123126
O326	O	0.759266	-0.040250	0.126874
O327	O	1.009266	0.209750	0.376874
O328	O	1.259266	0.459750	0.626874
O329	O	0.631789	-0.290266	-0.000640
O330	O	0.881789	-0.040266	0.249360
O331	O	1.131789	0.209734	0.499360
O332	O	1.381789	0.459734	0.749360
C333	C	0.603642	-0.526149	-0.028777
C334	C	0.853642	-0.276149	0.221223
C335	C	1.103642	-0.026149	0.471223
C336	C	1.353642	0.223851	0.721223
C337	C	0.570527	-0.552261	-0.061870
C338	C	0.820527	-0.302261	0.188130
C339	C	1.070527	-0.052261	0.438130
C340	C	1.320527	0.197739	0.688130
C341	C	0.537410	-0.526158	-0.094968
C342	C	0.787410	-0.276158	0.155032
C343	C	1.037410	-0.026158	0.405032
C344	C	1.287410	0.223842	0.655032
C345	C	0.570531	-0.604480	-0.061870
C346	C	0.820531	-0.354480	0.188130
C347	C	1.070531	-0.104480	0.438130
C348	C	1.320531	0.145520	0.688130
C349	C	0.603647	-0.630584	-0.028773
C350	C	0.853647	-0.380584	0.221227
C351	C	1.103647	-0.130584	0.471227
C352	C	1.353647	0.119416	0.721227
C353	C	0.636759	-0.604468	0.004324
C354	C	0.886759	-0.354468	0.254324
C355	C	1.136759	-0.104468	0.504324
C356	C	1.386759	0.145532	0.754324
C357	C	0.636758	-0.552252	0.004320
C358	C	0.886758	-0.302252	0.254320
C359	C	1.136758	-0.052252	0.504320
C360	C	1.386758	0.197748	0.754320
C361	C	0.504298	-0.552273	-0.128064
C362	C	0.754298	-0.302273	0.121936
C363	C	1.004298	-0.052273	0.371936
C364	C	1.254298	0.197727	0.621936
C365	C	0.504303	-0.604489	-0.128058
C366	C	0.754303	-0.354489	0.121942
C367	C	1.004303	-0.104489	0.371942
C368	C	1.254303	0.145511	0.621942
C369	C	0.537419	-0.630593	-0.094961
C370	C	0.787419	-0.380593	0.155039
C371	C	1.037419	-0.130593	0.405039
C372	C	1.287419	0.119407	0.655039
C373	C	0.658931	-0.000060	-0.057699
C374	C	0.908931	0.249940	0.192301
C375	C	1.158931	0.499940	0.442301
C376	C	1.408931	0.749940	0.692301
C377	C	0.712586	-0.000062	-0.058252
C378	C	0.962586	0.249938	0.191748
C379	C	1.212586	0.499938	0.441748
C380	C	1.462586	0.749938	0.691748
C381	C	0.574716	-0.000062	0.026515
C382	C	0.824716	0.249938	0.276515
C383	C	1.074716	0.499938	0.526515
C384	C	1.324716	0.749938	0.776515
C385	C	0.574164	-0.000066	0.080170
C386	C	0.824164	0.249934	0.330170
C387	C	1.074164	0.499934	0.580170
C388	C	1.324164	0.749934	0.830170
N389	N	0.570549	0.129196	-0.061867
N390	N	0.820549	0.379196	0.188133
N391	N	1.070549	0.629196	0.438133
N392	N	1.320549	0.879196	0.688133
C393	C	0.566338	-0.000039	-0.150292
C394	C	0.816338	0.249961	0.099708
C395	C	1.066338	0.499961	0.349708
C396	C	1.316338	0.749961	0.599708
C397	C	0.566891	-0.000031	-0.203947
C398	C	0.816891	0.249969	0.046053
C399	C	1.066891	0.499969	0.296053
C400	C	1.316891	0.749969	0.546053
C401	C	0.614867	-0.000045	0.418985
C402	C	0.864867	0.249955	0.668985
C403	C	1.114867	0.499955	0.918985
C404	C	1.364867	0.749955	1.168985
C405	C	0.612816	-0.000038	0.620645
C406	C	0.862816	0.249962	0.870645
C407	C	1.112816	0.499962	1.120645
C408	C	1.362816	0.749962	1.370645
O409	O	0.650037	-0.000021	0.651900
O410	O	0.900037	0.249979	0.901900
O411	O	1.150037	0.499979	1.151900
O412	O	1.400037	0.749979	1.401900
N413	N	0.568481	-0.000034	0.639768
N414	N	0.818481	0.249966	0.889768
N415	N	1.068481	0.499966	1.139768
N416	N	1.318481	0.749966	1.389768
C417	C	0.524656	-0.000028	0.608474
C418	C	0.774656	0.249972	0.858474
C419	C	1.024656	0.499972	1.108474
C420	C	1.274656	0.749972	1.358474
O421	O	0.486899	-0.000019	0.629367
O422	O	0.736899	0.249981	0.879367
O423	O	0.986899	0.499981	1.129367
O424	O	1.236899	0.749981	1.379367
C425	C	0.526707	-0.000031	0.406815
C426	C	0.776707	0.249969	0.656815
C427	C	1.026707	0.499969	0.906815
C428	C	1.276707	0.749969	1.156815
C429	C	0.571045	-0.000041	0.387694
C430	C	0.821045	0.249959	0.637694
C431	C	1.071045	0.499959	0.887694
C432	C	1.321045	0.749959	1.137694
C433	C	0.659202	-0.000054	0.399864
C434	C	0.909202	0.249946	0.649864
C435	C	1.159202	0.499946	0.899864
C436	C	1.409202	0.749946	1.149864
C437	C	0.659714	-0.000059	0.349452
C438	C	0.909714	0.249941	0.599452
C439	C	1.159714	0.499941	0.849452
C440	C	1.409714	0.749941	1.099452
C441	C	0.615892	-0.000054	0.318161
C442	C	0.865892	0.249946	0.568161
C443	C	1.115892	0.499946	0.818161
C444	C	1.365892	0.749946	1.068161
C445	C	0.571557	-0.000045	0.337282
C446	C	0.821557	0.249955	0.587282
C447	C	1.071557	0.499955	0.837282
C448	C	1.321557	0.749955	1.087282
C449	C	0.482882	-0.000022	0.375521
C450	C	0.732882	0.249978	0.625521
C451	C	0.982882	0.499978	0.875521
C452	C	1.232882	0.749978	1.125521
C453	C	0.483399	-0.000021	0.325104
C454	C	0.733399	0.249979	0.575104
C455	C	0.983399	0.499979	0.825104
C456	C	1.233399	0.749979	1.075104
C457	C	0.527737	-0.000031	0.305983
C458	C	0.777737	0.249969	0.555983
C459	C	1.027737	0.499969	0.805983
C460	C	1.277737	0.749969	1.055983
C461	C	0.528247	-0.000045	0.255580
C462	C	0.778247	0.249955	0.505580
C463	C	1.028247	0.499955	0.755580
C464	C	1.278247	0.749955	1.005580
N465	N	0.572583	-0.000050	0.236456
N466	N	0.822583	0.249950	0.486456
N467	N	1.072583	0.499950	0.736456
N468	N	1.322583	0.749950	0.986456
C469	C	0.616405	-0.000054	0.267747
C470	C	0.866405	0.249946	0.517747
C471	C	1.116405	0.499946	0.767747
C472	C	1.366405	0.749946	1.017747
C473	C	0.523582	-0.000027	0.714348
C474	C	0.773582	0.249973	0.964348
C475	C	1.023582	0.499973	1.214348
C476	C	1.273582	0.749973	1.464348
C477	C	0.523069	-0.000027	0.764762
C478	C	0.773069	0.249973	1.014762
C479	C	1.023069	0.499973	1.264762
C480	C	1.273069	0.749973	1.514762
C481	C	0.611230	-0.000036	0.776930
C482	C	0.861230	0.249964	1.026930
C483	C	1.111230	0.499964	1.276930
C484	C	1.361230	0.749964	1.526930
C485	C	0.611742	-0.000040	0.726514
C486	C	0.861742	0.249960	0.976514
C487	C	1.111742	0.499960	1.226514
C488	C	1.361742	0.749960	1.476514
C489	C	0.567917	-0.000031	0.695224
C490	C	0.817917	0.249969	0.945224
C491	C	1.067917	0.499969	1.195224
C492	C	1.317917	0.749969	1.445224
C493	C	0.617477	-0.000064	0.161878
C494	C	0.867477	0.249936	0.411878
C495	C	1.117477	0.499936	0.661878
C496	C	1.367477	0.749936	0.911878
C497	C	0.617986	-0.000071	0.111461
C498	C	0.867986	0.249929	0.361461
C499	C	1.117986	0.499929	0.611461
C500	C	1.367986	0.749929	0.861461
C501	C	0.529825	-0.000059	0.099298
C502	C	0.779825	0.249941	0.349298
C503	C	1.029825	0.499941	0.599298
C504	C	1.279825	0.749941	0.849298
C505	C	0.529316	-0.000055	0.149710
C506	C	0.779316	0.249945	0.399710
C507	C	1.029316	0.499945	0.649710
C508	C	1.279316	0.749945	0.899710
C509	C	0.573147	-0.000056	0.180999
C510	C	0.823147	0.249944	0.430999
C511	C	1.073147	0.499944	0.680999
C512	C	1.323147	0.749944	0.930999
O513	O	0.491047	-0.000057	0.224296
O514	O	0.741047	0.249943	0.474296
O515	O	0.991047	0.499943	0.724296
O516	O	1.241047	0.749943	0.974296
O517	O	0.654156	-0.000053	0.246844
O518	O	0.904156	0.249947	0.496844
O519	O	1.154156	0.499947	0.746844
O520	O	1.404156	0.749947	0.996844
C521	C	0.614355	-0.000041	0.469397
C522	C	0.864355	0.249959	0.719397
C523	C	1.114355	0.499959	0.969397
C524	C	1.364355	0.749959	1.219397
C525	C	0.570021	-0.000032	0.488518
C526	C	0.820021	0.249968	0.738518
C527	C	1.070021	0.499968	0.988518
C528	C	1.320021	0.749968	1.238518
C529	C	0.526198	-0.000027	0.457228
C530	C	0.776198	0.249973	0.707228
C531	C	1.026198	0.499973	0.957228
C532	C	1.276198	0.749973	1.207228
C533	C	0.569508	-0.000032	0.538933
C534	C	0.819508	0.249968	0.788933
C535	C	1.069508	0.499968	1.038933
C536	C	1.319508	0.749968	1.288933
C537	C	0.613330	-0.000036	0.570223
C538	C	0.863330	0.249964	0.820223
C539	C	1.113330	0.499964	1.070223
C540	C	1.363330	0.749964	1.320223
C541	C	0.657665	-0.000041	0.551100
C542	C	0.907665	0.249959	0.801100
C543	C	1.157665	0.499959	1.051100
C544	C	1.407665	0.749959	1.301100
C545	C	0.658177	-0.000045	0.500688
C546	C	0.908177	0.249955	0.750688
C547	C	1.158177	0.499955	1.000688
C548	C	1.408177	0.749955	1.250688
C549	C	0.481863	-0.000023	0.476351
C550	C	0.731863	0.249977	0.726351
C551	C	0.981863	0.499977	0.976351
C552	C	1.231863	0.749977	1.226351
C553	C	0.481355	-0.000019	0.526764
C554	C	0.731355	0.249981	0.776764
C555	C	0.981355	0.499981	1.026764
C556	C	1.231355	0.749981	1.276764
C557	C	0.525177	-0.000023	0.558054
C558	C	0.775177	0.249977	0.808054
C559	C	1.025177	0.499977	1.058054
C560	C	1.275177	0.749977	1.308054
H561	H	0.412743	-0.000021	-0.145454
H562	H	0.662743	0.249979	0.104546
H563	H	0.912743	0.499979	0.354546
H564	H	1.162743	0.749979	0.604546
H565	H	0.434827	-0.000047	0.014492
H566	H	0.684827	0.249953	0.264492
H567	H	0.934827	0.499953	0.514492
H568	H	1.184827	0.749953	0.764492
H569	H	0.694889	-0.000056	0.425336
H570	H	0.944889	0.249944	0.675336
H571	H	1.194889	0.499944	0.925336
H572	H	1.444889	0.749944	1.175336
H573	H	0.663720	-0.374345	0.031258
H574	H	0.913720	-0.124345	0.281258
H575	H	1.163720	0.125655	0.531258
H576	H	1.413720	0.375655	0.781258
H577	H	0.630630	-0.865951	-0.001820
H578	H	0.880630	-0.615951	0.248180
H579	H	1.130630	-0.365951	0.498180
H580	H	1.380630	-0.115951	0.748180
H581	H	0.630595	-0.134142	-0.001859
H582	H	0.880595	0.115858	0.248141
H583	H	1.130595	0.365858	0.498141
H584	H	1.380595	0.615858	0.748141
F585	F	0.475878	-0.000026	0.785106
F586	F	0.725878	0.249974	1.035106
F587	F	0.975878	0.499974	1.285106
F588	F	1.225878	0.749974	1.535106
H589	H	0.663722	-0.469068	0.031266
H590	H	0.913722	-0.219068	0.281266
H591	H	1.163722	0.030932	0.531266
H592	H	1.413722	0.280932	0.781266
H593	H	-0.067947	-0.000046	-0.184708
H594	H	0.182053	0.249954	0.065292
H595	H	0.432053	0.499954	0.315292
H596	H	0.682053	0.749954	0.565292
F597	F	-0.172413	-0.000079	0.031705
F598	F	0.077587	0.249921	0.281705
F599	F	0.327587	0.499921	0.531705
F600	F	0.577587	0.749921	0.781705
F601	F	0.704304	-0.000048	0.584410
F602	F	0.954304	0.249952	0.834410
F603	F	1.204304	0.499952	1.084410
F604	F	1.454304	0.749952	1.334410
F605	F	0.482127	-0.000054	0.170060
F606	F	0.732127	0.249946	0.420060
F607	F	0.982127	0.499946	0.670060
F608	F	1.232127	0.749946	0.920060
H609	H	0.477330	-0.531024	-0.155015
H610	H	0.727330	-0.281024	0.094985
H611	H	0.977330	-0.031024	0.344985
H612	H	1.227330	0.218976	0.594985
H613	H	0.445246	-0.000015	0.542327
H614	H	0.695246	0.249985	0.792327
H615	H	0.945246	0.499985	1.042327
H616	H	1.195246	0.749985	1.292327
F617	F	0.657869	-0.000040	0.810240
F618	F	0.907869	0.249960	1.060240
F619	F	1.157869	0.499960	1.310240
F620	F	1.407869	0.749960	1.560240
H621	H	0.630630	-0.771211	-0.001822
H622	H	0.880630	-0.521211	0.248178
H623	H	1.130630	-0.271211	0.498178
H624	H	1.380630	-0.021211	0.748178
H625	H	0.510433	-0.228896	-0.121951
H626	H	0.760433	0.021104	0.128049
H627	H	1.010433	0.271104	0.378049
H628	H	1.260433	0.521104	0.628049
F629	F	-0.276468	-0.000068	0.032761
F630	F	-0.026468	0.249932	0.282761
F631	F	0.223532	0.499932	0.532761
F632	F	0.473532	0.749932	0.782761
F633	F	0.502191	-0.872486	-0.130195
F634	F	0.752191	-0.622486	0.119805
F635	F	1.002191	-0.372486	0.369805
F636	F	1.252191	-0.122486	0.619805
H637	H	0.487892	-0.000020	0.688875
H638	H	0.737892	0.249980	0.938875
H639	H	0.987892	0.499980	1.188875
H640	H	1.237892	0.749980	1.438875
F641	F	0.638878	-0.235394	0.006434
F642	F	0.888878	0.014606	0.256434
F643	F	1.138878	0.264606	0.506434
F644	F	1.388878	0.514606	0.756434
H645	H	0.083302	-0.000038	-0.186251
H646	H	0.333302	0.249962	0.063749
H647	H	0.583302	0.499962	0.313749
H648	H	0.833302	0.749962	0.563749
H649	H	0.654093	-0.000080	0.095896
H650	H	0.904093	0.249920	0.345896
H651	H	1.154093	0.499920	0.595896
H652	H	1.404093	0.749920	0.845896
H653	H	0.663725	-0.530995	0.031269
H654	H	0.913725	-0.280995	0.281269
H655	H	1.163725	-0.030995	0.531269
H656	H	1.413725	0.219005	0.781269
H657	H	0.510457	-0.771232	-0.121917
H658	H	0.760457	-0.521232	0.128083
H659	H	1.010457	-0.271232	0.378083
H660	H	1.260457	-0.021232	0.628083
H661	H	0.117558	-0.000088	0.061861
H662	H	0.367558	0.249912	0.311861
H663	H	0.617558	0.499912	0.561861
H664	H	0.867558	0.749912	0.811861
F665	F	0.664126	-0.000065	0.195171
F666	F	0.914126	0.249935	0.445171
F667	F	1.164126	0.499935	0.695171
F668	F	1.414126	0.749935	0.945171
F669	F	0.672006	-0.632259	0.039547
F670	F	0.922006	-0.382259	0.289547
F671	F	1.172006	-0.132259	0.539547
F672	F	1.422006	0.117741	0.789547
H673	H	0.510430	-0.134157	-0.121952
H674	H	0.760430	0.115843	0.128048
H675	H	1.010430	0.365843	0.378048
H676	H	1.260430	0.615843	0.628048
F677	F	0.706905	-0.000058	0.329109
F678	F	0.956905	0.249942	0.579109
F679	F	1.206905	0.499942	0.829109
F680	F	1.456905	0.749942	1.079109
H681	H	0.446777	-0.000011	0.391080
H682	H	0.696777	0.249989	0.641080
H683	H	0.946777	0.499989	0.891080
H684	H	1.196777	0.749989	1.141080
H685	H	0.647846	-0.000047	0.710950
H686	H	0.897846	0.249953	0.960950
H687	H	1.147846	0.499953	1.210950
H688	H	1.397846	0.749953	1.460950
F689	F	0.313468	-0.000033	-0.155488
F690	F	0.563468	0.249967	0.094512
F691	F	0.813468	0.499967	0.344512
F692	F	1.063468	0.749967	0.594512
H693	H	0.446177	-0.000018	0.450879
H694	H	0.696177	0.249982	0.700879
H695	H	0.946177	0.499982	0.950879
H696	H	1.196177	0.749982	1.200879
H697	H	0.174750	-0.000029	-0.187180
H698	H	0.424750	0.249971	0.062820
H699	H	0.674750	0.499971	0.312820
H700	H	0.924750	0.749971	0.562820
H701	H	-0.202311	-0.000047	-0.139207
H702	H	0.047689	0.249953	0.110793
H703	H	0.297689	0.499953	0.360793
H704	H	0.547689	0.749953	0.610793
H705	H	-0.293777	-0.000051	-0.138273
H706	H	-0.043777	0.249949	0.111727
H707	H	0.206223	0.499949	0.361727
H708	H	0.456223	0.749949	0.611727
F709	F	0.065583	-0.000084	0.073420
F710	F	0.315583	0.249916	0.323420
F711	F	0.565583	0.499916	0.573420
F712	F	0.815583	0.749916	0.823420
F713	F	0.216833	-0.000092	0.071886
F714	F	0.466833	0.249908	0.321886
F715	F	0.716833	0.499908	0.571886
F716	F	0.966833	0.749908	0.821886
F717	F	0.469054	-0.632276	-0.163287
F718	F	0.719054	-0.382276	0.086713
F719	F	0.969054	-0.132276	0.336713
F720	F	1.219054	0.117724	0.586713
F721	F	0.338578	-0.000059	0.026511
F722	F	0.588578	0.249941	0.276511
F723	F	0.838578	0.499941	0.526511
F724	F	1.088578	0.749941	0.776511
F725	F	-0.038469	-0.000085	0.074478
F726	F	0.211531	0.249915	0.324478
F727	F	0.461531	0.499915	0.574478
F728	F	0.711531	0.749915	0.824478
H729	H	0.447710	-0.000014	0.299629
H730	H	0.697710	0.249986	0.549629
H731	H	0.947710	0.499986	0.799629
H732	H	1.197710	0.749986	1.049629
H733	H	0.477317	-0.469089	-0.155019
H734	H	0.727317	-0.219089	0.094981
H735	H	0.977317	0.030911	0.344981
H736	H	1.227317	0.280911	0.594981
F737	F	0.469029	-0.367836	-0.163294
F738	F	0.719029	-0.117836	0.086706
F739	F	0.969029	0.132164	0.336706
F740	F	1.219029	0.382164	0.586706
F741	F	0.705368	-0.000053	0.480345
F742	F	0.955368	0.249947	0.730345
F743	F	1.205368	0.499947	0.980345
F744	F	1.455368	0.749947	1.230345
F745	F	0.028294	-0.000038	-0.196730
F746	F	0.278294	0.249962	0.053270
F747	F	0.528294	0.499962	0.303270
F748	F	0.778294	0.749962	0.553270
F749	F	0.483189	-0.000054	0.065987
F750	F	0.733189	0.249946	0.315987
F751	F	0.983189	0.499946	0.565987
F752	F	1.233189	0.749946	0.815987
