data_functionalizedCrystal
_audit_creation_method	'MofGen! by Chris Wilmer'
_symmetry_space_group_name_H-M	'P1'
_symmetry_Int_Tables_number	1
_symmetry_cell_setting	triclinic
loop_
_symmetry_equiv_pos_as_xyz
  x,y,z
_cell_length_a	10.654541
_cell_length_b	14.519709
_cell_length_c	9.730217
_cell_angle_alpha	89.995799
_cell_angle_beta	89.999932
_cell_angle_gamma	84.082037
loop_
_atom_site_label
_atom_site_type_symbol
_atom_site_fract_x
_atom_site_fract_y
_atom_site_fract_z
O1	O	1.666593	0.129520	-0.114251
O2	O	1.300995	0.141863	-0.114263
O3	O	1.493488	0.001504	-0.114245
O4	O	1.474101	0.269880	-0.114270
O5	O	1.493482	0.001502	0.114335
O6	O	1.300990	0.141862	0.114317
O7	O	1.666587	0.129519	0.114329
Zn8	Zn	1.483787	0.135690	0.150615
Zn9	Zn	1.483795	0.135692	-0.150549
O10	O	1.474095	0.269879	0.114310
C11	C	1.254203	0.140957	0.000025
C12	C	1.114786	0.138247	0.000021
C13	C	1.085201	0.306085	-0.000012
C14	C	1.004912	0.388727	-0.000034
C15	C	0.873919	0.386175	-0.000035
C16	C	0.823213	0.300972	-0.000010
C17	C	0.903502	0.218330	0.000012
C18	C	1.034496	0.220891	0.000009
C19	C	0.933086	0.050493	0.000055
C20	C	1.064080	0.053043	0.000046
C21	C	0.882380	-0.034710	0.000080
C22	C	0.962669	-0.117354	0.000092
C23	C	1.093670	-0.114798	0.000091
C24	C	1.144369	-0.029599	0.000068
C25	C	1.492581	-0.032862	0.000046
C26	C	1.489874	-0.135257	0.000046
C27	C	1.479906	-0.510204	0.000010
C28	C	1.482674	-0.405882	0.000021
C29	C	1.484890	-0.322734	0.000030
C30	C	1.487658	-0.218405	0.000037
C31	C	1.713380	0.130425	0.000037
C32	C	1.852797	0.133135	0.000033
C33	C	1.475002	0.304244	0.000017
C34	C	1.477709	0.406639	0.000007
N35	N	1.483791	0.135689	0.356151
N36	N	1.483801	0.135686	-0.356086
C37	C	1.654312	0.011436	0.356159
C38	C	1.739581	-0.050687	0.428102
C39	C	1.739594	-0.050688	0.571982
C40	C	1.654326	0.011440	0.643921
C41	C	1.569057	0.073564	0.571978
C42	C	1.569056	0.073559	0.428095
C43	C	1.398532	0.197810	0.571971
C44	C	1.398523	0.197816	0.428091
C45	C	1.313264	0.259938	0.643910
C46	C	1.227999	0.322067	0.571967
C47	C	1.227991	0.322066	0.428078
C48	C	1.313254	0.259940	0.356147
H49	H	1.251028	-0.027510	0.000051
H50	H	1.158550	0.372650	0.369509
H51	H	1.159035	-0.182096	0.000114
H52	H	0.716550	0.298901	0.000005
C53	C	1.833382	-0.119021	0.651129
H54	H	1.821166	-0.110123	0.747121
H55	H	1.917213	-0.108432	0.627546
H56	H	1.819607	-0.180670	0.627564
H57	H	1.158575	0.372643	0.630549
H58	H	1.313260	0.259936	0.238993
H59	H	0.921373	-0.186720	0.000111
H60	H	1.191861	0.308172	-0.000042
H61	H	1.654332	0.011428	0.761076
H62	H	1.313273	0.259931	0.761065
H63	H	1.046212	0.458098	-0.000051
C64	C	0.785599	0.477078	-0.000068
H65	H	0.834552	0.528188	-0.000092
H66	H	0.733875	0.479576	0.079637
H67	H	0.733893	0.479557	-0.079795
H68	H	0.775717	-0.036782	0.000086
C69	C	1.654307	0.011445	0.197895
H70	H	1.591319	0.057346	0.165352
H71	H	1.637007	-0.047618	0.165345
H72	H	1.734597	0.024632	0.165350
H73	H	1.809004	-0.101273	0.369517
