data_functionalizedCrystal
_audit_creation_method	'MofGen! by Chris Wilmer'
_symmetry_space_group_name_H-M	'P1'
_symmetry_Int_Tables_number	1
_symmetry_cell_setting	triclinic
loop_
_symmetry_equiv_pos_as_xyz
  x,y,z
_cell_length_a	17.699097
_cell_length_b	14.971486
_cell_length_c	13.448316
_cell_angle_alpha	90.006811
_cell_angle_beta	89.989643
_cell_angle_gamma	96.548721
loop_
_atom_site_label
_atom_site_type_symbol
_atom_site_fract_x
_atom_site_fract_y
_atom_site_fract_z
O1	O	1.004350	-0.113169	-0.082775
O2	O	0.784009	-0.127873	-0.082759
O3	O	0.900086	0.009699	-0.082760
O4	O	0.888274	-0.250741	-0.082774
O5	O	0.900071	0.009708	0.082624
O6	O	0.783995	-0.127864	0.082625
O7	O	1.004336	-0.113161	0.082609
Cu8	Cu	0.894164	-0.120512	0.097718
Cu9	Cu	0.894181	-0.120522	-0.097868
O10	O	0.888260	-0.250733	0.082610
C11	C	0.755804	-0.127340	-0.000065
C12	C	0.671783	-0.125753	-0.000059
C13	C	0.156048	-0.116032	-0.090249
C14	C	0.234996	-0.117517	-0.090244
C15	C	0.274456	-0.118256	-0.000089
C16	C	0.234965	-0.117501	0.090066
C17	C	0.156019	-0.116010	0.090061
C18	C	0.553344	-0.123514	0.090092
C19	C	0.632295	-0.125008	0.090091
C20	C	0.632321	-0.125020	-0.090212
C21	C	0.553375	-0.123529	-0.090218
C22	C	0.513891	-0.122770	-0.000063
C23	C	0.428287	-0.121158	-0.000069
C24	C	0.360058	-0.119874	-0.000082
C25	C	0.899550	0.043026	-0.000069
C26	C	0.897967	0.142318	-0.000069
C27	C	1.032541	-0.113694	-0.000087
C28	C	1.116563	-0.115280	-0.000100
C29	C	0.888795	-0.284060	-0.000084
C30	C	0.890378	-0.383351	-0.000089
N31	N	0.894157	-0.120504	0.235282
C32	C	0.966159	0.199774	-0.000074
C33	C	0.964667	0.293068	-0.000084
C34	C	0.894983	0.328905	-0.000082
C35	C	0.826786	0.271442	-0.000081
C36	C	0.828278	0.178149	-0.000078
C37	C	0.823679	0.465894	-0.000084
C38	C	0.822186	0.559193	-0.000085
C39	C	0.960068	0.580813	-0.000090
C40	C	0.961561	0.487520	-0.000087
C41	C	0.893363	0.430063	-0.000084
N42	N	0.894194	-0.120522	-0.235432
C43	C	0.945572	-0.059612	0.287322
C44	C	0.945577	-0.059612	0.391425
C45	C	0.894170	-0.120508	0.443487
C46	C	0.842750	-0.181402	0.391440
C47	C	0.842742	-0.181398	0.287338
C48	C	0.842771	-0.181408	0.608420
C49	C	0.842779	-0.181414	0.712528
C50	C	0.945605	-0.059622	0.712506
C51	C	0.945598	-0.059617	0.608405
C52	C	0.894178	-0.120514	0.556365
H53	H	0.123870	-0.115407	0.163469
C54	C	1.047205	0.060780	0.297768
C55	C	1.002079	0.007330	0.230101
H56	H	1.082086	0.102112	0.262442
H57	H	1.074462	0.023584	0.338350
H58	H	1.015667	0.092903	0.338392
H59	H	1.033616	-0.024799	0.189481
H60	H	0.974820	0.044530	0.189501
C61	C	0.356026	-0.119808	-0.170299
C62	C	0.278399	-0.118349	-0.189338
H63	H	0.382820	-0.120316	-0.231480
H64	H	0.363231	-0.172182	-0.133259
H65	H	0.374674	-0.067903	-0.133259
H66	H	0.259750	-0.170258	-0.226372
H67	H	0.271189	-0.065970	-0.226393
H68	H	0.664421	-0.125609	0.163511
H69	H	0.123925	-0.115437	-0.163664
H70	H	0.521250	-0.122932	-0.163631
H71	H	1.020195	0.339846	-0.000085
H72	H	0.800897	-0.230994	0.566052
C73	C	0.989938	0.095294	0.744549
C74	C	1.002130	0.007320	0.769698
H75	H	1.024839	0.136614	0.779855
H76	H	0.939430	0.104938	0.761639
H77	H	0.997289	0.103994	0.675097
H78	H	0.994773	-0.001383	0.839149
H79	H	1.052649	-0.002329	0.752615
H80	H	0.521207	-0.122882	0.163502
H81	H	0.987460	-0.010036	0.566017
H82	H	0.768146	0.419114	-0.000084
C83	C	1.038400	0.698244	-0.085132
C84	C	1.035035	0.643961	-0.000106
H85	H	1.084683	0.737226	-0.085141
H86	H	0.996694	0.732939	-0.085127
H87	H	1.036118	0.661378	-0.142793
H88	H	1.037311	0.680827	0.057555
H89	H	1.076753	0.609264	-0.000102
C90	C	1.043215	0.395155	0.084933
C91	C	1.038157	0.448125	-0.000087
H92	H	1.090505	0.370840	0.084932
H93	H	1.002817	0.347592	0.084929
H94	H	1.039764	0.431117	0.142598
H95	H	1.041602	0.412162	-0.057752
H96	H	1.078566	0.495695	-0.000092
H97	H	0.267100	-0.118098	0.163472
C98	C	0.769345	0.025535	-0.000078
C99	C	0.753321	0.114989	-0.000074
H100	H	0.723067	-0.013455	-0.000086
H101	H	0.797903	0.014698	0.057591
H102	H	0.797924	0.014694	-0.057756
H103	H	0.724747	0.125831	0.057608
H104	H	0.724751	0.125830	-0.057749
C105	C	0.798433	-0.336309	0.255265
C106	C	0.786230	-0.248335	0.230130
H107	H	0.763545	-0.377630	0.219941
H108	H	0.791078	-0.345022	0.324705
H109	H	0.848952	-0.345939	0.238178
H110	H	0.735712	-0.238703	0.247224
H111	H	0.793579	-0.239618	0.160674
C112	C	0.739783	-0.200960	0.508556
C113	C	0.786243	-0.248339	0.448668
H114	H	0.704902	-0.242288	0.543890
H115	H	0.712524	-0.163774	0.467963
H116	H	0.770415	-0.164698	0.554443
H117	H	0.755611	-0.284597	0.402776
H118	H	0.813503	-0.285541	0.489265
H119	H	1.022904	0.170604	-0.000069
H120	H	0.800918	-0.231001	0.754912
H121	H	0.664478	-0.125635	-0.163621
H122	H	0.765444	0.588368	-0.000068
H123	H	0.987441	-0.010028	0.433795
C124	C	0.745130	0.363811	-0.085093
C125	C	0.750188	0.310835	-0.000079
H126	H	0.697843	0.388133	-0.085085
H127	H	0.748579	0.327860	-0.142756
H128	H	0.785534	0.411379	-0.085085
H129	H	0.709787	0.263263	-0.000091
H130	H	0.746732	0.346788	0.057599
