data_functionalizedCrystal
_audit_creation_method	'MofGen! by Chris Wilmer'
_symmetry_space_group_name_H-M	'P1'
_symmetry_Int_Tables_number	1
_symmetry_cell_setting	triclinic
loop_
_symmetry_equiv_pos_as_xyz
  x,y,z
_cell_length_a	14.044220
_cell_length_b	11.792241
_cell_length_c	12.503572
_cell_angle_alpha	93.547243
_cell_angle_beta	86.164750
_cell_angle_gamma	88.691147
loop_
_atom_site_label
_atom_site_type_symbol
_atom_site_fract_x
_atom_site_fract_y
_atom_site_fract_z
O1	O	1.264542	0.267762	-0.089207
O2	O	0.988523	0.257881	-0.089234
O3	O	1.133230	0.098280	-0.089212
O4	O	1.119835	0.427363	-0.089229
O5	O	1.122348	0.110305	0.089428
O6	O	0.977641	0.269906	0.089406
O7	O	1.253659	0.279786	0.089434
Cu8	Cu	1.114656	0.275944	0.105731
Cu9	Cu	1.127526	0.261723	-0.105532
O10	O	1.108952	0.439387	0.089412
C11	C	0.947746	0.259569	0.000083
C12	C	0.842454	0.246669	0.000073
C13	C	1.126948	0.061923	0.000108
C14	C	1.124429	-0.064328	0.000106
C15	C	1.119799	-0.295476	0.000088
C16	C	1.122371	-0.166848	0.000098
C17	C	0.649670	0.223088	0.000095
C18	C	0.592507	0.314573	0.000095
C19	C	0.485236	0.301453	0.000108
C20	C	0.756952	0.236207	0.000083
C21	C	1.294437	0.278099	0.000114
C22	C	1.399729	0.290998	0.000118
C23	C	1.115235	0.475745	0.000090
C24	C	1.117754	0.601994	0.000084
N25	N	1.105611	0.285946	0.254322
N26	N	1.136579	0.251713	-0.254123
C27	C	1.092305	0.300669	0.473435
C28	C	1.149882	0.236994	0.526771
C29	C	1.142478	0.245186	0.648693
C30	C	1.099708	0.292478	0.351502
H31	H	0.624132	0.402750	0.000086
H32	H	0.618047	0.134919	0.000105
O33	O	1.026827	0.372894	0.528309
C34	C	0.889823	0.392542	0.655411
C35	C	0.963926	0.310624	0.593335
H36	H	0.838937	0.342227	0.707982
H37	H	0.927952	0.456817	0.708130
H38	H	0.847679	0.439231	0.596008
H39	H	1.006093	0.263857	0.652660
H40	H	0.925740	0.246421	0.540600
O41	O	1.215127	0.164492	0.471851
C42	C	1.281775	0.089723	0.298489
C43	C	1.207975	0.172037	0.360558
H44	H	1.276004	0.095778	0.208498
H45	H	1.356660	0.113259	0.320283
H46	H	1.267249	-0.000876	0.320749
H47	H	1.222412	0.262663	0.338331
H48	H	1.133113	0.148404	0.338759
