data_functionalizedCrystal
_audit_creation_method	'MofGen! by Chris Wilmer'
_symmetry_space_group_name_H-M	'P1'
_symmetry_Int_Tables_number	1
_symmetry_cell_setting	triclinic
loop_
_symmetry_equiv_pos_as_xyz
  x,y,z
_cell_length_a	17.699083
_cell_length_b	14.472311
_cell_length_c	17.699083
_cell_angle_alpha	90.003543
_cell_angle_beta	96.716985
_cell_angle_gamma	90.003549
loop_
_atom_site_label
_atom_site_type_symbol
_atom_site_fract_x
_atom_site_fract_y
_atom_site_fract_z
O1	O	1.004074	-0.076713	-0.095709
O2	O	0.783695	-0.076744	-0.108162
O3	O	0.900111	-0.076719	0.008254
O4	O	0.887658	-0.076738	-0.212125
O5	O	0.900105	0.076963	0.008253
O6	O	0.783689	0.076938	-0.108162
O7	O	1.004068	0.076969	-0.095710
Cu8	Cu	0.893878	0.090986	-0.101936
Cu9	Cu	0.893885	-0.090761	-0.101935
O10	O	0.887652	0.076944	-0.212125
C11	C	0.755495	0.000093	-0.107716
C12	C	0.671477	0.000082	-0.106377
C13	C	0.622856	0.000077	-0.174710
C14	C	0.543913	0.000089	-0.173448
C15	C	0.513592	0.000100	-0.103852
C16	C	0.562219	0.000108	-0.035513
C17	C	0.641161	0.000102	-0.036776
C18	C	0.243856	0.000131	-0.030418
C19	C	0.164908	0.000134	-0.029160
C20	C	0.146608	0.000118	-0.167090
C21	C	0.225550	0.000112	-0.168353
C22	C	0.274170	0.000125	-0.100015
C23	C	0.359769	0.000114	-0.101384
C24	C	0.427995	0.000104	-0.102481
N25	N	0.893891	-0.218592	-0.101929
C26	C	0.893883	-0.592683	-0.101934
C27	C	0.956105	-0.553475	-0.039579
C28	C	0.956328	-0.446387	-0.039737
C29	C	0.893887	-0.407092	-0.101931
C30	C	0.910785	-0.445971	-0.180933
C31	C	0.911230	-0.553092	-0.180568
C32	C	0.814574	-0.553213	-0.085998
C33	C	0.815109	-0.446084	-0.084200
C34	C	0.893887	-0.302204	-0.101934
C35	C	0.893883	-0.697571	-0.101936
C36	C	1.032268	0.000130	-0.096156
C37	C	1.116286	0.000135	-0.097494
C38	C	0.899662	0.000122	0.036451
C39	C	0.898323	0.000122	0.120469
N40	N	0.893878	0.218817	-0.101936
C41	C	0.888102	0.000101	-0.240322
C42	C	0.889440	0.000095	-0.324340
C43	C	0.966656	0.000133	0.169090
C44	C	0.965394	0.000124	0.248033
C45	C	0.895798	0.000112	0.278354
C46	C	0.827459	0.000098	0.229727
C47	C	0.828722	0.000100	0.150785
C48	C	0.822364	0.000090	0.548090
C49	C	0.821106	0.000091	0.627038
C50	C	0.959036	0.000114	0.645338
C51	C	0.960299	0.000116	0.566396
C52	C	0.891961	0.000098	0.517776
C53	C	0.893330	0.000105	0.432177
C54	C	0.894427	0.000111	0.363951
H55	H	0.107012	0.000112	-0.222734
H56	H	0.764429	0.000083	0.651721
H57	H	1.014680	0.000125	0.684934
Br58	Br	0.266696	0.000089	-0.262808
H59	H	0.504328	0.000083	-0.229092
Br60	Br	0.729619	0.000059	0.482115
H61	H	0.140225	0.000144	0.027517
H62	H	0.770792	0.000082	0.254420
Br63	Br	0.939700	-0.596406	0.058628
H64	H	0.773078	0.000091	0.111198
Br65	Br	0.737403	-0.595473	-0.161787
H66	H	0.647537	0.000067	-0.231384
H67	H	0.766661	-0.419340	-0.126670
H68	H	0.283434	0.000142	0.025228
Br69	Br	0.839135	-0.596326	-0.260756
Br70	Br	0.521071	0.000131	0.058941
Br71	Br	0.837232	-0.403558	-0.260138
H72	H	1.021038	0.000135	0.287618
Br73	Br	0.707148	0.000117	0.055966
Br74	Br	1.006065	-0.401243	-0.204901
H75	H	0.946318	-0.420100	0.018987
H76	H	1.014633	-0.580398	-0.049612
H77	H	1.016971	0.000131	0.541714
H78	H	1.015189	-0.420752	-0.049922
Br79	Br	1.007613	-0.594727	-0.203966
Br80	Br	1.061114	0.000163	0.127948
H81	H	0.798249	-0.580232	-0.029621
H82	H	0.802278	-0.420675	-0.026084
