data_functionalizedCrystal
_audit_creation_method	'MofGen! by Chris Wilmer'
_symmetry_space_group_name_H-M	'P1'
_symmetry_Int_Tables_number	1
_symmetry_cell_setting	triclinic
loop_
_symmetry_equiv_pos_as_xyz
  x,y,z
_cell_length_a	15.944551
_cell_length_b	15.944493
_cell_length_c	13.101039
_cell_angle_alpha	93.367629
_cell_angle_beta	86.646591
_cell_angle_gamma	83.486891
loop_
_atom_site_label
_atom_site_type_symbol
_atom_site_fract_x
_atom_site_fract_y
_atom_site_fract_z
O1	O	1.119117	0.103706	-0.085094
O2	O	1.369117	0.353706	0.164906
O3	O	1.619117	0.603706	0.414906
O4	O	1.869117	0.853706	0.664906
O5	O	0.874565	0.117061	-0.085118
O6	O	1.124565	0.367061	0.164882
O7	O	1.374565	0.617061	0.414882
O8	O	1.624565	0.867061	0.664882
O9	O	1.003545	-0.011895	-0.085114
O10	O	1.253545	0.238105	0.164886
O11	O	1.503545	0.488105	0.414886
O12	O	1.753545	0.738105	0.664886
O13	O	0.990137	0.232662	-0.085098
O14	O	1.240137	0.482662	0.164902
O15	O	1.490137	0.732662	0.414902
O16	O	1.740137	0.982662	0.664902
O17	O	0.994291	-0.002627	0.085315
O18	O	1.244291	0.247373	0.335315
O19	O	1.494291	0.497373	0.585315
O20	O	1.744291	0.747373	0.835315
O21	O	0.865311	0.126329	0.085311
O22	O	1.115311	0.376329	0.335311
O23	O	1.365311	0.626329	0.585311
O24	O	1.615311	0.876329	0.835311
O25	O	1.109862	0.112973	0.085335
O26	O	1.359862	0.362973	0.335335
O27	O	1.609862	0.612973	0.585335
O28	O	1.859862	0.862973	0.835335
Zn29	Zn	0.986118	0.121123	0.112383
Zn30	Zn	1.236118	0.371123	0.362383
Zn31	Zn	1.486118	0.621123	0.612383
Zn32	Zn	1.736118	0.871123	0.862383
Zn33	Zn	0.998310	0.108912	-0.112166
Zn34	Zn	1.248310	0.358912	0.137834
Zn35	Zn	1.498310	0.608912	0.387834
Zn36	Zn	1.748310	0.858912	0.637834
O37	O	0.980883	0.241930	0.085331
O38	O	1.230883	0.491930	0.335331
O39	O	1.480883	0.741930	0.585331
O40	O	1.730883	0.991930	0.835331
C41	C	0.838645	0.121140	0.000093
C42	C	1.088645	0.371140	0.250093
C43	C	1.338645	0.621140	0.500093
C44	C	1.588645	0.871140	0.750093
C45	C	0.745400	0.119477	0.000084
C46	C	0.995400	0.369477	0.250084
C47	C	1.245400	0.619477	0.500084
C48	C	1.495400	0.869477	0.750084
C49	C	0.530559	0.035571	0.000098
C50	C	0.780559	0.285571	0.250098
C51	C	1.030559	0.535571	0.500098
C52	C	1.280559	0.785571	0.750098
C53	C	0.474094	0.069965	-0.083930
C54	C	0.724094	0.319965	0.166070
C55	C	0.974094	0.569965	0.416070
C56	C	1.224094	0.819965	0.666070
C57	C	0.574674	0.116471	0.000095
C58	C	0.824674	0.366471	0.250095
C59	C	1.074674	0.616471	0.500095
C60	C	1.324674	0.866471	0.750095
C61	C	0.464992	0.079122	0.084100
C62	C	0.714992	0.329122	0.334100
C63	C	0.964992	0.579122	0.584100
C64	C	1.214992	0.829122	0.834100
C65	C	0.409761	0.113561	0.000112
C66	C	0.659761	0.363561	0.250112
C67	C	0.909761	0.613561	0.500112
C68	C	1.159761	0.863561	0.750112
C69	C	0.519440	0.150883	-0.084002
C70	C	0.769440	0.400883	0.165998
C71	C	1.019440	0.650883	0.415998
C72	C	1.269440	0.900883	0.665998
C73	C	0.510341	0.160032	0.084104
C74	C	0.760341	0.410032	0.334104
C75	C	1.010341	0.660032	0.584104
C76	C	1.260341	0.910032	0.834104
C77	C	0.453894	0.194484	0.000055
C78	C	0.703894	0.444484	0.250055
C79	C	0.953894	0.694484	0.500055
C80	C	1.203894	0.944484	0.750055
C81	C	0.669676	0.118145	0.000085
C82	C	0.919676	0.368145	0.250085
C83	C	1.169676	0.618145	0.500085
C84	C	1.419676	0.868145	0.750085
C85	C	0.314760	0.111892	0.000114
C86	C	0.564760	0.361892	0.250114
C87	C	0.814760	0.611892	0.500114
C88	C	1.064760	0.861892	0.750114
C89	C	0.998370	-0.038556	0.000096
C90	C	1.248370	0.211444	0.250096
C91	C	1.498370	0.461444	0.500096
C92	C	1.748370	0.711444	0.750096
C93	C	0.996728	-0.131806	0.000083
C94	C	1.246728	0.118194	0.250083
C95	C	1.496728	0.368194	0.500083
C96	C	1.746728	0.618194	0.750083
C97	C	1.072647	-0.367564	0.000110
C98	C	1.322647	-0.117564	0.250110
C99	C	1.572647	0.132436	0.500110
C100	C	1.822647	0.382436	0.750110
C101	C	1.036269	-0.422702	-0.083924
C102	C	1.286269	-0.172702	0.166076
C103	C	1.536269	0.077298	0.416076
C104	C	1.786269	0.327298	0.666076
C105	C	0.993683	-0.302526	0.000095
C106	C	1.243683	-0.052526	0.250095
C107	C	1.493683	0.197474	0.500095
C108	C	1.743683	0.447474	0.750095
C109	C	1.027127	-0.413541	0.084106
C110	C	1.277127	-0.163541	0.334106
C111	C	1.527127	0.086459	0.584106
C112	C	1.777127	0.336459	0.834106
C113	C	0.990748	-0.467435	0.000112
C114	C	1.240748	-0.217435	0.250112
C115	C	1.490748	0.032565	0.500112
C116	C	1.740748	0.282565	0.750112
C117	C	0.957330	-0.356439	-0.084008
C118	C	1.207330	-0.106439	0.165992
C119	C	1.457330	0.143561	0.415992
C120	C	1.707330	0.393561	0.665992
C121	C	0.948196	-0.347271	0.084098
C122	C	1.198196	-0.097271	0.334098
C123	C	1.448196	0.152729	0.584098
C124	C	1.698196	0.402729	0.834098
C125	C	0.911761	-0.402377	0.000043
C126	C	1.161761	-0.152377	0.250043
C127	C	1.411761	0.097623	0.500043
C128	C	1.661761	0.347623	0.750043
C129	C	0.995377	-0.207527	0.000085
C130	C	1.245377	0.042473	0.250085
C131	C	1.495377	0.292473	0.500085
C132	C	1.745377	0.542473	0.750085
C133	C	0.989049	-0.562432	0.000115
C134	C	1.239049	-0.312432	0.250115
C135	C	1.489049	-0.062432	0.500115
C136	C	1.739049	0.187568	0.750115
C137	C	1.145783	0.108894	0.000122
C138	C	1.395783	0.358894	0.250122
C139	C	1.645783	0.608894	0.500122
C140	C	1.895783	0.858894	0.750122
C141	C	1.239029	0.110557	0.000125
C142	C	1.489029	0.360557	0.250125
C143	C	1.739029	0.610557	0.500125
C144	C	1.989029	0.860557	0.750125
C145	C	0.986058	0.268591	0.000119
C146	C	1.236058	0.518591	0.250119
C147	C	1.486058	0.768591	0.500119
C148	C	1.736058	1.018591	0.750119
C149	C	0.987700	0.361840	0.000125
C150	C	1.237700	0.611840	0.250125
C151	C	1.487700	0.861840	0.500125
C152	C	1.737700	1.111840	0.750125
N153	N	0.977802	0.129455	0.265631
N154	N	1.227802	0.379455	0.515631
N155	N	1.477802	0.629455	0.765631
N156	N	1.727802	0.879455	1.015631
N157	N	1.006632	0.100572	-0.265414
N158	N	1.256632	0.350572	-0.015414
N159	N	1.506632	0.600572	0.234586
N160	N	1.756632	0.850572	0.484586
C161	C	0.966489	0.140800	0.474673
C162	C	1.216489	0.390800	0.724673
C163	C	1.466489	0.640800	0.974673
C164	C	1.716489	0.890800	1.224673
C165	C	1.017942	0.089230	0.525550
C166	C	1.267942	0.339230	0.775550
C167	C	1.517942	0.589230	1.025550
C168	C	1.767942	0.839230	1.275550
C169	C	1.011648	0.095543	0.641869
C170	C	1.261648	0.345543	0.891869
C171	C	1.511648	0.595543	1.141869
C172	C	1.761648	0.845543	1.391869
C173	C	0.972783	0.134489	0.358344
C174	C	1.222783	0.384489	0.608344
C175	C	1.472783	0.634489	0.858344
C176	C	1.722783	0.884489	1.108344
H177	H	0.420724	0.261691	0.000012
H178	H	0.670724	0.511691	0.250012
H179	H	0.920724	0.761691	0.500012
H180	H	1.170724	1.011691	0.750012
H181	H	0.457849	0.031885	-0.154975
H182	H	0.707849	0.281885	0.095025
H183	H	0.957849	0.531885	0.345025
H184	H	1.207849	0.781885	0.595025
H185	H	1.056634	-0.438609	0.155146
H186	H	1.306634	-0.188609	0.405146
H187	H	1.556634	0.061391	0.655146
H188	H	1.806634	0.311391	0.905146
H189	H	0.917716	0.189689	0.518469
H190	H	1.167716	0.439689	0.768469
H191	H	1.417716	0.689689	1.018469
H192	H	1.667716	0.939689	1.268469
H193	H	0.563912	-0.031574	-0.000010
H194	H	0.813912	0.218426	0.249990
H195	H	1.063912	0.468426	0.499990
H196	H	1.313912	0.718426	0.749990
H197	H	0.843693	-0.417845	-0.000010
H198	H	1.093693	-0.167845	0.249990
H199	H	1.343693	0.082155	0.499990
H200	H	1.593693	0.332155	0.749990
F201	F	1.084897	-0.465588	-0.176776
F202	F	1.334897	-0.215588	0.073224
F203	F	1.584897	0.034412	0.323224
F204	F	1.834897	0.284412	0.573224
F205	F	0.433707	0.039430	0.176952
F206	F	0.683707	0.289430	0.426952
F207	F	0.933707	0.539430	0.676952
F208	F	1.183707	0.789430	0.926952
F209	F	1.081950	0.025577	0.468304
F210	F	1.331950	0.275577	0.718304
F211	F	1.581950	0.525577	0.968304
F212	F	1.831950	0.775577	1.218304
H213	H	0.911019	-0.314447	0.155139
H214	H	1.161019	-0.064447	0.405139
H215	H	1.411019	0.185553	0.655139
H216	H	1.661019	0.435553	0.905139
F217	F	0.550600	0.190519	-0.176958
F218	F	0.800600	0.440519	0.073042
F219	F	1.050600	0.690519	0.323042
F220	F	1.300600	0.940519	0.573042
H221	H	0.526607	0.198085	0.155151
H222	H	0.776607	0.448085	0.405151
H223	H	1.026607	0.698085	0.655151
H224	H	1.276607	0.948085	0.905151
F225	F	1.161555	-0.347140	0.000011
F226	F	1.411555	-0.097140	0.250011
F227	F	1.661555	0.152860	0.500011
F228	F	1.911555	0.402860	0.750011
H229	H	0.927863	-0.331487	-0.155128
H230	H	1.177863	-0.081487	0.094872
H231	H	1.427863	0.168513	0.344872
H232	H	1.677863	0.418513	0.594872
