data_functionalizedCrystal
_audit_creation_method	'MofGen! by Chris Wilmer'
_symmetry_space_group_name_H-M	'P1'
_symmetry_Int_Tables_number	1
_symmetry_cell_setting	triclinic
loop_
_symmetry_equiv_pos_as_xyz
  x,y,z
_cell_length_a	13.897449
_cell_length_b	25.639239
_cell_length_c	13.897441
_cell_angle_alpha	90.033334
_cell_angle_beta	90.018596
_cell_angle_gamma	90.039966
loop_
_atom_site_label
_atom_site_type_symbol
_atom_site_fract_x
_atom_site_fract_y
_atom_site_fract_z
Zn1	Zn	1.474542	-0.208121	0.545356
Zn2	Zn	1.724542	0.041879	0.795356
Zn3	Zn	1.974542	0.291879	1.045356
Zn4	Zn	2.224542	0.541879	1.295356
Zn5	Zn	1.474382	-0.295562	0.384047
Zn6	Zn	1.724382	-0.045562	0.634047
Zn7	Zn	1.974382	0.204438	0.884047
Zn8	Zn	2.224382	0.454438	1.134047
Zn9	Zn	1.313237	-0.208145	0.384075
Zn10	Zn	1.563237	0.041855	0.634075
Zn11	Zn	1.813237	0.291855	0.884075
Zn12	Zn	2.063237	0.541855	1.134075
Zn13	Zn	1.313153	-0.295529	0.545300
Zn14	Zn	1.563153	-0.045529	0.795300
Zn15	Zn	1.813153	0.204471	1.045300
Zn16	Zn	2.063153	0.454471	1.295300
O17	O	1.393829	-0.251839	0.464694
O18	O	1.643829	-0.001839	0.714694
O19	O	1.893829	0.248161	0.964694
O20	O	2.143829	0.498161	1.214694
O21	O	1.609502	-0.219725	0.523970
O22	O	1.859502	0.030275	0.773970
O23	O	2.109502	0.280275	1.023970
O24	O	2.359502	0.530275	1.273970
O25	O	1.452974	-0.283990	0.249069
O26	O	1.702974	-0.033990	0.499069
O27	O	1.952974	0.216010	0.749069
O28	O	2.202974	0.466010	0.999069
O29	O	1.334736	-0.134976	0.405504
O30	O	1.584736	0.115024	0.655504
O31	O	1.834736	0.365024	0.905504
O32	O	2.084736	0.615024	1.155504
O33	O	1.609385	-0.283967	0.405457
O34	O	1.859385	-0.033967	0.655457
O35	O	2.109385	0.216033	0.905457
O36	O	2.359385	0.466033	1.155457
O37	O	1.453246	-0.134959	0.523997
O38	O	1.703246	0.115041	0.773997
O39	O	1.953246	0.365041	1.023997
O40	O	2.203246	0.615041	1.273997
O41	O	1.334581	-0.219764	0.249089
O42	O	1.584581	0.030236	0.499089
O43	O	1.834581	0.280236	0.749089
O44	O	2.084581	0.530236	0.999089
O45	O	1.178244	-0.219733	0.405449
O46	O	1.428244	0.030267	0.655449
O47	O	1.678244	0.280267	0.905449
O48	O	1.928244	0.530267	1.155449
O49	O	1.334594	-0.283911	0.680289
O50	O	1.584594	-0.033911	0.930289
O51	O	1.834594	0.216089	1.180289
O52	O	2.084594	0.466089	1.430289
O53	O	1.178183	-0.283934	0.523901
O54	O	1.428183	-0.033934	0.773901
O55	O	1.678183	0.216066	1.023901
O56	O	1.928183	0.466066	1.273901
O57	O	1.453165	-0.219693	0.680331
O58	O	1.703165	0.030307	0.930331
O59	O	1.953165	0.280307	1.180331
O60	O	2.203165	0.530307	1.430331
O61	O	1.452894	-0.368723	0.405403
O62	O	1.702894	-0.118723	0.655403
O63	O	1.952894	0.131277	0.905403
O64	O	2.202894	0.381277	1.155403
O65	O	1.334439	-0.368699	0.523874
O66	O	1.584439	-0.118699	0.773874
O67	O	1.834439	0.131301	1.023874
O68	O	2.084439	0.381301	1.273874
C69	C	1.143214	-0.251832	0.464673
C70	C	1.393214	-0.001832	0.714673
C71	C	1.643214	0.248168	0.964673
C72	C	1.893214	0.498168	1.214673
C73	C	1.036000	-0.251842	0.464686
C74	C	1.286000	-0.001842	0.714686
C75	C	1.536000	0.248158	0.964686
C76	C	1.786000	0.498158	1.214686
C77	C	0.839705	-0.251844	0.464711
C78	C	1.089705	-0.001844	0.714711
C79	C	1.339705	0.248156	0.964711
C80	C	1.589705	0.498156	1.214711
C81	C	0.948938	-0.251841	0.464695
C82	C	1.198938	-0.001841	0.714695
C83	C	1.448938	0.248159	0.964695
C84	C	1.698938	0.498159	1.214695
C85	C	1.393666	-0.387682	0.464650
C86	C	1.643666	-0.137682	0.714650
C87	C	1.893666	0.112318	0.964650
C88	C	2.143666	0.362318	1.214650
C89	C	1.393685	-0.445796	0.464664
C90	C	1.643685	-0.195796	0.714664
C91	C	1.893685	0.054204	0.964664
C92	C	2.143685	0.304204	1.214664
C93	C	1.455669	-0.806159	0.403111
C94	C	1.705669	-0.556159	0.653111
C95	C	1.955669	-0.306159	0.903111
C96	C	2.205669	-0.056159	1.153111
C97	C	1.455706	-0.860763	0.403124
C98	C	1.705706	-0.610763	0.653124
C99	C	1.955706	-0.360763	0.903124
C100	C	2.205706	-0.110763	1.153124
O101	O	1.508238	-0.889000	0.350742
O102	O	1.758238	-0.639000	0.600742
O103	O	2.008238	-0.389000	0.850742
O104	O	2.258238	-0.139000	1.100742
N105	N	1.393998	-0.888078	0.464758
N106	N	1.643998	-0.638078	0.714758
N107	N	1.893998	-0.388078	0.964758
N108	N	2.143998	-0.138078	1.214758
C109	C	1.332256	-0.860786	0.526391
C110	C	1.582256	-0.610786	0.776391
C111	C	1.832256	-0.360786	1.026391
C112	C	2.082256	-0.110786	1.276391
O113	O	1.279772	-0.889034	0.578817
O114	O	1.529772	-0.639034	0.828817
O115	O	1.779772	-0.389034	1.078817
O116	O	2.029772	-0.139034	1.328817
C117	C	1.332224	-0.806183	0.526382
C118	C	1.582224	-0.556183	0.776382
C119	C	1.832224	-0.306183	1.026382
C120	C	2.082224	-0.056183	1.276382
C121	C	1.393929	-0.778871	0.464737
C122	C	1.643929	-0.528871	0.714737
C123	C	1.893929	-0.278871	0.964737
C124	C	2.143929	-0.028871	1.214737
C125	C	1.517369	-0.778847	0.341472
C126	C	1.767369	-0.528847	0.591472
C127	C	2.017369	-0.278847	0.841472
C128	C	2.267369	-0.028847	1.091472
C129	C	1.517331	-0.724246	0.341458
C130	C	1.767331	-0.474246	0.591458
C131	C	2.017331	-0.224246	0.841458
C132	C	2.267331	0.025754	1.091458
C133	C	1.455591	-0.696958	0.403084
C134	C	1.705591	-0.446958	0.653084
C135	C	1.955591	-0.196958	0.903084
C136	C	2.205591	0.053042	1.153084
C137	C	1.393890	-0.724270	0.464723
C138	C	1.643890	-0.474270	0.714723
C139	C	1.893890	-0.224270	0.964723
C140	C	2.143890	0.025730	1.214723
C141	C	1.270487	-0.778892	0.588018
C142	C	1.520487	-0.528892	0.838018
C143	C	1.770487	-0.278892	1.088018
C144	C	2.020487	-0.028892	1.338018
C145	C	1.270461	-0.724285	0.588004
C146	C	1.520461	-0.474285	0.838004
C147	C	1.770461	-0.224285	1.088004
C148	C	2.020461	0.025715	1.338004
C149	C	1.332166	-0.696973	0.526359
C150	C	1.582166	-0.446973	0.776359
C151	C	1.832166	-0.196973	1.026359
C152	C	2.082166	0.053027	1.276359
C153	C	1.332111	-0.642382	0.526334
C154	C	1.582111	-0.392382	0.776334
C155	C	1.832111	-0.142382	1.026334
C156	C	2.082111	0.107618	1.276334
N157	N	1.393819	-0.615066	0.464700
N158	N	1.643819	-0.365066	0.714700
N159	N	1.893819	-0.115066	0.964700
N160	N	2.143819	0.134934	1.214700
C161	C	1.455559	-0.642355	0.403075
C162	C	1.705559	-0.392355	0.653075
C163	C	1.955559	-0.142355	0.903075
C164	C	2.205559	0.107645	1.153075
C165	C	1.332328	-0.975457	0.526405
C166	C	1.582328	-0.725457	0.776405
C167	C	1.832328	-0.475457	1.026405
C168	C	2.082328	-0.225457	1.276405
C169	C	1.332354	-1.030059	0.526410
C170	C	1.582354	-0.780059	0.776410
C171	C	1.832354	-0.530059	1.026410
C172	C	2.082354	-0.280059	1.276410
C173	C	1.455806	-1.030033	0.403145
C174	C	1.705806	-0.780033	0.653145
C175	C	1.955806	-0.530033	0.903145
C176	C	2.205806	-0.280033	1.153145
C177	C	1.455775	-0.975429	0.403136
C178	C	1.705775	-0.725429	0.653136
C179	C	1.955775	-0.475429	0.903136
C180	C	2.205775	-0.225429	1.153136
C181	C	1.394036	-0.948142	0.464771
C182	C	1.644036	-0.698142	0.714771
C183	C	1.894036	-0.448142	0.964771
C184	C	2.144036	-0.198142	1.214771
C185	C	1.455472	-0.527690	0.403050
C186	C	1.705472	-0.277690	0.653050
C187	C	1.955472	-0.027690	0.903050
C188	C	2.205472	0.222310	1.153050
C189	C	1.455425	-0.473084	0.403038
C190	C	1.705425	-0.223084	0.653038
C191	C	1.955425	0.026916	0.903038
C192	C	2.205425	0.276916	1.153038
C193	C	1.331977	-0.473116	0.526307
C194	C	1.581977	-0.223116	0.776307
C195	C	1.831977	0.026884	1.026307
C196	C	2.081977	0.276884	1.276307
C197	C	1.332020	-0.527716	0.526315
C198	C	1.582020	-0.277716	0.776315
C199	C	1.832020	-0.027716	1.026315
C200	C	2.082020	0.222284	1.276315
C201	C	1.393776	-0.555002	0.464683
C202	C	1.643776	-0.305002	0.714683
C203	C	1.893776	-0.055002	0.964683
C204	C	2.143776	0.194998	1.214683
O205	O	1.279609	-0.614110	0.578693
O206	O	1.529609	-0.364110	0.828693
O207	O	1.779609	-0.114110	1.078693
O208	O	2.029609	0.135890	1.328693
O209	O	1.508043	-0.614100	0.350666
O210	O	1.758043	-0.364100	0.600666
O211	O	2.008043	-0.114100	0.850666
O212	O	2.258043	0.135900	1.100666
C213	C	1.645421	-0.251847	0.464717
C214	C	1.895421	-0.001847	0.714717
C215	C	2.145421	0.248153	0.964717
C216	C	2.395421	0.498153	1.214717
C217	C	1.752635	-0.251850	0.464727
C218	C	2.002635	-0.001850	0.714727
C219	C	2.252635	0.248150	0.964727
C220	C	2.502635	0.498150	1.214727
C221	C	1.393888	-0.251796	0.716288
C222	C	1.643888	-0.001796	0.966288
C223	C	1.893888	0.248204	1.216288
C224	C	2.143888	0.498204	1.466288
C225	C	1.393913	-0.251777	0.823502
C226	C	1.643913	-0.001777	1.073502
C227	C	1.893913	0.248223	1.323502
C228	C	2.143913	0.498223	1.573502
C229	C	1.394018	-0.115466	0.464760
C230	C	1.644018	0.134534	0.714760
C231	C	1.894018	0.384534	0.964760
C232	C	2.144018	0.634534	1.214760
C233	C	1.394098	-0.057352	0.464788
C234	C	1.644098	0.192648	0.714788
C235	C	1.894098	0.442648	0.964788
C236	C	2.144098	0.692648	1.214788
C237	C	1.393825	-0.251845	0.214080
C238	C	1.643825	-0.001845	0.464080
C239	C	1.893825	0.248155	0.714080
C240	C	2.143825	0.498155	0.964080
C241	C	1.393987	-0.251717	0.106867
C242	C	1.643987	-0.001717	0.356867
C243	C	1.893987	0.248283	0.606867
C244	C	2.143987	0.498283	0.856867
C245	C	1.393933	-0.251762	0.910571
C246	C	1.643933	-0.001762	1.160571
C247	C	1.893933	0.248238	1.410571
C248	C	2.143933	0.498238	1.660571
C249	C	1.393960	-0.251739	1.019804
C250	C	1.643960	-0.001739	1.269804
C251	C	1.893960	0.248261	1.519804
C252	C	2.143960	0.498261	1.769804
H253	H	1.505672	-0.450848	0.352836
H254	H	1.755672	-0.200848	0.602836
H255	H	2.005672	0.049152	0.852836
H256	H	2.255672	0.299152	1.102836
H257	H	1.281778	-0.549955	0.576514
H258	H	1.531778	-0.299955	0.826514
H259	H	1.781778	-0.049955	1.076514
H260	H	2.031778	0.200045	1.326514
N261	N	1.265382	-0.443678	0.592765
N262	N	1.515382	-0.193678	0.842765
N263	N	1.765382	0.056322	1.092765
N264	N	2.015382	0.306322	1.342765
H265	H	1.274729	-0.404944	0.583399
H266	H	1.524729	-0.154944	0.833399
H267	H	1.774729	0.095056	1.083399
H268	H	2.024729	0.345056	1.333399
H269	H	1.280363	-0.453185	0.661672
H270	H	1.530363	-0.203185	0.911672
H271	H	1.780363	0.046815	1.161672
H272	H	2.030363	0.296815	1.411672
H273	H	1.506021	-0.953195	0.352940
H274	H	1.756021	-0.703195	0.602940
H275	H	2.006021	-0.453195	0.852940
H276	H	2.256021	-0.203195	1.102940
H277	H	1.505761	-0.549899	0.352865
H278	H	1.755761	-0.299899	0.602865
H279	H	2.005761	-0.049899	0.852865
H280	H	2.255761	0.200101	1.102865
H281	H	1.567579	-0.702012	0.291265
H282	H	1.817579	-0.452012	0.541265
H283	H	2.067579	-0.202012	0.791265
H284	H	2.317579	0.047988	1.041265
N285	N	1.583967	-0.808274	0.275001
N286	N	1.833967	-0.558274	0.525001
N287	N	2.083967	-0.308274	0.775001
N288	N	2.333967	-0.058274	1.025001
H289	H	1.623043	-0.782678	0.235958
H290	H	1.873043	-0.532678	0.485958
H291	H	2.123043	-0.282678	0.735958
H292	H	2.373043	-0.032678	0.985958
H293	H	1.544743	-0.830965	0.230325
H294	H	1.794743	-0.580965	0.480325
H295	H	2.044743	-0.330965	0.730325
H296	H	2.294743	-0.080965	0.980325
H297	H	1.506082	-1.052261	0.352969
H298	H	1.756082	-0.802261	0.602969
H299	H	2.006082	-0.552261	0.852969
H300	H	2.256082	-0.302261	1.102969
N301	N	1.265784	-1.059510	0.592887
N302	N	1.515784	-0.809510	0.842887
N303	N	1.765784	-0.559510	1.092887
N304	N	2.015784	-0.309510	1.342887
H305	H	1.280718	-1.049970	0.661817
H306	H	1.530718	-0.799970	0.911817
H307	H	1.780718	-0.549970	1.161817
H308	H	2.030718	-0.299970	1.411817
H309	H	1.275195	-1.098234	0.583471
H310	H	1.525195	-0.848234	0.833471
H311	H	1.775195	-0.598234	1.083471
H312	H	2.025195	-0.348234	1.333471
N313	N	1.265727	-0.946027	0.592879
N314	N	1.515727	-0.696027	0.842879
N315	N	1.765727	-0.446027	1.092879
N316	N	2.015727	-0.196027	1.342879
H317	H	1.226643	-0.971621	0.631919
H318	H	1.476643	-0.721621	0.881919
H319	H	1.726643	-0.471621	1.131919
H320	H	1.976643	-0.221621	1.381919
H321	H	1.221095	-0.923413	0.553571
H322	H	1.471095	-0.673413	0.803571
H323	H	1.721095	-0.423413	1.053571
H324	H	1.971095	-0.173413	1.303571
N325	N	1.203927	-0.808336	0.654510
N326	N	1.453927	-0.558336	0.904510
N327	N	1.703927	-0.308336	1.154510
N328	N	1.953927	-0.058336	1.404510
H329	H	1.218872	-0.798793	0.723436
H330	H	1.468872	-0.548793	0.973436
H331	H	1.718872	-0.298793	1.223436
H332	H	1.968872	-0.048793	1.473436
H333	H	1.213330	-0.847060	0.645100
H334	H	1.463330	-0.597060	0.895100
H335	H	1.713330	-0.347060	1.145100
H336	H	1.963330	-0.097060	1.395100
N337	N	1.203873	-0.694854	0.654486
N338	N	1.453873	-0.444854	0.904486
N339	N	1.703873	-0.194854	1.154486
N340	N	1.953873	0.055146	1.404486
H341	H	1.164792	-0.720445	0.693535
H342	H	1.414792	-0.470445	0.943535
H343	H	1.664792	-0.220445	1.193535
H344	H	1.914792	0.029555	1.443535
H345	H	1.159237	-0.672240	0.615181
H346	H	1.409237	-0.422240	0.865181
H347	H	1.659237	-0.172240	1.115181
H348	H	1.909237	0.077760	1.365181
