data_functionalizedCrystal
_audit_creation_method	'MofGen! by Chris Wilmer'
_symmetry_space_group_name_H-M	'P1'
_symmetry_Int_Tables_number	1
_symmetry_cell_setting	triclinic
loop_
_symmetry_equiv_pos_as_xyz
  x,y,z
_cell_length_a	19.188930
_cell_length_b	16.109301
_cell_length_c	14.586319
_cell_angle_alpha	90.012306
_cell_angle_beta	89.980732
_cell_angle_gamma	96.696870
loop_
_atom_site_label
_atom_site_type_symbol
_atom_site_fract_x
_atom_site_fract_y
_atom_site_fract_z
O1	O	0.926388	-0.103805	-0.076538
O2	O	0.723109	-0.117778	-0.076476
O3	O	0.830332	0.010258	-0.076499
O4	O	0.819164	-0.231841	-0.076514
O5	O	0.830323	0.010277	0.075982
O6	O	0.723099	-0.117759	0.076005
O7	O	0.926378	-0.103786	0.075943
Cu8	Cu	0.824738	-0.110771	0.089897
Cu9	Cu	0.824749	-0.110793	-0.090429
O10	O	0.819154	-0.231822	0.075966
C11	C	0.697092	-0.117316	-0.000227
C12	C	0.619584	-0.115958	-0.000203
N13	N	0.824758	-0.110802	-0.217261
C14	C	0.829875	0.041241	-0.000258
C15	C	0.828519	0.133532	-0.000256
C16	C	0.574836	-0.191085	-0.000222
C17	C	0.502009	-0.189809	-0.000232
C18	C	0.473934	-0.113401	-0.000241
C19	C	0.518692	-0.038264	-0.000217
C20	C	0.591517	-0.039542	-0.000198
N21	N	0.365821	-0.055003	-0.052170
N22	N	0.296639	-0.053794	-0.052191
C23	C	0.254516	-0.109545	-0.000297
N24	N	0.284187	-0.166564	0.051606
N25	N	0.353375	-0.167775	0.051622
C26	C	0.394968	-0.112007	-0.000262
C27	C	0.130800	-0.183294	-0.000326
C28	C	0.057973	-0.182015	-0.000330
C29	C	0.074657	-0.030468	-0.000324
C30	C	0.147483	-0.031749	-0.000311
C31	C	0.175550	-0.108165	-0.000316
C32	C	0.952395	-0.104248	-0.000308
C33	C	1.029903	-0.105606	-0.000338
C34	C	0.819612	-0.262805	-0.000277
C35	C	0.820968	-0.355096	-0.000284
C36	C	0.888990	0.356004	-0.000290
C37	C	0.887710	0.442721	-0.000297
C38	C	0.760493	0.422425	-0.000254
C39	C	0.761773	0.335710	-0.000253
C40	C	0.826024	0.302503	-0.000267
C41	C	0.823463	0.475933	-0.000274
C42	C	0.822075	0.569955	-0.000282
C43	C	0.827412	0.208475	-0.000261
C44	C	0.872316	-0.054199	-0.548266
C45	C	0.872319	-0.054205	-0.452284
C46	C	0.777172	-0.167361	-0.452274
C47	C	0.777166	-0.167350	-0.548253
C48	C	0.824742	-0.110770	-0.596247
C49	C	0.824751	-0.110787	-0.404286
C50	C	0.824754	-0.110794	-0.300219
C51	C	0.824738	-0.110762	-0.700321
N52	N	0.824735	-0.110755	0.216728
H53	H	0.597683	-0.253308	-0.000228
H54	H	0.938983	0.486279	-0.000317
O55	O	0.918414	0.000834	-0.594967
C56	C	0.881101	0.052131	-0.650397
H57	H	0.826432	0.018945	-0.664780
H58	H	0.910256	0.065368	-0.717892
H59	H	0.876441	0.113558	-0.613343
O60	O	0.635089	0.033363	-0.000147
C61	C	0.705386	0.015850	-0.000159
H62	H	0.708153	-0.049439	0.028709
H63	H	0.738377	0.063761	0.044115
H64	H	0.726472	0.019067	-0.073308
O65	O	0.700623	0.283699	-0.000393
C66	C	0.697572	0.232905	-0.079353
H67	H	0.733283	0.264789	-0.134560
H68	H	0.641330	0.222938	-0.105844
H69	H	0.715633	0.169917	-0.061506
H70	H	0.153654	-0.245516	-0.000316
H71	H	0.051799	0.031745	-0.000389
H72	H	0.738438	-0.213428	-0.413188
H73	H	0.911057	-0.008139	-0.413221
O74	O	0.191026	0.041177	-0.000428
C75	C	0.233667	0.044969	-0.079401
H76	H	0.237346	-0.021014	-0.105727
H77	H	0.288401	0.076142	-0.061628
H78	H	0.209737	0.082844	-0.134706
H79	H	0.708182	0.449473	-0.000242
H80	H	0.738422	-0.213418	-0.587322
H81	H	0.495829	0.023948	-0.000237
O82	O	0.458558	-0.262812	-0.000420
C83	C	0.471324	-0.309229	-0.079384
H84	H	0.496252	-0.265248	-0.134564
H85	H	0.419658	-0.342752	-0.105916
H86	H	0.508382	-0.357222	-0.061526
O87	O	0.014601	-0.255074	-0.000387
C88	C	0.054994	-0.322789	-0.000365
H89	H	0.109362	-0.301489	-0.029221
H90	H	0.028135	-0.375416	-0.044645
H91	H	0.060149	-0.346219	0.072786
H92	H	0.941306	0.328970	-0.000302
