data_functionalizedCrystal
_audit_creation_method	'MofGen! by Chris Wilmer'
_symmetry_space_group_name_H-M	'P1'
_symmetry_Int_Tables_number	1
_symmetry_cell_setting	triclinic
loop_
_symmetry_equiv_pos_as_xyz
  x,y,z
_cell_length_a	27.732064
_cell_length_b	27.732048
_cell_length_c	13.101039
_cell_angle_alpha	93.329410
_cell_angle_beta	86.677803
_cell_angle_gamma	82.646040
loop_
_atom_site_label
_atom_site_type_symbol
_atom_site_fract_x
_atom_site_fract_y
_atom_site_fract_z
O1	O	0.643596	0.054873	-0.085041
O2	O	0.502805	0.063609	-0.085085
O3	O	0.577572	-0.011155	-0.085042
O4	O	0.568828	0.129637	-0.085084
O5	O	0.572208	-0.005782	0.085384
O6	O	0.497440	0.068982	0.085342
O7	O	0.638231	0.060246	0.085385
Zn8	Zn	0.566984	0.065467	0.112422
Zn9	Zn	0.574052	0.058388	-0.112122
O10	O	0.563463	0.135010	0.085343
C11	C	0.482116	0.066110	0.000123
C12	C	0.428462	0.065554	0.000107
C13	C	0.051387	0.017589	0.000180
C14	C	0.253048	0.019634	0.000152
O15	O	0.284299	-0.017585	0.000202
N16	N	0.272176	0.063968	0.000135
C17	C	0.240885	0.107794	0.000131
O18	O	0.261781	0.145550	0.000125
C19	C	0.039225	0.105748	0.000165
C20	C	0.020100	0.061411	0.000172
C21	C	0.032261	-0.026744	0.000188
C22	C	-0.018151	-0.027255	0.000189
C23	C	-0.049438	0.016567	0.000182
C24	C	-0.030312	0.060900	0.000174
C25	C	0.007934	0.149574	0.000168
C26	C	-0.042483	0.149058	0.000180
C27	C	-0.061608	0.104721	0.000187
C28	C	-0.112011	0.104211	0.000168
N29	N	-0.131139	0.059878	0.000185
C30	C	-0.099852	0.016055	0.000193
C31	C	0.346760	0.108865	0.000110
C32	C	0.397175	0.109376	0.000100
C33	C	0.409334	0.021217	0.000124
C34	C	0.358919	0.020705	0.000127
C35	C	0.327632	0.064531	0.000128
C36	C	-0.205722	0.014986	0.000194
C37	C	-0.256139	0.014478	0.000191
C38	C	-0.268294	0.102638	0.000173
C39	C	-0.217881	0.103145	0.000171
C40	C	-0.186596	0.059315	0.000185
O41	O	-0.143291	0.141411	0.000130
O42	O	-0.120759	-0.021694	0.000221
C43	C	0.101799	0.018100	0.000178
C44	C	0.120924	0.062433	0.000170
C45	C	0.089637	0.106256	0.000163
C46	C	0.171339	0.062945	0.000160
C47	C	0.202626	0.019123	0.000167
C48	C	0.183498	-0.025211	0.000184
C49	C	0.133086	-0.025722	0.000186
C50	C	0.108765	0.150589	0.000145
C51	C	0.159178	0.151097	0.000143
C52	C	0.190465	0.107274	0.000150
C53	C	0.574706	-0.026475	0.000174
C54	C	0.574153	-0.080130	0.000182
C55	C	0.614858	-0.418944	0.000142
C56	C	0.612807	-0.620604	0.000127
O57	O	0.650029	-0.651859	0.000094
N58	N	0.568473	-0.639731	0.000114
C59	C	0.524648	-0.608439	0.000099
O60	O	0.486892	-0.629335	0.000077
C61	C	0.526699	-0.406780	0.000106
C62	C	0.571036	-0.387656	0.000129
C63	C	0.659191	-0.399819	0.000164
C64	C	0.659703	-0.349407	0.000173
C65	C	0.615882	-0.318119	0.000161
C66	C	0.571548	-0.337244	0.000139
C67	C	0.482875	-0.375490	0.000083
C68	C	0.483392	-0.325073	0.000082
C69	C	0.527729	-0.305949	0.000105
C70	C	0.528239	-0.255544	0.000135
N71	N	0.572573	-0.236417	0.000148
C72	C	0.616395	-0.267705	0.000161
C73	C	0.523574	-0.714314	0.000097
C74	C	0.523061	-0.764728	0.000096
C75	C	0.611221	-0.776889	0.000123
C76	C	0.611733	-0.726474	0.000131
C77	C	0.567909	-0.695187	0.000109
C78	C	0.617467	-0.161835	0.000181
C79	C	0.617975	-0.111418	0.000195
C80	C	0.529816	-0.099261	0.000163
C81	C	0.529307	-0.149674	0.000154
C82	C	0.573137	-0.180960	0.000160
O83	O	0.491038	-0.224262	0.000157
O84	O	0.654146	-0.246800	0.000160
C85	C	0.614346	-0.469356	0.000133
C86	C	0.570012	-0.488481	0.000111
C87	C	0.526191	-0.457193	0.000098
C88	C	0.569499	-0.538895	0.000111
C89	C	0.613321	-0.570183	0.000123
C90	C	0.657655	-0.551056	0.000136
C91	C	0.658167	-0.500644	0.000145
C92	C	0.481857	-0.476320	0.000085
C93	C	0.481348	-0.526733	0.000077
C94	C	0.525170	-0.558020	0.000090
C95	C	0.658920	0.057744	0.000175
C96	C	0.712574	0.058300	0.000184
C97	C	0.566329	0.150330	0.000124
C98	C	0.566883	0.203984	0.000109
N99	N	0.562164	0.070298	0.265668
N100	N	0.578876	0.053553	-0.265368
C101	C	0.555605	0.076875	0.474707
C102	C	0.585432	0.046977	0.525600
C103	C	0.581783	0.050637	0.641916
C104	C	0.559254	0.073216	0.358380
H105	H	-0.271707	-0.021628	0.000195
Br106	Br	-0.310764	0.162108	0.000155
H107	H	0.653157	-0.187303	0.000182
Br108	Br	0.719879	-0.323462	0.000176
Br109	Br	0.717126	-0.593528	0.000162
Br110	Br	0.508479	0.124117	0.547680
Br111	Br	0.332969	-0.039468	0.000139
Br112	Br	-0.163271	-0.044498	0.000213
Br113	Br	-0.044097	-0.087430	0.000186
Br114	Br	0.185126	0.211274	0.000122
Br115	Br	0.421170	-0.552679	0.000054
H116	H	0.654081	-0.095850	0.000216
Br117	Br	0.422378	-0.433865	0.000063
Br118	Br	0.632764	-0.000064	0.452627
H119	H	0.057731	-0.062432	0.000197
Br120	Br	0.423913	-0.282614	0.000049
Br121	Br	0.451805	-0.038256	0.000130
Br122	Br	0.066312	0.210069	0.000132
Br123	Br	0.718672	-0.442273	0.000180
Br124	Br	0.671906	-0.700525	0.000164
Br125	Br	0.225969	-0.084684	0.000188
H126	H	0.486957	-0.780293	0.000095
Br127	Br	0.423124	0.169549	0.000064
Br128	Br	0.304306	0.168348	0.000105
Br129	Br	-0.084942	0.208540	0.000189
Br130	Br	0.464092	-0.671859	0.000066
Br131	Br	0.469135	-0.175628	0.000147
Br132	Br	0.107139	-0.085897	0.000188
Br133	Br	-0.191925	0.163316	0.000144
H134	H	0.023497	0.185677	0.000158
H135	H	0.446772	-0.391052	0.000058
H136	H	0.646902	-0.802373	0.000134
H137	H	0.694271	-0.485078	0.000164
H138	H	0.494137	-0.073777	0.000156
