data_functionalizedCrystal
_audit_creation_method	'MofGen! by Chris Wilmer'
_symmetry_space_group_name_H-M	'P1'
_symmetry_Int_Tables_number	1
_symmetry_cell_setting	triclinic
loop_
_symmetry_equiv_pos_as_xyz
  x,y,z
_cell_length_a	19.188930
_cell_length_b	14.971486
_cell_length_c	14.048226
_cell_angle_alpha	90.001501
_cell_angle_beta	89.988446
_cell_angle_gamma	96.620545
loop_
_atom_site_label
_atom_site_type_symbol
_atom_site_fract_x
_atom_site_fract_y
_atom_site_fract_z
O1	O	0.090988	-1.186466	-0.079062
O2	O	0.101884	-0.926009	-0.079090
O3	O	-0.005196	-1.063754	-0.079057
O4	O	0.198067	-1.048721	-0.079095
O5	O	-0.005202	-1.063737	0.079265
O6	O	0.101878	-0.925992	0.079232
O7	O	0.090982	-1.186450	0.079259
Zn8	Zn	0.096429	-1.056218	0.104382
Zn9	Zn	0.096437	-1.056240	-0.104213
O10	O	0.198061	-1.048705	0.079226
C11	C	0.101393	-0.892678	0.000068
C12	C	0.099933	-0.793389	0.000058
C13	C	-0.031211	-1.063259	0.000107
C14	C	-0.108721	-1.061797	0.000115
N15	N	0.096422	-1.056210	0.246743
C16	C	-0.153384	-1.142622	0.000128
C17	C	-0.226213	-1.141249	0.000112
C18	C	-0.254374	-1.059047	0.000103
C19	C	-0.209700	-0.978212	0.000085
C20	C	-0.136874	-0.979587	0.000091
N21	N	-0.362583	-0.996208	0.053976
N22	N	-0.431766	-0.994907	0.053973
C23	C	-0.473796	-1.054899	0.000084
N24	N	-0.444031	-1.116254	-0.053790
N25	N	-0.374842	-1.117558	-0.053782
C26	C	-0.333341	-1.057547	0.000096
C27	C	-0.597429	-1.134240	0.000078
C28	C	-0.670258	-1.132864	0.000057
C29	C	-0.653744	-0.969825	0.000039
C30	C	-0.580916	-0.971203	0.000051
C31	C	-0.552763	-1.053413	0.000075
C32	C	0.224077	-1.049200	0.000061
C33	C	0.301586	-1.050661	0.000046
C34	C	0.091472	-1.219780	0.000100
C35	C	0.092932	-1.319070	0.000103
C36	C	0.162839	-0.735831	0.000048
C37	C	0.161463	-0.642539	0.000062
C38	C	0.097180	-0.606806	0.000080
C39	C	0.034269	-0.664371	0.000094
C40	C	0.035646	-0.757662	0.000086
C41	C	0.031403	-0.469924	0.000108
C42	C	0.030026	-0.376627	0.000113
C43	C	0.157221	-0.354801	0.000083
C44	C	0.158598	-0.448092	0.000076
C45	C	0.095686	-0.505650	0.000088
N46	N	0.096437	-1.056256	-0.246573
C47	C	0.049027	-1.117223	0.296576
C48	C	0.049027	-1.117229	0.396233
C49	C	0.096426	-1.056226	0.446057
C50	C	0.143823	-0.995207	0.396217
C51	C	0.143819	-0.995197	0.296561
C52	C	0.143828	-0.995233	0.603931
C53	C	0.143833	-0.995243	0.703594
C54	C	0.049035	-1.117264	0.703603
C55	C	0.049032	-1.117255	0.603948
C56	C	0.096430	-1.056236	0.554115
H57	H	-0.130467	-1.209564	0.000144
C58	C	0.195957	-0.928087	0.241745
H59	H	0.224191	-0.891763	0.285689
H60	H	0.170792	-0.890952	0.202883
H61	H	0.225064	-0.960148	0.202856
C62	C	-0.531781	-0.882298	0.000043
H63	H	-0.484375	-0.894889	0.000039
H64	H	-0.540332	-0.848568	0.055245
H65	H	-0.540316	-0.848590	-0.055182
H66	H	0.215186	-0.764917	0.000032
C67	C	-0.240674	-0.887793	0.000078
H68	H	-0.290445	-0.898549	0.000086
H69	H	-0.225339	-0.854529	-0.055135
H70	H	-0.225355	-0.854521	0.055292
C71	C	0.230660	-0.579229	0.000047
H72	H	0.269141	-0.613872	0.000023
H73	H	0.232769	-0.542387	0.055261
H74	H	0.232766	-0.542380	-0.055166
C75	C	-0.275352	-1.230159	0.000134
H76	H	-0.248154	-1.279316	0.000155
H77	H	-0.304098	-1.233023	-0.055075
H78	H	-0.304110	-1.232994	0.055352
C79	C	-0.087741	-0.890677	0.000085
H80	H	-0.114941	-0.841521	0.000082
H81	H	-0.058974	-0.887830	-0.055119
H82	H	-0.059003	-0.887821	0.055308
C83	C	-0.719389	-1.221775	0.000073
H84	H	-0.692188	-1.270929	0.000098
H85	H	-0.748132	-1.224642	-0.055139
H86	H	-0.748151	-1.224613	0.055288
C87	C	-0.033549	-0.820979	0.000097
H88	H	-0.023523	-0.881656	0.000100
H89	H	-0.059906	-0.810175	-0.055105
H90	H	-0.059903	-0.810175	0.055323
H91	H	0.182414	-0.945533	0.436789
H92	H	-0.574506	-1.201180	0.000094
C93	C	0.195968	-0.928118	0.549117
H94	H	0.224204	-0.891795	0.593061
H95	H	0.170807	-0.890981	0.510252
H96	H	0.225074	-0.960183	0.510230
C97	C	-0.684712	-0.879404	0.000026
H98	H	-0.734483	-0.890160	0.000028
H99	H	-0.669373	-0.846142	-0.055187
H100	H	-0.669397	-0.846131	0.055241
H101	H	-0.019826	-0.516786	0.000119
H102	H	0.010433	-1.166902	0.256016
H103	H	0.210943	-0.477182	0.000052
H104	H	0.208445	-0.307932	0.000078
C105	C	-0.040684	-0.337322	0.000139
H106	H	-0.077954	-0.384961	0.000158
H107	H	-0.043865	-0.301382	-0.055068
H108	H	-0.043859	-0.301384	0.055359
H109	H	0.010434	-1.166909	0.436807
H110	H	-0.018072	-0.635271	0.000122
C111	C	-0.003106	-1.184355	0.549143
H112	H	-0.031339	-1.220691	0.593093
H113	H	0.022058	-1.221480	0.510251
H114	H	-0.032214	-1.152284	0.510286
H115	H	0.010442	-1.166947	0.744183
C116	C	0.195925	-0.928085	0.758398
H117	H	0.224135	-0.891719	0.714448
H118	H	0.225052	-0.960091	0.797289
H119	H	0.170711	-0.890984	0.797257
