data_functionalizedCrystal
_audit_creation_method	'MofGen! by Chris Wilmer'
_symmetry_space_group_name_H-M	'P1'
_symmetry_Int_Tables_number	1
_symmetry_cell_setting	triclinic
loop_
_symmetry_equiv_pos_as_xyz
  x,y,z
_cell_length_a	19.188905
_cell_length_b	15.995350
_cell_length_c	15.072220
_cell_angle_alpha	89.998899
_cell_angle_beta	89.980393
_cell_angle_gamma	96.686535
loop_
_atom_site_label
_atom_site_type_symbol
_atom_site_fract_x
_atom_site_fract_y
_atom_site_fract_z
O1	O	0.926431	-0.104428	-0.073924
O2	O	1.259764	0.228905	0.259409
O3	O	1.593097	0.562239	0.592742
O4	O	0.723153	-0.118522	-0.073894
O5	O	1.056486	0.214811	0.259440
O6	O	1.389819	0.548145	0.592773
O7	O	0.830348	0.010434	-0.073909
O8	O	1.163682	0.343767	0.259424
O9	O	1.497015	0.677100	0.592758
O10	O	0.819235	-0.233384	-0.073909
O11	O	1.152568	0.099950	0.259424
O12	O	1.485902	0.433283	0.592758
O13	O	0.830322	0.010426	0.073656
O14	O	1.163655	0.343760	0.406989
O15	O	1.496989	0.677093	0.740323
O16	O	0.723126	-0.118529	0.073672
O17	O	1.056460	0.214804	0.407005
O18	O	1.389793	0.548137	0.740338
O19	O	0.926404	-0.104435	0.073641
O20	O	1.259737	0.228898	0.406974
O21	O	1.593071	0.562231	0.740307
Zn22	Zn	0.824761	-0.111483	0.097085
Zn23	Zn	1.158094	0.221850	0.430419
Zn24	Zn	1.491428	0.555183	0.763752
Zn25	Zn	0.824796	-0.111474	-0.097338
Zn26	Zn	1.158129	0.221859	0.235995
Zn27	Zn	1.491462	0.555193	0.569329
O28	O	0.819208	-0.233391	0.073656
O29	O	1.152542	0.099942	0.406989
O30	O	1.485875	0.433276	0.740323
C31	C	0.697127	-0.118073	-0.000107
C32	C	1.030460	0.215261	0.333226
C33	C	1.363794	0.548594	0.666560
C34	C	0.619618	-0.116713	-0.000095
C35	C	0.952951	0.216620	0.333238
C36	C	1.286285	0.549953	0.666571
C37	C	0.583239	-0.116056	-0.080536
C38	C	0.916572	0.217277	0.252798
C39	C	1.249906	0.550610	0.586131
C40	C	0.510412	-0.114769	-0.080547
C41	C	0.843745	0.218564	0.252787
C42	C	1.177079	0.551897	0.586120
C43	C	0.473969	-0.114123	-0.000113
C44	C	0.807302	0.219211	0.333220
C45	C	1.140636	0.552544	0.666554
C46	C	0.510356	-0.114785	0.080338
C47	C	0.843689	0.218549	0.413671
C48	C	1.177023	0.551882	0.747004
C49	C	0.583181	-0.116080	0.080347
C50	C	0.916514	0.217253	0.413680
C51	C	1.249847	0.550587	0.747013
N52	N	0.364811	-0.064443	0.059746
N53	N	0.698145	0.268890	0.393079
N54	N	1.031478	0.602223	0.726413
N55	N	0.295631	-0.063211	0.059732
N56	N	0.628965	0.270122	0.393066
N57	N	0.962298	0.603455	0.726399
C58	C	0.254552	-0.110222	-0.000134
C59	C	0.587886	0.223111	0.333199
C60	C	0.921219	0.556445	0.666532
N61	N	0.285268	-0.158501	-0.060000
N62	N	0.618601	0.174832	0.273333
N63	N	0.951935	0.508165	0.606666
N64	N	0.354455	-0.159730	-0.059989
N65	N	0.687788	0.173604	0.273344
N66	N	1.021122	0.506937	0.606678
C67	C	0.395003	-0.112719	-0.000113
C68	C	0.728336	0.220615	0.333220
C69	C	1.061669	0.553948	0.666553
C70	C	0.139206	-0.108171	-0.080592
C71	C	0.472539	0.225162	0.252741
C72	C	0.805873	0.558496	0.586075
C73	C	0.066377	-0.106889	-0.080600
C74	C	0.399710	0.226444	0.252734
C75	C	0.733044	0.559777	0.586067
C76	C	0.066323	-0.106896	0.080287
C77	C	0.399657	0.226437	0.413620
C78	C	0.732990	0.559770	0.746954
C79	C	0.139150	-0.108186	0.080292
C80	C	0.472483	0.225147	0.413626
C81	C	0.805817	0.558480	0.746959
C82	C	0.175587	-0.108820	-0.000150
C83	C	0.508921	0.224514	0.333184
C84	C	0.842254	0.557847	0.666517
C85	C	0.829876	0.041623	-0.000128
C86	C	1.163209	0.374956	0.333205
C87	C	1.496542	0.708290	0.666539
C88	C	0.828498	0.134568	-0.000133
C89	C	1.161832	0.467901	0.333200
C90	C	1.495165	0.801235	0.666534
C91	C	0.952430	-0.104885	-0.000148
C92	C	1.285763	0.228449	0.333186
C93	C	1.619096	0.561782	0.666519
C94	C	1.029939	-0.106244	-0.000165
C95	C	1.363272	0.227089	0.333168
C96	C	1.696605	0.560422	0.666501
C97	C	0.819681	-0.264580	-0.000127
C98	C	1.153014	0.068753	0.333207
C99	C	1.486348	0.402086	0.666540
C100	C	0.821058	-0.357526	-0.000128
C101	C	1.154392	-0.024192	0.333206
C102	C	1.487725	0.309141	0.666539
N103	N	0.824742	-0.111489	0.229774
N104	N	1.158076	0.221844	0.563107
N105	N	1.491409	0.555177	0.896441
C106	C	0.823552	0.472297	-0.000129
C107	C	1.156885	0.805630	0.333204
C108	C	1.490218	1.138964	0.666538
C109	C	0.747209	0.424575	-0.000449
C110	C	1.080542	0.757908	0.332885
C111	C	1.413875	1.091242	0.666218
C112	C	0.748586	0.327890	-0.000116
C113	C	1.081920	0.661223	0.333217
C114	C	1.415253	0.994557	0.666551
C115	C	0.826005	0.304746	-0.000132
C116	C	1.159339	0.638079	0.333202
C117	C	1.492672	0.971412	0.666535
C118	C	0.863645	0.345961	0.084128
C119	C	1.196978	0.679294	0.417461
C120	C	1.530312	1.012628	0.750795
C121	C	0.861727	0.442589	0.084199
C122	C	1.195061	0.775923	0.417532
C123	C	1.528394	1.109256	0.750866
C124	C	0.863334	0.442962	-0.083610
C125	C	1.196668	0.776295	0.249723
C126	C	1.530001	1.109628	0.583056
C127	C	0.863316	0.346016	-0.084724
C128	C	1.196650	0.679350	0.248609
C129	C	1.529983	1.012683	0.581943
C130	C	0.827396	0.210053	-0.000130
C131	C	1.160729	0.543387	0.333203
C132	C	1.494063	0.876720	0.666537
C133	C	0.822163	0.566990	-0.000125
C134	C	1.155496	0.900323	0.333209
C135	C	1.488830	1.233656	0.666542
N136	N	0.824820	-0.111461	-0.230027
N137	N	1.158153	0.221872	0.103306
N138	N	1.491487	0.555205	0.436640
C139	C	0.824794	-0.111471	0.588976
C140	C	1.158128	0.221863	0.922309
C141	C	1.491461	0.555196	1.255642
C142	C	0.767243	-0.180242	0.551377
C143	C	1.100577	0.153091	0.884710
C144	C	1.433910	0.486424	1.218044
C145	C	0.767375	-0.180492	0.448551
C146	C	1.100709	0.152841	0.781885
C147	C	1.434042	0.486175	1.115218
C148	C	0.824768	-0.111480	0.410772
C149	C	1.158101	0.221853	0.744105
C150	C	1.491435	0.555187	1.077438
C151	C	0.897619	-0.130287	0.448052
C152	C	1.230953	0.203046	0.781385
C153	C	1.564286	0.536380	1.114718
C154	C	0.897297	-0.130775	0.550910
C155	C	1.230630	0.202558	0.884243
C156	C	1.563963	0.535891	1.217576
C157	C	0.810144	-0.023686	0.551079
C158	C	1.143477	0.309647	0.884412
C159	C	1.476810	0.642980	1.217745
C160	C	0.808472	-0.024279	0.448216
C161	C	1.141805	0.309055	0.781549
C162	C	1.475139	0.642388	1.114882
C163	C	0.824758	-0.111484	0.310058
C164	C	1.158091	0.221850	0.643391
C165	C	1.491424	0.555183	0.976725
C166	C	0.824810	-0.111469	0.689689
C167	C	1.158143	0.221864	1.023022
C168	C	1.491476	0.555198	1.356356
H169	H	0.612902	-0.116572	-0.146038
H170	H	0.946235	0.216761	0.187296
H171	H	1.279568	0.550095	0.520629
Cl172	Cl	0.683756	-0.163310	0.409636
Cl173	Cl	1.017090	0.170023	0.742970
Cl174	Cl	1.350423	0.503357	1.076303
Cl175	Cl	0.464669	-0.113942	-0.181679
Cl176	Cl	0.798002	0.219391	0.151654
Cl177	Cl	1.131336	0.552724	0.484988
Cl178	Cl	0.823250	0.301990	0.180956
Cl179	Cl	1.156583	0.635324	0.514290
Cl180	Cl	1.489917	0.968657	0.847623
H181	H	0.835797	0.318667	-0.147057
H182	H	1.169130	0.652000	0.186276
H183	H	1.502464	0.985334	0.519610
H184	H	0.716706	0.442995	-0.060872
H185	H	1.050040	0.776328	0.272461
H186	H	1.383373	1.109661	0.605795
H187	H	0.920522	0.332050	0.087251
H188	H	1.253855	0.665383	0.420584
H189	H	1.587189	0.998716	0.753917
Cl190	Cl	0.702561	0.284684	0.093309
Cl191	Cl	1.035894	0.618018	0.426642
Cl192	Cl	1.369228	0.951351	0.759975
H193	H	0.480679	-0.114260	0.145827
H194	H	0.814012	0.219073	0.479161
H195	H	1.147346	0.552407	0.812494
H196	H	0.910838	-0.193568	0.422280
H197	H	1.244171	0.139766	0.755613
H198	H	1.577504	0.473099	1.088947
Cl199	Cl	0.628917	-0.116905	0.181480
Cl200	Cl	0.962250	0.216428	0.514813
Cl201	Cl	1.295584	0.549762	0.848146
H202	H	0.754882	-0.010000	0.423852
H203	H	1.088215	0.323334	0.757185
H204	H	1.421548	0.656667	1.090518
H205	H	0.941468	-0.081518	0.423576
H206	H	1.274801	0.251815	0.756910
H207	H	1.608134	0.585148	1.090243
Cl208	Cl	0.020642	-0.106071	-0.181734
Cl209	Cl	0.353975	0.227263	0.151599
Cl210	Cl	0.687309	0.560596	0.484932
H211	H	0.919622	0.474935	-0.084188
H212	H	1.252955	0.808268	0.249145
H213	H	1.586288	1.141601	0.582479
H214	H	0.036651	-0.106375	0.145778
H215	H	0.369985	0.226958	0.479111
H216	H	0.703318	0.560292	0.812444
Cl217	Cl	0.700160	0.455002	0.092061
Cl218	Cl	1.033493	0.788335	0.425395
Cl219	Cl	1.366826	1.121668	0.758728
H220	H	0.834258	0.460784	0.147195
H221	H	1.167591	0.794118	0.480529
H222	H	1.500925	1.127451	0.813862
H223	H	0.168874	-0.108696	-0.146093
H224	H	0.502207	0.224638	0.187241
H225	H	0.835540	0.557971	0.520574
Cl226	Cl	0.948259	0.492708	0.090098
Cl227	Cl	1.281593	0.826041	0.423431
Cl228	Cl	1.614926	1.159374	0.756764
Cl229	Cl	0.184887	-0.109007	0.181423
Cl230	Cl	0.518220	0.224326	0.514757
Cl231	Cl	0.851553	0.557660	0.848090
H232	H	0.838386	0.463410	-0.147475
H233	H	1.171719	0.796744	0.185859
H234	H	1.505052	1.130077	0.519192
Cl235	Cl	0.950484	0.322625	-0.092603
Cl236	Cl	1.283817	0.655958	0.240730
Cl237	Cl	1.617150	0.989292	0.574063
Cl238	Cl	0.702903	0.283837	-0.093368
Cl239	Cl	1.036236	0.617170	0.239965
Cl240	Cl	1.369570	0.950504	0.573298
Cl241	Cl	0.683361	-0.163284	0.589598
Cl242	Cl	1.016694	0.170049	0.922931
Cl243	Cl	1.350028	0.503382	1.256264
H244	H	0.776470	-0.245025	0.577213
H245	H	1.109803	0.088309	0.910547
H246	H	1.443137	0.421642	1.243880
H247	H	0.776731	-0.245641	0.423935
H248	H	1.110064	0.087692	0.757269
H249	H	1.443398	0.421026	1.090602
H250	H	0.910207	-0.194788	0.574889
H251	H	1.243540	0.138546	0.908222
H252	H	1.576874	0.471879	1.241555
Cl253	Cl	0.965338	-0.056279	0.589309
Cl254	Cl	1.298671	0.277054	0.922643
Cl255	Cl	1.632005	0.610387	1.255976
H256	H	0.758174	-0.005534	0.577077
H257	H	1.091508	0.327800	0.910410
H258	H	1.424841	0.661133	1.243744
H259	H	0.847666	0.029274	0.422502
H260	H	1.181000	0.362608	0.755835
H261	H	1.514333	0.695941	1.089168
H262	H	0.852113	0.027488	0.575391
H263	H	1.185446	0.360821	0.908724
H264	H	1.518780	0.694155	1.242058
