data_functionalizedCrystal
_audit_creation_method	'MofGen! by Chris Wilmer'
_symmetry_space_group_name_H-M	'P1'
_symmetry_Int_Tables_number	1
_symmetry_cell_setting	triclinic
loop_
_symmetry_equiv_pos_as_xyz
  x,y,z
_cell_length_a	14.853567
_cell_length_b	15.944551
_cell_length_c	13.330367
_cell_angle_alpha	89.994404
_cell_angle_beta	89.995418
_cell_angle_gamma	83.566834
loop_
_atom_site_label
_atom_site_type_symbol
_atom_site_fract_x
_atom_site_fract_y
_atom_site_fract_z
O1	O	1.196228	0.109665	-0.083357
O2	O	0.933752	0.122728	-0.083374
O3	O	1.072158	-0.006070	-0.083356
O4	O	1.057822	0.238463	-0.083375
O5	O	1.072137	-0.006073	0.083491
O6	O	0.933732	0.122725	0.083473
O7	O	1.196208	0.109662	0.083491
Cu8	Cu	1.064968	0.116193	0.098716
Cu9	Cu	1.064992	0.116197	-0.098600
O10	O	1.057802	0.238460	0.083472
C11	C	0.900154	0.122135	0.000047
C12	C	0.800072	0.120361	0.000041
C13	C	0.387646	0.036354	0.000070
C14	C	0.366169	0.189369	0.000057
C15	C	0.460201	0.191037	0.000054
C16	C	0.517960	0.115362	0.000057
C17	C	0.481687	0.038019	0.000064
C18	C	0.496480	0.268379	0.000037
C19	C	0.590517	0.270050	0.000033
C20	C	0.648278	0.194374	0.000043
C21	C	0.612000	0.117028	0.000051
C22	C	0.669759	0.041353	0.000054
C23	C	0.633483	-0.035994	0.000069
C24	C	0.539448	-0.037657	0.000074
C25	C	0.742313	0.196036	0.000038
C26	C	0.763800	0.043018	0.000048
C27	C	1.071552	-0.037367	0.000068
C28	C	1.069768	-0.130615	0.000068
C29	C	0.979713	-0.345572	0.000049
C30	C	1.021522	-0.406544	0.082317
C31	C	1.066541	-0.301344	0.000060
C32	C	1.021562	-0.406524	-0.082181
C33	C	1.063416	-0.466260	0.000048
C34	C	1.108373	-0.361088	0.082397
C35	C	1.108401	-0.361062	-0.082175
C36	C	1.150273	-0.422017	0.000113
C37	C	1.068338	-0.206340	0.000068
C38	C	1.061626	-0.561263	0.000048
C39	C	1.229806	0.110255	0.000067
C40	C	1.329887	0.112029	0.000067
C41	C	1.058407	0.269756	0.000046
C42	C	1.060191	0.363004	0.000039
N43	N	1.064958	0.116190	0.237498
N44	N	1.065009	0.116193	-0.237381
C45	C	1.003703	0.173206	0.710113
C46	C	1.126305	0.059180	0.710097
C47	C	1.126295	0.059178	0.605078
C48	C	1.064989	0.116191	0.552572
C49	C	1.003693	0.173207	0.605085
C50	C	1.187595	0.002169	0.552558
C51	C	1.187588	0.002164	0.447534
C52	C	1.126277	0.059174	0.395026
C53	C	1.064978	0.116192	0.447544
C54	C	1.003672	0.173205	0.395038
C55	C	0.942368	0.230220	0.447555
C56	C	0.942382	0.230217	0.552577
C57	C	1.126264	0.059177	0.290004
C58	C	1.003662	0.173206	0.290010
H59	H	0.449447	0.329989	0.000024
F60	F	0.938406	0.233885	0.234137
H61	H	0.620045	0.333030	0.000020
F62	F	1.156326	-0.334911	0.173405
F63	F	1.191553	-0.001489	0.765977
H64	H	0.984835	-0.426641	-0.151738
F65	F	0.877129	0.290901	0.391663
F66	F	0.825265	-0.037528	0.000058
H67	H	1.222407	-0.455095	0.000165
F68	F	1.156374	-0.334693	-0.173083
F69	F	0.877144	0.290893	0.608472
F70	F	0.694965	-0.116530	0.000065
H71	H	0.953788	0.219624	0.752874
F72	F	0.973512	-0.432882	0.173220
H73	H	1.237513	-0.044246	0.595312
H74	H	1.237504	-0.044260	0.404781
H75	H	1.176181	0.012761	0.247250
H76	H	0.319136	0.250981	0.000046
H77	H	0.509903	-0.100629	0.000110
H78	H	0.358106	-0.026620	0.000086
F79	F	0.780918	0.278348	0.000015
F80	F	0.885512	-0.302142	0.000144
