data_functionalizedCrystal
_audit_creation_method	'MofGen! by Chris Wilmer'
_symmetry_space_group_name_H-M	'P1'
_symmetry_Int_Tables_number	1
_symmetry_cell_setting	triclinic
loop_
_symmetry_equiv_pos_as_xyz
  x,y,z
_cell_length_a	14.044220
_cell_length_b	12.503552
_cell_length_c	14.044220
_cell_angle_alpha	93.839943
_cell_angle_beta	86.811122
_cell_angle_gamma	93.839891
loop_
_atom_site_label
_atom_site_type_symbol
_atom_site_fract_x
_atom_site_fract_y
_atom_site_fract_z
O1	O	1.282207	0.089210	-0.225121
O2	O	1.782207	0.589210	0.274879
O3	O	1.005537	0.089237	-0.216814
O4	O	1.505537	0.589237	0.283186
O5	O	1.139718	0.089214	-0.082632
O6	O	1.639718	0.589214	0.417368
O7	O	1.148025	0.089234	-0.359303
O8	O	1.648025	0.589234	0.140697
O9	O	1.129615	-0.089427	-0.092732
O10	O	1.629615	0.410573	0.407268
O11	O	0.995434	-0.089403	-0.226914
O12	O	1.495434	0.410597	0.273086
O13	O	1.272104	-0.089430	-0.235221
O14	O	1.772104	0.410570	0.264779
Cu15	Cu	1.132846	-0.105728	-0.231989
Cu16	Cu	1.632846	0.394272	0.268011
Cu17	Cu	1.144794	0.105535	-0.220045
Cu18	Cu	1.644794	0.605535	0.279955
O19	O	1.137922	-0.089407	-0.369402
O20	O	1.637922	0.410593	0.130598
C21	C	0.964864	-0.000080	-0.218228
C22	C	1.464864	0.499920	0.281772
C23	C	0.858721	-0.000070	-0.207383
C24	C	1.358721	0.499930	0.292617
N25	N	1.124449	-0.254319	-0.240390
N26	N	1.624449	0.245681	0.259610
C27	C	0.664382	-0.000092	-0.187558
C28	C	1.164382	0.499908	0.312442
C29	C	0.613253	-0.000091	-0.264472
C30	C	1.113253	0.499909	0.235528
C31	C	0.505116	-0.000104	-0.253441
C32	C	1.005116	0.499896	0.246559
C33	C	0.772529	-0.000080	-0.198587
C34	C	1.272529	0.499920	0.301413
C35	C	1.165545	-0.526760	-0.199276
C36	C	1.665545	-0.026760	0.300724
C37	C	1.112106	-0.473426	-0.252749
C38	C	1.612106	0.026574	0.247251
C39	C	1.118975	-0.351504	-0.245871
C40	C	1.618975	0.148496	0.254129
C41	C	1.158676	-0.648693	-0.206153
C42	C	1.658676	-0.148693	0.293847
C43	C	1.312777	-0.000111	-0.233807
C44	C	1.812777	0.499889	0.266193
C45	C	1.418920	-0.000114	-0.244651
C46	C	1.918920	0.499886	0.255349
C47	C	1.131031	-0.000107	-0.052060
C48	C	1.631031	0.499893	0.447940
C49	C	1.120187	-0.000107	0.054082
C50	C	1.620187	0.499893	0.554082
N51	N	1.153198	0.254126	-0.211637
N52	N	1.653198	0.754126	0.288363
C53	C	1.146609	-0.000084	-0.399974
C54	C	1.646609	0.499916	0.100026
C55	C	1.157454	-0.000077	-0.506117
C56	C	1.657454	0.499923	-0.006117
C57	C	1.100361	-0.000090	0.248421
C58	C	1.600361	0.499910	0.748421
C59	C	1.177275	-0.000094	0.299551
C60	C	1.677275	0.499906	0.799551
C61	C	1.166244	-0.000084	0.407687
C62	C	1.666244	0.499916	0.907687
C63	C	1.111391	-0.000099	0.140274
C64	C	1.611391	0.499901	0.640274
H65	H	0.650692	-0.000081	-0.338605
H66	H	1.150692	0.499919	0.161395
H67	H	1.061196	-0.519333	-0.303695
H68	H	1.561196	-0.019333	0.196305
H69	H	0.626945	-0.000104	-0.113431
H70	H	1.126945	0.499896	0.386569
H71	H	1.216452	-0.480859	-0.148334
H72	H	1.716452	0.019141	0.351666
H73	H	1.251413	-0.000029	0.262115
H74	H	1.751413	0.499971	0.762115
H75	H	1.026234	-0.000080	0.285859
H76	H	1.526234	0.499920	0.785859
