data_functionalizedCrystal
_audit_creation_method	'MofGen! by Chris Wilmer'
_symmetry_space_group_name_H-M	'P1'
_symmetry_Int_Tables_number	1
_symmetry_cell_setting	triclinic
loop_
_symmetry_equiv_pos_as_xyz
  x,y,z
_cell_length_a	12.759401
_cell_length_b	10.685194
_cell_length_c	12.759386
_cell_angle_alpha	85.567518
_cell_angle_beta	89.958838
_cell_angle_gamma	94.377514
loop_
_atom_site_label
_atom_site_type_symbol
_atom_site_fract_x
_atom_site_fract_y
_atom_site_fract_z
Zn1	Zn	1.574491	-0.501966	-0.561928
Zn2	Zn	1.560853	-0.713159	-0.372761
Zn3	Zn	1.398712	-0.502147	-0.386256
Zn4	Zn	1.385332	-0.712949	-0.548416
O5	O	1.479847	-0.607555	-0.467340
O6	O	1.719702	-0.529994	-0.536842
O7	O	1.539236	-0.685331	-0.227520
O8	O	1.433337	-0.325516	-0.420861
O9	O	1.709682	-0.685157	-0.397862
O10	O	1.562481	-0.325384	-0.549927
O11	O	1.420112	-0.530301	-0.237434
O12	O	1.249917	-0.530097	-0.407759
O13	O	1.410532	-0.684798	-0.697240
O14	O	1.240086	-0.684973	-0.526898
O15	O	1.549506	-0.529790	-0.707167
O16	O	1.526262	-0.889737	-0.384760
O17	O	1.397308	-0.889583	-0.513813
C18	C	1.206881	-0.607533	-0.467327
C19	C	1.090103	-0.607553	-0.467345
C20	C	0.920409	-0.688339	-0.529273
C21	C	1.030134	-0.688325	-0.529263
C22	C	1.040340	-0.526800	-0.405425
C23	C	0.930617	-0.526821	-0.405430
C24	C	1.170613	-0.837164	-0.557073
C25	C	1.220373	-0.917903	-0.619003
C26	C	1.183599	-0.937365	-0.720249
C27	C	1.097069	-0.876069	-0.759587
C28	C	1.047316	-0.795321	-0.697663
C29	C	1.084086	-0.775883	-0.596401
C30	C	0.790136	-0.377980	-0.377630
C31	C	0.740382	-0.297225	-0.315711
C32	C	0.777154	-0.277750	-0.214465
C33	C	0.863689	-0.339023	-0.175132
C34	C	0.913443	-0.419779	-0.237051
C35	C	0.876664	-0.439256	-0.338296
C36	C	1.458881	-0.935452	-0.446379
C37	C	1.450009	-1.075728	-0.437447
C38	C	1.753878	-0.607579	-0.467354
C39	C	1.870654	-0.607589	-0.467360
C40	C	1.480048	-0.607250	-0.741394
C41	C	1.480134	-0.607120	-0.858179
C42	C	1.500922	-0.278378	-0.488406
C43	C	1.509904	-0.138102	-0.497383
C44	C	1.479712	-0.607768	-0.194359
C45	C	1.479853	-0.607542	-0.077597
C46	C	1.417376	-0.527313	-0.027915
C47	C	1.417519	-0.527099	0.081795
C48	C	1.542618	-0.687353	0.092132
C49	C	1.542480	-0.687560	-0.017576
C50	C	1.388776	-0.378305	0.221985
C51	C	1.326282	-0.298088	0.271671
C52	C	1.224792	-0.279667	0.235033
C53	C	1.185774	-0.341482	0.148712
C54	C	1.248262	-0.421709	0.099032
C55	C	1.349769	-0.440106	0.135667
C56	C	1.571211	-0.836355	-0.157768
C57	C	1.633695	-0.916589	-0.207450
C58	C	1.735186	-0.935023	-0.170813
C59	C	1.774198	-0.873230	-0.084487
C60	C	1.711715	-0.792996	-0.034806
C61	C	1.610225	-0.774560	-0.071450
H62	H	1.089175	-0.461040	-0.355005
H63	H	1.391928	-1.129648	-0.379300
O64	O	0.647035	-0.231138	-0.358110
H65	H	0.583264	-0.302240	-0.377051
H66	H	0.760187	-0.393832	-0.460075
H67	H	1.290826	-0.967809	-0.586965
O68	O	1.610161	-0.773662	0.156866
H69	H	1.559455	-0.838194	0.211197
O70	O	1.586835	-1.066689	-0.574403
H71	H	1.667716	-1.091875	-0.554864
O72	O	1.349845	-0.440998	-0.092658
H73	H	1.306435	-0.385164	-0.039676
O74	O	1.210273	-0.816174	-0.447866
H75	H	1.278809	-0.872343	-0.430930
O76	O	1.206201	-0.488373	0.005929
H77	H	1.125127	-0.462085	-0.011207
H78	H	1.103126	-0.326488	0.118896
H79	H	1.856840	-0.888242	-0.054655
O80	O	1.157386	-0.193139	0.288612
H81	H	1.201568	-0.153247	0.354784
H82	H	1.488572	-0.821341	-0.187614
H83	H	0.893633	-0.323161	-0.092691
O84	O	1.368363	-0.231401	0.364762
H85	H	1.449446	-0.257663	0.381881
H86	H	1.471422	-0.393284	0.251816
O87	O	1.753791	-0.726330	0.058297
H88	H	1.834866	-0.752616	0.075425
O89	O	1.057420	-0.897051	-0.868799
H90	H	0.988901	-0.840857	-0.885750
O91	O	1.802585	-1.021562	-0.224395
H92	H	1.758412	-1.061439	-0.290579
H93	H	1.601922	-0.966904	-0.277742
O94	O	0.723502	-0.190634	-0.147680
H95	H	0.657154	-0.151288	-0.192037
O96	O	1.006773	-0.485884	-0.194631
H97	H	1.023983	-0.458786	-0.113820
H98	H	0.871591	-0.754106	-0.579700
H99	H	1.224121	-1.003105	-0.770673
O100	O	0.954019	-0.729169	-0.740089
H101	H	0.936812	-0.756251	-0.820905
