data_functionalizedCrystal
_audit_creation_method	'MofGen! by Chris Wilmer'
_symmetry_space_group_name_H-M	'P1'
_symmetry_Int_Tables_number	1
_symmetry_cell_setting	triclinic
loop_
_symmetry_equiv_pos_as_xyz
  x,y,z
_cell_length_a	26.210047
_cell_length_b	16.992694
_cell_length_c	16.974813
_cell_angle_alpha	92.975366
_cell_angle_beta	86.349936
_cell_angle_gamma	90.003955
loop_
_atom_site_label
_atom_site_type_symbol
_atom_site_fract_x
_atom_site_fract_y
_atom_site_fract_z
O1	O	-0.049286	-1.040218	0.167637
O2	O	0.450714	-0.540218	0.667637
O3	O	-0.049225	-0.811935	0.165797
O4	O	0.450775	-0.311935	0.665797
O5	O	-0.044516	-0.932440	0.052017
O6	O	0.455484	-0.432440	0.552017
O7	O	-0.053994	-0.919713	0.281417
O8	O	0.446006	-0.419713	0.781417
O9	O	0.040341	-0.932416	0.052034
O10	O	0.540341	-0.432416	0.552034
O11	O	0.035633	-0.811912	0.165815
O12	O	0.535633	-0.311912	0.665815
O13	O	0.035572	-1.040195	0.167654
O14	O	0.535572	-0.540195	0.667654
Cu15	Cu	0.043350	-0.926051	0.166736
Cu16	Cu	0.543350	-0.426051	0.666736
Cu17	Cu	-0.057003	-0.926079	0.166715
Cu18	Cu	0.442997	-0.426079	0.666715
O19	O	0.030864	-0.919690	0.281435
O20	O	0.530864	-0.419690	0.781435
C21	C	-0.006700	-0.782713	0.163440
C22	C	0.493300	-0.282713	0.663440
C23	C	-0.006414	-0.695677	0.156381
C24	C	0.493586	-0.195677	0.656381
N25	N	0.113934	-0.926038	0.166750
N26	N	0.613934	-0.426038	0.666750
N27	N	-0.127586	-0.926099	0.166695
N28	N	0.372414	-0.426099	0.666695
C29	C	0.468534	-0.979433	0.116345
C30	C	0.968534	-0.479433	0.616345
C31	C	0.682193	-0.979450	0.116335
C32	C	1.182193	-0.479450	0.616335
O33	O	0.711588	-1.024818	0.073480
O34	O	1.211588	-0.524818	0.573480
N35	N	0.706830	-0.926083	0.166698
N36	N	1.206830	-0.426083	0.666698
C37	C	0.678049	-0.872704	0.217064
C38	C	1.178049	-0.372704	0.717064
O39	O	0.703907	-0.827307	0.259894
O40	O	1.203907	-0.327307	0.759894
C41	C	0.464391	-0.872684	0.217069
C42	C	0.964391	-0.372684	0.717069
C43	C	0.439757	-0.926060	0.166708
C44	C	0.939757	-0.426060	0.666708
C45	C	0.443899	-1.032804	0.065988
C46	C	0.943899	-0.532804	0.565988
C47	C	0.390487	-1.032802	0.065994
C48	C	0.890487	-0.532802	0.565994
C49	C	0.361710	-0.979429	0.116357
C50	C	0.861710	-0.479429	0.616357
C51	C	0.386345	-0.926058	0.166714
C52	C	0.886345	-0.426058	0.666714
C53	C	0.435612	-0.819302	0.267430
C54	C	0.935612	-0.319302	0.767430
C55	C	0.382194	-0.819300	0.267425
C56	C	0.882194	-0.319300	0.767425
C57	C	0.357559	-0.872676	0.217065
C58	C	0.857559	-0.372676	0.717065
C59	C	0.304156	-0.872683	0.217084
C60	C	0.804156	-0.372683	0.717084
N61	N	0.279519	-0.926050	0.166721
N62	N	0.779519	-0.426050	0.666721
C63	C	0.308296	-0.979423	0.116357
C64	C	0.808296	-0.479423	0.616357
C65	C	0.790223	-0.872720	0.217058
C66	C	1.290223	-0.372720	0.717058
C67	C	0.843637	-0.872726	0.217058
C68	C	1.343637	-0.372726	0.717058
C69	C	0.847777	-0.979471	0.116329
C70	C	1.347777	-0.479471	0.616329
C71	C	0.794361	-0.979468	0.116333
C72	C	1.294361	-0.479468	0.616333
C73	C	0.765585	-0.926087	0.166696
C74	C	1.265585	-0.426087	0.666696
C75	C	0.196127	-0.979415	0.116374
C76	C	0.696127	-0.479415	0.616374
C77	C	0.142711	-0.979411	0.116387
C78	C	0.642711	-0.479411	0.616387
C79	C	0.138576	-0.872663	0.217114
C80	C	0.638576	-0.372663	0.717114
C81	C	0.191987	-0.872670	0.217104
C82	C	0.691987	-0.372670	0.717104
C83	C	0.220762	-0.926049	0.166728
C84	C	0.720762	-0.426049	0.666728
O85	O	0.274729	-0.827332	0.259910
O86	O	0.774729	-0.327332	0.759910
O87	O	0.282429	-1.024802	0.073521
O88	O	0.782429	-0.524802	0.573521
C89	C	0.521945	-0.979435	0.116339
C90	C	1.021945	-0.479435	0.616339
C91	C	0.546580	-0.926064	0.166696
C92	C	1.046580	-0.426064	0.666696
C93	C	0.517803	-0.872691	0.217059
C94	C	1.017803	-0.372691	0.717059
C95	C	0.599994	-0.926070	0.166696
C96	C	1.099994	-0.426070	0.666696
C97	C	0.628771	-0.979443	0.116333
C98	C	1.128771	-0.479443	0.616333
C99	C	0.604134	-1.032810	0.065970
C100	C	1.104134	-0.532810	0.565970
C101	C	0.550722	-1.032808	0.065976
C102	C	1.050722	-0.532808	0.565976
C103	C	0.542440	-0.819324	0.267422
C104	C	1.042440	-0.319324	0.767422
C105	C	0.595852	-0.819330	0.267413
C106	C	1.095852	-0.319330	0.767413
C107	C	0.624629	-0.872704	0.217050
C108	C	1.124629	-0.372704	0.717050
C109	C	-0.000871	-0.931944	0.022537
C110	C	0.499129	-0.431944	0.522537
C111	C	0.002756	-0.930491	-0.065331
C112	C	0.502756	-0.430491	0.434669
C113	C	-0.006954	-1.069417	0.170011
C114	C	0.493046	-0.569417	0.670011
C115	C	-0.007243	-1.156453	0.177071
C116	C	0.492757	-0.656453	0.677071
C117	C	-0.009228	-0.645363	0.224495
C118	C	0.490772	-0.145363	0.724495
C119	C	-0.008947	-0.563584	0.217858
C120	C	0.491053	-0.063584	0.717858
C121	C	-0.005855	-0.532119	0.143104
C122	C	0.494145	-0.032119	0.643104
C123	C	-0.003040	-0.582439	0.074984
C124	C	0.496960	-0.082439	0.574984
C125	C	-0.003318	-0.664217	0.081623
C126	C	0.496682	-0.164217	0.581623
C127	C	-0.004705	-0.288551	0.115590
C128	C	0.495295	0.211449	0.615590
C129	C	-0.004429	-0.206767	0.108956
C130	C	0.495571	0.293233	0.608956
C131	C	-0.010335	-0.187917	0.251830
C132	C	0.489665	0.312083	0.751830
C133	C	-0.010616	-0.269697	0.258462
C134	C	0.489384	0.230303	0.758462
C135	C	-0.007797	-0.320010	0.190342
C136	C	0.492203	0.179990	0.690342
N137	N	-0.005569	-0.448528	0.136317
N138	N	0.494431	0.051472	0.636317
N139	N	-0.008080	-0.403600	0.197130
N140	N	0.491920	0.096400	0.697130
C141	C	-0.041796	-0.929823	-0.106616
C142	C	0.458204	-0.429823	0.393384
C143	C	-0.038387	-0.928453	-0.189177
C144	C	0.461613	-0.428453	0.310823
C145	C	0.009575	-0.927756	-0.230451
C146	C	0.509575	-0.427756	0.269549
C147	C	0.054130	-0.928422	-0.189160
C148	C	0.554130	-0.428422	0.310840
C149	C	0.050720	-0.929787	-0.106600
C150	C	0.550720	-0.429787	0.393400
C151	C	0.024732	-0.923669	-0.477367
C152	C	0.524732	-0.423669	0.022633
C153	C	0.028138	-0.922307	-0.559932
C154	C	0.528138	-0.422307	-0.059932
C155	C	-0.064378	-0.922336	-0.559944
C156	C	0.435622	-0.422336	-0.059944
C157	C	-0.067784	-0.923705	-0.477383
C158	C	0.432216	-0.423705	0.022617
C159	C	-0.023229	-0.924367	-0.436098
C160	C	0.476771	-0.424367	0.063902
N161	N	0.013061	-0.926359	-0.314842
N162	N	0.513061	-0.426359	0.185158
N163	N	-0.026715	-0.925759	-0.351709
N164	N	0.473285	-0.425759	0.148291
C165	C	-0.012783	-0.920186	0.310915
C166	C	0.487217	-0.420186	0.810915
C167	C	-0.016413	-0.921639	0.398782
C168	C	0.483587	-0.421639	0.898782
H169	H	0.219550	-1.022880	0.075353
H170	H	0.719550	-0.522880	0.575353
C171	C	0.462698	-0.760594	0.322834
C172	C	0.962698	-0.260594	0.822834
H173	H	0.437902	-0.728808	0.352820
H174	H	0.937902	-0.228808	0.852820
H175	H	0.482100	-0.788760	0.357549
H176	H	0.982100	-0.288760	0.857549
H177	H	0.484796	-0.727983	0.292314
H178	H	0.984796	-0.227983	0.792314
H179	H	-0.106839	-0.924274	-0.443783
H180	H	0.393161	-0.424274	0.056217
C181	C	-0.113385	-0.921618	-0.605355
C182	C	0.386615	-0.421618	-0.105355
H183	H	-0.142437	-0.922238	-0.568949
H184	H	0.357563	-0.422238	-0.068949
H185	H	-0.114119	-0.875393	-0.634428
H186	H	0.385881	-0.375393	-0.134428
H187	H	-0.113840	-0.966797	-0.640696
H188	H	0.386160	-0.466797	-0.140696
H189	H	0.519014	-0.775860	0.308433
H190	H	1.019014	-0.275860	0.808433
C191	C	0.106915	-0.813952	0.272503
C192	C	0.606915	-0.313952	0.772503
H193	H	0.071576	-0.821593	0.265281
H194	H	0.571576	-0.321593	0.765281
H195	H	0.113466	-0.822395	0.325817
H196	H	0.613466	-0.322395	0.825817
H197	H	0.116164	-0.761638	0.260564
H198	H	0.616164	-0.261638	0.760564
C199	C	0.870731	-0.814021	0.272461
C200	C	1.370731	-0.314021	0.772461
H201	H	0.906665	-0.821667	0.265257
H202	H	1.406665	-0.321667	0.765257
H203	H	0.862471	-0.761707	0.260537
H204	H	1.362471	-0.261707	0.760537
H205	H	0.859777	-0.822481	0.325774
H206	H	1.359777	-0.322481	0.825774
C207	C	0.523631	-1.091516	0.010573
C208	C	1.023631	-0.591516	0.510573
H209	H	0.548426	-1.123294	-0.019423
H210	H	1.048426	-0.623294	0.480577
H211	H	0.501533	-1.124124	0.041090
H212	H	1.001533	-0.624124	0.541090
H213	H	0.504229	-1.063346	-0.024144
H214	H	1.004229	-0.563346	0.475856
H215	H	-0.000516	-0.556814	0.014118
H216	H	0.499484	-0.056814	0.514118
C217	C	0.350543	-0.760583	0.322829
C218	C	0.850543	-0.260583	0.822829
H219	H	0.372868	-0.728804	0.352822
H220	H	0.872868	-0.228804	0.852822
H221	H	0.330964	-0.727978	0.292311
H222	H	0.830964	-0.227978	0.792311
H223	H	0.328276	-0.788751	0.357548
H224	H	0.828276	-0.288751	0.857548
C225	C	-0.000228	-0.719562	0.006696
C226	C	0.499772	-0.219562	0.506696
H227	H	0.001648	-0.689112	-0.038775
H228	H	0.501648	-0.189112	0.461225
H229	H	0.029377	-0.751857	0.006320
H230	H	0.529377	-0.251857	0.506320
H231	H	-0.029810	-0.751853	0.006313
H232	H	0.470190	-0.251853	0.506313
C233	C	-0.012044	-0.508242	0.292784
C234	C	0.487956	-0.008242	0.792784
H235	H	-0.013931	-0.538694	0.338255
H236	H	0.486069	-0.038694	0.838255
H237	H	0.017534	-0.475949	0.293176
H238	H	0.517534	0.024051	0.793176
H239	H	-0.041653	-0.475949	0.293155
H240	H	0.458347	0.024051	0.793155
H241	H	-0.013139	-0.295309	0.319335
H242	H	0.486861	0.204691	0.819335
C243	C	-0.012629	-0.679967	0.306725
C244	C	0.487371	-0.179967	0.806725
H245	H	-0.014260	-0.638287	0.346340
H246	H	0.485740	-0.138287	0.846340
H247	H	-0.042451	-0.711478	0.312280
H248	H	0.457549	-0.211478	0.812280
H249	H	0.016736	-0.711475	0.312290
H250	H	0.516736	-0.211475	0.812290
C251	C	-0.094552	-0.930592	-0.061218
C252	C	0.405448	-0.430592	0.438782
H253	H	-0.090204	-0.931508	-0.006136
H254	H	0.409796	-0.431508	0.493864
H255	H	-0.113134	-0.884675	-0.071610
H256	H	0.386866	-0.384675	0.428390
H257	H	-0.112865	-0.976079	-0.077896
H258	H	0.387135	-0.476079	0.422104
H259	H	-0.012628	-0.146944	0.307290
H260	H	0.487372	0.353056	0.807290
C261	C	0.758575	-0.814003	0.272467
C262	C	1.258575	-0.314003	0.772467
H263	H	0.780902	-0.782231	0.302463
H264	H	1.280902	-0.282231	0.802463
H265	H	0.738998	-0.781391	0.241954
H266	H	1.238998	-0.281391	0.741954
H267	H	0.736307	-0.842172	0.307184
H268	H	1.236307	-0.342172	0.807184
H269	H	-0.001912	-0.181152	0.048080
H270	H	0.498088	0.318848	0.548080
H271	H	-0.074665	-0.927912	-0.222788
H272	H	0.425335	-0.427912	0.277212
H273	H	-0.002410	-0.329506	0.060121
H274	H	0.497590	0.170494	0.560121
C275	C	0.080898	-0.921532	-0.605332
C276	C	0.580898	-0.421532	-0.105332
H277	H	0.106945	-0.922113	-0.568920
H278	H	0.606945	-0.422113	-0.068920
H279	H	0.084287	-0.966698	-0.640680
H280	H	0.584287	-0.466698	-0.140680
H281	H	0.084012	-0.875294	-0.634396
H282	H	0.584012	-0.375294	-0.134396
C283	C	0.106886	-0.927659	-0.234559
C284	C	0.606886	-0.427659	0.265441
H285	H	0.102537	-0.926760	-0.289643
H286	H	0.602537	-0.426760	0.210357
H287	H	0.125203	-0.882179	-0.217887
H288	H	0.625203	-0.382179	0.282113
H289	H	0.125464	-0.973583	-0.224165
H290	H	0.625464	-0.473583	0.275835
C291	C	0.622947	-0.760615	0.322813
C292	C	1.122947	-0.260615	0.822813
H293	H	0.658881	-0.768257	0.315605
H294	H	1.158881	-0.268257	0.815605
H295	H	0.614683	-0.708303	0.310886
H296	H	1.114683	-0.208303	0.810886
H297	H	0.611996	-0.769072	0.376128
H298	H	1.111996	-0.269072	0.876128
H299	H	0.086999	-0.930320	-0.072986
H300	H	0.586999	-0.430320	0.427014
C301	C	0.115616	-1.038123	0.060985
C302	C	0.615616	-0.538123	0.560985
H303	H	0.140408	-1.069903	0.030985
H304	H	0.640408	-0.569903	0.530985
H305	H	0.093519	-1.070728	0.091506
H306	H	0.593519	-0.570728	0.591506
H307	H	0.096212	-1.009951	0.026271
H308	H	0.596212	-0.509951	0.526271
C309	C	0.363396	-1.091507	0.010587
C310	C	0.863396	-0.591507	0.510587
H311	H	0.388191	-1.123284	-0.019410
H312	H	0.888191	-0.623284	0.480590
H313	H	0.341297	-1.124116	0.041101
H314	H	0.841297	-0.624116	0.541101
H315	H	0.343996	-1.063333	-0.024128
H316	H	0.843996	-0.563333	0.475872
H317	H	0.061012	-0.924223	-0.443764
H318	H	0.561012	-0.424223	0.056236
H319	H	0.467325	-1.076267	0.024973
H320	H	0.967325	-0.576267	0.524973
H321	H	0.212045	-0.829214	0.258120
H322	H	0.712045	-0.329214	0.758120
H323	H	0.774307	-1.022931	0.075325
H324	H	1.274307	-0.522931	0.575325
H325	H	0.627573	-1.076271	0.024965
H326	H	1.127573	-0.576271	0.524965
C327	C	0.879438	-1.038173	0.060924
C328	C	1.379438	-0.538173	0.560924
H329	H	0.914777	-1.030523	0.068136
H330	H	1.414777	-0.530523	0.568136
H331	H	0.870194	-1.090492	0.072834
H332	H	1.370194	-0.590492	0.572834
H333	H	0.872884	-1.029703	0.007612
H334	H	1.372884	-0.529703	0.507612
