data_functionalizedCrystal
_audit_creation_method	'MofGen! by Chris Wilmer'
_symmetry_space_group_name_H-M	'P1'
_symmetry_Int_Tables_number	1
_symmetry_cell_setting	triclinic
loop_
_symmetry_equiv_pos_as_xyz
  x,y,z
_cell_length_a	33.428889
_cell_length_b	33.428139
_cell_length_c	33.424847
_cell_angle_alpha	60.004234
_cell_angle_beta	60.008465
_cell_angle_gamma	59.994972
loop_
_atom_site_label
_atom_site_type_symbol
_atom_site_fract_x
_atom_site_fract_y
_atom_site_fract_z
O1	O	0.055565	-0.584504	0.488714
O2	O	0.020982	-0.455083	0.393778
O3	O	0.102943	-0.536959	0.393689
O4	O	-0.026396	-0.502628	0.488803
O5	O	0.130140	-0.509767	0.420792
O6	O	0.048179	-0.427891	0.420881
O7	O	0.082762	-0.557312	0.515817
Cu8	Cu	0.067954	-0.490119	0.470823
Cu9	Cu	0.035790	-0.522276	0.438771
O10	O	0.000801	-0.475436	0.515906
N11	N	0.090577	-0.467504	0.493370
N12	N	0.013171	-0.544895	0.416225
C13	C	0.143377	-0.280390	0.546067
C14	C	0.143515	-0.414755	0.680369
C15	C	0.143392	-0.414735	0.546069
C16	C	0.277766	-0.414702	0.545966
C17	C	0.158177	-0.324719	0.560828
C18	C	0.158255	-0.399967	0.636038
C19	C	0.233434	-0.399936	0.560773
C20	C	0.158186	-0.399955	0.560829
C21	C	0.124540	-0.223964	0.527278
C22	C	0.124565	-0.433545	0.527281
C23	C	0.177014	-0.381145	0.579617
C24	C	0.359814	-0.400540	0.502735
C25	C	0.411105	-0.417624	0.485606
C26	C	0.411136	-0.500620	0.517255
C27	C	0.359845	-0.483534	0.534385
C28	C	0.136887	-0.198305	0.476855
C29	C	0.119761	-0.147011	0.459777
C30	C	0.077945	-0.147038	0.543547
C31	C	0.095072	-0.198332	0.560625
C32	C	0.074134	-0.421169	0.539710
C33	C	0.057023	-0.438269	0.522625
C34	C	0.140770	-0.480120	0.480694
C35	C	0.157883	-0.463020	0.497773
C36	C	0.074339	-0.421208	0.762475
C37	C	0.057288	-0.438323	0.813768
C38	C	0.141075	-0.480183	0.813699
C39	C	0.158125	-0.463069	0.762404
C40	C	0.124756	-0.433580	0.736794
C41	C	0.334186	-0.433494	0.527123
C42	C	-0.173769	-0.597444	0.363037
C43	C	-0.039302	-0.597595	0.228856
C44	C	-0.039496	-0.597587	0.363300
C45	C	-0.039512	-0.731889	0.363237
C46	C	-0.129442	-0.612265	0.348329
C47	C	-0.054138	-0.612351	0.273187
C48	C	-0.054257	-0.687554	0.348440
C49	C	-0.054247	-0.612346	0.348477
C50	C	-0.230191	-0.578579	0.381758
C51	C	-0.020722	-0.578803	0.382168
C52	C	-0.073020	-0.631130	0.329609
C53	C	-0.053713	-0.813916	0.406386
C54	C	-0.036654	-0.865210	0.423504
C55	C	0.046338	-0.865293	0.391984
C56	C	0.029278	-0.813999	0.374865
C57	C	-0.255900	-0.590938	0.432169
C58	C	-0.307191	-0.573786	0.449185
C59	C	-0.307060	-0.531922	0.365377
C60	C	-0.255769	-0.549074	0.348360
C61	C	-0.033081	-0.528377	0.369764
C62	C	-0.016014	-0.511306	0.386922
C63	C	0.025770	-0.595083	0.428877
C64	C	0.008703	-0.612156	0.411725
C65	C	-0.032755	-0.528393	0.146761
C66	C	-0.015585	-0.511324	0.095468
C67	C	0.026262	-0.595106	0.095516
C68	C	0.009094	-0.612174	0.146811
C69	C	-0.020417	-0.578816	0.172432
C70	C	-0.020748	-0.788312	0.382068
N71	N	0.436037	-0.467415	0.493101
O72	O	0.592642	-0.471896	0.376066
O73	O	0.592838	-0.567146	0.505347
O74	O	0.592754	-0.566928	0.423360
O75	O	0.592727	-0.472113	0.458053
O76	O	0.511269	-0.539835	0.450606
O77	O	0.511353	-0.540052	0.532594
O78	O	0.511157	-0.444802	0.403312
Cu79	Cu	0.503815	-0.489954	0.470441
Cu80	Cu	0.600180	-0.521995	0.438219
O81	O	0.511242	-0.445020	0.485300
N82	N	0.667959	-0.544533	0.415554
N83	N	0.090544	-0.122107	0.493359
O84	O	-0.026406	0.034587	0.488773
O85	O	0.102877	0.034627	0.393499
O86	O	0.020848	0.034591	0.393771
O87	O	0.055623	0.034623	0.488500
O88	O	0.048051	-0.046899	0.420925
O89	O	0.130080	-0.046864	0.420653
O90	O	0.000796	-0.046903	0.515927
Cu91	Cu	0.067922	-0.054324	0.470769
Cu92	Cu	0.035752	0.042048	0.438656
O93	O	0.082825	-0.046867	0.515655
N94	N	0.013123	0.109830	0.416068
N95	N	0.090892	-0.467554	0.838649
O96	O	0.086330	-0.584488	0.995334
O97	O	-0.008902	-0.455160	0.995379
O98	O	-0.008679	-0.537172	0.995355
O99	O	0.086107	-0.502475	0.995358
O100	O	0.018452	-0.509990	0.913868
O101	O	0.018230	-0.427978	0.913891
O102	O	0.113461	-0.557306	0.913847
Cu103	Cu	0.068323	-0.490160	0.906429
Cu104	Cu	0.036237	-0.522306	1.002797
O105	O	0.113239	-0.475293	0.913870
N106	N	0.013667	-0.544916	1.070577
C107	C	0.031339	-0.425179	0.394250
C108	C	0.132837	-0.526572	0.394139
C109	C	0.072405	-0.587216	0.515344
C110	C	-0.029093	-0.485823	0.515455
C111	C	0.552119	-0.566716	0.535258
C112	C	0.552016	-0.566447	0.433726
C113	C	0.551873	-0.445232	0.373402
C114	C	0.551980	-0.445502	0.474933
C115	C	0.132731	-0.006013	0.393923
C116	C	0.031182	-0.006158	0.394293
C117	C	-0.029092	-0.006163	0.515469
C118	C	0.072491	-0.006119	0.515133
C119	C	-0.008451	-0.425276	0.954641
C120	C	-0.008170	-0.526833	0.954596
C121	C	0.113010	-0.587190	0.954585
C122	C	0.112735	-0.485627	0.954611
H123	H	0.016234	-0.428240	0.834672
H124	H	0.023733	-0.006162	0.364531
H125	H	-0.066242	-0.478508	0.545321
H126	H	0.023949	-0.388000	0.364433
C127	C	0.152460	-0.475668	0.954503
C128	C	0.163589	-0.436266	0.912578
C129	C	0.200186	-0.427082	0.912458
H130	H	0.141202	-0.467863	0.982889
H131	H	0.181000	-0.503972	0.954464
H132	H	0.135055	-0.407968	0.912622
H133	H	0.174856	-0.444060	0.884185
H134	H	0.228726	-0.455386	0.912419
H135	H	0.188923	-0.419279	0.940847
H136	H	0.207745	-0.400350	0.884011
H137	H	0.079939	-0.006110	0.544893
H138	H	-0.057039	-0.501216	0.345698
H139	H	0.169783	-0.005775	0.363939
C140	C	0.182407	-0.536409	0.354383
C141	C	0.212618	-0.584219	0.372009
C142	C	0.258288	-0.593295	0.335401
H143	H	0.178187	-0.532764	0.326528
H144	H	0.197119	-0.513782	0.345454
H145	H	0.197910	-0.606839	0.380931
H146	H	0.216852	-0.587875	0.399859
H147	H	0.272999	-0.570669	0.326473
H148	H	0.254063	-0.589648	0.307548
H149	H	0.278793	-0.625733	0.347357
H150	H	0.079796	-0.624394	0.545162
C151	C	0.552043	-0.405855	0.484869
C152	C	0.593989	-0.422635	0.496280
C153	C	0.594061	-0.386129	0.505442
H154	H	0.552021	-0.377308	0.456586
H155	H	0.523662	-0.398261	0.511636
H156	H	0.622362	-0.430222	0.469515
H157	H	0.594020	-0.451176	0.524564
H158	H	0.565680	-0.378535	0.532209
H159	H	0.594038	-0.357585	0.477158
H160	H	0.622518	-0.397510	0.513190
C161	C	0.551930	-0.606113	0.423839
C162	C	0.509973	-0.589344	0.412451
C163	C	0.509873	-0.625873	0.403346
H164	H	0.580293	-0.613740	0.397082
H165	H	0.551950	-0.634641	0.452151
H166	H	0.509957	-0.560825	0.384142
H167	H	0.481603	-0.581721	0.439201
H168	H	0.509893	-0.654401	0.431659
H169	H	0.538238	-0.633498	0.376590
H170	H	0.481404	-0.614502	0.395623
H171	H	0.552170	-0.596617	0.572390
H172	H	0.047002	-0.397168	0.563734
C173	C	-0.078641	-0.006142	0.555278
C174	C	-0.108909	-0.006142	0.537741
C175	C	-0.154560	-0.006111	0.574395
H176	H	-0.074402	-0.034547	0.583144
H177	H	-0.093319	0.022292	0.564167
H178	H	-0.094234	-0.034572	0.528859
H179	H	-0.113162	0.022261	0.509880
H180	H	-0.169238	0.022322	0.583284
H181	H	-0.150316	-0.034517	0.602259
H182	H	-0.175104	-0.006107	0.562500
C183	C	0.551816	-0.405424	0.323857
C184	C	0.551806	-0.422991	0.293618
C185	C	0.551758	-0.386336	0.247973
H186	H	0.523389	-0.377578	0.328113
H187	H	0.580224	-0.396496	0.309145
H188	H	0.523400	-0.431912	0.308327
H189	H	0.580230	-0.450832	0.289348
H190	H	0.580167	-0.377408	0.233261
H191	H	0.523332	-0.358492	0.252234
H192	H	0.551756	-0.398251	0.227449
H193	H	-0.038348	-0.388133	0.954654
H194	H	-0.037935	-0.534246	0.954563
C195	C	0.152861	-0.636710	0.954489
C196	C	0.164107	-0.645396	0.912564
C197	C	0.200811	-0.691011	0.912462
H198	H	0.181341	-0.636811	0.954461
H199	H	0.141645	-0.661662	0.982886
H200	H	0.175325	-0.620451	0.884175
H201	H	0.135638	-0.645305	0.912583
H202	H	0.189595	-0.715964	0.940858
H203	H	0.229288	-0.691109	0.912435
H204	H	0.208443	-0.696913	0.884019
C205	C	0.038084	-0.389273	0.734698
C206	C	0.008672	-0.415045	0.747188
C207	C	-0.024726	-0.385648	0.721604
H208	H	0.018027	-0.360268	0.743098
H209	H	0.055439	-0.380862	0.700467
H210	H	-0.008682	-0.423449	0.781411
H211	H	0.028715	-0.444048	0.738786
H212	H	-0.007372	-0.377236	0.687373
H213	H	-0.044780	-0.356644	0.730006
H214	H	-0.044683	-0.403131	0.730072
C215	C	0.177325	-0.512277	0.841482
C216	C	0.206742	-0.554979	0.828993
C217	C	0.240134	-0.584563	0.854584
H218	H	0.197379	-0.494933	0.833088
H219	H	0.159965	-0.520731	0.875712
H220	H	0.224100	-0.546525	0.794771
H221	H	0.186701	-0.572335	0.837389
H222	H	0.222774	-0.593016	0.888814
H223	H	0.260184	-0.567215	0.846187
H224	H	0.260094	-0.613541	0.846117
C225	C	0.212862	-0.476571	0.734498
C226	C	0.225107	-0.502214	0.705059
C227	C	0.275525	-0.514665	0.679352
H228	H	0.221311	-0.447598	0.714447
H229	H	0.230309	-0.496605	0.757084
H230	H	0.207665	-0.482181	0.682476
H231	H	0.216670	-0.531192	0.725098
H232	H	0.292972	-0.534699	0.701938
H233	H	0.283970	-0.485689	0.659304
H234	H	0.283841	-0.532069	0.659378
H235	H	0.015959	-0.428182	0.532734
H236	H	0.198948	-0.473094	0.487648
C237	C	0.176973	-0.512040	0.448577
C238	C	0.206355	-0.486258	0.405859
C239	C	0.239706	-0.515641	0.376257
H240	H	0.197055	-0.541050	0.465896
H241	H	0.159581	-0.520443	0.440146
H242	H	0.223746	-0.477861	0.414289
H243	H	0.186287	-0.457250	0.388526
H244	H	0.222314	-0.524044	0.367826
H245	H	0.259784	-0.544650	0.393580
H246	H	0.259642	-0.498151	0.347267
C247	C	0.332111	-0.519390	0.560832
C248	C	0.365566	-0.566866	0.563509
C249	C	0.340035	-0.599910	0.587862
H250	H	0.312124	-0.518153	0.592989
H251	H	0.312092	-0.510840	0.543370
H252	H	0.385576	-0.575414	0.580972
H253	H	0.385554	-0.568119	0.531359
H254	H	0.320016	-0.591360	0.570400
H255	H	0.320048	-0.598669	0.620018
H256	H	0.362730	-0.632126	0.589678
H257	H	0.432025	-0.541365	0.523165
H258	H	0.431972	-0.390789	0.465748
H259	H	0.338923	-0.359792	0.496821
C260	C	-0.064822	-0.492251	0.174664
C261	C	-0.077228	-0.517988	0.225079
C262	C	-0.106770	-0.484712	0.250799
H263	H	-0.047458	-0.472251	0.166352
H264	H	-0.093817	-0.472224	0.166230
H265	H	-0.048238	-0.538007	0.233509
H266	H	-0.094598	-0.537987	0.233406
H267	H	-0.135765	-0.464685	0.242365
H268	H	-0.089403	-0.464713	0.242483
H269	H	-0.115195	-0.502170	0.285007
C270	C	0.168854	-0.226044	0.440571
C271	C	0.175985	-0.192592	0.392756
C272	C	0.205425	-0.218130	0.359319
H273	H	0.199639	-0.246047	0.445407
H274	H	0.153195	-0.246051	0.445484
H275	H	0.191645	-0.172594	0.387844
H276	H	0.145210	-0.172588	0.387904
H277	H	0.189767	-0.238136	0.364233
H278	H	0.236208	-0.238132	0.364160
H279	H	0.210264	-0.195437	0.326873
H280	H	-0.063498	-0.886058	0.443304
H281	H	0.053957	-0.126168	0.570702
C282	C	0.081733	-0.226148	0.615380
C283	C	0.099206	-0.213659	0.636447
C284	C	0.086931	-0.239272	0.686888
H285	H	0.047136	-0.217771	0.629871
H286	H	0.096161	-0.260376	0.620815
H287	H	0.084776	-0.179439	0.631016
H288	H	0.133803	-0.222038	0.621971
H289	H	0.101359	-0.273500	0.692323
H290	H	0.052334	-0.230892	0.701374
H291	H	0.098789	-0.230805	0.701188
C292	C	-0.029066	-0.456557	0.067690
C293	C	-0.058597	-0.431002	0.101110
C294	C	-0.071029	-0.380550	0.075539
H295	H	-0.000089	-0.448110	0.047723
H296	H	-0.046454	-0.448114	0.047645
H297	H	-0.041210	-0.439442	0.121146
H298	H	-0.087581	-0.439434	0.121077
H299	H	-0.088417	-0.372107	0.055494
H300	H	-0.042049	-0.372108	0.055573
H301	H	-0.091071	-0.363205	0.098210
H302	H	0.050281	-0.622271	0.074658
C303	C	0.022422	-0.666928	0.174655
C304	C	0.004993	-0.688006	0.162133
C305	C	0.017254	-0.738443	0.187777
H306	H	0.057017	-0.681433	0.166327
H307	H	0.007958	-0.672339	0.208877
H308	H	0.019458	-0.682600	0.127919
H309	H	-0.029601	-0.673517	0.170463
H310	H	0.002790	-0.743853	0.222000
H311	H	0.051849	-0.752942	0.179447
H312	H	0.005427	-0.752750	0.179288
C313	C	-0.029449	-0.456539	0.373370
C314	C	-0.058850	-0.430982	0.343793
C315	C	-0.071223	-0.380530	0.331287
H316	H	-0.046911	-0.448031	0.402318
H317	H	-0.000432	-0.448157	0.355992
H318	H	-0.087862	-0.439359	0.361170
H319	H	-0.041397	-0.439474	0.314838
H320	H	-0.042206	-0.372149	0.313910
H321	H	-0.088684	-0.372028	0.360238
H322	H	-0.091170	-0.363184	0.311215
H323	H	0.049734	-0.622248	0.452940
C324	C	0.022096	-0.666918	0.425286
C325	C	0.004599	-0.688005	0.476306
C326	C	0.016934	-0.738450	0.488815
H327	H	0.007727	-0.672375	0.410886
H328	H	0.056707	-0.681379	0.413570
H329	H	-0.030005	-0.673549	0.488017
H330	H	0.018966	-0.682562	0.490718
H331	H	0.051545	-0.752911	0.477098
H332	H	0.002563	-0.743902	0.474411
H333	H	0.005068	-0.752765	0.523432
C334	C	0.065136	-0.786267	0.348405
C335	C	0.099741	-0.798789	0.306455
C336	C	0.132788	-0.773258	0.282072
H337	H	0.047881	-0.752031	0.339189
H338	H	0.081343	-0.794700	0.369536
H339	H	0.083535	-0.790353	0.285328
H340	H	0.117008	-0.833021	0.315657
H341	H	0.148995	-0.781690	0.303203
H342	H	0.115528	-0.739023	0.272860
H343	H	0.156273	-0.781753	0.253610
C344	C	-0.108041	-0.786114	0.414212
C345	C	-0.133254	-0.819519	0.439153
C346	C	-0.183299	-0.793928	0.446360
H347	H	-0.120169	-0.766090	0.433023
H348	H	-0.112759	-0.766124	0.383368
H349	H	-0.128539	-0.839501	0.469992
H350	H	-0.121141	-0.839544	0.420350
H351	H	-0.188016	-0.773938	0.415515
H352	H	-0.195422	-0.773905	0.465169
H353	H	-0.200411	-0.816590	0.463279
C354	C	0.100633	-0.893209	0.384268
C355	C	0.107442	-0.922644	0.429789
C356	C	0.157453	-0.948364	0.422701
H357	H	0.112734	-0.913265	0.365499
H358	H	0.117839	-0.870629	0.367356
H359	H	0.090242	-0.945221	0.446694
H360	H	0.095353	-0.902600	0.448565
H361	H	0.174659	-0.925785	0.405789
H362	H	0.169549	-0.968418	0.403931
H363	H	0.162079	-0.968336	0.453585
H364	H	-0.235077	-0.614964	0.459366
C365	C	-0.335019	-0.587283	0.503938
C366	C	-0.301640	-0.616809	0.529543
C367	C	-0.327255	-0.629259	0.579982
H368	H	-0.355031	-0.558310	0.512402
H369	H	-0.355022	-0.604682	0.512323
H370	H	-0.281645	-0.599409	0.521162
H371	H	-0.281628	-0.645788	0.521094
H372	H	-0.347258	-0.646659	0.588367
H373	H	-0.347266	-0.600284	0.588441
H374	H	-0.304611	-0.649297	0.597361
H375	H	0.129813	-0.126117	0.418717
H376	H	-0.327887	-0.507903	0.338181
C377	C	-0.227946	-0.535622	0.293609
C378	C	-0.261327	-0.506119	0.268006
C379	C	-0.235714	-0.493721	0.217566
H380	H	-0.207929	-0.518222	0.285174
H381	H	-0.207949	-0.564628	0.285193
H382	H	-0.281316	-0.477118	0.276418
H383	H	-0.281346	-0.523510	0.276425
H384	H	-0.215717	-0.522727	0.209150
H385	H	-0.215697	-0.476323	0.209137
H386	H	-0.258359	-0.473706	0.200188
