data_functionalizedCrystal
_audit_creation_method	'MofGen! by Chris Wilmer'
_symmetry_space_group_name_H-M	'P1'
_symmetry_Int_Tables_number	1
_symmetry_cell_setting	triclinic
loop_
_symmetry_equiv_pos_as_xyz
  x,y,z
_cell_length_a	11.026660
_cell_length_b	23.532357
_cell_length_c	10.065875
_cell_angle_alpha	98.726510
_cell_angle_beta	79.302288
_cell_angle_gamma	95.706563
loop_
_atom_site_label
_atom_site_type_symbol
_atom_site_fract_x
_atom_site_fract_y
_atom_site_fract_z
O1	O	1.625039	0.231627	-0.113560
O2	O	1.272071	0.204507	-0.113554
O3	O	1.459226	0.136258	-0.113529
O4	O	1.437884	0.299876	-0.113585
O5	O	1.423537	0.149339	0.113455
O6	O	1.236382	0.217588	0.113430
O7	O	1.589350	0.244708	0.113424
Zn8	Zn	1.407200	0.233225	0.149466
Zn9	Zn	1.454221	0.215990	-0.149595
O10	O	1.402195	0.312957	0.113399
C11	C	1.209078	0.206045	-0.000060
C12	C	1.074550	0.191130	-0.000057
C13	C	0.861191	0.216902	-0.000070
C14	C	1.000233	0.232318	-0.000072
C15	C	1.440847	0.121526	-0.000033
C16	C	1.439239	0.058139	-0.000020
C17	C	1.448625	-0.342067	-0.123822
C18	C	1.447100	-0.401628	-0.123830
O19	O	1.462814	-0.438496	-0.229057
N20	N	1.426889	-0.424288	-0.000103
C21	C	1.408190	-0.387385	0.123640
O22	O	1.390858	-0.412128	0.228879
C23	C	1.409707	-0.327826	0.123647
C24	C	1.429931	-0.305169	-0.000089
C25	C	1.468846	-0.319409	-0.247548
C26	C	1.470373	-0.259853	-0.247539
C27	C	1.451679	-0.222954	-0.123806
C28	C	1.431458	-0.245612	-0.000080
C29	C	1.390999	-0.290925	0.247388
C30	C	1.392516	-0.231362	0.247384
C31	C	1.412741	-0.208705	0.123649
C32	C	1.414291	-0.149157	0.123661
N33	N	1.434502	-0.126497	-0.000066
C34	C	1.453196	-0.163395	-0.123799
C35	C	1.405004	-0.512463	0.123618
C36	C	1.403496	-0.572021	0.123613
C37	C	1.442404	-0.586259	-0.123858
C38	C	1.443920	-0.526700	-0.123852
C39	C	1.425215	-0.489803	-0.000110
C40	C	1.456402	-0.038322	-0.123773
C41	C	1.457933	0.021240	-0.123753
C42	C	1.419019	0.035474	0.123717
C43	C	1.417495	-0.024083	0.123698
C44	C	1.436184	-0.060981	-0.000057
O45	O	1.398581	-0.112255	0.228834
O46	O	1.470509	-0.138644	-0.229021
C47	C	1.652343	0.243170	-0.000072
C48	C	1.786873	0.258084	-0.000085
C49	C	1.420575	0.327689	-0.000100
C50	C	1.422184	0.391075	-0.000122
N51	N	1.375118	0.244988	0.353567
N52	N	1.486313	0.204224	-0.353697
C53	C	1.443051	0.220078	0.421355
C54	C	1.418370	0.229137	0.578519
H55	H	1.035262	0.144451	-0.000131
O56	O	0.838924	0.319909	-0.000089
H57	H	0.822030	0.336050	-0.092603
O58	O	1.544265	0.182929	0.344105
H59	H	1.613212	0.209114	0.278965
H60	H	1.341927	0.257168	0.636830
H61	H	1.562747	0.176187	0.587993
H62	H	1.298680	0.273018	0.411883
H63	H	1.474405	0.039684	-0.224518
O64	O	1.465724	-0.502266	-0.257309
H65	H	1.384732	-0.478861	-0.263224
O66	O	1.398860	0.075280	0.257164
H67	H	1.384551	0.049524	0.343209
H68	H	0.821878	0.170233	-0.000034
O69	O	1.476547	-0.078112	-0.257252
H70	H	1.568786	-0.066707	-0.316579
O71	O	1.052278	0.294145	-0.000094
H72	H	1.153321	0.296551	-0.000102
H73	H	1.387046	-0.590462	0.224371
O74	O	1.492154	-0.235419	-0.380996
H75	H	1.504876	-0.271091	-0.467025
H76	H	1.484065	-0.349447	-0.348312
H77	H	1.457621	-0.616313	-0.224609
H78	H	1.389775	-0.482424	0.224390
O79	O	1.369174	-0.315355	0.380847
H80	H	1.356414	-0.279683	0.466873
O81	O	1.372356	-0.191563	0.380851
H82	H	1.358052	-0.217329	0.466880
O83	O	1.395705	-0.048516	0.257163
H84	H	1.476700	-0.071918	0.263083
