data_functionalizedCrystal
_audit_creation_method	'MofGen! by Chris Wilmer'
_symmetry_space_group_name_H-M	'P1'
_symmetry_Int_Tables_number	1
_symmetry_cell_setting	triclinic
loop_
_symmetry_equiv_pos_as_xyz
  x,y,z
_cell_length_a	13.262390
_cell_length_b	27.731996
_cell_length_c	12.376457
_cell_angle_alpha	101.172962
_cell_angle_beta	63.168449
_cell_angle_gamma	83.560757
loop_
_atom_site_label
_atom_site_type_symbol
_atom_site_fract_x
_atom_site_fract_y
_atom_site_fract_z
O1	O	1.512220	0.010260	-0.558954
O2	O	1.184792	0.027216	-0.458289
O3	O	1.358700	-0.051914	-0.511731
O4	O	1.338312	0.089390	-0.505512
O5	O	1.315239	-0.032157	-0.310363
O6	O	1.141331	0.046973	-0.256922
O7	O	1.468758	0.030017	-0.357586
Zn8	Zn	1.298144	0.041632	-0.275282
Zn9	Zn	1.355406	0.015601	-0.540593
O10	O	1.294851	0.109147	-0.304144
C11	C	1.121186	0.037961	-0.344731
C12	C	0.996408	0.040537	-0.306368
C13	C	0.739456	0.004713	-0.637311
C14	C	0.856692	0.002290	-0.673357
C15	C	0.891627	0.011852	-0.581613
C16	C	0.809314	0.023837	-0.453817
C17	C	0.692068	0.026256	-0.417768
C18	C	0.844239	0.033395	-0.362069
C19	C	0.761926	0.045380	-0.234273
C20	C	0.644692	0.047799	-0.198230
C21	C	0.609757	0.038238	-0.289974
C22	C	0.961485	0.030976	-0.398118
C23	C	0.914097	0.052519	-0.178575
C24	C	0.796861	0.054942	-0.142529
C25	C	1.336549	-0.060032	-0.410914
C26	C	1.335285	-0.113655	-0.410514
C27	C	1.351047	-0.456947	-0.517897
C28	C	1.346258	-0.658488	-0.516445
O29	O	1.365739	-0.693701	-0.609592
N30	N	1.321973	-0.672920	-0.406497
C31	C	1.298875	-0.636964	-0.296903
O32	O	1.278097	-0.653863	-0.203349
C33	C	1.303656	-0.435424	-0.298354
C34	C	1.327954	-0.420995	-0.408312
C35	C	1.375342	-0.442518	-0.627846
C36	C	1.376545	-0.392136	-0.628210
C37	C	1.353453	-0.356184	-0.518625
C38	C	1.329157	-0.370614	-0.408676
C39	C	1.280550	-0.399468	-0.188758
C40	C	1.281745	-0.349080	-0.189130
C41	C	1.306043	-0.334652	-0.299088
C42	C	1.307268	-0.284280	-0.299455
N43	N	1.331553	-0.269847	-0.409402
C44	C	1.354646	-0.305799	-0.518987
C45	C	1.296369	-0.742776	-0.296149
C46	C	1.295176	-0.793161	-0.295787
C47	C	1.342557	-0.814681	-0.515329
C48	C	1.343758	-0.764296	-0.515693
C49	C	1.320655	-0.728343	-0.406097
C50	C	1.357171	-0.199994	-0.519743
C51	C	1.358377	-0.149607	-0.520099
C52	C	1.310990	-0.128091	-0.300556
C53	C	1.309790	-0.178474	-0.300201
C54	C	1.332879	-0.214424	-0.409804
O55	O	1.287786	-0.249040	-0.206353
O56	O	1.375396	-0.288888	-0.612520
C57	C	1.349844	-0.507329	-0.517533
C58	C	1.325548	-0.521759	-0.407584
C59	C	1.302456	-0.485807	-0.297999
C60	C	1.324355	-0.572144	-0.407222
C61	C	1.347448	-0.608096	-0.516807
C62	C	1.371733	-0.593663	-0.626755
C63	C	1.372936	-0.543281	-0.627118
C64	C	1.278170	-0.500240	-0.188052
C65	C	1.276970	-0.550622	-0.187697
C66	C	1.300063	-0.586574	-0.297282
C67	C	1.532366	0.019272	-0.471147
C68	C	1.657145	0.016695	-0.509518
C69	C	1.317002	0.117264	-0.404964
C70	C	1.318268	0.170887	-0.405372
N71	N	1.259073	0.059396	-0.094217
N72	N	1.394487	-0.002167	-0.721661
C73	C	1.485184	-0.043414	0.191284
C74	C	1.512524	-0.055847	0.064542
C75	C	1.449164	-0.027038	0.024846
C76	C	1.358459	0.014208	0.111904
C77	C	1.331122	0.026645	0.238656
C78	C	1.295101	0.043021	0.072218
C79	C	1.204396	0.084266	0.159276
C80	C	1.177063	0.096701	0.286015
C81	C	1.240424	0.067891	0.325712
C82	C	1.322438	0.030584	-0.054534
C83	C	1.168375	0.100643	-0.007162
C84	C	1.141035	0.113076	0.119580
H85	H	0.729826	0.064700	-0.038476
H86	H	1.396290	-0.002998	-0.125406
C87	C	1.367951	-0.854234	-0.635872
C88	C	1.289996	-0.847933	-0.696444
C89	C	1.315378	-0.887488	-0.816976
C90	C	1.418716	-0.933343	-0.876935
C91	C	1.496678	-0.939647	-0.816363
C92	C	1.471296	-0.900092	-0.695831
H93	H	1.213493	-0.813986	-0.652059
H94	H	1.257665	-0.882821	-0.861816
H95	H	1.437506	-0.962624	-0.966160
H96	H	1.573181	-0.973594	-0.860748
H97	H	1.529009	-0.904759	-0.650991
C98	C	1.250251	-0.566487	-0.066732
C99	C	1.133220	-0.542418	0.053794
C100	C	1.106496	-0.558280	0.174758
C101	C	1.196803	-0.598210	0.175196
C102	C	1.313842	-0.622281	0.054666
C103	C	1.340566	-0.606420	-0.066299
H104	H	1.066363	-0.512858	0.053473
H105	H	1.019856	-0.540460	0.263983
H106	H	1.177020	-0.609951	0.264741
H107	H	1.380699	-0.651841	0.054986
H108	H	1.427206	-0.624239	-0.155523
C109	C	1.253846	-0.415323	-0.067796
C110	C	1.136825	-0.391253	0.052742
C111	C	1.110132	-0.407103	0.173713
C112	C	1.200460	-0.447023	0.174147
C113	C	1.317489	-0.471096	0.053604
C114	C	1.344182	-0.455246	-0.067367
H115	H	1.069952	-0.361699	0.052425
H116	H	1.023499	-0.389282	0.262947
H117	H	1.180700	-0.458756	0.263697
H118	H	1.384362	-0.500649	0.053921
H119	H	1.430815	-0.473066	-0.156601
H120	H	0.923704	-0.007470	-0.777408
C121	C	1.382578	-0.239536	-0.640307
C122	C	1.499945	-0.249736	-0.760926
C123	C	1.525360	-0.289278	-0.881491
C124	C	1.433408	-0.318620	-0.881436
C125	C	1.316032	-0.308421	-0.760812
C126	C	1.290617	-0.268878	-0.640248
H127	H	1.568021	-0.228014	-0.760971
H128	H	1.612250	-0.296829	-0.970785
H129	H	1.452221	-0.347892	-0.970685
H130	H	1.247956	-0.330142	-0.760768
H131	H	1.203728	-0.261328	-0.550954
C132	C	0.952506	0.063035	-0.077640
C133	C	0.903330	0.114578	0.022023
C134	C	0.941747	0.125089	0.122950
C135	C	1.029340	0.084058	0.124214
C136	C	1.078522	0.032511	0.024547
C137	C	1.040105	0.021999	-0.076380
H138	H	0.838483	0.144955	0.021091
H139	H	0.905339	0.163248	0.196730
H140	H	1.057779	0.091839	0.198926
H141	H	1.143368	0.002134	0.025479
H142	H	1.076512	-0.016159	-0.150160
H143	H	0.577677	0.057549	-0.094171
H144	H	1.378167	-0.137863	-0.609645
H145	H	1.396328	-0.380394	-0.717748
C146	C	1.052018	0.017797	-0.538686
C147	C	1.125623	0.055499	-0.589524
C148	C	1.216157	0.042321	-0.730101
C149	C	1.233086	-0.008560	-0.819839
C150	C	1.159479	-0.046265	-0.769002
C151	C	1.068945	-0.033087	-0.628425
H152	H	1.113092	0.093166	-0.523093
H153	H	1.270645	0.070233	-0.767733
H154	H	1.300105	-0.018315	-0.923902
H155	H	1.172010	-0.083933	-0.835433
H156	H	1.014457	-0.060999	-0.590793
C157	C	1.098669	0.132336	-0.050813
C158	C	0.998908	0.177708	0.044938
C159	C	0.929211	0.209400	0.001275
C160	C	0.959276	0.195719	-0.138138
C161	C	1.059042	0.150345	-0.233898
C162	C	1.128738	0.118654	-0.190235
H163	H	0.976648	0.187837	0.148148
H164	H	0.855358	0.242989	0.072163
H165	H	0.907682	0.219179	-0.170460
H166	H	1.081302	0.140216	-0.337108
H167	H	1.202592	0.085065	-0.261123
H168	H	1.394144	-0.471786	-0.717087
H169	H	1.363543	-0.752552	-0.605230
H170	H	0.987087	0.009879	-0.610969
H171	H	1.275407	-0.804905	-0.206253
H172	H	1.277560	-0.713507	-0.206900
H173	H	1.586376	-0.089428	-0.006336
C174	C	1.077296	0.142073	0.381782
C175	C	1.101768	0.186375	0.455590
C176	C	1.002001	0.231746	0.551357
C177	C	0.877761	0.232815	0.573316
C178	C	0.853283	0.188511	0.499506
C179	C	0.953050	0.143140	0.403739
H180	H	1.193743	0.185585	0.439337
H181	H	1.020122	0.264543	0.605995
H182	H	0.803908	0.266402	0.644208
H183	H	0.761308	0.189301	0.515759
H184	H	0.934929	0.110343	0.349101
H185	H	1.262914	-0.319808	-0.099877
H186	H	1.067182	0.146659	0.190477
H187	H	0.711001	-0.003075	-0.711995
C188	C	1.283035	-0.194355	-0.179252
C189	C	1.165982	-0.170290	-0.058753
C190	C	1.139197	-0.186169	0.062202
C191	C	1.229465	-0.226114	0.062657
C192	C	1.346526	-0.250182	-0.057848
C193	C	1.373311	-0.234303	-0.178802
H194	H	1.099154	-0.140718	-0.059085
H195	H	1.052541	-0.168353	0.151407
H196	H	1.209637	-0.237869	0.152195
H197	H	1.413354	-0.279754	-0.057515
H198	H	1.459967	-0.252119	-0.268008
H199	H	1.292194	-0.098810	-0.211336
H200	H	0.514295	0.040211	-0.260632
H201	H	1.536770	-0.066865	0.223613
C202	C	1.479227	-0.040716	-0.114567
C203	C	1.472180	-0.092941	-0.177459
C204	C	1.502242	-0.106623	-0.316877
C205	C	1.539353	-0.068079	-0.393405
C206	C	1.546402	-0.015850	-0.330514
C207	C	1.516339	-0.002168	-0.191095
H208	H	1.444707	-0.121477	-0.120808
H209	H	1.497024	-0.145287	-0.363433
H210	H	1.561607	-0.078207	-0.496611
H211	H	1.573875	0.012686	-0.387165
H212	H	1.521557	0.036496	-0.144540
C213	C	1.397132	-0.633216	-0.747299
C214	C	1.514492	-0.643432	-0.867936
C215	C	1.539882	-0.682987	-0.988471
C216	C	1.447911	-0.712326	-0.988368
C217	C	1.330544	-0.702111	-0.867726
C218	C	1.305154	-0.662556	-0.747192
H219	H	1.582581	-0.621712	-0.868017
H220	H	1.626766	-0.690548	-1.077778
H221	H	1.466706	-0.741607	-1.077595
H222	H	1.262455	-0.723830	-0.867646
H223	H	1.218270	-0.654995	-0.657885
H224	H	1.392722	-0.531539	-0.716658
H225	H	1.259367	-0.470971	-0.098813
H226	H	1.218162	0.078013	0.428915
