data_functionalizedCrystal
_audit_creation_method	'MofGen! by Chris Wilmer'
_symmetry_space_group_name_H-M	'P1'
_symmetry_Int_Tables_number	1
_symmetry_cell_setting	triclinic
loop_
_symmetry_equiv_pos_as_xyz
  x,y,z
_cell_length_a	6.817900
_cell_length_b	12.908943
_cell_length_c	15.300912
_cell_angle_alpha	95.515199
_cell_angle_beta	104.173621
_cell_angle_gamma	100.860631
loop_
_atom_site_label
_atom_site_type_symbol
_atom_site_fract_x
_atom_site_fract_y
_atom_site_fract_z
V1	V	-3.999608	-0.328999	-0.123632
O2	O	-3.984115	-0.322407	0.007099
O3	O	-3.954699	-0.327065	-0.246255
O4	O	-3.937818	-0.472342	-0.121222
O5	O	-4.001112	-0.176124	-0.118799
V6	V	-4.484518	-0.310675	-0.108055
O7	O	-4.257822	-0.369193	-0.157801
O8	O	-4.676501	-0.270481	-0.073886
O9	O	-4.306221	-0.312609	0.014568
O10	O	-4.617408	-0.317267	-0.238786
O11	O	-4.600411	-0.463550	-0.112887
O12	O	-4.323101	-0.167332	-0.110465
C13	C	-3.800982	-0.321957	-0.276163
C14	C	-3.845461	-0.321331	-0.376406
C15	C	-4.218882	-0.323910	-0.812762
C16	C	-4.177071	-0.324491	-0.718572
C17	C	-3.974417	-0.319516	-0.666909
C18	C	-3.813561	-0.313949	-0.709439
C19	C	-3.855371	-0.313360	-0.803626
C20	C	-3.726430	-0.315177	-0.513124
C21	C	-3.684618	-0.315768	-0.418930
C22	C	-4.048130	-0.326308	-0.428070
C23	C	-4.089940	-0.325720	-0.522257
C24	C	-3.929081	-0.320155	-0.564780
C25	C	-3.779449	-0.507271	-0.116670
C26	C	-3.810236	-0.624457	-0.115511
C27	C	-4.231594	-0.855421	-0.122282
C28	C	-4.260530	-0.965528	-0.121193
C29	C	-3.897045	-0.954779	-0.112239
C30	C	-3.868109	-0.844672	-0.113328
C31	C	-4.035391	-0.794997	-0.118351
C32	C	-4.006455	-0.684889	-0.119446
C33	C	-3.642970	-0.674141	-0.110485
C34	C	-3.671906	-0.784248	-0.109397
C35	C	-4.123280	-0.317715	0.044472
C36	C	-4.058038	-0.318347	0.144714
C37	C	-4.144813	-0.132398	-0.115019
C38	C	-4.093265	-0.015211	-0.116173
H39	H	-4.142669	-0.644446	-0.123539
H40	H	-3.535715	-0.824708	-0.105304
H41	H	-4.367807	-0.814977	-0.126381
H42	H	-3.595441	-0.310656	-0.547744
H43	H	-4.179106	-0.330837	-0.393442
H44	H	-4.383903	-0.327968	-0.854821
H45	H	-4.308052	-0.329026	-0.683954
H46	H	-3.724396	-0.308839	-0.838249
O47	O	-4.451281	-1.024075	-0.125067
C48	C	-4.592700	-0.956611	-0.129712
H49	H	-4.533051	-0.881847	-0.157831
H50	H	-4.609365	-0.933121	-0.058575
C51	C	-4.878506	-1.107468	-0.158360
C52	C	-4.805252	-1.015645	-0.192903
H53	H	-5.009621	-1.143883	-0.197335
H54	H	-4.783230	-1.152920	-0.155227
H55	H	-4.892376	-1.087879	-0.099079
H56	H	-4.791359	-1.035235	-0.252177
H57	H	-4.900531	-0.970197	-0.196047
O58	O	-3.487626	-0.310869	-0.368870
C59	C	-3.354616	-0.305845	-0.426598
H60	H	-3.426718	-0.273435	-0.490722
H61	H	-3.330980	-0.389150	-0.446250
C62	C	-3.055295	-0.271411	-0.297733
C63	C	-3.143844	-0.231597	-0.376487
H64	H	-2.925277	-0.225616	-0.266822
H65	H	-3.144905	-0.274800	-0.258839
H66	H	-3.035617	-0.340832	-0.314120
H67	H	-3.163544	-0.162184	-0.360098
H68	H	-3.054231	-0.228194	-0.415377
H69	H	-4.254958	-0.329779	-0.564320
H70	H	-3.648552	-0.309891	-0.667366
H71	H	-3.483206	-0.624932	-0.107288
H72	H	-3.760858	-0.995242	-0.108144
