data_functionalizedCrystal
_audit_creation_method	'MofGen! by Chris Wilmer'
_symmetry_space_group_name_H-M	'P1'
_symmetry_Int_Tables_number	1
_symmetry_cell_setting	triclinic
loop_
_symmetry_equiv_pos_as_xyz
  x,y,z
_cell_length_a	10.723024
_cell_length_b	23.532407
_cell_length_c	9.798715
_cell_angle_alpha	89.992208
_cell_angle_beta	89.996609
_cell_angle_gamma	83.658273
loop_
_atom_site_label
_atom_site_type_symbol
_atom_site_fract_x
_atom_site_fract_y
_atom_site_fract_z
O1	O	1.654699	0.079871	-0.113498
O2	O	1.291309	0.087516	-0.113504
O3	O	1.483962	0.000833	-0.113476
O4	O	1.462046	0.166554	-0.113526
O5	O	1.483948	0.000833	0.113507
O6	O	1.291294	0.087516	0.113478
O7	O	1.654685	0.079871	0.113484
Zn8	Zn	1.472987	0.083693	0.149520
Zn9	Zn	1.473006	0.083693	-0.149539
O10	O	1.462032	0.166554	0.113456
C11	C	1.244819	0.086960	-0.000013
C12	C	1.106317	0.085295	-0.000014
C13	C	1.029823	0.133798	-0.000030
C14	C	0.886673	0.132079	-0.000031
C15	C	1.483397	-0.020387	0.000019
C16	C	1.481719	-0.083615	0.000029
C17	C	1.585203	-0.482046	-0.000044
C18	C	1.583644	-0.541457	-0.000054
O19	O	1.679575	-0.577579	-0.000103
N20	N	1.469112	-0.564826	-0.000055
C21	C	1.356131	-0.528782	-0.000059
O22	O	1.258569	-0.554114	-0.000062
C23	C	1.357691	-0.469373	-0.000059
C24	C	1.472230	-0.446007	-0.000044
C25	C	1.699733	-0.458680	-0.000030
C26	C	1.701291	-0.399274	-0.000017
C27	C	1.588319	-0.363234	-0.000018
C28	C	1.473789	-0.386600	-0.000031
C29	C	1.244711	-0.433329	-0.000073
C30	C	1.246281	-0.373917	-0.000073
C31	C	1.360821	-0.350551	-0.000059
C32	C	1.362374	-0.291154	-0.000018
N33	N	1.476907	-0.267785	-0.000018
C34	C	1.589879	-0.303825	-0.000017
C35	C	1.352863	-0.653545	-0.000063
C36	C	1.351302	-0.712953	-0.000054
C37	C	1.578816	-0.725625	-0.000051
C38	C	1.580376	-0.666215	-0.000051
C39	C	1.467395	-0.630176	-0.000062
C40	C	1.593143	-0.179067	0.000011
C41	C	1.594691	-0.119655	0.000030
C42	C	1.367178	-0.106989	0.000020
C43	C	1.365629	-0.166396	0.000008
C44	C	1.478622	-0.202434	-0.000001
O45	O	1.266494	-0.254997	0.000025
O46	O	1.687425	-0.278484	-0.000032
C47	C	1.701174	0.080427	-0.000009
C48	C	1.839677	0.082092	-0.000017
C49	C	1.462597	0.187774	-0.000041
C50	C	1.464275	0.251001	-0.000061
N51	N	1.472984	0.083693	0.353619
N52	N	1.473020	0.083689	-0.353639
C53	C	1.553878	0.047136	0.421408
C54	C	1.553899	0.047134	0.578571
H55	H	0.820947	0.173602	-0.000050
N56	N	0.926711	0.027082	0.000000
H57	H	0.981399	0.025450	-0.084141
H58	H	0.981305	0.025484	0.084200
H59	H	1.623161	0.015839	0.636866
N60	N	1.083449	0.190491	-0.000051
H61	H	1.054084	0.212887	-0.084202
H62	H	1.054060	0.212843	0.084139
H63	H	1.623117	0.015838	0.363096
H64	H	1.065828	0.042497	-0.000036
N65	N	1.700665	-0.764505	-0.000053
H66	H	1.705084	-0.789430	-0.084199
H67	H	1.773396	-0.740653	0.000004
H68	H	1.687967	-0.100634	0.000045
H69	H	1.403763	0.114991	0.588075
H70	H	1.151441	-0.452343	-0.000093
N71	N	1.381253	0.125145	0.430854
H72	H	1.428843	0.150467	0.490125
H73	H	1.327286	0.149502	0.363938
H74	H	1.794561	-0.380255	-0.000011
N75	N	1.715010	-0.217931	0.000002
H76	H	1.787792	-0.194106	0.000015
H77	H	1.719317	-0.242863	0.084144
N78	N	1.821592	-0.497546	-0.000028
H79	H	1.894371	-0.473720	-0.000019
H80	H	1.825897	-0.522474	0.084121
N81	N	1.703912	-0.641016	-0.000034
H82	H	1.775237	-0.672867	-0.000029
H83	H	1.709530	-0.616639	-0.084180
H84	H	1.258032	-0.731972	-0.000042
H85	H	1.260855	-0.624205	-0.000061
H86	H	1.272361	-0.185421	0.000034
N87	N	1.124421	-0.335046	-0.000093
H88	H	1.051633	-0.358867	-0.000103
H89	H	1.120097	-0.310127	0.084056
H90	H	1.275199	-0.077635	0.000024
