data_functionalizedCrystal
_audit_creation_method	'MofGen! by Chris Wilmer'
_symmetry_space_group_name_H-M	'P1'
_symmetry_Int_Tables_number	1
_symmetry_cell_setting	triclinic
loop_
_symmetry_equiv_pos_as_xyz
  x,y,z
_cell_length_a	13.262390
_cell_length_b	14.044190
_cell_length_c	11.804365
_cell_angle_alpha	102.923601
_cell_angle_beta	62.657606
_cell_angle_gamma	88.642439
loop_
_atom_site_label
_atom_site_type_symbol
_atom_site_fract_x
_atom_site_fract_y
_atom_site_fract_z
O1	O	1.520669	0.013854	-0.591549
O2	O	1.195743	0.047997	-0.486317
O3	O	1.353320	-0.106768	-0.537327
O4	O	1.363093	0.168619	-0.540539
O5	O	1.311832	-0.066063	-0.325841
O6	O	1.154255	0.088703	-0.274830
O7	O	1.479182	0.054559	-0.380063
Cu8	Cu	1.312930	0.075348	-0.308136
Cu9	Cu	1.361995	0.027209	-0.558243
O10	O	1.321605	0.209325	-0.329052
C11	C	1.133165	0.070180	-0.367024
C12	C	1.008509	0.075620	-0.326652
C13	C	0.747596	0.002186	-0.673992
C14	C	0.864717	-0.002931	-0.711926
C15	C	0.900671	0.016707	-0.615611
C16	C	0.819492	0.041462	-0.481355
C17	C	0.702360	0.046572	-0.443417
C18	C	0.855435	0.061092	-0.385036
C19	C	0.774256	0.085847	-0.250780
C20	C	0.657136	0.090957	-0.212848
C21	C	0.621182	0.071319	-0.309164
C22	C	0.972567	0.055983	-0.422974
C23	C	0.927331	0.100368	-0.192399
C24	C	0.810210	0.105485	-0.154464
C25	C	1.328305	-0.121479	-0.430197
C26	C	1.315563	-0.225956	-0.426060
C27	C	1.382633	-0.480184	-0.447828
C28	C	1.292300	-0.417256	-0.418564
C29	C	1.305247	-0.310807	-0.422736
C30	C	1.369687	-0.586644	-0.443657
C31	C	1.541761	0.032376	-0.499358
C32	C	1.666418	0.026934	-0.539739
C33	C	1.346621	0.224035	-0.436185
C34	C	1.359364	0.328510	-0.440330
N35	N	1.278429	0.109205	-0.132227
N36	N	1.396504	-0.006656	-0.734155
C37	C	1.479351	-0.087978	0.176680
C38	C	1.505450	-0.113595	0.043570
C39	C	1.448696	-0.057897	-0.000386
C40	C	1.365841	0.023422	0.088782
C41	C	1.339747	0.049046	0.221903
C42	C	1.309092	0.079127	0.044837
C43	C	1.226237	0.160446	0.134004
C44	C	1.200146	0.186065	0.267112
C45	C	1.256899	0.130368	0.311068
C46	C	1.335186	0.053503	-0.088285
C47	C	1.195582	0.190527	-0.043062
C48	C	1.169484	0.216144	0.090048
H49	H	0.956603	0.116357	-0.113970
Cl50	Cl	1.224083	0.162570	0.478415
Cl51	Cl	1.517038	-0.439933	-0.491339
Cl52	Cl	1.439342	-0.048724	-0.200364
H53	H	0.591043	0.111096	-0.103529
H54	H	1.525559	-0.133316	0.212477
Cl55	Cl	0.708145	0.136603	0.014309
H56	H	1.469949	-0.078759	-0.108771
Cl57	Cl	1.096000	0.288304	0.379205
Cl58	Cl	1.609604	-0.215818	-0.068522
Cl59	Cl	1.157881	-0.457501	-0.375032
H60	H	1.102021	0.282356	0.162665
Cl61	Cl	1.124235	0.260554	-0.098313
H62	H	1.038652	0.035829	-0.532286
H63	H	0.996037	0.012540	-0.646505
Cl64	Cl	0.702392	-0.022547	-0.795058
H65	H	0.525814	0.075487	-0.278284
Cl66	Cl	0.966761	-0.034053	-0.880697
