data_functionalizedCrystal
_audit_creation_method	'MofGen! by Chris Wilmer'
_symmetry_space_group_name_H-M	'P1'
_symmetry_Int_Tables_number	1
_symmetry_cell_setting	triclinic
loop_
_symmetry_equiv_pos_as_xyz
  x,y,z
_cell_length_a	16.109318
_cell_length_b	16.109301
_cell_length_c	7.540329
_cell_angle_alpha	89.994987
_cell_angle_beta	90.000622
_cell_angle_gamma	83.465022
loop_
_atom_site_label
_atom_site_type_symbol
_atom_site_fract_x
_atom_site_fract_y
_atom_site_fract_z
O1	O	1.103121	0.106935	-0.147341
O2	O	0.861061	0.120219	-0.147377
O3	O	0.988741	-0.007454	-0.147340
O4	O	0.975442	0.234607	-0.147378
O5	O	0.988733	-0.007455	0.147625
O6	O	0.861054	0.120217	0.147588
O7	O	1.103114	0.106933	0.147625
Cu8	Cu	0.982083	0.113575	0.174539
Cu9	Cu	0.982092	0.113577	-0.174291
O10	O	0.975434	0.234606	0.147587
C11	C	0.830083	0.119677	0.000101
C12	C	0.737788	0.118057	0.000087
C13	C	0.438719	0.112822	-0.160666
C14	C	0.525440	0.114340	-0.160677
C15	C	0.525450	0.114327	0.160910
C16	C	0.438731	0.112803	0.160919
C17	C	0.395367	0.112056	0.000126
C18	C	0.568807	0.115096	0.000106
C19	C	0.662835	0.116742	0.000095
C20	C	0.301334	0.110409	0.000136
C21	C	0.988198	-0.038430	0.000144
C22	C	0.986583	-0.130725	0.000146
C23	C	1.058590	-0.352993	0.000129
C24	C	1.057066	-0.439713	0.000114
C25	C	0.905579	-0.419848	0.000098
C26	C	0.907104	-0.333130	0.000100
C27	C	0.983612	-0.299704	0.000124
C28	C	0.980563	-0.473144	0.000107
C29	C	0.978910	-0.567170	0.000091
C30	C	0.985265	-0.205672	0.000137
C31	C	1.134092	0.107474	0.000143
C32	C	1.226387	0.109095	0.000144
C33	C	0.975976	0.265581	0.000100
C34	C	0.977592	0.357877	0.000086
N35	N	0.982083	0.113573	0.419887
N36	N	0.982099	0.113572	-0.419640
H37	H	0.560733	0.114963	-0.291610
H38	H	0.403414	0.112212	-0.291594
O39	O	1.137938	-0.497188	0.000145
H40	H	1.174560	-0.485295	-0.120058
O41	O	0.572218	0.115148	0.334334
H42	H	0.639802	0.116347	0.307318
H43	H	0.403434	0.112178	0.291863
O44	O	1.141105	-0.316936	0.000119
H45	H	1.192985	-0.368564	0.000096
O46	O	0.823061	-0.455899	0.000110
H47	H	0.834595	-0.525153	0.000135
H48	H	0.846043	-0.289740	0.000091
