data_functionalizedCrystal
_audit_creation_method	'MofGen! by Chris Wilmer'
_symmetry_space_group_name_H-M	'P1'
_symmetry_Int_Tables_number	1
_symmetry_cell_setting	triclinic
loop_
_symmetry_equiv_pos_as_xyz
  x,y,z
_cell_length_a	19.188930
_cell_length_b	15.944551
_cell_length_c	15.021413
_cell_angle_alpha	89.996935
_cell_angle_beta	90.021167
_cell_angle_gamma	83.321759
loop_
_atom_site_label
_atom_site_type_symbol
_atom_site_fract_x
_atom_site_fract_y
_atom_site_fract_z
O1	O	-0.926420	-0.104855	-0.074320
O2	O	-0.723145	-0.118971	-0.074259
O3	O	-0.830333	0.010383	-0.074283
O4	O	-0.819231	-0.234209	-0.074296
O5	O	-0.830316	0.010364	0.073781
O6	O	-0.723128	-0.118990	0.073805
O7	O	-0.926403	-0.104873	0.073744
Zn8	Zn	-0.824763	-0.111934	0.097283
Zn9	Zn	-0.824785	-0.111910	-0.097798
O10	O	-0.819214	-0.234227	0.073768
C11	C	-0.829864	0.041666	-0.000251
C12	C	-0.828482	0.134906	-0.000250
C13	C	-0.697124	-0.118524	-0.000219
C14	C	-0.619616	-0.117151	-0.000196
C15	C	-0.952423	-0.105321	-0.000298
C16	C	-1.029932	-0.106693	-0.000327
C17	C	-0.574889	-0.193052	-0.000214
C18	C	-0.502061	-0.191763	-0.000224
C19	C	-0.473965	-0.114568	-0.000233
C20	C	-0.518703	-0.038658	-0.000210
C21	C	-0.591528	-0.039949	-0.000192
N22	N	-0.365838	-0.055557	-0.050659
N23	N	-0.296657	-0.054335	-0.050678
C24	C	-0.254547	-0.110673	-0.000288
N25	N	-0.284230	-0.168291	0.050112
N26	N	-0.353418	-0.169515	0.050128
C27	C	-0.394999	-0.113160	-0.000253
C28	C	-0.130851	-0.185181	-0.000315
C29	C	-0.058023	-0.183888	-0.000319
C30	C	-0.074666	-0.030781	-0.000315
C31	C	-0.147492	-0.032076	-0.000302
C32	C	-0.175580	-0.109278	-0.000306
C33	C	-0.819684	-0.265510	-0.000266
C34	C	-0.821066	-0.358751	-0.000273
N35	N	-0.824752	-0.111951	0.230420
C36	C	-0.758739	0.349502	-0.000242
C37	C	-0.791117	0.410631	0.072753
C38	C	-0.825983	0.305623	-0.000256
C39	C	-0.791150	0.410633	-0.073226
C40	C	-0.823563	0.470527	-0.000266
C41	C	-0.858379	0.365524	0.072799
C42	C	-0.858402	0.365519	-0.073246
C43	C	-0.890829	0.426631	-0.000234
C44	C	-0.827374	0.210626	-0.000250
C45	C	-0.822176	0.565522	-0.000266
N46	N	-0.824801	-0.111887	-0.230936
C47	C	-0.775181	-0.171736	0.470115
C48	C	-0.838271	-0.187807	0.529429
C49	C	-0.824770	-0.111929	0.412027
C50	C	-0.761697	-0.095877	0.529455
C51	C	-0.824782	-0.111911	0.587451
C52	C	-0.887892	-0.128038	0.470035
C53	C	-0.811277	-0.036076	0.470056
C54	C	-0.874413	-0.052114	0.529343
C55	C	-0.824763	-0.111942	0.310970
C56	C	-0.824797	-0.111898	0.688507
H57	H	-0.465637	-0.253572	-0.000236
C58	C	-0.684266	0.304963	-0.000080
C59	C	-0.636660	0.365174	0.000799
C60	C	-0.568051	0.324176	0.000965
H61	H	-0.676942	0.271011	-0.051948
H62	H	-0.677339	0.270268	0.051320
H63	H	-0.643584	0.399855	-0.050596
H64	H	-0.643960	0.399129	0.052664
H65	H	-0.561124	0.289481	0.052365
H66	H	-0.560735	0.290225	-0.050904
H67	H	-0.535742	0.365023	0.001570
C68	C	-0.753241	0.437473	0.155026
C69	C	-0.753025	0.525252	0.154339
C70	C	-0.718143	0.550006	0.230115
H71	H	-0.706299	0.410884	0.155041
H72	H	-0.776678	0.421321	0.206886
H73	H	-0.729587	0.541396	0.102493
H74	H	-0.799958	0.551862	0.154338
H75	H	-0.741581	0.533853	0.281975
H76	H	-0.671204	0.523411	0.230123
H77	H	-0.717998	0.609566	0.229663
C78	C	-0.605248	-0.276955	-0.000162
C79	C	-0.550483	-0.343150	-0.000155
C80	C	-0.578425	-0.420453	-0.000092
H81	H	-0.633326	-0.280757	-0.051772
H82	H	-0.633265	-0.280693	0.051501
H83	H	-0.522478	-0.339414	-0.051813
H84	H	-0.522400	-0.339376	0.051451
H85	H	-0.606443	-0.424192	0.051571
H86	H	-0.606503	-0.424246	-0.051704
H87	H	-0.541272	-0.465376	-0.000080
C88	C	-0.896206	0.338836	0.155146
C89	C	-0.897015	0.251146	0.154220
C90	C	-0.931843	0.226528	0.230068
H91	H	-0.943011	0.365856	0.155422
H92	H	-0.872467	0.354588	0.206954
H93	H	-0.920755	0.235403	0.102425
H94	H	-0.850219	0.224106	0.153957
H95	H	-0.908104	0.242280	0.281877
H96	H	-0.978646	0.253553	0.230337
H97	H	-0.932391	0.167028	0.229454
C98	C	-0.896421	0.338792	-0.155447
C99	C	-0.954954	0.299949	-0.129393
C100	C	-0.989992	0.275323	-0.205100
H101	H	-0.865632	0.300153	-0.189268
H102	H	-0.911286	0.387082	-0.190650
H103	H	-0.940088	0.251664	-0.094205
H104	H	-0.985759	0.338571	-0.095583
H105	H	-1.004857	0.323614	-0.240303
H106	H	-0.959198	0.236687	-0.238916
H107	H	-1.029714	0.248972	-0.187433
C108	C	-0.161488	-0.268910	-0.000346
C109	C	-0.234839	-0.253797	-0.000353
C110	C	-0.263084	-0.330908	-0.000391
H111	H	-0.146189	-0.300217	0.051273
H112	H	-0.146196	-0.300159	-0.052000
H113	H	-0.250125	-0.222562	0.051295
H114	H	-0.250157	-0.222503	-0.051969
H115	H	-0.247792	-0.362157	-0.052045
H116	H	-0.247780	-0.362209	0.051229
H117	H	-0.312855	-0.320664	-0.000404
H118	H	-0.708353	-0.082309	0.555557
C119	C	-0.009574	-0.266391	-0.000381
C120	C	-0.049764	-0.334272	-0.000405
C121	C	-0.005156	-0.410287	-0.000475
H122	H	0.019219	-0.269200	0.051232
H123	H	0.019150	-0.269105	-0.052041
H124	H	-0.078475	-0.331560	0.051249
H125	H	-0.078555	-0.331491	-0.052015
H126	H	0.023568	-0.413001	-0.052134
H127	H	0.023635	-0.413088	0.051140
H128	H	-0.032418	-0.456353	-0.000499
C129	C	-0.853639	-0.273253	0.564269
C130	C	-0.915004	-0.262992	0.615453
C131	C	-0.929181	-0.341688	0.647551
H132	H	-0.815575	-0.297149	0.600037
H133	H	-0.859707	-0.309700	0.515548
H134	H	-0.908932	-0.226558	0.664167
H135	H	-0.953081	-0.239110	0.579704
H136	H	-0.935249	-0.378135	0.598830
H137	H	-0.891114	-0.365577	0.683315
H138	H	-0.970822	-0.334737	0.682276
H139	H	-0.946693	0.459999	-0.000209
C140	C	-0.488067	0.045069	-0.000268
C141	C	-0.414715	0.029955	-0.000315
C142	C	-0.386471	0.107066	-0.000376
H143	H	-0.503317	0.076368	0.051356
H144	H	-0.503407	0.076324	-0.051918
H145	H	-0.399382	-0.001287	0.051329
H146	H	-0.399445	-0.001332	-0.051935
H147	H	-0.401811	0.138322	-0.052025
H148	H	-0.401727	0.138360	0.051249
H149	H	-0.336699	0.096822	-0.000416
C150	C	-0.719236	-0.239094	0.435376
C151	C	-0.670723	-0.200955	0.384164
C152	C	-0.619177	-0.262977	0.352156
H153	H	-0.740591	-0.278117	0.399646
H154	H	-0.695814	-0.268007	0.484139
H155	H	-0.694143	-0.172056	0.335408
H156	H	-0.649350	-0.161937	0.419874
H157	H	-0.595754	-0.291890	0.400919
H158	H	-0.640538	-0.301997	0.316430
H159	H	-0.586251	-0.237108	0.317412
C160	C	-0.753234	0.437122	-0.155589
C161	C	-0.730371	0.365590	-0.206423
C162	C	-0.695444	0.389956	-0.282302
H163	H	-0.713950	0.464408	-0.138146
H164	H	-0.784341	0.474880	-0.190033
H165	H	-0.699265	0.327847	-0.171985
H166	H	-0.769640	0.338295	-0.223888
H167	H	-0.726551	0.427713	-0.316746
H168	H	-0.656164	0.417242	-0.264851
H169	H	-0.679933	0.341427	-0.316806
C170	C	-0.640061	0.042489	-0.000364
C171	C	-0.627410	0.088986	-0.076553
C172	C	-0.672112	0.164927	-0.076750
H173	H	-0.631565	0.074249	0.051208
H174	H	-0.687467	0.030699	-0.000403
H175	H	-0.580015	0.100778	-0.076505
H176	H	-0.635910	0.057251	-0.128136
H177	H	-0.719518	0.153137	-0.076789
H178	H	-0.663613	0.196680	-0.025175
H179	H	-0.663539	0.196481	-0.128447
C180	C	-0.044035	0.052946	-0.000372
C181	C	0.029316	0.037834	-0.000413
C182	C	0.057560	0.114945	-0.000476
H183	H	-0.059289	0.084248	0.051249
H184	H	-0.059373	0.084199	-0.052024
H185	H	0.044648	0.006594	0.051233
H186	H	0.044589	0.006545	-0.052031
H187	H	0.042222	0.146199	-0.052128
H188	H	0.042301	0.146241	0.051147
H189	H	0.107331	0.104702	-0.000512
H190	H	-0.941248	-0.141684	0.444045
C191	C	-0.195943	0.050423	-0.000338
C192	C	-0.155753	0.118305	-0.000372
C193	C	-0.200361	0.194319	-0.000414
H194	H	-0.224691	0.053216	0.051288
H195	H	-0.224711	0.053153	-0.051986
H196	H	-0.126997	0.115577	0.051270
H197	H	-0.127007	0.115540	-0.051994
H198	H	-0.229130	0.197049	-0.052061
H199	H	-0.229107	0.197103	0.051213
H200	H	-0.173100	0.240386	-0.000445
C201	C	-0.930500	0.015235	0.563763
C202	C	-0.996386	-0.001963	0.533509
C203	C	-1.048071	0.060050	0.565211
H204	H	-0.921386	0.069015	0.542554
H205	H	-0.929988	0.015174	0.627007
H206	H	-0.996896	-0.001894	0.470279
H207	H	-1.005521	-0.055732	0.554716
H208	H	-1.047560	0.059989	0.628455
H209	H	-1.038951	0.113826	0.544000
H210	H	-1.092781	0.048385	0.544696
H211	H	-0.799834	0.028043	0.443955
