data_functionalizedCrystal
_audit_creation_method	'MofGen! by Chris Wilmer'
_symmetry_space_group_name_H-M	'P1'
_symmetry_Int_Tables_number	1
_symmetry_cell_setting	triclinic
loop_
_symmetry_equiv_pos_as_xyz
  x,y,z
_cell_length_a	15.995350
_cell_length_b	15.995343
_cell_length_c	15.072220
_cell_angle_alpha	89.998594
_cell_angle_beta	89.997847
_cell_angle_gamma	83.490780
loop_
_atom_site_label
_atom_site_type_symbol
_atom_site_fract_x
_atom_site_fract_y
_atom_site_fract_z
O1	O	1.110985	0.107917	-0.073717
O2	O	0.867210	0.121244	-0.073736
O3	O	0.995765	-0.007307	-0.073709
O4	O	0.982430	0.236469	-0.073743
O5	O	0.995748	-0.007291	0.073856
O6	O	0.867193	0.121261	0.073829
O7	O	1.110969	0.107933	0.073848
Zn8	Zn	0.989078	0.114599	0.097268
Zn9	Zn	0.989100	0.114578	-0.097156
O10	O	0.982414	0.236485	0.073822
C11	C	0.836007	0.120702	0.000044
C12	C	0.743056	0.119050	0.000037
C13	C	0.995206	-0.038494	0.000075
C14	C	0.993557	-0.131445	0.000082
C15	C	0.990563	-0.301631	0.000062
C16	C	0.897766	-0.324977	0.000052
C17	C	0.896020	-0.421655	-0.000293
C18	C	0.987615	-0.469191	0.000043
C19	C	1.034284	-0.440101	-0.084051
C20	C	1.035385	-0.343309	-0.084112
C21	C	1.036725	-0.343395	0.083703
C22	C	1.033299	-0.439890	0.084799
C23	C	0.985953	-0.563889	0.000029
C24	C	0.992228	-0.206933	0.000070
C25	C	0.405309	0.113118	0.000057
C26	C	0.452746	0.021565	0.000399
C27	C	0.549436	0.023217	0.000060
C28	C	0.572869	0.116060	0.000048
C29	C	0.531790	0.161207	-0.084222
C30	C	0.435155	0.158908	-0.084286
C31	C	0.434797	0.160818	0.083523
C32	C	0.531742	0.160796	0.084630
C33	C	0.667567	0.117728	0.000040
C34	C	0.310611	0.111452	0.000059
C35	C	1.142172	0.108476	0.000066
C36	C	1.235122	0.110128	0.000067
C37	C	0.982972	0.267672	0.000035
C38	C	0.984621	0.360622	0.000022
N39	N	0.989069	0.114614	0.229957
N40	N	0.989115	0.114557	-0.229844
C41	C	0.989085	0.114594	0.410954
C42	C	0.920287	0.183355	0.448609
C43	C	0.920051	0.183167	0.551434
C44	C	0.989100	0.114577	0.589158
C45	C	0.970377	0.027105	0.551826
C46	C	0.969875	0.027519	0.448969
C47	C	1.076817	0.132516	0.448846
C48	C	1.076238	0.134491	0.551711
C49	C	0.989110	0.114561	0.689871
C50	C	0.989073	0.114604	0.310241
H51	H	0.861791	-0.296968	0.060349
O52	O	0.934729	0.269763	0.415847
H53	H	0.885431	0.317148	0.443301
H54	H	0.855541	0.172031	0.422776
O55	O	0.993089	-0.307821	-0.167698
H56	H	0.937875	-0.262537	-0.149848
O57	O	0.550491	0.251560	-0.088385
H58	H	0.520764	0.282022	-0.148501
H59	H	1.007440	-0.315123	0.147467
H60	H	1.019175	-0.025313	0.576259
H61	H	0.905903	0.011778	0.424991
O62	O	0.392424	0.247936	-0.089364
H63	H	0.353013	0.255280	-0.150083
O64	O	0.850903	-0.286554	-0.079699
H65	H	0.883089	-0.310994	-0.141219
H66	H	0.999313	-0.458448	0.147013
H67	H	0.577859	-0.012271	0.060468
O68	O	0.847873	-0.446091	-0.080616
H69	H	0.825756	-0.388822	-0.119371
O70	O	0.833841	0.167851	0.584060
H71	H	0.792156	0.160551	0.526370
H72	H	1.094888	0.194960	0.422906
O73	O	0.426798	-0.026702	-0.079191
H74	H	0.460641	-0.091233	-0.078305
H75	H	0.577301	-0.012525	-0.060444
H76	H	0.907148	0.010979	0.577606
O77	O	0.934755	0.269279	0.584869
H78	H	0.880216	0.295503	0.625660
O79	O	1.033740	-0.042324	0.415968
H80	H	1.064719	-0.076347	0.473480
H81	H	1.100135	-0.472838	0.090135
O82	O	0.410902	0.115276	-0.167711
H83	H	0.380213	0.058789	-0.149650
H84	H	1.090445	0.198846	0.576096
H85	H	0.434218	-0.015024	0.060832
O86	O	1.147213	0.072486	0.585718
H87	H	1.121373	0.026297	0.630032
O88	O	0.569369	0.119653	-0.167291
H89	H	0.617291	0.066854	-0.148771
O90	O	1.144637	0.066110	0.416586
H91	H	1.116053	0.020556	0.373772
H92	H	0.414255	0.130894	0.147397
H93	H	1.103436	-0.328735	-0.087691
O94	O	0.847628	-0.446857	0.079536
H95	H	0.825261	-0.389943	0.118734
O96	O	0.567918	0.117142	0.167211
H97	H	0.554818	0.050469	0.166539
O98	O	1.123579	-0.482279	-0.087889
H99	H	1.122965	-0.551542	-0.090853
O100	O	0.991888	-0.466701	-0.167281
H101	H	0.937587	-0.500630	-0.148967
H102	H	1.105026	-0.329374	0.084526
H103	H	0.547105	0.228500	0.089711
H104	H	0.403034	0.228318	0.084084
