data_functionalizedCrystal
_audit_creation_method	'MofGen! by Chris Wilmer'
_symmetry_space_group_name_H-M	'P1'
_symmetry_Int_Tables_number	1
_symmetry_cell_setting	triclinic
loop_
_symmetry_equiv_pos_as_xyz
  x,y,z
_cell_length_a	16.625548
_cell_length_b	25.639239
_cell_length_c	16.625539
_cell_angle_alpha	89.968745
_cell_angle_beta	89.979432
_cell_angle_gamma	90.039754
loop_
_atom_site_label
_atom_site_type_symbol
_atom_site_fract_x
_atom_site_fract_y
_atom_site_fract_z
Zn1	Zn	1.232590	-0.208135	-0.455893
Zn2	Zn	1.565923	0.125198	-0.122559
Zn3	Zn	1.899256	0.458532	0.210774
Zn4	Zn	1.232455	-0.295573	-0.321053
Zn5	Zn	1.565788	0.037760	0.012280
Zn6	Zn	1.899121	0.371094	0.345614
Zn7	Zn	1.097751	-0.208155	-0.321073
Zn8	Zn	1.431085	0.125178	0.012260
Zn9	Zn	1.764418	0.458512	0.345593
Zn10	Zn	1.097684	-0.295543	-0.455843
Zn11	Zn	1.431017	0.037791	-0.122510
Zn12	Zn	1.764350	0.371124	0.210824
O13	O	1.165120	-0.251851	-0.388466
O14	O	1.498453	0.081482	-0.055132
O15	O	1.831786	0.414815	0.278201
O16	O	1.345404	-0.219738	-0.438018
O17	O	1.678737	0.113595	-0.104685
O18	O	2.012071	0.446929	0.228648
O19	O	1.214558	-0.283998	-0.208223
O20	O	1.547891	0.049336	0.125110
O21	O	1.881225	0.382669	0.458443
O22	O	1.115723	-0.134987	-0.338987
O23	O	1.449056	0.198346	-0.005653
O24	O	1.782389	0.531680	0.327680
O25	O	1.345305	-0.283978	-0.338952
O26	O	1.678638	0.049355	-0.005619
O27	O	2.011972	0.382688	0.327714
O28	O	1.214788	-0.134972	-0.438038
O29	O	1.548121	0.198361	-0.104705
O30	O	1.881455	0.531694	0.228629
O31	O	1.115592	-0.219772	-0.208238
O32	O	1.448925	0.113561	0.125095
O33	O	1.782259	0.446895	0.458428
O34	O	0.984910	-0.219743	-0.338938
O35	O	1.318243	0.113590	-0.005605
O36	O	1.651577	0.446924	0.327728
O37	O	1.115607	-0.283927	-0.568682
O38	O	1.448941	0.049406	-0.235349
O39	O	1.782274	0.382740	0.097985
O40	O	0.984860	-0.283946	-0.437953
O41	O	1.318194	0.049387	-0.104620
O42	O	1.651527	0.382720	0.228714
O43	O	1.214722	-0.219709	-0.568719
O44	O	1.548056	0.113624	-0.235385
O45	O	1.881389	0.446958	0.097948
O46	O	1.214492	-0.368734	-0.338904
O47	O	1.547825	-0.035401	-0.005571
O48	O	1.881159	0.297933	0.327763
O49	O	1.115477	-0.368712	-0.437933
O50	O	1.448810	-0.035379	-0.104600
O51	O	1.782143	0.297955	0.228733
C52	C	0.955629	-0.251844	-0.388443
C53	C	1.288962	0.081489	-0.055110
C54	C	1.622296	0.414823	0.278224
C55	C	0.866008	-0.251853	-0.388452
C56	C	1.199341	0.081480	-0.055119
C57	C	1.532675	0.414813	0.278214
C58	C	0.537832	-0.251857	-0.388487
C59	C	0.871166	0.081477	-0.055154
C60	C	1.204499	0.414810	0.278180
C61	C	0.629141	-0.251854	-0.388475
C62	C	0.962474	0.081479	-0.055141
C63	C	1.295807	0.414812	0.278192
C64	C	0.701917	-0.251855	-0.388469
C65	C	1.035250	0.081478	-0.055136
C66	C	1.368584	0.414811	0.278198
C67	C	0.793231	-0.251852	-0.388458
C68	C	1.126565	0.081481	-0.055125
C69	C	1.459898	0.414814	0.278208
C70	C	1.164984	-0.387694	-0.388429
C71	C	1.498318	-0.054361	-0.055095
C72	C	1.831651	0.278973	0.278238
C73	C	1.165000	-0.445808	-0.388440
C74	C	1.498333	-0.112475	-0.055106
C75	C	1.831667	0.220859	0.278227
C76	C	1.216812	-0.806170	-0.336989
C77	C	1.550145	-0.472837	-0.003655
C78	C	1.883478	-0.139503	0.329678
C79	C	1.216843	-0.860774	-0.337000
C80	C	1.550176	-0.527441	-0.003666
C81	C	1.883510	-0.194108	0.329667
O82	O	1.260755	-0.889010	-0.293213
O83	O	1.594088	-0.555677	0.040120
O84	O	1.927421	-0.222343	0.373453
N85	N	1.165262	-0.888090	-0.388519
N86	N	1.498595	-0.554757	-0.055186
N87	N	1.831928	-0.221424	0.278148
C88	C	1.113651	-0.860799	-0.440037
C89	C	1.446985	-0.527466	-0.106703
C90	C	1.780318	-0.194133	0.226630
O91	O	1.069780	-0.889048	-0.483860
O92	O	1.403114	-0.555715	-0.150526
O93	O	1.736447	-0.222381	0.182807
C94	C	1.113625	-0.806196	-0.440029
C95	C	1.446958	-0.472863	-0.106696
C96	C	1.780291	-0.139529	0.226637
C97	C	1.165204	-0.778883	-0.388501
C98	C	1.498537	-0.445549	-0.055168
C99	C	1.831870	-0.112216	0.278166
C100	C	1.268387	-0.778857	-0.285465
C101	C	1.601721	-0.445523	0.047868
C102	C	1.935054	-0.112190	0.381202
C103	C	1.268355	-0.724256	-0.285453
C104	C	1.601688	-0.390923	0.047880
C105	C	1.935022	-0.057589	0.381213
C106	C	1.216747	-0.696969	-0.336965
C107	C	1.550080	-0.363636	-0.003632
C108	C	1.883413	-0.030302	0.329701
C109	C	1.165171	-0.724282	-0.388489
C110	C	1.498505	-0.390949	-0.055156
C111	C	1.831838	-0.057616	0.278177
C112	C	1.062019	-0.778906	-0.491551
C113	C	1.395352	-0.445573	-0.158217
C114	C	1.728686	-0.112240	0.175116
C115	C	1.061997	-0.724299	-0.491539
C116	C	1.395331	-0.390966	-0.158206
C117	C	1.728664	-0.057632	0.175127
C118	C	1.113576	-0.696986	-0.440011
C119	C	1.446910	-0.363652	-0.106677
C120	C	1.780243	-0.030319	0.226656
C121	C	1.113531	-0.642395	-0.439990
C122	C	1.446864	-0.309061	-0.106656
C123	C	1.780197	0.024272	0.226677
N124	N	1.165112	-0.615078	-0.388470
N125	N	1.498445	-0.281745	-0.055137
N126	N	1.831779	0.051588	0.278196
C127	C	1.216720	-0.642366	-0.336958
C128	C	1.550054	-0.309032	-0.003625
C129	C	1.883387	0.024301	0.329709
C130	C	1.113712	-0.975470	-0.440049
C131	C	1.447045	-0.642137	-0.106716
C132	C	1.780379	-0.308803	0.226617
C133	C	1.113734	-1.030072	-0.440053
C134	C	1.447067	-0.696739	-0.106720
C135	C	1.780401	-0.363406	0.226614
C136	C	1.216927	-1.030043	-0.337017
C137	C	1.550260	-0.696710	-0.003683
C138	C	1.883594	-0.363377	0.329650
C139	C	1.216900	-0.975440	-0.337009
C140	C	1.550234	-0.642107	-0.003676
C141	C	1.883567	-0.308773	0.329657
C142	C	1.165293	-0.948154	-0.388530
C143	C	1.498627	-0.614821	-0.055196
C144	C	1.831960	-0.281487	0.278137
C145	C	1.216648	-0.527700	-0.336937
C146	C	1.549981	-0.194367	-0.003604
C147	C	1.883314	0.138966	0.329730
C148	C	1.216608	-0.473095	-0.336928
C149	C	1.549941	-0.139762	-0.003594
C150	C	1.883275	0.193572	0.329739
C151	C	1.113418	-0.473129	-0.439967
C152	C	1.446752	-0.139796	-0.106633
C153	C	1.780085	0.193538	0.226700
C154	C	1.113454	-0.527729	-0.439973
C155	C	1.446788	-0.194396	-0.106640
C156	C	1.780121	0.138937	0.226693
C157	C	1.165076	-0.555014	-0.388456
C158	C	1.498409	-0.221681	-0.055123
C159	C	1.831742	0.111653	0.278211
O160	O	1.069644	-0.614124	-0.483756
O161	O	1.402977	-0.280791	-0.150422
O162	O	1.736310	0.052543	0.182911
O163	O	1.260591	-0.614110	-0.293150
O164	O	1.593924	-0.280777	0.040183
O165	O	1.927258	0.052556	0.373517
C166	C	1.375429	-0.251859	-0.388489
C167	C	1.708762	0.081474	-0.055155
C168	C	2.042095	0.414807	0.278178
C169	C	1.465050	-0.251863	-0.388498
C170	C	1.798383	0.081471	-0.055165
C171	C	2.131716	0.414804	0.278168
C172	C	1.165172	-0.251812	-0.598775
C173	C	1.498506	0.081521	-0.265441
C174	C	1.831839	0.414854	0.067892
C175	C	1.165195	-0.251796	-0.688396
C176	C	1.498528	0.081538	-0.355062
C177	C	1.831861	0.414871	-0.021729
C178	C	1.165278	-0.115478	-0.388520
C179	C	1.498611	0.217855	-0.055187
C180	C	1.831945	0.551188	0.278146
C181	C	1.165345	-0.057364	-0.388544
C182	C	1.498679	0.275969	-0.055210
C183	C	1.832012	0.609302	0.278123
C184	C	1.165232	-0.251737	-1.016572
C185	C	1.498565	0.081596	-0.683238
C186	C	1.831898	0.414929	-0.349905
C187	C	1.165219	-0.251755	-0.925263
C188	C	1.498553	0.081578	-0.591930
C189	C	1.831886	0.414911	-0.258596
C190	C	1.165214	-0.251767	-0.852487
C191	C	1.498547	0.081566	-0.519153
C192	C	1.831880	0.414900	-0.185820
C193	C	1.165200	-0.251784	-0.761172
C194	C	1.498534	0.081549	-0.427839
C195	C	1.831867	0.414883	-0.094506
C196	C	1.165114	-0.251852	-0.178975
C197	C	1.498447	0.081481	0.154359
C198	C	1.831781	0.414814	0.487692
C199	C	1.165248	-0.251722	-0.089354
C200	C	1.498581	0.081612	0.243979
C201	C	1.831915	0.414945	0.577313
H202	H	1.258610	-0.450858	-0.294964
H203	H	1.591943	-0.117525	0.038369
H204	H	1.925277	0.215808	0.371703
H205	H	1.071725	-1.052306	-0.482005
H206	H	1.405059	-0.718973	-0.148672
H207	H	1.738392	-0.385640	0.184661
Br208	Br	1.286964	-1.067086	-0.267103
Br209	Br	1.620297	-0.733753	0.066230
Br210	Br	1.953631	-0.400420	0.399564
H211	H	1.258684	-0.549909	-0.294988
H212	H	1.592017	-0.216576	0.038345
H213	H	1.925351	0.116758	0.371678
Br214	Br	0.992023	-0.815960	-0.561496
Br215	Br	1.325356	-0.482627	-0.228162
Br216	Br	1.658689	-0.149294	0.105171
Br217	Br	1.286902	-0.938378	-0.267075
Br218	Br	1.620236	-0.605044	0.066259
Br219	Br	1.953569	-0.271711	0.399592
H220	H	1.019973	-0.702085	-0.533496
H221	H	1.353307	-0.368752	-0.200163
H222	H	1.686640	-0.035419	0.133170
Br223	Br	1.338371	-0.687196	-0.215530
Br224	Br	1.671704	-0.353863	0.117804
Br225	Br	2.005037	-0.020530	0.451137
H226	H	1.071681	-0.953256	-0.482001
H227	H	1.405014	-0.619923	-0.148668
H228	H	1.738347	-0.286590	0.184666
Br229	Br	1.043434	-0.564799	-0.509886
Br230	Br	1.376768	-0.231466	-0.176553
Br231	Br	1.710101	0.101868	0.156781
Br232	Br	1.043385	-0.436086	-0.509876
Br233	Br	1.376719	-0.102753	-0.176542
Br234	Br	1.710052	0.230581	0.156791
H235	H	1.310417	-0.801068	-0.243517
H236	H	1.643751	-0.467735	0.089816
H237	H	1.977084	-0.134401	0.423149
