data_functionalizedCrystal
_audit_creation_method	'MofGen! by Chris Wilmer'
_symmetry_space_group_name_H-M	'P1'
_symmetry_Int_Tables_number	1
_symmetry_cell_setting	triclinic
loop_
_symmetry_equiv_pos_as_xyz
  x,y,z
_cell_length_a	12.594516
_cell_length_b	11.169417
_cell_length_c	12.594509
_cell_angle_alpha	89.982350
_cell_angle_beta	89.975348
_cell_angle_gamma	90.017302
loop_
_atom_site_label
_atom_site_type_symbol
_atom_site_fract_x
_atom_site_fract_y
_atom_site_fract_z
Zn1	Zn	-0.423691	1.834893	-0.601762
Zn2	Zn	-0.601696	1.834768	-0.423790
Zn3	Zn	-0.423736	1.634185	-0.423803
Zn4	Zn	-0.601632	1.634166	-0.601732
O5	O	-0.512689	1.734503	-0.512772
O6	O	-0.447312	2.002826	-0.578161
O7	O	-0.578135	1.808117	-0.274846
O8	O	-0.274784	1.660869	-0.447428
O9	O	-0.578092	2.002735	-0.447405
O10	O	-0.274751	1.808328	-0.578174
O11	O	-0.447389	1.660749	-0.274856
O12	O	-0.447326	1.466233	-0.447399
O13	O	-0.577981	1.660837	-0.750682
O14	O	-0.578025	1.466219	-0.578123
O15	O	-0.447249	1.808310	-0.750704
O16	O	-0.750633	1.808098	-0.447376
O17	O	-0.750586	1.660716	-0.578110
C18	C	-0.512674	1.422678	-0.512760
C19	C	-0.512694	1.289278	-0.512780
C20	C	-0.789230	1.734424	-0.512762
C21	C	-0.907535	1.734501	-0.512793
C22	C	-0.976801	1.654332	-0.583849
C23	C	-1.047664	1.625089	-0.486727
C24	C	-1.047471	1.763853	-0.609931
C25	C	-0.976840	1.705200	-0.415620
C26	C	-0.976640	1.844014	-0.538889
C27	C	-1.047472	1.814813	-0.441701
C28	C	-0.235068	1.734615	-0.512806
C29	C	-0.116762	1.734662	-0.512820
C30	C	-0.512603	1.734585	-0.790393
C31	C	-0.512566	1.734620	-0.908699
C32	C	-0.512704	2.047545	-0.512785
C33	C	-0.512710	2.180945	-0.512790
C34	C	-0.583583	1.654460	-1.048704
C35	C	-0.486518	1.625117	-0.977900
C36	C	-0.609621	1.763909	-0.977930
C37	C	-0.415317	1.705289	-1.048681
C38	C	-0.538485	1.844132	-1.048718
C39	C	-0.441354	1.814830	-0.977946
C40	C	-0.512697	1.734490	-0.236231
C41	C	-0.512434	1.734688	-0.117926
H42	H	-1.078885	1.532550	-0.464678
C43	C	-0.664382	1.564579	-1.201829
C44	C	-0.664627	1.562847	-1.090661
H45	H	-0.714415	1.508024	-1.227731
H46	H	-0.595571	1.544558	-1.227082
H47	H	-0.683014	1.642328	-1.226065
H48	H	-0.645987	1.485100	-1.066424
H49	H	-0.733453	1.582860	-1.065398
H50	H	-1.078307	1.882679	-0.381553
H51	H	-0.945423	1.936532	-0.560985
H52	H	-0.691756	1.788654	-0.946853
H53	H	-1.078496	1.788613	-0.692068
C54	C	-0.972097	1.592199	-0.766283
C55	C	-0.934902	1.562653	-0.664851
H56	H	-0.946234	1.535593	-0.816283
H57	H	-0.947768	1.669900	-0.784974
H58	H	-1.047516	1.591121	-0.766383
H59	H	-0.859483	1.563740	-0.664748
H60	H	-0.959226	1.484932	-0.646155
H61	H	-0.560499	1.936689	-1.079847
C62	C	-0.531386	1.416297	-0.971591
C63	C	-0.456845	1.500140	-0.935886
H64	H	-0.513075	1.339144	-0.945647
H65	H	-0.531748	1.415227	-1.046999
H66	H	-0.599887	1.437651	-0.946325
H67	H	-0.388345	1.478791	-0.961159
H68	H	-0.456472	1.501206	-0.860462
H69	H	-0.381173	1.882648	-0.947075
C70	C	-0.823966	1.671784	-0.305711
C71	C	-0.935140	1.671618	-0.304707
H72	H	-0.798223	1.651041	-0.237241
H73	H	-0.799063	1.749271	-0.324343
H74	H	-0.799216	1.615133	-0.356219
H75	H	-0.959891	1.728275	-0.254203
H76	H	-0.960053	1.594119	-0.286061
C77	C	-0.305358	1.672004	-1.201623
C78	C	-0.304409	1.671719	-1.090450
H79	H	-0.236892	1.651266	-1.227408
H80	H	-0.323917	1.749524	-1.226455
H81	H	-0.355900	1.615396	-1.226402
H82	H	-0.253873	1.728333	-1.065671
H83	H	-0.285838	1.594188	-1.065608
