data_functionalizedCrystal
_audit_creation_method	'MofGen! by Chris Wilmer'
_symmetry_space_group_name_H-M	'P1'
_symmetry_Int_Tables_number	1
_symmetry_cell_setting	triclinic
loop_
_symmetry_equiv_pos_as_xyz
  x,y,z
_cell_length_a	13.262390
_cell_length_b	14.853559
_cell_length_c	11.804365
_cell_angle_alpha	101.849296
_cell_angle_beta	62.657606
_cell_angle_gamma	84.048433
loop_
_atom_site_label
_atom_site_type_symbol
_atom_site_fract_x
_atom_site_fract_y
_atom_site_fract_z
O1	O	1.519295	0.013254	-0.591101
O2	O	1.190981	0.045918	-0.484767
O3	O	1.363913	-0.102143	-0.540775
O4	O	1.346364	0.161314	-0.535093
O5	O	1.318386	-0.063201	-0.327974
O6	O	1.145455	0.084860	-0.271966
O7	O	1.473769	0.052196	-0.378301
Cu8	Cu	1.305455	0.072083	-0.305703
Cu9	Cu	1.359295	0.026030	-0.557364
O10	O	1.300838	0.200256	-0.322293
C11	C	1.126202	0.067139	-0.364758
C12	C	1.001007	0.072344	-0.324210
C13	C	0.747379	0.002092	-0.673921
C14	C	0.865008	-0.002804	-0.712021
C15	C	0.899014	0.015983	-0.615071
C16	C	0.815379	0.039666	-0.480016
C17	C	0.697740	0.044554	-0.441913
C18	C	0.849374	0.058446	-0.383063
C19	C	0.765739	0.082128	-0.248007
C20	C	0.648112	0.087016	-0.209911
C21	C	0.614107	0.068229	-0.306861
C22	C	0.967013	0.053557	-0.421166
C23	C	0.917373	0.096020	-0.189157
C24	C	0.799745	0.100915	-0.151058
C25	C	1.340357	-0.116216	-0.434120
C26	C	1.337980	-0.216166	-0.433357
C27	C	1.352710	-0.659996	-0.546088
C28	C	1.303075	-0.617535	-0.314084
C29	C	1.305318	-0.523628	-0.314810
C30	C	1.331256	-0.497902	-0.431175
C31	C	1.354950	-0.566081	-0.546816
C32	C	1.281613	-0.455441	-0.199168
C33	C	1.283854	-0.361528	-0.199888
C34	C	1.309800	-0.335801	-0.316258
C35	C	1.333497	-0.403987	-0.431903
C36	C	1.359434	-0.378260	-0.548269
C37	C	1.383139	-0.446446	-0.663919
C38	C	1.380897	-0.540354	-0.663186
C39	C	1.312043	-0.241893	-0.316991
C40	C	1.361675	-0.284346	-0.548997
C41	C	1.538549	0.030974	-0.498312
C42	C	1.663746	0.025767	-0.538869
C43	C	1.324394	0.214329	-0.428950
C44	C	1.326772	0.314277	-0.429722
N45	N	1.267595	0.104474	-0.128701
N46	N	1.397164	-0.006368	-0.734370
C47	C	1.488080	-0.084167	0.173839
C48	C	1.516719	-0.108674	0.039902
C49	C	1.454440	-0.055389	-0.002256
C50	C	1.363518	0.022407	0.089538
C51	C	1.334881	0.046921	0.223486
C52	C	1.301242	0.075699	0.047392
C53	C	1.210319	0.153495	0.139185
C54	C	1.181686	0.178004	0.273120
C55	C	1.243965	0.124720	0.315278
C56	C	1.329878	0.051185	-0.086557
C57	C	1.176680	0.182272	-0.036909
C58	C	1.148040	0.206779	0.097028
H59	H	0.994793	0.011997	-0.646100
H60	H	0.719680	-0.013211	-0.752843
H61	H	0.518325	0.072217	-0.275847
F62	F	0.559105	0.112216	-0.066173
H63	H	1.220644	0.144670	0.424341
H64	H	1.292717	-0.186376	-0.222823
H65	H	1.477763	-0.075346	-0.111315
H66	H	1.264556	-0.306018	-0.105721
F67	F	1.084930	0.260810	0.370811
H68	H	1.074009	0.270123	0.171783
F69	F	0.710722	0.126119	-0.007325
F70	F	1.410745	-0.419055	-0.787760
F71	F	1.275455	-0.644916	-0.190241
F72	F	1.426641	-0.031609	-0.184235
F73	F	1.056010	0.028353	-0.564897
F74	F	0.954009	-0.028010	-0.855750
H75	H	1.400195	-0.595878	-0.757341
F76	F	0.953558	0.116009	-0.085969
F77	F	1.613482	-0.191465	-0.057786
H78	H	1.538785	-0.127540	0.208172
H79	H	1.260490	-0.476394	-0.104427
F80	F	1.389290	-0.256976	-0.672855
F81	F	1.377947	-0.732564	-0.669167
F82	F	1.110397	0.238988	-0.081771
