data_functionalizedCrystal
_audit_creation_method	'MofGen! by Chris Wilmer'
_symmetry_space_group_name_H-M	'P1'
_symmetry_Int_Tables_number	1
_symmetry_cell_setting	triclinic
loop_
_symmetry_equiv_pos_as_xyz
  x,y,z
_cell_length_a	16.109301
_cell_length_b	16.992695
_cell_length_c	15.186229
_cell_angle_alpha	89.995943
_cell_angle_beta	89.999362
_cell_angle_gamma	87.064852
loop_
_atom_site_label
_atom_site_type_symbol
_atom_site_fract_x
_atom_site_fract_y
_atom_site_fract_z
O1	O	1.109856	0.100784	-0.073174
O2	O	1.359856	0.350784	0.176826
O3	O	1.609856	0.600784	0.426826
O4	O	1.859856	0.850784	0.676826
O5	O	0.868631	0.113326	-0.073188
O6	O	1.118631	0.363326	0.176812
O7	O	1.368631	0.613326	0.426812
O8	O	1.618631	0.863326	0.676812
O9	O	0.988276	-0.007088	-0.073174
O10	O	1.238276	0.242912	0.176826
O11	O	1.488276	0.492912	0.426826
O12	O	1.738276	0.742912	0.676826
O13	O	0.990210	0.221197	-0.073188
O14	O	1.240210	0.471197	0.176812
O15	O	1.490210	0.721197	0.426812
O16	O	1.740210	0.971197	0.676812
O17	O	0.988268	-0.007089	0.073284
O18	O	1.238268	0.242911	0.323284
O19	O	1.488268	0.492911	0.573284
O20	O	1.738268	0.742911	0.823284
O21	O	0.868622	0.113324	0.073270
O22	O	1.118622	0.363324	0.323270
O23	O	1.368622	0.613324	0.573270
O24	O	1.618622	0.863324	0.823270
O25	O	1.109847	0.100782	0.073284
O26	O	1.359847	0.350782	0.323284
O27	O	1.609847	0.600782	0.573284
O28	O	1.859847	0.850782	0.823284
Zn29	Zn	0.989233	0.107053	0.096530
Zn30	Zn	1.239233	0.357053	0.346530
Zn31	Zn	1.489233	0.607053	0.596530
Zn32	Zn	1.739233	0.857053	0.846530
Zn33	Zn	0.989245	0.107055	-0.096434
Zn34	Zn	1.239245	0.357055	0.153566
Zn35	Zn	1.489245	0.607055	0.403566
Zn36	Zn	1.739245	0.857055	0.653566
O37	O	0.990202	0.221196	0.073270
O38	O	1.240202	0.471196	0.323270
O39	O	1.490202	0.721196	0.573270
O40	O	1.740202	0.971196	0.823270
C41	C	0.837618	0.112817	0.000039
C42	C	1.087618	0.362817	0.250039
C43	C	1.337618	0.612817	0.500039
C44	C	1.587618	0.862817	0.750039
C45	C	0.745221	0.111294	0.000034
C46	C	0.995221	0.361294	0.250034
C47	C	1.245221	0.611294	0.500034
C48	C	1.495221	0.861294	0.750034
C49	C	0.527480	0.179203	0.000040
C50	C	0.777480	0.429203	0.250040
C51	C	1.027480	0.679203	0.500040
C52	C	1.277480	0.929203	0.750040
C53	C	0.440664	0.177766	0.000046
C54	C	0.690664	0.427766	0.250046
C55	C	0.940664	0.677766	0.500046
C56	C	1.190664	0.927766	0.750046
C57	C	0.451005	0.034899	0.000051
C58	C	0.701005	0.284899	0.250051
C59	C	0.951005	0.534899	0.500051
C60	C	1.201005	0.784899	0.750051
C61	C	0.537819	0.036337	0.000051
C62	C	0.787819	0.286337	0.250051
C63	C	1.037819	0.536337	0.500051
C64	C	1.287819	0.786337	0.750051
C65	C	0.576055	0.108492	0.000042
C66	C	0.826055	0.358492	0.250042
C67	C	1.076055	0.608492	0.500042
C68	C	1.326055	0.858492	0.750042
C69	C	0.402424	0.105616	0.000047
C70	C	0.652424	0.355616	0.250047
C71	C	0.902424	0.605616	0.500047
C72	C	1.152424	0.855616	0.750047
C73	C	0.308294	0.104057	0.000053
C74	C	0.558294	0.354057	0.250053
C75	C	0.808294	0.604057	0.500053
C76	C	1.058294	0.854057	0.750053
C77	C	0.670191	0.110051	0.000037
C78	C	0.920191	0.360051	0.250037
C79	C	1.170191	0.610051	0.500037
C80	C	1.420191	0.860051	0.750037
C81	C	0.985784	-0.036300	0.000055
C82	C	1.235784	0.213700	0.250055
C83	C	1.485784	0.463700	0.500055
C84	C	1.735784	0.713700	0.750055
C85	C	0.978361	-0.123343	0.000054
C86	C	1.228361	0.126657	0.250054
C87	C	1.478361	0.376657	0.500054
C88	C	1.728361	0.626657	0.750054
C89	C	1.049987	-0.173601	0.000059
C90	C	1.299987	0.076399	0.250059
C91	C	1.549987	0.326399	0.500059
C92	C	1.799987	0.576399	0.750059
C93	C	1.043007	-0.255386	0.000050
C94	C	1.293007	-0.005386	0.250050
C95	C	1.543007	0.244614	0.500050
C96	C	1.793007	0.494614	0.750050
C97	C	0.964400	-0.286911	0.000043
C98	C	1.214400	-0.036911	0.250043
C99	C	1.464400	0.213089	0.500043
C100	C	1.714400	0.463089	0.750043
C101	C	0.892768	-0.236645	0.000035
C102	C	1.142768	0.013355	0.250035
C103	C	1.392768	0.263355	0.500035
C104	C	1.642768	0.513355	0.750035
C105	C	0.899749	-0.154862	0.000038
C106	C	1.149749	0.095138	0.250038
C107	C	1.399749	0.345138	0.500038
C108	C	1.649749	0.595138	0.750038
C109	C	0.935467	-0.530501	0.000029
C110	C	1.185467	-0.280501	0.250029
C111	C	1.435467	-0.030501	0.500029
C112	C	1.685467	0.219499	0.750029
C113	C	0.928491	-0.612291	0.000029
C114	C	1.178491	-0.362291	0.250029
C115	C	1.428491	-0.112291	0.500029
C116	C	1.678491	0.137709	0.750029
C117	C	1.078731	-0.631026	0.000043
C118	C	1.328731	-0.381026	0.250043
C119	C	1.578731	-0.131026	0.500043
C120	C	1.828731	0.118974	0.750043
C121	C	1.085704	-0.549240	0.000051
C122	C	1.335704	-0.299240	0.250051
C123	C	1.585704	-0.049240	0.500051
C124	C	1.835704	0.200760	0.750051
C125	C	1.014073	-0.498982	0.000038
C126	C	1.264073	-0.248982	0.250038
C127	C	1.514073	0.001018	0.500038
C128	C	1.764073	0.251018	0.750038
N129	N	0.957263	-0.370508	0.000037
N130	N	1.207263	-0.120508	0.250037
N131	N	1.457263	0.129492	0.500037
N132	N	1.707263	0.379492	0.750037
N133	N	1.021210	-0.415387	0.000038
N134	N	1.271210	-0.165387	0.250038
N135	N	1.521210	0.084613	0.500038
N136	N	1.771210	0.334613	0.750038
C137	C	1.140860	0.101291	0.000055
C138	C	1.390860	0.351291	0.250055
C139	C	1.640860	0.601291	0.500055
C140	C	1.890860	0.851291	0.750055
C141	C	1.233257	0.102814	0.000054
C142	C	1.483257	0.352814	0.250054
C143	C	1.733257	0.602814	0.500054
C144	C	1.983257	0.852814	0.750054
C145	C	0.992694	0.250408	0.000039
C146	C	1.242694	0.500408	0.250039
C147	C	1.492694	0.750408	0.500039
C148	C	1.742694	1.000408	0.750039
C149	C	1.000118	0.337451	0.000034
C150	C	1.250118	0.587451	0.250034
C151	C	1.500118	0.837451	0.500034
C152	C	1.750118	1.087451	0.750034
N153	N	0.989232	0.107051	0.228223
N154	N	1.239232	0.357051	0.478223
N155	N	1.489232	0.607051	0.728223
N156	N	1.739232	0.857051	0.978223
N157	N	0.989253	0.107051	-0.228127
N158	N	1.239253	0.357051	0.021873
N159	N	1.489253	0.607051	0.271873
N160	N	1.739253	0.857051	0.521873
C161	C	1.042231	0.053750	0.453952
C162	C	1.292231	0.303750	0.703952
C163	C	1.542231	0.553750	0.953952
C164	C	1.792231	0.803750	1.203952
C165	C	1.042234	0.053748	0.546141
C166	C	1.292234	0.303748	0.796141
C167	C	1.542234	0.553748	1.046141
C168	C	1.792234	0.803748	1.296141
C169	C	0.936247	0.160355	0.546138
C170	C	1.186247	0.410355	0.796138
C171	C	1.436247	0.660355	1.046138
C172	C	1.686247	0.910355	1.296138
C173	C	0.936241	0.160352	0.453950
C174	C	1.186241	0.410352	0.703950
C175	C	1.436241	0.660352	0.953950
C176	C	1.686241	0.910352	1.203950
C177	C	0.989238	0.107051	0.407859
C178	C	1.239238	0.357051	0.657859
C179	C	1.489238	0.607051	0.907859
C180	C	1.739238	0.857051	1.157859
C181	C	0.989246	0.107051	0.592237
C182	C	1.239246	0.357051	0.842237
C183	C	1.489246	0.607051	1.092237
C184	C	1.739246	0.857051	1.342237
C185	C	0.989249	0.107050	0.692193
C186	C	1.239249	0.357050	0.942193
C187	C	1.489249	0.607050	1.192193
C188	C	1.739249	0.857050	1.442193
C189	C	0.989235	0.107051	0.307897
C190	C	1.239235	0.357051	0.557897
C191	C	1.489235	0.607051	0.807897
C192	C	1.739235	0.857051	1.057897
H193	H	0.558608	0.237956	0.000039
H194	H	0.808608	0.487956	0.250039
H195	H	1.058608	0.737956	0.500039
H196	H	1.308608	0.987956	0.750039
H197	H	1.113997	-0.147941	0.000071
H198	H	1.363997	0.102059	0.250071
H199	H	1.613997	0.352059	0.500071
H200	H	1.863997	0.602059	0.750071
H201	H	0.864477	-0.637954	0.000037
H202	H	1.114477	-0.387954	0.250037
H203	H	1.364477	-0.137954	0.500037
H204	H	1.614477	0.112046	0.750037
H205	H	1.085384	0.010345	0.583667
H206	H	1.335384	0.260345	0.833667
H207	H	1.585384	0.510345	1.083667
H208	H	1.835384	0.760345	1.333667
H209	H	0.401118	0.235347	0.000046
H210	H	0.651118	0.485347	0.250046
H211	H	0.901118	0.735347	0.500046
H212	H	1.151118	0.985347	0.750046
F213	F	0.589519	-0.038928	0.000059
F214	F	0.839519	0.211072	0.250059
F215	F	1.089519	0.461072	0.500059
F216	F	1.339519	0.711072	0.750059
H217	H	0.877139	-0.489590	0.000019
H218	H	1.127139	-0.239590	0.250019
H219	H	1.377139	0.010410	0.500019
H220	H	1.627139	0.260410	0.750019
F221	F	0.410304	-0.041888	0.000058
F222	F	0.660304	0.208112	0.250058
F223	F	0.910304	0.458112	0.500058
F224	F	1.160304	0.708112	0.750058
F225	F	0.809109	-0.270198	0.000017
F226	F	1.059109	-0.020198	0.250017
F227	F	1.309109	0.229802	0.500017
F228	F	1.559109	0.479802	0.750017
H229	H	1.137048	-0.671954	0.000051
H230	H	1.387048	-0.421954	0.250051
H231	H	1.637048	-0.171954	0.500051
H232	H	1.887048	0.078046	0.750051
H233	H	1.101332	-0.296304	0.000056
H234	H	1.351332	-0.046304	0.250056
H235	H	1.601332	0.203696	0.500056
H236	H	1.851332	0.453696	0.750056
H237	H	1.149714	-0.523580	0.000057
H238	H	1.399714	-0.273580	0.250057
H239	H	1.649714	-0.023580	0.500057
H240	H	1.899714	0.226420	0.750057
F241	F	0.823515	-0.101373	0.000029
F242	F	1.073515	0.148627	0.250029
F243	F	1.323515	0.398627	0.500029
F244	F	1.573515	0.648627	0.750029
F245	F	1.098633	-0.002981	0.404902
F246	F	1.348633	0.247019	0.654902
F247	F	1.598633	0.497019	0.904902
F248	F	1.848633	0.747019	1.154902
H249	H	0.893100	0.203753	0.583674
H250	H	1.143100	0.453753	0.833674
H251	H	1.393100	0.703753	1.083674
H252	H	1.643100	0.953753	1.333674
F253	F	0.879832	0.217082	0.404891
F254	F	1.129832	0.467082	0.654891
F255	F	1.379832	0.717082	0.904891
F256	F	1.629832	0.967082	1.154891
