data_functionalizedCrystal
_audit_creation_method	'MofGen! by Chris Wilmer'
_symmetry_space_group_name_H-M	'P1'
_symmetry_Int_Tables_number	1
_symmetry_cell_setting	triclinic
loop_
_symmetry_equiv_pos_as_xyz
  x,y,z
_cell_length_a	10.654541
_cell_length_b	15.995292
_cell_length_c	9.730217
_cell_angle_alpha	89.999943
_cell_angle_beta	89.999932
_cell_angle_gamma	83.976272
loop_
_atom_site_label
_atom_site_type_symbol
_atom_site_fract_x
_atom_site_fract_y
_atom_site_fract_z
O1	O	1.666266	0.117594	-0.114237
O2	O	1.300637	0.128801	-0.114248
O3	O	1.493484	0.001365	-0.114244
O4	O	1.473418	0.245031	-0.114241
O5	O	1.493478	0.001364	0.114336
O6	O	1.300631	0.128800	0.114332
O7	O	1.666260	0.117593	0.114343
Zn8	Zn	1.483444	0.123196	0.150629
Zn9	Zn	1.483452	0.123198	-0.150535
O10	O	1.473412	0.245029	0.114339
C11	C	1.253847	0.127978	0.000040
C12	C	1.114436	0.125518	0.000036
C13	C	1.492664	-0.029836	0.000042
C14	C	1.490216	-0.122803	0.000032
C15	C	1.084427	0.277902	0.000021
C16	C	1.003929	0.352935	0.000008
C17	C	0.872942	0.350618	0.000006
C18	C	0.822451	0.273260	0.000022
C19	C	0.902949	0.198227	0.000035
C20	C	1.033938	0.200552	0.000033
C21	C	0.932958	0.045844	0.000060
C22	C	1.063946	0.048159	0.000052
C23	C	0.882468	-0.031514	0.000076
C24	C	0.962966	-0.106549	0.000079
C25	C	1.093960	-0.104228	0.000079
C26	C	1.144443	-0.026873	0.000065
C27	C	1.481215	-0.460594	0.000044
C28	C	1.620407	-0.436474	0.000559
C29	C	1.623052	-0.339783	0.000039
C30	C	1.485681	-0.293012	0.000039
C31	C	1.416095	-0.322516	-0.130490
C32	C	1.414420	-0.419316	-0.130594
C33	C	1.411570	-0.419191	0.129344
C34	C	1.416729	-0.322669	0.131065
C35	C	1.488198	-0.198301	0.000031
C36	C	1.478694	-0.555304	0.000042
C37	C	1.713050	0.118416	0.000051
C38	C	1.852460	0.120877	0.000047
C39	C	1.474232	0.276230	0.000050
C40	C	1.476680	0.369198	0.000051
N41	N	1.483448	0.123195	0.356166
N42	N	1.483458	0.123193	-0.356071
C43	C	1.654284	0.010383	0.356160
C44	C	1.739710	-0.046020	0.428097
C45	C	1.739723	-0.046020	0.571976
C46	C	1.654297	0.010387	0.643923
C47	C	1.568871	0.066790	0.571986
C48	C	1.568870	0.066786	0.428103
C49	C	1.398032	0.179596	0.571992
C50	C	1.398023	0.179602	0.428112
C51	C	1.312607	0.236004	0.643938
C52	C	1.227185	0.292412	0.572001
C53	C	1.227176	0.292411	0.428113
C54	C	1.312597	0.236006	0.356175
H55	H	1.191082	0.279797	-0.000008
F56	F	1.179624	-0.184091	0.000103
H57	H	1.045053	0.415919	-0.000001
F58	F	0.787268	0.430475	0.000004
H59	H	0.715793	0.271380	0.000038
F60	F	1.312614	0.235999	0.797068
H61	H	1.809260	-0.091948	0.369506
F62	F	0.743059	-0.033978	0.000082
H63	H	1.251098	-0.024977	0.000048
F64	F	1.690534	-0.472660	0.122912
F65	F	0.909222	-0.188869	0.000107
F66	F	1.312601	0.236002	0.203045
F67	F	1.694260	-0.314498	0.122353
F68	F	1.830636	-0.106055	0.648538
H69	H	1.673762	-0.465182	-0.092520
H70	H	1.309115	-0.433776	0.130223
F71	F	1.694708	-0.315306	-0.122473
H72	H	1.654303	0.010376	0.761077
F73	F	1.477424	-0.454004	-0.258123
H74	H	1.312363	-0.434458	-0.136508
H75	H	1.315008	-0.291235	-0.135342
H76	H	1.464422	-0.302174	-0.227628
H77	H	1.157632	0.338331	0.630589
F78	F	1.468489	-0.455846	0.258659
F79	F	1.482948	-0.298013	0.257284
F80	F	1.285669	-0.280338	0.141370
F81	F	1.654293	0.010387	0.203030
F82	F	1.136245	0.352441	0.351564
