data_functionalizedCrystal
_audit_creation_method	'MofGen! by Chris Wilmer'
_symmetry_space_group_name_H-M	'P1'
_symmetry_Int_Tables_number	1
_symmetry_cell_setting	triclinic
loop_
_symmetry_equiv_pos_as_xyz
  x,y,z
_cell_length_a	18.101398
_cell_length_b	18.101395
_cell_length_c	13.032268
_cell_angle_alpha	97.146252
_cell_angle_beta	97.167161
_cell_angle_gamma	90.029256
loop_
_atom_site_label
_atom_site_type_symbol
_atom_site_fract_x
_atom_site_fract_y
_atom_site_fract_z
Zn1	Zn	1.078926	-0.348003	-0.590736
Zn2	Zn	1.578926	0.151997	-0.090736
Zn3	Zn	1.094557	-0.456134	-0.415994
Zn4	Zn	1.594557	0.043866	0.084006
Zn5	Zn	0.970817	-0.332309	-0.416024
Zn6	Zn	1.470817	0.167691	0.083976
Zn7	Zn	0.955039	-0.471800	-0.590697
Zn8	Zn	1.455039	0.028200	-0.090697
O9	O	1.024835	-0.402061	-0.503363
O10	O	1.524835	0.097939	-0.003363
O11	O	1.184632	-0.362359	-0.567561
O12	O	1.684632	0.137641	-0.067561
O13	O	1.091288	-0.426584	-0.269767
O14	O	1.591288	0.073416	0.230233
O15	O	0.985220	-0.230761	-0.439229
O16	O	1.485220	0.269239	0.060771
O17	O	1.196116	-0.441802	-0.439179
O18	O	1.696116	0.058198	0.060821
O19	O	1.064647	-0.242291	-0.567589
O20	O	1.564647	0.257709	-0.067589
O21	O	1.000377	-0.335610	-0.269788
O22	O	1.500377	0.164390	0.230212
O23	O	0.865092	-0.350801	-0.439190
O24	O	1.365092	0.149199	0.060810
O25	O	0.958328	-0.468502	-0.736934
O26	O	1.458328	0.031498	-0.236934
O27	O	0.853500	-0.453284	-0.567522
O28	O	1.353500	0.046716	-0.067522
O29	O	1.049347	-0.377549	-0.736963
O30	O	1.549347	0.122451	-0.236963
O31	O	1.075988	-0.561842	-0.439140
O32	O	1.575988	-0.061842	0.060860
O33	O	0.973485	-0.573352	-0.567493
O34	O	1.473485	-0.073352	-0.067493
C35	C	0.832425	-0.402040	-0.503356
C36	C	1.332425	0.097960	-0.003356
C37	C	0.750109	-0.402052	-0.503377
C38	C	1.250109	0.097948	-0.003377
C39	C	0.599401	-0.402065	-0.503376
C40	C	1.099401	0.097935	-0.003376
C41	C	0.560789	-0.466622	-0.583993
C42	C	1.060789	0.033378	-0.083993
C43	C	0.475193	-0.466832	-0.583755
C44	C	0.975193	0.033168	-0.083755
C45	C	0.451018	-0.402079	-0.503376
C46	C	0.951018	0.097921	-0.003376
C47	C	0.492000	-0.412988	-0.393114
C48	C	0.992000	0.087012	0.106886
C49	C	0.577603	-0.413438	-0.393581
C50	C	1.077603	0.086562	0.106419
C51	C	0.565297	-0.326370	-0.532057
C52	C	1.065297	0.173630	-0.032057
C53	C	0.479428	-0.327018	-0.534485
C54	C	0.979428	0.172982	-0.034485
C55	C	0.367159	-0.402085	-0.503369
C56	C	0.867159	0.097915	-0.003369
C57	C	0.683260	-0.402060	-0.503375
C58	C	1.183260	0.097940	-0.003375
C59	C	1.024739	-0.594469	-0.503332
C60	C	1.524739	-0.094469	-0.003332
C61	C	1.024762	-0.676785	-0.503354
C62	C	1.524762	-0.176785	-0.003354
C63	C	1.024919	-0.975881	-0.503410
C64	C	1.524919	-0.475881	-0.003410
C65	C	0.960542	-0.951847	-0.584367
C66	C	1.460542	-0.451847	-0.084367
C67	C	0.960293	-0.866206	-0.584114
C68	C	1.460293	-0.366206	-0.084114
C69	C	1.024841	-0.827496	-0.503383
C70	C	1.524841	-0.327496	-0.003383
C71	C	1.013629	-0.848741	-0.393254
C72	C	1.513629	-0.348741	0.106746
C73	C	1.013217	-0.934430	-0.393738
C74	C	1.513217	-0.434430	0.106262
C75	C	1.100721	-0.946764	-0.531613
C76	C	1.600721	-0.446764	-0.031613
C77	C	1.100043	-0.861331	-0.534029
C78	C	1.600043	-0.361331	-0.034029
C79	C	1.024799	-0.743635	-0.503361
C80	C	1.524799	-0.243635	-0.003361
C81	C	1.024961	-1.059742	-0.503425
C82	C	1.524961	-0.559742	-0.003425
C83	C	1.217996	-0.402083	-0.503371
C84	C	1.717996	0.097917	-0.003371
C85	C	1.300310	-0.402092	-0.503374
C86	C	1.800310	0.097908	-0.003374
C87	C	1.000334	-0.426524	-0.775924
C88	C	1.500334	0.073476	-0.275924
C89	C	0.989893	-0.436948	-0.892074
C90	C	1.489893	0.063052	-0.392074
C91	C	1.024950	-0.208904	-0.503417
C92	C	1.524950	0.291096	-0.003417
C93	C	1.024999	-0.126592	-0.503439
C94	C	1.524999	0.373408	-0.003439
C95	C	1.030273	-0.396594	-0.943871
C96	C	1.530273	0.103406	-0.443871
C97	C	1.019482	-0.407367	-1.063918
C98	C	1.519482	0.092633	-0.563918
C99	C	1.049283	-0.377641	-0.231862
C100	C	1.549283	0.122359	0.268138
C101	C	1.059868	-0.367008	-0.115713
C102	C	1.559868	0.132992	0.384287
H103	H	0.446837	-0.461192	-0.665498
H104	H	0.946837	0.038808	-0.165498
Br105	Br	0.918950	-0.507822	-0.966280
Br106	Br	1.418950	-0.007822	-0.466280
H107	H	0.579805	-0.314452	-0.611104
H108	H	1.079805	0.185548	-0.111104
H109	H	0.574026	-0.461156	-0.665991
H110	H	1.074026	0.038844	-0.165991
Br111	Br	1.090050	-0.805506	-0.289971
Br112	Br	1.590050	-0.305506	0.210029
H113	H	1.072829	-0.354067	-0.899343
H114	H	1.572829	0.145933	-0.399343
Br115	Br	0.621502	-0.337556	-0.290002
Br116	Br	1.121502	0.162444	0.209998
Br117	Br	0.607899	-0.246413	-0.434197
Br118	Br	1.107899	0.253587	0.065803
Br119	Br	0.443834	-0.560668	-0.552075
Br120	Br	0.943834	-0.060668	-0.052075
Br121	Br	1.130818	-0.296134	-1.041514
Br122	Br	1.630818	0.203866	-0.541514
Br123	Br	0.599427	-0.559930	-0.552674
Br124	Br	1.099427	-0.059930	-0.052674
H125	H	0.472740	-0.467355	-0.368461
H126	H	0.972740	0.032645	0.131539
Br127	Br	0.614481	-0.505160	-0.353202
Br128	Br	1.114481	-0.005160	0.146798
Br129	Br	0.433430	-0.312993	-0.669736
Br130	Br	0.933430	0.187007	-0.169736
Br131	Br	1.180464	-0.971694	-0.433354
Br132	Br	1.680464	-0.471694	0.066646
Br133	Br	0.467355	-0.336303	-0.290244
Br134	Br	0.967355	0.163697	0.209756
H135	H	0.976916	-0.449890	-1.108442
H136	H	1.476916	0.050110	-0.608442
H137	H	1.058611	-0.949538	-0.331363
H138	H	1.558611	-0.449538	0.168637
Br139	Br	0.451946	-0.243939	-0.443843
Br140	Br	0.951946	0.256061	0.056157
H141	H	0.966159	-0.852487	-0.665774
H142	H	1.466159	-0.352487	-0.165774
H143	H	0.966253	-0.979764	-0.666292
H144	H	1.466253	-0.479764	-0.166292
H145	H	0.959158	-0.825167	-0.368933
H146	H	1.459158	-0.325167	0.131067
H147	H	1.108678	-0.848258	-0.615078
H148	H	1.608678	-0.348258	-0.115078
Br149	Br	0.866309	-0.829356	-0.552986
Br150	Br	1.366309	-0.329356	-0.052986
Br151	Br	0.867113	-0.985078	-0.553652
Br152	Br	1.367113	-0.485078	-0.053652
Br153	Br	0.921355	-0.964255	-0.353915
Br154	Br	1.421355	-0.464255	0.146085
H155	H	1.112877	-0.975413	-0.610551
H156	H	1.612877	-0.475413	-0.110551
H157	H	1.149749	-0.835002	-0.479361
H158	H	1.649749	-0.335002	0.020639
