data_functionalizedCrystal
_audit_creation_method	'MofGen! by Chris Wilmer'
_symmetry_space_group_name_H-M	'P1'
_symmetry_Int_Tables_number	1
_symmetry_cell_setting	triclinic
loop_
_symmetry_equiv_pos_as_xyz
  x,y,z
_cell_length_a	12.811438
_cell_length_b	14.519731
_cell_length_c	11.892095
_cell_angle_alpha	93.895723
_cell_angle_beta	91.498957
_cell_angle_gamma	83.868348
loop_
_atom_site_label
_atom_site_type_symbol
_atom_site_fract_x
_atom_site_fract_y
_atom_site_fract_z
O1	O	1.389449	0.127258	0.048454
O2	O	1.722783	0.460591	0.381787
O3	O	2.056116	0.793925	0.715120
O4	O	1.086112	0.138819	0.017350
O5	O	1.419445	0.472152	0.350684
O6	O	1.752779	0.805486	0.684017
O7	O	1.245811	-0.001127	0.033736
O8	O	1.579144	0.332206	0.367069
O9	O	1.912478	0.665540	0.700402
O10	O	1.229750	0.267204	0.032068
O11	O	1.563084	0.600538	0.365402
O12	O	1.896417	0.933871	0.698735
O13	O	1.232496	0.010523	0.220377
O14	O	1.565829	0.343857	0.553710
O15	O	1.899162	0.677190	0.887044
O16	O	1.072797	0.150469	0.203991
O17	O	1.406130	0.483803	0.537325
O18	O	1.739463	0.817136	0.870658
O19	O	1.376134	0.138908	0.235095
O20	O	1.709467	0.472242	0.568428
O21	O	2.042801	0.805575	0.901762
Zn22	Zn	1.222351	0.146539	0.249177
Zn23	Zn	1.555685	0.479872	0.582510
Zn24	Zn	1.889018	0.813205	0.915843
Zn25	Zn	1.239895	0.131189	0.003269
Zn26	Zn	1.573228	0.464522	0.336602
Zn27	Zn	1.906561	0.797856	0.669935
O28	O	1.216435	0.278855	0.218710
O29	O	1.549768	0.612188	0.552043
O30	O	1.883102	0.945521	0.885376
C31	C	1.040633	0.143638	0.106690
C32	C	1.373966	0.476972	0.440024
C33	C	1.707299	0.810305	0.773357
C34	C	0.924957	0.140630	0.094829
C35	C	1.258290	0.473963	0.428163
C36	C	1.591624	0.807297	0.761496
C37	C	0.769172	0.130040	-0.023613
C38	C	1.102505	0.463373	0.309720
C39	C	1.435838	0.796706	0.643053
C40	C	0.877860	0.132865	-0.012478
C41	C	1.211194	0.466198	0.320855
C42	C	1.544527	0.799532	0.654188
C43	C	0.863358	0.145567	0.191010
C44	C	1.196691	0.478900	0.524343
C45	C	1.530024	0.812233	0.857676
C46	C	0.754669	0.142741	0.179875
C47	C	1.088003	0.476075	0.513208
C48	C	1.421336	0.809408	0.846541
C49	C	0.707580	0.134979	0.072560
C50	C	1.040914	0.468312	0.405893
C51	C	1.374247	0.801646	0.739226
C52	C	0.598889	0.132160	0.061426
C53	C	0.932222	0.465493	0.394759
C54	C	1.265556	0.798827	0.728093
C55	C	0.584390	0.144855	0.264913
C56	C	0.917723	0.478188	0.598246
C57	C	1.251056	0.811522	0.931580
C58	C	0.693078	0.147681	0.276048
C59	C	1.026411	0.481014	0.609381
C60	C	1.359745	0.814347	0.942715
C61	C	1.238401	-0.029668	0.126979
C62	C	1.571734	0.303665	0.460313
C63	C	1.905067	0.636999	0.793646
C64	C	1.236145	-0.132068	0.126749
C65	C	1.569479	0.201265	0.460082
C66	C	1.902812	0.534599	0.793416
C67	C	1.234313	-0.215229	0.126558
C68	C	1.567646	0.118105	0.459892
C69	C	1.900980	0.451438	0.793225
C70	C	1.232024	-0.319558	0.126315
C71	C	1.565357	0.013775	0.459648
C72	C	1.898691	0.347109	0.792982
C73	C	1.230207	-0.402714	0.126121
C74	C	1.563540	-0.069380	0.459455
C75	C	1.896874	0.263953	0.792788
C76	C	1.227918	-0.507050	0.125880
C77	C	1.561251	-0.173716	0.459214
C78	C	1.894585	0.159617	0.792547
C79	C	1.421613	0.134089	0.145753
C80	C	1.754947	0.467422	0.479086
C81	C	2.088280	0.800756	0.812419
C82	C	1.537290	0.137097	0.157606
C83	C	1.870623	0.470430	0.490939
C84	C	2.203956	0.803764	0.824273
C85	C	1.223846	0.307395	0.125463
C86	C	1.557179	0.640729	0.458797
C87	C	1.890512	0.974062	0.792130
C88	C	1.226101	0.409795	0.125687
C89	C	1.559435	0.743128	0.459020
C90	C	1.892768	1.076462	0.792353
N91	N	1.210386	0.157014	0.417003
N92	N	1.543719	0.490347	0.750336
N93	N	1.877052	0.823681	1.083670
N94	N	1.251869	0.120706	-0.164557
N95	N	1.585202	0.454040	0.168776
N96	N	1.918535	0.787373	0.502110
C97	C	1.335130	0.047762	0.666450
C98	C	1.668463	0.381095	0.999783
C99	C	2.001796	0.714428	1.333117
C100	C	1.326774	0.055091	0.783934
C101	C	1.660107	0.388424	1.117268
C102	C	1.993440	0.721757	1.450601
C103	C	1.185313	0.178996	0.769458
C104	C	1.518646	0.512329	1.102792
C105	C	1.851979	0.845662	1.436125
C106	C	1.193669	0.171667	0.651974
C107	C	1.527002	0.505000	0.985307
C108	C	1.860336	0.838333	1.318640
C109	C	1.268581	0.106048	0.600474
C110	C	1.601914	0.439382	0.933807
C111	C	1.935248	0.772715	1.267141
C112	C	1.276941	0.098725	0.482988
C113	C	1.610275	0.432058	0.816321
C114	C	1.943608	0.765391	1.149655
C115	C	1.135476	0.222625	0.468513
C116	C	1.468810	0.555958	0.801847
C117	C	1.802143	0.889291	1.135180
C118	C	1.127120	0.229954	0.585998
C119	C	1.460454	0.563287	0.919331
C120	C	1.793787	0.896620	1.252665
H121	H	0.901719	0.151876	0.278381
H122	H	1.235052	0.485209	0.611714
H123	H	1.568385	0.818542	0.945047
H124	H	1.124314	0.232414	0.811404
H125	H	1.457648	0.565748	1.144738
H126	H	1.790981	0.899081	1.478071
H127	H	0.560550	0.125844	-0.025956
H128	H	0.893884	0.459177	0.307378
H129	H	1.227217	0.792511	0.640711
H130	H	0.730830	0.123729	-0.110994
H131	H	1.064163	0.457063	0.222340
H132	H	1.397496	0.790396	0.555673
H133	H	0.731434	0.153997	0.363421
H134	H	1.064767	0.487330	0.696754
H135	H	1.398100	0.820664	1.030087
H136	H	1.066125	0.283377	0.627942
H137	H	1.399459	0.616710	0.961276
H138	H	1.732792	0.950043	1.294609
H139	H	0.534229	0.148881	0.343224
H140	H	0.867562	0.482215	0.676558
H141	H	1.200896	0.815548	1.009891
H142	H	1.337941	0.045297	0.441058
H143	H	1.671274	0.378631	0.774392
H144	H	2.004608	0.711964	1.107725
H145	H	0.928005	0.128843	-0.090793
H146	H	1.261338	0.462177	0.242541
H147	H	1.594671	0.795510	0.575874
H148	H	1.396133	-0.005661	0.624519
H149	H	1.729466	0.327672	0.957852
H150	H	2.062800	0.661005	1.291186
H151	H	1.081291	0.270088	0.414782
H152	H	1.414624	0.603422	0.748116
H153	H	1.747957	0.936755	1.081449
H154	H	1.380963	0.007626	0.837649
H155	H	1.714296	0.340960	1.170983
H156	H	2.047629	0.674293	1.504316
