data_functionalizedCrystal
_audit_creation_method	'MofGen! by Chris Wilmer'
_symmetry_space_group_name_H-M	'P1'
_symmetry_Int_Tables_number	1
_symmetry_cell_setting	triclinic
loop_
_symmetry_equiv_pos_as_xyz
  x,y,z
_cell_length_a	31.640172
_cell_length_b	19.377369
_cell_length_c	19.377574
_cell_angle_alpha	82.425876
_cell_angle_beta	104.494655
_cell_angle_gamma	48.633885
loop_
_atom_site_label
_atom_site_type_symbol
_atom_site_fract_x
_atom_site_fract_y
_atom_site_fract_z
Zr1	Zr	0.330446	0.779794	0.049401
O2	O	0.233612	0.928454	-0.037198
O3	O	0.368381	0.631148	0.057066
O4	O	0.333693	0.779795	-0.064411
O5	O	0.286278	0.779803	0.201581
O6	O	0.403253	0.779780	-0.064398
O7	O	0.268300	0.779807	0.084279
O8	O	0.465304	0.513878	0.152902
O9	O	0.224227	1.045705	-0.015718
O10	O	0.426504	0.692272	0.083157
O11	O	0.388008	0.692280	0.170689
O12	O	0.347168	0.867292	0.027666
O13	O	0.308672	0.867300	0.115198
Zr14	Zr	0.470059	0.779763	0.236505
Zr15	Zr	0.441387	0.779771	0.049422
Zr16	Zr	0.359118	0.779787	0.236485
Zr17	Zr	0.315478	0.966796	0.083658
Zr18	Zr	0.485027	0.592762	0.202248
O19	O	0.432125	0.928410	0.228840
O20	O	0.391356	0.928421	-0.037168
O21	O	0.274381	0.928444	0.228811
O22	O	0.566893	0.631104	0.323104
O23	O	0.526125	0.631114	0.057095
O24	O	0.409149	0.631137	0.323074
O25	O	0.514227	0.779755	0.084325
O26	O	0.466813	0.779763	0.350317
O27	O	0.397252	0.779778	0.350304
O28	O	0.532205	0.779750	0.201627
O29	O	0.312411	1.045686	-0.015702
O30	O	0.488094	0.513872	0.301608
O31	O	0.576278	0.513853	0.301624
O32	O	0.553487	0.513859	0.152918
O33	O	0.247018	1.045699	0.132988
O34	O	0.335202	1.045680	0.133005
O35	O	0.453337	0.692265	0.258240
O36	O	0.491833	0.692258	0.170708
O37	O	0.412497	0.867278	0.115217
O38	O	0.374001	0.867286	0.202749
C39	C	0.418975	0.545869	0.100103
C40	C	0.425329	0.466482	0.085560
C41	C	0.346013	0.205099	0.266430
C42	C	0.352064	0.130412	0.252827
C43	C	0.392250	0.130414	0.161451
C44	C	0.386206	0.205099	0.175049
C45	C	0.363086	0.242436	0.227539
C46	C	0.403279	0.242436	0.136158
C47	C	0.397231	0.317118	0.149752
C48	C	0.374111	0.354463	0.202238
C49	C	0.357038	0.317119	0.241133
C50	C	0.426394	0.205102	0.083664
C51	C	0.443467	0.242439	0.044773
C52	C	0.437424	0.317118	0.058371
C53	C	0.414303	0.354463	0.110857
C54	C	0.454496	0.354462	0.019475
C55	C	0.448449	0.429144	0.033070
C56	C	0.408256	0.429145	0.124451
C57	C	0.261482	0.779808	0.142927
C58	C	0.214385	0.779818	0.142919
C59	C	-0.036196	0.688411	0.171935
C60	C	-0.213177	0.688393	0.171949
O61	O	-0.200837	0.610696	0.196615
N62	N	-0.276719	0.779751	0.142982
C63	C	-0.296016	0.871120	0.114014
O64	O	-0.354123	0.948825	0.089383
C65	C	-0.119034	0.871137	0.114005
C66	C	-0.055493	0.779773	0.142967
C67	C	0.027343	0.597054	0.200895
C68	C	0.071585	0.597060	0.200888
C69	C	0.052288	0.688421	0.171920
C70	C	-0.011251	0.779778	0.142959
C71	C	-0.138331	0.962504	0.085042
C72	C	-0.094079	0.962500	0.085044
C73	C	-0.030537	0.871136	0.114006
C74	C	0.013694	0.871145	0.113983
N75	N	0.077236	0.779787	0.142951
C76	C	0.096533	0.688425	0.171919
C77	C	-0.388931	0.871105	0.114019
C78	C	-0.433177	0.871101	0.114020
C79	C	-0.350334	0.688374	0.171956
C80	C	-0.306089	0.688379	0.171950
C81	C	-0.325389	0.779747	0.142986
C82	C	0.189440	0.688443	0.171900
C83	C	0.233682	0.688457	0.171887
C84	C	0.150836	0.871183	0.113954
C85	C	0.106598	0.871170	0.113963
C86	C	0.125905	0.779792	0.142941
O87	O	0.001401	0.948802	0.089338
O88	O	0.154645	0.610732	0.196562
C89	C	-0.080437	0.688405	0.171943
C90	C	-0.143976	0.779762	0.142982
C91	C	-0.163273	0.871124	0.114014
C92	C	-0.188221	0.779758	0.142983
C93	C	-0.168924	0.688396	0.171951
C94	C	-0.105382	0.597038	0.200918
C95	C	-0.061140	0.597044	0.200911
C96	C	-0.226815	0.962482	0.085047
C97	C	-0.271054	0.962469	0.085056
C98	C	-0.251757	0.871107	0.114024
C99	C	0.539023	0.779749	0.142979
C100	C	0.586121	0.779739	0.142988
C101	C	0.364388	0.779788	-0.091060
C102	C	0.352215	0.779791	-0.170482
C103	C	0.381531	1.013689	0.185803
C104	C	0.375177	1.093076	0.200346
C105	C	0.503776	0.779754	-0.431675
C106	C	0.492325	0.779759	-0.506304
C107	C	0.415686	0.779775	-0.506300
C108	C	0.427129	0.779775	-0.431671
C109	C	0.471176	0.779764	-0.394364
C110	C	0.394529	0.779785	-0.394360
C111	C	0.405973	0.779780	-0.319735
C112	C	0.450019	0.779765	-0.282422
C113	C	0.482620	0.779759	-0.319739
C114	C	0.350486	0.779789	-0.431666
C115	C	0.317885	0.779799	-0.394355
C116	C	0.329326	0.779801	-0.319731
C117	C	0.373372	0.779787	-0.282418
C118	C	0.296725	0.779808	-0.282414
C119	C	0.308169	0.779803	-0.207789
C120	C	0.384816	0.779782	-0.207793
C121	C	0.436118	0.779770	0.376966
C122	C	0.448290	0.779767	0.456388
C123	C	0.557745	0.545840	0.100128
C124	C	0.611197	0.466443	0.085594
C125	C	0.454840	0.545860	0.334116
C126	C	0.473366	0.466470	0.398995
C127	C	0.593610	0.545830	0.334142
C128	C	0.659234	0.466430	0.399029
C129	C	0.206895	1.013728	-0.048235
C130	C	0.141271	1.093128	-0.113123
C131	C	0.242760	1.013718	0.185778
C132	C	0.189309	1.093115	0.200312
C133	C	0.345666	1.013698	-0.048210
C134	C	0.327139	1.093088	-0.113089
C135	C	0.602196	0.429165	0.033060
C136	C	0.652411	0.354573	0.019388
C137	C	0.711628	0.317256	0.058255
C138	C	0.720628	0.354541	0.110792
C139	C	0.670412	0.429137	0.124459
C140	C	0.516168	0.429180	0.475171
C141	C	0.533574	0.354595	0.536141
C142	C	0.508180	0.317296	0.520931
C143	C	0.465373	0.354593	0.444748
C144	C	0.447964	0.429182	0.383780
C145	C	0.710150	0.429139	0.383810
C146	C	0.771813	0.354545	0.444774
C147	C	0.782559	0.317238	0.520955
C148	C	0.731636	0.354536	0.536173
C149	C	0.669974	0.429134	0.475211
C150	C	0.090354	1.130428	-0.097903
C151	C	0.028689	1.205045	-0.158862
C152	C	0.017944	1.242356	-0.235042
C153	C	0.068867	1.205053	-0.250261
C154	C	0.130530	1.130442	-0.189302
C155	C	0.198308	1.130401	0.252840
C156	C	0.148087	1.205013	0.266495
C157	C	0.088870	1.242333	0.227626
C158	C	0.079871	1.205044	0.175092
C159	C	0.130090	1.130438	0.161433
C160	C	0.352545	1.130363	-0.097856
C161	C	0.335149	1.204949	-0.158811
C162	C	0.292345	1.242263	-0.234998
C163	C	0.266940	1.204980	-0.250230
C164	C	0.284338	1.130391	-0.189276
H165	H	0.411072	0.100008	0.118711
H166	H	0.522361	0.256561	0.570582
N167	N	0.157795	1.245231	0.323152
H168	H	0.191692	1.188317	0.376659
H169	H	0.116966	1.298176	0.325835
H170	H	0.355840	1.235296	-0.146393
H171	H	-0.242538	1.036881	0.061456
H172	H	0.281623	0.779809	-0.177410
N173	N	0.130033	0.969718	0.082722
H174	H	0.083066	1.027599	0.064375
H175	H	0.139847	0.973706	0.037510
H176	H	0.246523	1.100021	0.284499
N177	N	-0.048564	1.322824	-0.300792
H178	H	-0.074819	1.384719	-0.289484
H179	H	-0.067732	1.296775	-0.305546
N180	N	0.220769	1.245237	-0.332403
H181	H	0.238458	1.188336	-0.349830
H182	H	0.213621	1.298160	-0.368640
N183	N	0.333656	0.090127	0.294781
H184	H	0.298962	0.103023	0.255260
H185	H	0.318124	0.125129	0.330097
H186	H	0.047984	1.303082	0.238755
H187	H	0.379826	0.779781	-0.536683
N188	N	0.527484	0.779763	-0.546551
H189	H	0.513552	0.779768	-0.599487
H190	H	0.574383	0.717627	-0.513810
N191	N	0.432921	0.124548	0.069003
H192	H	0.462801	0.062675	0.119583
H193	H	0.450134	0.106650	0.029823
N194	N	0.302219	0.589908	0.203135
H195	H	0.327322	0.603768	0.198736
H196	H	0.305832	0.550012	0.171837
N197	N	0.398715	1.090117	-0.015686
H198	H	0.381024	1.147026	0.001731
H199	H	0.440158	1.059141	-0.014419
H200	H	0.462350	0.459546	0.001399
H201	H	-0.484915	0.945499	0.090425
N202	N	0.249220	0.779822	-0.322658
H203	H	0.230302	0.779829	-0.287698
H204	H	0.270968	0.717689	-0.333917
H205	H	0.645072	0.324224	-0.023391
N206	N	0.273588	1.322703	-0.300739
H207	H	0.296182	1.340648	-0.279521
H208	H	0.226425	1.384565	-0.325308
N209	N	0.680124	0.469341	0.181121
H210	H	0.671063	0.456362	0.224731
H211	H	0.650556	0.544211	0.152865
N212	N	0.437990	0.314354	0.428348
H213	H	0.455521	0.261440	0.478533
H214	H	0.449641	0.283449	0.389700
H215	H	0.341172	0.779789	-0.492429
N216	N	0.538331	0.469400	-0.008865
H217	H	0.505720	0.544284	-0.041132
H218	H	0.526286	0.456342	0.030712
N219	N	0.743227	0.314292	0.618339
H220	H	0.764400	0.327264	0.653718
H221	H	0.771416	0.239421	0.637544
N222	N	0.383324	0.469414	0.181071
H223	H	0.343611	0.544282	0.152835
H224	H	0.416271	0.456445	0.224646
H225	H	0.459338	0.779757	-0.221656
N226	N	-0.084579	0.498502	0.232155
H227	H	-0.094356	0.494434	0.277394
H228	H	-0.037617	0.440673	0.250460
H229	H	0.031649	1.235441	0.143448
N230	N	0.849065	0.236772	0.586707
H231	H	0.868290	0.262730	0.591497
H232	H	0.875269	0.174906	0.575356
H233	H	0.628520	0.459487	0.487613
N234	N	0.270379	0.779817	-0.434604
H235	H	0.227454	0.841953	-0.441315
H236	H	0.283830	0.717653	-0.401891
H237	H	0.263645	1.100050	-0.201690
H238	H	-0.334629	0.613984	0.195538
H239	H	0.752513	0.256515	0.047120
N240	N	0.101935	1.090191	-0.015742
H241	H	0.060316	1.125154	-0.015361
H242	H	0.123131	1.103160	0.019594
H243	H	-0.404657	0.945512	0.090427
N244	N	0.530120	0.779763	-0.279497
H245	H	0.549035	0.779763	-0.314458
H246	H	0.564702	0.717629	-0.228836
H247	H	0.813270	0.324184	0.432369
H248	H	0.473314	0.324059	-0.023268
N249	N	0.784499	0.314289	0.152709
H250	H	0.814940	0.261374	0.136076
H251	H	0.800870	0.283381	0.210955
N252	N	0.698572	0.469377	0.301651
H253	H	0.651785	0.522296	0.265333
H254	H	0.721645	0.412408	0.284306
H255	H	-0.012766	1.235405	-0.146456
H256	H	0.060110	1.235441	-0.312294
H257	H	0.568432	0.324236	0.598167
N258	N	0.468397	0.202165	-0.011842
H259	H	0.508108	0.127296	0.016396
H260	H	0.478257	0.237221	-0.034405
N261	N	0.332110	0.357388	0.297756
H262	H	0.322215	0.322400	0.320337
H263	H	0.292416	0.432258	0.269471
H264	H	-0.254351	0.613982	0.195541
N265	N	0.321085	0.245369	0.323053
H266	H	0.311189	0.210381	0.345633
H267	H	0.281391	0.320238	0.294768
N268	N	0.210267	0.589888	0.203154
H269	H	0.257234	0.532023	0.221496
H270	H	0.186977	0.585905	0.160470
N271	N	0.140116	0.498517	0.232123
H272	H	0.145618	0.440647	0.250472
H273	H	0.167021	0.494527	0.277334
H274	H	0.536851	0.459540	0.487570
H275	H	-0.190063	1.036903	0.061459
N276	N	0.401771	0.469408	0.301637
H277	H	0.419455	0.412498	0.284222
H278	H	0.394583	0.522352	0.265352
N279	N	-0.114896	1.061050	0.053805
H280	H	-0.161863	1.118921	0.035460
H281	H	-0.105085	1.065039	0.008589
H282	H	0.122755	1.100082	0.118663
N283	N	0.048165	0.498506	0.232143
H284	H	0.095132	0.440642	0.250486
H285	H	0.024877	0.494522	0.189456
N286	N	0.038059	0.969704	0.082720
H287	H	0.020908	1.009650	0.026106
H288	H	0.034441	1.009565	0.114057
N289	N	-0.339589	1.061018	0.053813
H290	H	-0.345093	1.118891	0.035465
H291	H	-0.353007	1.064992	0.096507
N292	N	0.007391	0.498501	0.232144
H293	H	0.012892	0.440631	0.250493
H294	H	0.034297	0.494509	0.277356
N295	N	0.432341	0.779731	-0.167537
H296	H	0.434648	0.779715	-0.114597
H297	H	0.418929	0.841849	-0.200263
N298	N	0.551276	0.779758	-0.391433
H299	H	0.570191	0.779759	-0.426394
H300	H	0.585858	0.717625	-0.340772
H301	H	0.171986	1.100073	-0.201705
H302	H	0.369184	0.415278	0.213302
