data_functionalizedCrystal
_audit_creation_method	'MofGen! by Chris Wilmer'
_symmetry_space_group_name_H-M	'P1'
_symmetry_Int_Tables_number	1
_symmetry_cell_setting	triclinic
loop_
_symmetry_equiv_pos_as_xyz
  x,y,z
_cell_length_a	12.645331
_cell_length_b	18.101395
_cell_length_c	12.645323
_cell_angle_alpha	89.971733
_cell_angle_beta	89.977324
_cell_angle_gamma	90.030083
loop_
_atom_site_label
_atom_site_type_symbol
_atom_site_fract_x
_atom_site_fract_y
_atom_site_fract_z
Zn1	Zn	1.620632	-0.294844	-0.599421
Zn2	Zn	1.620473	-0.418694	-0.422151
Zn3	Zn	1.443347	-0.294869	-0.422166
Zn4	Zn	1.443287	-0.418646	-0.599366
O5	O	1.531935	-0.356763	-0.510776
O6	O	1.768958	-0.311283	-0.575923
O7	O	1.596935	-0.402299	-0.273805
O8	O	1.466956	-0.191233	-0.445708
O9	O	1.768841	-0.402275	-0.445683
O10	O	1.597207	-0.191214	-0.575937
O11	O	1.466801	-0.311325	-0.273816
O12	O	1.294992	-0.311278	-0.445655
O13	O	1.466854	-0.402193	-0.747721
O14	O	1.294948	-0.402217	-0.575843
O15	O	1.597149	-0.311236	-0.747761
O16	O	1.596877	-0.522321	-0.445630
O17	O	1.466699	-0.522285	-0.575829
C18	C	1.256505	-0.356746	-0.510745
C19	C	1.138675	-0.356756	-0.510757
C20	C	0.971103	-0.299284	-0.429308
C21	C	1.093663	-0.299432	-0.428949
C22	C	1.094129	-0.434770	-0.480236
C23	C	0.971530	-0.434456	-0.479680
C24	C	0.971532	-0.336957	-0.623043
C25	C	1.094139	-0.335215	-0.622419
C26	C	1.531793	-0.549174	-0.510745
C27	C	1.531829	-0.631488	-0.510767
C28	C	1.532062	-0.930579	-0.510824
C29	C	1.450348	-0.899262	-0.592945
C30	C	1.449960	-0.813644	-0.592688
C31	C	1.531946	-0.782196	-0.510797
C32	C	1.501694	-0.813349	-0.399071
C33	C	1.501167	-0.898994	-0.399562
C34	C	1.644207	-0.898924	-0.539445
C35	C	1.643548	-0.813273	-0.541895
C36	C	1.531883	-0.698337	-0.510774
C37	C	1.532123	-1.014438	-0.510839
C38	C	1.808440	-0.356781	-0.510807
C39	C	1.926270	-0.356789	-0.510821
C40	C	1.532013	-0.356706	-0.787281
C41	C	1.532046	-0.356682	-0.905112
C42	C	1.532106	-0.163601	-0.510830
C43	C	1.532179	-0.081287	-0.510854
C44	C	1.449825	-0.413633	-1.072650
C45	C	1.450040	-0.413915	-0.950090
C46	C	1.643739	-0.377863	-0.949630
C47	C	1.643288	-0.378220	-1.072228
C48	C	1.503631	-0.278231	-1.072316
C49	C	1.501139	-0.278701	-0.949710
C50	C	1.531918	-0.356767	-0.235346
C51	C	1.532090	-0.356583	-0.117517
H52	H	1.122937	-0.312540	-0.345787
N53	N	0.933567	-0.456731	-0.371012
H54	H	0.996473	-0.466661	-0.323921
H55	H	0.889721	-0.415521	-0.339818
H56	H	1.707650	-0.791861	-0.486442
H57	H	1.468825	-0.472001	-0.920771
H58	H	1.667414	-0.435497	-1.100834
H59	H	1.419189	-0.919036	-0.375318
H60	H	1.423605	-0.258923	-1.103222
H61	H	1.668278	-0.434540	-0.918936
H62	H	1.418943	-0.262727	-0.920612
N63	N	0.932232	-0.493127	-0.554891
H64	H	0.994552	-0.519083	-0.588254
H65	H	0.887909	-0.530160	-0.514764
H66	H	1.671788	-0.920471	-0.619527
N67	N	1.474466	-0.490096	-1.113452
H68	H	1.421257	-0.526405	-1.084254
H69	H	1.470809	-0.490131	-1.193235
N70	N	1.582980	-0.221919	-1.110758
H71	H	1.619640	-0.198659	-1.048114
H72	H	1.637045	-0.247044	-1.157240
N73	N	1.724855	-0.925743	-0.460222
H74	H	1.688983	-0.958239	-0.406050
H75	H	1.781409	-0.954961	-0.498022
N76	N	0.933096	-0.392430	-0.703487
H77	H	0.891183	-0.366169	-0.760127
H78	H	0.995787	-0.418050	-0.736678
H79	H	1.123783	-0.241582	-0.448080
H80	H	1.123283	-0.478761	-0.537743
N81	N	1.727245	-0.325585	-1.111552
H82	H	1.727608	-0.325408	-1.191422
H83	H	1.711595	-0.274185	-1.084767
N84	N	0.929841	-0.316410	-0.319935
H85	H	0.952871	-0.367687	-0.298474
H86	H	0.958832	-0.279189	-0.267999
N87	N	1.475023	-0.785734	-0.702421
H88	H	1.486424	-0.829066	-0.751396
H89	H	1.414139	-0.754849	-0.729151
H90	H	0.941659	-0.241259	-0.448234
H91	H	1.124778	-0.451877	-0.399076
H92	H	0.940654	-0.281063	-0.650799
H93	H	1.123262	-0.277805	-0.645434
N94	N	1.340905	-0.927849	-0.568158
H95	H	1.344026	-0.960997	-0.503965
H96	H	1.292237	-0.884842	-0.553433
N97	N	1.340344	-0.396326	-0.910207
H98	H	1.291412	-0.388323	-0.972267
H99	H	1.313471	-0.438834	-0.865941
N100	N	1.574708	-0.219414	-0.909165
H101	H	1.570992	-0.217611	-0.829422
H102	H	1.649474	-0.230969	-0.931861
N103	N	1.134715	-0.386648	-0.707179
H104	H	1.214460	-0.384054	-0.709798
H105	H	1.112000	-0.438870	-0.690504
N106	N	1.339857	-0.786584	-0.567560
H107	H	1.339146	-0.730791	-0.567290
H108	H	1.288935	-0.805390	-0.622867
N109	N	1.475156	-0.926480	-0.703040
H110	H	1.539603	-0.959377	-0.700756
H111	H	1.412907	-0.955372	-0.731213
H112	H	1.366755	-0.400505	-1.102125
N113	N	1.727110	-0.324560	-0.911063
H114	H	1.693198	-0.286079	-0.864247
H115	H	1.782430	-0.352414	-0.869514
H116	H	1.558102	-0.919713	-0.336289
H117	H	1.559338	-0.792980	-0.336216
N118	N	1.394247	-0.785036	-0.366383
H119	H	1.375484	-0.805390	-0.294396
H120	H	1.395790	-0.729294	-0.363308
H121	H	1.666361	-0.792909	-0.624119
