data_functionalizedCrystal
_audit_creation_method	'MofGen! by Chris Wilmer'
_symmetry_space_group_name_H-M	'P1'
_symmetry_Int_Tables_number	1
_symmetry_cell_setting	triclinic
loop_
_symmetry_equiv_pos_as_xyz
  x,y,z
_cell_length_a	18.050591
_cell_length_b	25.639239
_cell_length_c	18.050582
_cell_angle_alpha	90.024638
_cell_angle_beta	90.020922
_cell_angle_gamma	90.034692
loop_
_atom_site_label
_atom_site_type_symbol
_atom_site_fract_x
_atom_site_fract_y
_atom_site_fract_z
Zn1	Zn	1.135238	-0.208240	0.420021
Zn2	Zn	1.385238	0.041760	0.670021
Zn3	Zn	1.635238	0.291760	0.920021
Zn4	Zn	1.885238	0.541760	1.170021
Zn5	Zn	1.135126	-0.295667	0.295826
Zn6	Zn	1.385126	-0.045667	0.545826
Zn7	Zn	1.635126	0.204333	0.795826
Zn8	Zn	1.885126	0.454333	1.045826
Zn9	Zn	1.011058	-0.208242	0.295832
Zn10	Zn	1.261058	0.041758	0.545832
Zn11	Zn	1.511058	0.291758	0.795832
Zn12	Zn	1.761058	0.541758	1.045832
Zn13	Zn	1.010983	-0.295640	0.419962
Zn14	Zn	1.260983	-0.045640	0.669962
Zn15	Zn	1.510983	0.204360	0.919962
Zn16	Zn	1.760983	0.454360	1.169962
O17	O	1.073101	-0.251947	0.357910
O18	O	1.323101	-0.001947	0.607910
O19	O	1.573101	0.248053	0.857910
O20	O	1.823101	0.498053	1.107910
O21	O	1.239148	-0.219848	0.403568
O22	O	1.489148	0.030152	0.653568
O23	O	1.739148	0.280152	0.903568
O24	O	1.989148	0.530152	1.153568
O25	O	1.118653	-0.284083	0.191902
O26	O	1.368653	-0.034083	0.441902
O27	O	1.618653	0.215917	0.691902
O28	O	1.868653	0.465917	0.941902
O29	O	1.027609	-0.135076	0.312333
O30	O	1.277609	0.114924	0.562333
O31	O	1.527609	0.364924	0.812333
O32	O	1.777609	0.614924	1.062333
O33	O	1.239066	-0.284081	0.312323
O34	O	1.489066	-0.034081	0.562323
O35	O	1.739066	0.215919	0.812323
O36	O	1.989066	0.465919	1.062323
O37	O	1.118844	-0.135075	0.403574
O38	O	1.368844	0.114925	0.653574
O39	O	1.618844	0.364925	0.903574
O40	O	1.868844	0.614925	1.153574
O41	O	1.027500	-0.219851	0.191906
O42	O	1.277500	0.030149	0.441906
O43	O	1.527500	0.280149	0.691906
O44	O	1.777500	0.530149	0.941906
O45	O	0.907123	-0.219825	0.312276
O46	O	1.157123	0.030175	0.562276
O47	O	1.407123	0.280175	0.812276
O48	O	1.657123	0.530175	1.062276
O49	O	1.027481	-0.284034	0.523894
O50	O	1.277481	-0.034034	0.773894
O51	O	1.527481	0.215966	1.023894
O52	O	1.777481	0.465966	1.273894
O53	O	0.907068	-0.284036	0.403473
O54	O	1.157068	-0.034036	0.653473
O55	O	1.407068	0.215964	0.903473
O56	O	1.657068	0.465964	1.153473
O57	O	1.118771	-0.219821	0.523938
O58	O	1.368771	0.030179	0.773938
O59	O	1.618771	0.280179	1.023938
O60	O	1.868771	0.530179	1.273938
O61	O	1.118580	-0.368829	0.312266
O62	O	1.368580	-0.118829	0.562266
O63	O	1.618580	0.131171	0.812266
O64	O	1.868580	0.381171	1.062266
O65	O	1.027373	-0.368809	0.403468
O66	O	1.277373	-0.118809	0.653468
O67	O	1.527373	0.131191	0.903468
O68	O	1.777373	0.381191	1.153468
C69	C	0.880149	-0.251928	0.357869
C70	C	1.130149	-0.001928	0.607869
C71	C	1.380149	0.248072	0.857869
C72	C	1.630149	0.498072	1.107869
C73	C	0.797604	-0.251932	0.357869
C74	C	1.047604	-0.001932	0.607869
C75	C	1.297604	0.248068	0.857869
C76	C	1.547604	0.498068	1.107869
C77	C	1.072977	-0.387790	0.357876
C78	C	1.322977	-0.137790	0.607876
C79	C	1.572977	0.112210	0.857876
C80	C	1.822977	0.362210	1.107876
C81	C	1.072991	-0.445904	0.357886
C82	C	1.322991	-0.195904	0.607886
C83	C	1.572991	0.054096	0.857886
C84	C	1.822991	0.304096	1.107886
C85	C	0.598161	-0.216974	0.308390
C86	C	0.848161	0.033026	0.558390
C87	C	1.098161	0.283026	0.808390
C88	C	1.348161	0.533026	1.058390
C89	C	0.548729	-0.264661	0.290112
C90	C	0.798729	-0.014661	0.540112
C91	C	1.048729	0.235339	0.790112
C92	C	1.298729	0.485339	1.040112
C93	C	0.646473	-0.251948	0.357903
C94	C	0.896473	-0.001948	0.607903
C95	C	1.146473	0.248052	0.857903
C96	C	1.396473	0.498052	1.107903
C97	C	0.548824	-0.204277	0.376179
C98	C	0.798824	0.045723	0.626179
C99	C	1.048824	0.295723	0.876179
C100	C	1.298824	0.545723	1.126179
C101	C	0.500488	-0.251959	0.357934
C102	C	0.750488	-0.001959	0.607934
C103	C	1.000488	0.248041	0.857934
C104	C	1.250488	0.498041	1.107934
C105	C	0.598128	-0.299660	0.339589
C106	C	0.848128	-0.049660	0.589589
C107	C	1.098128	0.200340	0.839589
C108	C	1.348128	0.450340	1.089589
C109	C	0.598227	-0.239244	0.425688
C110	C	0.848227	0.010756	0.675688
C111	C	1.098227	0.260756	0.925688
C112	C	1.348227	0.510756	1.175688
C113	C	0.548817	-0.286965	0.407435
C114	C	0.798817	-0.036965	0.657435
C115	C	1.048817	0.213035	0.907435
C116	C	1.298817	0.463035	1.157435
C117	C	0.730571	-0.251941	0.357883
C118	C	0.980571	-0.001941	0.607883
C119	C	1.230571	0.248059	0.857883
C120	C	1.480571	0.498059	1.107883
C121	C	0.416392	-0.251971	0.357954
C122	C	0.666392	-0.001971	0.607954
C123	C	0.916392	0.248029	0.857954
C124	C	1.166392	0.498029	1.107954
C125	C	1.120717	-0.806265	0.310502
C126	C	1.370717	-0.556265	0.560502
C127	C	1.620717	-0.306265	0.810502
C128	C	1.870717	-0.056265	1.060502
C129	C	1.120746	-0.860869	0.310512
C130	C	1.370746	-0.610869	0.560512
C131	C	1.620746	-0.360869	0.810512
C132	C	1.870746	-0.110869	1.060512
O133	O	1.161195	-0.889104	0.270187
O134	O	1.411195	-0.639104	0.520187
O135	O	1.661195	-0.389104	0.770187
O136	O	1.911195	-0.139104	1.020187
N137	N	1.073232	-0.888186	0.357959
N138	N	1.323232	-0.638186	0.607959
N139	N	1.573232	-0.388186	0.857959
N140	N	1.823232	-0.138186	1.107959
C141	C	1.025691	-0.860896	0.405405
C142	C	1.275691	-0.610896	0.655405
C143	C	1.525691	-0.360896	0.905405
C144	C	1.775691	-0.110896	1.155405
O145	O	0.985280	-0.889145	0.445764
O146	O	1.235280	-0.639145	0.695764
O147	O	1.485280	-0.389145	0.945764
O148	O	1.735280	-0.139145	1.195764
C149	C	1.025667	-0.806293	0.405398
C150	C	1.275667	-0.556293	0.655398
C151	C	1.525667	-0.306293	0.905398
C152	C	1.775667	-0.056293	1.155398
C153	C	1.073179	-0.778979	0.357943
C154	C	1.323179	-0.528979	0.607943
C155	C	1.573179	-0.278979	0.857943
C156	C	1.823179	-0.028979	1.107943
C157	C	1.168226	-0.778951	0.263051
C158	C	1.418226	-0.528951	0.513051
C159	C	1.668226	-0.278951	0.763051
C160	C	1.918226	-0.028951	1.013051
C161	C	1.168196	-0.724350	0.263040
C162	C	1.418196	-0.474350	0.513040
C163	C	1.668196	-0.224350	0.763040
C164	C	1.918196	0.025650	1.013040
C165	C	1.120657	-0.697064	0.310481
C166	C	1.370657	-0.447064	0.560481
C167	C	1.620657	-0.197064	0.810481
C168	C	1.870657	0.052936	1.060481
C169	C	1.073149	-0.724378	0.357932
C170	C	1.323149	-0.474378	0.607932
C171	C	1.573149	-0.224378	0.857932
C172	C	1.823149	0.025622	1.107932
C173	C	0.978131	-0.779004	0.452847
C174	C	1.228131	-0.529004	0.702847
C175	C	1.478131	-0.279004	0.952847
C176	C	1.728131	-0.029004	1.202847
C177	C	0.978111	-0.724397	0.452837
C178	C	1.228111	-0.474397	0.702837
C179	C	1.478111	-0.224397	0.952837
C180	C	1.728111	0.025603	1.202837
C181	C	1.025622	-0.697083	0.405381
C182	C	1.275622	-0.447083	0.655381
C183	C	1.525622	-0.197083	0.905381
C184	C	1.775622	0.052917	1.155381
C185	C	1.025580	-0.642491	0.405362
C186	C	1.275580	-0.392491	0.655362
C187	C	1.525580	-0.142491	0.905362
C188	C	1.775580	0.107509	1.155362
N189	N	1.073094	-0.615174	0.357914
N190	N	1.323094	-0.365174	0.607914
N191	N	1.573094	-0.115174	0.857914
N192	N	1.823094	0.134826	1.107914
C193	C	1.120633	-0.642460	0.310474
C194	C	1.370633	-0.392460	0.560474
C195	C	1.620633	-0.142460	0.810474
C196	C	1.870633	0.107540	1.060474
C197	C	1.025747	-0.975567	0.405416
C198	C	1.275747	-0.725567	0.655416
C199	C	1.525747	-0.475567	0.905416
C200	C	1.775747	-0.225567	1.155416
C201	C	1.025768	-1.030169	0.405420
C202	C	1.275768	-0.780169	0.655420
C203	C	1.525768	-0.530169	0.905420
C204	C	1.775768	-0.280169	1.155420
C205	C	1.120823	-1.030138	0.310528
C206	C	1.370823	-0.780138	0.560528
C207	C	1.620823	-0.530138	0.810528
C208	C	1.870823	-0.280138	1.060528
C209	C	1.120799	-0.975535	0.310521
C210	C	1.370799	-0.725535	0.560521
C211	C	1.620799	-0.475535	0.810521
C212	C	1.870799	-0.225535	1.060521
C213	C	1.073261	-0.948250	0.357969
C214	C	1.323261	-0.698250	0.607969
C215	C	1.573261	-0.448250	0.857969
C216	C	1.823261	-0.198250	1.107969
C217	C	1.120566	-0.527795	0.310455
C218	C	1.370566	-0.277795	0.560455
C219	C	1.620566	-0.027795	0.810455
C220	C	1.870566	0.222205	1.060455
C221	C	1.120530	-0.473190	0.310446
C222	C	1.370530	-0.223190	0.560446
C223	C	1.620530	0.026810	0.810446
C224	C	1.870530	0.276810	1.060446
C225	C	1.025477	-0.473226	0.405340
C226	C	1.275477	-0.223226	0.655340
C227	C	1.525477	0.026774	0.905340
C228	C	1.775477	0.276774	1.155340
C229	C	1.025510	-0.527826	0.405347
C230	C	1.275510	-0.277826	0.655347
C231	C	1.525510	-0.027826	0.905347
C232	C	1.775510	0.222174	1.155347
C233	C	1.073061	-0.555110	0.357901
C234	C	1.323061	-0.305110	0.607901
C235	C	1.573061	-0.055110	0.857901
C236	C	1.823061	0.194890	1.107901
O237	O	0.985154	-0.614222	0.445668
O238	O	1.235154	-0.364222	0.695668
O239	O	1.485154	-0.114222	0.945668
O240	O	1.735154	0.135778	1.195668
O241	O	1.161044	-0.614205	0.270129
O242	O	1.411044	-0.364205	0.520129
O243	O	1.661044	-0.114205	0.770129
O244	O	1.911044	0.135795	1.020129
C245	C	1.266807	-0.251967	0.357952
C246	C	1.516807	-0.001967	0.607952
C247	C	1.766807	0.248033	0.857952
C248	C	2.016807	0.498033	1.107952
C249	C	1.349353	-0.251976	0.357970
C250	C	1.599353	-0.001976	0.607970
C251	C	1.849353	0.248024	0.857970
C252	C	2.099353	0.498024	1.107970
C253	C	1.073131	-0.251924	0.551616
C254	C	1.323131	-0.001924	0.801616
C255	C	1.573131	0.248076	1.051616
C256	C	1.823131	0.498076	1.301616
C257	C	1.073143	-0.251914	0.634162
C258	C	1.323143	-0.001914	0.884162
C259	C	1.573143	0.248086	1.134162
C260	C	1.823143	0.498086	1.384162
C261	C	1.073247	-0.115574	0.357961
C262	C	1.323247	0.134426	0.607961
C263	C	1.573247	0.384426	0.857961
C264	C	1.823247	0.634426	1.107961
C265	C	1.073309	-0.057460	0.357982
C266	C	1.323309	0.192540	0.607982
C267	C	1.573309	0.442540	0.857982
C268	C	1.823309	0.692540	1.107982
C269	C	1.073115	-0.251933	0.164958
C270	C	1.323115	-0.001933	0.414958
C271	C	1.573115	0.248067	0.664958
C272	C	1.823115	0.498067	0.914958
C273	C	1.073247	-0.251795	0.082413
C274	C	1.323247	-0.001795	0.332413
C275	C	1.573247	0.248205	0.582413
C276	C	1.823247	0.498205	0.832413
C277	C	1.023537	-0.286785	0.833589
C278	C	1.273537	-0.036785	1.083589
C279	C	1.523537	0.213215	1.333589
C280	C	1.773537	0.463215	1.583589
C281	C	1.091289	-0.299569	0.882987
C282	C	1.341289	-0.049569	1.132987
C283	C	1.591289	0.200431	1.382987
C284	C	1.841289	0.450431	1.632987
C285	C	1.073180	-0.251874	0.785292
C286	C	1.323180	-0.001874	1.035292
C287	C	1.573180	0.248126	1.285292
C288	C	1.823180	0.498126	1.535292
C289	C	1.005465	-0.239076	0.882976
C290	C	1.255465	0.010924	1.132976
C291	C	1.505465	0.260924	1.382976
C292	C	1.755465	0.510924	1.632976
C293	C	1.073209	-0.251837	0.931277
C294	C	1.323209	-0.001837	1.181277
C295	C	1.573209	0.248163	1.431277
C296	C	1.823209	0.498163	1.681277
C297	C	1.140967	-0.264683	0.833603
C298	C	1.390967	-0.014683	1.083603
C299	C	1.640967	0.235317	1.333603
C300	C	1.890967	0.485317	1.583603
C301	C	1.055097	-0.204168	0.833588
C302	C	1.305097	0.045832	1.083588
C303	C	1.555097	0.295832	1.333588
C304	C	1.805097	0.545832	1.583588
C305	C	1.122896	-0.216933	0.882963
C306	C	1.372896	0.033067	1.132963
C307	C	1.622896	0.283067	1.382963
C308	C	1.872896	0.533067	1.632963
C309	C	1.073162	-0.251897	0.701194
C310	C	1.323162	-0.001897	0.951194
C311	C	1.573162	0.248103	1.201194
C312	C	1.823162	0.498103	1.451194
C313	C	1.073235	-0.251814	1.015374
C314	C	1.323235	-0.001814	1.265374
C315	C	1.573235	0.248186	1.515374
C316	C	1.823235	0.498186	1.765374
H317	H	0.619827	-0.187429	0.266473
H318	H	0.869827	0.062571	0.516473
H319	H	1.119827	0.312571	0.766473
H320	H	1.369827	0.562571	1.016473
H321	H	1.164937	-0.187394	0.904505
H322	H	1.414937	0.062606	1.154505
H323	H	1.664937	0.312606	1.404505
H324	H	1.914937	0.562606	1.654505
O325	O	0.626693	-0.353083	0.319037
O326	O	0.876693	-0.103083	0.569037
O327	O	1.126693	0.146917	0.819037
O328	O	1.376693	0.396917	1.069037
H329	H	0.579171	-0.379633	0.308867
H330	H	0.829171	-0.129633	0.558867
H331	H	1.079171	0.120367	0.808867
H332	H	1.329171	0.370367	1.058867
O333	O	1.034774	-0.150771	0.804804
O334	O	1.284774	0.099229	1.054804
O335	O	1.534774	0.349229	1.304804
O336	O	1.784774	0.599229	1.554804
H337	H	1.024124	-0.124234	0.852212
H338	H	1.274124	0.125766	1.102212
H339	H	1.524124	0.375766	1.352212
H340	H	1.774124	0.625766	1.602212
O341	O	0.520290	-0.326188	0.462919
O342	O	0.770290	-0.076188	0.712919
O343	O	1.020290	0.173812	0.962919
O344	O	1.270290	0.423812	1.212919
H345	H	0.458804	-0.325675	0.462879
H346	H	0.708804	-0.075675	0.712879
H347	H	0.958804	0.174325	0.962879
H348	H	1.208804	0.424325	1.212879
H349	H	1.159487	-0.953299	0.271879
H350	H	1.409487	-0.703299	0.521879
H351	H	1.659487	-0.453299	0.771879
H352	H	1.909487	-0.203299	1.021879
O353	O	0.926837	-0.694966	0.504013
O354	O	1.176837	-0.444966	0.754013
O355	O	1.426837	-0.194966	1.004013
O356	O	1.676837	0.055034	1.254013
H357	H	0.889064	-0.670126	0.470731
H358	H	1.139064	-0.420126	0.720731
H359	H	1.389064	-0.170126	0.970731
H360	H	1.639064	0.079874	1.220731
H361	H	0.939438	-0.801234	0.491487
H362	H	1.189438	-0.551234	0.741487
H363	H	1.439438	-0.301234	0.991487
H364	H	1.689438	-0.051234	1.241487
H365	H	0.526989	-0.275415	0.232800
H366	H	0.776989	-0.025415	0.482800
H367	H	1.026989	0.224585	0.732800
H368	H	1.276989	0.474585	0.982800
H369	H	0.527126	-0.163963	0.391599
H370	H	0.777126	0.086037	0.641599
H371	H	1.027126	0.336037	0.891599
H372	H	1.277126	0.586037	1.141599
O373	O	0.974254	-0.557284	0.456524
O374	O	1.224254	-0.307284	0.706524
O375	O	1.474254	-0.057284	0.956524
O376	O	1.724254	0.192716	1.206524
H377	H	0.936501	-0.582197	0.423251
H378	H	1.186501	-0.332197	0.673251
H379	H	1.436501	-0.082197	0.923251
H380	H	1.686501	0.167803	1.173251
O381	O	1.111574	-0.352984	0.911742
O382	O	1.361574	-0.102984	1.161742
O383	O	1.611574	0.147016	1.411742
O384	O	1.861574	0.397016	1.661742
H385	H	1.070276	-0.381911	0.891974
H386	H	1.320276	-0.131911	1.141974
H387	H	1.570276	0.118089	1.391974
H388	H	1.820276	0.368089	1.641974
O389	O	0.929597	-0.224749	0.911701
O390	O	1.179597	0.025251	1.161701
O391	O	1.429597	0.275251	1.411701
O392	O	1.679597	0.525251	1.661701
H393	H	0.888484	-0.253800	0.891915
H394	H	1.138484	-0.003800	1.141915
H395	H	1.388484	0.246200	1.391915
H396	H	1.638484	0.496200	1.641915
H397	H	1.159288	-0.550003	0.271822
H398	H	1.409288	-0.300003	0.521822
H399	H	1.659288	-0.050003	0.771822
H400	H	1.909288	0.199997	1.021822
O401	O	0.627079	-0.224991	0.501574
O402	O	0.877079	0.025009	0.751574
O403	O	1.127079	0.275009	1.001574
O404	O	1.377079	0.525009	1.251574
H405	H	0.579707	-0.217511	0.539292
H406	H	0.829707	0.032489	0.789292
H407	H	1.079707	0.282489	1.039292
H408	H	1.329707	0.532489	1.289292
O409	O	1.171781	-0.443728	0.259266
O410	O	1.421781	-0.193728	0.509266
O411	O	1.671781	0.056272	0.759266
O412	O	1.921781	0.306272	1.009266
H413	H	1.204848	-0.471879	0.226288
H414	H	1.454848	-0.221879	0.476288
H415	H	1.704848	0.028121	0.726288
H416	H	1.954848	0.278121	0.976288
O417	O	1.219452	-0.694892	0.211867
O418	O	1.469452	-0.444892	0.461867
O419	O	1.719452	-0.194892	0.711867
O420	O	1.969452	0.055108	0.961867
H421	H	1.252515	-0.723047	0.178893
H422	H	1.502515	-0.473047	0.428893
H423	H	1.752515	-0.223047	0.678893
H424	H	2.002515	0.026953	0.928893
O425	O	1.219498	-0.808377	0.211874
O426	O	1.469498	-0.558377	0.461874
O427	O	1.719498	-0.308377	0.711874
O428	O	1.969498	-0.058377	0.961874
H429	H	1.252520	-0.780202	0.178879
H430	H	1.502520	-0.530202	0.428879
H431	H	1.752520	-0.280202	0.678879
H432	H	2.002520	-0.030202	0.928879
H433	H	0.986769	-0.451001	0.443964
H434	H	1.236769	-0.201001	0.693964
H435	H	1.486769	0.048999	0.943964
H436	H	1.736769	0.298999	1.193964
H437	H	1.159534	-1.052365	0.271902
H438	H	1.409534	-0.802365	0.521902
H439	H	1.659534	-0.552365	0.771902
H440	H	1.909534	-0.302365	1.021902
H441	H	0.987072	-1.052404	0.444056
H442	H	1.237072	-0.802404	0.694056
H443	H	1.487072	-0.552404	0.944056
H444	H	1.737072	-0.302404	1.194056
H445	H	0.981596	-0.316347	0.811910
H446	H	1.231596	-0.066347	1.061910
H447	H	1.481596	0.183653	1.311910
H448	H	1.731596	0.433653	1.561910
O449	O	0.974453	-0.946138	0.456577
O450	O	1.224453	-0.696138	0.706577
O451	O	1.474453	-0.446138	0.956577
O452	O	1.724453	-0.196138	1.206577
H453	H	0.941414	-0.974311	0.489559
H454	H	1.191414	-0.724311	0.739559
H455	H	1.441414	-0.474311	0.989559
H456	H	1.691414	-0.224311	1.239559
H457	H	1.198261	-0.275538	0.812006
H458	H	1.448261	-0.025538	1.062006
H459	H	1.698261	0.224462	1.312006
H460	H	1.948261	0.474462	1.562006
