data_functionalizedCrystal
_audit_creation_method	'MofGen! by Chris Wilmer'
_symmetry_space_group_name_H-M	'P1'
_symmetry_Int_Tables_number	1
_symmetry_cell_setting	triclinic
loop_
_symmetry_equiv_pos_as_xyz
  x,y,z
_cell_length_a	23.532355
_cell_length_b	23.532407
_cell_length_c	22.010155
_cell_angle_alpha	89.995744
_cell_angle_beta	89.997414
_cell_angle_gamma	82.838123
loop_
_atom_site_label
_atom_site_type_symbol
_atom_site_fract_x
_atom_site_fract_y
_atom_site_fract_z
O1	O	0.755283	0.068986	-0.050454
O2	O	0.589415	0.079020	-0.050474
O3	O	0.677351	-0.008929	-0.050446
O4	O	0.667347	0.156936	-0.050482
O5	O	0.677335	-0.008916	0.050604
O6	O	0.589399	0.079033	0.050576
O7	O	0.755267	0.068999	0.050597
Cu8	Cu	0.672332	0.074018	0.059813
Cu9	Cu	0.672351	0.074002	-0.059691
O10	O	0.667331	0.156949	0.050569
C11	C	0.568191	0.078776	0.000048
C12	C	0.504972	0.078022	0.000041
C13	C	0.112950	0.073291	0.055150
C14	C	0.053550	0.072574	0.055153
O15	O	0.022824	0.072189	0.101998
N16	N	0.023850	0.072211	0.000070
C17	C	0.053554	0.072559	-0.055018
O18	O	0.022838	0.072184	-0.101870
C19	C	0.112953	0.073273	-0.055020
C20	C	0.142649	0.073641	0.000066
C21	C	0.142646	0.073659	0.110231
C22	C	0.202041	0.074378	0.110229
C23	C	0.231740	0.074728	0.055145
C24	C	0.202044	0.074360	0.000063
C25	C	0.142656	0.073617	-0.110108
C26	C	0.202059	0.074330	-0.110105
C27	C	0.231755	0.074699	-0.055019
C28	C	0.291138	0.075429	-0.055024
N29	N	0.320838	0.075792	0.000059
C30	C	0.291139	0.075441	0.055143
C31	C	-0.071188	0.071060	-0.055010
C32	C	-0.130586	0.070351	-0.055009
C33	C	-0.130585	0.070364	0.055162
C34	C	-0.071187	0.071078	0.055160
C35	C	-0.041488	0.071423	0.000072
C36	C	0.415873	0.076951	0.055133
C37	C	0.475273	0.077672	0.055125
C38	C	0.475268	0.077655	-0.055045
C39	C	0.415872	0.076938	-0.055038
C40	C	0.386177	0.076583	0.000056
O41	O	0.321902	0.075811	-0.101845
O42	O	0.321863	0.075809	0.101986
C43	C	0.677088	-0.030139	0.000082
C44	C	0.676322	-0.093356	0.000091
C45	C	0.621125	-0.359513	0.000046
C46	C	0.621837	-0.300113	0.000051
O47	O	0.578050	-0.263360	0.000026
N48	N	0.674114	-0.277496	0.000064
C49	C	0.725684	-0.314283	0.000067
O50	O	0.770216	-0.289592	0.000079
C51	C	0.724972	-0.373682	0.000058
C52	C	0.672691	-0.396295	0.000051
C53	C	0.568849	-0.382126	0.000038
C54	C	0.568137	-0.441522	0.000034
C55	C	0.619703	-0.478305	0.000039
C56	C	0.671980	-0.455691	0.000047
C57	C	0.776541	-0.410468	0.000056
C58	C	0.775824	-0.469871	0.000047
C59	C	0.723543	-0.492484	0.000039
C60	C	0.722834	-0.551870	0.000048
N61	N	0.670556	-0.574486	0.000034
C62	C	0.618991	-0.537704	0.000030
C63	C	0.727175	-0.189541	0.000085
C64	C	0.727888	-0.130143	0.000099
C65	C	0.624041	-0.115977	0.000081
C66	C	0.623329	-0.175376	0.000072
C67	C	0.674898	-0.212158	0.000072
C68	C	0.617501	-0.662440	0.000023
C69	C	0.616795	-0.721842	0.000022
C70	C	0.720642	-0.736004	0.000036
C71	C	0.721349	-0.676607	0.000040
C72	C	0.669774	-0.639826	0.000031
O73	O	0.766598	-0.588657	0.000070
O74	O	0.574467	-0.562403	0.000010
C75	C	0.776492	0.069244	0.000073
C76	C	0.839710	0.069998	0.000076
C77	C	0.667594	0.178158	0.000039
C78	C	0.668360	0.241375	0.000026
N79	N	0.672323	0.074028	0.143866
N80	N	0.672364	0.073987	-0.143743
C81	C	0.711291	0.035063	0.563657
C82	C	0.711293	0.035059	0.627265
O83	O	0.744402	0.001938	0.660167
N84	N	0.672350	0.073990	0.659073
C85	C	0.633398	0.112923	0.627269
O86	O	0.600274	0.146036	0.660165
C87	C	0.633393	0.112924	0.563663
C88	C	0.672343	0.073995	0.531859
C89	C	0.750236	-0.003863	0.531853
C90	C	0.750234	-0.003858	0.468250
C91	C	0.711286	0.035073	0.436451
C92	C	0.672341	0.074000	0.468255
C93	C	0.594439	0.151854	0.531861
C94	C	0.594437	0.151851	0.468250
C95	C	0.633387	0.112922	0.436446
C96	C	0.633391	0.112936	0.372853
N97	N	0.672334	0.074005	0.341046
C98	C	0.711282	0.035074	0.372844
C99	C	0.633411	0.112918	0.760847
C100	C	0.633418	0.112921	0.824452
C101	C	0.711313	0.035056	0.824444
C102	C	0.711308	0.035057	0.760837
C103	C	0.672354	0.073988	0.729040
C104	C	0.711275	0.035087	0.239273
C105	C	0.711271	0.035097	0.175664
C106	C	0.633374	0.112959	0.175679
C107	C	0.633380	0.112952	0.239282
C108	C	0.672332	0.074011	0.271078
O109	O	0.600297	0.146039	0.339911
O110	O	0.744395	0.001961	0.339941
H111	H	0.118471	0.073373	0.155090
Br112	Br	0.803100	-0.056706	0.574998
Br113	Br	0.102369	0.073117	-0.184872
Br114	Br	0.498857	-0.332217	0.000029
Br115	Br	0.541566	0.204687	0.425101
Br116	Br	0.545837	-0.752527	0.000015
Br117	Br	0.541577	0.204689	0.575011
Br118	Br	0.375568	0.076449	-0.129798
H119	H	0.743023	0.003357	0.734946
H120	H	0.525565	-0.459928	0.000023
Br121	Br	0.764171	-0.017780	0.867613
Br122	Br	0.580520	0.165795	0.132513
Br123	Br	0.580566	0.165764	0.867608
Br124	Br	0.547506	-0.612533	0.000011
H125	H	0.742990	0.003396	0.149771
H126	H	0.580757	-0.193783	0.000069
Br127	Br	0.554058	-0.066046	0.000077
Br128	Br	0.845815	-0.519786	0.000042
H129	H	0.770460	-0.111738	0.000114
H130	H	0.499459	0.077943	-0.099893
Br131	Br	0.580526	0.165793	0.282443
Br132	Br	0.515571	0.078176	0.129890
Br133	Br	0.375581	0.076468	0.129904
Br134	Br	0.797169	-0.239454	0.000091
Br135	Br	0.847498	-0.379795	0.000052
H136	H	0.763920	-0.658195	0.000055
H137	H	0.762625	-0.765962	0.000042
Br138	Br	0.764139	-0.017762	0.282414
H139	H	0.781949	-0.035559	0.442358
Br140	Br	0.242361	0.074796	-0.184871
H141	H	0.601691	0.144625	0.734961
H142	H	0.226215	0.074674	0.155085
Br143	Br	-0.030889	0.071535	-0.129779
H144	H	-0.047012	0.071378	0.100016
H145	H	-0.154777	0.070078	0.100015
H146	H	-0.154761	0.070060	-0.099865
