data_functionalizedCrystal
_audit_creation_method	'MofGen! by Chris Wilmer'
_symmetry_space_group_name_H-M	'P1'
_symmetry_Int_Tables_number	1
_symmetry_cell_setting	triclinic
loop_
_symmetry_equiv_pos_as_xyz
  x,y,z
_cell_length_a	16.625539
_cell_length_b	13.897449
_cell_length_c	13.897448
_cell_angle_alpha	90.018972
_cell_angle_beta	90.027549
_cell_angle_gamma	90.019431
loop_
_atom_site_label
_atom_site_type_symbol
_atom_site_fract_x
_atom_site_fract_y
_atom_site_fract_z
Zn1	Zn	-0.455889	-1.474690	0.383980
Zn2	Zn	-0.122556	-1.141357	0.717314
Zn3	Zn	0.210778	-0.808024	1.050647
Zn4	Zn	-0.321058	-1.474588	0.545293
Zn5	Zn	0.012275	-1.141255	0.878627
Zn6	Zn	0.345609	-0.807921	1.211960
Zn7	Zn	-0.321072	-1.313383	0.384018
Zn8	Zn	0.012261	-0.980050	0.717351
Zn9	Zn	0.345594	-0.646716	1.050684
Zn10	Zn	-0.455851	-1.313361	0.545239
Zn11	Zn	-0.122517	-0.980028	0.878572
Zn12	Zn	0.210816	-0.646694	1.211905
O13	O	-0.388468	-1.394006	0.464632
O14	O	-0.055134	-1.060672	0.797966
O15	O	0.278199	-0.727339	1.131299
O16	O	-0.438014	-1.609658	0.405386
O17	O	-0.104680	-1.276325	0.738719
O18	O	0.228653	-0.942992	1.072053
O19	O	-0.208228	-1.453170	0.523938
O20	O	0.125106	-1.119837	0.857272
O21	O	0.458439	-0.786503	1.190605
O22	O	-0.338978	-1.334833	0.249031
O23	O	-0.005645	-1.001499	0.582364
O24	O	0.327689	-0.668166	0.915698
O25	O	-0.338954	-1.609583	0.523902
O26	O	-0.005621	-1.276250	0.857235
O27	O	0.327713	-0.942916	1.190569
O28	O	-0.438027	-1.453344	0.249004
O29	O	-0.104694	-1.120011	0.582337
O30	O	0.228639	-0.786678	0.915670
O31	O	-0.208238	-1.334734	0.405450
O32	O	0.125095	-1.001400	0.738783
O33	O	0.458429	-0.668067	1.072116
O34	O	-0.338941	-1.178398	0.405397
O35	O	-0.005607	-0.845065	0.738730
O36	O	0.327726	-0.511732	1.072063
O37	O	-0.568688	-1.334795	0.523809
O38	O	-0.235355	-1.001462	0.857142
O39	O	0.097978	-0.668129	1.190475
O40	O	-0.437962	-1.178382	0.523845
O41	O	-0.104629	-0.845049	0.857178
O42	O	0.228705	-0.511716	1.190512
O43	O	-0.568716	-1.453323	0.405333
O44	O	-0.235383	-1.119990	0.738666
O45	O	0.097950	-0.786657	1.072000
O46	O	-0.338917	-1.453149	0.680268
O47	O	-0.005583	-1.119815	1.013601
O48	O	0.327750	-0.786482	1.346934
O49	O	-0.437948	-1.334696	0.680227
O50	O	-0.104615	-1.001363	1.013561
O51	O	0.228719	-0.668029	1.346894
C52	C	-0.388449	-1.143391	0.464620
C53	C	-0.055116	-0.810058	0.797953
C54	C	0.278217	-0.476725	1.131286
C55	C	-0.388460	-1.036177	0.464637
C56	C	-0.055127	-0.702844	0.797971
C57	C	0.278206	-0.369511	1.131304
C58	C	-0.388444	-1.393935	0.715247
C59	C	-0.055111	-1.060602	1.048580
C60	C	0.278222	-0.727268	1.381913
C61	C	-0.388461	-1.393993	0.822461
C62	C	-0.055128	-1.060660	1.155794
C63	C	0.278205	-0.727327	1.489127
C64	C	-0.598777	-1.394068	0.464561
C65	C	-0.265443	-1.060735	0.797894
C66	C	0.067890	-0.727402	1.131227
C67	C	-0.688398	-1.394095	0.464530
C68	C	-0.355064	-1.060762	0.797863
C69	C	-0.021731	-0.727428	1.131197
C70	C	-1.016574	-1.394139	0.464422
C71	C	-0.683240	-1.060806	0.797755
C72	C	-0.349907	-0.727473	1.131089
C73	C	-0.925265	-1.394124	0.464455
C74	C	-0.591932	-1.060791	0.797788
C75	C	-0.258598	-0.727458	1.131122
C76	C	-0.852489	-1.394118	0.464477
C77	C	-0.519155	-1.060784	0.797810
C78	C	-0.185822	-0.727451	1.131143
C79	C	-0.761174	-1.394102	0.464508
C80	C	-0.427841	-1.060768	0.797842
C81	C	-0.094508	-0.727435	1.131175
C82	C	-0.178977	-1.393999	0.464634
C83	C	0.154357	-1.060665	0.797968
C84	C	0.487690	-0.727332	1.131301
C85	C	-0.089356	-1.394159	0.464393
C86	C	0.243977	-1.060825	0.797727
C87	C	0.577311	-0.727492	1.131060
C88	C	-0.388486	-1.645598	0.464646
C89	C	-0.055153	-1.312265	0.797979
C90	C	0.278180	-0.978932	1.131313
C91	C	-0.388495	-1.752812	0.464652
C92	C	-0.055161	-1.419479	0.797985
C93	C	0.278172	-1.086146	1.131319
C94	C	-0.388482	-0.839882	0.464641
C95	C	-0.055148	-0.506549	0.797974
C96	C	0.278185	-0.173215	1.131307
C97	C	-0.388468	-0.949115	0.464636
C98	C	-0.055134	-0.615781	0.797969
C99	C	0.278199	-0.282448	1.131303
C100	C	-0.388509	-1.394102	0.213039
C101	C	-0.055175	-1.060769	0.546373
C102	C	0.278158	-0.727436	0.879706
C103	C	-0.388526	-1.394144	0.105825
C104	C	-0.055193	-1.060810	0.439159
C105	C	0.278141	-0.727477	0.772492
C106	C	-0.388512	-1.394095	1.018756
C107	C	-0.055178	-1.060761	1.352089
C108	C	0.278155	-0.727428	1.685422
C109	C	-0.388486	-1.394036	0.909523
C110	C	-0.055153	-1.060702	1.242857
C111	C	0.278181	-0.727369	1.576190
