data_functionalizedCrystal
_audit_creation_method	'MofGen! by Chris Wilmer'
_symmetry_space_group_name_H-M	'P1'
_symmetry_Int_Tables_number	1
_symmetry_cell_setting	triclinic
loop_
_symmetry_equiv_pos_as_xyz
  x,y,z
_cell_length_a	6.394989
_cell_length_b	16.109302
_cell_length_c	14.586319
_cell_angle_alpha	89.994552
_cell_angle_beta	90.000822
_cell_angle_gamma	95.020254
loop_
_atom_site_label
_atom_site_type_symbol
_atom_site_fract_x
_atom_site_fract_y
_atom_site_fract_z
O1	O	-0.268487	1.105973	-0.076276
O2	O	-0.301898	0.864264	-0.076268
O3	O	0.018874	0.988549	-0.076272
O4	O	-0.589259	0.981688	-0.076271
O5	O	0.018879	0.988540	0.076208
O6	O	-0.301893	0.864255	0.076213
O7	O	-0.268483	1.105964	0.076205
Cu8	Cu	-0.285187	0.985109	0.090132
Cu9	Cu	-0.285193	0.985119	-0.090194
O10	O	-0.589254	0.981679	0.076210
C11	C	-0.300542	0.833271	-0.000026
C12	C	-0.296483	0.740932	-0.000024
N13	N	-0.285182	0.985107	0.216964
C14	C	-0.287097	0.528487	0.083085
C15	C	-0.283261	0.441727	0.083081
C16	C	-0.283277	0.441747	-0.083162
C17	C	-0.287098	0.528507	-0.083157
C18	C	-0.289018	0.571874	-0.000032
C19	C	-0.281362	0.398354	-0.000039
C20	C	-0.277203	0.304284	-0.000043
C21	C	-0.293173	0.665950	-0.000027
C22	C	0.096697	0.987188	-0.000035
C23	C	0.332929	0.983042	-0.000036
C24	C	-0.269839	1.136957	-0.000038
C25	C	-0.273897	1.229296	-0.000047
N26	N	-0.285182	0.985127	-0.217026
C27	C	-0.143192	1.040160	0.451968
C28	C	-0.143187	1.040162	0.547949
C29	C	-0.427179	0.930069	0.547963
C30	C	-0.427172	0.930063	0.451983
C31	C	-0.285181	0.985113	0.403988
C32	C	-0.285183	0.985121	0.595949
C33	C	-0.285178	0.985123	0.700016
C34	C	-0.285182	0.985110	0.299915
H35	H	-0.281697	0.406405	0.150763
H36	H	-0.288661	0.563795	0.150771
O37	O	-0.281517	0.399485	-0.163824
C38	C	-0.275526	0.265841	-0.237508
C39	C	-0.277556	0.313595	-0.146092
H40	H	-0.272278	0.196393	-0.223204
H41	H	-0.422403	0.276764	-0.278506
H42	H	-0.130229	0.289031	-0.278500
H43	H	-0.422755	0.290435	-0.105026
H44	H	-0.130582	0.302672	-0.105164
O45	O	-0.289055	0.570526	-0.163984
C46	C	-0.288540	0.561403	-0.328875
C47	C	-0.286379	0.513711	-0.237412
H48	H	-0.286332	0.515491	-0.388266
H49	H	-0.436449	0.595920	-0.333088
H50	H	-0.144272	0.608122	-0.332978
H51	H	-0.430545	0.466951	-0.233248
H52	H	-0.138375	0.479250	-0.233238
H53	H	-0.027572	1.084984	0.412893
O54	O	-0.005184	1.093716	0.594414
C55	C	0.276575	1.202881	0.584265
C56	C	0.120358	1.142288	0.531531
H57	H	0.378146	1.242155	0.533447
H58	H	0.186472	1.245415	0.629169
H59	H	0.380859	1.165883	0.629231
H60	H	0.016035	1.179218	0.486515
H61	H	0.210592	1.099753	0.486685
H62	H	-0.542787	0.885249	0.587050
O63	O	-0.565313	0.876558	0.405512
C64	C	-0.846909	0.767325	0.415646
C65	C	-0.690629	0.827887	0.468389
H66	H	-0.948238	0.727947	0.466459
H67	H	-0.951419	0.804268	0.370725
H68	H	-0.756645	0.724886	0.370696
H69	H	-0.780722	0.870341	0.513388
H70	H	-0.586120	0.790893	0.513251
