data_functionalizedCrystal
_audit_creation_method	'MofGen! by Chris Wilmer'
_symmetry_space_group_name_H-M	'P1'
_symmetry_Int_Tables_number	1
_symmetry_cell_setting	triclinic
loop_
_symmetry_equiv_pos_as_xyz
  x,y,z
_cell_length_a	6.817900
_cell_length_b	16.301575
_cell_length_c	16.255699
_cell_angle_alpha	95.171585
_cell_angle_beta	103.489404
_cell_angle_gamma	104.148797
loop_
_atom_site_label
_atom_site_type_symbol
_atom_site_fract_x
_atom_site_fract_y
_atom_site_fract_z
V1	V	4.034194	0.264158	0.117783
O2	O	4.021526	0.258841	-0.004947
O3	O	3.985698	0.262629	0.232859
O4	O	3.989018	0.379240	0.116285
O5	O	4.018184	0.141423	0.112434
V6	V	4.517417	0.249444	0.103066
O7	O	4.296111	0.296434	0.150066
O8	O	4.705697	0.217168	0.070784
O9	O	4.342706	0.250973	-0.012009
O10	O	4.647481	0.254762	0.225796
O11	O	4.650824	0.372180	0.108415
O12	O	4.339387	0.134363	0.104565
C13	C	3.834805	0.407281	0.112199
C14	C	3.879151	0.501363	0.111735
C15	C	4.176551	0.733193	0.115009
C16	C	4.071216	0.776110	0.042380
C17	C	3.960245	0.673609	0.110861
C18	C	4.144549	0.798320	0.182611
C19	C	4.038594	0.839991	0.110021
C20	C	3.854295	0.715277	0.038181
C21	C	3.927686	0.737493	0.178476
C22	C	3.822191	0.780378	0.105827
C23	C	3.915115	0.577760	0.111344
C24	C	4.083705	0.935836	0.109532
C25	C	3.830572	0.258534	0.260902
C26	C	3.872229	0.258051	0.354979
C27	C	4.161175	0.255066	-0.040047
C28	C	4.098756	0.255555	-0.134124
C29	C	4.163939	1.106319	0.108662
C30	C	4.119685	1.012242	0.109148
C31	C	3.782653	0.252518	0.577791
C32	C	3.864376	0.184319	0.625231
C33	C	3.948605	0.257208	0.527231
C34	C	3.941133	0.324555	0.647422
C35	C	4.022370	0.256397	0.693618
C36	C	4.029749	0.188957	0.573422
C37	C	4.106511	0.329255	0.595618
C38	C	4.188353	0.261043	0.643033
C39	C	3.906106	0.257674	0.431379
C40	C	4.064880	0.255925	0.789468
H41	H	3.731236	0.679339	-0.022914
O42	O	3.729372	0.103139	0.643038
H43	H	3.831247	0.066866	0.677978
O44	O	4.241496	0.410434	0.577811
H45	H	4.345049	0.393950	0.539269
H46	H	4.325843	0.712312	0.118805
H47	H	4.066760	0.131592	0.541305
H48	H	3.866666	0.720224	0.236028
H49	H	4.360288	0.264625	0.671375
O50	O	3.624121	0.807827	0.100652
H51	H	3.504432	0.774065	0.040672
H52	H	4.267713	0.834353	0.243642
H53	H	4.132301	0.793364	-0.015166
O54	O	3.554920	0.247654	0.540033
H55	H	3.454465	0.187416	0.551508
O56	O	3.892028	0.400460	0.690081
H57	H	3.723986	0.396748	0.663782
