data_functionalizedCrystal
_audit_creation_method	'MofGen! by Chris Wilmer'
_symmetry_space_group_name_H-M	'P1'
_symmetry_Int_Tables_number	1
_symmetry_cell_setting	triclinic
loop_
_symmetry_equiv_pos_as_xyz
  x,y,z
_cell_length_a	16.776229
_cell_length_b	16.109301
_cell_length_c	16.109301
_cell_angle_alpha	96.538519
_cell_angle_beta	90.008821
_cell_angle_gamma	90.001518
loop_
_atom_site_label
_atom_site_type_symbol
_atom_site_fract_x
_atom_site_fract_y
_atom_site_fract_z
O1	O	0.066240	-1.103127	0.106871
O2	O	0.566240	-0.603127	0.606871
O3	O	0.066253	-0.861066	0.120170
O4	O	0.566253	-0.361066	0.620170
O5	O	0.066238	-0.988746	-0.007511
O6	O	0.566238	-0.488746	0.492489
O7	O	0.066255	-0.975447	0.234551
O8	O	0.566255	-0.475447	0.734551
O9	O	-0.066338	-0.988744	-0.007522
O10	O	0.433662	-0.488744	0.492478
O11	O	-0.066323	-0.861063	0.120159
O12	O	0.433677	-0.361063	0.620159
O13	O	-0.066336	-1.103125	0.106859
O14	O	0.433664	-0.603125	0.606859
Zn15	Zn	-0.087379	-0.982094	0.113507
Zn16	Zn	0.412621	-0.482094	0.613507
Zn17	Zn	0.087296	-0.982097	0.113522
Zn18	Zn	0.587296	-0.482097	0.613522
O19	O	-0.066321	-0.975445	0.234540
O20	O	0.433679	-0.475445	0.734540
C21	C	-0.000033	-0.830090	0.119626
C22	C	0.499967	-0.330090	0.619626
C23	C	-0.000029	-0.737794	0.118011
C24	C	0.499971	-0.237794	0.618011
N25	N	-0.206590	-0.982098	0.113497
N26	N	0.293410	-0.482098	0.613497
N27	N	0.206507	-0.982099	0.113526
N28	N	0.706507	-0.482099	0.613526
C29	C	0.248218	-1.038741	0.057101
C30	C	0.748218	-0.538741	0.557101
C31	C	0.331670	-1.038745	0.057099
C32	C	0.831670	-0.538745	0.557099
C33	C	0.373410	-0.982101	0.113519
C34	C	0.873410	-0.482101	0.613519
C35	C	0.331694	-0.925456	0.169950
C36	C	0.831694	-0.425456	0.669950
C37	C	0.248243	-0.925458	0.169956
C38	C	0.748243	-0.425458	0.669956
C39	C	0.668241	-0.925450	0.169930
C40	C	1.168241	-0.425450	0.669930
C41	C	0.751698	-0.925451	0.169919
C42	C	1.251698	-0.425451	0.669919
C43	C	0.751668	-1.038737	0.057073
C44	C	1.251668	-0.538737	0.557073
C45	C	0.668217	-1.038738	0.057079
C46	C	1.168217	-0.538738	0.557079
C47	C	0.626508	-0.982097	0.113513
C48	C	1.126508	-0.482097	0.613513
C49	C	0.536020	-0.982095	0.113515
C50	C	1.036020	-0.482095	0.613515
C51	C	0.463897	-0.982098	0.113513
C52	C	0.963897	-0.482098	0.613513
C53	C	-0.000050	-0.988206	-0.038491
C54	C	0.499950	-0.488206	0.461509
C55	C	-0.000051	-0.986591	-0.130786
C56	C	0.499949	-0.486591	0.369214
C57	C	-0.000048	-1.134101	0.107404
C58	C	0.499952	-0.634101	0.607404
C59	C	-0.000047	-1.226397	0.109019
C60	C	0.499953	-0.726397	0.609019
C61	C	-0.000033	-0.515522	0.190018
C62	C	0.499967	-0.015522	0.690018
C63	C	-0.000038	-0.428801	0.188494
C64	C	0.499962	0.071199	0.688494
C65	C	-0.000045	-0.448676	0.037006
C66	C	0.499955	0.051324	0.537006
C67	C	-0.000046	-0.535394	0.038530
C68	C	0.499954	-0.035394	0.538530
C69	C	-0.000036	-0.568815	0.115039
C70	C	0.499964	-0.068815	0.615039
C71	C	-0.000040	-0.395376	0.111990
C72	C	0.499960	0.104624	0.611990
C73	C	-0.000046	-0.301350	0.110337
C74	C	0.499954	0.198650	0.610337
C75	C	-0.000031	-0.662847	0.116693
C76	C	0.499969	-0.162847	0.616693
C77	C	-0.000043	-1.058599	-0.353059
C78	C	0.499957	-0.558599	0.146941
C79	C	-0.000036	-1.057075	-0.439779
C80	C	0.499964	-0.557075	0.060221
C81	C	-0.000031	-0.905586	-0.419905
C82	C	0.499969	-0.405586	0.080095
C83	C	-0.000032	-0.907111	-0.333186
C84	C	0.499968	-0.407111	0.166814
C85	C	-0.000042	-0.983620	-0.299766
C86	C	0.499958	-0.483620	0.200234
C87	C	-0.000034	-0.980571	-0.473205
C88	C	0.499966	-0.480571	0.026795
C89	C	-0.000027	-0.978918	-0.567231
C90	C	0.499973	-0.478918	-0.067231
C91	C	-0.000047	-0.985273	-0.205734
C92	C	0.499953	-0.485273	0.294266
C93	C	-0.000031	-0.975984	0.265521
C94	C	0.499969	-0.475984	0.765521
C95	C	-0.000025	-0.977600	0.357816
C96	C	0.499975	-0.477600	0.857816
H97	H	0.214239	-1.084864	0.011154
H98	H	0.714239	-0.584864	0.511154
C99	C	-0.000036	-0.821431	-0.456676
C100	C	0.499964	-0.321431	0.043324
N101	N	-0.000045	-0.758043	-0.484371
N102	N	0.499955	-0.258043	0.015629
H103	H	-0.000049	-1.120897	-0.325851
H104	H	0.499951	-0.620897	0.174149
C105	C	0.797555	-1.101043	-0.005008
C106	C	1.297555	-0.601043	0.494992
N107	N	0.832116	-1.147968	-0.051769
N108	N	1.332116	-0.647968	0.448231
C109	C	-0.000027	-0.824624	-0.274560
C110	C	0.499973	-0.324624	0.225440
N111	N	-0.000020	-0.762497	-0.230402
N112	N	0.499980	-0.262497	0.269598
C113	C	0.377548	-1.101052	-0.004978
C114	C	0.877548	-0.601052	0.495022
N115	N	0.412102	-1.147983	-0.051738
N116	N	0.912102	-0.647983	0.448262
C117	C	0.202362	-0.863145	0.232027
C118	C	0.702362	-0.363145	0.732027
N119	N	0.167806	-0.816211	0.278782
N120	N	0.667806	-0.316211	0.778782
C121	C	0.622308	-1.101042	-0.004997
C122	C	1.122308	-0.601042	0.495003
N123	N	0.587730	-1.147970	-0.051754
N124	N	1.087730	-0.647970	0.448246
H125	H	-0.000038	-0.385413	0.249550
H126	H	0.499962	0.114587	0.749550
H127	H	0.785681	-0.879324	0.215866
H128	H	1.285681	-0.379324	0.715866
H129	H	0.634288	-0.879329	0.215880
H130	H	1.134288	-0.379329	0.715880
H131	H	-0.000030	-0.542730	0.252317
H132	H	0.499970	-0.042730	0.752317
H133	H	-0.000059	-0.421454	-0.025285
H134	H	0.499941	0.078546	0.474715
C135	C	-0.000044	-1.139558	-0.498398
C136	C	0.499956	-0.639558	0.001602
N137	N	-0.000052	-1.201688	-0.542550
N138	N	0.499948	-0.701688	-0.042550
C139	C	-0.000049	-0.594021	-0.043957
C140	C	0.499951	-0.094021	0.456043
N141	N	-0.000053	-0.638178	-0.106083
N142	N	0.499947	-0.138178	0.393917
C143	C	0.377611	-0.863147	0.232013
C144	C	0.877611	-0.363147	0.732013
N145	N	0.412195	-0.816212	0.278758
N146	N	0.912195	-0.316212	0.778758
