data_functionalizedCrystal
_audit_creation_method	'MofGen! by Chris Wilmer'
_symmetry_space_group_name_H-M	'P1'
_symmetry_Int_Tables_number	1
_symmetry_cell_setting	triclinic
loop_
_symmetry_equiv_pos_as_xyz
  x,y,z
_cell_length_a	16.959455
_cell_length_b	16.625545
_cell_length_c	16.625539
_cell_angle_alpha	89.976096
_cell_angle_beta	90.016328
_cell_angle_gamma	89.973622
loop_
_atom_site_label
_atom_site_type_symbol
_atom_site_fract_x
_atom_site_fract_y
_atom_site_fract_z
Zn1	Zn	1.208359	0.321027	0.455908
Zn2	Zn	1.541692	0.654361	0.789241
Zn3	Zn	1.875025	0.987694	1.122575
Zn4	Zn	1.208262	0.455866	0.321081
Zn5	Zn	1.541595	0.789199	0.654414
Zn6	Zn	1.874928	1.122533	0.987748
Zn7	Zn	1.076183	0.321050	0.321090
Zn8	Zn	1.409517	0.654383	0.654423
Zn9	Zn	1.742850	0.987716	0.987757
Zn10	Zn	1.076136	0.455820	0.455873
Zn11	Zn	1.409469	0.789154	0.789206
Zn12	Zn	1.742803	1.122487	1.122539
O13	O	1.142235	0.388441	0.388488
O14	O	1.475568	0.721774	0.721821
O15	O	1.808902	1.055108	1.055155
O16	O	1.318957	0.338924	0.438034
O17	O	1.652290	0.672257	0.771367
O18	O	1.985623	1.005590	1.104700
O19	O	1.190720	0.438011	0.208250
O20	O	1.524054	0.771344	0.541583
O21	O	1.857387	1.104678	0.874916
O22	O	1.093777	0.208214	0.338993
O23	O	1.427111	0.541548	0.672326
O24	O	1.760444	0.874881	1.005659
O25	O	1.318885	0.437989	0.338977
O26	O	1.652219	0.771323	0.672310
O27	O	1.985552	1.104656	1.005644
O28	O	1.190886	0.208198	0.438043
O29	O	1.524219	0.541531	0.771376
O30	O	1.857553	0.874865	1.104709
O31	O	1.093683	0.338962	0.208256
O32	O	1.427016	0.672295	0.541590
O33	O	1.760350	1.005629	0.874923
O34	O	0.965566	0.338918	0.338958
O35	O	1.298900	0.672251	0.672292
O36	O	1.632233	1.005584	1.005625
O37	O	1.093696	0.437911	0.568710
O38	O	1.427030	0.771245	0.902043
O39	O	1.760363	1.104578	1.235376
O40	O	0.965531	0.437933	0.437982
O41	O	1.298865	0.771266	0.771316
O42	O	1.632198	1.104600	1.104649
O43	O	1.190840	0.338879	0.568736
O44	O	1.524173	0.672213	0.902069
O45	O	1.857507	1.005546	1.235402
O46	O	1.190674	0.568692	0.338943
O47	O	1.524008	0.902026	0.672276
O48	O	1.857341	1.235359	1.005610
O49	O	1.093602	0.568659	0.437974
O50	O	1.426936	0.901992	0.771307
O51	O	1.760269	1.235325	1.104640
C52	C	0.936869	0.388423	0.388468
C53	C	1.270202	0.721757	0.721801
C54	C	1.603535	1.055090	1.055135
C55	C	0.849012	0.388435	0.388479
C56	C	1.182345	0.721769	0.721812
C57	C	1.515679	1.055102	1.055145
C58	C	0.807699	0.439941	0.336831
C59	C	1.141032	0.773274	0.670164
C60	C	1.474366	1.106607	1.003498
C61	C	0.807771	0.336936	0.440133
C62	C	1.141105	0.670270	0.773466
C63	C	1.474438	1.003603	1.106799
C64	C	0.725226	0.336943	0.440142
C65	C	1.058559	0.670276	0.773476
C66	C	1.391892	1.003609	1.106809
C67	C	0.683913	0.388448	0.388495
C68	C	1.017246	0.721781	0.721828
C69	C	1.350579	1.055115	1.055161
C70	C	0.725146	0.439947	0.336837
C71	C	1.058479	0.773280	0.670171
C72	C	1.391812	1.106614	1.003504
C73	C	0.683987	0.285439	0.491793
C74	C	1.017320	0.618772	0.825126
C75	C	1.350653	0.952105	1.158460
C76	C	0.601436	0.285442	0.491804
C77	C	0.934769	0.618776	0.825137
C78	C	1.268102	0.952109	1.158471
C79	C	0.560121	0.336953	0.440160
C80	C	0.893454	0.670286	0.773493
C81	C	1.226788	1.003619	1.106826
C82	C	0.601359	0.388454	0.388501
C83	C	0.934692	0.721788	0.721834
C84	C	1.268026	1.055121	1.055168
C85	C	0.560046	0.439960	0.336853
C86	C	0.893379	0.773293	0.670187
C87	C	1.226713	1.106626	1.003520
C88	C	0.601283	0.491466	0.285198
C89	C	0.934616	0.824799	0.618531
C90	C	1.267949	1.158133	0.951865
C91	C	0.683831	0.491457	0.285193
C92	C	1.017164	0.824790	0.618527
C93	C	1.350498	1.158124	0.951860
C94	C	0.477573	0.336961	0.440165
C95	C	0.810906	0.670295	0.773498
C96	C	1.144239	1.003628	1.106831
C97	C	0.477493	0.439966	0.336860
C98	C	0.810826	0.773299	0.670193
C99	C	1.144159	1.106632	1.003526
C100	C	1.142144	0.597932	0.388471
C101	C	1.475477	0.931265	0.721804
C102	C	1.808811	1.264598	1.055138
C103	C	1.142177	0.687553	0.388491
C104	C	1.475511	1.020886	0.721824
C105	C	1.808844	1.354220	1.055158
C106	C	1.142206	0.760335	0.388510
C107	C	1.475540	1.093669	0.721843
C108	C	1.808873	1.427002	1.055177
C109	C	1.142250	0.851644	0.388531
C110	C	1.475584	1.184977	0.721865
C111	C	1.808917	1.518310	1.055198
C112	C	1.142290	0.924420	0.388545
C113	C	1.475623	1.257753	0.721878
C114	C	1.808956	1.591087	1.055211
C115	C	1.142333	1.015734	0.388565
C116	C	1.475666	1.349068	0.721898
C117	C	1.808999	1.682401	1.055232
C118	C	1.348403	0.388459	0.388508
C119	C	1.681736	0.721792	0.721842
C120	C	2.015070	1.055126	1.055175
C121	C	1.436260	0.388467	0.388517
C122	C	1.769593	0.721800	0.721850
C123	C	2.102926	1.055133	1.055184
C124	C	1.142274	0.388388	0.598797
C125	C	1.475607	0.721721	0.932130
C126	C	1.808940	1.055054	1.265464
C127	C	1.142290	0.388365	0.688418
C128	C	1.475624	0.721698	1.021751
C129	C	1.808957	1.055032	1.355085
C130	C	1.142342	1.178132	0.388533
C131	C	1.475675	1.511465	0.721866
C132	C	1.809008	1.844799	1.055199
C133	C	1.142372	1.088511	0.388578
C134	C	1.475705	1.421844	0.721911
C135	C	1.809039	1.755177	1.055245
C136	C	1.142242	0.388436	0.178997
C137	C	1.475575	0.721769	0.512330
C138	C	1.808908	1.055102	0.845664
C139	C	1.142378	0.388231	0.089376
C140	C	1.475712	0.721565	0.422710
C141	C	1.809045	1.054898	0.756043
C142	C	1.142303	0.388347	0.761201
C143	C	1.475636	0.721681	1.094534
C144	C	1.808970	1.055014	1.427867
C145	C	1.142322	0.388317	0.852509
C146	C	1.475655	0.721650	1.185842
C147	C	1.808988	1.054984	1.519176
C148	C	1.142340	0.388289	0.925286
C149	C	1.475673	0.721622	1.258619
C150	C	1.809007	1.054955	1.591952
C151	C	1.142360	0.388260	1.016600
C152	C	1.475693	0.721593	1.349933
C153	C	1.809027	1.054926	1.683267
H154	H	0.443861	0.481912	0.294805
H155	H	0.777195	0.815245	0.628138
H156	H	1.110528	1.148578	0.961471
H157	H	0.567635	0.533398	0.243144
H158	H	0.900968	0.866732	0.576477
H159	H	1.234301	1.200065	0.909810
C160	C	0.432216	0.280308	0.496981
C161	C	0.765550	0.613641	0.830315
C162	C	1.098883	0.946974	1.163648
N163	N	0.398055	0.237635	0.539781
N164	N	0.731388	0.570968	0.873114
N165	N	1.064722	0.904301	1.206447
H166	H	0.717413	0.533389	0.243136
H167	H	1.050746	0.866722	0.576470
H168	H	1.384080	1.200055	0.909803
H169	H	0.841277	0.481878	0.294777
H170	H	1.174611	0.815211	0.628110
H171	H	1.507944	1.148545	0.961444
H172	H	0.841413	0.294999	0.482178
H173	H	1.174747	0.628333	0.815511
H174	H	1.508080	0.961666	1.148845
H175	H	0.567868	0.243504	0.533866
H176	H	0.901201	0.576837	0.867199
H177	H	1.234535	0.910171	1.200533
H178	H	0.717630	0.243503	0.533838
H179	H	1.050963	0.576836	0.867172
H180	H	1.384296	0.910170	1.200505
