data_functionalizedCrystal
_audit_creation_method	'MofGen! by Chris Wilmer'
_symmetry_space_group_name_H-M	'P1'
_symmetry_Int_Tables_number	1
_symmetry_cell_setting	triclinic
loop_
_symmetry_equiv_pos_as_xyz
  x,y,z
_cell_length_a	17.038272
_cell_length_b	15.500215
_cell_length_c	17.699083
_cell_angle_alpha	93.188936
_cell_angle_beta	87.197286
_cell_angle_gamma	92.981713
loop_
_atom_site_label
_atom_site_type_symbol
_atom_site_fract_x
_atom_site_fract_y
_atom_site_fract_z
O1	O	1.040330	0.071839	0.167677
O2	O	1.373664	0.405173	0.501010
O3	O	1.706997	0.738506	0.834344
O4	O	0.812705	0.071865	0.165069
O5	O	1.146038	0.405198	0.498402
O6	O	1.479372	0.738531	0.831735
O7	O	0.932948	0.071844	0.056609
O8	O	1.266282	0.405177	0.389942
O9	O	1.599615	0.738510	0.723275
O10	O	0.920087	0.071860	0.276137
O11	O	1.253420	0.405194	0.609470
O12	O	1.586754	0.738527	0.942803
O13	O	0.926466	-0.072045	0.049912
O14	O	1.259799	0.261288	0.383245
O15	O	1.593133	0.594621	0.716578
O16	O	0.806223	-0.072024	0.158371
O17	O	1.139556	0.261309	0.491705
O18	O	1.472889	0.594643	0.825038
O19	O	1.033848	-0.072050	0.160980
O20	O	1.367181	0.261284	0.494313
O21	O	1.700515	0.594617	0.827646
Cu22	Cu	0.919444	-0.085175	0.159064
Cu23	Cu	1.252777	0.248158	0.492397
Cu24	Cu	1.586110	0.581492	0.825731
Cu25	Cu	0.927110	0.084990	0.166984
Cu26	Cu	1.260443	0.418324	0.500318
Cu27	Cu	1.593776	0.751657	0.833651
O28	O	0.913605	-0.072028	0.269440
O29	O	1.246938	0.261305	0.602773
O30	O	1.580272	0.594638	0.936106
C31	C	0.780340	-0.000076	0.159347
C32	C	1.113673	0.333257	0.492680
C33	C	1.447006	0.666590	0.826014
C34	C	0.693559	-0.000067	0.152266
C35	C	1.026892	0.333266	0.485600
C36	C	1.360225	0.666600	0.818933
N37	N	0.914058	-0.204860	0.153493
N38	N	1.247391	0.128473	0.486827
N39	N	1.580724	0.461806	0.820160
C40	C	0.643339	-0.000063	0.217277
C41	C	0.976672	0.333271	0.550610
C42	C	1.310006	0.666604	0.883944
C43	C	0.561799	-0.000075	0.210619
C44	C	0.895132	0.333258	0.543952
C45	C	1.228465	0.666591	0.877285
C46	C	0.530480	-0.000086	0.138949
C47	C	0.863813	0.333248	0.472283
C48	C	1.197147	0.666581	0.805616
C49	C	0.580706	-0.000093	0.073934
C50	C	0.914040	0.333241	0.407267
C51	C	1.247373	0.666574	0.740601
C52	C	0.662245	-0.000086	0.080593
C53	C	0.995578	0.333247	0.413926
C54	C	1.328911	0.666580	0.747259
C55	C	0.284759	-0.000111	0.115425
C56	C	0.618093	0.333223	0.448759
C57	C	0.951426	0.666556	0.782092
C58	C	0.203215	-0.000114	0.108772
C59	C	0.536548	0.333219	0.442105
C60	C	0.869881	0.666552	0.775438
C61	C	0.184312	-0.000099	0.245457
C62	C	0.517646	0.333235	0.578790
C63	C	0.850979	0.666568	0.912124
C64	C	0.265854	-0.000087	0.252110
C65	C	0.599187	0.333246	0.585443
C66	C	0.932520	0.666580	0.918776
C67	C	0.316072	-0.000099	0.187094
C68	C	0.649406	0.333235	0.520427
C69	C	0.982739	0.666568	0.853761
C70	C	0.447133	-0.000096	0.132142
C71	C	0.780466	0.333238	0.465475
C72	C	1.113800	0.666571	0.798809
C73	C	0.399417	-0.000095	0.193902
C74	C	0.732751	0.333239	0.527235
C75	C	1.066084	0.666572	0.860568
C76	C	0.959344	-0.250135	0.200366
C77	C	1.292677	0.083198	0.533700
C78	C	1.626011	0.416532	0.867033
C79	C	0.955281	-0.340708	0.196149
C80	C	1.288614	-0.007375	0.529483
C81	C	1.621948	0.325959	0.862816
C82	C	0.905927	-0.386005	0.145062
C83	C	1.239260	-0.052671	0.478396
C84	C	1.572593	0.280662	0.811729
C85	C	0.860639	-0.340723	0.098184
C86	C	1.193972	-0.007390	0.431518
C87	C	1.527305	0.325943	0.764851
C88	C	0.864706	-0.250152	0.102398
C89	C	1.198040	0.083181	0.435731
C90	C	1.531373	0.416515	0.769065
C91	C	0.891281	-0.659472	0.129885
C92	C	1.224615	-0.326139	0.463219
C93	C	1.557948	0.007195	0.796552
C94	C	0.887215	-0.750050	0.125676
C95	C	1.220549	-0.416716	0.459010
C96	C	1.553882	-0.083383	0.792343
C97	C	0.981859	-0.750028	0.223641
C98	C	1.315193	-0.416695	0.556974
C99	C	1.648526	-0.083361	0.890308
C100	C	0.985919	-0.659455	0.227853
C101	C	1.319252	-0.326122	0.561187
C102	C	1.652586	0.007212	0.894520
C103	C	0.940634	-0.614182	0.180973
C104	C	1.273967	-0.280848	0.514306
C105	C	1.607301	0.052485	0.847639
C106	C	0.901771	-0.478585	0.140752
C107	C	1.235104	-0.145251	0.474085
C108	C	1.568437	0.188082	0.807419
C109	C	0.944795	-0.521603	0.185279
C110	C	1.278128	-0.188270	0.518613
C111	C	1.611461	0.145063	0.851946
C112	C	1.066214	-0.000106	0.166702
C113	C	1.399547	0.333227	0.500035
C114	C	1.732880	0.666560	0.833368
C115	C	1.152995	-0.000110	0.173782
C116	C	1.486328	0.333223	0.507116
C117	C	1.819661	0.666557	0.840449
C118	C	0.929246	-0.000101	0.025033
C119	C	1.262580	0.333233	0.358366
C120	C	1.595913	0.666566	0.691699
C121	C	0.927864	-0.000101	-0.059077
C122	C	1.261197	0.333232	0.274256
C123	C	1.594530	0.666566	0.607590
N124	N	0.932502	0.204675	0.172549
N125	N	1.265835	0.538009	0.505883
N126	N	1.599169	0.871342	0.839216
C127	C	0.998444	-0.000110	-0.103028
C128	C	1.331777	0.333223	0.230305
C129	C	1.665111	0.666557	0.563639
C130	C	0.997141	-0.000102	-0.182057
C131	C	1.330474	0.333231	0.151276
C132	C	1.663807	0.666564	0.484609
C133	C	0.925256	-0.000092	-0.217134
C134	C	1.258589	0.333242	0.116199
C135	C	1.591922	0.666575	0.449532
C136	C	0.854670	-0.000080	-0.173177
C137	C	1.188003	0.333253	0.160156
C138	C	1.521337	0.666587	0.493490
C139	C	0.855975	-0.000081	-0.094149
C140	C	1.189308	0.333252	0.239184
C141	C	1.522641	0.666585	0.572518
C142	C	0.849407	-0.000072	-0.491888
C143	C	1.182741	0.333261	-0.158555
C144	C	1.516074	0.666594	0.174779
C145	C	0.848108	-0.000073	-0.570922
C146	C	1.181442	0.333260	-0.237589
C147	C	1.514775	0.666593	0.095745
C148	C	0.990574	-0.000093	-0.579796
C149	C	1.323907	0.333240	-0.246463
C150	C	1.657240	0.666574	0.086870
C151	C	0.991878	-0.000095	-0.500768
C152	C	1.325212	0.333239	-0.167435
C153	C	1.658545	0.666572	0.165898
C154	C	0.921293	-0.000078	-0.456818
C155	C	1.254626	0.333255	-0.123485
C156	C	1.587960	0.666588	0.209849
C157	C	0.922707	-0.000085	-0.371125
C158	C	1.256041	0.333248	-0.037792
C159	C	1.589374	0.666581	0.295541
C160	C	0.923840	-0.000091	-0.302825
C161	C	1.257174	0.333242	0.030508
C162	C	1.590507	0.666576	0.363841
C163	C	0.917307	-0.000082	0.301016
C164	C	1.250640	0.333251	0.634349
C165	C	1.583974	0.666585	0.967682
C166	C	0.918690	-0.000076	0.385126
C167	C	1.252023	0.333257	0.718459
C168	C	1.585356	0.666591	1.051792
H169	H	0.668831	-0.000054	0.275638
H170	H	1.002165	0.333280	0.608971
H171	H	1.335498	0.666613	0.942304
Cl172	Cl	0.760672	-0.000050	-0.436646
Cl173	Cl	1.094005	0.333284	-0.103313
Cl174	Cl	1.427338	0.666617	0.230020
H175	H	0.789567	-0.000066	-0.599479
H176	H	1.122901	0.333267	-0.266146
H177	H	1.456234	0.666600	0.067188
H178	H	0.827829	-0.213290	0.064229
H179	H	1.161162	0.120043	0.397562
H180	H	1.494496	0.453376	0.730896
Cl181	Cl	0.541334	-0.000111	-0.016165
Cl182	Cl	0.874667	0.333222	0.317168
Cl183	Cl	1.208001	0.666555	0.650501
Cl184	Cl	0.764300	-0.000056	-0.217273
Cl185	Cl	1.097633	0.333278	0.116060
Cl186	Cl	1.430967	0.666611	0.449393
H187	H	0.798501	-0.000074	-0.058365
H188	H	1.131834	0.333259	0.274969
H189	H	1.465167	0.666593	0.608302
H190	H	1.018728	-0.786899	0.261808
H191	H	1.352061	-0.453566	0.595141
H192	H	1.685395	-0.120233	0.928475
H193	H	0.520912	-0.000071	0.263558
H194	H	0.854246	0.333263	0.596891
H195	H	1.187579	0.666596	0.930224
H196	H	0.291347	-0.000069	0.310471
H197	H	0.624680	0.333265	0.643804
H198	H	0.958014	0.666598	0.977137
H199	H	0.854407	-0.622621	0.091711
H200	H	1.187741	-0.289288	0.425044
H201	H	1.521074	0.044045	0.758378
Cl202	Cl	0.725379	-0.000096	-0.001139
Cl203	Cl	1.058712	0.333238	0.332195
Cl204	Cl	1.392045	0.666571	0.665528
H205	H	1.048048	-0.000102	-0.615590
H206	H	1.381381	0.333231	-0.282257
H207	H	1.714714	0.666565	0.051077
H208	H	1.056981	-0.000124	-0.074475
H209	H	1.390314	0.333209	0.258858
H210	H	1.723648	0.666543	0.592192
H211	H	1.054614	-0.000112	-0.217839
H212	H	1.387948	0.333222	0.115494
H213	H	1.721281	0.666555	0.448827
H214	H	1.050414	-0.000108	-0.472213
H215	H	1.383747	0.333226	-0.138880
H216	H	1.717081	0.666559	0.194454
Cl217	Cl	0.347881	-0.000124	0.033690
Cl218	Cl	0.681214	0.333209	0.367023
Cl219	Cl	1.014548	0.666542	0.700357
Cl220	Cl	0.121176	-0.000088	0.327185
Cl221	Cl	0.454510	0.333246	0.660519
Cl222	Cl	0.787843	0.666579	0.993852
Cl223	Cl	0.438791	-0.000084	0.283997
Cl224	Cl	0.772124	0.333249	0.617330
Cl225	Cl	1.105457	0.666582	0.950664
Cl226	Cl	0.163844	-0.000147	0.018666
Cl227	Cl	0.497177	0.333186	0.351999
Cl228	Cl	0.830510	0.666520	0.685332
Cl229	Cl	1.021392	-0.193200	0.264594
Cl230	Cl	1.354725	0.140134	0.597928
Cl231	Cl	1.688058	0.473467	0.931261
Cl232	Cl	0.407754	-0.000105	0.042046
Cl233	Cl	0.741088	0.333228	0.375380
Cl234	Cl	1.074421	0.666562	0.708713
H235	H	0.847021	-0.786928	0.084075
H236	H	1.180354	-0.453594	0.417409
H237	H	1.513688	-0.120261	0.750742
Cl238	Cl	1.012214	-0.397621	0.255080
Cl239	Cl	1.345547	-0.064288	0.588413
Cl240	Cl	1.678881	0.269045	0.921747
H241	H	0.820457	-0.377611	0.056584
H242	H	1.153791	-0.044278	0.389918
H243	H	1.487124	0.289056	0.723251
H244	H	1.026111	-0.622581	0.269452
H245	H	1.359444	-0.289247	0.602785
H246	H	1.692777	0.044086	0.936118
H247	H	0.984982	-0.484719	0.226872
H248	H	1.318315	-0.151386	0.560205
H249	H	1.651648	0.181948	0.893538
Cl250	Cl	0.839721	-0.535536	0.076536
Cl251	Cl	1.173054	-0.202203	0.409869
Cl252	Cl	1.506387	0.131130	0.743203
