data_functionalizedCrystal
_audit_creation_method	'MofGen! by Chris Wilmer'
_symmetry_space_group_name_H-M	'P1'
_symmetry_Int_Tables_number	1
_symmetry_cell_setting	triclinic
loop_
_symmetry_equiv_pos_as_xyz
  x,y,z
_cell_length_a	14.044191
_cell_length_b	10.489763
_cell_length_c	12.503572
_cell_angle_alpha	86.445212
_cell_angle_beta	86.162165
_cell_angle_gamma	91.129931
loop_
_atom_site_label
_atom_site_type_symbol
_atom_site_fract_x
_atom_site_fract_y
_atom_site_fract_z
O1	O	1.265245	-0.301026	-0.089289
O2	O	1.598579	0.032308	0.244044
O3	O	1.931912	0.365641	0.577377
O4	O	0.989200	-0.289910	-0.089302
O5	O	1.322533	0.043423	0.244031
O6	O	1.655867	0.376756	0.577364
O7	O	1.133492	-0.110510	-0.089275
O8	O	1.466825	0.222824	0.244058
O9	O	1.800158	0.556157	0.577391
O10	O	1.120954	-0.480426	-0.089316
O11	O	1.454287	-0.147093	0.244017
O12	O	1.787620	0.186240	0.577351
O13	O	1.122640	-0.124026	0.089365
O14	O	1.455974	0.209307	0.422698
O15	O	1.789307	0.542641	0.756031
O16	O	0.978349	-0.303427	0.089338
O17	O	1.311682	0.029907	0.422671
O18	O	1.645015	0.363240	0.756004
O19	O	1.254394	-0.314542	0.089351
O20	O	1.587727	0.018791	0.422684
O21	O	1.921061	0.352125	0.756017
Cu22	Cu	1.115380	-0.310219	0.105655
Cu23	Cu	1.448714	0.023115	0.438989
Cu24	Cu	1.782047	0.356448	0.772322
Cu25	Cu	1.128214	-0.294234	-0.105607
Cu26	Cu	1.461547	0.039099	0.227726
Cu27	Cu	1.794880	0.372433	0.561060
O28	O	1.110102	-0.493943	0.089324
O29	O	1.443436	-0.160609	0.422657
O30	O	1.776769	0.172724	0.755990
C31	C	0.948426	-0.291806	0.000016
C32	C	1.281760	0.041527	0.333350
C33	C	1.615093	0.374860	0.666683
C34	C	0.843101	-0.277303	0.000012
C35	C	1.176434	0.056031	0.333346
C36	C	1.509768	0.389364	0.666679
C37	C	0.593340	-0.353648	0.000015
C38	C	0.926673	-0.020315	0.333348
C39	C	1.260007	0.313018	0.666681
C40	C	0.650260	-0.250809	0.000024
C41	C	0.983594	0.082524	0.333358
C42	C	1.316927	0.415857	0.666691
C43	C	0.757567	-0.265554	0.000018
C44	C	1.090900	0.067780	0.333351
C45	C	1.424233	0.401113	0.666684
C46	C	0.486024	-0.338906	0.000021
C47	C	0.819357	-0.005572	0.333355
C48	C	1.152690	0.327761	0.666688
C49	C	1.127114	-0.069640	0.000047
C50	C	1.460447	0.263693	0.333381
C51	C	1.793781	0.597026	0.666714
C52	C	1.124266	0.072276	0.000056
C53	C	1.457600	0.405609	0.333389
C54	C	1.790933	0.738943	0.666723
C55	C	1.032446	0.149732	0.000049
C56	C	1.365779	0.483065	0.333383
C57	C	1.699112	0.816399	0.666716
C58	C	1.070463	0.230789	0.088137
C59	C	1.403796	0.564122	0.421470
C60	C	1.737130	0.897455	0.754803
C61	C	1.081183	0.244087	-0.087988
C62	C	1.414517	0.577420	0.245345
C63	C	1.747850	0.910754	0.578678
C64	C	1.162317	0.151458	0.088216
C65	C	1.495650	0.484791	0.421549
C66	C	1.828984	0.818125	0.754882
C67	C	1.173029	0.164754	-0.087988
C68	C	1.506363	0.498088	0.245345
C69	C	1.839696	0.831421	0.578678
C70	C	1.211112	0.245775	0.000121
C71	C	1.544445	0.579108	0.333454
C72	C	1.877779	0.912442	0.666787
C73	C	1.295168	-0.312646	0.000030
C74	C	1.628501	0.020687	0.333363
C75	C	1.961834	0.354021	0.666696
C76	C	1.400494	-0.327149	0.000027
C77	C	1.733827	0.006184	0.333360
C78	C	2.067160	0.339518	0.666693
N79	N	1.106361	-0.321461	0.254246
N80	N	1.439695	0.011872	0.587579
N81	N	1.773028	0.345205	0.920913
C82	C	1.116464	0.465186	0.000017
C83	C	1.449797	0.798519	0.333351
C84	C	1.783130	1.131852	0.666684
C85	C	1.119264	0.323263	0.000057
C86	C	1.452597	0.656596	0.333390
C87	C	1.785930	0.989930	0.666724
N88	N	1.137240	-0.282982	-0.254198
N89	N	1.470573	0.050352	0.079136
N90	N	1.803907	0.383685	0.412469
C91	C	1.093094	-0.338011	0.473359
C92	C	1.426427	-0.004677	0.806692
C93	C	1.759760	0.328656	1.140025
C94	C	1.150505	-0.266436	0.526697
C95	C	1.483838	0.066897	0.860030
C96	C	1.817171	0.400230	1.193363
C97	C	1.143122	-0.275645	0.648618
C98	C	1.476456	0.057689	0.981952
C99	C	1.809789	0.391022	1.315285
C100	C	1.100475	-0.328804	0.351426
C101	C	1.433808	0.004529	0.684759
C102	C	1.767141	0.337863	1.018093
H103	H	0.618406	-0.151687	-0.000040
H104	H	0.951740	0.181647	0.333293
H105	H	1.285073	0.514980	0.666626
H106	H	0.625197	-0.452757	0.000001
H107	H	0.958530	-0.119424	0.333334
H108	H	1.291864	0.213910	0.666667
H109	H	0.956952	0.107734	0.000131
H110	H	1.290286	0.441067	0.333464
H111	H	1.623619	0.774401	0.666798
H112	H	1.046844	0.284628	-0.162458
H113	H	1.380177	0.617962	0.170875
H114	H	1.713510	0.951295	0.504208
H115	H	1.038403	-0.406199	0.519256
H116	H	1.371736	-0.072866	0.852589
H117	H	1.705069	0.260467	1.185923
H118	H	1.286665	0.287529	0.000176
H119	H	1.619998	0.620862	0.333510
H120	H	1.953332	0.954195	0.666843
C121	C	1.011865	0.270404	0.188733
C122	C	1.345198	0.603738	0.522066
C123	C	1.678532	0.937071	0.855399
N124	N	0.967723	0.300240	0.264497
N125	N	1.301056	0.633573	0.597831
N126	N	1.634390	0.966907	0.931164
H127	H	1.196607	0.111047	0.162762
H128	H	1.529940	0.444381	0.496096
H129	H	1.863273	0.777714	0.829429
C130	C	1.231582	0.125100	-0.188593
C131	C	1.564916	0.458434	0.144740
C132	C	1.898249	0.791767	0.478073
N133	N	1.275678	0.095231	-0.264378
N134	N	1.609012	0.428564	0.068955
N135	N	1.942345	0.761897	0.402289
H136	H	1.205200	-0.198245	0.480794
H137	H	1.538534	0.135088	0.814127
H138	H	1.871867	0.468422	1.147460
