data_functionalizedCrystal
_audit_creation_method	'MofGen! by Chris Wilmer'
_symmetry_space_group_name_H-M	'P1'
_symmetry_Int_Tables_number	1
_symmetry_cell_setting	triclinic
loop_
_symmetry_equiv_pos_as_xyz
  x,y,z
_cell_length_a	17.640112
_cell_length_b	16.120484
_cell_length_c	17.640968
_cell_angle_alpha	82.192558
_cell_angle_beta	92.139080
_cell_angle_gamma	103.499326
loop_
_atom_site_label
_atom_site_type_symbol
_atom_site_fract_x
_atom_site_fract_y
_atom_site_fract_z
Zn1	Zn	1.246898	-0.023860	-0.196404
Zn2	Zn	1.746898	0.476140	0.303596
Zn3	Zn	1.214806	-0.195187	-0.078925
Zn4	Zn	1.714806	0.304813	0.421075
Zn5	Zn	1.092236	-0.077878	-0.098046
Zn6	Zn	1.592236	0.422122	0.401954
Zn7	Zn	1.113950	-0.184256	-0.230901
Zn8	Zn	1.613950	0.315744	0.269099
O9	O	1.166972	-0.120295	-0.151069
O10	O	1.666972	0.379705	0.348931
O11	O	1.349575	-0.028555	-0.158380
O12	O	1.849575	0.471445	0.341620
O13	O	1.176029	-0.206807	0.023304
O14	O	1.676029	0.293193	0.523304
O15	O	1.117096	0.045508	-0.104658
O16	O	1.617096	0.545508	0.395342
O17	O	1.325997	-0.154428	-0.072070
O18	O	1.825997	0.345572	0.427930
O19	O	1.230725	0.085195	-0.176921
O20	O	1.730725	0.585195	0.323079
O21	O	1.085978	-0.120621	0.009256
O22	O	1.585978	0.379379	0.509256
O23	O	0.988182	-0.110021	-0.138109
O24	O	1.488182	0.389979	0.361891
O25	O	1.154104	-0.135798	-0.331090
O26	O	1.654104	0.364202	0.168910
O27	O	1.004135	-0.188177	-0.235717
O28	O	1.504135	0.311823	0.264283
O29	O	1.251780	-0.017955	-0.305745
O30	O	1.751780	0.482045	0.194255
O31	O	1.197083	-0.309958	-0.105520
O32	O	1.697083	0.190042	0.394480
O33	O	1.122985	-0.301927	-0.217176
O34	O	1.622985	0.198073	0.282824
C35	C	0.968432	-0.153775	-0.192732
C36	C	1.468432	0.346225	0.307268
C37	C	0.883498	-0.168113	-0.210574
C38	C	1.383498	0.331887	0.289426
C39	C	0.562620	-0.011353	-0.015528
C40	C	1.062620	0.488647	0.484472
C41	C	0.482814	-0.024840	-0.032305
C42	C	0.982814	0.475160	0.467695
C43	C	0.499439	-0.106413	-0.133786
C44	C	0.999439	0.393587	0.366214
C45	C	0.579249	-0.092929	-0.117021
C46	C	1.079249	0.407071	0.382979
C47	C	0.610833	-0.045399	-0.057890
C48	C	1.110833	0.454601	0.442110
C49	C	0.627462	-0.126975	-0.159383
C50	C	1.127462	0.373025	0.340617
C51	C	0.707264	-0.113496	-0.142616
C52	C	1.207264	0.386504	0.357384
C53	C	0.738854	-0.065971	-0.083486
C54	C	1.238854	0.434029	0.416514
C55	C	0.690635	-0.031920	-0.041123
C56	C	1.190635	0.468080	0.458877
C57	C	0.595875	-0.174510	-0.218510
C58	C	1.095875	0.325490	0.281490
C59	C	0.644088	-0.208556	-0.260872
C60	C	1.144088	0.291444	0.239128
C61	C	0.723893	-0.195072	-0.244108
C62	C	1.223893	0.304928	0.255892
C63	C	0.755483	-0.147546	-0.184979
C64	C	1.255483	0.352454	0.315021
C65	C	0.772112	-0.229122	-0.286472
C66	C	1.272112	0.270878	0.213528
C67	C	0.851914	-0.215643	-0.269705
C68	C	1.351914	0.284357	0.230295
C69	C	0.835285	-0.134067	-0.168212
C70	C	1.335285	0.365933	0.331788
C71	C	1.158932	-0.336069	-0.163028
C72	C	1.658932	0.163931	0.336972
C73	C	1.155568	-0.428360	-0.168155
C74	C	1.655568	0.071640	0.331845
C75	C	1.149433	-0.597332	-0.177530
C76	C	1.649433	-0.097332	0.322470
C77	C	1.184651	-0.642392	-0.124592
C78	C	1.684651	-0.142392	0.375408
C79	C	1.181238	-0.736414	-0.129808
C80	C	1.681238	-0.236414	0.370192
C81	C	1.152846	-0.503302	-0.172315
C82	C	1.652846	-0.003302	0.327685
C83	C	1.366289	-0.086685	-0.109244
C84	C	1.866289	0.413315	0.390756
C85	C	1.451225	-0.072363	-0.091421
C86	C	1.951225	0.427637	0.408579
C87	C	1.208944	-0.069632	-0.346341
C88	C	1.708944	0.430368	0.153659
C89	C	1.226829	-0.048042	-0.429555
C90	C	1.726829	0.451958	0.070445
C91	C	1.175068	0.096329	-0.139075
C92	C	1.675068	0.596329	0.360925
C93	C	1.178518	0.188641	-0.133963
C94	C	1.678518	0.688641	0.366037
C95	C	1.031408	-0.283809	-0.769207
C96	C	1.531408	0.216191	-0.269207
C97	C	1.048230	-0.263509	-0.847394
C98	C	1.548230	0.236491	-0.347394
C99	C	1.149932	-0.140810	-0.820995
C100	C	1.649932	0.359190	-0.320995
C101	C	1.133115	-0.161098	-0.742803
C102	C	1.633115	0.338902	-0.242803
C103	C	1.073853	-0.232599	-0.716916
C104	C	1.573853	0.267401	-0.216916
C105	C	1.175560	-0.109887	-0.690513
C106	C	1.675560	0.390113	-0.190513
C107	C	1.158747	-0.130176	-0.612328
C108	C	1.658747	0.369824	-0.112328
C109	C	1.099489	-0.201675	-0.586434
C110	C	1.599489	0.298325	-0.086434
C111	C	1.057040	-0.252888	-0.638731
C112	C	1.557040	0.247112	-0.138731
C113	C	1.234826	-0.038390	-0.716401
C114	C	1.734826	0.461610	-0.216401
C115	C	1.277271	0.012820	-0.664110
C116	C	1.777271	0.512820	-0.164110
C117	C	1.260455	-0.007464	-0.585924
C118	C	1.760455	0.492536	-0.085924
C119	C	1.201197	-0.078964	-0.560030
C120	C	1.701197	0.421036	-0.060030
C121	C	1.302904	0.043748	-0.533627
C122	C	1.802904	0.543748	-0.033627
C123	C	1.286092	0.023459	-0.455442
C124	C	1.786092	0.523459	0.044558
C125	C	1.184384	-0.099252	-0.481846
C126	C	1.684384	0.400748	0.018154
C127	C	1.125211	-0.170694	0.043456
C128	C	1.625211	0.329306	0.543456
C129	C	1.107482	-0.192025	0.126714
C130	C	1.607482	0.307975	0.626714
H131	H	0.588340	0.027365	0.032612
H132	H	1.088340	0.527365	0.532612
H133	H	0.716355	0.006798	0.007017
H134	H	1.216355	0.506798	0.507017
H135	H	1.325525	0.071035	-0.685199
H136	H	1.825525	0.571035	-0.185199
O137	O	0.430809	0.011889	0.013384
O138	O	0.930809	0.511889	0.513384
H139	H	0.466183	0.047208	0.057312
H140	H	0.966183	0.547208	0.557312
H141	H	1.116721	-0.629366	-0.226764
H142	H	1.616721	-0.129366	0.273236
H143	H	0.803834	-0.054999	-0.069834
H144	H	1.303834	0.445001	0.430166
O145	O	0.609993	-0.259839	-0.324625
O146	O	1.109993	0.240161	0.175375
H147	H	0.620105	-0.325766	-0.312061
H148	H	1.120105	0.174234	0.187939
O149	O	1.120460	-0.176370	-0.453921
O150	O	1.620460	0.323630	0.046079
H151	H	1.075313	-0.154989	-0.424408
H152	H	1.575313	0.345011	0.075592
O153	O	1.252956	-0.016503	-0.800730
O154	O	1.752956	0.483497	-0.300730
H155	H	1.314394	-0.018230	-0.810180
H156	H	1.814394	0.481770	-0.310180
H157	H	0.891171	-0.243366	-0.304201
H158	H	1.391171	0.256634	0.195799
O159	O	1.331864	0.078692	-0.399035
O160	O	1.831864	0.578692	0.100965
H161	H	1.375891	0.131825	-0.430172
H162	H	1.875891	0.631825	0.069828
H163	H	1.217365	-0.610356	-0.075352
H164	H	1.717365	-0.110356	0.424648
H165	H	1.085804	-0.218196	-0.522770
H166	H	1.585804	0.281804	-0.022770
H167	H	0.473711	-0.145114	-0.181929
H168	H	0.973711	0.354886	0.318071
O169	O	0.509803	-0.189076	-0.236607
O170	O	1.009803	0.310924	0.263393
H171	H	0.494339	-0.126081	-0.252801
H172	H	0.994339	0.373919	0.247199
H173	H	1.008765	-0.311094	-0.617656
H174	H	1.508765	0.188906	-0.117656
O175	O	0.967486	-0.360926	-0.741274
O176	O	1.467486	0.139074	-0.241274
H177	H	0.940793	-0.393132	-0.790770
H178	H	1.440793	0.106868	-0.290770
H179	H	0.746382	-0.267828	-0.334611
H180	H	1.246382	0.232172	0.165389
H181	H	1.013662	-0.305217	-0.889969
H182	H	1.513662	0.194783	-0.389969
H183	H	1.198185	-0.082596	-0.842083
H184	H	1.698185	0.417404	-0.342083
O185	O	1.366806	0.120879	-0.561553
O186	O	1.866806	0.620879	-0.061553
H187	H	1.371359	0.126389	-0.624706
H188	H	1.871359	0.626389	-0.124706
H189	H	0.861005	-0.095349	-0.120072
H190	H	1.361005	0.404651	0.379928
