data_functionalizedCrystal
_audit_creation_method	'MofGen! by Chris Wilmer'
_symmetry_space_group_name_H-M	'P1'
_symmetry_Int_Tables_number	1
_symmetry_cell_setting	triclinic
loop_
_symmetry_equiv_pos_as_xyz
  x,y,z
_cell_length_a	18.215407
_cell_length_b	18.215405
_cell_length_c	18.215399
_cell_angle_alpha	89.969030
_cell_angle_beta	89.980650
_cell_angle_gamma	90.025333
loop_
_atom_site_label
_atom_site_type_symbol
_atom_site_fract_x
_atom_site_fract_y
_atom_site_fract_z
Zn1	Zn	1.125068	-0.292980	-0.416103
Zn2	Zn	1.124978	-0.416052	-0.293031
Zn3	Zn	1.002002	-0.293005	-0.293050
Zn4	Zn	1.001967	-0.416010	-0.416056
O5	O	1.063504	-0.354512	-0.354560
O6	O	1.228041	-0.309313	-0.399788
O7	O	1.108642	-0.399758	-0.190049
O8	O	1.018380	-0.190017	-0.309401
O9	O	1.227974	-0.399733	-0.309368
O10	O	1.108796	-0.189999	-0.399807
O11	O	1.018292	-0.309355	-0.190063
O12	O	0.899013	-0.309315	-0.309355
O13	O	1.018320	-0.399662	-0.519046
O14	O	0.898987	-0.399686	-0.399727
O15	O	1.108762	-0.309272	-0.519081
O16	O	1.108608	-0.519031	-0.309322
O17	O	1.018232	-0.519000	-0.399708
C18	C	0.872298	-0.354499	-0.354539
C19	C	0.790499	-0.354512	-0.354547
C20	C	0.602311	-0.401642	-0.401544
C21	C	0.525452	-0.401644	-0.401554
C22	C	0.525449	-0.307395	-0.307591
C23	C	0.602306	-0.307390	-0.307586
C24	C	0.640735	-0.354517	-0.354562
C25	C	0.487019	-0.354525	-0.354576
C26	C	0.403685	-0.354527	-0.354585
C27	C	0.724074	-0.354514	-0.354553
C28	C	1.063426	-0.545718	-0.354524
C29	C	1.063460	-0.627517	-0.354534
C30	C	1.110629	-0.815702	-0.307556
C31	C	1.110662	-0.892561	-0.307574
C32	C	1.016473	-0.892569	-0.401616
C33	C	1.016444	-0.815712	-0.401601
C34	C	1.063521	-0.777280	-0.354567
C35	C	1.063583	-0.930997	-0.354600
C36	C	1.063618	-1.014330	-0.354619
C37	C	1.063487	-0.693942	-0.354548
C38	C	1.255457	-0.354525	-0.354581
C39	C	1.337256	-0.354531	-0.354591
C40	C	1.063547	-0.354460	-0.546513
C41	C	1.063565	-0.354437	-0.628312
C42	C	1.063602	-0.162559	-0.354611
C43	C	1.063644	-0.080760	-0.354633
C44	C	1.110686	-0.307308	-0.893389
C45	C	1.110677	-0.307328	-0.816530
C46	C	1.016505	-0.401460	-0.816483
C47	C	1.016518	-0.401444	-0.893341
C48	C	1.063607	-0.354363	-0.931791
C49	C	1.063586	-0.354400	-0.778075
C50	C	1.063576	-0.354422	-0.694742
C51	C	1.063618	-0.354342	-1.015130
C52	C	1.063503	-0.354511	-0.163353
C53	C	1.063627	-0.354326	-0.081555
H54	H	1.148964	-0.784414	-0.269260
C55	C	0.965480	-0.452698	-0.774767
C56	C	0.981500	-0.525507	-0.793427
C57	C	0.934520	-0.572730	-0.755003
H58	H	0.916009	-0.442033	-0.787318
H59	H	0.972227	-0.446016	-0.723487
H60	H	0.974746	-0.532186	-0.844695
H61	H	1.030962	-0.536195	-0.780874
H62	H	0.941268	-0.566047	-0.703723
H63	H	0.885052	-0.562058	-0.767557
H64	H	0.945388	-0.622136	-0.767653
H65	H	1.149023	-0.923841	-0.269294
C66	C	0.483683	-0.256356	-0.256498
C67	C	0.439539	-0.297970	-0.209244
C68	C	0.401063	-0.250978	-0.162160
H69	H	0.453664	-0.224315	-0.284625
H70	H	0.517553	-0.228299	-0.228473
H71	H	0.405674	-0.326014	-0.237266
H72	H	0.469540	-0.330009	-0.181100
H73	H	0.434932	-0.222922	-0.134135
H74	H	0.371048	-0.218940	-0.190293
H75	H	0.371112	-0.279207	-0.130088
H76	H	0.978143	-0.923869	-0.439908
C77	C	0.644069	-0.256132	-0.256694
C78	C	0.688212	-0.209000	-0.298448
C79	C	0.726687	-0.161767	-0.251598
H80	H	0.674089	-0.284157	-0.224564
H81	H	0.610200	-0.228026	-0.228727
H82	H	0.722078	-0.237104	-0.326403
H83	H	0.658211	-0.180959	-0.330577
H84	H	0.692818	-0.133661	-0.223631
H85	H	0.756703	-0.189798	-0.219470
H86	H	0.756638	-0.129778	-0.279921
C87	C	0.965525	-0.452632	-0.935077
C88	C	1.007190	-0.499802	-0.979173
C89	C	0.960248	-0.546975	-1.017622
H90	H	0.933461	-0.424564	-0.965126
H91	H	0.937491	-0.480713	-0.901191
H92	H	1.035212	-0.471724	-1.013055
H93	H	1.039252	-0.527886	-0.949142
H94	H	0.932213	-0.575056	-0.983737
H95	H	0.928186	-0.518901	-1.047667
H96	H	0.988510	-0.578990	-1.047541
H97	H	0.978083	-0.784427	-0.439887
H98	H	1.149014	-0.269012	-0.785265
H99	H	0.633597	-0.440015	-0.439797
H100	H	0.494170	-0.440017	-0.439813
C101	C	1.161896	-0.256171	-0.935003
C102	C	1.203137	-0.214982	-0.884917
C103	C	1.250329	-0.167874	-0.923222
H104	H	1.133847	-0.224032	-0.964993
H105	H	1.193993	-0.284301	-0.964966
H106	H	1.171044	-0.186854	-0.854967
H107	H	1.231201	-0.247101	-0.854925
H108	H	1.282426	-0.196004	-0.953185
H109	H	1.222274	-0.135740	-0.953211
H110	H	1.278321	-0.139926	-0.889245
