data_functionalizedCrystal
_audit_creation_method	'MofGen! by Chris Wilmer'
_symmetry_space_group_name_H-M	'P1'
_symmetry_Int_Tables_number	1
_symmetry_cell_setting	triclinic
loop_
_symmetry_equiv_pos_as_xyz
  x,y,z
_cell_length_a	13.897449
_cell_length_b	15.297327
_cell_length_c	15.298259
_cell_angle_alpha	88.343348
_cell_angle_beta	99.660142
_cell_angle_gamma	99.707995
loop_
_atom_site_label
_atom_site_type_symbol
_atom_site_fract_x
_atom_site_fract_y
_atom_site_fract_z
Zn1	Zn	1.323204	-0.262948	-0.555562
Zn2	Zn	1.313689	-0.434796	-0.434423
Zn3	Zn	1.184291	-0.288339	-0.409109
Zn4	Zn	1.130075	-0.409394	-0.580847
O5	O	1.237815	-0.348869	-0.494985
O6	O	1.456920	-0.285748	-0.539505
O7	O	1.315231	-0.436625	-0.308495
O8	O	1.229389	-0.162389	-0.407361
O9	O	1.449930	-0.412005	-0.450504
O10	O	1.331448	-0.143734	-0.514959
O11	O	1.220163	-0.329024	-0.289897
O12	O	1.042121	-0.304392	-0.431878
O13	O	1.136987	-0.368710	-0.700062
O14	O	1.002289	-0.393331	-0.558053
O15	O	1.278878	-0.261117	-0.681486
O16	O	1.262661	-0.554008	-0.475022
O17	O	1.127761	-0.535345	-0.582599
C18	C	1.188318	-0.576457	-0.534320
C19	C	1.167227	-0.673815	-0.551176
C20	C	0.987206	-0.348861	-0.494963
C21	C	0.879987	-0.348875	-0.494978
C22	C	1.388907	-0.986967	-0.374806
C23	C	1.408723	-0.895495	-0.358964
C24	C	1.348352	-0.840071	-0.407016
C25	C	1.268159	-0.876127	-0.470912
C26	C	1.248336	-0.967609	-0.486751
C27	C	1.207781	-0.820712	-0.518961
C28	C	1.127588	-0.856769	-0.582858
C29	C	1.107770	-0.948242	-0.598694
C30	C	1.168142	-1.003666	-0.550642
C31	C	1.227604	-0.729231	-0.503122
C32	C	1.087033	-0.709873	-0.615067
C33	C	1.067216	-0.801345	-0.630910
C34	C	0.683687	-0.348874	-0.495002
C35	C	0.792923	-0.348872	-0.494986
C36	C	1.489402	-0.348878	-0.495008
C37	C	1.596613	-0.348882	-0.495018
C38	C	1.202946	-0.309248	-0.723444
C39	C	1.188087	-0.292364	-0.820799
C40	C	1.287528	-0.120389	-0.455516
C41	C	1.308713	-0.023024	-0.438697
C42	C	1.344192	-0.468868	-1.133953
C43	C	1.358147	-0.484738	-1.042484
C44	C	1.315633	-0.436645	-0.987058
C45	C	1.259162	-0.372681	-1.023111
C46	C	1.245200	-0.356816	-1.114590
C47	C	1.216641	-0.324592	-0.967695
C48	C	1.160170	-0.260629	-1.003748
C49	C	1.146211	-0.244765	-1.095218
C50	C	1.188724	-0.292858	-1.150644
C51	C	1.230604	-0.340458	-0.876216
C52	C	1.131611	-0.228405	-0.856853
C53	C	1.117657	-0.212536	-0.948322
C54	C	1.272617	-0.388273	-0.267404
C55	C	1.287717	-0.404910	-0.170007
H56	H	1.364490	-0.765591	-0.394112
H57	H	1.152014	-1.078151	-0.563540
H58	H	1.071677	-0.160457	-0.977689
O59	O	1.495219	-0.856609	-0.290060
H60	H	1.485422	-0.886137	-0.224351
H61	H	1.037871	-0.664746	-0.654194
H62	H	1.276590	-0.392533	-0.846870
O63	O	1.390041	-0.520736	-1.193729
H64	H	1.370847	-0.498954	-1.263391
H65	H	1.404114	-0.536825	-1.013138
H66	H	1.292896	-0.699882	-0.451097
O67	O	1.454038	-1.046737	-0.323004
H68	H	1.426790	-1.116401	-0.344765
H69	H	1.100218	-0.192690	-1.124570
O70	O	1.021274	-0.987138	-0.667605
H71	H	0.982628	-0.933232	-0.698363
H72	H	1.326998	-0.449571	-0.912581
O73	O	1.173964	-0.275669	-1.249291
H74	H	1.136495	-0.337503	-1.284957
H75	H	1.001923	-0.830715	-0.682935
O76	O	1.085758	-0.176522	-0.797084
H77	H	1.104964	-0.198291	-0.727419
