data_functionalizedCrystal
_audit_creation_method	'MofGen! by Chris Wilmer'
_symmetry_space_group_name_H-M	'P1'
_symmetry_Int_Tables_number	1
_symmetry_cell_setting	triclinic
loop_
_symmetry_equiv_pos_as_xyz
  x,y,z
_cell_length_a	15.944493
_cell_length_b	17.699083
_cell_length_c	16.176319
_cell_angle_alpha	90.001389
_cell_angle_beta	89.999072
_cell_angle_gamma	96.620971
loop_
_atom_site_label
_atom_site_type_symbol
_atom_site_fract_x
_atom_site_fract_y
_atom_site_fract_z
O1	O	0.106225	-1.004240	-0.068620
O2	O	0.120045	-0.783883	-0.068646
O3	O	-0.009156	-0.900102	-0.068639
O4	O	0.235426	-0.888021	-0.068627
O5	O	-0.009164	-0.900086	0.068854
O6	O	0.120037	-0.783867	0.068848
O7	O	0.106217	-1.004224	0.068873
Cu8	Cu	0.113126	-0.894044	0.081415
Cu9	Cu	0.113136	-0.894063	-0.081187
O10	O	0.235418	-0.888005	0.068867
C11	C	0.119546	-0.755677	0.000097
C12	C	0.118060	-0.671657	0.000087
C13	C	-0.040454	-0.899600	0.000104
C14	C	-0.133699	-0.898120	0.000093
C15	C	-0.369603	-0.966529	0.000117
C16	C	-0.420089	-0.929646	-0.067678
C17	C	-0.304415	-0.895377	0.000103
C18	C	-0.420074	-0.929614	0.067879
C19	C	-0.469319	-0.892733	0.000116
C20	C	-0.353673	-0.858514	-0.067748
C21	C	-0.353654	-0.858492	0.067870
C22	C	-0.404107	-0.821557	0.000059
C23	C	-0.209418	-0.896902	0.000095
C24	C	-0.564312	-0.891202	0.000119
C25	C	0.106716	-1.032430	0.000128
C26	C	0.108202	-1.116450	0.000133
C27	C	0.266715	-0.888507	0.000122
C28	C	0.359961	-0.889987	0.000127
N29	N	0.113119	-0.894036	0.195780
C30	C	0.193898	-0.623151	0.000091
C31	C	0.192497	-0.544206	0.000102
C32	C	0.115257	-0.513767	0.000102
C33	C	0.039413	-0.562279	0.000101
C34	C	0.040815	-0.641223	0.000096
C35	C	0.033759	-0.243908	0.000121
C36	C	0.032363	-0.164958	0.000123
C37	C	0.185441	-0.146890	0.000127
C38	C	0.186843	-0.225834	0.000122
C39	C	0.110999	-0.274339	0.000125
C40	C	0.112519	-0.359940	0.000115
C41	C	0.113737	-0.428167	0.000107
N42	N	0.113136	-0.894077	-0.195552
C43	C	0.055932	-0.945514	0.239047
C44	C	0.055931	-0.945517	0.325594
C45	C	0.113122	-0.894047	0.368872
C46	C	0.170311	-0.842564	0.325599
C47	C	0.170307	-0.842557	0.239054
C48	C	0.170327	-0.842590	0.674628
C49	C	0.170328	-0.842603	0.761179
C50	C	0.055950	-0.945550	0.761168
C51	C	0.055947	-0.945543	0.674622
C52	C	0.113133	-0.894058	0.631357
C53	C	0.113132	-0.894054	0.537513
C54	C	0.113127	-0.894055	0.462715
H55	H	-0.449095	-0.959702	-0.124988
H56	H	-0.023477	-0.537490	0.000113
C57	C	0.270768	-0.258771	-0.000009
C58	C	0.316616	-0.234095	-0.070732
C59	C	0.393939	-0.264409	-0.070873
H60	H	0.260866	-0.312732	-0.000056
H61	H	0.302029	-0.242099	0.047915
H62	H	0.285361	-0.250772	-0.118644
H63	H	0.326540	-0.180138	-0.070700
H64	H	0.425200	-0.247737	-0.022949
H65	H	0.384029	-0.318369	-0.070918
H66	H	0.425059	-0.247665	-0.118854
C67	C	0.267725	-0.094136	0.000004
C68	C	0.271385	-0.048269	-0.070718
C69	C	0.347164	0.000341	-0.070857
H70	H	0.313995	-0.123476	-0.000043
H71	H	0.270368	-0.062923	0.047929
H72	H	0.268749	-0.079479	-0.118631
H73	H	0.225132	-0.018913	-0.070686
H74	H	0.349807	0.031555	-0.022932
H75	H	0.393428	-0.029005	-0.070902
H76	H	0.349654	0.031473	-0.118837
C77	C	-0.424617	-0.739790	0.000174
C78	C	-0.470998	-0.726834	0.071247
C79	C	-0.489899	-0.651519	0.071382
H80	H	-0.456940	-0.731078	-0.047493
H81	H	-0.373646	-0.706198	-0.000264
H82	H	-0.521961	-0.760416	0.071677
H83	H	-0.438690	-0.735530	0.118925
H84	H	-0.438928	-0.617927	0.070944
H85	H	-0.522220	-0.642814	0.023712
H86	H	-0.521364	-0.642717	0.119608
H87	H	-0.027998	-0.283391	0.000124
H88	H	0.009365	-0.987434	0.360822
H89	H	-0.449071	-0.959671	0.125191
H90	H	-0.324633	-0.828462	0.125182
H91	H	-0.020940	-0.680716	0.000092
C92	C	0.277823	-0.656089	-0.000039
C93	C	0.323672	-0.631413	-0.070762
C94	C	0.400994	-0.661729	-0.070902
H95	H	0.267920	-0.710050	-0.000087
H96	H	0.309084	-0.639417	0.047886
H97	H	0.292418	-0.648089	-0.118674
H98	H	0.333597	-0.577457	-0.070729
H99	H	0.432255	-0.645057	-0.022977
H100	H	0.391083	-0.715689	-0.070947
H101	H	0.432116	-0.644985	-0.118882
H102	H	0.254253	-0.504715	0.000104
H103	H	-0.030539	-0.140178	0.000125
C104	C	-0.006257	-1.001431	0.192212
C105	C	-0.056354	-1.046499	0.248633
C106	C	-0.113663	-1.098011	0.205522
H107	H	0.023815	-1.033001	0.158442
H108	H	-0.041234	-0.974229	0.158475
H109	H	-0.021381	-1.073699	0.282356
H110	H	-0.086445	-1.014950	0.282405
H111	H	-0.148640	-1.070809	0.171784
H112	H	-0.083584	-1.129575	0.171753
H113	H	-0.147665	-1.128591	0.243796
C114	C	-0.006283	-1.001404	0.808040
C115	C	-0.088809	-0.989156	0.786973
C116	C	-0.146158	-1.040599	0.830126
H117	H	0.001787	-0.994089	0.865794
H118	H	0.002718	-1.051927	0.793835
H119	H	-0.097807	-0.938645	0.801184
H120	H	-0.096907	-0.996477	0.729227
H121	H	-0.137157	-1.091122	0.815920
H122	H	-0.138080	-1.033280	0.887877
H123	H	-0.202158	-1.032301	0.815832
C124	C	0.232512	-0.786664	0.627810
C125	C	0.282612	-0.741609	0.684238
C126	C	0.339917	-0.690087	0.641137
H127	H	0.202437	-0.755088	0.594053
H128	H	0.267488	-0.813859	0.594059
H129	H	0.247642	-0.714416	0.717975
H130	H	0.312706	-0.773164	0.717997
H131	H	0.374893	-0.717281	0.607386
H132	H	0.309836	-0.658515	0.607382
H133	H	0.373922	-0.659515	0.679417
C134	C	0.232368	-0.786766	0.372734
C135	C	0.220150	-0.797803	0.457788
C136	C	0.277312	-0.746423	0.501232
H137	H	0.223371	-0.736222	0.358659
H138	H	0.288435	-0.794980	0.358591
H139	H	0.164096	-0.789582	0.471925
H140	H	0.229154	-0.848336	0.471887
H141	H	0.333379	-0.754638	0.487089
H142	H	0.268310	-0.695883	0.487150
H143	H	0.269035	-0.753909	0.558945
H144	H	0.216874	-0.800638	0.203826
H145	H	0.216901	-0.800686	0.796415
H146	H	-0.354103	-1.027817	0.000056
H147	H	-0.324786	-0.828489	-0.125125
C148	C	-0.006334	-1.001237	0.627610
C149	C	-0.057670	-0.960823	0.578015
C150	C	-0.115114	-1.012070	0.534726
H151	H	-0.040467	-1.031848	0.665746
H152	H	0.023662	-1.032799	0.593737
H153	H	-0.087664	-0.929274	0.611885
H154	H	-0.023560	-0.930215	0.539865
H155	H	-0.085118	-1.043632	0.500853
H156	H	-0.149241	-1.042678	0.572867
H157	H	-0.149947	-0.984657	0.501065
