data_functionalizedCrystal
_audit_creation_method	'MofGen! by Chris Wilmer'
_symmetry_space_group_name_H-M	'P1'
_symmetry_Int_Tables_number	1
_symmetry_cell_setting	triclinic
loop_
_symmetry_equiv_pos_as_xyz
  x,y,z
_cell_length_a	10.654550
_cell_length_b	17.699092
_cell_length_c	9.130313
_cell_angle_alpha	90.000444
_cell_angle_beta	89.996220
_cell_angle_gamma	83.885635
loop_
_atom_site_label
_atom_site_type_symbol
_atom_site_fract_x
_atom_site_fract_y
_atom_site_fract_z
O1	O	1.665979	0.106299	-0.121914
O2	O	1.300323	0.116427	-0.121890
O3	O	1.493476	0.001240	-0.121899
O4	O	1.472826	0.221486	-0.121904
O5	O	1.493474	0.001243	0.121700
O6	O	1.300321	0.116430	0.121709
O7	O	1.665976	0.106302	0.121685
Cu8	Cu	1.483148	0.111366	0.143940
Cu9	Cu	1.483151	0.111362	-0.144144
O10	O	1.472823	0.221489	0.121695
C11	C	1.253537	0.115684	-0.000087
C12	C	1.114133	0.113460	-0.000078
C13	C	1.492733	-0.026961	-0.000102
C14	C	1.490508	-0.110992	-0.000108
C15	C	1.033463	0.181280	-0.000101
C16	C	0.902479	0.179185	-0.000126
C17	C	0.932847	0.041443	-0.000112
C18	C	1.063828	0.043539	-0.000076
C19	C	1.015930	0.260804	-0.000116
C20	C	0.884945	0.258709	-0.000141
C21	C	1.489467	-0.150468	-0.132896
C22	C	1.487368	-0.229424	-0.132897
C23	C	1.486320	-0.268904	-0.000110
C24	C	1.487357	-0.229423	0.132688
C25	C	1.489447	-0.150467	0.132688
C26	C	1.478928	-0.547841	0.132690
C27	C	1.476842	-0.626803	0.132680
C28	C	1.476849	-0.626799	-0.132895
C29	C	1.478939	-0.547843	-0.132895
C30	C	1.479969	-0.508368	-0.000098
C31	C	1.482243	-0.422754	-0.000098
C32	C	1.484055	-0.354517	-0.000109
C33	C	1.712762	0.107044	-0.000121
C34	C	1.852167	0.109269	-0.000139
C35	C	1.473566	0.249689	-0.000106
C36	C	1.475791	0.333721	-0.000109
N37	N	1.483156	0.111368	0.346562
N38	N	1.483154	0.111354	-0.346767
C39	C	1.568705	0.060381	0.423210
C40	C	1.568702	0.060372	0.576547
C41	C	1.397595	0.162344	0.576575
C42	C	1.397593	0.162349	0.423241
C43	C	1.667496	0.001510	0.423195
C44	C	1.667493	0.001501	0.576532
H45	H	1.129506	-0.011687	-0.000036
C46	C	1.480083	-0.504430	0.278760
H47	H	1.479177	-0.539254	0.357838
H48	H	1.407698	-0.468241	0.284300
H49	H	1.554113	-0.479020	0.284270
C50	C	0.877507	-0.035463	-0.000124
H51	H	0.787945	-0.026999	-0.000157
H52	H	0.905192	-0.063417	0.084828
H53	H	0.905231	-0.063415	-0.085079
H54	H	0.838853	0.282743	0.105026
H55	H	1.763778	0.014469	0.618142
H56	H	1.475984	-0.658945	0.240818
C57	C	1.063512	0.295032	-0.142163
H58	H	1.152530	0.295317	-0.137294
H59	H	1.024821	0.345583	-0.153383
H60	H	1.042559	0.265305	-0.223447
H61	H	1.044717	0.291907	0.101835
C62	C	0.827876	0.299082	-0.137976
H63	H	0.893290	0.317110	-0.194642
H64	H	0.769103	0.340698	-0.109840
H65	H	0.786050	0.264305	-0.194527
C66	C	1.490620	-0.107047	-0.278964
H67	H	1.489687	-0.141868	-0.358046
H68	H	1.564637	-0.081632	-0.284494
H69	H	1.418222	-0.070861	-0.284478
H70	H	1.486526	-0.261563	-0.241026
H71	H	1.490277	-0.118326	0.240817
H72	H	1.479799	-0.515703	-0.241024
H73	H	1.476003	-0.658948	-0.241024
H74	H	1.486496	-0.261573	0.240805
C75	C	1.790234	0.026410	0.358920
H76	H	1.786044	0.025571	0.255004
H77	H	1.860013	-0.007417	0.391035
H78	H	1.800352	0.076453	0.391052
C79	C	1.303482	0.218430	0.338932
H80	H	1.252536	0.248794	0.406563
H81	H	1.251299	0.190910	0.279116
H82	H	1.348556	0.250198	0.279120
H83	H	1.327932	0.203851	0.639023
H84	H	1.647069	-0.056663	0.381578
H85	H	1.637939	-0.053472	0.624083
