data_functionalizedCrystal
_audit_creation_method	'MofGen! by Chris Wilmer'
_symmetry_space_group_name_H-M	'P1'
_symmetry_Int_Tables_number	1
_symmetry_cell_setting	triclinic
loop_
_symmetry_equiv_pos_as_xyz
  x,y,z
_cell_length_a	17.077403
_cell_length_b	17.077404
_cell_length_c	17.077404
_cell_angle_alpha	90.005946
_cell_angle_beta	89.998580
_cell_angle_gamma	89.999063
loop_
_atom_site_label
_atom_site_type_symbol
_atom_site_fract_x
_atom_site_fract_y
_atom_site_fract_z
Zn1	Zn	0.312629	1.200071	0.443902
Zn2	Zn	0.645962	1.533404	0.777235
Zn3	Zn	0.979295	1.866737	1.110569
Zn4	Zn	0.443866	1.200060	0.312661
Zn5	Zn	0.777200	1.533393	0.645994
Zn6	Zn	1.110533	1.866726	0.979328
Zn7	Zn	0.312619	1.068833	0.312650
Zn8	Zn	0.645952	1.402167	0.645983
Zn9	Zn	0.979286	1.735500	0.979317
Zn10	Zn	0.443857	1.068821	0.443884
Zn11	Zn	0.777190	1.402154	0.777218
Zn12	Zn	1.110524	1.735488	1.110551
O13	O	0.378243	1.134446	0.378274
O14	O	0.711576	1.467780	0.711608
O15	O	1.044909	1.801113	1.044941
O16	O	0.330046	1.309916	0.426504
O17	O	0.663379	1.643249	0.759838
O18	O	0.996712	1.976583	1.093171
O19	O	0.426456	1.182653	0.202813
O20	O	0.759790	1.515986	0.536146
O21	O	1.093123	1.849319	0.869479
O22	O	0.202773	1.086252	0.330063
O23	O	0.536107	1.419585	0.663397
O24	O	0.869440	1.752919	0.996730
O25	O	0.426465	1.309908	0.330082
O26	O	0.759799	1.643241	0.663416
O27	O	1.093132	1.976575	0.996749
O28	O	0.202780	1.182671	0.426494
O29	O	0.536114	1.516005	0.759827
O30	O	0.869447	1.849338	1.093160
O31	O	0.330029	1.086241	0.202804
O32	O	0.663363	1.419575	0.536138
O33	O	0.996696	1.752908	0.869471
O34	O	0.330020	0.958985	0.330047
O35	O	0.663353	1.292318	0.663380
O36	O	0.996687	1.625652	0.996713
O37	O	0.426449	1.086231	0.553734
O38	O	0.759782	1.419564	0.887067
O39	O	1.093116	1.752898	1.220400
O40	O	0.426440	0.958976	0.426464
O41	O	0.759773	1.292309	0.759797
O42	O	1.093107	1.625643	1.093131
O43	O	0.330036	1.182660	0.553746
O44	O	0.663370	1.515993	0.887080
O45	O	0.996703	1.849326	1.220413
O46	O	0.553712	1.182641	0.330065
O47	O	0.887045	1.515974	0.663399
O48	O	1.220379	1.849307	0.996732
O49	O	0.553705	1.086220	0.426475
O50	O	0.887038	1.419554	0.759808
O51	O	1.220372	1.752887	1.093141
C52	C	0.378229	0.930498	0.378253
C53	C	0.711562	1.263832	0.711586
C54	C	1.044895	1.597165	1.044919
C55	C	0.378241	0.843249	0.378262
C56	C	0.711575	1.176582	0.711595
C57	C	1.044908	1.509915	1.044929
C58	C	0.173499	1.134464	0.378279
C59	C	0.506832	1.467798	0.711613
C60	C	0.840165	1.801131	1.044946
C61	C	0.086249	1.134472	0.378281
C62	C	0.419582	1.467805	0.711615
C63	C	0.752915	1.801139	1.044948
C64	C	0.428523	0.802274	0.428386
C65	C	0.761856	1.135608	0.761719
C66	C	1.095190	1.468941	1.095053
C67	C	0.428525	0.720294	0.428399
C68	C	0.761858	1.053627	0.761732
C69	C	1.095191	1.386960	1.095065
C70	C	0.378248	0.679289	0.378283
C71	C	0.711581	1.012622	0.711616
C72	C	1.044915	1.345956	1.044949
C73	C	0.327961	0.720269	0.328156
C74	C	0.661294	1.053602	0.661490
C75	C	0.994628	1.386936	0.994823
C76	C	0.327956	0.802248	0.328148
C77	C	0.661289	1.135581	0.661482
C78	C	0.994623	1.468915	0.994815
C79	C	0.327977	0.549399	0.328175
C80	C	0.661310	0.882732	0.661508
C81	C	0.994643	1.216066	0.994842
C82	C	0.327982	0.467414	0.328182
C83	C	0.661316	0.800748	0.661515
C84	C	0.994649	1.134081	0.994849
C85	C	0.428545	0.467445	0.428425
C86	C	0.761878	0.800778	0.761759
C87	C	1.095212	1.134111	1.095092
C88	C	0.428540	0.549424	0.428417
C89	C	0.761873	0.882757	0.761751
C90	C	1.095207	1.216090	1.095084
C91	C	0.378254	0.590398	0.378290
C92	C	0.711587	0.923731	0.711623
C93	C	1.044920	1.257065	1.044957
C94	C	0.045254	1.084278	0.328078
C95	C	0.378587	1.417612	0.661411
C96	C	0.711920	1.750945	0.994745
C97	C	-0.036727	1.084284	0.328088
C98	C	0.296607	1.417618	0.661421
C99	C	0.629940	1.750951	0.994755
C100	C	-0.077711	1.134489	0.378298
C101	C	0.255623	1.467822	0.711631
C102	C	0.588956	1.801155	1.044965
C103	C	-0.036710	1.184685	0.428507
C104	C	0.296623	1.518018	0.761840
C105	C	0.629957	1.851351	1.095173
C106	C	0.045269	1.184674	0.428500
C107	C	0.378602	1.518007	0.761834
C108	C	0.711936	1.851341	1.095167
C109	C	-0.207580	1.184704	0.428516
C110	C	0.125753	1.518038	0.761849
C111	C	0.459087	1.851371	1.095182
C112	C	-0.289565	1.184716	0.428521
C113	C	0.043769	1.518049	0.761855
C114	C	0.377102	1.851383	1.095188
C115	C	-0.289576	1.084315	0.328103
C116	C	0.043758	1.417648	0.661437
C117	C	0.377091	1.750981	0.994770
C118	C	-0.207597	1.084304	0.328097
C119	C	0.125737	1.417638	0.661430
C120	C	0.459070	1.750971	0.994763
C121	C	-0.166602	1.134501	0.378305
C122	C	0.166732	1.467835	0.711638
C123	C	0.500065	1.801168	1.044971
C124	C	0.582191	1.134449	0.378286
C125	C	0.915524	1.467783	0.711620
C126	C	1.248857	1.801116	1.044953
C127	C	0.669440	1.134522	0.378318
C128	C	1.002774	1.467856	0.711651
C129	C	1.336107	1.801189	1.044984
C130	C	0.378243	1.134445	0.583019
C131	C	0.711576	1.467779	0.916352
C132	C	1.044909	1.801112	1.249685
C133	C	0.378243	1.134445	0.670268
C134	C	0.711576	1.467778	1.003602
C135	C	1.044909	1.801111	1.336935
C136	C	0.378258	1.339190	0.378297
C137	C	0.711591	1.672524	0.711630
C138	C	1.044924	2.005857	1.044963
C139	C	0.378264	1.426440	0.378306
C140	C	0.711597	1.759774	0.711639
C141	C	1.044931	2.093107	1.044973
C142	C	0.328039	1.084251	0.711254
C143	C	0.661373	1.417584	1.044587
C144	C	0.994706	1.750917	1.377920
C145	C	0.328046	1.084247	0.793234
C146	C	0.661379	1.417581	1.126567
C147	C	0.994713	1.750914	1.459901
C148	C	0.378252	1.134443	0.834228
C149	C	0.711586	1.467776	1.167561
C150	C	1.044919	1.801109	1.500894
C151	C	0.428461	1.184639	0.793237
C152	C	0.761795	1.517972	1.126570
C153	C	1.095128	1.851306	1.459903
C154	C	0.428458	1.184638	0.711258
C155	C	0.761791	1.517971	1.044591
C156	C	1.095125	1.851304	1.377924
C157	C	0.428463	1.184639	0.964107
C158	C	0.761796	1.517973	1.297440
C159	C	1.095129	1.851306	1.630773
C160	C	0.428465	1.184642	1.046091
C161	C	0.761798	1.517975	1.379425
C162	C	1.095132	1.851308	1.712758
C163	C	0.328051	1.084249	1.046083
C164	C	0.661384	1.417582	1.379416
C165	C	0.994717	1.750915	1.712750
C166	C	0.328048	1.084248	0.964104
C167	C	0.661381	1.417581	1.297437
C168	C	0.994714	1.750914	1.630771
C169	C	0.378256	1.134445	0.923119
C170	C	0.711589	1.467778	1.256452
C171	C	1.044922	1.801112	1.589785
C172	C	0.378261	1.134443	1.174326
C173	C	0.711594	1.467776	1.507660
C174	C	1.044927	1.801109	1.840993
C175	C	0.378262	1.134448	1.087077
C176	C	0.711595	1.467781	1.420410
C177	C	1.044929	1.801114	1.753743
H178	H	0.469466	0.835654	0.469194
H179	H	0.802800	1.168988	0.802527
H180	H	1.136133	1.502321	1.135860
H181	H	0.287169	1.043377	1.079457
H182	H	0.620502	1.376710	1.412791
H183	H	0.953835	1.710044	1.746124
Cl184	Cl	0.264758	0.600908	0.265157
Cl185	Cl	0.598092	0.934242	0.598490
Cl186	Cl	0.931425	1.267575	0.931823
Cl187	Cl	0.264780	0.415867	0.265174
Cl188	Cl	0.598114	0.749200	0.598508
Cl189	Cl	0.931447	1.082533	0.931841
Cl190	Cl	0.096806	1.247776	0.491617
Cl191	Cl	0.430139	1.581110	0.824950
Cl192	Cl	0.763473	1.914443	1.158284
Cl193	Cl	0.491578	1.247750	1.097625
Cl194	Cl	0.824911	1.581083	1.430959
Cl195	Cl	1.158245	1.914417	1.764292
Cl196	Cl	0.491751	0.415935	0.491454
Cl197	Cl	0.825084	0.749268	0.824787
Cl198	Cl	1.158418	1.082602	1.158121
H199	H	0.287151	1.043380	0.677883
H200	H	0.620484	1.376714	1.011216
H201	H	0.953818	1.710047	1.344549
H202	H	-0.174204	1.225571	0.469410
H203	H	0.159129	1.558904	0.802743
H204	H	0.492462	1.892237	1.136077
Cl205	Cl	0.491751	0.600972	0.491416
Cl206	Cl	0.825084	0.934305	0.824749
Cl207	Cl	1.158418	1.267638	1.158083
H208	H	0.287022	0.686877	0.287354
H209	H	0.620355	1.020210	0.620688
H210	H	0.953688	1.353543	0.954021
Cl211	Cl	0.264925	1.021149	0.912570
Cl212	Cl	0.598258	1.354482	1.245903
Cl213	Cl	0.931592	1.687816	1.579237
H214	H	-0.070084	1.225559	0.469393
H215	H	0.263250	1.558892	0.802726
H216	H	0.596583	1.892226	1.136059
H217	H	0.469341	1.225522	0.930739
H218	H	0.802674	1.558856	1.264072
H219	H	1.136007	1.892189	1.597406
H220	H	0.469344	1.225505	0.826620
H221	H	0.802677	1.558838	1.159954
H222	H	1.136011	1.892171	1.493287
Cl223	Cl	0.491577	1.247738	0.659733
Cl224	Cl	0.824910	1.581072	0.993066
Cl225	Cl	1.158244	1.914405	1.326400
H226	H	0.078617	1.043399	0.287189
H227	H	0.411950	1.376732	0.620522
H228	H	0.745284	1.710066	0.953855
Cl229	Cl	0.491739	0.668787	0.491415
Cl230	Cl	0.825072	1.002120	0.824748
Cl231	Cl	1.158405	1.335453	1.158081
Cl232	Cl	0.264740	0.853759	0.265134
Cl233	Cl	0.598074	1.187092	0.598468
Cl234	Cl	0.931407	1.520426	0.931801
H235	H	-0.070105	1.043413	0.287209
H236	H	0.263229	1.376746	0.620543
H237	H	0.596562	1.710079	0.953876
Cl238	Cl	0.264967	1.021107	0.844755
Cl239	Cl	0.598300	1.354440	1.178088
Cl240	Cl	0.931633	1.687773	1.511422
H241	H	-0.174230	1.043428	0.287207
H242	H	0.159103	1.376761	0.620540
H243	H	0.492437	1.710095	0.953874
Cl244	Cl	-0.341112	1.021212	0.264982
Cl245	Cl	-0.007778	1.354546	0.598315
Cl246	Cl	0.325555	1.687879	0.931649
Cl247	Cl	-0.341086	1.247831	0.491643
Cl248	Cl	-0.007753	1.581164	0.824977
Cl249	Cl	0.325580	1.914498	1.158310
