data_functionalizedCrystal
_audit_creation_method	'MofGen! by Chris Wilmer'
_symmetry_space_group_name_H-M	'P1'
_symmetry_Int_Tables_number	1
_symmetry_cell_setting	triclinic
loop_
_symmetry_equiv_pos_as_xyz
  x,y,z
_cell_length_a	13.897449
_cell_length_b	14.908520
_cell_length_c	14.908308
_cell_angle_alpha	83.639235
_cell_angle_beta	93.279088
_cell_angle_gamma	86.678070
loop_
_atom_site_label
_atom_site_type_symbol
_atom_site_fract_x
_atom_site_fract_y
_atom_site_fract_z
Zn1	Zn	1.417722	0.389845	-0.532545
Zn2	Zn	1.917722	0.889845	-0.032545
Zn3	Zn	1.417612	0.532490	-0.389916
Zn4	Zn	1.917612	1.032490	0.110084
Zn5	Zn	1.266296	0.381150	-0.381205
Zn6	Zn	1.766296	0.881150	0.118795
Zn7	Zn	1.246507	0.541167	-0.541227
Zn8	Zn	1.746507	1.041167	-0.041227
O9	O	1.337034	0.461163	-0.461223
O10	O	1.837034	0.961163	0.038777
O11	O	1.552688	0.408775	-0.513637
O12	O	2.052688	0.908775	-0.013637
O13	O	1.405776	0.505145	-0.262099
O14	O	1.905776	1.005145	0.237901
O15	O	1.294711	0.255639	-0.394002
O16	O	1.794711	0.755639	0.105998
O17	O	1.552607	0.513575	-0.408847
O18	O	2.052607	1.013575	0.091153
O19	O	1.405963	0.262027	-0.505191
O20	O	1.905963	0.762027	-0.005191
O21	O	1.294604	0.393956	-0.255700
O22	O	1.794604	0.893956	0.244300
O23	O	1.128691	0.402369	-0.402421
O24	O	1.628691	0.902369	0.097579
O25	O	1.260983	0.528363	-0.666736
O26	O	1.760983	1.028363	-0.166736
O27	O	1.114152	0.519933	-0.519988
O28	O	1.614152	1.019933	-0.019988
O29	O	1.386774	0.417188	-0.660358
O30	O	1.886774	0.917188	-0.160358
O31	O	1.386587	0.660306	-0.417266
O32	O	1.886587	1.160306	0.082734
O33	O	1.260877	0.666681	-0.528434
O34	O	1.760877	1.166681	-0.028434
C35	C	1.321598	0.696337	-0.474757
C36	C	1.821598	1.196337	0.025243
C37	C	1.315080	0.796947	-0.480577
C38	C	1.815080	1.296947	0.019423
C39	C	1.086422	0.461150	-0.461202
C40	C	1.586422	0.961150	0.038798
C41	C	0.979206	0.461167	-0.461216
C42	C	1.479206	0.961167	0.038784
C43	C	1.321683	0.474713	-0.697307
C44	C	1.821683	0.974713	-0.197307
C45	C	1.315141	0.480488	-0.797912
C46	C	1.815141	0.980488	-0.297912
C47	C	0.782909	0.461172	-0.461240
C48	C	1.282909	0.961172	0.038760
C49	C	0.892143	0.461166	-0.461224
C50	C	1.392143	0.961166	0.038776
C51	C	1.588625	0.461177	-0.461245
C52	C	2.088625	0.961177	0.038755
C53	C	1.695838	0.461183	-0.461255
C54	C	2.195838	0.961183	0.038745
C55	C	1.352556	0.225072	-0.447657
C56	C	1.852556	0.725072	0.052343
C57	C	1.359171	0.124464	-0.441875
C58	C	1.859171	0.624464	0.058125
C59	C	1.433856	0.979311	-0.375848
C60	C	1.933856	1.479311	0.124152
C61	C	1.427735	1.073843	-0.381313
C62	C	1.927735	1.573843	0.118687
C63	C	1.296724	1.080546	-0.496978
C64	C	1.796724	1.580546	0.003022
C65	C	1.302844	0.986014	-0.491512
C66	C	1.802844	1.486014	0.008488
C67	C	1.371412	0.935399	-0.430944
C68	C	1.871412	1.435399	0.069056
C69	C	1.377527	0.840865	-0.425475
C70	C	1.877527	1.340865	0.074525
C71	C	1.246521	0.847570	-0.541143
C72	C	1.746521	1.347570	-0.041143
C73	C	1.240400	0.942102	-0.546609
C74	C	1.740400	1.442102	-0.046609
C75	C	1.433834	0.375550	-0.980317
C76	C	1.933834	0.875550	-0.480317
C77	C	1.427690	0.380972	-1.074844
C78	C	1.927690	0.880972	-0.574844
C79	C	1.296708	0.496749	-1.081494
C80	C	1.796708	0.996749	-0.581494
C81	C	1.302851	0.491327	-0.986967
C82	C	1.802851	0.991327	-0.486967
C83	C	1.371417	0.430726	-0.936382
C84	C	1.871417	0.930726	-0.436382
C85	C	1.377564	0.425309	-0.841853
C86	C	1.877564	0.925309	-0.341853
C87	C	1.246578	0.541081	-0.848505
C88	C	1.746578	1.041081	-0.348505
C89	C	1.240435	0.546503	-0.943032
C90	C	1.740435	1.046503	-0.443032
C91	C	1.352385	0.447600	-0.226054
C92	C	1.852385	0.947600	0.273946
C93	C	1.359131	0.441571	-0.125436
C94	C	1.859131	0.941571	0.374564
H95	H	1.489680	0.938100	-0.326525
H96	H	1.989680	1.438100	0.173475
N97	N	1.179257	0.600604	-0.801119
N98	N	1.679257	1.100604	-0.301119
H99	H	1.193553	0.587978	-0.733560
H100	H	1.693553	1.087978	-0.233560
H101	H	1.110218	0.587467	-0.816824
H102	H	1.610218	1.087467	-0.316824
N103	N	1.222746	0.562107	-1.136042
N104	N	1.722746	1.062107	-0.636042
H105	H	1.155828	0.547094	-1.118765
H106	H	1.655828	1.047094	-0.618765
H107	H	1.228394	0.557146	-1.202577
H108	H	1.728394	1.057146	-0.702577
H109	H	1.433355	0.799656	-0.376155
H110	H	1.933355	1.299656	0.123845
N111	N	1.451523	0.359958	-0.787294
N112	N	1.951523	0.859958	-0.287294
H113	H	1.445953	0.364899	-0.720744
H114	H	1.945953	0.864899	-0.220744
H115	H	1.518407	0.375006	-0.804641
H116	H	2.018407	0.875006	-0.304641
N117	N	1.222780	1.135144	-0.562304
N118	N	1.722780	1.635144	-0.062304
H119	H	1.228383	1.201692	-0.557405
H120	H	1.728383	1.701692	-0.057405
H121	H	1.155887	1.117877	-0.547202
H122	H	1.655887	1.617877	-0.047202
H123	H	1.478585	1.109592	-0.336450
H124	H	1.978585	1.609592	0.163550
H125	H	1.184608	0.595841	-0.984231
H126	H	1.684608	1.095841	-0.484231
H127	H	1.184577	0.983325	-0.595924
H128	H	1.684577	1.483325	-0.095924
N129	N	1.507803	0.310207	-0.925760
N130	N	2.007803	0.810207	-0.425760
H131	H	1.552629	0.344760	-0.888671
H132	H	2.052629	0.844760	-0.388671
H133	H	1.546345	0.276105	-0.968004
H134	H	2.046345	0.776105	-0.468004
N135	N	1.179159	0.800209	-0.600568
N136	N	1.679159	1.300209	-0.100568
H137	H	1.193436	0.732642	-0.587915
H138	H	1.693436	1.232642	-0.087915
H139	H	1.188837	0.820405	-0.666180
H140	H	1.688837	1.320405	-0.166180
H141	H	1.478514	0.336040	-1.110612
H142	H	1.978514	0.836040	-0.610612
