data_functionalizedCrystal
_audit_creation_method	'MofGen! by Chris Wilmer'
_symmetry_space_group_name_H-M	'P1'
_symmetry_Int_Tables_number	1
_symmetry_cell_setting	triclinic
loop_
_symmetry_equiv_pos_as_xyz
  x,y,z
_cell_length_a	18.050591
_cell_length_b	18.101395
_cell_length_c	18.101389
_cell_angle_alpha	89.983159
_cell_angle_beta	90.025013
_cell_angle_gamma	89.972890
loop_
_atom_site_label
_atom_site_type_symbol
_atom_site_fract_x
_atom_site_fract_y
_atom_site_fract_z
Zn1	Zn	1.135308	0.294986	0.418860
Zn2	Zn	1.635308	0.794986	0.918860
Zn3	Zn	1.135203	0.418812	0.295022
Zn4	Zn	1.635203	0.918812	0.795022
Zn5	Zn	1.011118	0.294980	0.295020
Zn6	Zn	1.511118	0.794980	0.795020
Zn7	Zn	1.011069	0.418782	0.418809
Zn8	Zn	1.511069	0.918782	0.918809
O9	O	1.073174	0.356890	0.356928
O10	O	1.573174	0.856890	0.856928
O11	O	1.239218	0.311427	0.402455
O12	O	1.739218	0.811427	0.902455
O13	O	1.118720	0.402395	0.191389
O14	O	1.618720	0.902395	0.691389
O15	O	1.027656	0.191348	0.311468
O16	O	1.527656	0.691348	0.811468
O17	O	1.239142	0.402401	0.311472
O18	O	1.739142	0.902401	0.811472
O19	O	1.118898	0.191352	0.402453
O20	O	1.618898	0.691352	0.902453
O21	O	1.027555	0.311417	0.191387
O22	O	1.527555	0.811417	0.691387
O23	O	0.907187	0.311387	0.311419
O24	O	1.407187	0.811387	0.811419
O25	O	1.027572	0.402350	0.522449
O26	O	1.527572	0.902350	1.022449
O27	O	0.907151	0.402344	0.402366
O28	O	1.407151	0.902344	0.902366
O29	O	1.118850	0.311398	0.522487
O30	O	1.618850	0.811398	1.022487
O31	O	1.118672	0.522441	0.311422
O32	O	1.618672	1.022441	0.811422
O33	O	1.027471	0.522419	0.402368
O34	O	1.527471	1.022419	0.902368
C35	C	1.073075	0.549301	0.356906
C36	C	1.573075	1.049301	0.856906
C37	C	1.073100	0.631615	0.356922
C38	C	1.573100	1.131615	0.856922
C39	C	0.880222	0.356862	0.356887
C40	C	1.380222	0.856862	0.856887
C41	C	0.797676	0.356868	0.356887
C42	C	1.297676	0.856868	0.856887
C43	C	1.073217	0.356871	0.550090
C44	C	1.573217	0.856871	1.050090
C45	C	1.073236	0.356863	0.632404
C46	C	1.573236	0.856863	1.132404
C47	C	0.598224	0.307349	0.307544
C48	C	1.098224	0.807349	0.807544
C49	C	0.548800	0.374893	0.289321
C50	C	1.048800	0.874893	0.789321
C51	C	0.646546	0.356891	0.356921
C52	C	1.146546	0.856891	0.856921
C53	C	0.548889	0.289370	0.375142
C54	C	1.048889	0.789370	0.875142
C55	C	0.500561	0.356907	0.356952
C56	C	1.000561	0.856907	0.856952
C57	C	0.598209	0.424471	0.338662
C58	C	1.098209	0.924471	0.838662
C59	C	0.598302	0.338902	0.424515
C60	C	1.098302	0.838902	0.924515
C61	C	0.548900	0.406493	0.406317
C62	C	1.048900	0.906493	0.906317
C63	C	0.730644	0.356881	0.356901
C64	C	1.230644	0.856881	0.856901
C65	C	0.416464	0.356924	0.356971
C66	C	0.916464	0.856924	0.856971
C67	C	1.266880	0.356918	0.356970
C68	C	1.766880	0.856918	0.856970
C69	C	1.349426	0.356930	0.356987
C70	C	1.849426	0.856930	0.856987
C71	C	1.073294	0.163728	0.356966
C72	C	1.573294	0.663728	0.856966
C73	C	1.073345	0.081414	0.356982
C74	C	1.573345	0.581414	0.856982
C75	C	1.073263	0.930706	0.356962
C76	C	1.573263	1.430706	0.856962
C77	C	1.016015	0.899397	0.414324
C78	C	1.516015	1.399397	0.914324
C79	C	1.015743	0.813779	0.414145
C80	C	1.515743	1.313779	0.914145
C81	C	1.073182	0.782323	0.356942
C82	C	1.573182	1.282323	0.856942
C83	C	1.051994	0.813459	0.278891
C84	C	1.551994	1.313459	0.778891
C85	C	1.051625	0.899104	0.279234
C86	C	1.551625	1.399104	0.779234
C87	C	1.151826	0.899058	0.376964
C88	C	1.651826	1.399058	0.876964
C89	C	1.151364	0.813408	0.378675
C90	C	1.651364	1.313408	0.878675
C91	C	1.073138	0.698464	0.356927
C92	C	1.573138	1.198464	0.856927
C93	C	1.073306	1.014565	0.356972
C94	C	1.573306	1.514565	0.856972
C95	C	1.073174	0.356855	0.164518
C96	C	1.573174	0.856855	0.664518
C97	C	1.073300	0.356655	0.082204
C98	C	1.573300	0.856655	0.582204
C99	C	1.073279	0.356724	0.931495
C100	C	1.573279	0.856724	1.431495
C101	C	1.015652	0.413767	0.900146
C102	C	1.515652	0.913767	1.400146
C103	C	1.015807	0.414032	0.814528
C104	C	1.515807	0.914032	1.314528
C105	C	1.073257	0.356793	0.783113
C106	C	1.573257	0.856793	1.283113
C107	C	1.151502	0.377983	0.814220
C108	C	1.651502	0.877983	1.314220
C109	C	1.151181	0.378357	0.899865
C110	C	1.651181	0.878357	1.399865
C111	C	1.053341	0.278365	0.899917
C112	C	1.553341	0.778365	1.399917
C113	C	1.051600	0.278818	0.814266
C114	C	1.551600	0.778818	1.314266
C115	C	1.073249	0.356831	0.699253
C116	C	1.573249	0.856831	1.199253
C117	C	1.073292	0.356689	1.015355
C118	C	1.573292	0.856689	1.515355
H119	H	0.619881	0.265498	0.265742
H120	H	1.119881	0.765498	0.765742
F121	F	0.939969	0.396696	0.787033
F122	F	1.439969	0.896696	1.287033
H123	H	0.527380	0.448444	0.448087
H124	H	1.027380	0.948444	0.948087
H125	H	0.527057	0.390120	0.232171
H126	H	1.027057	0.890120	0.732171
H127	H	1.029000	0.792727	0.472019
H128	H	1.529000	1.292727	0.972019
F129	F	0.939581	0.396609	0.927045
F130	F	1.439581	0.896609	1.427045
F131	F	1.108203	0.222815	0.926417
F132	F	1.608203	0.722815	1.426417
H133	H	1.028684	0.471495	0.921674
H134	H	1.528684	0.971495	1.421674
H135	H	1.091513	0.919816	0.235036
H136	H	1.591513	1.419816	0.735036
F137	F	1.173978	0.452058	0.786197
F138	F	1.673978	0.952058	1.286197
F139	F	0.977724	0.785502	0.256348
F140	F	1.477724	1.285502	0.756348
H141	H	0.619783	0.481596	0.323201
H142	H	1.119783	0.981596	0.823201
F143	F	0.626744	0.318974	0.499193
F144	F	1.126744	0.818974	0.999193
F145	F	1.207578	0.925532	0.322364
F146	F	1.707578	1.425532	0.822364
F147	F	1.033047	0.489941	0.787755
F148	F	1.533047	0.989941	1.287755
F149	F	0.520566	0.214727	0.395268
F150	F	1.020566	0.714727	0.895268
F151	F	1.033167	0.926271	0.490217
F152	F	1.533167	1.426271	0.990217
F153	F	1.102465	0.220317	0.786323
F154	F	1.602465	0.720317	1.286323
H155	H	1.092379	0.793083	0.234985
H156	H	1.592379	1.293083	0.734985
F157	F	0.980060	0.253134	0.928127
F158	F	1.480060	0.753134	1.428127
H159	H	0.994019	0.262839	0.793933
H160	H	1.494019	0.762839	1.293933
F161	F	1.177076	0.927237	0.450089
F162	F	1.677076	1.427237	0.950089
F163	F	0.939629	0.787073	0.396830
F164	F	1.439629	1.287073	0.896830
H165	H	0.958137	0.920977	0.401241
H166	H	1.458137	1.420977	0.901241
F167	F	0.976562	0.925294	0.257089
F168	F	1.476562	1.425294	0.757089
H169	H	1.167342	0.793056	0.436117
H170	H	1.667342	1.293056	0.936117
F171	F	1.173271	0.453228	0.925989
F172	F	1.673271	0.953228	1.425989
H173	H	1.196273	0.791991	0.339941
H174	H	1.696273	1.291991	0.839941
H175	H	1.195573	0.338614	0.920605
H176	H	1.695573	0.838614	1.420605
H177	H	1.195591	0.337741	0.793873
H178	H	1.695591	0.837741	1.293873
