data_functionalizedCrystal
_audit_creation_method	'MofGen! by Chris Wilmer'
_symmetry_space_group_name_H-M	'P1'
_symmetry_Int_Tables_number	1
_symmetry_cell_setting	triclinic
loop_
_symmetry_equiv_pos_as_xyz
  x,y,z
_cell_length_a	10.489746
_cell_length_b	17.019294
_cell_length_c	8.965430
_cell_angle_alpha	86.121451
_cell_angle_beta	89.999075
_cell_angle_gamma	83.966638
loop_
_atom_site_label
_atom_site_type_symbol
_atom_site_fract_x
_atom_site_fract_y
_atom_site_fract_z
O1	O	1.692194	0.111305	-0.138233
O2	O	1.320825	0.121748	-0.139599
O3	O	1.516869	0.001753	-0.124166
O4	O	1.496150	0.231300	-0.153666
O5	O	1.516853	0.001761	0.123911
O6	O	1.320808	0.121756	0.108479
O7	O	1.692177	0.111313	0.109845
Cu8	Cu	1.506491	0.116535	0.131813
Cu9	Cu	1.506511	0.116526	-0.161567
O10	O	1.496133	0.231308	0.094412
C11	C	1.273298	0.120962	-0.015462
C12	C	1.131709	0.118600	-0.015168
C13	C	0.980147	0.040853	-0.005155
C14	C	1.056885	0.079727	0.112160
C15	C	1.056856	0.079737	-0.132427
C16	C	0.956166	0.153305	0.102821
C17	C	0.956133	0.153304	-0.141875
C18	C	1.032820	0.192233	-0.024536
C19	C	1.516075	-0.027636	0.003647
C20	C	1.513718	-0.115220	0.014892
C21	C	1.512623	-0.156366	-0.115051
C22	C	1.510400	-0.238659	-0.104481
C23	C	1.509282	-0.279805	0.036035
C24	C	1.510373	-0.238652	0.165988
C25	C	1.512587	-0.156360	0.155416
C26	C	1.502589	-0.528274	0.074721
C27	C	1.500379	-0.610573	0.085284
C28	C	1.500404	-0.610574	-0.185186
C29	C	1.502625	-0.528281	-0.195745
C30	C	1.503710	-0.487135	-0.065793
C31	C	1.507014	-0.363922	0.046843
C32	C	1.505969	-0.403018	-0.076603
C33	C	1.739704	0.112099	-0.014296
C34	C	1.881294	0.114461	-0.014599
C35	C	1.496927	0.260697	-0.033404
C36	C	1.499284	0.348280	-0.044659
N37	N	1.506487	0.116541	0.338162
N38	N	1.506526	0.116513	-0.367915
C39	C	1.415795	0.172016	0.428333
C40	C	1.531025	0.187979	0.525703
C41	C	1.391305	0.100586	0.536918
C42	C	1.621775	0.132540	0.433338
C43	C	1.481979	0.045115	0.444549
C44	C	1.597293	0.061048	0.541878
H45	H	1.056229	0.256286	-0.032701
Cl46	Cl	1.513962	-0.104632	0.318780
H47	H	1.509455	-0.272159	0.280399
H48	H	0.956493	-0.023152	0.003193
Cl49	Cl	0.888545	0.201252	0.256497
Cl50	Cl	1.124741	0.031738	-0.285911
Cl51	Cl	1.504034	-0.476561	-0.372401
H52	H	1.719219	0.146095	0.388085
H53	H	1.513540	-0.122872	-0.229474
H54	H	0.912122	0.184347	-0.249277
Cl55	Cl	1.499037	-0.662305	-0.348544
Cl56	Cl	1.297494	0.244510	0.351700
H57	H	1.506108	-0.397433	0.161252
H58	H	1.461188	-0.015257	0.408562
H59	H	1.551781	0.248370	0.561652
H60	H	1.509514	-0.272158	-0.210294
Cl61	Cl	1.498981	-0.662299	0.261946
H62	H	1.503498	-0.494785	0.180539
Cl63	Cl	1.507381	-0.351291	-0.253244
H64	H	1.674088	0.014120	0.591228
H65	H	1.293882	0.087103	0.582349
H66	H	1.100872	0.048657	0.219562
