data_functionalizedCrystal
_audit_creation_method	'MofGen! by Chris Wilmer'
_symmetry_space_group_name_H-M	'P1'
_symmetry_Int_Tables_number	1
_symmetry_cell_setting	triclinic
loop_
_symmetry_equiv_pos_as_xyz
  x,y,z
_cell_length_a	14.446369
_cell_length_b	23.196402
_cell_length_c	23.196401
_cell_angle_alpha	60.007332
_cell_angle_beta	90.011772
_cell_angle_gamma	60.005344
loop_
_atom_site_label
_atom_site_type_symbol
_atom_site_fract_x
_atom_site_fract_y
_atom_site_fract_z
Zr1	Zr	0.891795	0.631008	-0.075661
O2	O	0.743978	0.751266	-0.167703
O3	O	0.937095	0.510748	-0.047448
O4	O	0.937069	0.631011	-0.167714
O5	O	0.744041	0.631001	0.047435
O6	O	1.089397	0.631016	-0.167719
O7	O	0.744005	0.631002	-0.047437
O8	O	1.089445	0.415888	0.047415
O9	O	0.743993	0.846130	-0.167699
O10	O	1.070113	0.560217	-0.035415
O11	O	0.956459	0.560212	0.035390
O12	O	0.956428	0.701807	-0.106208
O13	O	0.842774	0.701802	-0.035403
Zr14	Zr	1.134800	0.631014	0.075640
Zr15	Zr	1.134742	0.631016	-0.075669
Zr16	Zr	0.891853	0.631006	0.075648
Zr17	Zr	0.891820	0.782305	-0.075655
Zr18	Zr	1.134775	0.479717	0.075635
O19	O	1.089500	0.751274	0.047428
O20	O	1.089417	0.751277	-0.167714
O21	O	0.744061	0.751262	0.047439
O22	O	1.282617	0.510756	0.167683
O23	O	1.282534	0.510760	-0.047459
O24	O	0.937178	0.510745	0.167694
O25	O	1.282554	0.631021	-0.047455
O26	O	1.089526	0.631011	0.167693
O27	O	0.937198	0.631006	0.167699
O28	O	1.282590	0.631019	0.047417
O29	O	0.937104	0.846136	-0.167706
O30	O	1.089491	0.415886	0.167685
O31	O	1.282602	0.415892	0.167679
O32	O	1.282556	0.415894	0.047409
O33	O	0.744039	0.846128	-0.047429
O34	O	0.937150	0.846134	-0.047435
O35	O	1.070167	0.560215	0.106188
O36	O	1.183821	0.560220	0.035382
O37	O	1.070136	0.701809	-0.035410
O38	O	0.956482	0.701804	0.035395
C39	C	1.013267	0.441761	-0.000017
C40	C	1.013256	0.377531	-0.000020
C41	C	1.097197	0.295105	0.052238
C42	C	1.097204	0.234745	0.052245
C43	C	1.013280	0.256816	-0.000018
C44	C	0.929325	0.339256	-0.052280
C45	C	0.929313	0.399614	-0.052281
C46	C	0.987126	0.201228	-0.063809
C47	C	0.987146	0.140869	-0.063808
C48	C	1.013311	0.070654	-0.000015
C49	C	1.039480	0.060795	0.063782
C50	C	1.039468	0.121153	0.063781
C51	C	1.013284	0.191373	-0.000022
C52	C	1.097264	-0.077226	0.052254
C53	C	1.097265	-0.137585	0.052261
C54	C	0.929390	-0.033071	-0.052269
C55	C	0.929385	0.027286	-0.052270
C56	C	1.013328	0.005203	-0.000009
C57	C	0.709408	0.631001	-0.000000
C58	C	0.606271	0.630997	0.000003
C59	C	0.531291	0.541706	0.044420
C60	C	0.638620	0.541646	0.044675
C61	C	0.531731	0.675352	0.032577
C62	C	0.424872	0.674785	0.032898
C63	C	0.423256	0.676626	-0.077059
C64	C	0.531928	0.674943	-0.076933
C65	C	1.317187	0.631021	-0.000020
C66	C	1.420324	0.631025	-0.000024
C67	C	1.013225	0.631014	-0.189275
C68	C	1.013200	0.631015	-0.253509
C69	C	1.013328	0.820261	-0.000003
C70	C	1.013339	0.884490	-0.000001
C71	C	0.953863	0.704921	-0.320635
C72	C	0.953892	0.704922	-0.380990
C73	C	1.013242	0.631013	-0.374215
C74	C	1.072592	0.557097	-0.307077
C75	C	1.072571	0.557098	-0.246724
C76	C	1.004804	0.574387	-0.441534
C77	C	1.004817	0.574389	-0.501888
C78	C	1.013314	0.631007	-0.560363
C79	C	1.021775	0.687636	-0.558484
C80	C	1.021754	0.687637	-0.498131
C81	C	1.013272	0.631003	-0.439654
C82	C	0.954005	0.704919	-0.692936
C83	C	0.954042	0.704917	-0.753291
C84	C	1.072735	0.557090	-0.679375
C85	C	1.072706	0.557094	-0.619023
C86	C	1.013335	0.631011	-0.625808
C87	C	1.013370	0.631008	0.189254
C88	C	1.013395	0.631007	0.253489
C89	C	1.317156	0.441772	-0.000027
C90	C	1.420283	0.377545	-0.000033
C91	C	1.013340	0.441758	0.189247
C92	C	1.013354	0.377528	0.253479
C93	C	1.317229	0.441769	0.189237
C94	C	1.420380	0.377541	0.253466
C95	C	0.709366	0.820253	-0.189257
C96	C	0.606215	0.884480	-0.253486
C97	C	0.709439	0.820250	0.000007
C98	C	0.606312	0.884477	0.000013
C99	C	1.013255	0.820264	-0.189267
C100	C	1.013241	0.884494	-0.253500
C101	C	1.409358	0.347383	-0.036998
C102	C	1.506247	0.287044	-0.037018
C103	C	1.614061	0.256865	-0.000068
C104	C	1.624984	0.287033	0.036898
C105	C	1.528095	0.347375	0.036913
C106	C	1.072715	0.347366	0.320606
C107	C	1.072724	0.287023	0.380964
C108	C	1.013378	0.256838	0.374195
C109	C	0.954009	0.287006	0.307062
C110	C	0.953994	0.347352	0.246705
C111	C	1.528158	0.347382	0.246669
C112	C	1.625089	0.287043	0.307013
C113	C	1.614240	0.256859	0.374153
C114	C	1.506451	0.287024	0.380949
C115	C	1.409523	0.347367	0.320606
C116	C	0.498437	0.914647	-0.246689
C117	C	0.401506	0.975005	-0.307033
C118	C	0.412355	1.005192	-0.374173
C119	C	0.520144	0.975023	-0.380969
C120	C	0.617072	0.914670	-0.320626
C121	C	0.617237	0.914646	0.036971
C122	C	0.520348	0.975001	0.036974
C123	C	0.412534	1.005182	0.000023
C124	C	0.401611	0.975011	-0.036941
C125	C	0.498500	0.914661	-0.036947
C126	C	1.072599	0.914659	-0.246708
C127	C	1.072608	0.975003	-0.307055
C128	C	1.013251	1.005184	-0.374193
C129	C	0.953892	0.975013	-0.380984
C130	C	0.953890	0.914667	-0.320637
H131	H	1.165610	-0.095207	0.094812
H132	H	1.693175	0.207724	0.423283
H133	H	1.060773	0.113123	0.115727
H134	H	0.333420	1.054336	-0.423303
H135	H	1.013399	0.207701	0.423348
H136	H	0.905659	0.371902	0.192050
H137	H	0.861038	0.094403	-0.094828
H138	H	0.419122	0.648046	-0.104271
C139	C	0.888651	1.008193	-0.454842
N140	N	0.839524	1.033178	-0.510475
C141	C	1.189622	-0.228262	0.109745
N142	N	1.259194	-0.296561	0.153039
H143	H	1.120934	0.890095	-0.192046
C144	C	1.031128	0.749920	-0.622804
N145	N	1.038171	0.796830	-0.671251
C146	C	0.486476	0.881458	-0.172840
N147	N	0.477457	0.856468	-0.117218
H148	H	0.997876	0.528282	-0.393926
H149	H	1.120944	0.999562	-0.301513
H150	H	1.120892	0.496913	-0.192065
H151	H	1.497331	0.262488	-0.067119
H152	H	1.165548	0.277118	0.094794
C153	C	1.494537	0.253806	0.454810
N154	N	1.485566	0.228780	0.510444
H155	H	0.346291	0.740317	0.002619
C156	C	1.720630	0.190481	-0.000086
N157	N	1.800895	0.140478	-0.000099
H158	H	1.121042	0.371935	0.326130
H159	H	1.712847	0.262488	0.301467
H160	H	0.705015	0.890077	0.067067
C161	C	1.138050	0.253841	0.454804
N162	N	1.187257	0.228849	0.510418
H163	H	1.712778	0.262452	0.066981
H164	H	0.489588	0.890099	-0.067041
H165	H	0.313817	0.999594	-0.067026
H166	H	0.533611	0.506649	0.022684
H167	H	1.013261	1.054323	-0.423326
H168	H	0.529264	0.999557	0.067077
C169	C	0.305965	1.071566	0.000041
N170	N	0.225700	1.121564	0.000059
H171	H	1.321769	0.371915	0.326150
H172	H	0.905727	0.765102	-0.807949
C173	C	1.540119	0.380578	0.172820
N174	N	1.549138	0.405581	0.117198
H175	H	0.905549	0.890113	-0.326177
C176	C	0.711931	0.494624	0.015167
N177	N	0.767149	0.459201	-0.007056
H178	H	1.120917	0.496920	-0.301565
C179	C	0.532952	0.494691	0.120812
N180	N	0.534287	0.459322	0.178380
C181	C	0.888739	0.253790	0.299628
N182	N	0.839584	0.228766	0.294031
H183	H	1.060778	0.003626	0.115729
C184	C	0.888567	0.786232	-0.328103
N185	N	0.839390	0.847476	-0.333727
H186	H	1.165560	0.167621	0.094801
C187	C	1.290772	0.380573	-0.077653
N188	N	1.201455	0.405572	-0.108281
H189	H	0.528964	0.999609	-0.435642
C190	C	0.837071	-0.008788	-0.109758
N191	N	0.767532	0.009500	-0.153059
C192	C	0.711305	0.494328	0.121450
N193	N	0.766052	0.458686	0.179280
H194	H	0.965842	0.148902	-0.115755
H195	H	0.860993	0.357223	-0.094832
C196	C	0.958344	0.278465	-0.133991
N197	N	0.936666	0.336637	-0.186850
H198	H	0.704827	0.890109	-0.326169
H199	H	0.313749	0.999559	-0.301486
C200	C	0.836975	0.490291	-0.109775
N201	N	0.767426	0.558590	-0.153082
H202	H	0.504499	0.741049	0.001767
C203	C	0.425262	0.632192	0.109482
N204	N	0.425563	0.600107	0.167167
C205	C	0.601461	0.633728	0.108439
N206	N	0.653983	0.602370	0.165579
H207	H	0.583336	0.642603	-0.101267
H208	H	1.537007	0.371926	0.067018
H209	H	0.506404	0.740130	-0.112831
H210	H	0.345040	0.742425	-0.110328
H211	H	1.028647	0.733746	-0.496604
C212	C	0.888709	0.786228	-0.700397
N213	N	0.839529	0.847470	-0.706019
C214	C	0.888614	0.786227	-0.454840
N215	N	0.839445	0.847467	-0.510462
H216	H	1.121020	0.496912	-0.564365
C217	C	0.995503	0.512098	-0.503950
N218	N	0.988487	0.465179	-0.505501
C219	C	1.138024	0.475789	-0.671919
N220	N	1.187203	0.414550	-0.666304
