data_functionalizedCrystal
_audit_creation_method	'MofGen! by Chris Wilmer'
_symmetry_space_group_name_H-M	'P1'
_symmetry_Int_Tables_number	1
_symmetry_cell_setting	triclinic
loop_
_symmetry_equiv_pos_as_xyz
  x,y,z
_cell_length_a	19.188933
_cell_length_b	19.188940
_cell_length_c	17.666332
_cell_angle_alpha	89.994337
_cell_angle_beta	89.992162
_cell_angle_gamma	83.147142
loop_
_atom_site_label
_atom_site_type_symbol
_atom_site_fract_x
_atom_site_fract_y
_atom_site_fract_z
O1	O	0.926152	0.087174	-0.062924
O2	O	0.722841	0.098906	-0.062931
O3	O	0.830360	-0.008615	-0.062921
O4	O	0.818633	0.194695	-0.062933
O5	O	0.830341	-0.008618	0.062975
O6	O	0.722822	0.098903	0.062966
O7	O	0.926133	0.087170	0.062973
Cu8	Cu	0.824476	0.093037	0.074465
Cu9	Cu	0.824498	0.093040	-0.074423
O10	O	0.818614	0.194692	0.062963
C11	C	0.696821	0.098525	0.000017
C12	C	0.619316	0.097383	0.000014
C13	C	0.066071	0.089240	-0.068604
C14	C	0.138895	0.090308	-0.068607
C15	C	0.175302	0.090844	0.000019
C16	C	0.138881	0.090293	0.068653
C17	C	0.066059	0.089218	0.068654
N18	N	0.284315	0.132261	0.051098
N19	N	0.353493	0.133283	0.051093
C20	C	0.394711	0.094081	0.000020
N21	N	0.364136	0.053827	-0.051058
N22	N	0.294951	0.052807	-0.051054
C23	C	0.254265	0.092009	0.000026
C24	C	0.510088	0.095785	-0.068613
C25	C	0.582914	0.096849	-0.068613
C26	C	0.582897	0.096841	0.068649
C27	C	0.510074	0.095770	0.068648
C28	C	0.473673	0.095246	0.000014
C29	C	0.829970	-0.034628	0.000027
C30	C	0.828826	-0.112132	0.000026
C31	C	0.820681	-0.665393	0.068635
C32	C	0.821748	-0.592568	0.068639
C33	C	0.822295	-0.556147	0.000013
C34	C	0.821757	-0.592554	-0.068621
C35	C	0.820683	-0.665376	-0.068624
N36	N	0.863719	-0.447122	-0.051065
N37	N	0.864740	-0.377944	-0.051058
C38	C	0.825529	-0.336738	0.000016
N39	N	0.785266	-0.367324	0.051094
N40	N	0.784247	-0.436509	0.051090
C41	C	0.823459	-0.477184	0.000008
C42	C	0.827218	-0.221375	0.068651
C43	C	0.828281	-0.148548	0.068653
C44	C	0.828297	-0.148536	-0.068610
C45	C	0.827227	-0.221360	-0.068609
C46	C	0.826691	-0.257775	0.000023
C47	C	0.952153	0.087552	0.000024
C48	C	1.029658	0.088693	0.000021
C49	C	0.819004	0.220704	0.000013
C50	C	0.820148	0.298209	0.000009
N51	N	0.824465	0.093034	0.179184
N52	N	0.824514	0.093038	-0.179142
C53	C	0.866676	0.135279	0.218786
C54	C	0.866687	0.135277	0.298034
C55	C	0.824475	0.093038	0.337676
C56	C	0.782262	0.050783	0.298064
C57	C	0.782257	0.050781	0.218818
N58	N	0.763326	0.091317	0.462114
N59	N	0.763332	0.091323	0.537394
C60	C	0.824487	0.093040	0.576440
N61	N	0.885636	0.094765	0.537362
N62	N	0.885629	0.094762	0.462075
C63	C	0.824475	0.093035	0.423605
C64	C	0.866713	0.135285	0.701972
C65	C	0.866726	0.135278	0.781221
C66	C	0.782294	0.050789	0.781250
C67	C	0.782288	0.050792	0.702002
C68	C	0.824496	0.093044	0.662368
H69	H	0.036438	0.088810	-0.124490
H70	H	0.480425	0.095328	0.124530
H71	H	0.820244	-0.695038	0.124521
H72	H	0.826797	-0.250997	-0.124492
H73	H	0.901060	0.169680	0.330285
N74	N	0.176090	0.090862	-0.138715
N75	N	0.143582	0.090390	-0.199987
H76	H	0.169848	0.090782	-0.249502
H77	H	0.168528	0.090728	0.124529
N78	N	0.909847	0.178430	0.661493
N79	N	0.947549	0.216132	0.696866
H80	H	0.978018	0.246598	0.668280
N81	N	0.620102	0.097398	-0.138723
N82	N	0.587590	0.096928	-0.199992
H83	H	0.613853	0.097315	-0.249509
N84	N	0.822287	-0.555388	0.138748
N85	N	0.821804	-0.587909	0.200019
H86	H	0.822184	-0.561653	0.249535
N87	N	0.620074	0.097399	0.138751
N88	N	0.605352	0.146481	0.184702
H89	H	0.631612	0.146874	0.234214
H90	H	0.822200	-0.562895	-0.124497
N91	N	0.028871	0.088673	0.138765
N92	N	0.030420	0.137994	0.184714
H93	H	0.004156	0.137612	0.234232
N94	N	0.739141	0.007629	0.338542
N95	N	0.747701	-0.057460	0.329698
H96	H	0.717247	-0.087942	0.358284
N97	N	0.472912	0.095245	-0.138722
N98	N	0.505437	0.095724	-0.199993
H99	H	0.479184	0.095341	-0.249509
N100	N	0.820135	-0.702549	-0.138733
N101	N	0.820617	-0.670025	-0.200003
H102	H	0.820231	-0.696279	-0.249520
H103	H	0.826776	-0.251025	0.124536
H104	H	0.828713	-0.118913	0.124538
H105	H	0.828734	-0.118882	-0.124486
N106	N	0.909782	0.178452	0.178314
N107	N	0.947461	0.216176	0.213690
H108	H	0.977902	0.246671	0.185106
N109	N	0.739138	0.007618	0.178373
N110	N	0.701457	-0.030101	0.213772
H111	H	0.671004	-0.060586	0.185207
H112	H	0.901104	0.169678	0.813464
N113	N	0.739183	0.007642	0.821745
N114	N	0.739193	0.007647	0.892500
H115	H	0.708746	-0.022828	0.921104
H116	H	0.747913	0.016394	0.669758
