data_functionalizedCrystal
_audit_creation_method	'MofGen! by Chris Wilmer'
_symmetry_space_group_name_H-M	'P1'
_symmetry_Int_Tables_number	1
_symmetry_cell_setting	triclinic
loop_
_symmetry_equiv_pos_as_xyz
  x,y,z
_cell_length_a	14.519731
_cell_length_b	19.188924
_cell_length_c	12.996460
_cell_angle_alpha	89.991787
_cell_angle_beta	89.994327
_cell_angle_gamma	83.415409
loop_
_atom_site_label
_atom_site_type_symbol
_atom_site_fract_x
_atom_site_fract_y
_atom_site_fract_z
O1	O	1.223285	0.091596	-0.085574
O2	O	0.954743	0.102358	-0.085576
O3	O	1.096767	-0.004651	-0.085563
O4	O	1.081261	0.198605	-0.085587
O5	O	1.096752	-0.004657	0.085571
O6	O	0.954729	0.102352	0.085558
O7	O	1.223270	0.091590	0.085560
Cu8	Cu	1.088998	0.096970	0.101185
Cu9	Cu	1.089015	0.096977	-0.101201
O10	O	1.081246	0.198599	0.085547
C11	C	0.920380	0.101851	-0.000009
C12	C	0.818009	0.100340	-0.000010
C13	C	0.734872	0.099112	-0.000014
C14	C	0.630573	0.097578	-0.000014
C15	C	0.547442	0.096360	-0.000014
C16	C	0.443136	0.094826	-0.000016
C17	C	1.096258	-0.030667	0.000005
C18	C	1.094754	-0.108177	0.000008
C19	C	1.094060	-0.144575	-0.093277
C20	C	1.092634	-0.217403	-0.093285
C21	C	1.091920	-0.253832	-0.000003
C22	C	1.092609	-0.217424	0.093295
C23	C	1.094026	-0.144597	0.093300
N24	N	1.142169	-0.373316	0.069426
N25	N	1.140825	-0.442499	0.069415
C26	C	1.087648	-0.473256	-0.000013
N27	N	1.035879	-0.432219	-0.069444
N28	N	1.037227	-0.363029	-0.069435
C29	C	1.090383	-0.332801	0.000002
C30	C	1.085406	-0.588623	-0.093313
C31	C	1.083974	-0.661451	-0.093317
C32	C	1.083959	-0.661472	0.093266
C33	C	1.085381	-0.588644	0.093268
C34	C	1.086110	-0.552224	-0.000025
C35	C	1.257634	0.092097	-0.000009
C36	C	1.360004	0.093608	-0.000016
C37	C	1.081755	0.224615	-0.000023
C38	C	1.083259	0.302125	-0.000033
N39	N	1.088992	0.096965	0.243532
N40	N	1.089028	0.096977	-0.243548
C41	C	1.089014	0.096978	0.663346
C42	C	1.089005	0.096977	0.546541
C43	C	1.089004	0.096972	0.453443
C44	C	1.088994	0.096970	0.336630
H45	H	1.092063	-0.247044	-0.169252
O46	O	1.091790	-0.252871	0.183846
C47	C	1.011107	-0.287180	0.189432
H48	H	0.984285	-0.295480	0.108433
H49	H	0.955731	-0.253652	0.235464
C50	C	1.066955	-0.348540	0.342250
C51	C	1.034015	-0.358740	0.242766
H52	H	1.081083	-0.392680	0.375153
H53	H	1.121311	-0.325424	0.338490
H54	H	1.020802	-0.320598	0.380598
H55	H	1.080172	-0.386673	0.204417
H56	H	0.979667	-0.381862	0.246521
O57	O	1.094742	-0.109348	0.184014
C58	C	1.093775	-0.157111	0.266350
H59	H	1.121956	-0.211876	0.239003
H60	H	1.019652	-0.157627	0.295028
C61	C	1.120169	-0.067345	0.388082
C62	C	1.154789	-0.134607	0.354495
H63	H	1.157801	-0.053463	0.442456
H64	H	1.120817	-0.035165	0.332611
H65	H	1.058400	-0.067783	0.411973
H66	H	1.216552	-0.134165	0.330593
H67	H	1.154153	-0.166786	0.409964
H68	H	1.083405	-0.691085	-0.169284
O69	O	1.086060	-0.553342	-0.184024
C70	C	1.085155	-0.601091	-0.266365
H71	H	1.054950	-0.650153	-0.239020
H72	H	1.158974	-0.616065	-0.295051
C73	C	1.062350	-0.506485	-0.388084
C74	C	1.025244	-0.566742	-0.354500
H75	H	1.025398	-0.485297	-0.442453
H76	H	1.062963	-0.474315	-0.332610
H77	H	1.123864	-0.518972	-0.411982
H78	H	0.963735	-0.554253	-0.330591
H79	H	1.024619	-0.598909	-0.409973
O80	O	1.094715	-0.109301	-0.183991
C81	C	1.093819	-0.157053	-0.266329
H82	H	1.063619	-0.206117	-0.238983
H83	H	1.167640	-0.172023	-0.295012
C84	C	1.071006	-0.062451	-0.388055
C85	C	1.033907	-0.122710	-0.354469
H86	H	1.034054	-0.041267	-0.442426
H87	H	1.071613	-0.030279	-0.332583
H88	H	1.132523	-0.074934	-0.411950
H89	H	0.972396	-0.110225	-0.330563
H90	H	1.033288	-0.154879	-0.409940
O91	O	1.083383	-0.696791	0.183943
C92	C	1.163584	-0.686832	0.240700
H93	H	1.191246	-0.636554	0.214193
H94	H	1.218699	-0.733286	0.227762
C95	C	1.105398	-0.742873	0.388535
C96	C	1.139369	-0.681117	0.355986
H97	H	1.090463	-0.739351	0.459650
H98	H	1.051367	-0.749586	0.350297
H99	H	1.151333	-0.781579	0.377745
H100	H	1.093430	-0.642414	0.366764
H101	H	1.193392	-0.674398	0.394229
H102	H	1.085954	-0.559009	0.169231
