data_functionalizedCrystal
_audit_creation_method	'MofGen! by Chris Wilmer'
_symmetry_space_group_name_H-M	'P1'
_symmetry_Int_Tables_number	1
_symmetry_cell_setting	triclinic
loop_
_symmetry_equiv_pos_as_xyz
  x,y,z
_cell_length_a	14.519731
_cell_length_b	14.519709
_cell_length_c	13.596369
_cell_angle_alpha	90.006934
_cell_angle_beta	89.994790
_cell_angle_gamma	96.315501
loop_
_atom_site_label
_atom_site_type_symbol
_atom_site_fract_x
_atom_site_fract_y
_atom_site_fract_z
O1	O	1.223856	-0.120986	-0.081791
O2	O	1.557190	0.212347	0.251542
O3	O	1.890523	0.545680	0.584876
O4	O	0.955382	-0.135202	-0.081794
O5	O	1.288715	0.198131	0.251540
O6	O	1.622049	0.531464	0.584873
O7	O	1.096737	0.006144	-0.081783
O8	O	1.430071	0.339477	0.251550
O9	O	1.763404	0.672810	0.584883
O10	O	1.082501	-0.262332	-0.081801
O11	O	1.415834	0.071001	0.251532
O12	O	1.749168	0.404334	0.584865
O13	O	1.096723	0.006151	0.081799
O14	O	1.430057	0.339484	0.415133
O15	O	1.763390	0.672818	0.748466
O16	O	0.955368	-0.135195	0.081789
O17	O	1.288701	0.198138	0.415122
O18	O	1.622035	0.531472	0.748456
O19	O	1.223842	-0.120979	0.081792
O20	O	1.557176	0.212355	0.415125
O21	O	1.890509	0.545688	0.748459
Zn22	Zn	1.089603	-0.128086	0.107763
Zn23	Zn	1.422936	0.205248	0.441096
Zn24	Zn	1.756270	0.538581	0.774430
Zn25	Zn	1.089621	-0.128096	-0.107765
Zn26	Zn	1.422955	0.205238	0.225569
Zn27	Zn	1.756288	0.538571	0.558902
O28	O	1.082487	-0.262325	0.081782
O29	O	1.415820	0.071009	0.415115
O30	O	1.749154	0.404342	0.748448
C31	C	1.096067	0.040507	0.000008
C32	C	1.429400	0.373840	0.333342
C33	C	1.762734	0.707174	0.666675
C34	C	1.094079	0.142889	0.000009
C35	C	1.427412	0.476222	0.333342
C36	C	1.760745	0.809555	0.666675
C37	C	0.921016	-0.134532	-0.000003
C38	C	1.254349	0.198801	0.333331
C39	C	1.587682	0.532134	0.666664
C40	C	0.818635	-0.132536	-0.000003
C41	C	1.151969	0.200797	0.333330
C42	C	1.485302	0.534130	0.666663
C43	C	1.258209	-0.121649	-0.000001
C44	C	1.591542	0.211685	0.333332
C45	C	1.924875	0.545018	0.666665
C46	C	1.360589	-0.123645	-0.000007
C47	C	1.693922	0.209689	0.333326
C48	C	2.027256	0.543022	0.666660
C49	C	1.443733	-0.125267	-0.000009
C50	C	1.777066	0.208067	0.333324
C51	C	2.110400	0.541400	0.666657
C52	C	1.548042	-0.127293	-0.000007
C53	C	1.881375	0.206040	0.333326
C54	C	2.214709	0.539373	0.666659
C55	C	1.631181	-0.128902	-0.000005
C56	C	1.964514	0.204432	0.333328
C57	C	2.297848	0.537765	0.666661
C58	C	1.735496	-0.130928	-0.000005
C59	C	2.068830	0.202405	0.333328
C60	C	2.402163	0.535739	0.666661
C61	C	1.083157	-0.296688	-0.000012
C62	C	1.416491	0.036645	0.333321
C63	C	1.749824	0.369978	0.666654
C64	C	1.085146	-0.399070	-0.000019
C65	C	1.418479	-0.065736	0.333314
C66	C	1.751812	0.267597	0.666648
N67	N	1.089597	-0.128078	0.254855
N68	N	1.422930	0.205255	0.588188
N69	N	1.756264	0.538588	0.921521
C70	C	1.086759	0.517785	-0.000017
C71	C	1.420093	0.851118	0.333316
C72	C	1.753426	1.184452	0.666650
C73	C	1.088792	0.413477	-0.000009
C74	C	1.422125	0.746810	0.333324
C75	C	1.755459	1.080143	0.666657
C76	C	1.090419	0.330340	-0.000003
C77	C	1.423752	0.663673	0.333330
C78	C	1.757085	0.997007	0.666663
C79	C	1.092452	0.226025	0.000002
C80	C	1.425785	0.559359	0.333336
C81	C	1.759118	0.892692	0.666669
N82	N	1.089635	-0.128096	-0.254857
N83	N	1.422968	0.205238	0.078477
N84	N	1.756301	0.538571	0.411810
C85	C	1.089620	-0.128096	0.656146
C86	C	1.422954	0.205237	0.989479
C87	C	1.756287	0.538570	1.322812
C88	C	1.089611	-0.128095	0.544494
C89	C	1.422944	0.205239	0.877828
C90	C	1.756278	0.538572	1.211161
C91	C	1.089609	-0.128088	0.455504
C92	C	1.422942	0.205245	0.788837
C93	C	1.756276	0.538579	1.122170
C94	C	1.089599	-0.128085	0.343845
C95	C	1.422932	0.205249	0.677179
C96	C	1.756266	0.538582	1.010512
