data_functionalizedCrystal
_audit_creation_method	'MofGen! by Chris Wilmer'
_symmetry_space_group_name_H-M	'P1'
_symmetry_Int_Tables_number	1
_symmetry_cell_setting	triclinic
loop_
_symmetry_equiv_pos_as_xyz
  x,y,z
_cell_length_a	18.366186
_cell_length_b	19.288835
_cell_length_c	10.489711
_cell_angle_alpha	96.174515
_cell_angle_beta	90.002491
_cell_angle_gamma	89.982476
loop_
_atom_site_label
_atom_site_type_symbol
_atom_site_fract_x
_atom_site_fract_y
_atom_site_fract_z
O1	O	0.060687	-0.922423	0.158929
O2	O	0.060656	-0.720302	0.180433
O3	O	0.060674	-0.825972	-0.016024
O4	O	0.060669	-0.816752	0.355386
O5	O	-0.060425	-0.825954	-0.016034
O6	O	-0.060443	-0.720284	0.180423
O7	O	-0.060413	-0.922404	0.158919
Zn8	Zn	-0.079655	-0.821341	0.169670
Zn9	Zn	0.079899	-0.821365	0.169683
O10	O	-0.060431	-0.816734	0.355377
C11	C	0.000103	-0.694411	0.179743
C12	C	0.000091	-0.617293	0.177685
N13	N	-0.188546	-0.821330	0.169660
C14	C	0.066103	-0.581093	0.176702
C15	C	0.066111	-0.508633	0.174754
C16	C	0.000102	-0.472378	0.173764
C17	C	-0.065919	-0.508586	0.174754
C18	C	-0.065924	-0.581044	0.176715
C19	C	-0.050461	-0.362525	0.095945
C20	C	-0.050453	-0.290069	0.093977
C21	C	0.000116	-0.248893	0.167722
C22	C	0.050689	-0.280184	0.243420
C23	C	0.050683	-0.352641	0.245380
C24	C	0.000100	-0.393809	0.171638
C25	C	0.066141	-0.134123	0.164629
C26	C	0.066145	-0.061661	0.162689
C27	C	-0.065886	-0.061617	0.162677
C28	C	-0.065889	-0.134077	0.164629
C29	C	0.000126	-0.170326	0.165599
C30	C	-0.226639	-0.868136	0.082712
C31	C	-0.302866	-0.868141	0.082706
C32	C	-0.340999	-0.821345	0.169671
C33	C	-0.302897	-0.774530	0.256626
C34	C	-0.226671	-0.774522	0.256621
C35	C	-0.461762	-0.812820	0.285888
C36	C	-0.537987	-0.812832	0.285894
C37	C	-0.576106	-0.821365	0.169687
C38	C	-0.537992	-0.829900	0.053468
C39	C	-0.461765	-0.829893	0.053462
C40	C	-0.423654	-0.821348	0.169686
C41	C	-0.696854	-0.868179	0.082725
C42	C	-0.773083	-0.868179	0.082717
C43	C	-0.773112	-0.774571	0.256649
C44	C	-0.696885	-0.774568	0.256645
C45	C	-0.658760	-0.821376	0.169685
N46	N	0.188790	-0.821382	0.169682
C47	C	0.000126	-0.825271	-0.063546
C48	C	0.000132	-0.823201	-0.205130
C49	C	0.000137	0.051706	0.159618
C50	C	0.000136	-0.025411	0.161701
C51	C	0.000135	-0.886748	-0.388966
C52	C	-0.059578	-0.854996	-0.296102
C53	C	0.059817	-0.854997	-0.296117
C54	C	-0.059644	-0.787726	-0.364519
C55	C	0.059804	-0.787736	-0.364543
C56	C	0.000077	-0.755936	-0.271706
C57	C	0.000119	-0.817435	0.402898
C58	C	0.000118	-0.819505	0.544482
H59	H	0.119859	-0.610603	0.177491
F60	F	-0.104287	-0.406340	0.017452
H61	H	-0.804159	-0.736467	0.327453
H62	H	-0.119681	-0.610518	0.177517
H63	H	0.119868	-0.479153	0.173955
F64	F	0.000070	-0.958986	-0.455566
H65	H	0.091859	-0.378115	0.307018
H66	H	-0.091628	-0.264598	0.032333
F67	F	0.104510	-0.236367	0.321915
H68	H	0.110281	-0.759315	-0.394910
H69	H	0.119895	-0.163638	0.165432
F70	F	0.125799	-0.892210	-0.256491
H71	H	-0.665811	-0.906291	0.011912
H72	H	-0.333887	-0.906257	0.011899
F73	F	-0.136149	-0.172606	0.165669
H74	H	-0.665868	-0.736457	0.327452
H75	H	-0.110052	-0.883441	-0.265768
F76	F	-0.125704	-0.750560	-0.403942
H77	H	0.119903	-0.032188	0.161896
F78	F	-0.136139	-0.023036	0.161634
F79	F	-0.136170	-0.469999	0.173707
F80	F	-0.421204	-0.838970	-0.070223
H81	H	0.000035	-0.700618	-0.220978
H82	H	-0.569014	-0.805887	0.380527
H83	H	-0.195600	-0.906248	0.011900
H84	H	-0.430731	-0.805859	0.380524
H85	H	-0.804098	-0.906292	0.011906
H86	H	-0.569027	-0.836848	-0.041160
F87	F	-0.343481	-0.724725	0.349177
H88	H	-0.195655	-0.736406	0.327426
