data_functionalizedCrystal
_audit_creation_method	'MofGen! by Chris Wilmer'
_symmetry_space_group_name_H-M	'P1'
_symmetry_Int_Tables_number	1
_symmetry_cell_setting	triclinic
loop_
_symmetry_equiv_pos_as_xyz
  x,y,z
_cell_length_a	18.215407
_cell_length_b	25.639239
_cell_length_c	18.215399
_cell_angle_alpha	89.969546
_cell_angle_beta	89.980650
_cell_angle_gamma	90.039134
loop_
_atom_site_label
_atom_site_type_symbol
_atom_site_fract_x
_atom_site_fract_y
_atom_site_fract_z
Zn1	Zn	1.124998	-0.208148	-0.416105
Zn2	Zn	1.124878	-0.295584	-0.293034
Zn3	Zn	1.001931	-0.208165	-0.293053
Zn4	Zn	1.001867	-0.295555	-0.416059
O5	O	1.063418	-0.251863	-0.354563
O6	O	1.227966	-0.219751	-0.399791
O7	O	1.108545	-0.284008	-0.190052
O8	O	1.018334	-0.134998	-0.309403
O9	O	1.227878	-0.283991	-0.309372
O10	O	1.108750	-0.134985	-0.399809
O11	O	1.018217	-0.219782	-0.190066
O12	O	0.898939	-0.219753	-0.309358
O13	O	1.018223	-0.283940	-0.519050
O14	O	0.898891	-0.283957	-0.399731
O15	O	1.108687	-0.219723	-0.519083
O16	O	1.108483	-0.368746	-0.309327
O17	O	1.018107	-0.368724	-0.399713
C18	C	0.872212	-0.251854	-0.354542
C19	C	0.790413	-0.251863	-0.354550
C20	C	0.602214	-0.285347	-0.401548
C21	C	0.525355	-0.285348	-0.401557
C22	C	0.525375	-0.218389	-0.307594
C23	C	0.602232	-0.218385	-0.307589
C24	C	0.640650	-0.251867	-0.354565
C25	C	0.486934	-0.251872	-0.354579
C26	C	0.403600	-0.251874	-0.354589
C27	C	0.723989	-0.251865	-0.354556
C28	C	1.063295	-0.387706	-0.354529
C29	C	1.063309	-0.445820	-0.354539
C30	C	1.110600	-0.806182	-0.307579
C31	C	1.110628	-0.860786	-0.307589
O32	O	1.150708	-0.889022	-0.267625
N33	N	1.063548	-0.888102	-0.354612
C34	C	1.016441	-0.860811	-0.401633
O35	O	0.976398	-0.889060	-0.441631
C36	C	1.016417	-0.806208	-0.401626
C37	C	1.063495	-0.778894	-0.354595
C38	C	1.157675	-0.778868	-0.260553
C39	C	1.157645	-0.724267	-0.260542
C40	C	1.110540	-0.696980	-0.307558
C41	C	1.063465	-0.724294	-0.354584
C42	C	0.969314	-0.778918	-0.448650
C43	C	0.969294	-0.724311	-0.448640
C44	C	1.016373	-0.696998	-0.401609
C45	C	1.016331	-0.642406	-0.401590
N46	N	1.063411	-0.615090	-0.354567
C47	C	1.110516	-0.642377	-0.307551
C48	C	1.016496	-0.975482	-0.401644
C49	C	1.016516	-1.030084	-0.401648
C50	C	1.110705	-1.030055	-0.307605
C51	C	1.110681	-0.975452	-0.307598
C52	C	1.063577	-0.948166	-0.354621
C53	C	1.110450	-0.527712	-0.307532
C54	C	1.110414	-0.473107	-0.307523
C55	C	1.016228	-0.473141	-0.401569
C56	C	1.016261	-0.527741	-0.401575
C57	C	1.063378	-0.555026	-0.354554
O58	O	0.976273	-0.614136	-0.441536
O59	O	1.150559	-0.614122	-0.267567
C60	C	1.255371	-0.251872	-0.354584
C61	C	1.337170	-0.251876	-0.354594
C62	C	1.063462	-0.251826	-0.546516
C63	C	1.063480	-0.251810	-0.628315
C64	C	1.063563	-0.115490	-0.354613
C65	C	1.063624	-0.057376	-0.354634
C66	C	1.110612	-0.218327	-0.893391
C67	C	1.110603	-0.218341	-0.816532
C68	C	1.016408	-0.285218	-0.816487
C69	C	1.016421	-0.285206	-0.893344
C70	C	1.063522	-0.251757	-0.931795
C71	C	1.063500	-0.251784	-0.778078
C72	C	1.063490	-0.251799	-0.694745
C73	C	1.063533	-0.251742	-1.015134
C74	C	1.063418	-0.251862	-0.163357
C75	C	1.063542	-0.251731	-0.081558
H76	H	0.633528	-0.191118	-0.269329
N77	N	0.486132	-0.184200	-0.259596
N78	N	0.494687	-0.187610	-0.191680
H79	H	0.466973	-0.163464	-0.157778
H80	H	0.494064	-0.312610	-0.439817
N81	N	0.921224	-0.806816	-0.496685
N82	N	0.874350	-0.837330	-0.470766
H83	H	0.840384	-0.857032	-0.504693
H84	H	0.633491	-0.312609	-0.439801
N85	N	1.158506	-0.445216	-0.259471
N86	N	1.200560	-0.469590	-0.217498
H87	H	1.234525	-0.449894	-0.183562
N88	N	0.968305	-0.319348	-0.932577
N89	N	0.921435	-0.300943	-0.975464
H90	H	0.887455	-0.325055	-1.003173
H91	H	1.148818	-0.549921	-0.269245
H92	H	1.196037	-0.801079	-0.222266
H93	H	1.195983	-0.702032	-0.222248
H94	H	1.148964	-0.191091	-0.924695
H95	H	1.148949	-0.191119	-0.785268
H96	H	0.978059	-0.312449	-0.785172
N97	N	1.158773	-0.947562	-0.259551
N98	N	1.200821	-0.971939	-0.217575
H99	H	1.234789	-0.952245	-0.183639
N100	N	1.158817	-1.057942	-0.259580
N101	N	1.158828	-1.106694	-0.259600
H102	H	1.192803	-1.126392	-0.225684
H103	H	0.930937	-0.702097	-0.486935
N104	N	0.968410	-1.057973	-0.449681
N105	N	0.926355	-1.033596	-0.491651
H106	H	0.892380	-1.053290	-0.525579
H107	H	0.978133	-0.953268	-0.439934
H108	H	0.977874	-0.450915	-0.439847
N109	N	0.968156	-0.555636	-0.449607
N110	N	0.926096	-0.531264	-0.491576
H111	H	0.892123	-0.550961	-0.525502
