data_functionalizedCrystal
_audit_creation_method	'MofGen! by Chris Wilmer'
_symmetry_space_group_name_H-M	'P1'
_symmetry_Int_Tables_number	1
_symmetry_cell_setting	triclinic
loop_
_symmetry_equiv_pos_as_xyz
  x,y,z
_cell_length_a	17.077404
_cell_length_b	13.032721
_cell_length_c	17.077395
_cell_angle_alpha	97.154458
_cell_angle_beta	89.982416
_cell_angle_gamma	97.203039
loop_
_atom_site_label
_atom_site_type_symbol
_atom_site_fract_x
_atom_site_fract_y
_atom_site_fract_z
Zn1	Zn	1.160336	-0.416103	-0.483569
Zn2	Zn	1.660336	0.083897	0.016431
Zn3	Zn	1.143582	-0.590865	-0.368971
Zn4	Zn	1.643582	-0.090865	0.131029
Zn5	Zn	1.029074	-0.416130	-0.352315
Zn6	Zn	1.529074	0.083870	0.147685
Zn7	Zn	1.012372	-0.590801	-0.500184
Zn8	Zn	1.512372	-0.090801	-0.000184
O9	O	1.086341	-0.503474	-0.426260
O10	O	1.586341	-0.003474	0.073740
O11	O	1.267959	-0.439301	-0.468384
O12	O	1.767959	0.060699	0.031616
O13	O	1.128371	-0.567724	-0.256918
O14	O	1.628371	-0.067724	0.243082
O15	O	1.060487	-0.269887	-0.355802
O16	O	1.560487	0.230113	0.144198
O17	O	1.255650	-0.567698	-0.384190
O18	O	1.755650	-0.067698	0.115810
O19	O	1.156924	-0.269868	-0.452234
O20	O	1.656924	0.230132	0.047766
O21	O	1.044242	-0.439347	-0.244681
O22	O	1.544242	0.060653	0.255319
O23	O	0.917013	-0.439284	-0.371913
O24	O	1.417013	0.060716	0.128087
O25	O	1.032022	-0.567588	-0.607823
O26	O	1.532022	-0.067588	-0.107823
O27	O	0.904742	-0.567614	-0.480552
O28	O	1.404742	-0.067614	0.019448
O29	O	1.140730	-0.439239	-0.595616
O30	O	1.640730	0.060761	-0.095616
O31	O	1.112176	-0.737095	-0.400300
O32	O	1.612176	-0.237095	0.099700
O33	O	1.015777	-0.737048	-0.496702
O34	O	1.515777	-0.237048	0.003298
C35	C	0.882396	-0.503446	-0.426228
C36	C	1.382396	-0.003446	0.073772
C37	C	0.795145	-0.503459	-0.426236
C38	C	1.295145	-0.003459	0.073764
C39	C	0.425721	-0.436767	-0.470223
C40	C	0.925721	0.063233	0.029777
C41	C	0.507702	-0.436760	-0.470214
C42	C	1.007702	0.063240	0.029786
C43	C	0.542292	-0.503497	-0.426282
C44	C	1.042292	-0.003497	0.073718
C45	C	0.494896	-0.570253	-0.382362
C46	C	0.994896	-0.070253	0.117638
C47	C	0.412916	-0.570265	-0.382377
C48	C	0.912916	-0.070265	0.117623
C49	C	0.665769	-0.570221	-0.382334
C50	C	1.165769	-0.070221	0.117666
C51	C	0.747755	-0.570208	-0.382318
C52	C	1.247755	-0.070208	0.117682
C53	C	0.760555	-0.436716	-0.470171
C54	C	1.260555	0.063284	0.029829
C55	C	0.678575	-0.436728	-0.470185
C56	C	1.178575	0.063272	0.029815
C57	C	0.631185	-0.503483	-0.426265
C58	C	1.131185	-0.003483	0.073735
C59	C	1.060368	-0.774990	-0.452129
C60	C	1.560368	-0.274990	0.047871
C61	C	1.049328	-0.891145	-0.463222
C62	C	1.549328	-0.391145	0.036778
C63	C	1.092145	-0.942919	-0.420505
C64	C	1.592145	-0.442919	0.079495
C65	C	1.080735	-1.062972	-0.431970
C66	C	1.580735	-0.562972	0.068030
C67	C	1.291083	-0.503504	-0.426292
C68	C	1.791083	-0.003504	0.073708
C69	C	1.378331	-0.503516	-0.426305
C70	C	1.878331	-0.003516	0.073695
C71	C	1.086382	-0.503403	-0.630997
C72	C	1.586382	-0.003403	-0.130997
C73	C	1.086399	-0.503373	-0.718244
C74	C	1.586399	-0.003373	-0.218244
C75	C	1.112438	-0.230899	-0.400307
C76	C	1.612438	0.269101	0.099693
C77	C	1.123558	-0.114744	-0.389247
C78	C	1.623558	0.385256	0.110753
C79	C	1.143104	-0.436400	-1.087691
C80	C	1.643104	0.063600	-0.587691
C81	C	1.143084	-0.436436	-1.005713
C82	C	1.643084	0.063564	-0.505713
C83	C	1.086473	-0.503274	-0.971084
C84	C	1.586473	-0.003274	-0.471084
C85	C	1.029882	-0.570088	-1.018437
C86	C	1.529882	-0.070088	-0.518437
C87	C	1.029906	-0.570056	-1.100413
C88	C	1.529906	-0.070056	-0.600413
C89	C	1.029836	-0.570148	-0.847572
C90	C	1.529836	-0.070148	-0.347572
C91	C	1.029811	-0.570179	-0.765591
C92	C	1.529811	-0.070179	-0.265591
C93	C	1.143014	-0.436529	-0.752873
C94	C	1.643014	0.063471	-0.252873
C95	C	1.143038	-0.436497	-0.834849
C96	C	1.643038	0.063503	-0.334849
C97	C	1.086446	-0.503309	-0.882196
C98	C	1.586446	-0.003309	-0.382196
C99	C	1.086353	-0.503470	-0.222311
C100	C	1.586353	-0.003470	0.277689
C101	C	1.086516	-0.503206	-0.135037
C102	C	1.586516	-0.003206	0.364963
H103	H	0.775915	-0.624554	-0.346548
H104	H	1.275915	-0.124554	0.153452
H105	H	0.983827	-0.624457	-1.138962
H106	H	1.483827	-0.124457	-0.638962
H107	H	1.168668	-1.070196	-0.344189
H108	H	1.668668	-0.570196	0.155811
N109	N	1.151894	-0.883910	-0.360824
N110	N	1.651894	-0.383910	0.139176
H111	H	1.124285	-0.838687	-0.320130
H112	H	1.624285	-0.338687	0.179870
H113	H	1.178886	-0.935017	-0.333950
H114	H	1.678886	-0.435017	0.166050
H115	H	1.189165	-0.382039	-0.967167
H116	H	1.689165	0.117961	-0.467167
N117	N	0.641266	-0.364731	-0.517551
N118	N	1.141266	0.135269	-0.017551
H119	H	0.683726	-0.322437	-0.545370
H120	H	1.183726	0.177563	-0.045370
H121	H	0.603192	-0.407328	-0.557890
H122	H	1.103192	0.092672	-0.057890
N123	N	0.989580	-0.950156	-0.522904
N124	N	1.489580	-0.450156	-0.022904
H125	H	0.935282	-0.931288	-0.508868
H126	H	1.435282	-0.431288	-0.008868
H127	H	1.003593	-0.931135	-0.577178
H128	H	1.503593	-0.431135	-0.077178
N129	N	1.020989	-1.121969	-0.491664
N130	N	1.520989	-0.621969	0.008336
H131	H	1.021308	-1.199367	-0.491393
H132	H	1.521308	-0.699367	0.008607
H133	H	0.966723	-1.103019	-0.477595
H134	H	1.466723	-0.603019	0.022405
N135	N	1.204168	-0.364305	-1.125029
N136	N	1.704168	0.135695	-0.625029
H137	H	1.236487	-0.406767	-1.163089
H138	H	1.736487	0.093233	-0.663089
H139	H	1.176863	-0.315866	-1.154381
H140	H	1.676863	0.184134	-0.654381
H141	H	0.546284	-0.382410	-0.505979
H142	H	1.046284	0.117590	-0.005979
H143	H	1.189133	-0.382067	-0.863041
H144	H	1.689133	0.117933	-0.363041
H145	H	1.189092	-0.382126	-0.714319
H146	H	1.689092	0.117874	-0.214319
N147	N	0.968765	-0.642283	-0.728238
N148	N	1.468765	-0.142283	-0.228238
H149	H	0.932925	-0.684615	-0.770671
H150	H	1.432925	-0.184615	-0.270671
H151	H	0.996095	-0.690650	-0.698838
H152	H	1.496095	-0.190650	-0.198838
H153	H	0.397565	-0.382416	-0.505992
H154	H	0.897565	0.117584	-0.005992
N155	N	0.811664	-0.364704	-0.517535
N156	N	1.311664	0.135296	-0.017535
H157	H	0.868847	-0.374821	-0.510862
H158	H	1.368847	0.125179	-0.010862
H159	H	0.795799	-0.381057	-0.575139
H160	H	1.295799	0.118943	-0.075139
H161	H	0.983755	-0.624557	-0.886121
H162	H	1.483755	-0.124557	-0.386121
N163	N	0.614647	-0.642215	-0.334965
N164	N	1.114647	-0.142215	0.165035
H165	H	0.621778	-0.716904	-0.354172
H166	H	1.121778	-0.216904	0.145828
H167	H	0.630472	-0.625791	-0.277354
H168	H	1.130472	-0.125791	0.222646
N169	N	0.532197	-0.642235	-0.334975
N170	N	1.032197	-0.142235	0.165025
H171	H	0.561595	-0.690714	-0.371424
H172	H	1.061595	-0.190714	0.128576
H173	H	0.570217	-0.599618	-0.294595
H174	H	1.070217	-0.099618	0.205405
N175	N	0.361798	-0.642262	-0.335012
N176	N	0.861798	-0.142262	0.164988
H177	H	0.396149	-0.684537	-0.307178
H178	H	0.896149	-0.184537	0.192822
H179	H	0.331837	-0.599666	-0.294686
H180	H	0.831837	-0.099666	0.205314
N181	N	0.968821	-0.642183	-0.981096
N182	N	1.468821	-0.142183	-0.481096
H183	H	0.996071	-0.690630	-0.951696
H184	H	1.496071	-0.190630	-0.451696
H185	H	0.936517	-0.599646	-0.943077
H186	H	1.436517	-0.099646	-0.443077
