data_functionalizedCrystal
_audit_creation_method	'MofGen! by Chris Wilmer'
_symmetry_space_group_name_H-M	'P1'
_symmetry_Int_Tables_number	1
_symmetry_cell_setting	triclinic
loop_
_symmetry_equiv_pos_as_xyz
  x,y,z
_cell_length_a	14.908571
_cell_length_b	14.908308
_cell_length_c	14.908520
_cell_angle_alpha	83.639235
_cell_angle_beta	89.794039
_cell_angle_gamma	90.175053
loop_
_atom_site_label
_atom_site_type_symbol
_atom_site_fract_x
_atom_site_fract_y
_atom_site_fract_z
Zn1	Zn	1.316651	-0.613065	0.470613
Zn2	Zn	1.316549	-0.470429	0.613252
Zn3	Zn	1.176020	-0.453125	0.453291
Zn4	Zn	1.157642	-0.612023	0.612180
O5	O	1.241715	-0.537161	0.537334
O6	O	1.441995	-0.601822	0.497231
O7	O	1.305556	-0.341941	0.585232
O8	O	1.202409	-0.467536	0.329399
O9	O	1.441920	-0.497029	0.602028
O10	O	1.305730	-0.585043	0.342124
O11	O	1.202310	-0.329228	0.467710
O12	O	1.048225	-0.466525	0.466671
O13	O	1.171086	-0.738354	0.600202
O14	O	1.034722	-0.583267	0.583406
O15	O	1.287909	-0.739120	0.496192
O16	O	1.287736	-0.496018	0.739300
O17	O	1.170987	-0.600046	0.738513
C18	C	1.008970	-0.522906	0.523043
C19	C	0.909397	-0.516830	0.516953
C20	C	1.227459	-0.772372	0.550010
C21	C	1.221383	-0.872606	0.555411
C22	C	0.708277	-0.626831	0.627234
C23	C	0.614720	-0.621125	0.621514
C24	C	0.628723	-0.499719	0.499789
C25	C	0.722281	-0.505424	0.505509
C26	C	0.762054	-0.568981	0.569235
C27	C	0.855613	-0.574682	0.574958
C28	C	0.869615	-0.453280	0.453230
C29	C	0.776058	-0.447575	0.447510
C30	C	1.331614	-1.061752	0.457236
C31	C	1.325908	-1.155930	0.462308
C32	C	1.204264	-1.155141	0.570623
C33	C	1.209969	-1.060963	0.565551
C34	C	1.273647	-1.014272	0.508856
C35	C	1.279356	-0.920093	0.503789
C36	C	1.157708	-0.919305	0.612099
C37	C	1.152002	-1.013483	0.617171
C38	C	1.475370	-0.551472	0.551681
C39	C	1.574939	-0.557571	0.557795
C40	C	1.227379	-0.549818	0.771629
C41	C	1.221326	-0.555268	0.871868
C42	C	1.255972	-0.302864	0.524646
C43	C	1.262236	-0.202628	0.519001
C44	C	1.256131	-0.524476	0.302127
C45	C	1.262274	-0.519070	0.201896
C46	C	1.331634	-0.457284	1.060998
C47	C	1.325950	-0.462402	1.155181
C48	C	1.204279	-0.570626	1.154420
C49	C	1.209963	-0.565508	1.060237
C50	C	1.273642	-0.508834	1.013529
C51	C	1.279321	-0.503712	0.919343
C52	C	1.157655	-0.611940	0.918584
C53	C	1.151970	-0.617058	1.012768
H54	H	0.887995	-0.626432	0.626848
H55	H	1.383467	-1.023736	0.411077
O56	O	1.382266	-0.412446	1.201439
C57	C	1.363597	-0.429112	1.294584
H58	H	1.329166	-0.497560	1.309383
H59	H	1.428924	-0.429158	1.334098
H60	H	1.317607	-0.374098	1.315591
H61	H	1.373109	-1.194585	0.420271
H62	H	1.100156	-1.051511	0.663328
H63	H	1.152440	-0.616773	1.192467
O64	O	1.090231	-0.672163	1.058253
C65	C	1.134364	-0.736546	1.118915
H66	H	1.203357	-0.709730	1.135428
H67	H	1.093136	-0.749962	1.183586
H68	H	1.142284	-0.802009	1.086786
H69	H	0.570938	-0.668234	0.668742
H70	H	1.110431	-0.653913	0.879924
H71	H	0.740661	-0.678577	0.679126
H72	H	1.110509	-0.880636	0.654134
H73	H	0.743661	-0.395831	0.395624
H74	H	1.152420	-1.193173	0.616780
H75	H	1.331207	-0.882079	0.457627
O76	O	1.341133	-0.448540	0.874058
C77	C	1.325680	-0.358701	0.891065
H78	H	1.287231	-0.358411	0.957266
H79	H	1.392623	-0.322459	0.896036
H80	H	1.284690	-0.322588	0.833648
O81	O	0.589933	-0.438039	0.437940
C82	C	0.495826	-0.445447	0.445299
H83	H	0.477016	-0.477817	0.515754
H84	H	0.464705	-0.375417	0.433216
H85	H	0.469660	-0.489096	0.392879
O86	O	0.921947	-0.397048	0.397012
C87	C	0.976435	-0.344773	0.448433
H88	H	0.984364	-0.381022	0.519385
H89	H	1.045194	-0.334766	0.415058
H90	H	0.943809	-0.276263	0.452435
O91	O	1.393559	-0.402212	1.015763
C92	C	1.443506	-0.357784	1.077855
H93	H	1.440295	-0.398559	1.147156
H94	H	1.516318	-0.351056	1.054393
H95	H	1.414295	-0.287813	1.082227
