data_functionalizedCrystal
_audit_creation_method	'MofGen! by Chris Wilmer'
_symmetry_space_group_name_H-M	'P1'
_symmetry_Int_Tables_number	1
_symmetry_cell_setting	triclinic
loop_
_symmetry_equiv_pos_as_xyz
  x,y,z
_cell_length_a	11.792254
_cell_length_b	15.944564
_cell_length_c	10.868271
_cell_angle_alpha	90.006315
_cell_angle_beta	89.995741
_cell_angle_gamma	96.148734
loop_
_atom_site_label
_atom_site_type_symbol
_atom_site_fract_x
_atom_site_fract_y
_atom_site_fract_z
O1	O	1.505958	-0.115178	-0.102325
O2	O	2.005958	0.384822	0.397675
O3	O	1.175522	-0.127032	-0.102328
O4	O	1.675522	0.372968	0.397672
O5	O	1.349756	0.001128	-0.102314
O6	O	1.849756	0.501128	0.397686
O7	O	1.331724	-0.243338	-0.102338
O8	O	1.831724	0.256662	0.397662
O9	O	1.349742	0.001133	0.102330
O10	O	1.849742	0.501133	0.602330
O11	O	1.175508	-0.127027	0.102317
O12	O	1.675508	0.372973	0.602317
O13	O	1.505944	-0.115173	0.102320
O14	O	2.005944	0.384827	0.602320
Zn15	Zn	1.340723	-0.121099	0.134810
Zn16	Zn	1.840723	0.378901	0.634810
Zn17	Zn	1.340742	-0.121106	-0.134818
Zn18	Zn	1.840742	0.378894	0.365182
O19	O	1.331710	-0.243333	0.102307
O20	O	1.831710	0.256667	0.602307
C21	C	1.133230	-0.126283	-0.000006
C22	C	1.633230	0.373717	0.499994
C23	C	1.007235	-0.124048	-0.000007
C24	C	1.507235	0.375952	0.499993
C25	C	0.904914	-0.122232	-0.000012
C26	C	1.404914	0.377768	0.499988
C27	C	0.776546	-0.119961	-0.000012
C28	C	1.276546	0.380039	0.499988
C29	C	1.348998	0.032428	0.000008
C30	C	1.848998	0.532428	0.500008
C31	C	1.346746	0.125683	0.000010
C32	C	1.846746	0.625683	0.500010
C33	C	1.233360	0.341054	-0.000007
C34	C	1.733360	0.841054	0.499993
C35	C	1.285996	0.401834	0.100896
C36	C	1.785996	0.901834	0.600896
C37	C	1.342672	0.296427	0.000001
C38	C	1.842672	0.796427	0.500001
C39	C	1.286036	0.401813	-0.100868
C40	C	1.786036	0.901813	0.399132
C41	C	1.338729	0.461356	-0.000013
C42	C	1.838729	0.961356	0.499987
C43	C	1.395337	0.355979	0.100987
C44	C	1.895337	0.855979	0.600987
C45	C	1.395362	0.355951	-0.100867
C46	C	1.895362	0.855951	0.399133
C47	C	1.448077	0.416713	0.000061
C48	C	1.948077	0.916713	0.500061
C49	C	1.344940	0.201415	0.000010
C50	C	1.844940	0.701415	0.500010
C51	C	1.336469	0.556367	-0.000013
C52	C	1.836469	1.056367	0.499987
C53	C	1.548235	-0.115922	-0.000005
C54	C	2.048235	0.384078	0.499995
C55	C	1.674230	-0.118157	-0.000012
C56	C	2.174230	0.381843	0.499988
N57	N	1.340719	-0.121094	0.318824
N58	N	1.840719	0.378906	0.818824
C59	C	1.332452	0.725366	-0.000017
C60	C	1.832452	1.225366	0.499983
C61	C	1.334658	0.632106	-0.000022
C62	C	1.834658	1.132106	0.499978
N63	N	1.340756	-0.121104	-0.318832
N64	N	1.840756	0.378896	0.181168
C65	C	1.340736	-0.121104	0.569830
C66	C	1.840736	0.378896	1.069830
C67	C	1.340723	-0.121101	0.430153
C68	C	1.840723	0.378899	0.930153
H69	H	1.142631	0.308159	0.000093
H70	H	1.642631	0.808159	0.500093
F71	F	1.455751	0.329360	-0.212372
F72	F	1.955751	0.829360	0.287628
H73	H	1.441527	0.335780	0.186386
H74	H	1.941527	0.835780	0.686386
F75	F	1.566769	0.459516	0.000133
F76	F	2.066769	0.959516	0.500133
F77	F	1.225586	0.428345	-0.212359
F78	F	1.725586	0.928345	0.287641
H79	H	1.239755	0.422155	0.186200
H80	H	1.739755	0.922155	0.686200
