data_functionalizedCrystal
_audit_creation_method	'MofGen! by Chris Wilmer'
_symmetry_space_group_name_H-M	'P1'
_symmetry_Int_Tables_number	1
_symmetry_cell_setting	triclinic
loop_
_symmetry_equiv_pos_as_xyz
  x,y,z
_cell_length_a	14.908571
_cell_length_b	16.120531
_cell_length_c	14.908308
_cell_angle_alpha	95.982173
_cell_angle_beta	89.824947
_cell_angle_gamma	90.206159
loop_
_atom_site_label
_atom_site_type_symbol
_atom_site_fract_x
_atom_site_fract_y
_atom_site_fract_z
Zn1	Zn	1.320044	0.434918	0.609928
Zn2	Zn	1.820044	0.934918	1.109928
Zn3	Zn	1.320971	0.566738	0.466341
Zn4	Zn	1.820971	1.066738	0.966341
Zn5	Zn	1.179289	0.418911	0.450104
Zn6	Zn	1.679289	0.918911	0.950104
Zn7	Zn	1.162056	0.565748	0.607942
Zn8	Zn	1.662056	1.065748	1.107942
O9	O	1.245590	0.496579	0.533579
O10	O	1.745590	0.996579	1.033579
O11	O	1.445580	0.459518	0.598508
O12	O	1.945580	0.959518	1.098508
O13	O	1.309776	0.540844	0.338040
O14	O	1.809776	1.040844	0.838040
O15	O	1.204784	0.304415	0.465340
O16	O	1.704784	0.804415	0.965340
O17	O	1.446261	0.556366	0.493015
O18	O	1.946261	1.056366	0.993015
O19	O	1.308197	0.316175	0.582763
O20	O	1.808197	0.816175	1.082763
O21	O	1.205683	0.432235	0.326110
O22	O	1.705683	0.932235	0.826110
O23	O	1.051590	0.431275	0.463414
O24	O	1.551590	0.931275	0.963414
O25	O	1.175414	0.554678	0.734353
O26	O	1.675414	1.054678	1.234353
O27	O	1.038929	0.539156	0.579378
O28	O	1.538929	1.039156	1.079378
O29	O	1.291487	0.458558	0.735812
O30	O	1.791487	0.958558	1.235812
O31	O	1.293066	0.683226	0.491090
O32	O	1.793066	1.183226	0.991090
O33	O	1.176312	0.682499	0.595123
O34	O	1.676312	1.182499	1.095123
C35	C	1.012741	0.483372	0.519419
C36	C	1.512741	0.983372	1.019419
C37	C	0.913125	0.477743	0.513384
C38	C	1.413125	0.977743	1.013384
C39	C	0.712800	0.579660	0.622649
C40	C	1.212800	1.079660	1.122649
C41	C	0.619201	0.574374	0.616982
C42	C	1.119201	1.074374	1.116982
C43	C	0.632327	0.461882	0.496387
C44	C	1.132327	0.961882	0.996387
C45	C	0.725926	0.467168	0.502054
C46	C	1.225926	0.967168	1.002054
C47	C	0.766159	0.526060	0.565187
C48	C	1.266159	1.026060	1.065187
C49	C	0.859759	0.531349	0.570849
C50	C	1.359759	1.031349	1.070849
C51	C	0.872883	0.418853	0.450259
C52	C	1.372883	0.918853	0.950259
C53	C	0.779285	0.413568	0.444592
C54	C	1.279285	0.913568	0.944592
C55	C	1.232943	0.713103	0.544674
C56	C	1.732943	1.213103	1.044674
C57	C	1.227613	0.805739	0.549456
C58	C	1.727613	1.305739	1.049456
C59	C	1.217885	0.975347	0.558205
C60	C	1.717885	1.475347	1.058205
C61	C	1.273331	1.016969	0.508904
C62	C	1.773331	1.516969	1.008904
C63	C	1.267919	1.111345	0.513772
C64	C	1.767919	1.611345	1.013772
C65	C	1.223297	0.880963	0.553338
C66	C	1.723297	1.380963	1.053338
C67	C	1.479348	0.509838	0.547794
C68	C	1.979348	1.009838	1.047794
C69	C	1.578961	0.515488	0.553852
C70	C	2.078961	1.015488	1.053852
C71	C	1.231425	0.508293	0.768706
C72	C	1.731425	1.008293	1.268706
C73	C	1.225388	0.513285	0.868903
C74	C	1.725388	1.013285	1.368903
C75	C	1.258278	1.279209	0.522443
C76	C	1.758278	1.779209	1.022443
C77	C	1.263606	1.186572	0.517650
C78	C	1.763606	1.686572	1.017650
C79	C	1.259755	0.484853	0.299366
C80	C	1.759755	0.984853	0.799366
C81	C	1.265979	0.479636	0.199168
C82	C	1.765979	0.979636	0.699168
C83	C	1.334911	0.422556	1.058704
C84	C	1.834911	0.922556	1.558704
C85	C	1.329242	0.427243	1.152848
C86	C	1.829242	0.927243	1.652848
C87	C	1.208378	0.527343	1.151337
C88	C	1.708378	1.027343	1.651337
C89	C	1.214047	0.522655	1.057193
C90	C	1.714047	1.022655	1.557193
C91	C	1.277316	0.470261	1.010880
C92	C	1.777316	0.970261	1.510880
C93	C	1.282989	0.465578	0.916734
C94	C	1.782989	0.965578	1.416734
C95	C	1.162121	0.565673	0.915224
C96	C	1.662121	1.065673	1.415224
C97	C	1.156453	0.570360	1.009368
C98	C	1.656453	1.070360	1.509368
H99	H	1.324864	0.981723	0.463040
H100	H	1.824864	1.481723	0.963040
N101	N	1.149615	1.022021	0.618942
N102	N	1.649615	1.522021	1.118942
H103	H	1.160441	1.010888	0.683444
H104	H	1.660441	1.510888	1.183444
H105	H	1.155409	1.083782	0.613771
H106	H	1.655409	1.583782	1.113771
N107	N	1.351230	0.409077	0.866778
N108	N	1.851230	0.909077	1.366778
H109	H	1.339807	0.349558	0.879261
H110	H	1.839807	0.849558	1.379261
H111	H	1.346049	0.413422	0.799900
H112	H	1.846049	0.913422	1.299900
N113	N	1.403155	0.366059	1.008746
N114	N	1.903155	0.866059	1.508746
H115	H	1.438785	0.336551	1.053330
H116	H	1.938785	0.836551	1.553330
H117	H	1.371285	0.323477	0.965492
H118	H	1.871285	0.823477	1.465492
H119	H	0.892515	0.579303	0.622253
H120	H	1.392515	1.079303	1.122253
H121	H	1.376139	0.388394	1.191783
H122	H	1.876139	0.888394	1.691783
N123	N	0.756202	0.643183	0.690728
N124	N	1.256202	1.143183	1.190728
H125	H	0.708196	0.676341	0.726268
H126	H	1.208196	1.176341	1.226268
H127	H	0.794504	0.613597	0.733122
H128	H	1.294504	1.113597	1.233122
N129	N	1.140125	0.583815	1.201315
N130	N	1.640125	1.083815	1.701315
H131	H	1.171920	0.626441	1.244582
H132	H	1.671920	1.126441	1.744582
H133	H	1.104497	0.613271	1.156691
H134	H	1.604497	1.113271	1.656691
N135	N	0.561648	0.632187	0.678957
N136	N	1.061648	1.132187	1.178957
H137	H	0.601342	0.670295	0.719808
H138	H	1.101342	1.170295	1.219808
H139	H	0.522778	0.666677	0.641816
H140	H	1.022778	1.166677	1.141816
H141	H	1.104939	0.613017	1.047089
H142	H	1.604939	1.113017	1.547089
N143	N	0.588926	0.398395	0.428269
N144	N	1.088926	0.898395	0.928269
H145	H	0.521535	0.403192	0.433392
H146	H	1.021535	0.903192	0.933392
H147	H	0.608412	0.409029	0.365531
H148	H	1.108412	0.909029	0.865531
H149	H	1.115226	0.604520	0.876276
H150	H	1.615226	1.104520	1.376276
H151	H	0.916338	0.375210	0.403467
H152	H	1.416338	0.875210	0.903467
N153	N	0.735888	0.350068	0.376484
N154	N	1.235888	0.850068	0.876484
H155	H	0.668497	0.354857	0.381606
H156	H	1.168497	0.854857	0.881606
H157	H	0.755372	0.360690	0.313741
H158	H	1.255372	0.860690	0.813741
