data_functionalizedCrystal
_audit_creation_method	'MofGen! by Chris Wilmer'
_symmetry_space_group_name_H-M	'P1'
_symmetry_Int_Tables_number	1
_symmetry_cell_setting	triclinic
loop_
_symmetry_equiv_pos_as_xyz
  x,y,z
_cell_length_a	17.699083
_cell_length_b	22.010155
_cell_length_c	17.699083
_cell_angle_alpha	90.002359
_cell_angle_beta	96.716984
_cell_angle_gamma	89.997567
loop_
_atom_site_label
_atom_site_type_symbol
_atom_site_fract_x
_atom_site_fract_y
_atom_site_fract_z
O1	O	1.004081	-0.050449	-0.095700
O2	O	0.783703	-0.050471	-0.108153
O3	O	0.900118	-0.050445	0.008263
O4	O	0.887666	-0.050475	-0.212116
O5	O	0.900097	0.050606	0.008244
O6	O	0.783682	0.050580	-0.108171
O7	O	1.004060	0.050601	-0.095719
Cu8	Cu	0.893869	0.059817	-0.101947
Cu9	Cu	0.893894	-0.059687	-0.101925
O10	O	0.887645	0.050575	-0.212134
C11	C	0.755495	0.000052	-0.107716
C12	C	0.671477	0.000045	-0.106377
N13	N	0.893857	0.143870	-0.101961
C14	C	0.622856	0.000035	-0.174711
C15	C	0.543913	0.000043	-0.173448
C16	C	0.513592	0.000057	-0.103852
C17	C	0.562219	0.000068	-0.035513
C18	C	0.641161	0.000064	-0.036776
C19	C	0.243856	0.000083	-0.030418
C20	C	0.164908	0.000085	-0.029160
C21	C	0.146608	0.000063	-0.167090
C22	C	0.225550	0.000059	-0.168353
C23	C	0.274170	0.000074	-0.100015
C24	C	0.359769	0.000066	-0.101384
C25	C	0.427995	0.000060	-0.102481
C26	C	0.945445	0.563660	-0.050389
C27	C	0.945448	0.627268	-0.050385
O28	O	0.989281	0.660169	-0.006543
N29	N	0.893893	0.659077	-0.101916
C30	C	0.842325	0.627274	-0.153450
O31	O	0.798473	0.660171	-0.197280
C32	C	0.842319	0.563668	-0.153450
C33	C	0.893883	0.531863	-0.101921
C34	C	0.997004	0.531855	0.001137
C35	C	0.997002	0.468252	0.001131
C36	C	0.945440	0.436454	-0.050401
C37	C	0.893880	0.468259	-0.101926
C38	C	0.790748	0.531867	-0.204980
C39	C	0.790746	0.468256	-0.204975
C40	C	0.842310	0.436451	-0.153446
C41	C	0.842315	0.372858	-0.153464
N42	N	0.893871	0.341050	-0.101932
C43	C	0.945433	0.372848	-0.050401
C44	C	0.842342	0.760852	-0.153444
C45	C	0.842351	0.824457	-0.153448
C46	C	0.945474	0.824447	-0.050382
C47	C	0.945467	0.760840	-0.050382
C48	C	0.893897	0.729044	-0.101913
C49	C	0.945424	0.239276	-0.050417
C50	C	0.945419	0.175667	-0.050430
C51	C	0.842294	0.175684	-0.153493
C52	C	0.842301	0.239287	-0.153484
C53	C	0.893869	0.271082	-0.101940
O54	O	0.798503	0.339917	-0.197281
O55	O	0.989272	0.339943	-0.006571
C56	C	1.032268	0.000077	-0.096156
C57	C	1.116286	0.000080	-0.097494
C58	C	0.899662	0.000083	0.036451
C59	C	0.898323	0.000090	0.120469
N60	N	0.893911	0.856261	-0.101913
C61	C	0.966656	0.000102	0.169090
C62	C	0.965394	0.000103	0.248033
C63	C	0.895798	0.000097	0.278354
C64	C	0.827459	0.000084	0.229727
C65	C	0.828722	0.000079	0.150785
C66	C	0.822364	0.000106	0.548090
C67	C	0.821106	0.000114	0.627038
C68	C	0.959036	0.000131	0.645338
C69	C	0.960299	0.000125	0.566396
C70	C	0.891961	0.000109	0.517776
C71	C	0.893330	0.000106	0.432177
C72	C	0.894427	0.000104	0.363951
C73	C	0.888102	0.000068	0.759678
C74	C	0.889440	0.000121	0.675660
H75	H	0.504328	0.000035	-0.229092
N76	N	1.037750	0.000095	0.138123
N77	N	1.053852	-0.042504	0.096121
H78	H	1.104064	-0.042511	0.074252
H79	H	0.283434	0.000096	0.025228
N80	N	0.256519	0.000061	-0.239445
N81	N	0.298524	0.042656	-0.255541
H82	H	0.320395	0.042661	-0.305752
N83	N	0.653837	0.000017	-0.245796
N84	N	0.695846	-0.042583	-0.261882
H85	H	0.717726	-0.042595	-0.312088
N86	N	1.049722	0.435803	0.053757
N87	N	1.048874	0.442919	0.123720
H88	H	1.086130	0.420016	0.160882
H89	H	0.764429	0.000110	0.651721
H90	H	1.014680	0.000141	0.684934
H91	H	1.038993	0.557739	0.043103
H92	H	1.021038	0.000114	0.287618
N93	N	0.752554	0.000094	0.498443
N94	N	0.690421	0.000094	0.525528
H95	H	0.641114	0.000087	0.490463
H96	H	0.800349	0.734966	-0.195413
N97	N	0.789695	0.856952	-0.206089
N98	N	0.813617	0.892444	-0.253039
H99	H	0.776425	0.915392	-0.290216
N100	N	1.031397	0.000137	0.535438
N101	N	1.092405	0.000146	0.578859
H102	H	1.142620	0.000153	0.556996
N103	N	0.096942	0.000069	-0.236898
N104	N	0.099635	0.042657	-0.283224
H105	H	0.064560	0.042661	-0.332525
N106	N	0.133948	0.000097	0.041942
N107	N	0.177366	0.000110	0.102952
H108	H	0.155500	0.000117	0.153166
H109	H	0.773078	0.000069	0.111198
N110	N	0.738058	0.435787	-0.257617
N111	N	0.692027	0.464197	-0.303616
H112	H	0.654817	0.441268	-0.340795
N113	N	0.738062	0.564332	-0.257616
N114	N	0.668113	0.557221	-0.256658
H115	H	0.630899	0.580147	-0.293836
H116	H	0.680748	0.000071	0.018868
N117	N	0.756374	0.000071	0.260708
N118	N	0.755254	0.000076	0.331192
H119	H	0.705049	0.000068	0.353073
N120	N	0.998075	0.143175	0.002222
N121	N	0.974140	0.107686	0.049168
H122	H	1.011324	0.084738	0.086354
H123	H	0.537526	0.000087	0.021154
N124	N	0.998095	0.728347	0.002288
N125	N	0.997144	0.735462	0.072238
H126	H	1.034298	0.712510	0.109449
N127	N	0.998101	0.271738	0.002240
N128	N	1.044128	0.243323	0.048238
H129	H	1.081334	0.266248	0.085426
N130	N	0.998124	0.856944	0.002269
N131	N	0.998104	0.913735	0.002269
H132	H	1.035280	0.936688	0.039456
H133	H	0.800321	0.265183	-0.195451
H134	H	0.800315	0.149784	-0.195452
