data_functionalizedCrystal
_audit_creation_method	'MofGen! by Chris Wilmer'
_symmetry_space_group_name_H-M	'P1'
_symmetry_Int_Tables_number	1
_symmetry_cell_setting	triclinic
loop_
_symmetry_equiv_pos_as_xyz
  x,y,z
_cell_length_a	6.817900
_cell_length_b	14.125469
_cell_length_c	19.453114
_cell_angle_alpha	96.284531
_cell_angle_beta	101.709288
_cell_angle_gamma	100.398878
loop_
_atom_site_label
_atom_site_type_symbol
_atom_site_fract_x
_atom_site_fract_y
_atom_site_fract_z
V1	V	-3.991106	-0.134114	-0.218726
O2	O	-3.995376	0.005414	-0.214841
O3	O	-3.927403	-0.264935	-0.216961
O4	O	-3.934209	-0.132504	-0.314242
O5	O	-3.988523	-0.127934	-0.116887
V6	V	-4.477817	-0.117372	-0.206578
O7	O	-4.245369	-0.170841	-0.245373
O8	O	-4.673751	-0.080645	-0.179930
O9	O	-4.318314	0.013449	-0.208342
O10	O	-4.590944	-0.256900	-0.210462
O11	O	-4.597797	-0.123552	-0.308416
O12	O	-4.311507	-0.118982	-0.111061
C13	C	-3.768956	-0.296812	-0.213441
C14	C	-3.798101	-0.403763	-0.212636
C15	C	-3.851530	-0.599581	-0.211170
C16	C	-4.036760	-0.651917	-0.214135
C17	C	-4.066490	-0.760877	-0.213320
C18	C	-3.821792	-0.490611	-0.211986
C19	C	-3.777637	-0.127882	-0.337532
C20	C	-3.812300	-0.127430	-0.415615
C21	C	-4.009802	-0.132048	-0.455863
C22	C	-4.042372	-0.131624	-0.529230
C23	C	-3.877435	-0.126602	-0.562350
C24	C	-3.679904	-0.121979	-0.522092
C25	C	-3.647336	-0.122393	-0.448725
N26	N	-3.811749	-0.177410	-0.681035
N27	N	-3.842699	-0.177019	-0.750731
C28	C	-3.975548	-0.125351	-0.783400
N29	N	-4.076310	-0.074102	-0.743742
N30	N	-4.045364	-0.074498	-0.674040
C31	C	-3.912729	-0.126151	-0.641903
C32	C	-4.208378	-0.129508	-0.903202
C33	C	-4.240939	-0.129078	-0.976570
C34	C	-3.878468	-0.119442	-0.969431
C35	C	-3.845909	-0.119863	-0.896063
C36	C	-4.010873	-0.124900	-0.862954
C37	C	-4.140102	0.045321	-0.211860
C38	C	-4.090194	0.152270	-0.212670
C39	C	-4.131421	-0.123608	-0.087768
C40	C	-4.075997	-0.124054	-0.009684
H41	H	-4.144131	-0.136146	-0.428909
H42	H	-4.342700	-0.133606	-0.876242
H43	H	-4.401770	-0.132830	-1.009338
H44	H	-3.685086	-0.116113	-0.863294
H45	H	-3.486501	-0.118626	-0.415954
O46	O	-3.718117	-0.114389	-1.001541
C47	C	-3.572389	-0.027818	-0.972072
H48	H	-3.650260	0.027788	-0.947452
H49	H	-3.446704	-0.043991	-0.929375
C50	C	-3.382153	-0.054812	-1.061053
C51	C	-3.477799	0.013486	-1.030820
H52	H	-3.323796	-0.029335	-1.097290
H53	H	-3.480327	-0.113139	-1.080906
H54	H	-3.277428	-0.068284	-1.025466
H55	H	-3.582537	0.026948	-1.066405
H56	H	-3.379639	0.071817	-1.010975
O57	O	-3.688777	-0.643595	-0.207432
C58	C	-3.510663	-0.573476	-0.204811
H59	H	-3.555376	-0.508110	-0.228705
H60	H	-3.423206	-0.548969	-0.147226
C61	C	-3.318922	-0.698567	-0.218111
C62	C	-3.373839	-0.618287	-0.247464
H63	H	-3.234516	-0.726209	-0.244419
H64	H	-3.438918	-0.745809	-0.219874
H65	H	-3.246052	-0.678134	-0.170125
H66	H	-3.446729	-0.638724	-0.295446
H67	H	-3.253851	-0.571050	-0.245710
O68	O	-4.234185	-0.136245	-0.568433
C69	C	-4.291326	-0.220065	-0.620423
H70	H	-4.147995	-0.243729	-0.631421
H71	H	-4.387457	-0.281256	-0.600463
C72	C	-4.593546	-0.167938	-0.675816
C73	C	-4.417503	-0.196997	-0.689328
H74	H	-4.671385	-0.153712	-0.718319
H75	H	-4.555054	-0.111469	-0.640788
H76	H	-4.673630	-0.218936	-0.659181
H77	H	-4.337410	-0.145996	-0.705954
H78	H	-4.455985	-0.253458	-0.724361
O79	O	-3.519441	-0.117053	-0.554143
C80	C	-3.338135	-0.113091	-0.502885
H81	H	-3.358001	-0.084183	-0.448213
H82	H	-3.304408	-0.189236	-0.502650
C83	C	-3.134411	-0.080461	-0.588214
C84	C	-3.158804	-0.044947	-0.521065
H85	H	-3.023788	-0.038430	-0.599429
H86	H	-3.256560	-0.083134	-0.622748
H87	H	-3.106315	-0.143914	-0.588009
H88	H	-3.186924	0.018500	-0.521274
H89	H	-3.036655	-0.042262	-0.486531
H90	H	-4.173011	-0.614891	-0.217285
