data_functionalizedCrystal
_audit_creation_method	'MofGen! by Chris Wilmer'
_symmetry_space_group_name_H-M	'P1'
_symmetry_Int_Tables_number	1
_symmetry_cell_setting	triclinic
loop_
_symmetry_equiv_pos_as_xyz
  x,y,z
_cell_length_a	19.805407
_cell_length_b	16.959454
_cell_length_c	19.805399
_cell_angle_alpha	89.978568
_cell_angle_beta	90.017803
_cell_angle_gamma	89.979748
loop_
_atom_site_label
_atom_site_type_symbol
_atom_site_fract_x
_atom_site_fract_y
_atom_site_fract_z
Zn1	Zn	1.034752	0.314756	0.382717
Zn2	Zn	1.368085	0.648090	0.716050
Zn3	Zn	1.701419	0.981423	1.049383
Zn4	Zn	1.034674	0.446939	0.269540
Zn5	Zn	1.368007	0.780272	0.602874
Zn6	Zn	1.701340	1.113606	0.936207
Zn7	Zn	0.921567	0.314772	0.269545
Zn8	Zn	1.254900	0.648105	0.602878
Zn9	Zn	1.588233	0.981439	0.936211
Zn10	Zn	0.921537	0.446891	0.382691
Zn11	Zn	1.254870	0.780224	0.716024
Zn12	Zn	1.588204	1.113557	1.049357
O13	O	0.978132	0.380840	0.326123
O14	O	1.311466	0.714173	0.659456
O15	O	1.644799	1.047506	0.992790
O16	O	1.129458	0.332304	0.367713
O17	O	1.462792	0.665638	0.701046
O18	O	1.796125	0.998971	1.034379
O19	O	1.019649	0.429433	0.174824
O20	O	1.352983	0.762767	0.508158
O21	O	1.686316	1.096100	0.841491
O22	O	0.936626	0.204159	0.284570
O23	O	1.269959	0.537492	0.617903
O24	O	1.603293	0.870826	0.951236
O25	O	1.129401	0.429418	0.284563
O26	O	1.462734	0.762752	0.617896
O27	O	1.796067	1.096085	0.951229
O28	O	1.019783	0.204148	0.367717
O29	O	1.353116	0.537481	0.701050
O30	O	1.686450	0.870814	1.034383
O31	O	0.936550	0.332331	0.174828
O32	O	1.269884	0.665664	0.508161
O33	O	1.603217	0.998998	0.841494
O34	O	0.826846	0.332284	0.284545
O35	O	1.160179	0.665618	0.617878
O36	O	1.493513	0.998951	0.951211
O37	O	0.936576	0.429336	0.477411
O38	O	1.269909	0.762669	0.810744
O39	O	1.603242	1.096003	1.144077
O40	O	0.826824	0.429351	0.367673
O41	O	1.160158	0.762685	0.701006
O42	O	1.493491	1.096018	1.034339
O43	O	1.019754	0.332258	0.477430
O44	O	1.353087	0.665591	0.810763
O45	O	1.686421	0.998924	1.144096
O46	O	1.019621	0.557543	0.284538
O47	O	1.352954	0.890877	0.617871
O48	O	1.686287	1.224210	0.951204
O49	O	0.936500	0.557508	0.367669
O50	O	1.269833	0.890841	0.701002
O51	O	1.603166	1.224175	1.034335
C52	C	0.802276	0.380815	0.326107
C53	C	1.135610	0.714148	0.659440
C54	C	1.468943	1.047481	0.992773
C55	C	0.727044	0.380823	0.326116
C56	C	1.060378	0.714157	0.659449
C57	C	1.393711	1.047490	0.992782
C58	C	0.691731	0.330345	0.369478
C59	C	1.025064	0.663679	0.702811
C60	C	1.358397	0.997012	1.036144
C61	C	0.621042	0.330350	0.369480
C62	C	0.954376	0.663683	0.702814
C63	C	1.287709	0.997016	1.036147
C64	C	0.585669	0.380836	0.326124
C65	C	0.919002	0.714169	0.659457
C66	C	1.252335	1.047503	0.992791
C67	C	0.620987	0.431316	0.282757
C68	C	0.954321	0.764649	0.616090
C69	C	1.287654	1.097983	0.949424
C70	C	0.691674	0.431307	0.282751
C71	C	1.025008	0.764641	0.616085
C72	C	1.358341	1.097974	0.949418
C73	C	0.335914	0.431352	0.282778
C74	C	0.669247	0.764685	0.616111
C75	C	1.002581	1.098018	0.949444
C76	C	0.265222	0.431358	0.282788
C77	C	0.598555	0.764691	0.616121
C78	C	0.931889	1.098025	0.949455
C79	C	0.265282	0.330394	0.369507
C80	C	0.598615	0.663727	0.702840
C81	C	0.931949	0.997061	1.036173
C82	C	0.335969	0.330385	0.369501
C83	C	0.669302	0.663718	0.702834
C84	C	1.002636	0.997052	1.036168
C85	C	0.371281	0.380862	0.326132
C86	C	0.704615	0.714195	0.659465
C87	C	1.037948	1.047528	0.992799
C88	C	0.447930	0.380856	0.326129
C89	C	0.781263	0.714189	0.659462
C90	C	1.114596	1.047522	0.992796
C91	C	0.509022	0.380847	0.326130
C92	C	0.842355	0.714180	0.659463
C93	C	1.175688	1.047513	0.992797
C94	C	0.978067	0.586206	0.326115
C95	C	1.311400	0.919539	0.659448
C96	C	1.644734	1.252872	0.992781
C97	C	0.978101	0.674062	0.326133
C98	C	1.311434	1.007396	0.659467
C99	C	1.644767	1.340729	0.992800
C100	C	0.934886	1.045549	0.369414
C101	C	1.268219	1.378883	0.702748
C102	C	1.601552	1.712216	1.036081
C103	C	1.021511	1.045526	0.282920
C104	C	1.354844	1.378860	0.616253
C105	C	1.688177	1.712193	0.949587
C106	C	1.021491	0.962981	0.282912
C107	C	1.354824	1.296314	0.616246
C108	C	1.688157	1.629647	0.949579
C109	C	0.978167	0.921715	0.326156
C110	C	1.311500	1.255049	0.659489
C111	C	1.644833	1.588382	0.992823
C112	C	0.934863	0.962996	0.369407
C113	C	1.268196	1.296329	0.702740
C114	C	1.601529	1.629663	1.036073
C115	C	1.064789	0.921694	0.239658
C116	C	1.398122	1.255027	0.572991
C117	C	1.731456	1.588360	0.906324
C118	C	1.064770	0.839143	0.239648
C119	C	1.398103	1.172476	0.572981
C120	C	1.731437	1.505809	0.906315
C121	C	1.021449	0.797876	0.282895
C122	C	1.354782	1.131209	0.616229
C123	C	1.688116	1.464543	0.949562
C124	C	0.978144	0.839162	0.326148
C125	C	1.311477	1.172495	0.659482
C126	C	1.644810	1.505828	0.992815
C127	C	0.934820	0.797897	0.369392
C128	C	1.268153	1.131230	0.702725
C129	C	1.601486	1.464563	1.036059
C130	C	0.891518	0.839181	0.412649
C131	C	1.224851	1.172514	0.745982
C132	C	1.558184	1.505847	1.079316
C133	C	0.891542	0.921729	0.412654
C134	C	1.224875	1.255063	0.745987
C135	C	1.558208	1.588396	1.079321
C136	C	1.021425	0.715328	0.282890
C137	C	1.354758	1.048661	0.616223
C138	C	1.688091	1.381994	0.949557
C139	C	0.934797	0.715343	0.369384
C140	C	1.268130	1.048676	0.702718
C141	C	1.601464	1.382010	1.036051
C142	C	1.154675	0.380865	0.326140
C143	C	1.488008	0.714198	0.659473
C144	C	1.821342	1.047532	0.992807
C145	C	1.229907	0.380876	0.326147
C146	C	1.563240	0.714209	0.659481
C147	C	1.896574	1.047542	0.992814
C148	C	0.978170	0.380790	0.502666
C149	C	1.311504	0.714123	0.835999
C150	C	1.644837	1.047456	1.169333
C151	C	0.978186	0.380769	0.577898
C152	C	1.311520	0.714102	0.911231
C153	C	1.644853	1.047435	1.244565
C154	C	0.978206	1.174671	0.326150
C155	C	1.311539	1.508005	0.659483
C156	C	1.644872	1.841338	0.992817
C157	C	0.978210	1.086815	0.326171
C158	C	1.311543	1.420148	0.659504
C159	C	1.644876	1.753481	0.992837
C160	C	0.978133	0.380832	0.150267
C161	C	1.311467	0.714165	0.483600
C162	C	1.644800	1.047499	0.816934
C163	C	0.978248	0.380631	0.075036
C164	C	1.311582	0.713964	0.408369
C165	C	1.644915	1.047297	0.741702
C166	C	1.021499	0.330217	0.613253
C167	C	1.354832	0.663551	0.946586
C168	C	1.688165	0.996884	1.279920
C169	C	1.021505	0.330194	0.683942
C170	C	1.354839	0.663528	1.017275
C171	C	1.688172	0.996861	1.350608
C172	C	0.978203	0.380727	0.719274
C173	C	1.311537	0.714061	1.052607
C174	C	1.644870	1.047394	1.385940
C175	C	0.934886	0.431281	0.683913
C176	C	1.268220	0.764614	1.017247
C177	C	1.601553	1.097947	1.350580
C178	C	0.934877	0.431299	0.613226
C179	C	1.268210	0.764632	0.946560
C180	C	1.601543	1.097966	1.279893
C181	C	0.934925	0.431207	0.968987
C182	C	1.268258	0.764540	1.302320
C183	C	1.601591	1.097874	1.635654
C184	C	0.934939	0.431186	1.039679
C185	C	1.268273	0.764520	1.373012
C186	C	1.601606	1.097853	1.706346
C187	C	1.021554	0.330102	1.039702
C188	C	1.354887	0.663436	1.373036
C189	C	1.688220	0.996769	1.706369
C190	C	1.021544	0.330121	0.969015
C191	C	1.354877	0.663454	1.302348
C192	C	1.688210	0.996787	1.635682
C193	C	0.978225	0.380671	0.933661
C194	C	1.311558	0.714004	1.266994
C195	C	1.644891	1.047337	1.600328
C196	C	0.978217	0.380694	0.857013
C197	C	1.311550	0.714027	1.190346
C198	C	1.644883	1.047361	1.523679
C199	C	0.978214	0.380709	0.795921
C200	C	1.311547	0.714042	1.129254
C201	C	1.644881	1.047375	1.462587
H202	H	0.364657	0.472454	0.247465
H203	H	0.697990	0.805787	0.580798
H204	H	1.031323	1.139120	0.914131
H205	H	1.100056	0.955298	0.204446
H206	H	1.433389	1.288631	0.537779
H207	H	1.766723	1.621965	0.871113
H208	H	0.899627	0.472423	0.712686
H209	H	1.232960	0.805756	1.046020
H210	H	1.566293	1.139089	1.379353
H211	H	1.056779	1.079129	0.247709
H212	H	1.390113	1.412463	0.581042
H213	H	1.723446	1.745796	0.914376
H214	H	1.100029	0.805534	0.204427
H215	H	1.433363	1.138868	0.537760
H216	H	1.766696	1.472201	0.871093
H217	H	0.592180	0.472419	0.247452
H218	H	0.925514	0.805753	0.580785
H219	H	1.258847	1.139086	0.914119
F220	F	1.067656	0.276299	1.077334
F221	F	1.400989	0.609632	1.410667
F222	F	1.734323	0.942966	1.744001
F223	F	1.067500	0.671394	0.236850
F224	F	1.400834	1.004727	0.570183
F225	F	1.734167	1.338060	0.903517
H226	H	1.056762	0.289070	0.584491
H227	H	1.390096	0.622403	0.917824
H228	H	1.723429	0.955737	1.251157
F229	F	0.729257	0.485033	0.236600
F230	F	1.062591	0.818367	0.569933
F231	F	1.395924	1.151700	0.903267
F232	F	0.888688	0.671432	0.415415
F233	F	1.222021	1.004765	0.748748
F234	F	1.555354	1.338099	1.082081
F235	F	1.067627	0.276418	0.721566
F236	F	1.400961	0.609751	1.054899
F237	F	1.734294	0.943085	1.388233
F238	F	1.067634	0.276340	0.931416
F239	F	1.400967	0.609673	1.264749
F240	F	1.734301	0.943006	1.598082
F241	F	0.888805	1.089486	0.415452
F242	F	1.222139	1.422820	0.748785
F243	F	1.555472	1.756153	1.082119
H244	H	0.236423	0.472472	0.247479
H245	H	0.569756	0.805806	0.580813
H246	H	0.903089	1.139139	0.914146
H247	H	0.856240	0.805573	0.447855
H248	H	1.189573	1.138906	0.781188
H249	H	1.522906	1.472240	1.114522
H250	H	0.856287	0.955350	0.447871
H251	H	1.189620	1.288683	0.781204
H252	H	1.522953	1.622017	1.114538
H253	H	0.364767	0.289277	0.404809
H254	H	0.698100	0.622610	0.738142
H255	H	1.031433	0.955943	1.071475
H256	H	0.236522	0.289290	0.404817
H257	H	0.569855	0.622624	0.738151
H258	H	0.903189	0.955957	1.071484
H259	H	0.899675	0.472338	1.068444
H260	H	1.233008	0.805671	1.401778
H261	H	1.566341	1.139005	1.735111
H262	H	0.899601	0.472455	0.584441
H263	H	1.232934	0.805788	0.917774
H264	H	1.566267	1.139122	1.251108
F265	F	0.729372	0.276614	0.415628
F266	F	1.062705	0.609947	0.748961
F267	F	1.396038	0.943280	1.082294
F268	F	0.583462	0.276626	0.415634
F269	F	0.916795	0.609959	0.748967
F270	F	1.250129	0.943292	1.082300
H271	H	0.899662	0.472380	0.940210
H272	H	1.232995	0.805713	1.273544
H273	H	1.566328	1.139046	1.606877
