data_functionalizedCrystal
_audit_creation_method	'MofGen! by Chris Wilmer'
_symmetry_space_group_name_H-M	'P1'
_symmetry_Int_Tables_number	1
_symmetry_cell_setting	triclinic
loop_
_symmetry_equiv_pos_as_xyz
  x,y,z
_cell_length_a	16.959455
_cell_length_b	18.050589
_cell_length_c	18.050582
_cell_angle_alpha	90.018205
_cell_angle_beta	90.013786
_cell_angle_gamma	90.025168
loop_
_atom_site_label
_atom_site_type_symbol
_atom_site_fract_x
_atom_site_fract_y
_atom_site_fract_z
Zn1	Zn	1.208335	-0.295767	0.419913
Zn2	Zn	1.708335	0.204233	0.919913
Zn3	Zn	1.208240	-0.419950	0.295732
Zn4	Zn	1.708240	0.080050	0.795732
Zn5	Zn	1.076164	-0.295772	0.295739
Zn6	Zn	1.576164	0.204228	0.795739
Zn7	Zn	1.076109	-0.419913	0.419883
Zn8	Zn	1.576109	0.080087	0.919883
O9	O	1.142212	-0.357851	0.357817
O10	O	1.642212	0.142149	0.857817
O11	O	1.318933	-0.312254	0.403449
O12	O	1.818933	0.187746	0.903449
O13	O	1.190703	-0.403496	0.191808
O14	O	1.690703	0.096504	0.691808
O15	O	1.093760	-0.191847	0.312226
O16	O	1.593760	0.308153	0.812226
O17	O	1.318863	-0.403491	0.312214
O18	O	1.818863	0.096509	0.812214
O19	O	1.190865	-0.191843	0.403456
O20	O	1.690865	0.308157	0.903456
O21	O	1.093668	-0.312262	0.191814
O22	O	1.593668	0.187738	0.691814
O23	O	0.965546	-0.312226	0.312198
O24	O	1.465546	0.187774	0.812198
O25	O	1.093666	-0.403427	0.523812
O26	O	1.593666	0.096573	1.023812
O27	O	0.965506	-0.403432	0.403406
O28	O	1.465506	0.096568	0.903406
O29	O	1.190811	-0.312218	0.523833
O30	O	1.690811	0.187782	1.023833
O31	O	1.190649	-0.523870	0.312186
O32	O	1.690649	-0.023870	0.812186
O33	O	1.093574	-0.523843	0.403399
O34	O	1.593574	-0.023843	0.903399
C35	C	0.936846	-0.357826	0.357800
C36	C	1.436846	0.142174	0.857800
C37	C	0.848989	-0.357834	0.357810
C38	C	1.348989	0.142166	0.857810
C39	C	0.477510	-0.310321	0.310424
C40	C	0.977510	0.189679	0.810424
C41	C	0.477517	-0.405442	0.405252
C42	C	0.977517	0.094558	0.905252
C43	C	0.560063	-0.405431	0.405247
C44	C	1.060063	0.094569	0.905247
C45	C	0.601336	-0.357865	0.357830
C46	C	1.101336	0.142135	0.857830
C47	C	0.560064	-0.310310	0.310416
C48	C	1.060064	0.189690	0.810416
C49	C	0.601341	-0.452990	0.452655
C50	C	1.101341	0.047010	0.952655
C51	C	0.683892	-0.452982	0.452651
C52	C	1.183892	0.047018	0.952651
C53	C	0.725167	-0.405412	0.405237
C54	C	1.225167	0.094588	0.905237
C55	C	0.683890	-0.357855	0.357822
C56	C	1.183890	0.142145	0.857822
C57	C	0.725163	-0.310289	0.310404
C58	C	1.225163	0.189711	0.810404
C59	C	0.683887	-0.262727	0.262993
C60	C	1.183887	0.237273	0.762993
C61	C	0.601339	-0.262740	0.263002
C62	C	1.101339	0.237260	0.763002
C63	C	0.807716	-0.405399	0.405228
C64	C	1.307716	0.094601	0.905228
C65	C	0.807717	-0.310279	0.310397
C66	C	1.307717	0.189721	0.810397
C67	C	1.142117	-0.550803	0.357804
C68	C	1.642117	-0.050803	0.857804
C69	C	1.142148	-0.633349	0.357824
C70	C	1.642148	-0.133349	0.857824
C71	C	1.089410	-0.832811	0.407408
C72	C	1.589410	-0.332811	0.907408
C73	C	1.070148	-0.882244	0.339641
C74	C	1.570148	-0.382244	0.839641
C75	C	1.142226	-0.784479	0.357834
C76	C	1.642226	-0.284479	0.857834
C77	C	1.161527	-0.882128	0.425608
C78	C	1.661527	-0.382128	0.925608
C79	C	1.142299	-0.930464	0.357849
C80	C	1.642299	-0.430464	0.857849
C81	C	1.122926	-0.832825	0.290031
C82	C	1.622926	-0.332825	0.790031
C83	C	1.214338	-0.832704	0.376043
C84	C	1.714338	-0.332704	0.876043
C85	C	1.195103	-0.882114	0.308230
C86	C	1.695103	-0.382114	0.808230
C87	C	1.142181	-0.700381	0.357826
C88	C	1.642181	-0.200381	0.857826
C89	C	1.142344	-1.014561	0.357849
C90	C	1.642344	-0.514561	0.857849
C91	C	1.348380	-0.357876	0.357834
C92	C	1.848380	0.142124	0.857834
C93	C	1.436237	-0.357887	0.357842
C94	C	1.936237	0.142113	0.857842
C95	C	1.142243	-0.357818	0.551522
C96	C	1.642243	0.142182	1.051522
C97	C	1.142256	-0.357804	0.634068
C98	C	1.642256	0.142196	1.134068
C99	C	1.142329	-0.164145	0.357845
C100	C	1.642329	0.335855	0.857845
C101	C	1.142379	-0.081599	0.357857
C102	C	1.642379	0.418401	0.857857
C103	C	1.142227	-0.357830	0.164865
C104	C	1.642227	0.142170	0.664865
C105	C	1.142367	-0.357635	0.082319
C106	C	1.642367	0.142365	0.582319
C107	C	1.089469	-0.407336	0.833507
C108	C	1.589469	0.092664	1.333507
C109	C	1.161583	-0.425493	0.882898
C110	C	1.661583	0.074507	1.382898
C111	C	1.142295	-0.357747	0.785199
C112	C	1.642295	0.142253	1.285199
C113	C	1.070220	-0.339569	0.882889
C114	C	1.570220	0.160431	1.382889
C115	C	1.142327	-0.357694	0.931184
C116	C	1.642327	0.142306	1.431184
C117	C	1.214448	-0.375940	0.833503
C118	C	1.714448	0.124060	1.333503
C119	C	1.123036	-0.289985	0.833489
C120	C	1.623036	0.210015	1.333489
C121	C	1.195200	-0.308116	0.882858
C122	C	1.695200	0.191884	1.382858
C123	C	1.142276	-0.357780	0.701100
C124	C	1.642276	0.142220	1.201100
C125	C	1.142354	-0.357661	1.015280
C126	C	1.642354	0.142339	1.515280
H127	H	0.443900	-0.271595	0.271825
H128	H	0.943900	0.228405	0.771825
H129	H	1.044837	-0.449326	0.811839
H130	H	1.544837	0.050674	1.311839
C131	C	1.183614	-0.502872	0.912225
C132	C	1.683614	-0.002872	1.412225
H133	H	1.146018	-0.538069	0.895333
H134	H	1.646018	-0.038069	1.395333
H135	H	1.234462	-0.516109	0.894590
H136	H	1.734462	-0.016109	1.394590
H137	H	1.183932	-0.502178	0.964850
H138	H	1.683932	-0.002178	1.464850
C139	C	1.255633	-0.251437	0.911955
C140	C	1.755633	0.248563	1.411955
H141	H	1.306797	-0.264452	0.894953
H142	H	1.806797	0.235548	1.394953
H143	H	1.242378	-0.203464	0.894289
H144	H	1.742378	0.296536	1.394289
H145	H	1.255018	-0.251441	0.964582
H146	H	1.755018	0.248559	1.464582
H147	H	0.567725	-0.224019	0.224401
H148	H	1.067725	0.275981	0.724401
C149	C	0.987813	-0.911646	0.318834
C150	C	1.487813	-0.411646	0.818834
H151	H	0.991446	-0.940612	0.275015
H152	H	1.491446	-0.440612	0.775015
H153	H	0.967993	-0.941346	0.358078
H154	H	1.467993	-0.441346	0.858078
H155	H	0.953205	-0.871113	0.310562
H156	H	1.453205	-0.371113	0.810562
H157	H	0.567730	-0.491721	0.491254
H158	H	1.067730	0.008279	0.991254
H159	H	1.275431	-0.391357	0.811900
H160	H	1.775431	0.108643	1.311900
C161	C	0.432118	-0.457759	0.457407
C162	C	0.932118	0.042241	0.957407
H163	H	0.377044	-0.450952	0.450624
H164	H	0.877044	0.049048	0.950624
H165	H	0.445628	-0.507641	0.446457
H166	H	0.945628	-0.007641	0.946457
H167	H	0.445666	-0.446949	0.507325
H168	H	0.945666	0.053051	1.007325
H169	H	1.106560	-0.811258	0.232705
H170	H	1.606560	-0.311258	0.732705
C171	C	1.028993	-0.803560	0.463966
C172	C	1.528993	-0.303560	0.963966
H173	H	1.055333	-0.774564	0.500278
H174	H	1.555333	-0.274564	1.000278
H175	H	0.990954	-0.773920	0.439212
H176	H	1.490954	-0.273920	0.939212
H177	H	1.003425	-0.844155	0.487307
H178	H	1.503425	-0.344155	0.987307
H179	H	0.717492	-0.491710	0.491257
H180	H	1.217492	0.008290	0.991257
H181	H	1.106706	-0.232719	0.811769
H182	H	1.606706	0.267281	1.311769
H183	H	0.841319	-0.444126	0.443827
H184	H	1.341319	0.055874	0.943827
C185	C	1.255480	-0.911184	0.251542
C186	C	1.755480	-0.411184	0.751542
H187	H	1.241667	-0.894212	0.203447
H188	H	1.741667	-0.394212	0.703447
H189	H	1.306527	-0.893472	0.264061
H190	H	1.806527	-0.393472	0.764061
H191	H	1.255482	-0.963810	0.252137
H192	H	1.755482	-0.463810	0.752137
C193	C	1.296669	-0.803310	0.396860
C194	C	1.796669	-0.303310	0.896860
H195	H	1.310284	-0.820168	0.445046
H196	H	1.810284	-0.320168	0.945046
H197	H	1.334324	-0.820943	0.362131
H198	H	1.834324	-0.320943	0.862131
H199	H	1.296188	-0.750686	0.396261
H200	H	1.796188	-0.250686	0.896261
C201	C	1.183545	-0.911383	0.503027
C202	C	1.683545	-0.411383	1.003027
H203	H	1.145941	-0.894492	0.538180
H204	H	1.645941	-0.394492	1.038180
H205	H	1.183888	-0.964004	0.502371
H206	H	1.683888	-0.464004	1.002371
H207	H	1.234387	-0.893684	0.516296
H208	H	1.734387	-0.393684	1.016296
C209	C	0.987866	-0.318822	0.912197
C210	C	1.487866	0.181178	1.412197
H211	H	0.991474	-0.274993	0.941154
H212	H	1.491474	0.225007	1.441154
H213	H	0.953270	-0.310606	0.871630
H214	H	1.453270	0.189394	1.371630
H215	H	0.968051	-0.358074	0.941900
H216	H	1.468051	0.141926	1.441900
C217	C	0.853112	-0.257954	0.258237
C218	C	1.353112	0.242046	0.758237
H219	H	0.816705	-0.229636	0.230002
H220	H	1.316705	0.270364	0.730002
H221	H	0.885338	-0.225634	0.286697
H222	H	1.385338	0.274366	0.786697
H223	H	0.885289	-0.286318	0.225822
H224	H	1.385289	0.213682	0.725822
H225	H	0.717503	-0.224003	0.224382
H226	H	1.217503	0.275997	0.724382
