data_functionalizedCrystal
_audit_creation_method	'MofGen! by Chris Wilmer'
_symmetry_space_group_name_H-M	'P1'
_symmetry_Int_Tables_number	1
_symmetry_cell_setting	triclinic
loop_
_symmetry_equiv_pos_as_xyz
  x,y,z
_cell_length_a	42.784839
_cell_length_b	42.784841
_cell_length_c	42.784893
_cell_angle_alpha	90.002418
_cell_angle_beta	59.997780
_cell_angle_gamma	119.999863
loop_
_atom_site_label
_atom_site_type_symbol
_atom_site_fract_x
_atom_site_fract_y
_atom_site_fract_z
O1	O	0.275695	-0.214412	-0.009300
O2	O	0.211692	-0.168961	0.009253
O3	O	0.275692	-0.168961	-0.054750
O4	O	0.211694	-0.214412	0.054702
O5	O	0.223708	-0.220945	-0.054749
O6	O	0.159708	-0.220945	0.009253
O7	O	0.223710	-0.266397	-0.009300
Zn8	Zn	0.183455	-0.251924	-0.000023
Zn9	Zn	0.251947	-0.183433	-0.000024
O10	O	0.159710	-0.266396	0.054703
C11	C	0.051021	-0.022778	0.028112
C12	C	0.013142	-0.041761	0.028375
C13	C	0.051018	-0.079378	0.028116
C14	C	0.013139	-0.098275	0.028379
C15	C	-0.005578	-0.079377	0.028112
C16	C	0.069652	-0.041762	0.028379
C17	C	0.152948	0.113708	0.017863
C18	C	0.173786	0.152360	0.014965
C19	C	0.155902	0.171750	0.013509
C20	C	0.178499	0.213661	0.010359
C21	C	0.117177	0.152485	0.014953
C22	C	0.096339	0.113835	0.017857
C23	C	0.114226	0.094447	0.019312
C24	C	-0.131813	-0.113936	0.017859
C25	C	-0.167567	-0.131750	0.014961
C26	C	-0.185502	-0.169024	0.013506
C27	C	-0.224264	-0.188340	0.010358
C28	C	-0.167685	-0.188485	0.014954
C29	C	-0.131938	-0.170675	0.017859
C30	C	-0.114002	-0.133396	0.019309
C31	C	0.152939	-0.113943	0.017877
C32	C	0.173778	-0.131757	0.014977
C33	C	0.155892	-0.169032	0.013523
C34	C	0.178486	-0.188349	0.010377
C35	C	0.117170	-0.188491	0.014967
C36	C	0.096334	-0.170675	0.017865
C37	C	0.114220	-0.133401	0.019323
C38	C	0.091629	0.052537	0.022456
C39	C	0.073617	0.019131	0.024964
C40	C	0.073613	-0.098693	0.024971
C41	C	0.091623	-0.114089	0.022466
C42	C	-0.044339	-0.098690	0.024964
C43	C	-0.075237	-0.114084	0.022456
O44	O	-0.327856	-0.266388	-0.009322
O45	O	-0.236954	-0.220935	0.009228
O46	O	-0.236950	-0.220939	-0.054773
O47	O	-0.327860	-0.266385	0.054680
O48	O	-0.236948	-0.168954	-0.054776
O49	O	-0.236952	-0.168950	0.009225
O50	O	-0.327854	-0.214403	-0.009325
Zn51	Zn	-0.282403	-0.183423	-0.000050
Zn52	Zn	-0.282405	-0.251916	-0.000046
O53	O	-0.327858	-0.214400	0.054676
C54	C	0.384390	-0.079141	-0.361606
C55	C	0.422270	-0.041526	-0.380503
C56	C	0.384390	-0.079141	-0.305008
C57	C	0.422270	-0.041526	-0.323990
C58	C	0.440988	-0.022543	-0.361606
C59	C	0.365758	-0.098038	-0.323991
C60	C	0.282465	-0.170819	-0.396168
C61	C	0.261627	-0.188759	-0.413983
C62	C	0.279513	-0.169420	-0.451257
C63	C	0.256917	-0.188867	-0.470572
C64	C	0.318239	-0.132140	-0.470717
C65	C	0.339076	-0.114205	-0.452905
C66	C	0.321187	-0.133546	-0.415628
C67	C	0.567227	0.113942	-0.453282
C68	C	0.602981	0.152594	-0.471222
C69	C	0.620916	0.171985	-0.451883
C70	C	0.659678	0.213894	-0.471328
C71	C	0.603097	0.152719	-0.414603
C72	C	0.567349	0.114068	-0.396667
C73	C	0.549414	0.094682	-0.416011
C74	C	0.282465	-0.170819	-0.168522
C75	C	0.261624	-0.188757	-0.129868
C76	C	0.279510	-0.169418	-0.110479
C77	C	0.256914	-0.188865	-0.068568
C78	C	0.318233	-0.132140	-0.129742
C79	C	0.339070	-0.114203	-0.168394
C80	C	0.321184	-0.133548	-0.187782
C81	C	0.343783	-0.114094	-0.396315
C82	C	0.361794	-0.098590	-0.380920
C83	C	0.361794	-0.098590	-0.263099
C84	C	0.343783	-0.114094	-0.229693
C85	C	0.479750	0.019366	-0.381054
C86	C	0.510649	0.052771	-0.396557
C87	C	0.440758	-0.356212	-0.028193
C88	C	0.422041	-0.393827	-0.028459
C89	C	0.384158	-0.356213	-0.028190
C90	C	0.365526	-0.393828	-0.028456
C91	C	0.384160	-0.412810	-0.028193
C92	C	0.422038	-0.337315	-0.028456
C93	C	0.567000	-0.264532	-0.017949
C94	C	0.602755	-0.246591	-0.015053
C95	C	0.620692	-0.265931	-0.013601
C96	C	0.659455	-0.246483	-0.010453
C97	C	0.602873	-0.303210	-0.015048
C98	C	0.567125	-0.321146	-0.017949
C99	C	0.549188	-0.301805	-0.019399
C100	C	0.339356	-0.549295	-0.017951
C101	C	0.318645	-0.587947	-0.015055
C102	C	0.279915	-0.607338	-0.013597
C103	C	0.257452	-0.649247	-0.010452
C104	C	0.261899	-0.588073	-0.015042
C105	C	0.282613	-0.549422	-0.017945
C106	C	0.321343	-0.530035	-0.019397
C107	C	0.339344	-0.264537	-0.017936
C108	C	0.318628	-0.246599	-0.015032
C109	C	0.279898	-0.265939	-0.013577
C110	C	0.257433	-0.246493	-0.010426
C111	C	0.261884	-0.303217	-0.015022
C112	C	0.282601	-0.321153	-0.017924
C113	C	0.321334	-0.301808	-0.019385
C114	C	0.510421	-0.321258	-0.022542
C115	C	0.479522	-0.336762	-0.025048
C116	C	0.361696	-0.336765	-0.025041
C117	C	0.343793	-0.321261	-0.022532
C118	C	0.361701	-0.454719	-0.025047
C119	C	0.343799	-0.488125	-0.022541
O120	O	0.223728	0.336934	-0.009323
O121	O	0.159726	0.227482	0.009227
O122	O	0.223729	0.291478	-0.054775
O123	O	0.159725	0.272938	0.054678
O124	O	0.275711	0.291477	-0.054771
O125	O	0.211707	0.227481	0.009230
O126	O	0.275710	0.336932	-0.009320
Zn127	Zn	0.251962	0.282206	-0.000045
Zn128	Zn	0.183474	0.282208	-0.000049
O129	O	0.211707	0.272936	0.054681
O130	O	0.763271	0.337164	-0.496871
O131	O	0.672367	0.227713	-0.451422
O132	O	0.672365	0.291711	-0.451418
O133	O	0.763273	0.273165	-0.496876
O134	O	0.672366	0.291712	-0.503402
O135	O	0.672368	0.227714	-0.503407
O136	O	0.763272	0.337165	-0.548856
Zn137	Zn	0.717820	0.282440	-0.534385
Zn138	Zn	0.717819	0.282438	-0.465893
O139	O	0.763275	0.273167	-0.548860
O140	O	0.211690	-0.214417	-0.548617
O141	O	0.275691	-0.168962	-0.503167
O142	O	0.211689	-0.168964	-0.503163
O143	O	0.275692	-0.214415	-0.548621
O144	O	0.159706	-0.220947	-0.451179
O145	O	0.223708	-0.220945	-0.451183
O146	O	0.159707	-0.266400	-0.496633
Zn147	Zn	0.183454	-0.251926	-0.465654
Zn148	Zn	0.251944	-0.183436	-0.534146
O149	O	0.223709	-0.266398	-0.496637
C150	C	-0.005343	-0.412572	0.361558
C151	C	0.013375	-0.393590	0.380456
C152	C	0.051255	-0.355974	0.304961
C153	C	0.069887	-0.337077	0.323944
C154	C	0.051254	-0.355974	0.361560
C155	C	0.013375	-0.393589	0.323943
C156	C	-0.131582	-0.549057	0.396116
C157	C	-0.167336	-0.587709	0.413930
C158	C	-0.185271	-0.607098	0.451205
C159	C	-0.224034	-0.649009	0.470519
C160	C	-0.167452	-0.587833	0.470666
C161	C	-0.131705	-0.549184	0.452854
C162	C	-0.113770	-0.529796	0.415578
C163	C	0.096061	-0.321414	0.453239
C164	C	0.116773	-0.303600	0.471179
C165	C	0.155502	-0.266327	0.451842
C166	C	0.177965	-0.247011	0.471288
C167	C	0.173517	-0.246866	0.414562
C168	C	0.152802	-0.264677	0.396625
C169	C	0.114073	-0.301955	0.415968
C170	C	0.096064	-0.321412	0.168474
C171	C	0.116779	-0.303599	0.129820
C172	C	0.155508	-0.266324	0.110432
C173	C	0.177972	-0.247009	0.068521
C174	C	0.173522	-0.246865	0.129696
C175	C	0.152807	-0.264680	0.168348
C176	C	0.114075	-0.301953	0.187735
C177	C	-0.075004	-0.487887	0.396265
C178	C	-0.044106	-0.454481	0.380871
C179	C	0.073715	-0.336660	0.263052
C180	C	0.091618	-0.321265	0.229646
C181	C	0.073714	-0.336661	0.381009
C182	C	0.091616	-0.321267	0.396513
C183	C	0.051046	-0.022794	-0.361634
C184	C	0.069679	-0.041778	-0.380530
C185	C	-0.005555	-0.079390	-0.305034
C186	C	0.013163	-0.098288	-0.324016
C187	C	0.051045	-0.079393	-0.361631
C188	C	0.013164	-0.041775	-0.324018
C189	C	0.095858	0.113693	-0.396200
C190	C	0.116571	0.152344	-0.414015
C191	C	0.155302	0.171732	-0.451290
C192	C	0.177767	0.213642	-0.470607
C193	C	0.173317	0.152465	-0.470750
C194	C	0.152600	0.113815	-0.452936
C195	C	0.113869	0.094429	-0.415659
C196	C	0.152973	-0.113959	-0.453306
C197	C	0.173810	-0.131775	-0.471245
C198	C	0.155926	-0.169048	-0.451906
C199	C	0.178519	-0.188366	-0.471350
C200	C	0.117198	-0.188507	-0.414626
C201	C	0.096358	-0.170694	-0.396690
C202	C	0.114251	-0.133416	-0.416035
C203	C	-0.131801	-0.113944	-0.168548
C204	C	-0.167554	-0.131755	-0.129895
C205	C	-0.185491	-0.169029	-0.110504
C206	C	-0.224255	-0.188343	-0.068593
C207	C	-0.167671	-0.188490	-0.129767
C208	C	-0.131918	-0.170677	-0.168418
C209	C	-0.113988	-0.133404	-0.187808
C210	C	0.091411	0.052521	-0.396344
C211	C	0.073508	0.019115	-0.380949
C212	C	-0.044320	-0.098701	-0.263125
C213	C	-0.075220	-0.114094	-0.229719
C214	C	0.073641	-0.098707	-0.381079
C215	C	0.091652	-0.114103	-0.396582
C216	C	-0.615853	-0.356193	0.361535
C217	C	-0.634487	-0.393808	0.380433
C218	C	-0.559253	-0.356195	0.304938
C219	C	-0.577972	-0.393810	0.323921
C220	C	-0.615854	-0.412792	0.361537
C221	C	-0.577972	-0.337297	0.323920
C222	C	-0.660661	-0.264512	0.396093
C223	C	-0.681373	-0.246571	0.413906
C224	C	-0.720104	-0.265909	0.451181
C225	C	-0.742568	-0.246461	0.470495
C226	C	-0.738120	-0.303189	0.470643
C227	C	-0.717405	-0.321125	0.452831
C228	C	-0.678674	-0.301785	0.415554
C229	C	-0.717784	-0.549275	0.453218
C230	C	-0.738622	-0.587926	0.471159
C231	C	-0.720740	-0.607319	0.451822
C232	C	-0.743333	-0.649227	0.471268
C233	C	-0.682012	-0.588055	0.414542
C234	C	-0.661170	-0.549403	0.396604
C235	C	-0.679063	-0.530016	0.415946
C236	C	-0.433006	-0.264522	0.168449
C237	C	-0.397253	-0.246585	0.129796
C238	C	-0.379317	-0.265926	0.110407
C239	C	-0.340553	-0.246480	0.068496
C240	C	-0.397138	-0.303204	0.129672
C241	C	-0.432891	-0.321139	0.168324
C242	C	-0.450820	-0.301793	0.187711
C243	C	-0.656216	-0.321238	0.396242
C244	C	-0.638314	-0.336743	0.380848
C245	C	-0.520488	-0.336748	0.263028
C246	C	-0.489588	-0.321245	0.229622
C247	C	-0.638451	-0.454700	0.380987
C248	C	-0.656463	-0.488106	0.396492
C249	C	0.440756	0.310302	-0.361620
C250	C	0.422038	0.310564	-0.380518
C251	C	0.384160	0.310312	-0.305026
C252	C	0.365528	0.310574	-0.324010
C253	C	0.384159	0.310303	-0.361624
C254	C	0.422038	0.310573	-0.324006
C255	C	0.566989	0.300046	-0.396172
C256	C	0.602741	0.297145	-0.413984
C257	C	0.620675	0.295684	-0.451257
C258	C	0.659436	0.292531	-0.470569
C259	C	0.602857	0.297127	-0.470719
C260	C	0.567111	0.300033	-0.452909
C261	C	0.549177	0.301493	-0.415634
C262	C	0.339351	0.300042	-0.453303
C263	C	0.318640	0.297142	-0.471244
C264	C	0.279912	0.295690	-0.451908
C265	C	0.257449	0.292541	-0.471354
C266	C	0.261899	0.297143	-0.414629
C267	C	0.282613	0.300049	-0.396692
C268	C	0.321341	0.301496	-0.416033
C269	C	0.339354	0.300088	-0.168540
C270	C	0.318640	0.297192	-0.129888
C271	C	0.279912	0.295742	-0.110501
C272	C	0.257450	0.292601	-0.068591
C273	C	0.261898	0.297184	-0.129766
C274	C	0.282612	0.300078	-0.168417
C275	C	0.321344	0.301533	-0.187802
C276	C	0.510413	0.304640	-0.396323
C277	C	0.479516	0.307151	-0.380931
C278	C	0.361701	0.307173	-0.263117
C279	C	0.343799	0.304671	-0.229712
C280	C	0.361700	0.307154	-0.381073
C281	C	0.343798	0.304644	-0.396578
O282	O	0.275503	0.336913	-0.548651
O283	O	0.211494	0.227461	-0.503201
O284	O	0.275490	0.291455	-0.503192
O285	O	0.211507	0.272919	-0.548659
O286	O	0.223502	0.291457	-0.451211
O287	O	0.159506	0.227463	-0.451219
O288	O	0.223515	0.336915	-0.496669
Zn289	Zn	0.183256	0.282189	-0.465691
Zn290	Zn	0.251753	0.282187	-0.534179
O291	O	0.159519	0.272921	-0.496677
C292	C	0.051032	0.254111	0.361530
C293	C	0.013154	0.253851	0.380425
C294	C	0.051031	0.254102	0.304932
C295	C	0.013153	0.253842	0.323913
C296	C	-0.005564	0.254113	0.361527
C297	C	0.069663	0.253840	0.323916
C298	C	0.152954	0.264360	0.396096
C299	C	0.173791	0.267260	0.413911
C300	C	0.155906	0.268721	0.451185
C301	C	0.178502	0.271871	0.470501
C302	C	0.117182	0.267279	0.470643
C303	C	0.096345	0.264374	0.452830
C304	C	0.114233	0.262915	0.415555
C305	C	-0.131796	0.264379	0.453195
C306	C	-0.167548	0.267281	0.471133
C307	C	-0.185483	0.268734	0.451793
C308	C	-0.224243	0.271886	0.471236
C309	C	-0.167664	0.267282	0.414515
C310	C	-0.131919	0.264374	0.396581
C311	C	-0.113984	0.262925	0.415925
C312	C	0.152952	0.264325	0.168451
C313	C	0.173792	0.267221	0.129798
C314	C	0.155907	0.268673	0.110407
C315	C	0.178502	0.271814	0.068498
C316	C	0.117186	0.267232	0.129669
C317	C	0.096350	0.264339	0.168320
C318	C	0.114234	0.262881	0.187709
C319	C	0.091638	0.259769	0.396240
C320	C	0.073627	0.257260	0.380845
C321	C	0.073626	0.257242	0.263024
C322	C	0.091636	0.259743	0.229619
C323	C	-0.044324	0.257264	0.380973
C324	C	-0.075221	0.259775	0.396474
H325	H	-0.117435	-0.186523	0.019040
O326	O	0.329201	0.311137	-0.305891
C327	C	0.339093	0.344288	-0.326375
H328	H	0.368132	0.354977	-0.357437
H329	H	0.348124	0.367469	-0.312978
C330	C	0.262804	0.321621	-0.286737
C331	C	0.298468	0.334747	-0.324889
H332	H	0.237745	0.315736	-0.285819
H333	H	0.256140	0.299286	-0.272935
H334	H	0.270336	0.340940	-0.275577
H335	H	0.290938	0.315426	-0.336046
H336	H	0.305130	0.357078	-0.338692
H337	H	0.064523	-0.351759	0.184259
O338	O	0.549878	0.095162	-0.472135
C339	C	0.573267	0.120453	-0.508880
H340	H	0.607603	0.144840	-0.517783
H341	H	0.554655	0.132612	-0.508298
C342	C	0.535400	0.068758	-0.526844
C343	C	0.577574	0.098710	-0.537780
H344	H	0.538055	0.055346	-0.544671
H345	H	0.519641	0.051719	-0.502088
H346	H	0.519895	0.078895	-0.526359
H347	H	0.593076	0.088572	-0.538260
H348	H	0.593335	0.115747	-0.562537
H349	H	0.437704	-0.306410	-0.028878
H350	H	-0.116983	-0.533275	0.365765
O351	O	0.336117	-0.210371	-0.013675
C352	C	0.346639	-0.186215	-0.044889
H353	H	0.325835	-0.204078	-0.055413
H354	H	0.383188	-0.170694	-0.069041
C355	C	0.362417	-0.134724	-0.019221
C356	C	0.336862	-0.156663	-0.032144
H357	H	0.356388	-0.116493	-0.011360
H358	H	0.355329	-0.150998	0.001808
H359	H	0.392872	-0.121794	-0.039350
H360	H	0.306408	-0.169596	-0.012014
H361	H	0.343945	-0.140390	-0.053169
H362	H	0.064802	-0.186523	0.019045
H363	H	-0.117214	-0.083584	0.019042
O364	O	0.265079	-0.357387	-0.019266
C365	C	0.254574	-0.381543	0.011936
H366	H	0.249890	-0.368525	0.035797
H367	H	0.282600	-0.384797	0.002300
C368	C	0.217320	-0.437110	-0.002500
C369	C	0.211563	-0.421122	0.026807
H370	H	0.190791	-0.461524	0.006672
H371	H	0.224399	-0.420835	-0.023523
H372	H	0.240676	-0.439818	-0.010528
H373	H	0.188211	-0.418409	0.034831
H374	H	0.204479	-0.437397	0.047832
O375	O	-0.664622	-0.606858	0.395698
C376	C	-0.663114	-0.606173	0.362008
H377	H	-0.662970	-0.580998	0.353003
H378	H	-0.693327	-0.634019	0.367559
C379	C	-0.621028	-0.632734	0.340931
C380	C	-0.620847	-0.601812	0.329869
H381	H	-0.594957	-0.630045	0.321106
H382	H	-0.622045	-0.633197	0.363629
H383	H	-0.646207	-0.655936	0.345557
H384	H	-0.595672	-0.578611	0.325247
H385	H	-0.619825	-0.601345	0.307169
H386	H	0.102606	-0.218843	0.013783
O387	O	-0.775785	-0.321983	0.506823
C388	C	-0.810261	-0.325382	0.506736
H389	H	-0.802452	-0.323171	0.476820
H390	H	-0.813638	-0.301450	0.515349
C391	C	-0.863497	-0.367123	0.572159
C392	C	-0.853908	-0.364411	0.535417
H393	H	-0.890422	-0.391197	0.589852
H394	H	-0.840270	-0.364833	0.572219
H395	H	-0.866309	-0.347178	0.579331
H396	H	-0.851092	-0.384353	0.528243
H397	H	-0.877136	-0.366706	0.535357
H398	H	-0.002298	-0.408829	0.411365
H399	H	0.267896	-0.186572	-0.365817
O400	O	0.224313	0.295830	-0.110990
C401	C	0.232924	0.329427	-0.129112
H402	H	0.262967	0.342493	-0.160097
H403	H	0.239765	0.350828	-0.113471
C404	C	0.155606	0.303520	-0.090121
C405	C	0.192503	0.319566	-0.128179
H406	H	0.130673	0.297438	-0.089544
H407	H	0.149804	0.280886	-0.077911
H408	H	0.161313	0.321357	-0.077092
H409	H	0.186798	0.301727	-0.141206
H410	H	0.198303	0.342197	-0.140391
H411	H	0.064825	-0.186540	-0.366338
H412	H	0.167269	0.098131	-0.468782
H413	H	-0.181841	-0.603391	0.398082
O414	O	-0.379781	-0.322054	0.110893
C415	C	-0.403169	-0.358797	0.136189
H416	H	-0.437509	-0.367701	0.160572
H417	H	-0.384562	-0.358211	0.148353
C418	C	-0.365289	-0.376761	0.084500
C419	C	-0.407467	-0.387698	0.114447
H420	H	-0.367938	-0.394589	0.071089
H421	H	-0.349531	-0.352006	0.067458
H422	H	-0.349787	-0.376273	0.094642
H423	H	-0.422965	-0.388182	0.104305
H424	H	-0.423228	-0.412454	0.131487
O425	O	0.224252	0.295689	-0.395787
C426	C	0.191248	0.263508	-0.362096
H427	H	0.207418	0.254650	-0.353089
H428	H	0.168954	0.238845	-0.367647
C429	C	0.143607	0.284513	-0.341023
C430	C	0.163468	0.273637	-0.329959
H431	H	0.126470	0.290760	-0.321200
H432	H	0.165842	0.306194	-0.363722
H433	H	0.125032	0.263959	-0.345649
H434	H	0.182047	0.294192	-0.325338
H435	H	0.141236	0.251960	-0.307258
O436	O	0.335677	-0.113305	-0.506929
C437	C	0.374315	-0.076553	-0.520280
H438	H	0.388479	-0.076485	-0.503689
H439	H	0.365962	-0.054747	-0.515901
C440	C	0.391273	-0.066038	-0.583565
C441	C	0.408672	-0.065956	-0.563190
H442	H	0.412466	-0.059501	-0.610034
H443	H	0.365241	-0.090798	-0.574570
H444	H	0.384313	-0.047867	-0.579912
H445	H	0.415627	-0.084131	-0.566839
H446	H	0.434706	-0.041199	-0.572187
H447	H	0.064526	-0.351765	0.468991
O448	O	0.106222	-0.300193	0.305824
C449	C	0.096345	-0.276921	0.326300
H450	H	0.067300	-0.295263	0.357362
H451	H	0.087329	-0.262762	0.312895
C452	C	0.172644	-0.223323	0.286665
C453	C	0.136973	-0.245850	0.324817
H454	H	0.197705	-0.204156	0.285749
H455	H	0.179298	-0.239001	0.272869
H456	H	0.165125	-0.211528	0.275499
H457	H	0.144490	-0.257649	0.335981
H458	H	0.130321	-0.230173	0.338615
O459	O	-0.005366	-0.411758	0.305793
C460	C	-0.049122	-0.422377	0.326277
H461	H	-0.052770	-0.403278	0.344396
H462	H	-0.072893	-0.453515	0.345700
C463	C	-0.055401	-0.441173	0.275687
C464	C	-0.059880	-0.417712	0.297939
H465	H	-0.062038	-0.438297	0.258207
H466	H	-0.025922	-0.434020	0.261887
H467	H	-0.075210	-0.467119	0.291876
H468	H	-0.040067	-0.391767	0.281750
H469	H	-0.089356	-0.424861	0.311736
H470	H	0.102110	-0.319446	0.114137
O471	O	-0.559210	-0.411929	0.305696
C472	C	-0.521698	-0.387101	0.268351
H473	H	-0.508784	-0.356177	0.267176
H474	H	-0.531082	-0.393431	0.247289
C475	C	-0.501350	-0.431185	0.259042
C476	C	-0.485487	-0.393203	0.257599
H477	H	-0.479014	-0.434949	0.252408
H478	H	-0.526623	-0.447913	0.284201
H479	H	-0.509170	-0.436455	0.241490
H480	H	-0.477673	-0.387935	0.275154
H481	H	-0.460211	-0.376474	0.232442
H482	H	0.267945	0.301232	-0.366341
H483	H	0.102624	0.268416	0.113879
H484	H	0.552845	0.098385	-0.366316
H485	H	0.437704	0.310998	-0.308766
O486	O	0.620485	0.171589	-0.395809
C487	C	0.617000	0.202666	-0.392411
H488	H	0.589293	0.197069	-0.394619
H489	H	0.649543	0.229972	-0.416345
C490	C	0.640689	0.214165	-0.350675
C491	C	0.606656	0.207289	-0.353383
H492	H	0.634310	0.217018	-0.326602
H493	H	0.643038	0.193229	-0.352965
H494	H	0.667805	0.236920	-0.370622
H495	H	0.579542	0.184532	-0.333439
H496	H	0.604302	0.228222	-0.351089
H497	H	0.332793	-0.116391	-0.113952
O498	O	0.211472	-0.112832	-0.507429
C499	C	0.244392	-0.079133	-0.508176
H500	H	0.236632	-0.082387	-0.478230
H501	H	0.245247	-0.053836	-0.518151
C502	C	0.299208	-0.068101	-0.572748
C503	C	0.289680	-0.072099	-0.535968
H504	H	0.327144	-0.063761	-0.589893
H505	H	0.277029	-0.090804	-0.572246
H506	H	0.299918	-0.047021	-0.581056
H507	H	0.288964	-0.093181	-0.527659
H508	H	0.311860	-0.049399	-0.536470
O509	O	0.211437	0.171127	0.013504
C510	C	0.245985	0.202185	-0.021067
H511	H	0.231465	0.210932	-0.032468
H512	H	0.266486	0.193357	-0.042976
C513	C	0.293478	0.225476	0.000170
C514	C	0.275644	0.236222	-0.013831
H515	H	0.311775	0.246471	0.004633
H516	H	0.270203	0.204551	0.023461
H517	H	0.310559	0.218119	-0.018089
H518	H	0.258559	0.243574	0.004430
H519	H	0.298917	0.257149	-0.037119
O520	O	-0.114381	0.263020	0.472008
C521	C	-0.098895	0.296619	0.481515
H522	H	-0.116806	0.309692	0.482455
H523	H	-0.061852	0.318013	0.459031
C524	C	-0.085823	0.270702	0.519844
C525	C	-0.107825	0.286757	0.521003
H526	H	-0.091329	0.264620	0.544201
H527	H	-0.096255	0.248066	0.513438
H528	H	-0.054956	0.288533	0.501106
H529	H	-0.138691	0.268925	0.539737
H530	H	-0.097398	0.309390	0.527413
O531	O	0.329212	-0.411973	-0.029036
C532	C	0.339091	-0.391482	-0.062176
H533	H	0.376311	-0.373365	-0.084915
H534	H	0.327378	-0.372058	-0.054810
C535	C	0.269715	-0.442061	-0.049680
C536	C	0.315429	-0.419813	-0.077611
H537	H	0.255117	-0.459536	-0.059201
H538	H	0.263058	-0.455866	-0.027352
H539	H	0.259959	-0.425870	-0.043545
H540	H	0.325184	-0.436003	-0.083742
H541	H	0.322087	-0.406011	-0.099940
O542	O	0.620282	0.171361	-0.507409
C543	C	0.616765	0.202417	-0.507378
H544	H	0.614117	0.211165	-0.481457
H545	H	0.586024	0.193588	-0.505962
C546	C	0.661280	0.225708	-0.576109
C547	C	0.658032	0.236454	-0.544275
H548	H	0.686734	0.246703	-0.598869
H549	H	0.663648	0.204784	-0.576131
H550	H	0.635660	0.218350	-0.574924
H551	H	0.683649	0.243807	-0.545458
H552	H	0.655669	0.257380	-0.544255
O553	O	0.336198	0.295861	-0.111209
C554	C	0.379324	0.329455	-0.129414
H555	H	0.382956	0.353233	-0.146096
H556	H	0.404336	0.323704	-0.149916
C557	C	0.383279	0.312597	-0.078581
C558	C	0.387738	0.341802	-0.099067
H559	H	0.388471	0.320213	-0.059862
H560	H	0.354225	0.289963	-0.066317
H561	H	0.404122	0.307807	-0.095670
H562	H	0.366891	0.346588	-0.081979
H563	H	0.416789	0.364438	-0.111328
H564	H	0.205048	-0.216515	0.398819
H565	H	0.167470	-0.248829	0.366274
O566	O	-0.184853	0.268751	0.507320
C567	C	-0.181336	0.303325	0.507285
H568	H	-0.178681	0.314719	0.481359
H569	H	-0.150599	0.325236	0.505873
C570	C	-0.225864	0.282107	0.576016
C571	C	-0.222606	0.296099	0.544176
H572	H	-0.251320	0.277651	0.598773
H573	H	-0.228232	0.258814	0.576040
H574	H	-0.200247	0.300368	0.574835
H575	H	-0.248220	0.277836	0.545355
H576	H	-0.220243	0.319388	0.544153
O577	O	-0.005589	0.253286	0.417315
C578	C	-0.049343	0.220148	0.440590
H579	H	-0.052987	0.197397	0.426124
H580	H	-0.073117	0.227510	0.444934
C581	C	-0.055625	0.232682	0.497455
C582	C	-0.060099	0.204738	0.479689
H583	H	-0.062261	0.223177	0.521574
H584	H	-0.026147	0.255008	0.481774
H585	H	-0.075437	0.238814	0.501072
H586	H	-0.040284	0.198609	0.476069
H587	H	-0.089574	0.182410	0.495371
O588	O	0.376952	-0.245700	-0.019327
C589	C	0.388412	-0.208951	-0.017433
H590	H	0.357725	-0.208882	-0.003342
H591	H	0.414203	-0.187139	-0.047588
C592	C	0.445236	-0.198448	-0.010968
C593	C	0.407544	-0.198365	0.006341
H594	H	0.457039	-0.191916	0.003696
H595	H	0.437516	-0.223206	-0.012245
H596	H	0.466724	-0.180272	-0.036097
H597	H	0.386055	-0.216544	0.031468
H598	H	0.415261	-0.173609	0.007624
O599	O	0.099813	0.171346	0.013589
C600	C	0.089362	0.184987	0.044804
H601	H	0.110125	0.187820	0.055336
H602	H	0.052799	0.164022	0.068949
C603	C	0.073789	0.220904	0.019119
C604	C	0.099293	0.224386	0.032054
H605	H	0.079913	0.245206	0.011256
H606	H	0.080829	0.211712	-0.001910
H607	H	0.043322	0.203431	0.039243
H608	H	0.129759	0.241855	0.011929
H609	H	0.092258	0.233582	0.053080
O610	O	-0.184838	-0.606701	0.506846
C611	C	-0.181354	-0.637779	0.506759
H612	H	-0.153649	-0.632184	0.476844
H613	H	-0.213898	-0.665086	0.515372
C614	C	-0.205036	-0.649269	0.572183
C615	C	-0.171007	-0.642396	0.535442
H616	H	-0.198656	-0.652119	0.589877
H617	H	-0.207386	-0.628333	0.572243
H618	H	-0.232154	-0.672024	0.579355
H619	H	-0.143892	-0.619639	0.528268
H620	H	-0.168653	-0.663329	0.535382
H621	H	-0.182272	0.268459	0.398770
O622	O	0.549858	-0.357363	-0.019333
C623	C	0.573360	-0.370584	-0.017440
H624	H	0.589993	-0.353918	-0.003353
H625	H	0.599573	-0.366185	-0.047595
C626	C	0.520729	-0.433951	-0.010966
C627	C	0.541154	-0.413484	0.006338
H628	H	0.500863	-0.460414	0.003699
H629	H	0.504895	-0.425044	-0.012244
H630	H	0.542577	-0.430281	-0.036096
H631	H	0.519306	-0.417150	0.031465
H632	H	0.556983	-0.422392	0.007620
O633	O	0.620312	0.295778	-0.506949
C634	C	0.635780	0.329365	-0.531944
H635	H	0.642817	0.353154	-0.518901
H636	H	0.609600	0.323611	-0.536559
C637	C	0.669892	0.312473	-0.586650
C638	C	0.678539	0.341693	-0.570631
H639	H	0.696267	0.320077	-0.610515
H640	H	0.659470	0.289844	-0.569811
H641	H	0.648074	0.307681	-0.590493
H642	H	0.700352	0.346481	-0.566784
H643	H	0.688966	0.364323	-0.587471
H644	H	0.370885	0.301223	-0.469054
O645	O	-0.734965	-0.357360	0.471725
C646	C	-0.778090	-0.382282	0.481254
H647	H	-0.781720	-0.369235	0.461105
H648	H	-0.803103	-0.386788	0.512015
C649	C	-0.782049	-0.437068	0.502078
C650	C	-0.786505	-0.421045	0.477328
H651	H	-0.787241	-0.460980	0.499658
H652	H	-0.752995	-0.420278	0.495660
H653	H	-0.802893	-0.440820	0.527710
H654	H	-0.765658	-0.417289	0.451697
H655	H	-0.815556	-0.437835	0.483742
O656	O	0.376658	-0.077976	-0.471749
C657	C	0.369595	-0.053821	-0.451055
H658	H	0.341208	-0.071685	-0.419728
H659	H	0.360962	-0.038304	-0.463452
C660	C	0.446751	-0.002326	-0.492499
C661	C	0.411888	-0.024266	-0.454022
H662	H	0.472840	0.015907	-0.494330
H663	H	0.451510	-0.018599	-0.506442
H664	H	0.439551	0.010602	-0.502826
H665	H	0.419086	-0.037197	-0.443697
H666	H	0.407132	-0.007994	-0.440077
H667	H	-0.117415	0.263190	0.366230
H668	H	0.617258	-0.216240	-0.013873
O669	O	0.440751	0.311133	-0.417410
C670	C	0.453406	0.344273	-0.440676
H671	H	0.458048	0.367020	-0.426206
H672	H	0.426611	0.336914	-0.445014
C673	C	0.491454	0.331748	-0.497551
C674	C	0.497159	0.359688	-0.479780
H675	H	0.518442	0.341257	-0.521673
H676	H	0.482927	0.309420	-0.481876
H677	H	0.469123	0.325618	-0.501162
H678	H	0.519486	0.365815	-0.476164
H679	H	0.505691	0.382018	-0.495455
O680	O	0.336159	0.295794	-0.507475
C681	C	0.346669	0.326994	-0.531638
H682	H	0.351357	0.350859	-0.518625
H683	H	0.318643	0.317359	-0.534892
C684	C	0.383916	0.312545	-0.587198
C685	C	0.389678	0.341857	-0.571217
H686	H	0.410445	0.321712	-0.611613
H687	H	0.376834	0.291523	-0.570919
H688	H	0.360560	0.304518	-0.589906
H689	H	0.413029	0.349880	-0.568505
H690	H	0.396764	0.362880	-0.587496
H691	H	-0.002525	-0.129181	0.028805
H692	H	-0.664969	-0.409045	0.411340
O693	O	0.265165	0.301470	-0.187184
C694	C	0.291758	0.304345	-0.225457
H695	H	0.311362	0.292720	-0.227601
H696	H	0.315564	0.335631	-0.244496
C697	C	0.238090	0.295207	-0.236017
C698	C	0.262165	0.280925	-0.238649
H699	H	0.219836	0.280762	-0.244155
H700	H	0.220174	0.293272	-0.210232
H701	H	0.257932	0.321279	-0.251883
H702	H	0.242322	0.254856	-0.222780
H703	H	0.280076	0.282856	-0.264432
H704	H	-0.002510	0.253416	0.308669
H705	H	0.100149	0.253421	0.308676
H706	H	0.437709	-0.409066	-0.028885
H707	H	0.617241	0.295963	-0.398133
O708	O	0.549508	0.301455	-0.359961
C709	C	0.514141	0.304336	-0.348416
H710	H	0.500469	0.292701	-0.365941
H711	H	0.526389	0.335625	-0.353219
C712	C	0.494223	0.295225	-0.284120
C713	C	0.477428	0.280932	-0.305642
H714	H	0.471578	0.280789	-0.257734
H715	H	0.518051	0.293285	-0.291898
H716	H	0.504430	0.321298	-0.288127
H717	H	0.467227	0.254860	-0.301639
H718	H	0.453597	0.282867	-0.297862
O719	O	-0.735208	-0.530495	0.472068
C720	C	-0.773860	-0.555785	0.508813
H721	H	-0.772813	-0.580170	0.517720
H722	H	-0.804047	-0.567948	0.508228
C723	C	-0.778005	-0.504092	0.526770
C724	C	-0.776717	-0.534040	0.537711
H725	H	-0.779769	-0.490679	0.544596
H726	H	-0.751966	-0.487053	0.502014
H727	H	-0.803161	-0.514232	0.526283
H728	H	-0.751559	-0.523900	0.538194
H729	H	-0.802753	-0.551077	0.562468
O730	O	0.170246	-0.077742	0.019310
C731	C	0.143558	-0.066188	0.022170
H732	H	0.108783	-0.092552	0.034586
H733	H	0.158253	-0.048595	-0.007472
C734	C	0.184240	-0.009338	0.033312
C735	C	0.141528	-0.041719	0.048566
H736	H	0.182989	0.005757	0.049593
H737	H	0.202222	-0.017122	0.031384
H738	H	0.196481	0.005318	0.008611
H739	H	0.129290	-0.056377	0.073264
H740	H	0.123544	-0.033938	0.050499
H741	H	-0.117201	-0.533500	0.468702
O742	O	0.211154	-0.210662	0.110916
C743	C	0.222604	-0.197306	0.136210
H744	H	0.207121	-0.222740	0.160596
H745	H	0.209860	-0.179279	0.148372
C746	C	0.292261	-0.141472	0.084519
C747	C	0.273246	-0.172711	0.114468
H748	H	0.323499	-0.126299	0.071108
H749	H	0.284546	-0.150469	0.067478
H750	H	0.281636	-0.126454	0.094659
H751	H	0.283867	-0.187730	0.104328
H752	H	0.280964	-0.163715	0.131508
O753	O	0.058728	0.262924	0.186978
C754	C	0.047416	0.264835	0.161574
H755	H	0.062961	0.254875	0.137228
H756	H	0.060198	0.295608	0.149370
C757	C	-0.022301	0.251040	0.213102
C758	C	-0.003211	0.238804	0.183201
H759	H	-0.053530	0.234985	0.226442
H760	H	-0.014680	0.249754	0.230216
H761	H	-0.011645	0.276685	0.202927
H762	H	-0.013863	0.213162	0.193376
H763	H	-0.010836	0.240085	0.166088
H764	H	-0.002524	-0.026519	0.028802
O765	O	0.211391	0.268600	0.111150
C766	C	0.222714	0.266705	0.136549
H767	H	0.191959	0.252621	0.167268
H768	H	0.248470	0.296859	0.132606
C769	C	0.279606	0.260224	0.090396
C770	C	0.241831	0.242923	0.128125
H771	H	0.291400	0.245555	0.085199
H772	H	0.271979	0.261502	0.073283
H773	H	0.301065	0.285352	0.087114
H774	H	0.220371	0.217797	0.131405
H775	H	0.249455	0.241640	0.145238
O776	O	0.170316	0.262961	0.187312
C777	C	0.180767	0.294178	0.200950
H778	H	0.160007	0.304712	0.203778
H779	H	0.217331	0.318321	0.179985
C780	C	0.196331	0.268495	0.236878
C781	C	0.170831	0.281432	0.240353
H782	H	0.190204	0.260634	0.261182
H783	H	0.189292	0.247465	0.227688
H784	H	0.226799	0.288617	0.219405
H785	H	0.140364	0.261309	0.257822
H786	H	0.177864	0.302459	0.249546
H787	H	0.552607	0.301210	-0.468757
O788	O	0.211377	-0.112808	0.013597
C789	C	0.222699	-0.076087	0.015496
H790	H	0.191945	-0.076121	0.029581
H791	H	0.248459	-0.054272	-0.014657
C792	C	0.279586	-0.065354	0.021979
C793	C	0.241813	-0.065397	0.039281
H794	H	0.291379	-0.058759	0.036649
H795	H	0.271960	-0.090093	0.020699
H796	H	0.301048	-0.047175	-0.003148
H797	H	0.220351	-0.083579	0.064406
H798	H	0.249437	-0.040660	0.040566
O799	O	0.377018	0.301566	-0.187406
C800	C	0.411497	0.336124	-0.218488
H801	H	0.403697	0.358237	-0.212897
H802	H	0.414869	0.330883	-0.245794
C803	C	0.464723	0.323924	-0.229977
C804	C	0.455144	0.351084	-0.223108
H805	H	0.491647	0.333152	-0.232828
H806	H	0.441493	0.300641	-0.209037
H807	H	0.467530	0.319559	-0.252731
H808	H	0.452332	0.355446	-0.200352
H809	H	0.478375	0.374369	-0.244044
O810	O	0.549593	-0.245714	-0.019317
C811	C	0.534112	-0.236195	0.014275
H812	H	0.552017	-0.235257	0.027354
H813	H	0.497067	-0.258669	0.035670
C814	C	0.521064	-0.197858	-0.011665
C815	C	0.543058	-0.196702	0.004397
H816	H	0.526581	-0.173498	-0.017757
H817	H	0.531492	-0.204272	-0.034296
H818	H	0.490196	-0.216588	0.006167
H819	H	0.573926	-0.177976	-0.013436
H820	H	0.532635	-0.190284	0.027025
O821	O	0.099231	-0.322566	0.507382
C822	C	0.060603	-0.359282	0.520608
H823	H	0.061756	-0.368080	0.495103
H824	H	0.030406	-0.358707	0.538609
C825	C	0.056228	-0.377476	0.576515
C826	C	0.057645	-0.388283	0.545190
H827	H	0.054401	-0.395365	0.591680
H828	H	0.082251	-0.352739	0.567605
H829	H	0.031063	-0.376996	0.591512
H830	H	0.082812	-0.388757	0.530191
H831	H	0.031626	-0.413020	0.554097
H832	H	-0.117212	-0.083598	-0.184336
O833	O	0.170252	-0.245836	0.187115
C834	C	0.143657	-0.269547	0.225390
H835	H	0.124055	-0.300777	0.227536
H836	H	0.119849	-0.262066	0.244425
C837	C	0.197319	-0.225011	0.235953
C838	C	0.173247	-0.263368	0.238588
H839	H	0.215571	-0.221198	0.244094
H840	H	0.215237	-0.209035	0.210167
H841	H	0.177475	-0.218781	0.251815
H842	H	0.193091	-0.269597	0.222722
H843	H	0.155333	-0.279345	0.264371
H844	H	-0.770155	-0.603608	0.501511
H845	H	0.064808	0.098152	0.019035
O846	O	0.440904	-0.023399	-0.305754
C847	C	0.416230	-0.048223	-0.268405
H848	H	0.397069	-0.079149	-0.267233
H849	H	0.392089	-0.041908	-0.247355
C850	C	0.471306	-0.004109	-0.259062
C851	C	0.447775	-0.042093	-0.257624
H852	H	0.490764	-0.000327	-0.252411
H853	H	0.487929	0.012616	-0.284225
H854	H	0.451184	0.001149	-0.241521
H855	H	0.467897	-0.047349	-0.275168
H856	H	0.431157	-0.058820	-0.232464
H857	H	-0.182279	-0.218843	-0.113977
O858	O	-0.005593	-0.135164	-0.305785
C859	C	-0.043101	-0.147841	-0.268439
H860	H	-0.056023	-0.129837	-0.267266
H861	H	-0.033709	-0.144770	-0.247381
C862	C	-0.063434	-0.212267	-0.259114
C863	C	-0.079307	-0.190157	-0.257674
H864	H	-0.085768	-0.238371	-0.252473
H865	H	-0.038164	-0.203726	-0.284274
H866	H	-0.055608	-0.209704	-0.241566
H867	H	-0.087128	-0.192717	-0.275225
H868	H	-0.104580	-0.198699	-0.232517
H869	H	0.204850	0.168253	-0.501099
H870	H	-0.117412	-0.186525	-0.184100
O871	O	0.099830	-0.224732	-0.395895
C872	C	0.089381	-0.248823	-0.416660
H873	H	0.110146	-0.230894	-0.447956
H874	H	0.052819	-0.264419	-0.404244
C875	C	0.073805	-0.300313	-0.375401
C876	C	0.099311	-0.278293	-0.413840
H877	H	0.079928	-0.318493	-0.373660
H878	H	0.080843	-0.284083	-0.361410
H879	H	0.043338	-0.313306	-0.365058
H880	H	0.129777	-0.265297	-0.424180
H881	H	0.092279	-0.294521	-0.427833
H882	H	-0.629638	-0.533721	0.366252
H883	H	0.205320	0.268435	0.398066
O884	O	0.170376	0.262926	0.359895
C885	C	0.209024	0.264828	0.346539
H886	H	0.207975	0.254879	0.371974
H887	H	0.239214	0.295597	0.328510
C888	C	0.213165	0.251002	0.290706
C889	C	0.211875	0.238779	0.321945
H890	H	0.214925	0.234936	0.275534
H891	H	0.187128	0.249722	0.299703
H892	H	0.238323	0.276643	0.275686
H893	H	0.186714	0.213141	0.336967
H894	H	0.237908	0.240054	0.312950
H895	H	0.102623	0.268466	0.500992
O896	O	-0.559322	-0.300421	0.305799
C897	C	-0.583989	-0.287740	0.330626
H898	H	-0.603171	-0.305744	0.361552
H899	H	-0.608112	-0.290806	0.324299
C900	C	-0.528878	-0.223314	0.286534
C901	C	-0.552435	-0.245425	0.324518
H902	H	-0.509415	-0.197211	0.282765
H903	H	-0.512260	-0.231857	0.269807
H904	H	-0.548985	-0.225873	0.281266
H905	H	-0.532329	-0.242869	0.329783
H906	H	-0.569049	-0.236880	0.341246
O907	O	0.106059	-0.023536	-0.417393
C908	C	0.118567	0.013804	-0.430079
H909	H	0.105174	0.023157	-0.404338
H910	H	0.104481	0.014132	-0.446626
C911	C	0.185795	0.030026	-0.487973
C912	C	0.169350	0.041516	-0.456357
H913	H	0.217121	0.047120	-0.504183
H914	H	0.177368	0.004869	-0.479427
H915	H	0.174053	0.030300	-0.501757
H916	H	0.181087	0.041237	-0.442570
H917	H	0.177780	0.066673	-0.464901
O918	O	0.058746	0.262996	0.471777
C919	C	0.047422	0.264898	0.508498
H920	H	0.078175	0.278984	0.508464
H921	H	0.021663	0.234746	0.530315
C922	C	-0.009466	0.271379	0.519228
C923	C	0.028306	0.288682	0.519185
H924	H	-0.021260	0.286048	0.525821
H925	H	-0.001838	0.270095	0.494489
H926	H	-0.030927	0.246252	0.537409
H927	H	0.049768	0.313806	0.501001
H928	H	0.020681	0.289970	0.543921
O929	O	-0.184823	-0.112795	0.013563
C930	C	-0.161344	-0.076083	0.015489
H931	H	-0.127029	-0.067270	0.005513
H932	H	-0.179911	-0.076677	0.046271
C933	C	-0.199115	-0.057911	0.001742
C934	C	-0.156968	-0.047084	-0.010514
H935	H	-0.196417	-0.040023	-0.014297
H936	H	-0.214935	-0.082644	0.000445
H937	H	-0.214583	-0.058406	0.027393
H938	H	-0.141502	-0.046595	-0.036163
H939	H	-0.141145	-0.022350	-0.009223
O940	O	-0.185072	-0.224668	0.013475
C941	C	-0.181587	-0.224586	-0.021087
H942	H	-0.153881	-0.194673	-0.043198
H943	H	-0.214131	-0.233197	-0.015851
C944	C	-0.205274	-0.290010	-0.008891
C945	C	-0.171243	-0.253271	-0.036048
H946	H	-0.198895	-0.307706	-0.018119
H947	H	-0.207624	-0.290067	0.014395
H948	H	-0.232391	-0.297181	-0.004530
H949	H	-0.144128	-0.246099	-0.040405
H950	H	-0.168888	-0.253214	-0.059336
O951	O	0.376987	-0.530515	-0.019380
C952	C	0.388441	-0.555806	-0.017476
H953	H	0.372962	-0.580192	-0.027430
H954	H	0.375696	-0.567968	0.013294
C955	C	0.458094	-0.504114	-0.031293
C956	C	0.439084	-0.534062	-0.043521
H957	H	0.489332	-0.490701	-0.047357
H958	H	0.450376	-0.487074	-0.032574
H959	H	0.447468	-0.514253	-0.005651
H960	H	0.449705	-0.523923	-0.069161
H961	H	0.446804	-0.551100	-0.042245
O962	O	0.170369	0.094927	0.019295
C963	C	0.209018	0.120219	0.017391
H964	H	0.207971	0.144606	0.027342
H965	H	0.239207	0.132378	-0.013379
C966	C	0.213156	0.068525	0.031214
C967	C	0.211868	0.098476	0.043438
H968	H	0.214916	0.055113	0.047279
H969	H	0.187118	0.051485	0.032495
H970	H	0.238314	0.078662	0.005572
H971	H	0.186708	0.088338	0.069078
H972	H	0.237902	0.115513	0.042162
H973	H	0.370598	-0.083850	-0.184076
O974	O	0.329387	-0.134905	-0.305860
C975	C	0.316857	-0.147578	-0.330683
H976	H	0.346614	-0.129598	-0.361611
H977	H	0.289504	-0.144472	-0.324371
C978	C	0.263378	-0.211991	-0.286558
C979	C	0.299926	-0.189909	-0.324545
H980	H	0.252932	-0.238103	-0.282771
H981	H	0.271818	-0.203453	-0.269834
H982	H	0.240588	-0.209398	-0.281303
H983	H	0.322717	-0.192499	-0.329797
H984	H	0.291490	-0.198449	-0.341270
O985	O	0.620371	-0.321937	-0.013686
C986	C	0.665227	-0.301172	-0.044901
H987	H	0.678591	-0.269878	-0.055433
H988	H	0.668406	-0.313590	-0.069047
C989	C	0.675464	-0.342427	-0.019221
C990	C	0.691879	-0.303990	-0.032154
H991	H	0.691905	-0.344166	-0.011358
H992	H	0.645244	-0.356418	0.001809
H993	H	0.678115	-0.352771	-0.039344
H994	H	0.689223	-0.293648	-0.012029
H995	H	0.722100	-0.289997	-0.053180
H996	H	-0.382753	-0.216236	0.114110
O997	O	0.224020	-0.224973	-0.111217
C998	C	0.212696	-0.238194	-0.136615
H999	H	0.243452	-0.221531	-0.167334
H1000	H	0.186946	-0.233789	-0.132676
C1001	C	0.155792	-0.301558	-0.090454
C1002	C	0.193567	-0.281095	-0.128183
H1003	H	0.143990	-0.328022	-0.085252
H1004	H	0.163420	-0.292651	-0.073342
H1005	H	0.134338	-0.297883	-0.087176
H1006	H	0.215022	-0.284766	-0.131459
H1007	H	0.185942	-0.290004	-0.145295
O1008	O	0.223968	-0.224943	-0.395037
C1009	C	0.191048	-0.225689	-0.361335
H1010	H	0.198805	-0.195744	-0.364591
H1011	H	0.190197	-0.235660	-0.336040
C1012	C	0.136234	-0.290262	-0.350296
C1013	C	0.145759	-0.253484	-0.354295
H1014	H	0.108296	-0.307409	-0.345952
H1015	H	0.158412	-0.289761	-0.373000
H1016	H	0.135527	-0.298567	-0.329217
H1017	H	0.146471	-0.245179	-0.375377
H1018	H	0.123579	-0.253985	-0.331594
O1019	O	0.336166	-0.606659	-0.013715
C1020	C	0.346672	-0.620310	-0.044919
H1021	H	0.351357	-0.602608	-0.068779
H1022	H	0.318646	-0.651589	-0.035284
C1023	C	0.383924	-0.638626	-0.030484
C1024	C	0.389682	-0.616881	-0.059791
H1025	H	0.410454	-0.636513	-0.039657
H1026	H	0.376845	-0.629430	-0.009460
H1027	H	0.360568	-0.664689	-0.022458
H1028	H	0.413034	-0.590818	-0.067813
H1029	H	0.396766	-0.626073	-0.080816
O1030	O	-0.005480	-0.023542	-0.305897
C1031	C	0.019190	0.013804	-0.330725
H1032	H	0.038366	0.014976	-0.361651
H1033	H	0.043319	0.034859	-0.324402
C1034	C	-0.035909	0.023133	-0.286629
C1035	C	-0.012360	0.024572	-0.324612
H1036	H	-0.055370	0.029777	-0.282857
H1037	H	-0.052529	-0.002027	-0.269901
H1038	H	-0.015798	0.040679	-0.281364
H1039	H	-0.032471	0.007023	-0.329875
H1040	H	0.004256	0.049730	-0.341341
H1041	H	-0.182059	-0.115906	-0.114213
H1042	H	0.100131	-0.026521	0.028807
O1043	O	0.224310	-0.606934	-0.013678
C1044	C	0.231435	-0.620575	-0.044894
H1045	H	0.259901	-0.623405	-0.055428
H1046	H	0.239982	-0.599611	-0.069038
C1047	C	0.154259	-0.656497	-0.019207
C1048	C	0.189219	-0.659976	-0.032144
H1049	H	0.128218	-0.680801	-0.011344
H1050	H	0.149458	-0.647306	0.001822
H1051	H	0.161387	-0.639026	-0.039330
H1052	H	0.182093	-0.677444	-0.012020
H1053	H	0.194017	-0.669171	-0.053170
O1054	O	0.099101	0.171060	-0.395072
C1055	C	0.097572	0.170282	-0.361371
H1056	H	0.123014	0.165780	-0.364624
H1057	H	0.063155	0.145840	-0.336074
C1058	C	0.076777	0.214061	-0.350338
C1059	C	0.108029	0.208534	-0.354335
H1060	H	0.083225	0.237655	-0.345997
H1061	H	0.077806	0.214584	-0.373042
H1062	H	0.048099	0.193690	-0.329258
H1063	H	0.136705	0.228902	-0.375418
H1064	H	0.107005	0.208015	-0.331634
O1065	O	0.265045	-0.530772	-0.019326
C1066	C	0.226426	-0.556169	-0.017429
H1067	H	0.212374	-0.586887	-0.003343
H1068	H	0.234767	-0.552227	-0.047584
C1069	C	0.209214	-0.510012	-0.010951
C1070	C	0.191953	-0.547741	0.006352
H1071	H	0.187950	-0.504812	0.003717
H1072	H	0.235233	-0.492900	-0.012230
H1073	H	0.216164	-0.506731	-0.036079
H1074	H	0.185008	-0.551019	0.031478
H1075	H	0.165932	-0.564853	0.007636
O1076	O	-0.450351	-0.245675	0.187255
C1077	C	-0.417479	-0.211986	0.186569
H1078	H	-0.383444	-0.202982	0.161391
H1079	H	-0.420663	-0.217540	0.214414
C1080	C	-0.465048	-0.190909	0.213139
C1081	C	-0.423246	-0.179847	0.182213
H1082	H	-0.468606	-0.171084	0.210454
H1083	H	-0.487195	-0.213606	0.213603
H1084	H	-0.467696	-0.195537	0.236340
H1085	H	-0.420600	-0.175224	0.159013
H1086	H	-0.401098	-0.157149	0.181745
O1087	O	0.224306	-0.321967	-0.013679
C1088	C	0.231426	-0.301193	-0.044884
H1089	H	0.268307	-0.282083	-0.068745
H1090	H	0.218641	-0.282730	-0.035251
C1091	C	0.161353	-0.352728	-0.030446
C1092	C	0.206651	-0.329259	-0.059754
H1093	H	0.146069	-0.370040	-0.039618
H1094	H	0.156555	-0.366723	-0.009422
H1095	H	0.150705	-0.337337	-0.022422
H1096	H	0.217299	-0.344649	-0.067774
H1097	H	0.211450	-0.315267	-0.080780
O1098	O	-0.663829	-0.210368	0.394941
C1099	C	-0.625198	-0.197142	0.358225
H1100	H	-0.626351	-0.222646	0.349426
H1101	H	-0.595003	-0.179146	0.358804
C1102	C	-0.620815	-0.141230	0.340032
C1103	C	-0.622233	-0.172555	0.329223
H1104	H	-0.618984	-0.126062	0.322142
H1105	H	-0.646840	-0.150139	0.364768
H1106	H	-0.595653	-0.126238	0.340514
H1107	H	-0.647398	-0.187550	0.328745
H1108	H	-0.596212	-0.163648	0.304485
H1109	H	0.437935	-0.026287	-0.411409
H1110	H	0.267897	-0.186572	-0.184305
H1111	H	0.167543	-0.083608	-0.469060
H1112	H	0.064321	0.097912	-0.365848
H1113	H	-0.447397	-0.351491	0.184007
H1114	H	-0.629125	-0.248761	0.365741
