data_functionalizedCrystal
_audit_creation_method	'MofGen! by Chris Wilmer'
_symmetry_space_group_name_H-M	'P1'
_symmetry_Int_Tables_number	1
_symmetry_cell_setting	triclinic
loop_
_symmetry_equiv_pos_as_xyz
  x,y,z
_cell_length_a	23.532407
_cell_length_b	17.666332
_cell_length_c	19.188924
_cell_angle_alpha	89.991448
_cell_angle_beta	82.995317
_cell_angle_gamma	89.997059
loop_
_atom_site_label
_atom_site_type_symbol
_atom_site_fract_x
_atom_site_fract_y
_atom_site_fract_z
O1	O	-0.755442	0.062838	-0.084758
O2	O	-0.255442	0.562838	0.415242
O3	O	-0.589604	0.062865	-0.097021
O4	O	-0.089604	0.562865	0.402979
O5	O	-0.677311	0.062842	0.010782
O6	O	-0.177311	0.562842	0.510782
O7	O	-0.667735	0.062862	-0.192561
O8	O	-0.167735	0.562862	0.307439
O9	O	-0.677295	-0.063055	0.010787
O10	O	-0.177295	0.436945	0.510787
O11	O	-0.589589	-0.063031	-0.097016
O12	O	-0.089589	0.436969	0.402984
O13	O	-0.755426	-0.063058	-0.084752
O14	O	-0.255426	0.436942	0.415248
Cu15	Cu	-0.672506	-0.074540	-0.090884
Cu16	Cu	-0.172506	0.425460	0.409116
Cu17	Cu	-0.672524	0.074347	-0.090890
Cu18	Cu	-0.172524	0.574347	0.409110
O19	O	-0.667720	-0.063035	-0.192555
O20	O	-0.167720	0.436965	0.307445
C21	C	-0.568380	-0.000080	-0.096706
C22	C	-0.068380	0.499920	0.403294
C23	C	-0.505161	-0.000070	-0.095767
C24	C	-0.005161	0.499930	0.404233
N25	N	-0.672498	-0.179260	-0.090878
N26	N	-0.172498	0.320740	0.409122
C27	C	-0.711347	-0.218880	-0.043166
C28	C	-0.211347	0.281120	0.456834
C29	C	-0.711350	-0.298127	-0.043163
C30	C	-0.211350	0.201873	0.456837
C31	C	-0.672510	-0.337752	-0.090884
C32	C	-0.172510	0.162248	0.409116
C33	C	-0.633653	-0.298122	-0.138599
C34	C	-0.133653	0.201878	0.361401
C35	C	-0.633647	-0.218876	-0.138597
C36	C	-0.133647	0.281124	0.361403
N37	N	-0.665105	-0.462164	-0.152715
N38	N	-0.165105	0.037836	0.347285
N39	N	-0.665114	-0.537444	-0.152715
N40	N	-0.165114	-0.037444	0.347285
C41	C	-0.672525	-0.576516	-0.090893
C42	C	-0.172525	-0.076516	0.409107
N43	N	-0.679937	-0.537463	-0.029069
N44	N	-0.179937	-0.037463	0.470931
N45	N	-0.679931	-0.462176	-0.029070
N46	N	-0.179931	0.037824	0.470930
C47	C	-0.672512	-0.423681	-0.090891
C48	C	-0.172512	0.076319	0.409109
C49	C	-0.711379	-0.702065	-0.043174
C50	C	-0.211379	-0.202065	0.456826
C51	C	-0.711379	-0.781314	-0.043169
C52	C	-0.211379	-0.281314	0.456831
C53	C	-0.633685	-0.781308	-0.138612
C54	C	-0.133685	-0.281308	0.361388
C55	C	-0.633683	-0.702060	-0.138610
C56	C	-0.133683	-0.202060	0.361390
C57	C	-0.672533	-0.662444	-0.090892
C58	C	-0.172533	-0.162444	0.409108
C59	C	-0.106179	-0.000089	-0.153674
C60	C	0.393821	0.499911	0.346326
C61	C	-0.046777	-0.000092	-0.152802
C62	C	0.453223	0.499908	0.347198
O63	O	-0.010146	-0.000113	-0.206482
O64	O	0.489854	0.499887	0.293518
N65	N	-0.024016	-0.000096	-0.088713
N66	N	0.475984	0.499904	0.411287
C67	C	-0.060661	-0.000105	-0.025492
C68	C	0.439339	0.499895	0.474508
O69	O	-0.035847	-0.000109	0.029101
O70	O	0.464153	0.499891	0.529101
C71	C	-0.120062	-0.000107	-0.026365
C72	C	0.379938	0.499893	0.473635
C73	C	-0.142819	-0.000095	-0.090458
C74	C	0.357181	0.499905	0.409542
C75	C	-0.128937	-0.000078	-0.217762
C76	C	0.371063	0.499922	0.282238
C77	C	-0.188335	-0.000073	-0.218634
C78	C	0.311665	0.499927	0.281366
C79	C	-0.224975	-0.000079	-0.155418
C80	C	0.275025	0.499921	0.344582
C81	C	-0.202217	-0.000090	-0.091330
C82	C	0.297783	0.499910	0.408670
C83	C	-0.156705	-0.000121	0.036855
C84	C	0.343295	0.499879	0.536855
C85	C	-0.216110	-0.000124	0.035976
C86	C	0.283890	0.499876	0.535976
C87	C	-0.238867	-0.000112	-0.028117
C88	C	0.261133	0.499888	0.471883
C89	C	-0.298255	-0.000092	-0.028986
C90	C	0.201745	0.499908	0.471014
N91	N	-0.321016	-0.000088	-0.093075
N92	N	0.178984	0.499912	0.406925
C93	C	-0.284376	-0.000082	-0.156291
C94	C	0.215624	0.499918	0.343709
C95	C	0.064085	-0.000102	-0.023664
C96	C	0.564085	0.499898	0.476336
C97	C	0.123485	-0.000094	-0.022790
C98	C	0.623485	0.499906	0.477210
C99	C	0.137365	-0.000082	-0.150100
C100	C	0.637365	0.499918	0.349900
C101	C	0.077964	-0.000085	-0.150973
C102	C	0.577964	0.499915	0.349027
C103	C	0.041324	-0.000097	-0.087753
C104	C	0.541324	0.499903	0.412247
C105	C	-0.409117	-0.000071	-0.158117
C106	C	0.090883	0.499929	0.341883
C107	C	-0.468521	-0.000063	-0.158983
C108	C	0.031479	0.499937	0.341017
C109	C	-0.482395	-0.000079	-0.031674
C110	C	0.017605	0.499921	0.468326
C111	C	-0.422997	-0.000083	-0.030807
C112	C	0.077003	0.499917	0.469193
C113	C	-0.386358	-0.000081	-0.094034
C114	C	0.113642	0.499919	0.405966
O115	O	-0.334922	-0.000074	0.024666
O116	O	0.165078	0.499926	0.524666
O117	O	-0.309199	-0.000087	-0.210874
O118	O	0.190801	0.499913	0.289126
C119	C	0.223349	-0.000105	-0.085067
C120	C	0.723349	0.499895	0.414933
C121	C	0.160130	-0.000092	-0.086006
C122	C	0.660130	0.499908	0.413994
C123	C	-0.676994	-0.000107	0.036795
C124	C	-0.176994	0.499893	0.536795
C125	C	-0.676065	-0.000109	0.114296
C126	C	-0.176065	0.499891	0.614296
N127	N	-0.672537	0.179067	-0.090890
N128	N	-0.172537	0.679067	0.409110
C129	C	-0.668037	-0.000085	-0.218568
C130	C	-0.168037	0.499915	0.281432
C131	C	-0.668966	-0.000078	-0.296070
C132	C	-0.168966	0.499922	0.203930
C133	C	-0.675640	0.068518	0.150691
C134	C	-0.175640	0.568518	0.650691
C135	C	-0.674759	0.068524	0.223511
C136	C	-0.174759	0.568524	0.723511
C137	C	-0.674314	-0.000101	0.259935
C138	C	-0.174314	0.499899	0.759935
C139	C	-0.674736	-0.068736	0.223531
C140	C	-0.174736	0.431264	0.723531
C141	C	-0.675612	-0.068740	0.150712
C142	C	-0.175612	0.431260	0.650712
N143	N	-0.705343	-0.051182	0.379700
N144	N	-0.205343	0.448818	0.879700
N145	N	-0.704513	-0.051173	0.448875
N146	N	-0.204513	0.448827	0.948875
C147	C	-0.671676	-0.000093	0.479336
C148	C	-0.171676	0.499907	0.979336
N149	N	-0.639709	0.050990	0.438009
N150	N	-0.139709	0.550990	0.938009
N151	N	-0.640541	0.050983	0.368827
N152	N	-0.140541	0.550983	0.868827
C153	C	-0.673365	-0.000104	0.338896
C154	C	-0.173365	0.499896	0.838896
C155	C	-0.670295	0.068545	0.594690
C156	C	-0.170295	0.568545	1.094690
C157	C	-0.669411	0.068548	0.667511
C158	C	-0.169411	0.568548	1.167511
C159	C	-0.669394	-0.068715	0.667531
C160	C	-0.169394	0.431285	1.167531
C161	C	-0.670273	-0.068716	0.594711
C162	C	-0.170273	0.431284	1.094711
C163	C	-0.670726	-0.000084	0.558295
C164	C	-0.170726	0.499916	1.058295
H165	H	-0.742979	-0.186626	-0.004310
H166	H	-0.242979	0.313374	0.495690
H167	H	-0.245939	-0.000135	0.087459
H168	H	0.254061	0.499865	0.587459
H169	H	-0.675955	-0.124626	0.121080
H170	H	-0.175955	0.375374	0.621080
Cl171	Cl	-0.760194	-0.347944	0.016823
Cl172	Cl	-0.260194	0.152056	0.516823
H173	H	-0.602028	-0.330389	-0.177453
H174	H	-0.102028	0.169611	0.322547
Cl175	Cl	-0.670807	-0.154994	0.548955
Cl176	Cl	-0.170807	0.345006	1.048955
H177	H	-0.206859	-0.000063	-0.270825
H178	H	0.293141	0.499937	0.229175
H179	H	0.142009	-0.000092	0.029401
H180	H	0.642009	0.499908	0.529401
Cl181	Cl	0.049361	-0.000072	-0.231550
Cl182	Cl	0.549361	0.499928	0.268450
Cl183	Cl	-0.584853	-0.831116	-0.198598
Cl184	Cl	-0.084853	-0.331116	0.301402
H185	H	0.034256	-0.000105	0.027821
H186	H	0.534256	0.499895	0.527821
H187	H	-0.743012	-0.669808	-0.004316
H188	H	-0.243012	-0.169808	0.495684
H189	H	-0.674409	0.124409	0.253148
H190	H	-0.174409	0.624409	0.753148
H191	H	-0.674373	-0.124611	0.253193
H192	H	-0.174373	0.375389	0.753193
Cl193	Cl	-0.584845	-0.652247	-0.198597
Cl194	Cl	-0.084845	-0.152247	0.301403
H195	H	-0.602011	-0.186617	-0.177450
H196	H	-0.102011	0.313383	0.322550
Cl197	Cl	-0.528467	-0.000090	0.047793
Cl198	Cl	-0.028467	0.499910	0.547793
Cl199	Cl	0.183438	-0.000079	-0.229572
Cl200	Cl	0.683438	0.499921	0.270428
H201	H	-0.404467	-0.000081	0.021383
H202	H	0.095533	0.499919	0.521383
Cl203	Cl	-0.760218	-0.831125	0.016821
Cl204	Cl	-0.260218	-0.331125	0.516821
H205	H	-0.670661	0.124429	0.565038
H206	H	-0.170661	0.624429	1.065038
Cl207	Cl	-0.668872	0.154829	0.713264
Cl208	Cl	-0.168872	0.654829	1.213264
Cl209	Cl	-0.128111	-0.000123	0.117434
Cl210	Cl	0.371889	0.499877	0.617434
Cl211	Cl	-0.497126	-0.000046	-0.239563
Cl212	Cl	0.002874	0.499954	0.260437
Cl213	Cl	-0.363066	-0.000069	-0.237604
Cl214	Cl	0.136934	0.499931	0.262396
Cl215	Cl	-0.082885	-0.000068	-0.297245
Cl216	Cl	0.417115	0.499932	0.202755
H217	H	-0.676007	0.124403	0.121045
H218	H	-0.176007	0.624403	0.621045
H219	H	-0.669028	-0.124590	0.697186
H220	H	-0.169028	0.375410	1.197186
