data_functionalizedCrystal
_audit_creation_method	'MofGen! by Chris Wilmer'
_symmetry_space_group_name_H-M	'P1'
_symmetry_Int_Tables_number	1
_symmetry_cell_setting	triclinic
loop_
_symmetry_equiv_pos_as_xyz
  x,y,z
_cell_length_a	17.699083
_cell_length_b	16.992695
_cell_length_c	16.176319
_cell_angle_alpha	89.993125
_cell_angle_beta	89.998611
_cell_angle_gamma	86.975619
loop_
_atom_site_label
_atom_site_type_symbol
_atom_site_fract_x
_atom_site_fract_y
_atom_site_fract_z
O1	O	1.010252	0.099146	-0.068631
O2	O	0.790676	0.112045	-0.068658
O3	O	0.899584	-0.008546	-0.068638
O4	O	0.901344	0.219736	-0.068651
O5	O	0.899567	-0.008553	0.068855
O6	O	0.790660	0.112037	0.068835
O7	O	1.010235	0.099138	0.068862
Cu8	Cu	0.900446	0.105587	0.081403
Cu9	Cu	0.900465	0.105596	-0.081199
O10	O	0.901328	0.219729	0.068842
C11	C	0.762442	0.111579	0.000085
C12	C	0.678338	0.110192	0.000075
C13	C	0.634124	0.180976	0.000071
C14	C	0.555099	0.179669	0.000082
C15	C	0.520290	0.107576	0.000091
C16	C	0.564510	0.036787	0.000097
C17	C	0.643533	0.038095	0.000092
C18	C	0.245818	0.031509	0.000118
C19	C	0.166789	0.030206	0.000120
C20	C	0.157384	0.173082	0.000108
C21	C	0.236408	0.174391	0.000103
C22	C	0.280621	0.103602	0.000113
C23	C	0.366308	0.105020	0.000103
C24	C	0.434604	0.106157	0.000095
C25	C	0.897311	-0.037758	0.000108
C26	C	0.890554	-0.124789	0.000107
C27	C	0.955751	-0.175154	0.000116
C28	C	0.949398	-0.256928	0.000107
C29	C	0.877846	-0.288336	0.000096
C30	C	0.812643	-0.237965	0.000084
C31	C	0.818998	-0.156192	0.000087
C32	C	0.851510	-0.531884	0.000081
C33	C	0.845160	-0.613663	0.000081
C34	C	0.981915	-0.632621	0.000102
C35	C	0.988263	-0.550845	0.000110
C36	C	0.923061	-0.500481	0.000094
N37	N	0.871350	-0.371923	0.000090
N38	N	0.929558	-0.416897	0.000095
C39	C	1.038469	0.099604	0.000117
C40	C	1.122574	0.100991	0.000122
C41	C	0.903601	0.248941	0.000094
C42	C	0.910358	0.335972	0.000090
N43	N	0.900438	0.105580	0.195768
N44	N	0.900479	0.105597	-0.195564
C45	C	0.948679	0.052204	0.239041
C46	C	0.948683	0.052203	0.325588
C47	C	0.900449	0.105583	0.368861
C48	C	0.852202	0.158961	0.325582
C49	C	0.852195	0.158957	0.239036
C50	C	0.852229	0.158976	0.674610
C51	C	0.852242	0.158977	0.761161
C52	C	0.948717	0.052222	0.761162
C53	C	0.948709	0.052218	0.674617
C54	C	0.900461	0.105593	0.631345
C55	C	0.900456	0.105593	0.537501
C56	C	0.900457	0.105588	0.462703
H57	H	0.662460	0.239682	0.000064
H58	H	0.519103	0.237308	0.000078
H59	H	0.679531	-0.019545	0.000095
H60	H	0.987989	0.008755	0.639387
H61	H	1.046528	-0.525279	0.000120
C62	C	0.125030	0.294467	-0.070586
C63	C	0.108782	0.250897	0.000103
H64	H	0.095022	0.342502	-0.070592
H65	H	0.177069	0.305560	-0.070586
H66	H	0.114005	0.264890	-0.118522
H67	H	0.119812	0.280472	0.048039
H68	H	0.056731	0.239806	0.000110
H69	H	0.765906	-0.115186	0.000080
C70	C	1.044038	-0.053327	0.247744
C71	C	1.001699	-0.006475	0.191480
H72	H	1.076766	-0.089557	0.218382
H73	H	1.073234	-0.020726	0.281488
H74	H	1.010826	-0.081482	0.281511
H75	H	1.034910	0.021686	0.157717
H76	H	0.972501	-0.039080	0.157722
C77	C	0.184019	-0.110903	0.000152
C78	C	0.128525	-0.049044	0.000138
H79	H	0.160394	-0.159824	0.000167
H80	H	0.214644	-0.107427	-0.047794
H81	H	0.214647	-0.107415	0.048100
H82	H	0.097901	-0.052529	-0.047814
H83	H	0.097887	-0.052522	0.048088
H84	H	0.987964	0.008741	0.360821
H85	H	0.812945	0.202437	0.639385
H86	H	0.812925	0.202421	0.360819
C87	C	0.984959	-0.083568	0.787817
C88	C	1.001745	-0.006460	0.808729
H89	H	1.017700	-0.119792	0.817179
H90	H	0.933946	-0.092011	0.802010
H91	H	0.991862	-0.091196	0.730080
H92	H	0.994837	0.001169	0.866466
H93	H	1.052770	0.001986	0.794541
C94	C	0.548203	-0.085398	-0.070572
C95	C	0.526250	-0.042460	0.000105
H96	H	0.524587	-0.134324	-0.070565
H97	H	0.533315	-0.056256	-0.118511
H98	H	0.601595	-0.094743	-0.070562
H99	H	0.472858	-0.033110	0.000093
H100	H	0.541133	-0.071608	0.048056
H101	H	0.812961	0.202446	0.796393
C102	C	0.340133	-0.049910	-0.070563
C103	C	0.294409	-0.046302	0.000118
H104	H	0.370135	-0.097949	-0.070560
H105	H	0.309107	-0.047445	-0.118499
H106	H	0.372174	-0.006788	-0.070556
H107	H	0.262363	-0.089421	0.000107
H108	H	0.325437	-0.048775	0.048066
C109	C	0.800520	-0.398121	0.000061
C110	C	0.779840	-0.476530	0.000065
H111	H	0.756271	-0.363947	0.000045
H112	H	0.829640	-0.388619	0.048010
H113	H	0.829664	-0.388619	-0.047884
H114	H	0.750701	-0.486034	0.048013
H115	H	0.750707	-0.486036	-0.047889
C116	C	0.815959	0.294742	0.212364
C117	C	0.799171	0.217632	0.191465
H118	H	0.783224	0.330963	0.182991
H119	H	0.809057	0.302380	0.270092
H120	H	0.866980	0.303181	0.198167
H121	H	0.748152	0.209192	0.205667
H122	H	0.806067	0.209991	0.133724
C123	C	0.319804	0.258756	-0.070605
C124	C	0.274663	0.253640	0.000083
H125	H	0.343414	0.307686	-0.070619
H126	H	0.357446	0.216795	-0.070596
H127	H	0.289159	0.255270	-0.118542
H128	H	0.305309	0.257120	0.048019
H129	H	0.237016	0.295613	0.000081
H130	H	1.014017	-0.149588	0.000131
H131	H	1.002489	-0.297933	0.000117
H132	H	1.034999	-0.673635	0.000114
H133	H	0.786891	-0.639232	0.000085
H134	H	0.754384	-0.263544	0.000070
