data_functionalizedCrystal
_audit_creation_method	'MofGen! by Chris Wilmer'
_symmetry_space_group_name_H-M	'P1'
_symmetry_Int_Tables_number	1
_symmetry_cell_setting	triclinic
loop_
_symmetry_equiv_pos_as_xyz
  x,y,z
_cell_length_a	10.540539
_cell_length_b	9.616153
_cell_length_c	10.540539
_cell_angle_alpha	89.999906
_cell_angle_beta	95.474508
_cell_angle_gamma	90.004826
loop_
_atom_site_label
_atom_site_type_symbol
_atom_site_fract_x
_atom_site_fract_y
_atom_site_fract_z
O1	O	1.685892	0.115573	-0.178895
O2	O	1.316479	0.115589	-0.195751
O3	O	1.509614	0.115579	-0.002617
O4	O	1.492758	0.115583	-0.372030
O5	O	1.509587	-0.115712	-0.002621
O6	O	1.316452	-0.115702	-0.195755
O7	O	1.685865	-0.115718	-0.178899
Zn8	Zn	1.501155	-0.152433	-0.187328
Zn9	Zn	1.501190	0.152304	-0.187323
O10	O	1.492731	-0.115708	-0.372034
C11	C	1.269163	-0.000054	-0.194489
C12	C	1.128215	-0.000048	-0.190707
N13	N	1.501140	-0.360407	-0.187331
C14	C	0.944788	-0.000589	-0.045790
C15	C	1.091406	-0.000054	-0.049624
C16	C	1.066557	0.132027	-0.258600
C17	C	0.920013	0.132123	-0.253785
C18	C	0.919494	-0.130899	-0.256660
C19	C	1.066476	-0.132630	-0.257959
C20	C	1.397510	-0.580772	-0.290298
C21	C	1.397739	-0.419604	-0.290684
C22	C	1.633864	-0.418862	-0.217464
C23	C	1.633299	-0.580080	-0.218193
C24	C	1.473368	-0.580319	-0.053892
C25	C	1.470321	-0.419092	-0.054757
C26	C	1.733182	-0.000072	-0.180161
C27	C	1.874130	-0.000069	-0.183943
C28	C	1.508336	-0.000064	0.044684
C29	C	1.504554	-0.000056	0.185632
N30	N	1.501215	0.360278	-0.187310
C31	C	1.494008	-0.000062	-0.419335
C32	C	1.497790	-0.000060	-0.560283
C33	C	1.359637	0.000469	0.369059
C34	C	1.363471	-0.000052	0.222441
C35	C	1.572435	-0.132138	0.247288
C36	C	1.567620	-0.132249	0.393832
C37	C	1.570519	0.130772	0.394355
C38	C	1.571819	0.132518	0.247373
H39	H	1.134009	-0.094731	0.003797
N40	N	0.906911	0.117545	0.023872
N41	N	0.952618	0.136199	0.136414
H42	H	0.925859	0.219627	0.185616
H43	H	1.299122	-0.380085	-0.272553
H44	H	1.133162	0.094786	0.004177
H45	H	1.674680	0.140490	0.223152
H46	H	1.657654	-0.617668	-0.315531
H47	H	1.517430	-0.230979	0.422030
H48	H	1.372683	-0.380887	-0.031917
N49	N	0.908981	-0.119405	0.024179
N50	N	0.991708	-0.205196	0.066051
H51	H	0.966432	-0.289114	0.115481
N52	N	1.733104	-0.629064	-0.127802
N53	N	1.707179	-0.703756	-0.036712
H54	H	1.777679	-0.738361	0.027104
H55	H	0.891814	0.230849	-0.203603
N56	N	0.860268	-0.132043	-0.384502
N57	N	0.927231	-0.128724	-0.476148
H58	H	0.885399	-0.129524	-0.566434
N59	N	1.558822	-0.368586	0.046001
N60	N	1.626143	-0.452203	0.113677
H61	H	1.688663	-0.416539	0.184833
N62	N	1.733058	-0.370781	-0.125944
N63	N	1.799273	-0.456197	-0.059250
H64	H	1.869330	-0.422241	0.005388
H65	H	1.676042	-0.137054	0.224933
N66	N	1.665091	-0.368183	-0.338191
N67	N	1.589820	-0.289031	-0.402238
H68	H	1.611867	-0.253238	-0.487505
H69	H	1.378631	-0.621052	-0.025213
N70	N	1.698365	0.131915	0.453573
N71	N	1.790003	0.128605	0.386601
H72	H	1.880292	0.129407	0.428425
N73	N	1.420210	-0.371169	-0.414843
N74	N	1.424286	-0.243568	-0.436706
H75	H	1.440162	-0.209358	-0.524397
N76	N	1.513246	-0.255431	0.193841
N77	N	1.421086	-0.246366	0.110360
H78	H	1.379276	-0.333438	0.072614
N79	N	0.859834	0.139700	-0.381065
N80	N	0.787936	0.239427	-0.413658
H81	H	0.745442	0.244792	-0.503549
N82	N	1.120040	0.255326	-0.199456
N83	N	1.203546	0.246271	-0.107318
H84	H	1.241332	0.333348	-0.065552
N85	N	1.694904	-0.139817	0.454001
N86	N	1.763978	-0.241414	0.433333
H87	H	1.853871	-0.246771	0.475823
N88	N	1.094600	0.138181	-0.388575
N89	N	1.160501	0.045074	-0.432721
H90	H	1.180308	0.049415	-0.524517
N91	N	1.296473	0.118718	0.168971
N92	N	1.353234	0.206363	0.107468
H93	H	1.305911	0.290247	0.069709
N94	N	1.509651	0.255134	0.196031
N95	N	1.460728	0.338601	0.268124
H96	H	1.416834	0.425204	0.231854
N97	N	1.513252	0.256350	0.433958
N98	N	1.418129	0.250942	0.496106
H99	H	1.377673	0.339624	0.524080
N100	N	1.273401	-0.629481	-0.267960
N101	N	1.178415	-0.593331	-0.340540
H102	H	1.090759	-0.627748	-0.324771
N103	N	1.568210	-0.628170	0.042266
N104	N	1.582739	-0.755600	0.062048
H105	H	1.649723	-0.789406	0.129952
H106	H	1.415178	-0.621270	-0.388722
H107	H	0.887936	-0.231010	-0.211004
N108	N	1.117832	-0.255196	-0.195713
N109	N	1.199602	-0.245050	-0.102169
H110	H	1.235881	-0.331610	-0.058203
N111	N	1.289745	0.119290	0.404963
N112	N	1.270524	0.137280	0.519006
H113	H	1.221164	0.221203	0.544373
N114	N	1.290001	-0.117683	0.406961
N115	N	1.341678	-0.202275	0.485785
H116	H	1.292501	-0.285723	0.512557
H117	H	1.309662	-0.094886	0.180683
H118	H	1.090701	-0.140603	-0.360819
