data_functionalizedCrystal
_audit_creation_method	'MofGen! by Chris Wilmer'
_symmetry_space_group_name_H-M	'P1'
_symmetry_Int_Tables_number	1
_symmetry_cell_setting	triclinic
loop_
_symmetry_equiv_pos_as_xyz
  x,y,z
_cell_length_a	21.395362
_cell_length_b	13.897448
_cell_length_c	13.897449
_cell_angle_alpha	90.009266
_cell_angle_beta	90.024426
_cell_angle_gamma	90.033571
loop_
_atom_site_label
_atom_site_type_symbol
_atom_site_fract_x
_atom_site_fract_y
_atom_site_fract_z
Zn1	Zn	0.957795	-0.383779	0.545910
Zn2	Zn	1.291129	-0.050445	0.879243
Zn3	Zn	1.624462	0.282888	1.212576
Zn4	Zn	0.957757	-0.545040	0.384611
Zn5	Zn	1.291091	-0.211707	0.717945
Zn6	Zn	1.624424	0.121627	1.051278
Zn7	Zn	0.853046	-0.383805	0.384570
Zn8	Zn	1.186379	-0.050472	0.717904
Zn9	Zn	1.519713	0.282861	1.051237
Zn10	Zn	0.853003	-0.545078	0.545806
Zn11	Zn	1.186337	-0.211745	0.879139
Zn12	Zn	1.519670	0.121589	1.212473
O13	O	0.905400	-0.464426	0.465224
O14	O	1.238734	-0.131092	0.798558
O15	O	1.572067	0.202241	1.131891
O16	O	1.045468	-0.405143	0.524574
O17	O	1.378802	-0.071810	0.857907
O18	O	1.712135	0.261524	1.191240
O19	O	0.943869	-0.523647	0.249624
O20	O	1.277202	-0.190314	0.582958
O21	O	1.610536	0.143019	0.916291
O22	O	0.866975	-0.248820	0.405999
O23	O	1.200308	0.084513	0.739332
O24	O	1.533642	0.417846	1.072665
O25	O	1.045440	-0.523621	0.406068
O26	O	1.378774	-0.190288	0.739402
O27	O	1.712107	0.143045	1.072735
O28	O	0.943934	-0.248800	0.524534
O29	O	1.277267	0.084533	0.857867
O30	O	1.610601	0.417866	1.191201
O31	O	0.866938	-0.405189	0.249594
O32	O	1.200271	-0.071856	0.582928
O33	O	1.533605	0.261478	0.916261
O34	O	0.765362	-0.405226	0.405898
O35	O	1.098696	-0.071892	0.739231
O36	O	1.432029	0.261441	1.072565
O37	O	0.866902	-0.523686	0.680801
O38	O	1.200236	-0.190352	1.014135
O39	O	1.533569	0.142981	1.347468
O40	O	0.765331	-0.523712	0.524357
O41	O	1.098664	-0.190379	0.857690
O42	O	1.431998	0.142955	1.191024
O43	O	0.943892	-0.405180	0.680878
O44	O	1.277226	-0.071846	1.014211
O45	O	1.610559	0.261487	1.347544
O46	O	0.943828	-0.680027	0.405968
O47	O	1.277161	-0.346693	0.739301
O48	O	1.610494	-0.013360	1.072634
O49	O	0.866865	-0.680055	0.524397
O50	O	1.200199	-0.346721	0.857730
O51	O	1.533532	-0.013388	1.191063
C52	C	0.742613	-0.464477	0.465112
C53	C	1.075946	-0.131143	0.798446
C54	C	1.409279	0.202190	1.131779
C55	C	0.672972	-0.464522	0.465087
C56	C	1.006305	-0.131188	0.798421
C57	C	1.339638	0.202145	1.131754
C58	C	0.640259	-0.526299	0.526677
C59	C	0.973592	-0.192966	0.860010
C60	C	1.306925	0.140368	1.193343
C61	C	0.574823	-0.526275	0.526720
C62	C	0.908156	-0.192942	0.860053
C63	C	1.241490	0.140391	1.193386
C64	C	0.542103	-0.464484	0.465156
C65	C	0.875437	-0.131151	0.798489
C66	C	1.208770	0.202182	1.131823
C67	C	0.574824	-0.402695	0.403563
C68	C	0.908158	-0.069362	0.736896
C69	C	1.241491	0.263972	1.070229
C70	C	0.640258	-0.402714	0.403528
C71	C	0.973592	-0.069380	0.736862
C72	C	1.306925	0.263953	1.070195
C73	C	0.438397	-0.456704	0.378319
C74	C	0.771730	-0.123371	0.711652
C75	C	1.105063	0.209963	1.044986
C76	C	0.372964	-0.456692	0.378352
C77	C	0.706297	-0.123359	0.711685
C78	C	1.039630	0.209974	1.045018
C79	C	0.340283	-0.464422	0.465263
C80	C	0.673616	-0.131088	0.798596
C81	C	1.006949	0.202245	1.131929
C82	C	0.373042	-0.472183	0.552143
C83	C	0.706376	-0.138849	0.885477
C84	C	1.039709	0.194484	1.218810
C85	C	0.438477	-0.472201	0.552109
C86	C	0.771810	-0.138868	0.885442
C87	C	1.105143	0.194465	1.218776
C88	C	0.471151	-0.464457	0.465187
C89	C	0.804484	-0.131124	0.798520
C90	C	1.137818	0.202210	1.131854
C91	C	0.236617	-0.526177	0.526904
C92	C	0.569950	-0.192843	0.860237
C93	C	0.903284	0.140490	1.193570
C94	C	0.171180	-0.526146	0.526948
C95	C	0.504514	-0.192813	0.860282
C96	C	0.837847	0.140520	1.193615
C97	C	0.171183	-0.402571	0.403783
C98	C	0.504516	-0.069238	0.737116
C99	C	0.837849	0.264096	1.070449
C100	C	0.236618	-0.402596	0.403747
C101	C	0.569951	-0.069263	0.737080
C102	C	0.903285	0.264070	1.070413
C103	C	0.269331	-0.464404	0.465306
C104	C	0.602665	-0.131071	0.798639
C105	C	0.935998	0.202262	1.131972
C106	C	0.905355	-0.715040	0.465196
C107	C	1.238688	-0.381707	0.798530
C108	C	1.572021	-0.048373	1.131863
C109	C	0.905393	-0.822254	0.465217
C110	C	1.238726	-0.488920	0.798550
C111	C	1.572059	-0.155587	1.131883
C112	C	0.905458	-1.018549	0.465277
C113	C	1.238792	-0.685215	0.798611
C114	C	1.572125	-0.351882	1.131944
C115	C	0.905420	-0.909316	0.465246
C116	C	1.238753	-0.575983	0.798580
C117	C	1.572087	-0.242650	1.131913
C118	C	1.068824	-0.464375	0.465337
C119	C	1.402157	-0.131042	0.798671
C120	C	1.735490	0.202292	1.132004
C121	C	1.138465	-0.464353	0.465385
C122	C	1.471798	-0.131020	0.798719
C123	C	1.805132	0.202313	1.132052
C124	C	0.905397	-0.464434	0.716817
C125	C	1.238730	-0.131101	1.050151
C126	C	1.572063	0.202233	1.383484
C127	C	0.905395	-0.464438	0.824031
C128	C	1.238729	-0.131104	1.157364
C129	C	1.572062	0.202229	1.490698
C130	C	0.905463	-0.212833	0.465273
C131	C	1.238797	0.120501	0.798607
C132	C	1.572130	0.453834	1.131940
C133	C	0.905490	-0.105619	0.465294
C134	C	1.238824	0.227715	0.798628
C135	C	1.572157	0.561048	1.131961
C136	C	0.905394	-0.464441	0.911101
C137	C	1.238727	-0.131108	1.244434
C138	C	1.572060	0.202225	1.577768
C139	C	0.905393	-0.464437	1.020333
C140	C	1.238727	-0.131103	1.353667
C141	C	1.572060	0.202230	1.687000
C142	C	0.905398	-0.464437	1.214610
C143	C	1.238732	-0.131103	1.547943
C144	C	1.572065	0.202230	1.881277
C145	C	0.905396	-0.464428	1.107396
C146	C	1.238729	-0.131094	1.440729
C147	C	1.572063	0.202239	1.774063
H148	H	0.465147	-0.478518	0.622851
H149	H	0.798480	-0.145185	0.956184
H150	H	1.131814	0.188149	1.289517
H151	H	0.465000	-0.450406	0.307541
H152	H	0.798333	-0.117073	0.640874
H153	H	1.131667	0.216261	0.974208
H154	H	0.666893	-0.352404	0.353375
H155	H	1.000226	-0.019071	0.686708
H156	H	1.333560	0.314263	1.020041
Cl157	Cl	0.331787	-0.446934	0.269132
Cl158	Cl	0.665120	-0.113601	0.602465
Cl159	Cl	0.998453	0.219732	0.935799
H160	H	0.346435	-0.478475	0.622915
H161	H	0.679768	-0.145142	0.956248
H162	H	1.013102	0.188192	1.289582
H163	H	0.548179	-0.352383	0.353439
H164	H	0.881513	-0.019049	0.686772
H165	H	1.214846	0.314284	1.020106
H166	H	0.144547	-0.576451	0.577108
H167	H	0.477880	-0.243118	0.910441
H168	H	0.811213	0.090216	1.243774
H169	H	0.666890	-0.576627	0.576804
H170	H	1.000223	-0.243293	0.910138
H171	H	1.333556	0.090040	1.243471
H172	H	0.263254	-0.576499	0.577034
H173	H	0.596587	-0.243166	0.910367
H174	H	0.929920	0.090167	1.243700
Cl175	Cl	0.130055	-0.324884	0.326393
Cl176	Cl	0.463389	0.008450	0.659727
Cl177	Cl	0.796722	0.341783	0.993060
Cl178	Cl	0.533689	-0.603945	0.604152
Cl179	Cl	0.867023	-0.270612	0.937485
Cl180	Cl	1.200356	0.062722	1.270818
Cl181	Cl	0.277745	-0.324931	0.326313
Cl182	Cl	0.611079	0.008402	0.659646
Cl183	Cl	0.944412	0.341736	0.992979
