data_functionalizedCrystal
_audit_creation_method	'MofGen! by Chris Wilmer'
_symmetry_space_group_name_H-M	'P1'
_symmetry_Int_Tables_number	1
_symmetry_cell_setting	triclinic
loop_
_symmetry_equiv_pos_as_xyz
  x,y,z
_cell_length_a	17.699083
_cell_length_b	10.540539
_cell_length_c	16.776229
_cell_angle_alpha	89.995514
_cell_angle_beta	89.998886
_cell_angle_gamma	83.904253
loop_
_atom_site_label
_atom_site_type_symbol
_atom_site_fract_x
_atom_site_fract_y
_atom_site_fract_z
O1	O	1.005122	0.160520	-0.066173
O2	O	1.505122	0.660520	0.433827
O3	O	0.784880	0.181404	-0.066198
O4	O	1.284880	0.681404	0.433802
O5	O	0.900026	-0.013836	-0.066184
O6	O	1.400026	0.486164	0.433816
O7	O	0.889976	0.355761	-0.066187
O8	O	1.389976	0.855761	0.433813
O9	O	0.900010	-0.013848	0.066393
O10	O	1.400010	0.486152	0.566393
O11	O	0.784864	0.181392	0.066378
O12	O	1.284864	0.681392	0.566378
O13	O	1.005107	0.160508	0.066404
O14	O	1.505107	0.660508	0.566404
Zn15	Zn	0.894983	0.170948	0.087440
Zn16	Zn	1.394983	0.670948	0.587440
Zn17	Zn	0.895003	0.170964	-0.087235
Zn18	Zn	1.395003	0.670964	0.412765
O19	O	0.889961	0.355749	0.066389
O20	O	1.389961	0.855749	0.566389
C21	C	0.756670	0.180650	0.000087
C22	C	1.256670	0.680650	0.500087
C23	C	0.672637	0.178405	0.000077
C24	C	1.172637	0.678405	0.500077
C25	C	0.624761	0.293007	0.000076
C26	C	1.124761	0.793007	0.500076
C27	C	0.545804	0.290890	0.000086
C28	C	1.045804	0.790890	0.500086
C29	C	0.514725	0.174170	0.000092
C30	C	1.014725	0.674170	0.500092
C31	C	0.562607	0.059559	0.000095
C32	C	1.062607	0.559559	0.500095
C33	C	0.641562	0.061677	0.000090
C34	C	1.141562	0.561677	0.500090
C35	C	0.244188	0.051014	0.000115
C36	C	0.744188	0.551014	0.500115
C37	C	0.165226	0.048904	0.000117
C38	C	0.665226	0.548904	0.500117
C39	C	0.148430	0.280227	0.000111
C40	C	0.648430	0.780227	0.500111
C41	C	0.227386	0.282345	0.000106
C42	C	0.727386	0.782345	0.500106
C43	C	0.275261	0.167735	0.000113
C44	C	0.775261	0.667735	0.500113
C45	C	0.360875	0.170032	0.000104
C46	C	0.860875	0.670032	0.500104
C47	C	0.429112	0.171872	0.000096
C48	C	0.929112	0.671872	0.500096
C49	C	0.899264	-0.061131	0.000103
C50	C	1.399264	0.438869	0.500103
C51	C	0.897009	-0.202038	0.000098
C52	C	1.397009	0.297962	0.500098
C53	C	0.810610	-0.383885	-0.000209
C54	C	1.310610	0.116115	0.499791
C55	C	0.812896	-0.237308	0.000089
C56	C	1.312896	0.262692	0.500089
C57	C	0.937480	-0.264443	0.075811
C58	C	1.437480	0.235557	0.575811
C59	C	0.934609	-0.410935	0.075874
C60	C	1.434609	0.089065	0.575874
C61	C	0.936337	-0.411471	-0.074890
C62	C	1.436337	0.088529	0.425110
C63	C	0.937112	-0.264503	-0.075891
C64	C	1.437112	0.235497	0.424109
C65	C	1.033316	0.161263	0.000117
C66	C	1.533316	0.661263	0.500117
C67	C	1.117349	0.163508	0.000122
C68	C	1.617349	0.663508	0.500122
C69	C	0.890722	0.403044	0.000101
C70	C	1.390722	0.903044	0.500101
C71	C	0.892977	0.543951	0.000100
C72	C	1.392977	1.043951	0.500100
N73	N	0.894974	0.170937	0.206652
N74	N	1.394974	0.670937	0.706652
N75	N	0.895018	0.170966	-0.206446
N76	N	1.395018	0.670966	0.293554
C77	C	0.945977	0.084520	0.248375
C78	C	1.445977	0.584520	0.748375
C79	C	0.945981	0.084519	0.331827
C80	C	1.445981	0.584519	0.831827
C81	C	0.894986	0.170942	0.373555
C82	C	1.394986	0.670942	0.873555
C83	C	0.843978	0.257363	0.331825
C84	C	1.343978	0.757363	0.831825
C85	C	0.843971	0.257357	0.248375
C86	C	1.343971	0.757357	0.748375
C87	C	0.844005	0.257388	0.668372
C88	C	1.344005	0.757388	1.168372
C89	C	0.844018	0.257390	0.751829
C90	C	1.344018	0.757390	1.251829
C91	C	0.946016	0.084550	0.751825
C92	C	1.446016	0.584550	1.251825
C93	C	0.946009	0.084544	0.668374
C94	C	1.446009	0.584544	1.168374
C95	C	0.894998	0.170960	0.626652
C96	C	1.394998	0.670960	1.126652
C97	C	0.894993	0.170958	0.536164
C98	C	1.394993	0.670958	1.036164
C99	C	0.894994	0.170950	0.464041
C100	C	1.394994	0.670950	0.964041
H101	H	0.680543	-0.031644	0.000090
H102	H	1.180543	0.468356	0.500090
H103	H	0.987549	0.014181	0.785804
H104	H	1.487549	0.514181	1.285804
H105	H	0.802438	0.327725	0.214404
H106	H	1.302438	0.827725	0.714404
H107	H	0.781051	-0.194118	-0.054185
H108	H	1.281051	0.305882	0.445815
H109	H	0.252686	0.377390	0.000098
H110	H	0.752686	0.877390	0.500098
H111	H	0.777513	-0.413492	0.053774
H112	H	1.277513	0.086508	0.553774
H113	H	0.802489	0.327768	0.785802
H114	H	1.302489	0.827768	1.285802
N115	N	1.000967	-0.008720	0.203375
N116	N	1.500967	0.491280	0.703375
H117	H	0.993223	0.004382	0.144178
H118	H	1.493223	0.504382	0.644178
H119	H	1.054740	0.005812	0.217949
H120	H	1.554740	0.505812	0.717949
H121	H	0.777390	-0.411872	-0.054504
H122	H	1.277390	0.088128	0.445496
H123	H	0.802453	0.327726	0.365804
H124	H	1.302453	0.827726	0.865804
H125	H	0.650060	0.388054	0.000071
H126	H	1.150060	0.888054	0.500071
H127	H	0.780815	-0.194971	0.054446
H128	H	1.280815	0.305029	0.554446
H129	H	0.109440	0.373548	0.000109
H130	H	0.609440	0.873548	0.500109
H131	H	0.904687	-0.438592	0.132464
H132	H	1.404687	0.061408	0.632464
N133	N	1.014733	-0.475953	0.080438
N134	N	1.514733	0.024047	0.580438
H135	H	1.051760	-0.409413	0.082404
H136	H	1.551760	0.090587	0.582404
H137	H	1.020489	-0.530377	0.130062
H138	H	1.520489	-0.030377	0.630062
H139	H	0.283159	-0.042309	0.000121
H140	H	0.783159	0.457691	0.500121
N141	N	0.494166	0.414496	0.000176
N142	N	0.994166	0.914496	0.500176
H143	H	0.525836	0.488758	0.000196
H144	H	1.025836	0.988758	0.500196
H145	H	0.460996	0.418754	-0.048940
H146	H	0.960996	0.918754	0.451060
N147	N	1.019310	-0.236381	0.079540
N148	N	1.519310	0.263619	0.579540
H149	H	1.030961	-0.182810	0.032076
H150	H	1.530961	0.317190	0.532076
H151	H	1.027987	-0.188432	0.130275
H152	H	1.527987	0.311568	0.630275
H153	H	0.802472	0.327753	0.634409
H154	H	1.302472	0.827753	1.134409
H155	H	0.537295	-0.035477	0.000111
H156	H	1.037295	0.464523	0.500111
H157	H	0.909354	-0.221334	0.132147
H158	H	1.409354	0.278666	0.632147
N159	N	1.001018	-0.008659	0.376818
N160	N	1.501018	0.491341	0.876818
H161	H	0.991842	-0.098744	0.362305
H162	H	1.491842	0.401256	0.862305
H163	H	1.054772	0.006010	0.362250
H164	H	1.554772	0.506010	0.862250
N165	N	0.131702	-0.076992	0.000124
N166	N	0.631702	0.423008	0.500124
H167	H	0.174011	-0.149277	0.000130
H168	H	0.674011	0.350723	0.500130
H169	H	0.099308	-0.082901	0.049272
H170	H	0.599308	0.417099	0.549272
N171	N	0.900293	-0.452599	-0.150906
N172	N	1.400293	0.047401	0.349094
H173	H	0.855487	-0.500553	-0.137499
H174	H	1.355487	-0.000553	0.362501
H175	H	0.882487	-0.374837	-0.183761
H176	H	1.382487	0.125163	0.316239
N177	N	1.001013	-0.008663	0.623369
N178	N	1.501013	0.491337	1.123369
H179	H	1.033324	-0.063412	0.662464
H180	H	1.533324	0.436588	1.162464
H181	H	0.971734	-0.064720	0.588753
H182	H	1.471734	0.435280	1.088753
H183	H	0.907500	-0.223098	-0.131901
H184	H	1.407500	0.276902	0.368099
N185	N	1.018347	-0.233916	-0.081943
N186	N	1.518347	0.266084	0.418057
H187	H	1.030359	-0.178891	-0.035303
H188	H	1.530359	0.321109	0.464697
H189	H	1.053604	-0.315796	-0.081289
H190	H	1.553604	0.184204	0.418711
H191	H	0.997092	-0.459808	-0.075392
H192	H	1.497092	0.040192	0.424608
