data_functionalizedCrystal
_audit_creation_method	'MofGen! by Chris Wilmer'
_symmetry_space_group_name_H-M	'P1'
_symmetry_Int_Tables_number	1
_symmetry_cell_setting	triclinic
loop_
_symmetry_equiv_pos_as_xyz
  x,y,z
_cell_length_a	11.169417
_cell_length_b	17.077402
_cell_length_c	17.077396
_cell_angle_alpha	89.968612
_cell_angle_beta	89.986502
_cell_angle_gamma	90.024132
loop_
_atom_site_label
_atom_site_type_symbol
_atom_site_fract_x
_atom_site_fract_y
_atom_site_fract_z
Zn1	Zn	1.834786	-0.312470	-0.443761
Zn2	Zn	1.834653	-0.443748	-0.312492
Zn3	Zn	1.634093	-0.312503	-0.312517
Zn4	Zn	1.634036	-0.443700	-0.443724
O5	O	1.734392	-0.378105	-0.378123
O6	O	2.002718	-0.329890	-0.426353
O7	O	1.808016	-0.426372	-0.202648
O8	O	1.660796	-0.202652	-0.329953
O9	O	2.002620	-0.426340	-0.329910
O10	O	1.808244	-0.202627	-0.426377
O11	O	1.660666	-0.329947	-0.202667
O12	O	1.466136	-0.329901	-0.329917
O13	O	1.660698	-0.426258	-0.553576
O14	O	1.466094	-0.426291	-0.426314
O15	O	1.808188	-0.329844	-0.553603
O16	O	1.807961	-0.553589	-0.329874
O17	O	1.660568	-0.553554	-0.426290
C18	C	1.422567	-0.378095	-0.378114
C19	C	1.289168	-0.378109	-0.378129
C20	C	1.734276	-0.582053	-0.378092
C21	C	1.734337	-0.669303	-0.378105
C22	C	1.811162	-0.710285	-0.327955
C23	C	1.811221	-0.792266	-0.327975
C24	C	1.734447	-0.833262	-0.378142
C25	C	1.657618	-0.792274	-0.428297
C26	C	1.657566	-0.710295	-0.428280
C27	C	1.657729	-0.963144	-0.428327
C28	C	1.657779	-1.045129	-0.428342
C29	C	1.811384	-1.045115	-0.328022
C30	C	1.811332	-0.963136	-0.328005
C31	C	1.734501	-0.922153	-0.378160
C32	C	2.047434	-0.378116	-0.378133
C33	C	2.180834	-0.378121	-0.378137
C34	C	1.734451	-0.378042	-0.582868
C35	C	1.734477	-0.378015	-0.670118
C36	C	1.734541	-0.173361	-0.378172
C37	C	1.734605	-0.086111	-0.378193
C38	C	1.811311	-0.428132	-1.045925
C39	C	1.811281	-0.428155	-0.963945
C40	C	1.734554	-0.377959	-0.922967
C41	C	1.657844	-0.327743	-0.963974
C42	C	1.657869	-0.327725	-1.045953
C43	C	1.657799	-0.327784	-0.793104
C44	C	1.657775	-0.327801	-0.711119
C45	C	1.811211	-0.428214	-0.711095
C46	C	1.811236	-0.428195	-0.793074
C47	C	1.734527	-0.377978	-0.834076
C48	C	1.734402	-0.378112	-0.174176
C49	C	1.734609	-0.377918	-0.086926
H50	H	1.873779	-0.825630	-0.287138
H51	H	1.873797	-0.469003	-1.079283
O52	O	1.583196	-0.278984	-1.085697
C53	C	1.463559	-0.296151	-1.065670
H54	H	1.461032	-0.326338	-1.006137
H55	H	1.423117	-0.336497	-1.111793
C56	C	1.394019	-0.182546	-1.135025
C57	C	1.390915	-0.219617	-1.061902
H58	H	1.349207	-0.135338	-1.132704
H59	H	1.474621	-0.170982	-1.148521
H60	H	1.360320	-0.216176	-1.173453
H61	H	1.424627	-0.185991	-1.023477
H62	H	1.310317	-0.231174	-1.048400
H63	H	1.873841	-0.929757	-0.287152
H64	H	1.873719	-0.469065	-0.826436
H65	H	1.595285	-1.078506	-0.469207
O66	O	1.885681	-0.670550	-0.279113
C67	C	1.859518	-0.690642	-0.200866
H68	H	1.813421	-0.750191	-0.199226
H69	H	1.797810	-0.644558	-0.174382
C70	C	2.033186	-0.621264	-0.155397
C71	C	1.976578	-0.694406	-0.153383
H72	H	2.105392	-0.623582	-0.126106
H73	H	2.050810	-0.607724	-0.208113
H74	H	1.981750	-0.582868	-0.133329
H75	H	2.028008	-0.732798	-0.175460
H76	H	1.958965	-0.707951	-0.100669
H77	H	1.595113	-0.825660	-0.469146
H78	H	1.595009	-0.676928	-0.469118
O79	O	1.583161	-0.923416	-0.477157
C80	C	1.609351	-0.943360	-0.555412
H81	H	1.655517	-1.002857	-0.557078
H82	H	1.671008	-0.897169	-0.581874
C83	C	1.435606	-0.874092	-0.600854
C84	C	1.492299	-0.947172	-0.602900
H85	H	1.363404	-0.876440	-0.630148
H86	H	1.417963	-0.860653	-0.548132
H87	H	1.486999	-0.835608	-0.622903
H88	H	1.440912	-0.985652	-0.580841
H89	H	1.509930	-0.960618	-0.655619
O90	O	1.886110	-1.085042	-0.279460
C91	C	1.869748	-1.166189	-0.290263
H92	H	1.830227	-1.177334	-0.350781
H93	H	1.806063	-1.189597	-0.243610
C94	C	2.039833	-1.194466	-0.209004
C95	C	1.991302	-1.208155	-0.283337
H96	H	2.114811	-1.220353	-0.204728
H97	H	2.050854	-1.139795	-0.201723
H98	H	1.986750	-1.213972	-0.170135
H99	H	2.044377	-1.188639	-0.322204
H100	H	1.980292	-1.262823	-0.290624
O101	O	1.885913	-0.476951	-0.924238
C102	C	1.953627	-0.521257	-0.977985
H103	H	1.957814	-0.489092	-1.036433
H104	H	1.909647	-0.580875	-0.986682
C105	C	2.076205	-0.572078	-0.874206
C106	C	2.081356	-0.532568	-0.945991
H107	H	2.154993	-0.579059	-0.854470
H108	H	2.030582	-0.542230	-0.837994
H109	H	2.039550	-0.621755	-0.881463
H110	H	2.117997	-0.482889	-0.938731
H111	H	2.126988	-0.562408	-0.982200
O112	O	1.885608	-0.476975	-0.671150
C113	C	1.869153	-0.466220	-0.590006
H114	H	1.776547	-0.440510	-0.578816
H115	H	1.940365	-0.424428	-0.566754
C116	C	1.993818	-0.577233	-0.561641
C117	C	1.880073	-0.545662	-0.547896
H118	H	2.000559	-0.626235	-0.535664
H119	H	2.004908	-0.584477	-0.616309
H120	H	2.053149	-0.542399	-0.542264
H121	H	1.820745	-0.580492	-0.567282
H122	H	1.868973	-0.538425	-0.493230
O123	O	1.583062	-0.279136	-0.671343
C124	C	1.463441	-0.296280	-0.691376
H125	H	1.457356	-0.358982	-0.713900
H126	H	1.432095	-0.254180	-0.738966
C127	C	1.390809	-0.210167	-0.590881
C128	C	1.383334	-0.287181	-0.618540
H129	H	1.341393	-0.204551	-0.545954
H130	H	1.471400	-0.198614	-0.577386
H131	H	1.364690	-0.175092	-0.630546
H132	H	1.409467	-0.322253	-0.578879
H133	H	1.302745	-0.298740	-0.632027
H134	H	1.595334	-0.286892	-0.826484
O135	O	1.583252	-0.279093	-0.924082
C136	C	1.505668	-0.323791	-0.876659
H137	H	1.547947	-0.383284	-0.864360
H138	H	1.416727	-0.332402	-0.908245
C139	C	1.432025	-0.207547	-0.813905
C140	C	1.483958	-0.280615	-0.798794
H141	H	1.418628	-0.180913	-0.765876
H142	H	1.484291	-0.177432	-0.845857
H143	H	1.357914	-0.214733	-0.840229
H144	H	1.558074	-0.273427	-0.772480
H145	H	1.431703	-0.310727	-0.766836
