data_functionalizedCrystal
_audit_creation_method	'MofGen! by Chris Wilmer'
_symmetry_space_group_name_H-M	'P1'
_symmetry_Int_Tables_number	1
_symmetry_cell_setting	triclinic
loop_
_symmetry_equiv_pos_as_xyz
  x,y,z
_cell_length_a	12.594517
_cell_length_b	25.639239
_cell_length_c	12.594509
_cell_angle_alpha	89.965872
_cell_angle_beta	89.978673
_cell_angle_gamma	90.038486
loop_
_atom_site_label
_atom_site_type_symbol
_atom_site_fract_x
_atom_site_fract_y
_atom_site_fract_z
Zn1	Zn	1.627100	-0.208138	-0.601816
Zn2	Zn	1.626920	-0.295580	-0.423819
Zn3	Zn	1.449103	-0.208160	-0.423845
Zn4	Zn	1.449015	-0.295544	-0.601750
O5	O	1.538035	-0.251855	-0.512808
O6	O	1.776022	-0.219743	-0.578222
O7	O	1.603294	-0.284008	-0.274877
O8	O	1.472827	-0.134992	-0.447492
O9	O	1.775890	-0.283987	-0.447448
O10	O	1.603600	-0.134976	-0.578247
O11	O	1.472653	-0.219781	-0.274896
O12	O	1.300146	-0.219746	-0.447427
O13	O	1.472677	-0.283925	-0.750704
O14	O	1.300081	-0.283946	-0.578133
O15	O	1.603515	-0.219708	-0.750753
O16	O	1.603209	-0.368740	-0.447384
O17	O	1.472503	-0.368714	-0.578108
C18	C	1.261494	-0.251845	-0.512776
C19	C	1.143188	-0.251853	-0.512788
C20	C	1.073939	-0.216887	-0.441833
C21	C	1.003090	-0.264579	-0.415643
C22	C	1.003239	-0.204184	-0.538996
C23	C	1.073897	-0.299570	-0.486547
C24	C	1.074052	-0.239144	-0.609946
C25	C	1.003234	-0.286869	-0.583793
C26	C	1.537856	-0.387698	-0.512759
C27	C	1.537876	-0.445812	-0.512774
C28	C	1.606271	-0.806176	-0.444855
C29	C	1.606312	-0.860781	-0.444870
O30	O	1.664278	-0.889019	-0.387070
N31	N	1.538222	-0.888094	-0.512878
C32	C	1.470093	-0.860801	-0.580885
O33	O	1.412182	-0.889048	-0.638733
C34	C	1.470058	-0.806198	-0.580875
C35	C	1.538145	-0.778887	-0.512854
C36	C	1.674353	-0.778865	-0.376841
C37	C	1.674310	-0.724265	-0.376826
C38	C	1.606185	-0.696975	-0.444825
C39	C	1.538102	-0.724286	-0.512839
C40	C	1.401936	-0.778905	-0.648886
C41	C	1.401907	-0.724298	-0.648871
C42	C	1.469994	-0.696987	-0.580850
C43	C	1.469934	-0.642396	-0.580822
N44	N	1.538024	-0.615083	-0.512814
C45	C	1.606150	-0.642372	-0.444815
C46	C	1.470174	-0.975472	-0.580901
C47	C	1.470202	-1.030074	-0.580906
C48	C	1.606423	-1.030050	-0.444892
C49	C	1.606388	-0.975447	-0.444883
C50	C	1.538264	-0.948158	-0.512892
C51	C	1.606054	-0.527707	-0.444787
C52	C	1.606002	-0.473102	-0.444775
C53	C	1.469786	-0.473131	-0.580792
C54	C	1.469833	-0.527731	-0.580801
C55	C	1.537976	-0.555018	-0.512795
O56	O	1.412001	-0.614124	-0.638596
O57	O	1.664062	-0.614119	-0.386986
C58	C	1.815655	-0.251866	-0.512840
C59	C	1.933961	-0.251871	-0.512853
C60	C	1.538106	-0.251810	-0.790429
C61	C	1.538136	-0.251790	-0.908734
C62	C	1.538243	-0.115482	-0.512880
C63	C	1.538332	-0.057368	-0.512911
C64	C	1.466996	-0.286698	-0.977961
C65	C	1.564106	-0.299473	-1.048748
C66	C	1.441102	-0.238984	-1.048746
C67	C	1.635297	-0.264590	-0.977964
C68	C	1.512227	-0.204079	-0.977955
C69	C	1.609405	-0.216836	-1.048711
C70	C	1.538025	-0.251863	-0.236267
C71	C	1.538201	-0.251736	-0.117962
H72	H	1.661544	-0.549918	-0.389413
N73	N	1.387368	-0.325857	-0.936800
H74	H	1.407108	-0.361868	-0.962552
H75	H	1.387465	-0.325320	-0.856618
H76	H	1.717409	-0.275445	-0.947002
N77	N	1.332366	-0.224664	-1.089918
H78	H	1.312219	-0.188903	-1.063056
H79	H	1.333430	-0.224446	-1.170100
N80	N	1.115074	-0.177756	-0.362262
H81	H	1.089259	-0.187435	-0.288913
H82	H	1.195257	-0.177809	-0.363373
N83	N	0.961802	-0.278838	-0.306850
H84	H	0.987009	-0.252233	-0.253376
H85	H	0.881628	-0.279373	-0.308108
H86	H	1.346434	-0.702083	-0.704256
N87	N	1.679908	-1.059494	-0.371560
H88	H	1.755942	-1.049949	-0.388161
H89	H	1.663329	-1.050019	-0.295518
H90	H	1.104806	-0.339902	-0.464317
N91	N	1.679451	-0.443648	-0.371412
H92	H	1.728733	-0.420953	-0.414709
H93	H	1.636137	-0.421063	-0.322049
H94	H	0.972385	-0.316480	-0.643825
H95	H	1.105245	-0.228368	-0.692058
H96	H	1.490250	-0.163765	-0.946835
N97	N	1.747834	-0.808289	-0.303482
H98	H	1.704620	-0.830979	-0.254117
H99	H	1.797149	-0.830877	-0.346844
H100	H	0.972144	-0.163870	-0.561099
N101	N	1.747763	-0.694812	-0.303477
H102	H	1.790927	-0.720392	-0.260414
H103	H	1.796979	-0.672122	-0.346855
N104	N	1.396388	-0.557192	-0.654151
H105	H	1.353222	-0.531616	-0.697222
H106	H	1.439706	-0.579804	-0.703459
H107	H	1.669663	-0.187292	-1.079579
N108	N	1.328493	-0.808353	-0.722246
H109	H	1.285340	-0.782772	-0.765317
H110	H	1.371803	-0.830970	-0.771553
N111	N	1.396303	-0.443692	-0.654124
H112	H	1.406616	-0.404957	-0.643789
H113	H	1.412836	-0.453198	-0.730160
H114	H	1.661831	-0.953213	-0.389495
N115	N	1.396748	-1.059528	-0.654252
H116	H	1.353586	-1.033950	-0.697321
H117	H	1.440055	-1.082144	-0.703562
H118	H	1.586055	-0.339798	-1.079845
N119	N	1.396684	-0.946041	-0.654250
H120	H	1.353558	-0.971633	-0.697328
H121	H	1.347434	-0.923425	-0.610874
