data_functionalizedCrystal
_audit_creation_method	'MofGen! by Chris Wilmer'
_symmetry_space_group_name_H-M	'P1'
_symmetry_Int_Tables_number	1
_symmetry_cell_setting	triclinic
loop_
_symmetry_equiv_pos_as_xyz
  x,y,z
_cell_length_a	9.065215
_cell_length_b	10.268362
_cell_length_c	9.065218
_cell_angle_alpha	89.996569
_cell_angle_beta	85.015325
_cell_angle_gamma	89.996177
loop_
_atom_site_label
_atom_site_type_symbol
_atom_site_fract_x
_atom_site_fract_y
_atom_site_fract_z
O1	O	-1.960404	0.108273	-0.216339
O2	O	-1.460404	0.608273	0.283661
O3	O	-1.531119	0.108280	-0.234089
O4	O	-1.031119	0.608280	0.265911
O5	O	-1.754634	0.108274	-0.010572
O6	O	-1.254634	0.608274	0.489428
O7	O	-1.736888	0.108279	-0.439857
O8	O	-1.236888	0.608279	0.060143
O9	O	-1.754615	-0.108327	-0.010562
O10	O	-1.254615	0.391673	0.489438
O11	O	-1.531099	-0.108321	-0.234080
O12	O	-1.031099	0.391679	0.265920
O13	O	-1.960384	-0.108328	-0.216329
O14	O	-1.460384	0.391672	0.283671
Cu15	Cu	-1.745740	-0.128102	-0.225204
Cu16	Cu	-1.245740	0.371898	0.274796
Cu17	Cu	-1.745763	0.128054	-0.225215
Cu18	Cu	-1.245763	0.628054	0.274785
O19	O	-1.736868	-0.108321	-0.439847
O20	O	-1.236868	0.391679	0.060153
C21	C	-1.476122	-0.000020	-0.232380
C22	C	-0.976122	0.499980	0.267620
C23	C	-1.312279	-0.000017	-0.227282
C24	C	-0.812279	0.499983	0.272718
N25	N	-1.745734	-0.308267	-0.225195
N26	N	-1.245734	0.191733	0.274805
C27	C	-1.745756	-0.573938	-0.225212
C28	C	-1.245756	-0.073938	0.274788
C29	C	-1.745739	-0.426100	-0.225207
C30	C	-1.245739	0.073900	0.274793
C31	C	-1.015381	-0.000025	-0.218039
C32	C	-0.515381	0.499975	0.281961
C33	C	-1.179224	-0.000016	-0.223136
C34	C	-0.679224	0.499984	0.276864
C35	C	-1.752919	-0.000025	0.044420
C36	C	-1.252919	0.499975	0.544420
C37	C	-1.747819	-0.000018	0.208263
C38	C	-1.247819	0.499982	0.708263
N39	N	-1.745780	0.308220	-0.225212
N40	N	-1.245780	0.808220	0.274788
C41	C	-1.738584	-0.000020	-0.494838
C42	C	-1.238584	0.499980	0.005162
C43	C	-1.743683	-0.000018	-0.658681
C44	C	-1.243683	0.499982	-0.158681
