data_functionalizedCrystal
_audit_creation_method	'MofGen! by Chris Wilmer'
_symmetry_space_group_name_H-M	'P1'
_symmetry_Int_Tables_number	1
_symmetry_cell_setting	triclinic
loop_
_symmetry_equiv_pos_as_xyz
  x,y,z
_cell_length_a	11.792241
_cell_length_b	11.792241
_cell_length_c	9.198806
_cell_angle_alpha	89.996670
_cell_angle_beta	90.000255
_cell_angle_gamma	84.193416
loop_
_atom_site_label
_atom_site_type_symbol
_atom_site_fract_x
_atom_site_fract_y
_atom_site_fract_z
O1	O	1.506908	0.155565	-0.120752
O2	O	1.840241	0.488899	0.212581
O3	O	2.173575	0.822232	0.545915
O4	O	1.176567	0.171598	-0.120786
O5	O	1.509900	0.504932	0.212548
O6	O	1.843234	0.838265	0.545881
O7	O	1.349754	-0.001589	-0.120758
O8	O	1.683087	0.331745	0.212576
O9	O	2.016421	0.665078	0.545909
O10	O	1.333721	0.328752	-0.120780
O11	O	1.667054	0.662086	0.212553
O12	O	2.000388	0.995419	0.545887
O13	O	1.349740	-0.001589	0.121027
O14	O	1.683074	0.331744	0.454361
O15	O	2.016407	0.665077	0.787694
O16	O	1.176553	0.171598	0.120999
O17	O	1.509887	0.504931	0.454333
O18	O	1.843220	0.838264	0.787666
O19	O	1.506894	0.155565	0.121033
O20	O	1.840228	0.488898	0.454367
O21	O	2.173561	0.822232	0.787700
Cu22	Cu	1.341723	0.163581	0.143093
Cu23	Cu	1.675056	0.496915	0.476426
Cu24	Cu	2.008389	0.830248	0.809760
Cu25	Cu	1.341739	0.163582	-0.142846
Cu26	Cu	1.675072	0.496915	0.190488
Cu27	Cu	2.008405	0.830248	0.523821
O28	O	1.333707	0.328752	0.121005
O29	O	1.667041	0.662085	0.454339
O30	O	2.000374	0.995418	0.787672
C31	C	1.348740	-0.043880	0.000134
C32	C	1.682073	0.289453	0.333467
C33	C	2.015407	0.622787	0.666801
C34	C	1.345726	-0.169894	0.000132
C35	C	1.679059	0.163440	0.333466
C36	C	2.012392	0.496773	0.666799
C37	C	1.134269	0.170591	0.000102
C38	C	1.467603	0.503924	0.333436
C39	C	1.800936	0.837258	0.666769
C40	C	1.008255	0.167576	0.000090
C41	C	1.341589	0.500910	0.333423
C42	C	1.674922	0.834243	0.666756
C43	C	0.777543	0.162034	0.000132
C44	C	1.110877	0.495367	0.333465
C45	C	1.444210	0.828700	0.666799
C46	C	0.905928	0.165113	0.000109
C47	C	1.239262	0.498447	0.333442
C48	C	1.572595	0.831780	0.666775
C49	C	1.340183	-0.400606	0.000108
C50	C	1.673516	-0.067272	0.333441
C51	C	2.006849	0.266061	0.666774
C52	C	1.343262	-0.272221	0.000121
C53	C	1.676596	0.061113	0.333454
C54	C	2.009929	0.394446	0.666788
C55	C	1.549192	0.156572	0.000142
C56	C	1.882525	0.489905	0.333475
C57	C	2.215859	0.823239	0.666808
C58	C	1.675206	0.159587	0.000145
C59	C	2.008539	0.492920	0.333478
C60	C	2.341873	0.826253	0.666812
C61	C	1.334721	0.371043	0.000110
C62	C	1.668055	0.704376	0.333443
C63	C	2.001388	1.037710	0.666777
C64	C	1.337736	0.497057	0.000102
C65	C	1.671069	0.830390	0.333436
C66	C	2.004402	1.163723	0.666769
N67	N	1.341719	0.163580	0.344207
N68	N	1.675053	0.496914	0.677540
N69	N	2.008386	0.830247	1.010874
N70	N	1.341751	0.163574	-0.343960
N71	N	1.675084	0.496907	-0.010626
N72	N	2.008418	0.830241	0.322707
C73	C	1.414436	0.090544	0.416416
C74	C	1.747770	0.423877	0.749749
C75	C	2.081103	0.757211	1.083083
C76	C	1.414454	0.090540	0.583828
C77	C	1.747787	0.423873	0.917161
C78	C	2.081121	0.757207	1.250495
H79	H	1.476676	0.028013	0.354300
H80	H	1.810009	0.361346	0.687633
H81	H	2.143342	0.694680	1.020966
N82	N	1.492537	0.012083	0.661732
N83	N	1.825870	0.345417	0.995065
N84	N	2.159204	0.678750	1.328399
N85	N	1.455823	-0.058428	0.746698
N86	N	1.789156	0.274905	1.080031
N87	N	2.122490	0.608239	1.413364
H88	H	1.510968	-0.113845	0.801720
H89	H	1.844302	0.219488	1.135053
H90	H	2.177635	0.552822	1.468387
N91	N	1.263660	0.242042	0.578163
N92	N	1.596994	0.575375	0.911496
N93	N	1.930327	0.908708	1.244830
N94	N	1.300367	0.312558	0.493199
N95	N	1.633700	0.645891	0.826533
N96	N	1.967034	0.979225	1.159866
H97	H	1.245217	0.367979	0.438189
H98	H	1.578550	0.701312	0.771522
H99	H	1.911884	1.034645	1.104856
N100	N	1.263615	0.242006	0.422121
N101	N	1.596948	0.575339	0.755454
N102	N	1.930281	0.908673	1.088787
N103	N	1.192894	0.205656	0.507089
N104	N	1.526227	0.538989	0.840422
N105	N	1.859560	0.872323	1.173756
H106	H	1.137727	0.261045	0.562114
H107	H	1.471061	0.594378	0.895447
H108	H	1.804394	0.927711	1.228780
