data_functionalizedCrystal
_audit_creation_method	'MofGen! by Chris Wilmer'
_symmetry_space_group_name_H-M	'P1'
_symmetry_Int_Tables_number	1
_symmetry_cell_setting	triclinic
loop_
_symmetry_equiv_pos_as_xyz
  x,y,z
_cell_length_a	23.532407
_cell_length_b	22.010155
_cell_length_c	19.188930
_cell_angle_alpha	89.999121
_cell_angle_beta	97.003270
_cell_angle_gamma	90.003069
loop_
_atom_site_label
_atom_site_type_symbol
_atom_site_fract_x
_atom_site_fract_y
_atom_site_fract_z
O1	O	0.755444	0.050456	-0.084747
O2	O	0.589606	0.050475	-0.097010
O3	O	0.677311	0.050453	0.010792
O4	O	0.667739	0.050478	-0.192549
O5	O	0.677295	-0.050597	0.010776
O6	O	0.589590	-0.050576	-0.097026
O7	O	0.755428	-0.050594	-0.084763
Cu8	Cu	0.672508	-0.059812	-0.090896
Cu9	Cu	0.672526	0.059692	-0.090877
O10	O	0.667723	-0.050573	-0.192566
C11	C	0.568382	-0.000048	-0.096706
C12	C	0.505163	-0.000041	-0.095767
N13	N	0.672499	-0.143864	-0.090909
C14	C	0.676993	-0.000074	0.036794
C15	C	0.676062	-0.000079	0.114296
C16	C	0.106183	-0.000062	-0.153674
C17	C	0.046780	-0.000066	-0.152801
O18	O	0.010150	-0.000081	-0.206481
N19	N	0.024018	-0.000073	-0.088713
C20	C	0.060662	-0.000082	-0.025492
O21	O	0.035846	-0.000088	0.029100
C22	C	0.120062	-0.000082	-0.026365
C23	C	0.142821	-0.000069	-0.090458
C24	C	0.128942	-0.000050	-0.217761
C25	C	0.188340	-0.000045	-0.218633
C26	C	0.224979	-0.000052	-0.155417
C27	C	0.202219	-0.000064	-0.091330
C28	C	0.156705	-0.000096	0.036855
C29	C	0.216109	-0.000097	0.035976
C30	C	0.238868	-0.000084	-0.028116
C31	C	0.298256	-0.000067	-0.028986
N32	N	0.321018	-0.000060	-0.093075
C33	C	0.284379	-0.000053	-0.156290
C34	C	-0.064085	-0.000082	-0.023664
C35	C	-0.123485	-0.000077	-0.022790
C36	C	-0.137362	-0.000062	-0.150100
C37	C	-0.077961	-0.000063	-0.150972
C38	C	-0.041323	-0.000075	-0.087752
C39	C	0.409120	-0.000042	-0.158117
C40	C	0.468524	-0.000034	-0.158983
C41	C	0.482396	-0.000052	-0.031674
C42	C	0.422997	-0.000056	-0.030807
C43	C	0.386360	-0.000053	-0.094034
O44	O	0.334921	-0.000054	0.024666
O45	O	0.309203	-0.000054	-0.210874
C46	C	0.776652	-0.000070	-0.085067
C47	C	0.839871	-0.000073	-0.086006
C48	C	0.711364	-0.563653	-0.043149
C49	C	0.711367	-0.627261	-0.043144
O50	O	0.744389	-0.660160	-0.002545
N51	N	0.672526	-0.659071	-0.090862
C52	C	0.633676	-0.627271	-0.138584
O53	O	0.600639	-0.660169	-0.179172
C54	C	0.633672	-0.563664	-0.138585
C55	C	0.672519	-0.531857	-0.090868
C56	C	0.750208	-0.531846	0.004565
C57	C	0.750206	-0.468243	0.004559
C58	C	0.711360	-0.436447	-0.043160
C59	C	0.672517	-0.468254	-0.090874
C60	C	0.594820	-0.531865	-0.186303
C61	C	0.594818	-0.468254	-0.186299
C62	C	0.633665	-0.436447	-0.138582
C63	C	0.633669	-0.372855	-0.138599
N64	N	0.672510	-0.341044	-0.090881
C65	C	0.711355	-0.372840	-0.043161
C66	C	0.633689	-0.760849	-0.138578
C67	C	0.633696	-0.824454	-0.138581
C68	C	0.711386	-0.824439	-0.043139
C69	C	0.711381	-0.760833	-0.043140
C70	C	0.672530	-0.729038	-0.090859
C71	C	0.711348	-0.239269	-0.043178
C72	C	0.711344	-0.175660	-0.043190
C73	C	0.633653	-0.175680	-0.138628
C74	C	0.633658	-0.239283	-0.138619
C75	C	0.672508	-0.271076	-0.090888
O76	O	0.600662	-0.339915	-0.179175
O77	O	0.744382	-0.339935	-0.002575
N78	N	0.672540	0.143745	-0.090859
C79	C	0.668041	-0.000044	-0.218568
C80	C	0.668972	-0.000035	-0.296069
C81	C	0.727524	-0.000088	0.159384
C82	C	0.726650	-0.000078	0.232205
C83	C	0.674311	-0.000072	0.259935
C84	C	0.622842	-0.000059	0.214837
C85	C	0.623718	-0.000063	0.142017
N86	N	0.634299	-0.034456	0.367806
N87	N	0.633470	-0.034454	0.436982
C88	C	0.671670	-0.000059	0.479335
N89	N	0.710738	0.034326	0.449899
N90	N	0.711568	0.034321	0.380717
C91	C	0.673356	-0.000067	0.338894
C92	C	0.722188	-0.000056	0.603384
C93	C	0.721311	-0.000043	0.676206
C94	C	0.617502	-0.000030	0.658836
C95	C	0.618380	-0.000038	0.586016
C96	C	0.670724	-0.000054	0.558295
H97	H	0.379297	-0.000041	-0.209602
H98	H	0.763220	-0.000046	0.712917
H99	H	0.563178	-0.442370	-0.225157
H100	H	0.742980	-0.149765	-0.004333
C101	C	0.753446	-0.726246	0.008748
C102	C	0.723191	-0.689751	0.051289
C103	C	0.761914	-0.657888	0.099112
H104	H	0.776578	-0.754245	0.037229
H105	H	0.777100	-0.701378	-0.016155
H106	H	0.699546	-0.714616	0.076190
H107	H	0.700061	-0.661740	0.022827
H108	H	0.785568	-0.633020	0.074210
H109	H	0.785044	-0.685891	0.127589
H110	H	0.741392	-0.633118	0.127978
C111	C	0.792277	-0.433582	0.056366
C112	C	0.827074	-0.396951	0.019559
C113	C	0.865766	-0.364979	0.067311
H114	H	0.771754	-0.408794	0.085202
H115	H	0.815451	-0.461534	0.084883
H116	H	0.803903	-0.369002	-0.008946
H117	H	0.847609	-0.421724	-0.009275
H118	H	0.888940	-0.392931	0.095828
H119	H	0.845239	-0.340194	0.096145
H120	H	0.889384	-0.340125	0.042344
C121	C	0.779074	-0.000030	0.573417
C122	C	0.823957	-0.000011	0.628494
C123	C	0.876369	0.000024	0.600917
H124	H	0.781654	-0.035260	0.545384
H125	H	0.781606	0.035221	0.545388
H126	H	0.821427	-0.035258	0.656510
H127	H	0.821397	0.035217	0.656530
H128	H	0.878900	0.035275	0.572888
H129	H	0.878943	-0.035207	0.572885
H130	H	0.906828	0.000043	0.638282
H131	H	0.574886	-0.000022	0.681413
C132	C	0.562444	-0.000068	0.537174
C133	C	0.516419	-0.000076	0.577041
C134	C	0.464880	-0.000110	0.532071
H135	H	0.560551	0.035159	0.508386
H136	H	0.560592	-0.035322	0.508419
H137	H	0.518269	0.035175	0.605783
H138	H	0.518293	-0.035300	0.605827
H139	H	0.463028	-0.035365	0.503317
H140	H	0.462993	0.035117	0.503286
H141	H	0.433646	-0.000122	0.559115
C142	C	0.522156	0.000065	0.036979
C143	C	0.511912	0.052053	0.075602
C144	C	0.548535	0.052181	0.138843
H145	H	0.515308	-0.035138	0.063353
H146	H	0.560799	0.000100	0.027302
H147	H	0.473278	0.052012	0.085281
H148	H	0.518764	0.087264	0.049249
H149	H	0.587179	0.052216	0.129166
H150	H	0.541685	0.016976	0.165211
H151	H	0.541594	0.087457	0.165054
H152	H	0.206864	-0.000034	-0.270824
C153	C	0.493122	-0.000053	-0.228645
C154	C	0.448316	-0.000066	-0.283817
C155	C	0.470952	-0.000093	-0.347997
H156	H	0.515996	0.035178	-0.231729
H157	H	0.515989	-0.035304	-0.231676
H158	H	0.425459	0.035181	-0.280788
H159	H	0.425438	-0.035294	-0.280757
H160	H	0.493819	-0.035343	-0.351028
H161	H	0.493826	0.035139	-0.351073
H162	H	0.440555	-0.000107	-0.385439
C163	C	0.782483	-0.000187	0.281251
C164	C	0.784990	-0.052167	0.323575
C165	C	0.836411	-0.052285	0.368767
H166	H	0.813829	-0.000227	0.254398
H167	H	0.784313	0.035033	0.310060
H168	H	0.783166	-0.087378	0.294769
H169	H	0.753656	-0.052138	0.350442
H170	H	0.838241	-0.017065	0.397577
H171	H	0.867752	-0.052324	0.341909
H172	H	0.838116	-0.087550	0.397494
C173	C	0.753532	-0.858890	0.008788
C174	C	0.744478	-0.843409	0.077342
C175	C	0.783295	-0.875128	0.125192
H176	H	0.748009	-0.901336	0.002051
H177	H	0.791533	-0.848452	0.001487
H178	H	0.706486	-0.853851	0.084640
H179	H	0.750006	-0.800969	0.084101
H180	H	0.821295	-0.864690	0.117891
H181	H	0.777768	-0.917572	0.118449
H182	H	0.777160	-0.864624	0.171710
H183	H	0.770147	-0.000099	0.136819
H184	H	0.099116	-0.000046	-0.269242
H185	H	-0.059435	-0.000055	-0.203162
C186	C	-0.148080	-0.000114	0.046869
C187	C	-0.103272	-0.000134	0.102039
C188	C	-0.125904	-0.000180	0.166221
H189	H	-0.170954	0.035112	0.049965
H190	H	-0.170946	-0.035369	0.049892
H191	H	-0.080415	0.035117	0.099018
H192	H	-0.080394	-0.035358	0.098966
H193	H	-0.148771	-0.035435	0.169243
H194	H	-0.148779	0.035047	0.169309
H195	H	-0.095506	-0.000199	0.203661
H196	H	0.580227	-0.000053	0.237419
H197	H	0.781840	-0.557729	0.043427
C198	C	-0.024241	0.000011	0.044928
C199	C	0.010278	0.051992	0.048148
C200	C	0.046990	0.052094	0.111319
H201	H	-0.046238	0.000040	0.083276
H202	H	-0.000748	-0.035209	0.047242
H203	H	-0.013213	0.087203	0.045842
H204	H	0.032286	0.051975	0.009816
H205	H	0.070484	0.016874	0.113632
H206	H	0.024989	0.052121	0.149661
H207	H	0.070419	0.087359	0.113509
H208	H	-0.167204	-0.000059	-0.201573
C209	C	0.591459	-0.858873	-0.190425
C210	C	0.557433	-0.817406	-0.232201
C211	C	0.518509	-0.849088	-0.279960
H212	H	0.611802	-0.883688	-0.219430
H213	H	0.567784	-0.883673	-0.165473
H214	H	0.581105	-0.792616	-0.257152
H215	H	0.537077	-0.792589	-0.203215
H216	H	0.494834	-0.873888	-0.255008
H217	H	0.538857	-0.873902	-0.308961
H218	H	0.495414	-0.820957	-0.308307
H219	H	0.138185	-0.000107	0.089046
C220	C	0.255792	-0.000075	0.104693
C221	C	0.223141	-0.000070	0.161003
C222	C	0.259676	-0.000039	0.224314
H223	H	0.279267	-0.035302	0.107095
H224	H	0.279244	0.035180	0.107045
H225	H	0.199699	-0.035321	0.158652
H226	H	0.199668	0.035154	0.158624
H227	H	0.283128	0.035215	0.226666
H228	H	0.283149	-0.035267	0.226709
H229	H	0.237528	-0.000031	0.262527
H230	H	0.404466	-0.000058	0.021383
H231	H	0.602053	-0.734964	-0.177442
C232	C	0.753591	-0.273671	0.008676
C233	C	0.787613	-0.232191	0.050444
C234	C	0.826539	-0.263859	0.098210
H235	H	0.733250	-0.298486	0.037687
H236	H	0.777269	-0.298470	-0.016270
H237	H	0.763938	-0.207403	0.075388
H238	H	0.807967	-0.207375	0.021452
H239	H	0.850217	-0.288658	0.073264
H240	H	0.806193	-0.288673	0.127216
H241	H	0.849631	-0.235720	0.126551
H242	H	0.563187	-0.557754	-0.225158
H243	H	0.581810	-0.000056	0.105305
C244	C	0.591417	-0.273711	-0.190455
C245	C	0.557389	-0.232248	-0.232235
C246	C	0.518459	-0.263935	-0.279981
H247	H	0.611756	-0.298532	-0.219460
H248	H	0.567744	-0.298505	-0.165494
H249	H	0.581058	-0.207464	-0.257195
H250	H	0.537037	-0.207425	-0.203250
H251	H	0.494786	-0.288729	-0.255020
H252	H	0.538802	-0.288755	-0.308981
H253	H	0.495362	-0.235807	-0.308330
H254	H	0.602026	-0.149782	-0.177483
