data_functionalizedCrystal
_audit_creation_method	'MofGen! by Chris Wilmer'
_symmetry_space_group_name_H-M	'P1'
_symmetry_Int_Tables_number	1
_symmetry_cell_setting	triclinic
loop_
_symmetry_equiv_pos_as_xyz
  x,y,z
_cell_length_a	14.044220
_cell_length_b	19.288864
_cell_length_c	18.366186
_cell_angle_alpha	90.020214
_cell_angle_beta	89.997710
_cell_angle_gamma	91.837439
loop_
_atom_site_label
_atom_site_type_symbol
_atom_site_fract_x
_atom_site_fract_y
_atom_site_fract_z
O1	O	0.118208	-0.928946	-0.060787
O2	O	0.618208	-0.428946	0.439213
O3	O	0.134155	-0.727710	-0.060738
O4	O	0.634155	-0.227710	0.439262
O5	O	-0.011790	-0.825307	-0.060755
O6	O	0.488210	-0.325307	0.439245
O7	O	0.264153	-0.831348	-0.060770
O8	O	0.764153	-0.331348	0.439230
O9	O	-0.011785	-0.825294	0.060345
O10	O	0.488215	-0.325294	0.560345
O11	O	0.134160	-0.727696	0.060362
O12	O	0.634160	-0.227696	0.560362
O13	O	0.118213	-0.928932	0.060312
O14	O	0.618213	-0.428932	0.560312
Zn15	Zn	0.126188	-0.828312	0.079564
Zn16	Zn	0.626188	-0.328312	0.579564
Zn17	Zn	0.126181	-0.828330	-0.079990
Zn18	Zn	0.626181	-0.328330	0.420010
O19	O	0.264159	-0.831335	0.060329
O20	O	0.764159	-0.331335	0.560329
C21	C	0.133645	-0.701793	-0.000182
C22	C	0.633645	-0.201793	0.499818
C23	C	0.132104	-0.624591	-0.000163
C24	C	0.632104	-0.124591	0.499837
C25	C	-0.047091	-0.822656	-0.000204
C26	C	0.452909	-0.322656	0.499796
C27	C	-0.152283	-0.814768	-0.000201
C28	C	0.347717	-0.314768	0.499799
C29	C	0.118724	-0.954848	-0.000245
C30	C	0.618724	-0.454848	0.499755
C31	C	0.120264	-1.032051	-0.000269
C32	C	0.620264	-0.532051	0.499731
C33	C	-0.344882	-0.800348	-0.000208
C34	C	0.155118	-0.300348	0.499792
C35	C	-0.402755	-0.856291	-0.000224
C36	C	0.097245	-0.356291	0.499776
C37	C	-0.509924	-0.848267	-0.000228
C38	C	-0.009924	-0.348267	0.499772
C39	C	-0.237703	-0.808370	-0.000204
C40	C	0.262297	-0.308370	0.499796
C41	C	0.299459	-0.833986	-0.000223
C42	C	0.799459	-0.333986	0.499777
C43	C	0.404651	-0.841874	-0.000231
C44	C	0.904651	-0.341874	0.499769
N45	N	0.126192	-0.828305	0.188455
N46	N	0.626192	-0.328305	0.688455
C47	C	0.217738	-0.585397	-0.000179
C48	C	0.717738	-0.085397	0.499821
C49	C	0.216291	-0.512857	-0.000187
C50	C	0.716291	-0.012857	0.499813
C51	C	0.129205	-0.479514	-0.000193
C52	C	0.629205	0.020486	0.499807
C53	C	0.043560	-0.518717	-0.000173
C54	C	0.543560	-0.018717	0.499827
C55	C	0.045010	-0.591256	-0.000157
C56	C	0.545010	-0.091256	0.499843
C57	C	0.060744	-0.366858	-0.042640
C58	C	0.560744	0.133142	0.457360
C59	C	0.059298	-0.294320	-0.042660
C60	C	0.559298	0.205680	0.457340
C61	C	0.124731	-0.255781	-0.000237
C62	C	0.624731	0.244219	0.499763
C63	C	0.191625	-0.289787	0.042196
C64	C	0.691625	0.210213	0.542196
C65	C	0.193075	-0.362325	0.042212
C66	C	0.693075	0.137675	0.542212
C67	C	0.127624	-0.400858	-0.000209
C68	C	0.627624	0.099142	0.499791
C69	C	0.208802	-0.137930	-0.000261
C70	C	0.708802	0.362070	0.499739
C71	C	0.207351	-0.065389	-0.000264
C72	C	0.707351	0.434611	0.499736
C73	C	0.034617	-0.071251	-0.000257
C74	C	0.534617	0.428749	0.499743
C75	C	0.036070	-0.143790	-0.000247
C76	C	0.536070	0.356210	0.499753
C77	C	0.123165	-0.177126	-0.000252
C78	C	0.623165	0.322874	0.499748
N79	N	0.126169	-0.828342	-0.188881
N80	N	0.626169	-0.328342	0.311119
C81	C	0.183489	-0.874017	0.772990
C82	C	0.683489	-0.374017	1.272990
C83	C	0.183498	-0.874011	0.696763
C84	C	0.683498	-0.374011	1.196763
C85	C	0.126170	-0.828336	0.658667
C86	C	0.626170	-0.328336	1.158667
C87	C	0.068847	-0.782651	0.696805
C88	C	0.568847	-0.282651	1.196805
C89	C	0.068847	-0.782655	0.773031
C90	C	0.568847	-0.282655	1.273031
C91	C	0.040732	-0.821119	0.537907
C92	C	0.540732	-0.321119	1.037907
C93	C	0.040731	-0.821121	0.461682
C94	C	0.540731	-0.321121	0.961682
C95	C	0.126173	-0.828322	0.423559
C96	C	0.626173	-0.328322	0.923559
C97	C	0.211618	-0.835536	0.461671
C98	C	0.711618	-0.335536	0.961671
C99	C	0.211618	-0.835539	0.537897
C100	C	0.711618	-0.335539	1.037897
C101	C	0.126165	-0.828327	0.576012
C102	C	0.626165	-0.328327	1.076012
C103	C	0.183507	-0.873993	0.302775
C104	C	0.683507	-0.373993	0.802775
C105	C	0.183519	-0.873981	0.226546
C106	C	0.683519	-0.373981	0.726546
C107	C	0.068859	-0.782625	0.226589
C108	C	0.568859	-0.282625	0.726589
C109	C	0.068857	-0.782633	0.302817
C110	C	0.568857	-0.282633	0.802817
C111	C	0.126179	-0.828321	0.340906
C112	C	0.626179	-0.328321	0.840906
H113	H	-0.371814	-0.910212	-0.000286
H114	H	0.128186	-0.410212	0.499714
O115	O	0.299722	-0.023115	-0.000277
O116	O	0.799722	0.476885	0.499723
H117	H	0.284085	0.032927	-0.000276
H118	H	0.784085	0.532927	0.499724
O119	O	-0.385855	-0.728925	-0.000179
O120	O	0.114145	-0.228925	0.499821
H121	H	-0.464821	-0.733753	-0.000175
H122	H	0.035179	-0.233753	0.499825
H123	H	0.247540	-0.390010	0.076765
H124	H	0.747540	0.109990	0.576765
H125	H	0.022169	-0.745459	0.804075
H126	H	0.522169	-0.245459	1.304075
O127	O	0.311671	-0.621353	-0.000164
O128	O	0.811671	-0.121353	0.499836
H129	H	0.370976	-0.581907	-0.000165
H130	H	0.870976	-0.081907	0.499835
H131	H	0.286027	-0.480939	-0.000198
H132	H	0.786027	0.019061	0.499802
O133	O	-0.059316	-0.035300	-0.000264
O134	O	0.440684	0.464700	0.499736
H135	H	-0.045939	0.021726	-0.000281
H136	H	0.454061	0.521726	0.499719
H137	H	0.022176	-0.745442	0.333862
H138	H	0.522176	-0.245442	0.833862
H139	H	0.244906	-0.258409	0.076742
H140	H	0.744906	0.241591	0.576742
H141	H	0.279719	-0.165073	-0.000254
H142	H	0.779719	0.334927	0.499746
H143	H	0.230187	-0.911191	0.333789
H144	H	0.730187	-0.411191	0.833789
H145	H	0.230201	-0.911175	0.195503
H146	H	0.730201	-0.411175	0.695503
H147	H	-0.033662	-0.175703	-0.000237
H148	H	0.466338	0.324297	0.499763
O149	O	0.303781	-0.843301	0.420561
O150	O	0.803781	-0.343301	0.920561
H151	H	0.363190	-0.848322	0.459868
H152	H	0.863190	-0.348322	0.959868
H153	H	0.004833	-0.266638	-0.077215
H154	H	0.504833	0.233362	0.422785
O155	O	0.007005	-0.733371	0.185513
O156	O	0.507005	-0.233371	0.685513
H157	H	0.016624	-0.741049	0.126101
H158	H	0.516624	-0.241049	0.626101
H159	H	0.007459	-0.398231	-0.077190
H160	H	0.507459	0.101769	0.422810
H161	H	-0.028844	-0.815252	0.430657
H162	H	0.471156	-0.315252	0.930657
O163	O	0.303768	-0.843318	0.579005
O164	O	0.803768	-0.343318	1.079005
H165	H	0.354193	-0.800059	0.564399
H166	H	0.854193	-0.300059	1.064399
H167	H	-0.028849	-0.815249	0.568940
H168	H	0.471151	-0.315249	1.068940
O169	O	-0.050372	-0.482761	-0.000180
O170	O	0.449628	0.017239	0.499820
H171	H	-0.036994	-0.425735	-0.000200
H172	H	0.463006	0.074265	0.499800
H173	H	0.230167	-0.911219	0.803997
H174	H	0.730167	-0.411219	1.303997
O175	O	-0.047356	-0.633537	-0.000143
O176	O	0.452644	-0.133537	0.499857
H177	H	-0.108158	-0.598168	-0.000151
H178	H	0.391842	-0.098168	0.499849
O179	O	0.245316	-0.923281	0.655623
O180	O	0.745316	-0.423281	1.155623
H181	H	0.285170	-0.955053	0.694915
H182	H	0.785170	-0.455053	1.194915
H183	H	0.022173	-0.745461	0.665782
H184	H	0.522173	-0.245461	1.165782
