data_functionalizedCrystal
_audit_creation_method	'MofGen! by Chris Wilmer'
_symmetry_space_group_name_H-M	'P1'
_symmetry_Int_Tables_number	1
_symmetry_cell_setting	triclinic
loop_
_symmetry_equiv_pos_as_xyz
  x,y,z
_cell_length_a	16.109301
_cell_length_b	13.339070
_cell_length_c	14.586319
_cell_angle_alpha	89.998714
_cell_angle_beta	89.999213
_cell_angle_gamma	99.545388
loop_
_atom_site_label
_atom_site_type_symbol
_atom_site_fract_x
_atom_site_fract_y
_atom_site_fract_z
O1	O	1.133153	0.130021	-0.076178
O2	O	1.633153	0.630021	0.423822
O3	O	0.894827	0.146201	-0.076192
O4	O	1.394827	0.646201	0.423808
O5	O	0.986638	-0.009144	-0.076184
O6	O	1.486638	0.490856	0.423816
O7	O	1.041342	0.285365	-0.076186
O8	O	1.541342	0.785365	0.423814
O9	O	0.986629	-0.009146	0.076297
O10	O	1.486629	0.490854	0.576297
O11	O	0.894818	0.146199	0.076289
O12	O	1.394818	0.646199	0.576289
O13	O	1.133144	0.130018	0.076303
O14	O	1.633144	0.630018	0.576303
Cu15	Cu	1.013980	0.138108	0.090219
Cu16	Cu	1.513980	0.638108	0.590219
Cu17	Cu	1.013991	0.138111	-0.090107
Cu18	Cu	1.513991	0.638111	0.409893
O19	O	1.041333	0.285363	0.076295
O20	O	1.541333	0.785363	0.576295
C21	C	0.863697	0.145545	0.000047
C22	C	1.363697	0.645545	0.500047
C23	C	0.770947	0.143580	0.000041
C24	C	1.270947	0.643580	0.500041
C25	C	0.568905	0.231189	0.000051
C26	C	1.068905	0.731189	0.500051
C27	C	0.481756	0.229335	0.000057
C28	C	0.981756	0.729335	0.500057
C29	C	0.459072	0.045023	0.000055
C30	C	0.959072	0.545023	0.500055
C31	C	0.546219	0.046879	0.000055
C32	C	1.046219	0.546879	0.500055
C33	C	0.601133	0.139965	0.000049
C34	C	1.101133	0.639965	0.500049
C35	C	0.426838	0.136255	0.000054
C36	C	0.926838	0.636255	0.500054
C37	C	0.332347	0.134244	0.000061
C38	C	0.832347	0.634244	0.500061
C39	C	0.695630	0.141976	0.000044
C40	C	1.195630	0.641976	0.500044
C41	C	0.977393	-0.046831	0.000055
C42	C	1.477393	0.453169	0.500055
C43	C	0.949849	-0.159124	0.000050
C44	C	1.449849	0.340876	0.500050
C45	C	1.164017	-0.523987	0.000063
C46	C	1.664017	-0.023987	0.500063
C47	C	1.189898	-0.418483	0.000073
C48	C	1.689898	0.081517	0.500073
C49	C	1.129888	-0.353638	0.000067
C50	C	1.629888	0.146362	0.500067
C51	C	1.043992	-0.394307	0.000051
C52	C	1.543992	0.105693	0.500051
C53	C	1.018108	-0.499822	0.000048
C54	C	1.518108	0.000178	0.500048
C55	C	0.983979	-0.329473	0.000052
C56	C	1.483979	0.170527	0.500052
C57	C	0.898083	-0.370142	0.000037
C58	C	1.398083	0.129858	0.500037
C59	C	0.872203	-0.475647	0.000033
C60	C	1.372203	0.024353	0.500033
C61	C	0.932213	-0.540492	0.000039
C62	C	1.432213	-0.040492	0.500039
C63	C	1.009863	-0.223958	0.000055
C64	C	1.509863	0.276042	0.500055
C65	C	0.863954	-0.199793	0.000041
C66	C	1.363954	0.300207	0.500041
C67	C	0.838073	-0.305297	0.000030
C68	C	1.338073	0.194703	0.500030
C69	C	1.164275	0.130675	0.000063
C70	C	1.664275	0.630675	0.500063
C71	C	1.257024	0.132640	0.000062
C72	C	1.757024	0.632640	0.500062
C73	C	1.050578	0.323050	0.000054
C74	C	1.550578	0.823050	0.500054
C75	C	1.078122	0.435343	0.000054
C76	C	1.578122	0.935343	0.500054
N77	N	1.013978	0.138106	0.217051
N78	N	1.513978	0.638106	0.717051
N79	N	1.013998	0.138106	-0.216939
N80	N	1.513998	0.638106	0.283061
C81	C	1.054656	0.069342	0.452061
C82	C	1.554656	0.569342	0.952061
C83	C	1.054658	0.069340	0.548042
C84	C	1.554658	0.569340	1.048042
C85	C	0.973315	0.206873	0.548044
C86	C	1.473315	0.706873	1.048044
C87	C	0.973308	0.206870	0.452065
C88	C	1.473308	0.706870	0.952065
C89	C	1.013984	0.138105	0.404075
C90	C	1.513984	0.638105	0.904075
C91	C	1.013992	0.138106	0.596036
C92	C	1.513992	0.638106	1.096036
C93	C	1.013994	0.138104	0.700103
C94	C	1.513994	0.638104	1.200103
C95	C	1.013981	0.138106	0.300002
C96	C	1.513981	0.638106	0.800002
H97	H	1.079800	-0.190856	0.000068
H98	H	1.579800	0.309144	0.500068
H99	H	1.087775	0.013349	0.412990
H100	H	1.587775	0.513349	0.912990
O101	O	0.405692	-0.045369	-0.000110
O102	O	0.905692	0.454631	0.499890
C103	C	0.354594	-0.051939	-0.079072
C104	C	0.854594	0.448061	0.420928
H105	H	0.387297	0.000919	-0.134265
H106	H	0.887297	0.500919	0.365735
H107	H	0.343574	-0.133463	-0.105583
H108	H	0.843574	0.366537	0.394417
H109	H	0.291594	-0.028587	-0.061219
H110	H	0.791594	0.471413	0.438781
O111	O	0.933923	0.273717	0.405346
O112	O	1.433923	0.773717	0.905346
C113	C	0.992848	0.336150	0.349837
C114	C	1.492848	0.836150	0.849837
H115	H	1.048612	0.295881	0.335458
H116	H	1.548612	0.795881	0.835458
H117	H	0.961833	0.352138	0.282346
H118	H	1.461833	0.852138	0.782346
H119	H	1.015744	0.410915	0.386821
H120	H	1.515744	0.910915	0.886821
O121	O	0.577572	-0.041715	0.000213
O122	O	1.077572	0.458285	0.500213
C123	C	0.627318	-0.046146	0.079173
C124	C	1.127318	0.453854	0.579173
H125	H	0.607486	0.005583	0.134370
H126	H	1.107486	0.505583	0.634370
H127	H	0.618280	-0.127632	0.105678
H128	H	1.118280	0.372368	0.605678
H129	H	0.696412	-0.019975	0.061320
H130	H	1.196412	0.480025	0.561320
H131	H	0.613614	0.306986	0.000053
H132	H	1.113614	0.806986	0.500053
O133	O	1.094098	0.002584	0.594796
O134	O	1.594098	0.502584	1.094796
C135	C	1.085400	0.017341	0.689802
C136	C	1.585400	0.517341	1.189802
H137	H	1.028017	0.055123	0.702915
H138	H	1.528017	0.555123	1.202915
H139	H	1.076984	-0.059262	0.726279
H140	H	1.576984	0.440738	1.226279
H141	H	1.144162	0.068095	0.717035
H142	H	1.644162	0.568095	1.217035
O143	O	0.933883	0.273635	0.594805
O144	O	1.433883	0.773635	1.094805
C145	C	0.942593	0.258880	0.689809
C146	C	1.442593	0.758880	1.189809
H147	H	0.999975	0.221094	0.702914
H148	H	1.499975	0.721094	1.202914
H149	H	0.951018	0.335485	0.726281
H150	H	1.451018	0.835485	1.226281
H151	H	0.883832	0.208132	0.717056
H152	H	1.383832	0.708132	1.217056
O153	O	1.155171	-0.251176	0.000030
O154	O	1.655171	0.248824	0.500030
C155	C	1.243851	-0.229184	0.000066
C156	C	1.743851	0.270816	0.500066
H157	H	1.270251	-0.296830	-0.028793
H158	H	1.770251	0.203170	0.471207
H159	H	1.265606	-0.159333	-0.044204
H160	H	1.765606	0.340667	0.455796
H161	H	1.267407	-0.213605	0.073222
H162	H	1.767407	0.286395	0.573222
H163	H	0.455520	0.303619	0.000061
H164	H	0.955520	0.803619	0.500061
H165	H	1.259835	-0.385378	0.000087
H166	H	1.759835	0.114622	0.500087
O167	O	1.222270	-0.587018	-0.000090
O168	O	1.722270	-0.087018	0.499910
C169	C	1.211655	-0.648791	-0.079047
C170	C	1.711655	-0.148791	0.420953
H171	H	1.178068	-0.610133	-0.134251
H172	H	1.678068	-0.110133	0.365749
H173	H	1.275885	-0.660686	-0.105545
H174	H	1.775885	-0.160686	0.394455
H175	H	1.172431	-0.725503	-0.061194
H176	H	1.672431	-0.225503	0.438806
O177	O	0.907176	-0.642999	-0.000092
O178	O	1.407176	-0.142999	0.499908
C179	C	0.938537	-0.684861	-0.079076
C180	C	1.438537	-0.184861	0.420924
H181	H	0.996049	-0.631107	-0.105398
H182	H	1.496049	-0.131107	0.394602
H183	H	0.957090	-0.761388	-0.061319
H184	H	1.457090	-0.261388	0.438681
H185	H	0.887833	-0.695940	-0.134378
H186	H	1.387833	-0.195940	0.365622
H187	H	0.802261	-0.508756	0.000027
H188	H	1.302261	-0.008756	0.500027
H189	H	0.768134	-0.338426	0.000018
H190	H	1.268134	0.161574	0.500018
H191	H	0.815089	-0.146996	0.000040
H192	H	1.315089	0.353004	0.500040
