data_functionalizedCrystal
_audit_creation_method	'MofGen! by Chris Wilmer'
_symmetry_space_group_name_H-M	'P1'
_symmetry_Int_Tables_number	1
_symmetry_cell_setting	triclinic
loop_
_symmetry_equiv_pos_as_xyz
  x,y,z
_cell_length_a	18.215405
_cell_length_b	11.169417
_cell_length_c	18.215399
_cell_angle_alpha	89.983970
_cell_angle_beta	89.972459
_cell_angle_gamma	90.023981
loop_
_atom_site_label
_atom_site_type_symbol
_atom_site_fract_x
_atom_site_fract_y
_atom_site_fract_z
Zn1	Zn	-0.292967	1.834818	-0.416043
Zn2	Zn	-0.416039	1.834676	-0.292978
Zn3	Zn	-0.292993	1.634116	-0.292999
Zn4	Zn	-0.415999	1.634068	-0.416011
O5	O	-0.354500	1.734419	-0.354508
O6	O	-0.309299	2.002749	-0.399723
O7	O	-0.399744	1.808032	-0.189996
O8	O	-0.190005	1.660819	-0.309343
O9	O	-0.399719	2.002644	-0.309308
O10	O	-0.189986	1.808274	-0.399743
O11	O	-0.309343	1.660681	-0.190012
O12	O	-0.309305	1.466160	-0.309312
O13	O	-0.399652	1.660737	-0.519000
O14	O	-0.399677	1.466124	-0.399688
O15	O	-0.309261	1.808227	-0.519023
O16	O	-0.519018	1.807985	-0.309276
O17	O	-0.518989	1.660599	-0.399668
C18	C	-0.354490	1.422595	-0.354499
C19	C	-0.354503	1.289195	-0.354513
C20	C	-0.545706	1.734304	-0.354482
C21	C	-0.627505	1.734365	-0.354496
C22	C	-0.815628	1.811181	-0.401631
C23	C	-0.892486	1.811225	-0.401645
C24	C	-0.892619	1.657806	-0.307430
C25	C	-0.815762	1.657757	-0.307420
C26	C	-0.777268	1.734452	-0.354520
C27	C	-0.930984	1.734544	-0.354543
C28	C	-1.014318	1.734590	-0.354558
C29	C	-0.693929	1.734404	-0.354506
C30	C	-0.162547	1.734567	-0.354549
C31	C	-0.080748	1.734631	-0.354567
C32	C	-0.354449	1.734492	-0.546461
C33	C	-0.354427	1.734524	-0.628260
C34	C	-0.354510	2.047462	-0.354517
C35	C	-0.354515	2.180862	-0.354520
C36	C	-0.307317	1.811349	-0.816467
C37	C	-0.307295	1.811364	-0.893326
C38	C	-0.401424	1.657783	-0.893290
C39	C	-0.401441	1.657763	-0.816433
C40	C	-0.354389	1.734553	-0.778023
C41	C	-0.354350	1.734587	-0.931739
C42	C	-0.354327	1.734602	-1.015073
C43	C	-0.354410	1.734537	-0.694684
C44	C	-0.354497	1.734415	-0.163302
C45	C	-0.354311	1.734617	-0.081503
H46	H	-0.923715	1.873703	-0.440010
H47	H	-0.923970	1.595366	-0.269082
H48	H	-0.784288	1.873629	-0.439984
H49	H	-0.784528	1.595269	-0.269056
H50	H	-0.269001	1.873873	-0.785197
C51	C	-0.255519	1.895845	-0.935611
H52	H	-0.227505	1.941578	-0.901726
H53	H	-0.223444	1.849970	-0.965598
H54	H	-0.283671	1.948127	-0.965590
C55	C	-0.453184	1.573331	-0.935543
H56	H	-0.446439	1.584349	-0.986822
H57	H	-0.442419	1.492695	-0.922945
H58	H	-0.502636	1.590869	-0.922933
C59	C	-0.453221	1.573285	-0.774138
H60	H	-0.446485	1.584264	-0.722864
H61	H	-0.502667	1.590812	-0.786719
H62	H	-0.442441	1.492653	-0.786730
