data_functionalizedCrystal
_audit_creation_method	'MofGen! by Chris Wilmer'
_symmetry_space_group_name_H-M	'P1'
_symmetry_Int_Tables_number	1
_symmetry_cell_setting	triclinic
loop_
_symmetry_equiv_pos_as_xyz
  x,y,z
_cell_length_a	10.654549
_cell_length_b	14.044220
_cell_length_c	9.130307
_cell_angle_alpha	90.006234
_cell_angle_beta	90.005003
_cell_angle_gamma	88.837898
loop_
_atom_site_label
_atom_site_type_symbol
_atom_site_fract_x
_atom_site_fract_y
_atom_site_fract_z
O1	O	1.681228	0.133255	0.121840
O2	O	1.317025	0.145943	0.121836
O3	O	1.493660	0.001578	0.121823
O4	O	1.504594	0.277620	0.121852
O5	O	1.493645	0.001572	-0.121776
O6	O	1.317010	0.145937	-0.121763
O7	O	1.681213	0.133249	-0.121759
Cu8	Cu	1.499110	0.139592	-0.144004
Cu9	Cu	1.499128	0.139600	0.144080
O10	O	1.504578	0.277614	-0.121747
C11	C	1.270126	0.145008	0.000035
C12	C	1.130403	0.142217	0.000033
C13	C	0.857239	0.309607	0.000092
C14	C	0.917582	0.397234	0.000095
C15	C	1.048864	0.399859	0.000076
C16	C	1.119806	0.314847	0.000059
C17	C	1.059464	0.227220	0.000055
C18	C	0.928178	0.224604	0.000070
C19	C	1.070060	0.054590	0.000030
C20	C	0.938778	0.051963	0.000038
C21	C	1.141003	-0.030422	0.000012
C22	C	1.080660	-0.118051	-0.000001
C23	C	0.949370	-0.120673	0.000016
C24	C	0.878436	-0.035665	0.000035
C25	C	1.488867	-0.033771	0.000023
C26	C	1.474591	-0.139090	0.000021
C27	C	1.448492	-0.331924	0.000042
C28	C	1.549740	-0.388890	0.000048
C29	C	1.535219	-0.496189	0.000059
C30	C	1.463012	-0.224615	0.000030
C31	C	1.728112	0.134184	0.000044
C32	C	1.867836	0.136975	0.000056
C33	C	1.509372	0.312963	0.000057
C34	C	1.523647	0.418282	0.000068
N35	N	1.499107	0.139587	-0.346626
C36	C	1.333791	0.023439	-0.346701
C37	C	1.251146	-0.034636	-0.423405
C38	C	1.251164	-0.034636	-0.576738
C39	C	1.333833	0.023447	-0.653371
C40	C	1.416478	0.081523	-0.576667
C41	C	1.416454	0.081515	-0.423331
C42	C	1.581786	0.197673	-0.576593
C43	C	1.581776	0.197670	-0.423259
C44	C	1.664455	0.255757	-0.653226
C45	C	1.747108	0.313829	-0.576522
C46	C	1.747088	0.313826	-0.423179
C47	C	1.664421	0.255746	-0.346555
N48	N	1.499141	0.139598	0.346703
H49	H	0.900248	-0.192030	0.000022
H50	H	1.333776	0.023427	-0.221849
N51	N	1.836222	0.376470	-0.340452
H52	H	1.888588	0.413262	-0.412270
H53	H	1.893031	0.335547	-0.276829
N54	N	0.736839	-0.038481	0.000057
H55	H	0.707310	-0.072997	0.090361
H56	H	0.707372	-0.072980	-0.090303
H57	H	1.350913	-0.363736	0.000044
N58	N	0.715644	0.306775	0.000084
H59	H	0.679859	0.373922	0.000090
H60	H	0.686209	0.272215	0.090386
N61	N	1.261403	0.317672	0.000047
H62	H	1.290959	0.352192	0.090352
H63	H	1.290831	0.352173	-0.090312
N64	N	1.161993	-0.097289	-0.340754
H65	H	1.174524	-0.088484	-0.231978
H66	H	1.179129	-0.166099	-0.367577
H67	H	1.664399	0.255735	-0.221703
H68	H	1.097994	0.471213	0.000077
H69	H	0.859806	0.466448	0.000115
H70	H	1.247899	-0.028278	0.000004
H71	H	1.138432	-0.187261	-0.000006
N72	N	1.679010	-0.346760	0.000042
H73	H	1.671199	-0.274968	0.000031
H74	H	1.726137	-0.368621	-0.090266
H75	H	1.183862	-0.081922	-0.639191
H76	H	1.333830	0.023450	-0.778224
N77	N	1.836255	0.376477	-0.659171
H78	H	1.823719	0.367670	-0.767945
H79	H	1.925560	0.358383	-0.632360
H80	H	1.664458	0.255757	-0.778078
