data_functionalizedCrystal
_audit_creation_method	'MofGen! by Chris Wilmer'
_symmetry_space_group_name_H-M	'P1'
_symmetry_Int_Tables_number	1
_symmetry_cell_setting	triclinic
loop_
_symmetry_equiv_pos_as_xyz
  x,y,z
_cell_length_a	16.053802
_cell_length_b	16.992694
_cell_length_c	16.974813
_cell_angle_alpha	92.975366
_cell_angle_beta	88.912550
_cell_angle_gamma	92.750953
loop_
_atom_site_label
_atom_site_type_symbol
_atom_site_fract_x
_atom_site_fract_y
_atom_site_fract_z
O1	O	-0.080405	-1.044046	0.164036
O2	O	0.419595	-0.544046	0.664036
O3	O	-0.080306	-0.815757	0.162201
O4	O	0.419694	-0.315757	0.662201
O5	O	-0.072625	-0.935897	0.048765
O6	O	0.427375	-0.435897	0.548765
O7	O	-0.088087	-0.923906	0.277473
O8	O	0.411913	-0.423906	0.777473
O9	O	0.065813	-0.929284	0.054981
O10	O	0.565813	-0.429284	0.554981
O11	O	0.058132	-0.809145	0.168418
O12	O	0.558132	-0.309145	0.668418
O13	O	0.058033	-1.037433	0.170253
O14	O	0.558033	-0.537433	0.670253
Zn15	Zn	0.080062	-0.922239	0.170322
Zn16	Zn	0.580062	-0.422239	0.670322
Zn17	Zn	-0.102336	-0.930951	0.162132
Zn18	Zn	0.397664	-0.430951	0.662132
O19	O	0.050351	-0.917293	0.283689
O20	O	0.550351	-0.417293	0.783689
C21	C	-0.010931	-0.783234	0.162951
C22	C	0.489069	-0.283234	0.662951
C23	C	-0.010465	-0.696175	0.155912
C24	C	0.489535	-0.196175	0.655912
N25	N	0.204544	-0.916298	0.175912
N26	N	0.704544	-0.416298	0.675912
C27	C	-0.001420	-0.932011	0.022473
C28	C	0.498580	-0.432011	0.522473
C29	C	0.004496	-0.930277	-0.065130
C30	C	0.504496	-0.430277	0.434870
N31	N	-0.226817	-0.936898	0.156536
N32	N	0.273183	-0.436898	0.656536
C33	C	0.251505	-0.967436	0.127664
C34	C	0.751505	-0.467436	0.627664
C35	C	0.338647	-0.963288	0.131582
C36	C	0.838647	-0.463288	0.631582
C37	C	0.378825	-0.908005	0.183752
C38	C	0.878825	-0.408005	0.683752
C39	C	0.331858	-0.856862	0.232002
C40	C	0.831858	-0.356862	0.732002
C41	C	0.244718	-0.861007	0.228080
C42	C	0.744718	-0.361007	0.728080
C43	C	0.639076	-0.889899	0.200864
C44	C	1.139076	-0.389899	0.700864
C45	C	0.726222	-0.885760	0.204784
C46	C	1.226222	-0.385760	0.704784
C47	C	0.733005	-0.992186	0.104363
C48	C	1.233005	-0.492186	0.604363
C49	C	0.645863	-0.996329	0.100448
C50	C	1.145863	-0.496329	0.600448
C51	C	0.598903	-0.945183	0.148695
C52	C	1.098903	-0.445183	0.648695
N53	N	0.467898	-0.903765	0.187760
N54	N	0.967898	-0.403765	0.687760
N55	N	0.509833	-0.949419	0.144683
N56	N	1.009833	-0.449419	0.644683
C57	C	-0.011344	-1.069957	0.169503
C58	C	0.488656	-0.569957	0.669503
C59	C	-0.011816	-1.157016	0.176542
C60	C	0.488184	-0.657016	0.676542
C61	C	-0.015055	-0.646080	0.223821
C62	C	0.484945	-0.146080	0.723821
C63	C	-0.014596	-0.564279	0.217204
C64	C	0.485404	-0.064279	0.717204
C65	C	-0.009553	-0.532574	0.142676
C66	C	0.490447	-0.032574	0.642676
C67	C	-0.004959	-0.582675	0.074762
C68	C	0.495041	-0.082675	0.574762
C69	C	-0.005412	-0.664475	0.081380
C70	C	0.494588	-0.164475	0.581380
C71	C	-0.007676	-0.288916	0.115246
C72	C	0.492324	0.211084	0.615246
C73	C	-0.007226	-0.207111	0.108632
C74	C	0.492774	0.292889	0.608632
C75	C	-0.016861	-0.188719	0.251075
C76	C	0.483139	0.311281	0.751075
C77	C	-0.017318	-0.270522	0.257687
C78	C	0.482682	0.229478	0.757687
C79	C	-0.012721	-0.320615	0.189773
C80	C	0.487279	0.179385	0.689773
N81	N	-0.009086	-0.448960	0.135910
N82	N	0.490914	0.051040	0.635910
N83	N	-0.013181	-0.404227	0.196540
N84	N	0.486819	0.095773	0.696540
C85	C	-0.068186	-0.933069	-0.109669
C86	C	0.431814	-0.433069	0.390331
C87	C	-0.062625	-0.931434	-0.191981
C88	C	0.437375	-0.431434	0.308019
C89	C	0.015620	-0.927013	-0.229752
C90	C	0.515620	-0.427013	0.270248
C91	C	0.088308	-0.924219	-0.185206
C92	C	0.588308	-0.424219	0.314794
C93	C	0.082746	-0.925848	-0.102895
C94	C	0.582746	-0.425848	0.397105
C95	C	0.040348	-0.921749	-0.475560
C96	C	0.540348	-0.421749	0.024440
C97	C	0.045906	-0.920122	-0.557877
C98	C	0.545906	-0.420122	-0.057877
C99	C	-0.105028	-0.927336	-0.564647
C100	C	0.394972	-0.427336	-0.064647
C101	C	-0.110584	-0.928969	-0.482334
C102	C	0.389416	-0.428969	0.017666
C103	C	-0.037896	-0.926171	-0.437795
C104	C	0.462104	-0.426171	0.062205
N105	N	0.021307	-0.925344	-0.313887
N106	N	0.521307	-0.425344	0.186113
N107	N	-0.043583	-0.927834	-0.353661
N108	N	0.456417	-0.427834	0.146339
C109	C	-0.020855	-0.921179	0.309981
C110	C	0.479145	-0.421179	0.809981
C111	C	-0.026777	-0.922914	0.397583
C112	C	0.473223	-0.422914	0.897583
H113	H	0.218798	-1.012457	0.085185
H114	H	0.718798	-0.512457	0.585185
C115	C	0.336597	-1.068921	0.031950
C116	C	0.836597	-0.568921	0.531950
C117	C	0.390265	-1.019513	0.078559
C118	C	0.890265	-0.519513	0.578559
H119	H	0.368465	-1.103639	-0.000779
H120	H	0.868465	-0.603639	0.499221
H121	H	0.304681	-1.037844	-0.000018
H122	H	0.804681	-0.537844	0.499982
H123	H	0.300255	-1.098800	0.065040
H124	H	0.800255	-0.598800	0.565040
H125	H	0.426603	-0.989630	0.045468
H126	H	0.926603	-0.489630	0.545468
H127	H	0.422195	-1.050595	0.110530
H128	H	0.922195	-0.550595	0.610530
H129	H	0.099536	-0.919486	-0.439307
H130	H	0.599536	-0.419486	0.060693
H131	H	-0.003120	-0.181301	0.047940
H132	H	0.496880	0.318699	0.547940
H133	H	0.141932	-0.923564	-0.066631
H134	H	0.641932	-0.423564	0.433369
H135	H	0.600848	-0.848255	0.240150
H136	H	1.100848	-0.348255	0.740150
H137	H	-0.019162	-0.671887	0.284510
H138	H	0.480838	-0.171887	0.784510
H139	H	-0.021435	-0.296329	0.318375
H140	H	0.478565	0.203671	0.818375
H141	H	-0.003932	-0.329693	0.059945
H142	H	0.496068	0.170307	0.559945
C143	C	-0.093844	-0.526807	0.333372
C144	C	0.406156	-0.026807	0.833372
C145	C	-0.019648	-0.509216	0.291854
C146	C	0.480352	-0.009216	0.791854
H147	H	-0.096963	-0.492810	0.379457
H148	H	0.403037	0.007190	0.879457
H149	H	-0.094832	-0.580055	0.347973
H150	H	0.405168	-0.080055	0.847973
H151	H	-0.140058	-0.519472	0.300844
H152	H	0.359942	-0.019472	0.800844
H153	H	0.026566	-0.516557	0.324379
H154	H	0.526566	-0.016557	0.824379
H155	H	-0.018653	-0.455955	0.277254
H156	H	0.481347	0.044045	0.777254
C157	C	0.000005	-0.465451	0.001368
C158	C	0.500005	0.034549	0.501368
C159	C	0.000583	-0.547828	-0.007161
C160	C	0.500583	-0.047828	0.492839
H161	H	0.003420	-0.443941	-0.049210
H162	H	0.503420	0.056059	0.450790
H163	H	0.046374	-0.445971	0.031709
H164	H	0.546374	0.054029	0.531709
H165	H	-0.050179	-0.450574	0.027380
H166	H	0.449821	0.049426	0.527380
H167	H	0.050770	-0.562704	-0.033168
H168	H	0.550770	-0.062704	0.466832
H169	H	-0.045791	-0.567315	-0.037514
H170	H	0.454209	-0.067315	0.462486
H171	H	0.613151	-1.041345	0.057967
H172	H	1.113151	-0.541345	0.557967
H173	H	0.771247	-1.033826	0.065081
H174	H	1.271247	-0.533826	0.565081
H175	H	0.152017	-0.920614	-0.215965
H176	H	0.652017	-0.420614	0.284035
C177	C	-0.020437	-0.055160	0.304181
C178	C	0.479563	0.444840	0.804181
C179	C	-0.021903	-0.133654	0.325724
C180	C	0.478097	0.366346	0.825724
H181	H	-0.023543	-0.021167	0.350270
H182	H	0.476457	0.478833	0.850270
H183	H	-0.066660	-0.047834	0.271674
H184	H	0.433340	0.452166	0.771674
H185	H	0.029894	-0.043244	0.276000
H186	H	0.529894	0.456756	0.776000
H187	H	-0.072238	-0.145573	0.353900
H188	H	0.427762	0.354427	0.853900
H189	H	0.024323	-0.140984	0.358244
H190	H	0.524323	0.359016	0.858244
C191	C	-0.161694	-1.006418	-0.025639
C192	C	0.338306	-0.506418	0.474361
C193	C	-0.154193	-0.937914	-0.068148
C194	C	0.345807	-0.437914	0.431852
H195	H	-0.214793	-1.009404	-0.000009
H196	H	0.285207	-0.509404	0.499991
H197	H	-0.119204	-1.004988	0.012661
H198	H	0.380796	-0.504988	0.512661
H199	H	-0.156184	-1.051320	-0.060744
H200	H	0.343816	-0.551320	0.439256
H201	H	-0.159697	-0.893011	-0.033042
H202	H	0.340303	-0.393011	0.466958
H203	H	-0.196695	-0.939337	-0.106453
H204	H	0.303305	-0.439337	0.393547
C205	C	0.004142	-0.674443	-0.060082
C206	C	0.504142	-0.174443	0.439918
C207	C	-0.000374	-0.719543	0.006732
C208	C	0.499626	-0.219543	0.506732
H209	H	0.007249	-0.708441	-0.106168
H210	H	0.507249	-0.208441	0.393832
H211	H	0.052393	-0.639860	-0.057535
H212	H	0.552393	-0.139860	0.442465
H213	H	-0.044161	-0.644451	-0.061863
H214	H	0.455839	-0.144451	0.438137
H215	H	0.047932	-0.749530	0.008515
H216	H	0.547932	-0.249530	0.508515
H217	H	-0.048629	-0.754140	0.004183
H218	H	0.451371	-0.254140	0.504183
C219	C	0.462423	-0.803258	0.282611
C220	C	0.962423	-0.303258	0.782611
C221	C	0.376020	-0.796095	0.289351
C222	C	0.876020	-0.296095	0.789351
H223	H	0.489683	-0.765746	0.318023
H224	H	0.989683	-0.265746	0.818023
H225	H	0.480302	-0.793949	0.230112
H226	H	0.980302	-0.293949	0.730112
H227	H	0.475881	-0.854935	0.295142
H228	H	0.975881	-0.354935	0.795142
H229	H	0.362562	-0.744419	0.276815
H230	H	0.862562	-0.244419	0.776815
H231	H	0.358135	-0.805397	0.341863
H232	H	0.858135	-0.305397	0.841863
C233	C	-0.212371	-0.938796	-0.190410
C234	C	0.287629	-0.438796	0.309590
C235	C	-0.142520	-0.934546	-0.240942
C236	C	0.357480	-0.434546	0.259058
H237	H	-0.261696	-0.940734	-0.220639
H238	H	0.238304	-0.440734	0.279361
H239	H	-0.211647	-0.893586	-0.155049
H240	H	0.288353	-0.393586	0.344951
H241	H	-0.211148	-0.984961	-0.161280
H242	H	0.288852	-0.484961	0.338720
H243	H	-0.143739	-0.888378	-0.270068
H244	H	0.356261	-0.388378	0.229932
H245	H	-0.143244	-0.979761	-0.276317
H246	H	0.356756	-0.479761	0.223683
H247	H	-0.164206	-0.929612	-0.600919
H248	H	0.335794	-0.429612	-0.100919
C249	C	0.710771	-0.780953	0.303636
C250	C	1.210771	-0.280953	0.803636
C251	C	0.770389	-0.824977	0.262122
C252	C	1.270389	-0.324977	0.762122
H253	H	0.738040	-0.743426	0.339027
H254	H	1.238040	-0.243426	0.839027
H255	H	0.674721	-0.815261	0.332546
H256	H	1.174721	-0.315261	0.832546
H257	H	0.679127	-0.754303	0.267488
H258	H	1.179127	-0.254303	0.767488
H259	H	0.802028	-0.851631	0.298270
H260	H	1.302028	-0.351631	0.798270
H261	H	0.806453	-0.790664	0.233211
H262	H	1.306453	-0.290664	0.733211
H263	H	0.109625	-0.916518	-0.588626
H264	H	0.609625	-0.416518	-0.088626
C265	C	0.246760	-0.755401	0.327743
C266	C	0.746760	-0.255401	0.827743
C267	C	0.193095	-0.804798	0.281119
C268	C	0.693095	-0.304798	0.781119
H269	H	0.214889	-0.720702	0.360490
H270	H	0.714889	-0.220702	0.860490
H271	H	0.283093	-0.725510	0.294669
H272	H	0.783093	-0.225510	0.794669
H273	H	0.278684	-0.786494	0.359701
H274	H	0.778684	-0.286494	0.859701
H275	H	0.161175	-0.773705	0.249157
H276	H	0.661175	-0.273705	0.749157
H277	H	0.156747	-0.834691	0.314198
H278	H	0.656747	-0.334691	0.814198
H279	H	-0.174299	-0.932570	-0.451588
H280	H	0.325701	-0.432570	0.048412
