data_functionalizedCrystal
_audit_creation_method	'MofGen! by Chris Wilmer'
_symmetry_space_group_name_H-M	'P1'
_symmetry_Int_Tables_number	1
_symmetry_cell_setting	triclinic
loop_
_symmetry_equiv_pos_as_xyz
  x,y,z
_cell_length_a	17.019383
_cell_length_b	17.019234
_cell_length_c	9.565339
_cell_angle_alpha	86.118932
_cell_angle_beta	86.120478
_cell_angle_gamma	83.129140
loop_
_atom_site_label
_atom_site_type_symbol
_atom_site_fract_x
_atom_site_fract_y
_atom_site_fract_z
O1	O	1.046545	0.100546	-0.254241
O2	O	1.546545	0.600546	0.245759
O3	O	0.816868	0.113350	-0.228162
O4	O	1.316868	0.613350	0.271838
O5	O	0.938122	-0.007893	-0.228133
O6	O	1.438122	0.492107	0.271867
O7	O	0.925291	0.221789	-0.254270
O8	O	1.425291	0.721789	0.245730
O9	O	0.938112	-0.007885	0.004388
O10	O	1.438112	0.492115	0.504388
O11	O	0.816858	0.113358	0.004359
O12	O	1.316858	0.613358	0.504359
O13	O	1.046535	0.100554	-0.021721
O14	O	1.546535	0.600554	0.478279
Zn15	Zn	0.931695	0.106957	0.028237
Zn16	Zn	1.431695	0.606957	0.528237
Zn17	Zn	0.931708	0.106947	-0.278119
Zn18	Zn	1.431708	0.606947	0.221881
O19	O	0.925281	0.221796	-0.021750
O20	O	1.425281	0.721796	0.478250
C21	C	0.787475	0.112866	-0.108309
C22	C	1.287475	0.612866	0.391691
C23	C	0.699907	0.111405	-0.097601
C24	C	1.199907	0.611405	0.402399
C25	C	0.658766	0.110716	-0.219308
C26	C	1.158766	0.610716	0.280692
C27	C	0.576485	0.109355	-0.209228
C28	C	1.076485	0.609355	0.290772
C29	C	0.535349	0.108677	-0.077440
C30	C	1.035349	0.608677	0.422560
C31	C	0.576495	0.109369	0.044275
C32	C	1.076495	0.609369	0.544275
C33	C	0.658774	0.110735	0.034194
C34	C	1.158774	0.610735	0.534194
C35	C	0.286921	0.104557	-0.040660
C36	C	0.786921	0.604557	0.459340
C37	C	0.204637	0.103188	-0.030587
C38	C	0.704637	0.603188	0.469413
C39	C	0.204633	0.103176	-0.284091
C40	C	0.704633	0.603176	0.215909
C41	C	0.286913	0.104537	-0.294161
C42	C	0.786913	0.604537	0.205839
C43	C	0.328052	0.105233	-0.172446
C44	C	0.828052	0.605233	0.327554
C45	C	0.451245	0.107284	-0.067133
C46	C	0.951245	0.607284	0.432867
C47	C	0.412153	0.106632	-0.182755
C48	C	0.912153	0.606632	0.317245
C49	C	0.937633	-0.037278	-0.108275
C50	C	1.437633	0.462722	0.391725
C51	C	0.936182	-0.124848	-0.097556
C52	C	1.436182	0.375152	0.402444
C53	C	0.927901	-0.620115	-0.030623
C54	C	1.427901	-0.120115	0.469377
C55	C	0.929273	-0.537835	-0.040689
C56	C	1.429273	-0.037835	0.459311
C57	C	0.929970	-0.496691	-0.172473
C58	C	1.429970	0.003309	0.327527
C59	C	0.929287	-0.537831	-0.294197
C60	C	1.429287	-0.037831	0.205803
C61	C	0.927910	-0.620108	-0.284129
C62	C	1.427910	-0.120108	0.215871
C63	C	0.934122	-0.248265	-0.209212
C64	C	1.434122	0.251735	0.290788
C65	C	0.935502	-0.165982	-0.219272
C66	C	1.435502	0.334018	0.280728
C67	C	0.935486	-0.165991	0.034238
C68	C	1.435486	0.334009	0.534238
C69	C	0.934113	-0.248271	0.044294
C70	C	1.434113	0.251729	0.544294
C71	C	0.933427	-0.289403	-0.077430
C72	C	1.433427	0.210597	0.422570
C73	C	0.931374	-0.412588	-0.182765
C74	C	1.431374	0.087412	0.317235
C75	C	0.932017	-0.373504	-0.067135
C76	C	1.432017	0.126496	0.432865
C77	C	1.075928	0.101037	-0.141577
C78	C	1.575928	0.601037	0.358423
C79	C	1.163496	0.102499	-0.152293
C80	C	1.663496	0.602499	0.347707
C81	C	0.925770	0.251181	-0.141610
C82	C	1.425770	0.751181	0.358390
C83	C	0.927221	0.338751	-0.152339
C84	C	1.427221	0.838751	0.347661
N85	N	0.931692	0.106963	0.237316
N86	N	1.431692	0.606963	0.737316
N87	N	0.931717	0.106934	-0.487198
N88	N	1.431717	0.606934	0.012802
C89	C	0.875599	0.163015	0.328509
C90	C	1.375599	0.663015	0.828509
C91	C	0.946864	0.178245	0.411282
C92	C	1.446864	0.678245	0.911282
C93	C	0.860459	0.091739	0.432094
C94	C	1.360459	0.591739	0.932094
C95	C	1.002992	0.122228	0.318028
C96	C	1.502992	0.622228	0.818028
C97	C	0.916541	0.035692	0.338841
C98	C	1.416541	0.535692	0.838841
C99	C	0.987857	0.050891	0.421569
C100	C	1.487857	0.550891	0.921569
H101	H	0.542995	0.108822	0.151580
H102	H	1.042995	0.608822	0.651580
H103	H	0.692270	0.111300	0.133300
H104	H	1.192270	0.611300	0.633300
H105	H	0.933550	-0.281765	0.151606
H106	H	1.433550	0.218235	0.651606
H107	H	0.445650	0.107188	-0.290056
H108	H	0.945650	0.607188	0.209944
H109	H	0.929850	-0.504324	-0.401498
H110	H	1.429850	-0.004324	0.098502
H111	H	0.417743	0.106730	0.040169
H112	H	0.917743	0.606730	0.540169
H113	H	0.931946	-0.379080	-0.290065
H114	H	1.431946	0.120920	0.209935
F115	F	0.931270	-0.417293	0.073115
F116	F	1.431270	0.082707	0.573115
H117	H	0.828206	0.210460	0.287636
H118	H	1.328206	0.710460	0.787636
H119	H	1.063257	0.135165	0.268433
H120	H	1.563257	0.635165	0.768433
F121	F	0.927183	-0.663885	-0.413676
F122	F	1.427183	-0.163885	0.086324
H123	H	0.936043	-0.132493	0.133339
H124	H	1.436043	0.367507	0.633339
H125	H	0.927337	-0.653609	0.076689
H126	H	1.427337	-0.153609	0.576689
H127	H	0.929838	-0.504349	0.058424
H128	H	1.429838	-0.004349	0.558424
H129	H	0.800208	0.078875	0.481854
H130	H	1.300208	0.578875	0.981854
F131	F	0.160860	0.102454	0.109688
F132	F	0.660860	0.602454	0.609688
F133	F	1.049938	-0.011085	0.474645
F134	F	1.549938	0.488915	0.974645
F135	F	0.936245	-0.122195	-0.359541
F136	F	1.436245	0.377805	0.140459
F137	F	0.899740	-0.043048	0.296757
F138	F	1.399740	0.456952	0.796757
F139	F	0.330688	0.105254	-0.434427
F140	F	0.830688	0.605254	0.065573
F141	F	0.933397	-0.292030	-0.338764
F142	F	1.433397	0.207970	0.161236
H143	H	0.959696	0.238505	0.443444
H144	H	1.459696	0.738505	0.943444
F145	F	0.330694	0.105296	0.088882
F146	F	0.830694	0.605296	0.588882
H147	H	0.692254	0.111265	-0.326624
H148	H	1.192254	0.611265	0.173376
H149	H	0.542992	0.108794	-0.308335
H150	H	1.042992	0.608794	0.191665
H151	H	0.171128	0.102611	-0.383185
H152	H	0.671128	0.602611	0.116815
