data_functionalizedCrystal
_audit_creation_method	'MofGen! by Chris Wilmer'
_symmetry_space_group_name_H-M	'P1'
_symmetry_Int_Tables_number	1
_symmetry_cell_setting	triclinic
loop_
_symmetry_equiv_pos_as_xyz
  x,y,z
_cell_length_a	14.971491
_cell_length_b	13.448316
_cell_length_c	14.971486
_cell_angle_alpha	89.993189
_cell_angle_beta	83.615182
_cell_angle_gamma	89.991393
loop_
_atom_site_label
_atom_site_type_symbol
_atom_site_fract_x
_atom_site_fract_y
_atom_site_fract_z
O1	O	1.186945	-0.082735	0.116587
O2	O	0.926545	-0.082728	0.130541
O3	O	1.063724	-0.082724	-0.006636
O4	O	1.049765	-0.082738	0.253764
O5	O	1.063707	0.082659	-0.006645
O6	O	0.926528	0.082656	0.130532
O7	O	1.186927	0.082649	0.116578
Cu8	Cu	1.056726	0.097753	0.123555
Cu9	Cu	1.056746	-0.097832	0.123565
O10	O	1.049748	0.082646	0.253755
C11	C	0.893212	-0.000035	0.129912
C12	C	0.793915	-0.000032	0.128039
N13	N	1.056718	0.235318	0.123547
N14	N	1.056761	-0.235396	0.123565
C15	C	0.366219	-0.090205	0.119963
C16	C	0.459519	-0.090201	0.121720
C17	C	0.506155	-0.000047	0.122600
C18	C	0.459488	0.090109	0.121713
C19	C	0.366190	0.090104	0.119950
C20	C	0.653950	0.090113	0.125391
C21	C	0.747254	0.090118	0.127156
C22	C	0.747279	-0.090193	0.127160
C23	C	0.653981	-0.090198	0.125397
C24	C	0.607319	-0.000041	0.124513
C25	C	1.220261	-0.000046	0.117207
C26	C	1.319557	-0.000056	0.119080
C27	C	1.063091	-0.000033	-0.039965
C28	C	1.061221	-0.000034	-0.139262
C29	C	1.117480	0.287359	0.062830
C30	C	1.117486	0.391463	0.062829
C31	C	1.056733	0.443522	0.123550
C32	C	0.995965	0.391473	0.184270
C33	C	0.995955	0.287372	0.184266
C34	C	0.995989	0.608453	0.184276
C35	C	0.995999	0.712562	0.184282
C36	C	1.117520	0.712544	0.062840
C37	C	1.117510	0.608443	0.062835
C38	C	1.056743	0.556401	0.123556
C39	C	1.141810	-0.000035	-0.196486
C40	C	1.140046	-0.000045	-0.289786
C41	C	1.057693	-0.000046	-0.325859
C42	C	0.977098	-0.000048	-0.268628
C43	C	0.978862	-0.000045	-0.175331
C44	C	0.973427	-0.000051	-0.463091
C45	C	0.971663	-0.000052	-0.556395
C46	C	1.134611	-0.000051	-0.577546
C47	C	1.136375	-0.000049	-0.484248
C48	C	1.055780	-0.000048	-0.427023
C49	C	1.050381	-0.000048	0.287084
C50	C	1.052252	-0.000054	0.386381
H51	H	0.328253	-0.163619	0.119254
Br52	Br	0.302864	0.212455	0.118739
H53	H	0.785274	-0.163602	0.127882
Br54	Br	0.859897	-0.000050	-0.605352
Br55	Br	0.522843	-0.212553	0.122911
H56	H	1.166955	0.244979	0.013388
Br57	Br	0.590687	-0.212551	0.124215
H58	H	0.946494	0.433866	0.233708
H59	H	0.913238	-0.000044	-0.128739
Br60	Br	0.522780	0.212463	0.122903
H61	H	0.785222	0.163529	0.127877
H62	H	0.946476	0.245000	0.233707
Br63	Br	0.865332	-0.000066	-0.317584
Br64	Br	1.199946	0.462094	-0.019577
H65	H	1.208871	-0.000028	-0.167123
H66	H	0.615959	0.163528	0.124681
Br67	Br	0.913546	0.783207	0.266693
Br68	Br	1.243992	-0.000054	-0.655206
Br69	Br	1.249422	-0.000047	-0.367444
Br70	Br	1.199968	0.537787	-0.019564
Br71	Br	1.199992	0.783175	-0.019562
Br72	Br	0.913513	0.537828	0.266681
H73	H	1.203434	-0.000040	-0.454880
Br74	Br	0.864046	-0.000054	-0.385429
