data_functionalizedCrystal
_audit_creation_method	'MofGen! by Chris Wilmer'
_symmetry_space_group_name_H-M	'P1'
_symmetry_Int_Tables_number	1
_symmetry_cell_setting	triclinic
loop_
_symmetry_equiv_pos_as_xyz
  x,y,z
_cell_length_a	16.959455
_cell_length_b	16.625546
_cell_length_c	16.959447
_cell_angle_alpha	89.967784
_cell_angle_beta	89.985678
_cell_angle_gamma	90.019415
loop_
_atom_site_label
_atom_site_type_symbol
_atom_site_fract_x
_atom_site_fract_y
_atom_site_fract_z
Zn1	Zn	1.208371	-0.321051	-0.446898
Zn2	Zn	1.708371	0.178949	0.053102
Zn3	Zn	1.208288	-0.455899	-0.314715
Zn4	Zn	1.708288	0.044101	0.185285
Zn5	Zn	1.076199	-0.321077	-0.314736
Zn6	Zn	1.576199	0.178923	0.185264
Zn7	Zn	1.076158	-0.455839	-0.446854
Zn8	Zn	1.576158	0.044161	0.053146
O9	O	1.142254	-0.388466	-0.380801
O10	O	1.642254	0.111534	0.119199
O11	O	1.318970	-0.338954	-0.429374
O12	O	1.818970	0.161046	0.070626
O13	O	1.190748	-0.438050	-0.204107
O14	O	1.690748	0.061950	0.295893
O15	O	1.093784	-0.208241	-0.332295
O16	O	1.593784	0.291759	0.167705
O17	O	1.318909	-0.438026	-0.332260
O18	O	1.818909	0.061974	0.167740
O19	O	1.190890	-0.208222	-0.429394
O20	O	1.690890	0.291778	0.070606
O21	O	1.093703	-0.338997	-0.204122
O22	O	1.593703	0.161003	0.295878
O23	O	0.965583	-0.338939	-0.332252
O24	O	1.465583	0.161061	0.167748
O25	O	1.093714	-0.437923	-0.557471
O26	O	1.593714	0.062077	-0.057471
O27	O	0.965553	-0.437947	-0.429318
O28	O	1.465553	0.062053	0.070682
O29	O	1.190850	-0.338895	-0.557503
O30	O	1.690850	0.161105	-0.057503
O31	O	1.190709	-0.568723	-0.332217
O32	O	1.690709	-0.068723	0.167783
O33	O	1.093634	-0.568679	-0.429298
O34	O	1.593634	-0.068679	0.070702
C35	C	0.936888	-0.388440	-0.380783
C36	C	1.436888	0.111560	0.119217
C37	C	0.849031	-0.388448	-0.380794
C38	C	1.349031	0.111552	0.119206
C39	C	0.477547	-0.336870	-0.330364
C40	C	0.977547	0.163130	0.169636
C41	C	0.477564	-0.440129	-0.431283
C42	C	0.977564	0.059871	0.068717
C43	C	0.560110	-0.440117	-0.431278
C44	C	1.060110	0.059883	0.068722
C45	C	0.601378	-0.388482	-0.380815
C46	C	1.101378	0.111518	0.119185
C47	C	0.560100	-0.336859	-0.330356
C48	C	1.060100	0.163141	0.169644
C49	C	0.601394	-0.491746	-0.481731
C50	C	1.101394	0.008254	0.018269
C51	C	0.683945	-0.491737	-0.481727
C52	C	1.183945	0.008263	0.018273
C53	C	0.725215	-0.440097	-0.431267
C54	C	1.225215	0.059903	0.068733
C55	C	0.683932	-0.388471	-0.380807
C56	C	1.183932	0.111529	0.119193
C57	C	0.725200	-0.336836	-0.330343
C58	C	1.225200	0.163164	0.169657
C59	C	0.683918	-0.285205	-0.279886
C60	C	1.183918	0.214795	0.220114
C61	C	0.601370	-0.285219	-0.279895
C62	C	1.101370	0.214781	0.220105
C63	C	0.807763	-0.440083	-0.431257
C64	C	1.307763	0.059917	0.068743
C65	C	0.807753	-0.336824	-0.330335
C66	C	1.307753	0.163176	0.169665
C67	C	1.142179	-0.597957	-0.380768
C68	C	1.642179	-0.097957	0.119232
C69	C	1.142219	-0.687578	-0.380780
C70	C	1.642219	-0.187578	0.119220
C71	C	1.142357	-1.015754	-0.380862
C72	C	1.642357	-0.515754	0.119138
C73	C	1.142316	-0.924445	-0.380842
C74	C	1.642316	-0.424445	0.119158
C75	C	1.142288	-0.851669	-0.380821
C76	C	1.642288	-0.351669	0.119179
C77	C	1.142248	-0.760355	-0.380801
C78	C	1.642248	-0.260355	0.119199
C79	C	1.348422	-0.388494	-0.380819
C80	C	1.848422	0.111506	0.119181
C81	C	1.436279	-0.388505	-0.380827
C82	C	1.936279	0.111495	0.119173
C83	C	1.142287	-0.388400	-0.586969
C84	C	1.642287	0.111600	-0.086969
C85	C	1.142301	-0.388371	-0.674826
C86	C	1.642301	0.111629	-0.174826
C87	C	1.142351	-0.178157	-0.380851
C88	C	1.642351	0.321843	0.119149
C89	C	1.142392	-0.088536	-0.380873
C90	C	1.642392	0.411464	0.119127
C91	C	1.091821	-0.439845	-1.046287
C92	C	1.591821	0.060155	-0.546287
C93	C	1.192969	-0.336727	-1.046316
C94	C	1.692969	0.163273	-0.546316
C95	C	1.192948	-0.336744	-0.963770
C96	C	1.692948	0.163256	-0.463770
C97	C	1.142364	-0.388313	-0.922479
C98	C	1.642364	0.111687	-0.422479
C99	C	1.091800	-0.439866	-0.963734
C100	C	1.591800	0.060134	-0.463734
C101	C	1.243517	-0.285199	-0.922509
C102	C	1.743517	0.214801	-0.422509
C103	C	1.243498	-0.285214	-0.839958
C104	C	1.743498	0.214786	-0.339958
C105	C	1.192909	-0.336780	-0.798666
C106	C	1.692909	0.163220	-0.298666
C107	C	1.142343	-0.388334	-0.839925
C108	C	1.642343	0.111666	-0.339925
C109	C	1.091758	-0.439903	-0.798634
C110	C	1.591758	0.060097	-0.298634
C111	C	1.041187	-0.491453	-0.839892
C112	C	1.541187	0.008547	-0.339892
C113	C	1.041211	-0.491431	-0.922441
C114	C	1.541211	0.008569	-0.422441
C115	C	1.192886	-0.336802	-0.716117
C116	C	1.692886	0.163198	-0.216117
C117	C	1.091737	-0.439923	-0.716080
C118	C	1.591737	0.060077	-0.216080
C119	C	1.142267	-0.388475	-0.175435
C120	C	1.642267	0.111525	0.324565
C121	C	1.142406	-0.388276	-0.087578
C122	C	1.642406	0.111724	0.412422
H123	H	0.567751	-0.243185	-0.238815
H124	H	1.067751	0.256815	0.261185
H125	H	1.234158	-0.294746	-1.079940
H126	H	1.734158	0.205254	-0.579940
H127	H	1.234062	-0.294833	-0.682528
H128	H	1.734062	0.205167	-0.182528
H129	H	1.284705	-0.243219	-0.956135
H130	H	1.784705	0.256781	-0.456135
H131	H	1.284676	-0.243239	-0.806373
H132	H	1.784676	0.256761	-0.306373
C133	C	0.555997	-0.548538	-0.537237
C134	C	1.055997	-0.048538	-0.037237
C135	C	0.499211	-0.611796	-0.502880
C136	C	0.999211	-0.111796	-0.002880
C137	C	0.453808	-0.668588	-0.558391
C138	C	0.953808	-0.168588	-0.058391
C139	C	0.465189	-0.662121	-0.648259
C140	C	0.965189	-0.162121	-0.148259
C141	C	0.521977	-0.598861	-0.682621
C142	C	1.021977	-0.098861	-0.182621
C143	C	0.567381	-0.542069	-0.627110
C144	C	1.067381	-0.042069	-0.127110
H145	H	0.490784	-0.616585	-0.436351
H146	H	0.990784	-0.116585	0.063649
H147	H	0.411770	-0.715417	-0.532954
H148	H	0.911770	-0.215417	-0.032954
H149	H	0.431579	-0.704162	-0.689352
H150	H	0.931579	-0.204162	-0.189352
H151	H	0.530405	-0.594071	-0.749151
H152	H	1.030405	-0.094071	-0.249151
H153	H	0.609419	-0.495239	-0.652548
H154	H	1.109419	0.004761	-0.152548
C155	C	0.985548	-0.548179	-0.794464
C156	C	1.485548	-0.048179	-0.294464
C157	C	0.895695	-0.541587	-0.805800
C158	C	1.395695	-0.041587	-0.305800
C159	C	0.840059	-0.598312	-0.760366
C160	C	1.340059	-0.098312	-0.260366
C161	C	0.874278	-0.661629	-0.703598
C162	C	1.374278	-0.161629	-0.203598
C163	C	0.964136	-0.668224	-0.692259
C164	C	1.464136	-0.168224	-0.192259
C165	C	1.019771	-0.611499	-0.737693
C166	C	1.519771	-0.111499	-0.237693
H167	H	0.870360	-0.494714	-0.847825
H168	H	1.370360	0.005286	-0.347825
H169	H	0.773540	-0.593430	-0.768760
H170	H	1.273540	-0.093430	-0.268760
H171	H	0.833093	-0.703620	-0.669965
H172	H	1.333093	-0.203620	-0.169965
H173	H	0.989471	-0.715097	-0.650233
H174	H	1.489471	-0.215097	-0.150233
H175	H	1.086291	-0.616381	-0.729299
H176	H	1.586291	-0.116381	-0.229299
C177	C	0.432175	-0.496928	-0.486790
C178	C	0.932175	0.003072	0.013210
C179	C	0.443555	-0.490459	-0.576658
C180	C	0.943555	0.009541	-0.076658
C181	C	0.398163	-0.547260	-0.632169
C182	C	0.898163	-0.047260	-0.132169
C183	C	0.341390	-0.610530	-0.597812
C184	C	0.841390	-0.110530	-0.097812
C185	C	0.330007	-0.617002	-0.507939
C186	C	0.830007	-0.117002	-0.007939
C187	C	0.375400	-0.560200	-0.452428
C188	C	0.875400	-0.060200	0.047572
H189	H	0.485583	-0.443620	-0.602095
H190	H	0.985583	0.056380	-0.102095
H191	H	0.406589	-0.542469	-0.698699
H192	H	0.906589	-0.042469	-0.198699
H193	H	0.307788	-0.652578	-0.638904
H194	H	0.807788	-0.152578	-0.138904
H195	H	0.287979	-0.663840	-0.482502
H196	H	0.787979	-0.163840	0.017498
H197	H	0.366973	-0.564991	-0.385898
H198	H	0.866973	-0.064991	0.114102
H199	H	1.000041	-0.533403	-0.956041
H200	H	1.500041	-0.033403	-0.456041
C201	C	1.036092	-0.496652	-0.670663
C202	C	1.536092	0.003348	-0.170663
C203	C	0.946240	-0.490055	-0.682014
C204	C	1.446240	0.009945	-0.182014
C205	C	0.890595	-0.546783	-0.636597
C206	C	1.390595	-0.046783	-0.136597
C207	C	0.924801	-0.610108	-0.579829
C208	C	1.424801	-0.110108	-0.079829
C209	C	1.014657	-0.616708	-0.568476
C210	C	1.514657	-0.116708	-0.068476
C211	C	1.070302	-0.559979	-0.613893
C212	C	1.570302	-0.059979	-0.113893
H213	H	0.920914	-0.443176	-0.724039
H214	H	1.420914	0.056824	-0.224039
H215	H	0.824077	-0.541897	-0.645002
H216	H	1.324077	-0.041897	-0.145002
H217	H	0.883609	-0.652102	-0.546209
H218	H	1.383609	-0.152102	-0.046209
H219	H	1.039983	-0.663587	-0.526451
H220	H	1.539983	-0.163587	-0.026451
H221	H	1.136820	-0.564865	-0.605488
H222	H	1.636820	-0.064865	-0.105488
H223	H	0.841348	-0.294771	-0.289245
H224	H	1.341348	0.205229	0.210755
C225	C	1.036200	-0.496550	-1.091671
C226	C	1.536200	0.003450	-0.591671
C227	C	1.070439	-0.559841	-1.148402
C228	C	1.570439	-0.059841	-0.648402
C229	C	1.014820	-0.616546	-1.193789
C230	C	1.514820	-0.116546	-0.693789
C231	C	0.924962	-0.609961	-1.182443
C232	C	1.424962	-0.109961	-0.682443
C233	C	0.890719	-0.546667	-1.125709
C234	C	1.390719	-0.046667	-0.625709
C235	C	0.946338	-0.489962	-1.080322
C236	C	1.446338	0.010038	-0.580322
H237	H	1.136961	-0.564718	-1.156803
H238	H	1.636961	-0.064718	-0.656803
H239	H	1.040170	-0.663400	-1.235787
H240	H	1.540170	-0.163400	-0.735787
H241	H	0.883790	-0.651937	-1.216041
H242	H	1.383790	-0.151937	-0.716041
H243	H	0.824197	-0.541790	-1.117308
H244	H	1.324197	-0.041790	-0.617308
H245	H	0.920988	-0.443108	-1.038324
H246	H	1.420988	0.056892	-0.538324
H247	H	0.717529	-0.243167	-0.238795
H248	H	1.217529	0.256833	0.261205
H249	H	0.443932	-0.294831	-0.289285
H250	H	0.943932	0.205169	0.210715
H251	H	0.717550	-0.533777	-0.522813
H252	H	1.217550	-0.033777	-0.022813
H253	H	0.841371	-0.482122	-0.472336
H254	H	1.341371	0.017878	0.027664
