data_functionalizedCrystal
_audit_creation_method	'MofGen! by Chris Wilmer'
_symmetry_space_group_name_H-M	'P1'
_symmetry_Int_Tables_number	1
_symmetry_cell_setting	triclinic
loop_
_symmetry_equiv_pos_as_xyz
  x,y,z
_cell_length_a	27.732048
_cell_length_b	9.065218
_cell_length_c	7.540329
_cell_angle_alpha	90.001757
_cell_angle_beta	89.994566
_cell_angle_gamma	96.170730
loop_
_atom_site_label
_atom_site_type_symbol
_atom_site_fract_x
_atom_site_fract_y
_atom_site_fract_z
O1	O	0.642124	-0.175520	-0.147577
O2	O	0.501513	-0.202209	-0.147557
O3	O	0.574725	0.025963	-0.147564
O4	O	0.568912	-0.403692	-0.147570
O5	O	0.574721	0.025965	0.147401
O6	O	0.501508	-0.202206	0.147408
O7	O	0.642120	-0.175518	0.147388
Cu8	Cu	0.571814	-0.188862	0.174331
Cu9	Cu	0.571819	-0.188865	-0.174499
O10	O	0.568908	-0.403689	0.147395
C11	C	0.483500	-0.201647	-0.000072
C12	C	0.429834	-0.199960	-0.000065
C13	C	0.574164	0.080915	-0.000084
C14	C	0.572494	0.244652	-0.000092
C15	C	0.660133	-0.176079	-0.000100
C16	C	0.713799	-0.177766	-0.000119
C17	C	1.051766	-0.053552	-0.000057
C18	C	1.253469	-0.059811	-0.000051
O19	O	1.283949	0.053774	0.000027
N20	N	1.273516	-0.195107	-0.000058
C21	C	1.243134	-0.328848	-0.000055
O22	O	1.264814	-0.444069	-0.000043
C23	C	1.041433	-0.322588	-0.000048
C24	C	1.021388	-0.187283	-0.000059
C25	C	1.031722	0.081742	-0.000065
C26	C	0.981299	0.083305	-0.000076
C27	C	0.950921	-0.050425	-0.000079
C28	C	0.970966	-0.185719	-0.000070
C29	C	1.011052	-0.456327	-0.000032
C30	C	0.960624	-0.454750	-0.000026
C31	C	0.940580	-0.319445	-0.000037
C32	C	0.890165	-0.317887	-0.000083
N33	N	0.870118	-0.182591	-0.000076
C34	C	0.900496	-0.048860	-0.000074
C35	C	1.349031	-0.332125	-0.000062
C36	C	1.399456	-0.333691	-0.000067
C37	C	1.409787	-0.064653	-0.000060
C38	C	1.359361	-0.063089	-0.000067
C39	C	1.328983	-0.196829	-0.000055
C40	C	0.794604	-0.045587	-0.000099
C41	C	0.744177	-0.044036	-0.000117
C42	C	0.733850	-0.313073	-0.000115
C43	C	0.784273	-0.314625	-0.000106
C44	C	0.814650	-0.180870	-0.000092
O45	O	0.859656	-0.431411	-0.000141
O46	O	0.878807	0.066345	-0.000047
C47	C	1.102189	-0.055115	-0.000045
C48	C	1.122234	-0.190409	-0.000037
C49	C	1.091856	-0.324140	-0.000039
C50	C	1.172659	-0.191975	-0.000042
C51	C	1.203037	-0.058244	-0.000039
C52	C	1.182989	0.077052	-0.000032
C53	C	1.132567	0.078615	-0.000043
C54	C	1.111903	-0.459436	-0.000046
C55	C	1.162326	-0.460988	-0.000037
C56	C	1.192704	-0.327258	-0.000035
C57	C	0.569469	-0.458642	-0.000089
C58	C	0.571139	-0.622378	-0.000092
N59	N	0.571814	-0.188859	0.419679
N60	N	0.571823	-0.188856	-0.419848
H61	H	0.727860	0.066151	-0.000130
Br62	Br	1.072940	0.263259	-0.000056
Br63	Br	1.426652	-0.517326	-0.000097
Br64	Br	1.189522	-0.644635	-0.000040
Br65	Br	1.332163	0.120544	-0.000078
Br66	Br	1.038242	-0.639967	-0.000022
H67	H	0.819331	0.063329	-0.000088
Br68	Br	1.224227	0.258542	-0.000040
Br69	Br	0.954104	0.266943	-0.000114
H70	H	1.434529	0.044235	-0.000064
H71	H	0.800594	-0.424801	-0.000099
H72	H	1.324301	-0.441039	-0.000055
H73	H	0.935892	-0.563660	-0.000008
Br74	Br	0.692614	-0.494555	-0.000132
H75	H	1.116252	0.188795	-0.000051
H76	H	1.087174	-0.568338	-0.000046
