data_functionalizedCrystal
_audit_creation_method	'MofGen! by Chris Wilmer'
_symmetry_space_group_name_H-M	'P1'
_symmetry_Int_Tables_number	1
_symmetry_cell_setting	triclinic
loop_
_symmetry_equiv_pos_as_xyz
  x,y,z
_cell_length_a	19.077105
_cell_length_b	29.839131
_cell_length_c	19.076919
_cell_angle_alpha	92.260061
_cell_angle_beta	90.076224
_cell_angle_gamma	87.731134
loop_
_atom_site_label
_atom_site_type_symbol
_atom_site_fract_x
_atom_site_fract_y
_atom_site_fract_z
Zn1	Zn	1.058209	-0.217337	-0.440348
Zn2	Zn	1.062829	-0.289569	-0.322818
Zn3	Zn	0.945429	-0.211319	-0.318143
Zn4	Zn	0.940650	-0.289298	-0.435571
O5	O	1.001779	-0.251881	-0.379220
O6	O	1.157153	-0.229551	-0.428713
O7	O	1.051188	-0.276784	-0.223868
O8	O	0.960456	-0.149253	-0.334397
O9	O	1.160547	-0.282619	-0.342365
O10	O	1.043315	-0.153674	-0.424180
O11	O	0.964935	-0.219293	-0.220433
O12	O	0.846464	-0.219031	-0.329765
O13	O	0.952312	-0.282158	-0.534535
O14	O	0.842953	-0.276322	-0.416038
O15	O	1.038682	-0.229288	-0.538045
O16	O	1.046555	-0.352398	-0.337732
O17	O	0.956791	-0.352199	-0.420571
C18	C	0.819212	-0.246994	-0.371876
C19	C	0.741109	-0.244915	-0.368751
C20	C	0.702609	-0.273808	-0.412130
C21	C	0.629222	-0.271849	-0.409197
C22	C	0.594337	-0.240998	-0.362881
C23	C	0.632842	-0.212102	-0.319500
C24	C	0.706227	-0.214059	-0.322437
C25	C	0.375052	-0.231938	-0.349291
C26	C	0.301662	-0.229984	-0.346356
C27	C	0.298047	-0.289731	-0.436054
C28	C	0.371434	-0.291687	-0.438984
C29	C	0.409933	-0.262789	-0.395606
N30	N	0.519324	-0.238995	-0.359880
N31	N	0.484944	-0.264790	-0.398611
C32	C	1.001674	-0.368599	-0.379157
C33	C	1.001693	-0.418534	-0.379156
C34	C	1.044912	-0.730450	-0.426034
C35	C	1.044986	-0.918126	-0.426079
O36	O	1.081629	-0.944319	-0.465889
N37	N	1.001895	-0.939328	-0.379303
C38	C	0.958779	-0.913608	-0.332515
O39	O	0.922124	-0.935948	-0.292735
C40	C	0.958702	-0.725933	-0.332474
C41	C	1.001801	-0.704733	-0.379248
C42	C	1.088006	-0.709250	-0.472805
C43	C	1.087990	-0.662334	-0.472791
C44	C	1.044879	-0.636617	-0.426005
C45	C	1.001784	-0.657817	-0.379234
C46	C	0.915583	-0.700213	-0.285690
C47	C	0.915566	-0.653292	-0.285685
C48	C	0.958665	-0.632092	-0.332459
C49	C	0.958657	-0.585184	-0.332434
N50	N	1.001748	-0.563982	-0.379210
C51	C	1.044859	-0.589699	-0.425996
C52	C	0.958824	-1.012140	-0.332539
C53	C	0.958845	-1.059059	-0.332549
C54	C	1.045051	-1.063574	-0.426114
C55	C	1.045034	-1.016654	-0.426101
C56	C	1.001915	-0.990938	-0.379316
C57	C	1.044822	-0.491171	-0.425962
C58	C	1.044804	-0.444251	-0.425941
C59	C	0.958596	-0.439740	-0.332379
C60	C	0.958616	-0.486656	-0.332397
C61	C	1.001731	-0.512371	-0.379194
O62	O	0.922028	-0.558963	-0.292651
O63	O	1.081497	-0.567350	-0.465781
C64	C	1.044928	-0.777366	-0.426048
C65	C	1.001833	-0.798566	-0.379277
C66	C	0.958722	-0.772849	-0.332491
C67	C	1.001853	-0.845484	-0.379286
C68	C	1.044964	-0.871201	-0.426072
C69	C	1.088055	-0.849999	-0.472848
C70	C	1.088039	-0.803083	-0.472834
C71	C	0.915631	-0.794051	-0.285715
C72	C	0.915652	-0.840967	-0.285733
C73	C	0.958763	-0.866684	-0.332518
C74	C	1.185059	-0.256787	-0.386593
C75	C	1.263162	-0.258877	-0.389735
C76	C	0.994448	-0.256364	-0.562499
C77	C	0.991325	-0.258274	-0.640601
C78	C	1.001903	-0.134708	-0.379300
C79	C	1.001956	-0.084775	-0.379334
C80	C	1.034823	-0.231647	-0.679123
C81	C	1.031879	-0.233440	-0.752508
C82	C	0.985440	-0.261863	-0.787371
C83	C	0.941937	-0.288492	-0.748844
C84	C	0.944878	-0.286696	-0.675460
C85	C	0.971820	-0.270183	-1.006649
C86	C	0.968884	-0.271978	-1.080038
C87	C	1.058825	-0.216925	-1.083697
C88	C	1.061765	-0.215134	-1.010311
C89	C	1.018259	-0.241761	-0.971791
N90	N	0.982431	-0.263698	-0.862382
N91	N	1.021265	-0.239923	-0.896781
C92	C	1.009122	-0.247384	-0.196656
C93	C	1.012382	-0.245350	-0.118560
H94	H	0.273260	-0.204856	-0.308644
C95	C	0.868136	-0.625004	-0.234218
C96	C	0.877129	-0.629684	-0.154576
C97	C	0.829702	-0.601398	-0.103109
C98	C	0.773280	-0.568431	-0.131282
C99	C	0.764284	-0.563750	-0.210928
C100	C	0.811712	-0.592036	-0.262395
H101	H	0.918898	-0.654089	-0.133717
H102	H	0.836362	-0.604863	-0.044150
H103	H	0.738172	-0.547492	-0.093183
H104	H	0.722515	-0.539345	-0.231787
H105	H	0.805052	-0.588571	-0.321354
C106	C	0.594473	-0.178162	-0.268554
C107	C	0.607743	-0.180058	-0.189065
C108	C	0.569377	-0.146117	-0.138117
C109	C	0.517743	-0.110279	-0.166659
C110	C	0.504470	-0.108382	-0.246152
C111	C	0.542836	-0.142323	-0.297100
H112	H	0.645968	-0.206588	-0.167933
H113	H	0.579202	-0.147521	-0.079271
H114	H	0.489342	-0.085154	-0.128944
H115	H	0.466245	-0.081851	-0.267284
H116	H	0.533011	-0.140918	-0.355946
H117	H	0.923757	-1.076315	-0.294453
H118	H	0.904123	-0.311633	-0.777235
C119	C	0.748581	-0.182276	-0.274721
C120	C	0.738299	-0.131087	-0.280213
C121	C	0.780653	-0.099301	-0.232499
C122	C	0.833289	-0.118704	-0.179293
C123	C	0.843574	-0.169896	-0.173798
C124	C	0.801220	-0.201682	-0.221512
H125	H	0.699332	-0.116721	-0.319602
H126	H	0.773039	-0.061405	-0.236567
H127	H	0.864642	-0.095174	-0.143972
H128	H	0.882540	-0.184262	-0.134410
H129	H	0.808834	-0.239578	-0.217444
H130	H	0.936405	-0.291872	-0.975295
C131	C	1.079729	-0.204148	-0.794878
C132	C	1.160011	-0.209707	-0.788005
C133	C	1.207862	-0.180412	-0.830373
C134	C	1.175432	-0.145557	-0.879614
C135	C	1.095147	-0.139996	-0.886488
C136	C	1.047295	-0.169291	-0.844120
H137	H	1.184021	-0.235510	-0.751553
H138	H	1.267295	-0.184529	-0.825284
H139	H	1.210855	-0.123871	-0.910977
H140	H	1.071136	-0.114193	-0.922941
H141	H	0.987862	-0.165174	-0.849210
H142	H	0.880487	-0.717466	-0.247601
C143	C	0.911169	-0.411446	-0.280922
C144	C	0.911148	-0.359837	-0.280920
C145	C	0.863715	-0.331542	-0.229469
C146	C	0.816302	-0.354855	-0.178019
C147	C	0.816321	-0.406466	-0.178020
C148	C	0.863754	-0.434762	-0.229471
H149	H	0.946247	-0.342577	-0.319007
H150	H	0.863701	-0.293336	-0.229469
H151	H	0.781189	-0.333909	-0.139932
H152	H	0.781222	-0.423727	-0.139932
H153	H	0.863768	-0.472968	-0.229471
H154	H	0.731007	-0.298932	-0.449844
H155	H	1.079903	-0.426992	-0.464031
H156	H	0.406389	-0.208411	-0.313964
C157	C	0.897033	-0.315988	-0.633081
C158	C	0.816751	-0.310432	-0.639953
C159	C	0.768903	-0.339723	-0.597573
C160	C	0.801337	-0.374570	-0.548322
C161	C	0.881624	-0.380128	-0.541449
C162	C	0.929471	-0.350837	-0.583829
H163	H	0.792737	-0.284634	-0.676413
H164	H	0.709470	-0.335608	-0.602661
H165	H	0.765917	-0.396253	-0.516950
H166	H	0.905637	-0.405925	-0.504989
H167	H	0.988905	-0.354951	-0.578740
H168	H	0.931065	-0.295125	-1.108421
C169	C	1.085907	-0.200380	-0.640776
C170	C	1.057519	-0.163062	-0.589123
C171	C	1.108603	-0.131793	-0.550779
C172	C	1.188076	-0.137843	-0.564088
C173	C	1.216468	-0.175163	-0.615744
C174	C	1.165384	-0.206431	-0.654088
H175	H	0.998684	-0.158582	-0.579269
H176	H	1.087584	-0.104167	-0.512540
H177	H	1.225891	-0.114696	-0.535704
H178	H	1.275303	-0.179643	-0.625598
H179	H	1.186403	-0.234058	-0.692327
C180	C	0.586876	-0.303634	-0.456915
C181	C	0.597157	-0.354824	-0.451419
C182	C	0.554812	-0.386610	-0.499140
C183	C	0.502186	-0.367208	-0.552357
C184	C	0.491902	-0.316016	-0.557855
C185	C	0.534247	-0.284229	-0.510134
H186	H	0.636116	-0.369189	-0.412023
H187	H	0.562425	-0.424506	-0.495070
H188	H	0.470840	-0.390739	-0.587684
H189	H	0.452943	-0.301651	-0.597252
H190	H	0.526635	-0.246334	-0.514204
C191	C	0.255698	-0.321513	-0.483774
C192	C	0.174977	-0.319362	-0.480551
C193	C	0.132628	-0.351144	-0.528276
C194	C	0.171000	-0.385078	-0.579225
C195	C	0.251726	-0.387231	-0.582450
C196	C	0.294075	-0.355448	-0.534725
H197	H	0.146567	-0.294241	-0.442835
H198	H	0.072869	-0.349550	-0.525889
H199	H	0.139651	-0.408605	-0.614554
H200	H	0.280135	-0.412352	-0.620167
H201	H	0.353833	-0.357042	-0.537113
H202	H	1.079925	-0.512103	-0.464073
H203	H	1.123160	-0.870946	-0.510941
C204	C	1.135393	-0.639021	-0.524253
C205	C	1.191799	-0.607478	-0.496080
C206	C	1.239202	-0.584169	-0.547549
C207	C	1.230200	-0.592404	-0.627191
C208	C	1.173791	-0.623948	-0.655368
C209	C	1.126388	-0.647256	-0.603899
H210	H	1.198466	-0.601381	-0.437121
H211	H	1.280960	-0.560818	-0.526690
H212	H	1.265291	-0.575149	-0.665291
H213	H	1.167125	-0.630045	-0.714327
H214	H	1.084631	-0.670607	-0.624758
C215	C	1.135438	-0.737533	-0.524273
C216	C	1.215546	-0.733023	-0.521805
C217	C	1.262986	-0.761302	-0.573271
C218	C	1.230318	-0.794090	-0.627206
C219	C	1.150206	-0.798601	-0.629675
C220	C	1.102766	-0.770322	-0.578209
H221	H	1.239732	-0.708751	-0.481878
H222	H	1.322290	-0.757963	-0.571443
H223	H	1.265436	-0.815023	-0.665304
H224	H	1.126019	-0.822873	-0.669603
H225	H	1.043461	-0.773661	-0.580038
H226	H	1.080128	-0.999397	-0.464189
C227	C	0.911395	-0.983857	-0.281065
C228	C	0.920401	-0.988541	-0.201426
C229	C	0.872975	-0.960262	-0.149948
C230	C	0.816542	-0.927298	-0.178110
C231	C	0.807534	-0.922613	-0.257753
C232	C	0.854960	-0.950893	-0.309231
H233	H	0.962178	-1.012944	-0.180575
H234	H	0.879644	-0.963730	-0.090991
H235	H	0.781434	-0.906364	-0.140003
H236	H	0.765757	-0.898210	-0.278603
H237	H	0.848291	-0.947424	-0.368188
H238	H	0.923527	-0.503918	-0.294304
C239	C	0.868209	-0.765768	-0.234242
C240	C	0.877215	-0.770455	-0.154604
C241	C	0.829793	-0.742175	-0.103123
C242	C	0.773364	-0.709208	-0.131281
C243	C	0.764355	-0.704519	-0.210923
C244	C	0.811778	-0.732799	-0.262404
H245	H	0.918989	-0.794861	-0.133756
H246	H	0.836462	-0.745646	-0.044166
H247	H	0.738260	-0.688273	-0.093172
H248	H	0.722581	-0.680113	-0.231771
H249	H	0.805108	-0.729328	-0.321361
C250	C	1.106673	-0.187633	-1.126070
C251	C	1.103441	-0.189604	-1.206789
C252	C	1.151289	-0.160308	-1.249161
C253	C	1.202369	-0.129042	-1.210814
C254	C	1.205603	-0.127070	-1.130090
C255	C	1.157755	-0.156365	-1.087718
H256	H	1.065627	-0.212750	-1.235180
H257	H	1.148895	-0.161768	-1.308919
H258	H	1.237788	-0.107356	-1.242180
H259	H	1.243417	-0.103924	-1.101699
H260	H	1.160149	-0.154905	-1.027960
H261	H	0.399833	-0.316810	-0.476698
H262	H	1.080154	-1.084520	-0.464208
H263	H	1.123134	-0.785826	-0.510922
H264	H	0.880557	-0.858224	-0.247637
H265	H	1.099582	-0.191990	-0.981931
