data_functionalizedCrystal
_audit_creation_method	'MofGen! by Chris Wilmer'
_symmetry_space_group_name_H-M	'P1'
_symmetry_Int_Tables_number	1
_symmetry_cell_setting	triclinic
loop_
_symmetry_equiv_pos_as_xyz
  x,y,z
_cell_length_a	12.759401
_cell_length_b	29.839131
_cell_length_c	12.759393
_cell_angle_alpha	90.045545
_cell_angle_beta	90.018496
_cell_angle_gamma	90.035390
loop_
_atom_site_label
_atom_site_type_symbol
_atom_site_fract_x
_atom_site_fract_y
_atom_site_fract_z
Zn1	Zn	1.606106	-0.178825	0.593879
Zn2	Zn	1.605937	-0.253963	0.418157
Zn3	Zn	1.430407	-0.178848	0.418219
Zn4	Zn	1.430333	-0.253929	0.593798
O5	O	1.518196	-0.216391	0.506013
O6	O	1.753104	-0.188797	0.570577
O7	O	1.582613	-0.244024	0.271144
O8	O	1.453816	-0.115978	0.441580
O9	O	1.752980	-0.244001	0.441475
O10	O	1.582900	-0.115961	0.570638
O11	O	1.453652	-0.188837	0.271189
O12	O	1.283377	-0.188803	0.441502
O13	O	1.453689	-0.243942	0.740830
O14	O	1.283322	-0.243965	0.570499
O15	O	1.582828	-0.188763	0.740890
O16	O	1.582541	-0.316826	0.441396
O17	O	1.453526	-0.316801	0.570439
C18	C	1.245228	-0.216383	0.505999
C19	C	1.128452	-0.216390	0.506018
C20	C	1.518036	-0.333114	0.505925
C21	C	1.518063	-0.383048	0.505922
C22	C	1.073589	-0.245159	0.573075
C23	C	0.963865	-0.245165	0.573087
C24	C	0.963876	-0.187632	0.438974
C25	C	1.073598	-0.187624	0.438968
C26	C	1.128442	-0.273925	0.640125
C27	C	1.073579	-0.302696	0.707187
C28	C	0.963855	-0.302702	0.707199
C29	C	0.908994	-0.273936	0.640148
C30	C	1.585395	-0.692648	0.573309
C31	C	1.585509	-0.880321	0.573372
O32	O	1.642601	-0.904548	0.630601
N33	N	1.518374	-0.903833	0.506130
C34	C	1.451201	-0.880425	0.438872
O35	O	1.394093	-0.904730	0.381687
C36	C	1.451082	-0.692753	0.438815
C37	C	1.518229	-0.669243	0.506054
C38	C	1.652536	-0.669138	0.640543
C39	C	1.652511	-0.622222	0.640523
C40	C	1.585345	-0.598817	0.573268
C41	C	1.518204	-0.622327	0.506033
C42	C	1.383904	-0.669345	0.371563
C43	C	1.383879	-0.622424	0.371556
C44	C	1.451026	-0.598914	0.438795
C45	C	1.451013	-0.552006	0.438758
N46	N	1.518148	-0.528494	0.506000
C47	C	1.585314	-0.551899	0.573255
C48	C	1.451269	-0.978955	0.438905
C49	C	1.451300	-1.025873	0.438918
C50	C	1.585608	-1.025766	0.573420
C51	C	1.585581	-0.978847	0.573401
C52	C	1.518404	-0.955443	0.506147
C53	C	1.585257	-0.453373	0.573206
C54	C	1.585229	-0.406454	0.573177
C55	C	1.450918	-0.406565	0.438679
C56	C	1.450950	-0.453480	0.438704
C57	C	1.518123	-0.476884	0.505976
O58	O	1.393943	-0.527750	0.381567
O59	O	1.642397	-0.527586	0.630448
C60	C	1.585421	-0.739563	0.573329
C61	C	1.518280	-0.763073	0.506095
C62	C	1.451114	-0.739668	0.438840
C63	C	1.518310	-0.809991	0.506108
C64	C	1.585477	-0.833397	0.573363
C65	C	1.652612	-0.809884	0.640605
C66	C	1.652587	-0.762969	0.640584
C67	C	1.383978	-0.763181	0.371597
C68	C	1.384010	-0.810096	0.371623
C69	C	1.451176	-0.833501	0.438878
C70	C	1.792229	-0.216400	0.506028
C71	C	1.909006	-0.216404	0.506034
C72	C	1.518269	-0.216346	0.780047
C73	C	1.518301	-0.216327	0.896823
C74	C	1.518385	-0.099213	0.506125
C75	C	1.518466	-0.049279	0.506173
C76	C	1.518183	-0.216404	0.233046
C77	C	1.518355	-0.216297	0.116270
C78	C	1.585553	-0.187593	0.951718
C79	C	1.585578	-0.187576	1.061442
C80	C	1.451096	-0.245032	1.061367
C81	C	1.451066	-0.245046	0.951645
C82	C	1.652787	-0.158873	0.896897
C83	C	1.720046	-0.130137	0.951791
C84	C	1.720071	-0.130121	1.061516
C85	C	1.652837	-0.158841	1.116345
H86	H	1.217785	-0.273924	0.640121
C87	C	1.133921	-0.334335	0.780943
C88	C	1.118770	-0.385403	0.772136
C89	C	1.179110	-0.417043	0.845894
C90	C	1.254601	-0.397614	0.928460
C91	C	1.269755	-0.346544	0.937270
C92	C	1.209415	-0.314904	0.863512
H93	H	1.062884	-0.399788	0.711013
H94	H	1.167891	-0.454849	0.839371
H95	H	1.299268	-0.421036	0.983060
H96	H	1.325641	-0.332159	0.998393
H97	H	1.220634	-0.277098	0.870035
H98	H	0.819649	-0.273939	0.640171
H99	H	1.396564	-0.959903	0.384136
C100	C	0.903532	-0.155995	0.365214
C101	C	0.782842	-0.156005	0.365214
C102	C	0.722500	-0.124369	0.291449
C103	C	0.782847	-0.092723	0.217684
C104	C	0.903544	-0.092713	0.217681
C105	C	0.963887	-0.124348	0.291446
H106	H	0.738163	-0.179432	0.419821
H107	H	0.633152	-0.124377	0.291452
H108	H	0.738178	-0.069305	0.163079
H109	H	0.948223	-0.069285	0.163074
H110	H	1.053235	-0.124340	0.291444
H111	H	0.919188	-0.326125	0.761811
C112	C	1.377154	-0.276626	1.121680
C113	C	1.422651	-0.311888	1.197068
C114	C	1.348713	-0.343484	1.257381
C115	C	1.229277	-0.339817	1.242304
C116	C	1.183773	-0.304554	1.166912
C117	C	1.257712	-0.272958	1.106600
H118	H	1.511071	-0.314604	1.208231
H119	H	1.382398	-0.369588	1.313191
H120	H	1.174543	-0.363206	1.286951
H121	H	1.095354	-0.301838	1.155749
H122	H	1.224026	-0.246854	1.050790
C123	C	1.377445	-1.051731	0.364945
C124	C	1.423024	-1.083999	0.282500
C125	C	1.349161	-1.109854	0.208529
C126	C	1.229718	-1.103441	0.217003
C127	C	1.184132	-1.071171	0.299451
C128	C	1.257995	-1.045316	0.373422
H129	H	1.511449	-1.088748	0.276224
H130	H	1.382907	-1.133743	0.147495
H131	H	1.175040	-1.122581	0.162245
H132	H	1.095707	-1.066423	0.305727
H133	H	1.224249	-1.021428	0.434456
H134	H	1.396288	-0.268437	0.906949
H135	H	1.118269	-0.164195	0.384372
H136	H	1.640298	-1.044831	0.628180
H137	H	1.639912	-0.387313	0.627931
C138	C	1.793997	-0.098546	0.891485
C139	C	1.793977	-0.098562	0.770795
C140	C	1.867929	-0.066970	0.710491
C141	C	1.941902	-0.035360	0.770878
C142	C	1.941925	-0.035343	0.891574
C143	C	1.867972	-0.066935	0.951878
H144	H	1.739215	-0.121962	0.726087
H145	H	1.867912	-0.066983	0.621143
H146	H	1.996646	-0.011974	0.726237
H147	H	1.996686	-0.011943	0.936282
H148	H	1.867989	-0.066922	1.041226
C149	C	1.310025	-0.695196	0.297607
C150	C	1.318632	-0.688784	0.178176
C151	C	1.244741	-0.714632	0.104220
C152	C	1.162243	-0.746893	0.149696
C153	C	1.153633	-0.753307	0.269133
C154	C	1.227523	-0.727458	0.343089
H155	H	1.379705	-0.664901	0.144507
H156	H	1.251116	-0.709885	0.015805
H157	H	1.107545	-0.766028	0.094949
H158	H	1.092560	-0.777190	0.302802
H159	H	1.221149	-0.732206	0.431504
H160	H	1.774828	-0.106719	1.106208
H161	H	1.652851	-0.158820	1.205690
C162	C	1.659152	-0.479112	0.647199
C163	C	1.778587	-0.472616	0.638714
C164	C	1.852487	-0.498355	0.712700
C165	C	1.806952	-0.530590	0.795171
C166	C	1.687511	-0.537089	0.803659
C167	C	1.613611	-0.511350	0.729673
H168	H	1.812300	-0.448751	0.577661
H169	H	1.940905	-0.493544	0.706416
H170	H	1.861657	-0.549644	0.849939
H171	H	1.653798	-0.560953	0.864712
H172	H	1.525193	-0.516160	0.735957
H173	H	1.707185	-0.603083	0.695278
C174	C	1.726433	-0.694878	0.714528
C175	C	1.845865	-0.688374	0.706040
C176	C	1.919774	-0.714110	0.780023
C177	C	1.874252	-0.746349	0.862494
C178	C	1.754813	-0.752854	0.870985
C179	C	1.680903	-0.727118	0.797002
H180	H	1.879569	-0.664508	0.644987
H181	H	2.008191	-0.709294	0.773737
H182	H	1.928964	-0.765400	0.917260
H183	H	1.721109	-0.776720	0.932038
H184	H	1.592487	-0.731933	0.803288
H185	H	1.640258	-0.959708	0.628153
H186	H	1.396281	-0.472623	0.383944
C187	C	1.309984	-0.596679	0.297572
C188	C	1.318623	-0.603178	0.178146
C189	C	1.244731	-0.577434	0.104160
C190	C	1.162202	-0.545191	0.149601
C191	C	1.153560	-0.538692	0.269033
C192	C	1.227451	-0.564435	0.343018
H193	H	1.379719	-0.627047	0.144502
H194	H	1.251129	-0.582246	0.015748
H195	H	1.107503	-0.526134	0.094832
H196	H	1.092464	-0.514823	0.302676
H197	H	1.221053	-0.559624	0.431430
H198	H	1.329282	-0.744128	0.316831
C199	C	1.726494	-0.835636	0.714589
C200	C	1.845934	-0.829152	0.706125
C201	C	1.919806	-0.854907	0.780109
C202	C	1.874238	-0.887145	0.862557
C203	C	1.754792	-0.893630	0.871024
C204	C	1.680920	-0.867875	0.797040
H205	H	1.879671	-0.805287	0.645089
H206	H	2.008228	-0.850106	0.773841
H207	H	1.928923	-0.906210	0.917324
H208	H	1.721054	-0.917496	0.932060
H209	H	1.592498	-0.872676	0.803308
C210	C	1.310138	-0.835953	0.297654
C211	C	1.318757	-0.829547	0.178222
C212	C	1.244879	-0.855402	0.104265
C213	C	1.162382	-0.887663	0.149740
C214	C	1.153760	-0.894071	0.269178
C215	C	1.227638	-0.868216	0.343135
H216	H	1.379829	-0.805663	0.144554
H217	H	1.251262	-0.850658	0.015849
H218	H	1.107694	-0.906803	0.094993
H219	H	1.092689	-0.917955	0.302847
H220	H	1.221255	-0.872960	0.431552
H221	H	1.396235	-0.387501	0.383918
H222	H	1.707264	-0.743830	0.695337
H223	H	1.652777	-0.158884	0.807554
