data_functionalizedCrystal
_audit_creation_method	'MofGen! by Chris Wilmer'
_symmetry_space_group_name_H-M	'P1'
_symmetry_Int_Tables_number	1
_symmetry_cell_setting	triclinic
loop_
_symmetry_equiv_pos_as_xyz
  x,y,z
_cell_length_a	19.805407
_cell_length_b	13.032721
_cell_length_c	19.805399
_cell_angle_alpha	97.155902
_cell_angle_beta	89.979591
_cell_angle_gamma	97.206695
loop_
_atom_site_label
_atom_site_type_symbol
_atom_site_fract_x
_atom_site_fract_y
_atom_site_fract_z
Zn1	Zn	1.000539	-0.416016	-0.416954
Zn2	Zn	1.500539	0.083984	0.083046
Zn3	Zn	0.986088	-0.590776	-0.318140
Zn4	Zn	1.486088	-0.090776	0.181860
Zn5	Zn	0.887351	-0.416050	-0.303780
Zn6	Zn	1.387351	0.083950	0.196220
Zn7	Zn	0.872956	-0.590726	-0.431281
Zn8	Zn	1.372956	-0.090726	0.068719
O9	O	0.936733	-0.503392	-0.367539
O10	O	1.436733	-0.003392	0.132461
O11	O	1.093338	-0.439204	-0.403860
O12	O	1.593338	0.060796	0.096140
O13	O	0.972967	-0.567634	-0.221522
O14	O	1.472967	-0.067634	0.278478
O15	O	0.914437	-0.269805	-0.306786
O16	O	1.414437	0.230195	0.193214
O17	O	1.082721	-0.567600	-0.331262
O18	O	1.582721	-0.067600	0.168738
O19	O	0.997596	-0.269780	-0.389935
O20	O	1.497596	0.230220	0.110065
O21	O	0.900425	-0.439263	-0.210971
O22	O	1.400425	0.060737	0.289029
O23	O	0.790725	-0.439215	-0.320679
O24	O	1.290725	0.060785	0.179321
O25	O	0.889903	-0.567515	-0.524094
O26	O	1.389903	-0.067515	-0.024094
O27	O	0.780149	-0.567549	-0.414354
O28	O	1.280149	-0.067549	0.085646
O29	O	0.983638	-0.439156	-0.513568
O30	O	1.483638	0.060844	-0.013568
O31	O	0.959009	-0.737010	-0.345155
O32	O	1.459009	-0.237010	0.154845
O33	O	0.875891	-0.736973	-0.428279
O34	O	1.375891	-0.236973	0.071721
C35	C	0.760878	-0.503381	-0.367513
C36	C	1.260878	-0.003381	0.132487
C37	C	0.685645	-0.503402	-0.367521
C38	C	1.185645	-0.003402	0.132479
C39	C	0.229376	-0.436661	-0.405443
C40	C	0.729376	0.063339	0.094557
C41	C	0.300064	-0.436663	-0.405438
C42	C	0.800064	0.063337	0.094562
C43	C	0.329882	-0.503408	-0.367562
C44	C	0.829882	-0.003408	0.132438
C45	C	0.289008	-0.570162	-0.329693
C46	C	0.789008	-0.070162	0.170307
C47	C	0.218321	-0.570165	-0.329702
C48	C	0.718321	-0.070165	0.170298
C49	C	0.574082	-0.570154	-0.329657
C50	C	1.074082	-0.070154	0.170343
C51	C	0.644775	-0.570144	-0.329649
C52	C	1.144775	-0.070144	0.170351
C53	C	0.655825	-0.436653	-0.405393
C54	C	1.155825	0.063347	0.094607
C55	C	0.585138	-0.436655	-0.405402
C56	C	1.085138	0.063345	0.094598
C57	C	0.544269	-0.503413	-0.367536
C58	C	1.044269	-0.003413	0.132464
C59	C	0.467621	-0.503412	-0.367543
C60	C	0.967621	-0.003412	0.132457
C61	C	0.406530	-0.503405	-0.367551
C62	C	0.906530	-0.003405	0.132449
C63	C	0.914338	-0.774910	-0.389845
C64	C	1.414338	-0.274910	0.110155
C65	C	0.904820	-0.891067	-0.399410
C66	C	1.404820	-0.391067	0.100590
C67	C	0.941737	-0.942836	-0.362577
C68	C	1.441737	-0.442836	0.137423
C69	C	0.931900	-1.062890	-0.372462
C70	C	1.431900	-0.562890	0.127538
C71	C	1.113275	-0.503404	-0.367565
C72	C	1.613275	-0.003404	0.132435
C73	C	1.188507	-0.503409	-0.367576
C74	C	1.688507	-0.003409	0.132424
C75	C	0.936777	-0.503326	-0.544076
C76	C	1.436777	-0.003326	-0.044076
C77	C	0.936795	-0.503298	-0.619306
C78	C	1.436795	-0.003298	-0.119306
C79	C	0.959234	-0.230814	-0.345160
C80	C	1.459234	0.269186	0.154840
C81	C	0.968823	-0.114657	-0.335624
C82	C	1.468823	0.385343	0.164376
C83	C	0.985604	-0.436458	-0.649170
C84	C	1.485604	0.063542	-0.149170
C85	C	0.985614	-0.436428	-0.719856
C86	C	1.485614	0.063572	-0.219856
C87	C	0.936817	-0.503244	-0.760677
C88	C	1.436817	-0.003244	-0.260677
C89	C	0.888003	-0.570087	-0.730808
C90	C	1.388003	-0.070087	-0.230808
C91	C	0.887991	-0.570111	-0.660123
C92	C	1.387991	-0.070111	-0.160123
C93	C	0.888049	-0.569989	-1.015874
C94	C	1.388049	-0.069989	-0.515874
C95	C	0.888066	-0.569962	-1.086564
C96	C	1.388066	-0.069962	-0.586564
C97	C	0.985672	-0.436306	-1.075606
C98	C	1.485672	0.063694	-0.575606
C99	C	0.985660	-0.436330	-1.004921
C100	C	1.485660	0.063670	-0.504921
C101	C	0.936844	-0.503169	-0.975058
C102	C	1.436844	-0.003169	-0.475058
C103	C	0.936834	-0.503200	-0.898412
C104	C	1.436834	-0.003200	-0.398412
C105	C	0.936829	-0.503219	-0.837322
C106	C	1.436829	-0.003219	-0.337322
C107	C	0.936735	-0.503382	-0.191682
C108	C	1.436735	-0.003382	0.308318
C109	C	0.936872	-0.503116	-0.116428
C110	C	1.436872	-0.003116	0.383572
H111	H	0.185045	-0.624520	-0.298868
H112	H	0.685045	-0.124520	0.201132
Br113	Br	0.188916	-0.346066	-0.456844
Br114	Br	0.688916	0.153934	0.043156
H115	H	0.669050	-0.624501	-0.298804
H116	H	1.169050	-0.124501	0.201196
Br117	Br	1.006565	-0.868582	-0.297824
Br118	Br	1.506565	-0.368582	0.202176
Br119	Br	1.051923	-0.345593	-1.116138
Br120	Br	1.551923	0.154407	-0.616138
Br121	Br	1.033653	-1.040410	-0.270866
Br122	Br	1.533653	-0.540410	0.229134
H123	H	0.848240	-0.624528	-0.635809
H124	H	1.348240	-0.124528	-0.135809
Br125	Br	0.840004	-0.965321	-0.464175
Br126	Br	1.340004	-0.465321	0.035825
Br127	Br	0.867082	-1.137140	-0.437230
Br128	Br	1.367082	-0.637140	0.062770
H129	H	0.540815	-0.624510	-0.298822
H130	H	1.040815	-0.124510	0.201178
H131	H	1.025360	-0.382002	-0.744167
H132	H	1.525360	0.117998	-0.244167
Br133	Br	0.329474	-0.660753	-0.278294
Br134	Br	0.829474	-0.160753	0.221706
H135	H	1.025342	-0.382052	-0.615938
H136	H	1.525342	0.117948	-0.115938
Br137	Br	1.051890	-0.345655	-0.949524
Br138	Br	1.551890	0.154345	-0.449524
Br139	Br	0.821837	-0.660648	-1.141965
Br140	Br	1.321837	-0.160648	-0.641965
H141	H	0.848309	-0.624428	-0.991570
H142	H	1.348309	-0.124428	-0.491570
H143	H	0.333337	-0.382314	-0.436277
H144	H	0.833337	0.117686	0.063723
Br145	Br	0.544674	-0.346066	-0.456804
Br146	Br	1.044674	0.153934	0.043196
H147	H	0.848269	-0.624485	-0.764050
H148	H	1.348269	-0.124485	-0.264050
Br149	Br	0.711294	-0.346053	-0.456785
Br150	Br	1.211294	0.153947	0.043215
