data_functionalizedCrystal
_audit_creation_method	'MofGen! by Chris Wilmer'
_symmetry_space_group_name_H-M	'P1'
_symmetry_Int_Tables_number	1
_symmetry_cell_setting	triclinic
loop_
_symmetry_equiv_pos_as_xyz
  x,y,z
_cell_length_a	23.532361
_cell_length_b	23.532407
_cell_length_c	22.010155
_cell_angle_alpha	90.000423
_cell_angle_beta	89.995873
_cell_angle_gamma	97.160827
loop_
_atom_site_label
_atom_site_type_symbol
_atom_site_fract_x
_atom_site_fract_y
_atom_site_fract_z
O1	O	0.755281	-0.069001	-0.050470
O2	O	1.255281	0.430999	0.449530
O3	O	0.589414	-0.079032	-0.050486
O4	O	1.089414	0.420968	0.449514
O5	O	0.677349	0.008916	-0.050466
O6	O	1.177349	0.508916	0.449534
O7	O	0.667346	-0.156949	-0.050490
O8	O	1.167346	0.343051	0.449510
O9	O	0.677333	0.008903	0.050584
O10	O	1.177333	0.508903	0.550584
O11	O	0.589398	-0.079045	0.050565
O12	O	1.089398	0.420955	0.550565
O13	O	0.755265	-0.069014	0.050580
O14	O	1.255265	0.430986	0.550580
Cu15	Cu	0.672330	-0.074030	0.059799
Cu16	Cu	1.172330	0.425970	0.559799
Cu17	Cu	0.672349	-0.074015	-0.059705
Cu18	Cu	1.172349	0.425985	0.440295
O19	O	0.667330	-0.156962	0.050561
O20	O	1.167330	0.343038	0.550561
C21	C	0.568189	-0.078787	0.000038
C22	C	1.068189	0.421213	0.500038
C23	C	0.504971	-0.078032	0.000032
C24	C	1.004971	0.421968	0.500032
C25	C	0.231736	-0.074721	-0.055046
C26	C	0.731736	0.425279	0.444954
C27	C	0.291136	-0.075436	-0.055048
C28	C	0.791136	0.424564	0.444952
O29	O	0.321869	-0.075780	-0.101892
O30	O	0.821869	0.424220	0.398108
N31	N	0.320832	-0.075804	0.000035
N32	N	0.820832	0.424196	0.500035
C33	C	0.291127	-0.075452	0.055123
C34	C	0.791127	0.424548	0.555123
O35	O	0.321841	-0.075830	0.101975
O36	O	0.821841	0.424170	0.601975
C37	C	0.231729	-0.074733	0.055124
C38	C	0.731729	0.425267	0.555124
C39	C	0.202035	-0.074370	0.000037
C40	C	0.702035	0.425630	0.500037
C41	C	0.202041	-0.074358	-0.110128
C42	C	0.702041	0.425642	0.389872
C43	C	0.142645	-0.073644	-0.110126
C44	C	0.642645	0.426356	0.389874
C45	C	0.112944	-0.073293	-0.055043
C46	C	0.612944	0.426707	0.444957
C47	C	0.142639	-0.073657	0.000039
C48	C	0.642639	0.426343	0.500039
C49	C	0.202026	-0.074376	0.110211
C50	C	0.702026	0.425624	0.610211
C51	C	0.142624	-0.073657	0.110207
C52	C	0.642624	0.426343	0.610207
C53	C	0.112929	-0.073294	0.055121
C54	C	0.612929	0.426706	0.555121
C55	C	0.053542	-0.072592	0.055125
C56	C	0.553542	0.427408	0.555125
N57	N	0.023845	-0.072224	0.000042
N58	N	0.523845	0.427776	0.500042
C59	C	0.053546	-0.072574	-0.055042
C60	C	0.553546	0.427426	0.444958
C61	C	0.415868	-0.076961	0.055117
C62	C	0.915868	0.423039	0.555117
C63	C	0.475264	-0.077684	0.055116
C64	C	0.975264	0.422316	0.555116
C65	C	0.475268	-0.077667	-0.055055
C66	C	0.975268	0.422333	0.444945
C67	C	0.415870	-0.076948	-0.055054
C68	C	0.915870	0.423052	0.444946
C69	C	0.386171	-0.076593	0.000034
C70	C	0.886171	0.423407	0.500034
C71	C	-0.071190	-0.071076	-0.055034
C72	C	0.428810	0.428924	0.444966
C73	C	-0.130591	-0.070364	-0.055027
C74	C	0.369409	0.429636	0.444973
C75	C	-0.130589	-0.070378	0.055144
C76	C	0.369411	0.429622	0.555144
C77	C	-0.071194	-0.071093	0.055137
C78	C	0.428806	0.428907	0.555137
C79	C	-0.041495	-0.071440	0.000044
C80	C	0.458505	0.428560	0.500044
O81	O	0.022771	-0.072245	0.101945
O82	O	0.522771	0.427755	0.601945
O83	O	0.022826	-0.072188	-0.101886
O84	O	0.522826	0.427812	0.398114
C85	C	0.677086	0.030126	0.000060
C86	C	1.177086	0.530126	0.500060
C87	C	0.676320	0.093343	0.000065
C88	C	1.176320	0.593343	0.500065
C89	C	0.776489	-0.069258	0.000055
C90	C	1.276489	0.430742	0.500055
C91	C	0.839708	-0.070014	0.000057
C92	C	1.339708	0.429986	0.500057
C93	C	0.667592	-0.178171	0.000033
C94	C	1.167592	0.321829	0.500033
C95	C	0.668358	-0.241388	0.000024
C96	C	1.168358	0.258612	0.500024
N97	N	0.672321	-0.074041	0.143851
N98	N	1.172321	0.425959	0.643851
C99	C	0.723555	0.492454	0.000036
C100	C	1.223555	0.992454	0.500036
C101	C	0.722844	0.551854	0.000031
C102	C	1.222844	1.051854	0.500031
O103	O	0.766630	0.588606	0.000013
O104	O	1.266630	1.088606	0.500013
N105	N	0.670566	0.574471	0.000027
N106	N	1.170566	1.074471	0.500027
C107	C	0.618997	0.537685	0.000021
C108	C	1.118997	1.037685	0.500021
O109	O	0.574465	0.562377	0.000016
O110	O	1.074465	1.062377	0.500016
C111	C	0.619709	0.478286	0.000021
C112	C	1.119709	0.978286	0.500021
C113	C	0.671990	0.455672	0.000032
C114	C	1.171990	0.955672	0.500032
C115	C	0.775832	0.469839	0.000046
C116	C	1.275832	0.969839	0.500046
C117	C	0.776543	0.410443	0.000052
C118	C	1.276543	0.910443	0.500052
C119	C	0.724977	0.373662	0.000048
C120	C	1.224977	0.873662	0.500048
C121	C	0.672701	0.396276	0.000038
C122	C	1.172701	0.896276	0.500038
C123	C	0.568140	0.441501	0.000011
C124	C	1.068140	0.941501	0.500011
C125	C	0.568857	0.382099	0.000011
C126	C	1.068857	0.882099	0.500011
C127	C	0.621137	0.359485	0.000021
C128	C	1.121137	0.859485	0.500021
C129	C	0.621847	0.300099	0.000039
C130	C	1.121847	0.800099	0.500039
N131	N	0.674124	0.277481	0.000044
N132	N	1.174124	0.777481	0.500044
C133	C	0.725690	0.314263	0.000048
C134	C	1.225690	0.814263	0.500048
C135	C	0.617505	0.662427	0.000019
C136	C	1.117505	1.162427	0.500019
C137	C	0.616793	0.721825	0.000023
C138	C	1.116793	1.221825	0.500023
C139	C	0.720640	0.735990	0.000032
C140	C	1.220640	1.235990	0.500032
C141	C	0.721352	0.676591	0.000033
C142	C	1.221352	1.176591	0.500033
C143	C	0.669783	0.639810	0.000024
C144	C	1.169783	1.139810	0.500024
C145	C	0.727179	0.189526	0.000061
C146	C	1.227179	0.689526	0.500061
C147	C	0.727886	0.130124	0.000069
C148	C	1.227886	0.630124	0.500069
C149	C	0.624039	0.115965	0.000057
C150	C	1.124039	0.615965	0.500057
C151	C	0.623332	0.175361	0.000051
C152	C	1.123332	0.675361	0.500051
C153	C	0.674907	0.212141	0.000051
C154	C	1.174907	0.712141	0.500051
O155	O	0.578083	0.263312	0.000055
O156	O	1.078083	0.763312	0.500055
O157	O	0.770214	0.289562	0.000045
O158	O	1.270214	0.789562	0.500045
N159	N	0.672362	-0.074000	-0.143757
N160	N	1.172362	0.426000	0.356243
C161	C	0.711289	-0.035077	0.563639
C162	C	1.211289	0.464923	1.063639
C163	C	0.711291	-0.035073	0.627247
C164	C	1.211291	0.464927	1.127247
O165	O	0.744400	-0.001952	0.660146
O166	O	1.244400	0.498048	1.160146
N167	N	0.672349	-0.074003	0.659059
N168	N	1.172349	0.425997	1.159059
C169	C	0.633397	-0.112935	0.627259
C170	C	1.133397	0.387065	1.127259
O171	O	0.600272	-0.146048	0.660158
O172	O	1.100272	0.353952	1.160158
C173	C	0.633392	-0.112936	0.563653
C174	C	1.133392	0.387064	1.063653
C175	C	0.672341	-0.074008	0.531845
C176	C	1.172341	0.425992	1.031845
C177	C	0.750235	0.003849	0.531831
C178	C	1.250235	0.503849	1.031831
C179	C	0.750232	0.003844	0.468228
C180	C	1.250232	0.503844	0.968228
C181	C	0.711285	-0.035087	0.436433
C182	C	1.211285	0.464913	0.936433
C183	C	0.672339	-0.074012	0.468241
C184	C	1.172339	0.425988	0.968241
C185	C	0.594437	-0.151866	0.531855
C186	C	1.094437	0.348134	1.031855
C187	C	0.594436	-0.151863	0.468244
C188	C	1.094436	0.348137	0.968244
C189	C	0.633385	-0.112934	0.436436
C190	C	1.133385	0.387066	0.936436
C191	C	0.633389	-0.112948	0.372843
C192	C	1.133389	0.387052	0.872843
N193	N	0.672332	-0.074018	0.341032
N194	N	1.172332	0.425982	0.841032
C195	C	0.711280	-0.035087	0.372827
C196	C	1.211280	0.464913	0.872827
C197	C	0.633409	-0.112930	0.760837
C198	C	1.133409	0.387070	1.260837
C199	C	0.633416	-0.112933	0.824442
C200	C	1.133416	0.387067	1.324442
C201	C	0.711311	-0.035069	0.824426
C202	C	1.211311	0.464931	1.324426
C203	C	0.711306	-0.035070	0.760819
C204	C	1.211306	0.464930	1.260819
C205	C	0.672352	-0.074000	0.729025
C206	C	1.172352	0.426000	1.229025
C207	C	0.711273	-0.035101	0.239255
C208	C	1.211273	0.464899	0.739255
C209	C	0.711269	-0.035110	0.175646
C210	C	1.211269	0.464890	0.675646
C211	C	0.633373	-0.112971	0.175669
C212	C	1.133373	0.387029	0.675669
C213	C	0.633378	-0.112964	0.239272
C214	C	1.133378	0.387036	0.739272
C215	C	0.672331	-0.074024	0.271064
C216	C	1.172331	0.425976	0.771064
O217	O	0.600295	-0.146051	0.339904
O218	O	1.100295	0.353949	0.839904
O219	O	0.744393	-0.001976	0.339920
O220	O	1.244393	0.498024	0.839920
H221	H	0.499462	-0.077952	-0.099907
H222	H	0.999462	0.422048	0.400093
H223	H	0.574220	0.740232	0.000025
H224	H	1.074220	1.240232	0.500025
N225	N	0.554646	-0.191619	0.564345
N226	N	1.054646	0.308381	1.064345
N227	N	0.554642	-0.191617	0.621136
N228	N	1.054642	0.308383	1.121136
H229	H	0.526536	-0.219693	0.644082
H230	H	1.026536	0.280307	1.144082
N231	N	0.564820	0.624866	0.000012
N232	N	1.064820	1.124866	0.500012
N233	N	0.518151	0.645074	0.000007
N234	N	1.018151	1.145074	0.500007
H235	H	0.480941	0.618550	0.000000
H236	H	0.980941	1.118550	0.500000
H237	H	0.525567	0.459902	-0.000001
H238	H	1.025567	0.959902	0.499999
H239	H	0.526862	0.352154	0.000003
H240	H	1.026862	0.852154	0.500003
N241	N	-0.040855	-0.071494	0.111400
N242	N	0.459145	0.428506	0.611400
N243	N	-0.052969	-0.111581	0.148264
N244	N	0.447031	0.388419	0.648264
H245	H	-0.031543	-0.111866	0.188000
H246	H	0.468457	0.388134	0.688000
N247	N	0.593634	-0.152693	0.856939
N248	N	1.093634	0.347307	1.356939
N249	N	0.593634	-0.152688	0.913730
N250	N	1.093634	0.347312	1.413730
H251	H	0.565534	-0.180768	0.936680
H252	H	1.065534	0.319232	1.436680
H253	H	0.601690	-0.144637	0.734954
H254	H	1.101690	0.355363	1.234954
H255	H	0.743021	-0.003371	0.734925
H256	H	1.243021	0.496629	1.234925
N257	N	0.828503	0.507414	0.000048
N258	N	1.328503	1.007414	0.500048
N259	N	0.839709	0.542143	-0.042542
N260	N	1.339709	1.042143	0.457458
H261	H	0.876911	0.568679	-0.042536
H262	H	1.376911	1.068679	0.457464
N263	N	0.385543	-0.076560	-0.111323
N264	N	0.885543	0.423440	0.388677
N265	N	0.357888	-0.036003	-0.123609
N266	N	0.857888	0.463997	0.376391
H267	H	0.336472	-0.035726	-0.163351
H268	H	0.836472	0.464274	0.336649
H269	H	-0.154766	-0.070071	-0.099887
H270	H	0.345234	0.429929	0.400113
H271	H	0.562713	-0.183564	0.442360
H272	H	1.062713	0.316436	0.942360
N273	N	0.593592	-0.152733	0.271757
N274	N	1.093592	0.347267	0.771757
N275	N	0.558820	-0.187489	0.243358
N276	N	1.058820	0.312511	0.743358
H277	H	0.530715	-0.215573	0.266297
H278	H	1.030715	0.284427	0.766297
N279	N	0.232373	-0.074704	-0.166402
N280	N	0.732373	0.425296	0.333598
N281	N	0.231215	-0.034468	-0.203276
N282	N	0.731215	0.465532	0.296724
H283	H	0.252632	-0.034715	-0.243024
H284	H	0.752632	0.465285	0.256976
N285	N	0.593596	-0.152735	0.143175
N286	N	1.093596	0.347265	0.643175
N287	N	0.593603	-0.152727	0.086384
N288	N	1.093603	0.347273	0.586384
H289	H	0.565509	-0.180808	0.063433
H290	H	1.065509	0.319192	0.563433
H291	H	0.391689	-0.076679	0.099978
H292	H	0.891689	0.423321	0.599978
N293	N	0.751092	0.004710	0.856901
N294	N	1.251092	0.504710	1.356901
N295	N	0.785861	0.039471	0.828499
N296	N	1.285861	0.539471	1.328499
H297	H	0.813956	0.067564	0.851435
H298	H	1.313956	0.567564	1.351435
H299	H	0.742990	-0.003391	0.265133
H300	H	1.242990	0.496609	0.765133
H301	H	0.742988	-0.003410	0.149750
H302	H	1.242988	0.496590	0.649750
H303	H	-0.154783	-0.070095	0.099991
H304	H	0.345217	0.429905	0.599991
N305	N	0.569925	0.198455	0.000059
N306	N	1.069925	0.698455	0.500059
N307	N	0.523889	0.165605	0.000065
N308	N	1.023889	0.665605	0.500065
H309	H	0.486168	0.181911	0.000069
H310	H	0.986168	0.681911	0.500069
H311	H	0.118474	-0.073346	-0.154983
H312	H	0.618474	0.426654	0.345017
N313	N	0.779866	0.227082	0.000071
N314	N	1.279866	0.727082	0.500071
N315	N	0.814699	0.225183	0.042675
N316	N	1.314699	0.725183	0.542675
H317	H	0.851909	0.251706	0.042687
H318	H	1.351909	0.751706	0.542687
H319	H	0.781947	0.035545	0.442333
H320	H	1.281947	0.535545	0.942333
N321	N	0.505582	-0.078068	0.111391
N322	N	1.005582	0.421932	0.611391
N323	N	0.479048	-0.077759	0.160566
N324	N	0.979048	0.422241	0.660566
H325	H	0.500458	-0.078029	0.200313
H326	H	1.000458	0.421971	0.700313
H327	H	-0.047016	-0.071359	-0.099896
H328	H	0.452984	0.428641	0.400104
H329	H	0.582056	0.086007	0.000055
H330	H	1.082056	0.586007	0.500055
N331	N	0.774760	0.653504	0.000046
N332	N	1.274760	1.153504	0.500046
N333	N	0.820794	0.686358	0.000055
N334	N	1.320794	1.186358	0.500055
H335	H	0.858516	0.670056	0.000064
H336	H	1.358516	1.170056	0.500064
N337	N	0.790024	0.043626	0.564293
N338	N	1.290024	0.543626	1.064293
N339	N	0.824789	0.078375	0.535873
N340	N	1.324789	0.578375	1.035873
H341	H	0.852895	0.106469	0.558794
H342	H	1.352895	0.606469	1.058794
H343	H	0.226193	-0.074670	0.155068
H344	H	0.726193	0.425330	0.655068
H345	H	0.770461	0.111716	0.000079
H346	H	1.270461	0.611716	0.500079
N347	N	0.112297	-0.073290	0.166485
N348	N	0.612297	0.426710	0.666485
N349	N	0.138822	-0.073612	0.215660
N350	N	0.638822	0.426388	0.715660
H351	H	0.117405	-0.073354	0.255407
H352	H	0.617405	0.426646	0.755407
H353	H	0.819115	0.392037	0.000058
H354	H	1.319115	0.892037	0.500058
N355	N	0.773309	0.773576	0.000040
N356	N	1.273309	1.273576	0.500040
N357	N	0.772660	0.826608	0.000039
N358	N	1.272660	1.326608	0.500039
H359	H	0.809855	0.853156	0.000046
H360	H	1.309855	1.353156	0.500046
