data_functionalizedCrystal
_audit_creation_method	'MofGen! by Chris Wilmer'
_symmetry_space_group_name_H-M	'P1'
_symmetry_Int_Tables_number	1
_symmetry_cell_setting	triclinic
loop_
_symmetry_equiv_pos_as_xyz
  x,y,z
_cell_length_a	12.759401
_cell_length_b	12.827892
_cell_length_c	12.827885
_cell_angle_alpha	90.029786
_cell_angle_beta	90.019449
_cell_angle_gamma	90.016917
loop_
_atom_site_label
_atom_site_type_symbol
_atom_site_fract_x
_atom_site_fract_y
_atom_site_fract_z
Zn1	Zn	1.606246	-0.415940	0.590854
Zn2	Zn	2.106246	0.084060	1.090854
Zn3	Zn	1.606139	-0.590717	0.416114
Zn4	Zn	2.106139	-0.090717	0.916114
Zn5	Zn	1.430549	-0.415996	0.416127
Zn6	Zn	1.930549	0.084004	0.916127
Zn7	Zn	1.430534	-0.590644	0.590813
Zn8	Zn	1.930534	-0.090644	1.090813
O9	O	1.518367	-0.503324	0.503477
O10	O	2.018367	-0.003324	1.003477
O11	O	1.753253	-0.439132	0.567686
O12	O	2.253253	0.060868	1.067686
O13	O	1.582809	-0.567594	0.269880
O14	O	2.082809	-0.067594	0.769880
O15	O	1.453906	-0.269752	0.439327
O16	O	1.953906	0.230248	0.939327
O17	O	1.753175	-0.567540	0.439305
O18	O	2.253175	-0.067540	0.939305
O19	O	1.582990	-0.269711	0.567698
O20	O	2.082990	0.230289	1.067698
O21	O	1.453803	-0.439227	0.269889
O22	O	1.953803	0.060773	0.769889
O23	O	1.283526	-0.439156	0.439288
O24	O	1.783526	0.060844	0.939288
O25	O	1.453881	-0.567416	0.737055
O26	O	1.953881	-0.067416	1.237055
O27	O	1.283515	-0.567469	0.567629
O28	O	1.783515	-0.067469	1.067629
O29	O	1.582976	-0.439061	0.737084
O30	O	2.082976	0.060939	1.237084
O31	O	1.582794	-0.736944	0.439266
O32	O	2.082794	-0.236944	0.939266
O33	O	1.453778	-0.736890	0.567617
O34	O	1.953778	-0.236890	1.067617
C35	C	1.245400	-0.503311	0.503456
C36	C	1.745400	-0.003311	1.003456
C37	C	1.128623	-0.503331	0.503472
C38	C	1.628623	-0.003331	1.003472
C39	C	1.073783	-0.570246	0.570194
C40	C	1.573783	-0.070246	1.070194
C41	C	0.964059	-0.570250	0.570215
C42	C	1.464059	-0.070250	1.070215
C43	C	0.964025	-0.436422	0.436782
C44	C	1.464025	0.063578	0.936782
C45	C	1.073747	-0.436413	0.436768
C46	C	1.573747	0.063587	0.936768
C47	C	1.518302	-0.774834	0.503458
C48	C	2.018302	-0.274834	1.003458
C49	C	1.518370	-0.890987	0.503486
C50	C	2.018370	-0.390987	1.003486
C51	C	1.582287	-0.942764	0.440044
C52	C	2.082287	-0.442764	0.940044
C53	C	1.582358	-1.062814	0.440070
C54	C	2.082358	-0.562814	0.940070
C55	C	1.792400	-0.503338	0.503498
C56	C	2.292400	-0.003338	1.003498
C57	C	1.909177	-0.503344	0.503507
C58	C	2.409177	-0.003344	1.003507
C59	C	1.518439	-0.503224	0.776047
C60	C	2.018439	-0.003224	1.276047
C61	C	1.518469	-0.503181	0.892200
C62	C	2.018469	-0.003181	1.392200
C63	C	1.518462	-0.230754	0.503518
C64	C	2.018462	0.269246	1.003518
C65	C	1.518502	-0.114601	0.503536
C66	C	2.018502	0.385399	1.003536
C67	C	1.518356	-0.503349	0.231967
C68	C	2.018356	-0.003349	0.731967
C69	C	1.518530	-0.503097	0.115814
C70	C	2.018530	-0.003097	0.615814
C71	C	1.582356	-0.439655	0.944000
C72	C	2.082356	0.060345	1.444000
C73	C	1.582389	-0.439609	1.064050
C74	C	2.082389	0.060391	1.564050
H75	H	0.919413	-0.624737	0.624549
H76	H	1.419413	-0.124737	1.124549
H77	H	1.463791	-0.557528	0.936730
H78	H	1.963791	-0.057528	1.436730
H79	H	1.463835	-0.557491	1.071275
H80	H	1.963835	-0.057491	1.571275
F81	F	0.905612	-0.365208	0.365793
F82	F	1.405612	0.134792	0.865793
F83	F	1.132115	-0.365184	0.365754
F84	F	1.632115	0.134816	0.865754
F85	F	1.132183	-0.641463	0.641190
F86	F	1.632183	-0.141463	1.141190
F87	F	1.446966	-1.056412	0.574529
F88	F	1.946966	-0.556412	1.074529
F89	F	1.653751	-0.884541	0.369028
F90	F	2.153751	-0.384541	0.869028
F91	F	1.653881	-1.121010	0.369069
F92	F	2.153881	-0.621010	0.869069
F93	F	1.446916	-0.949210	0.574512
F94	F	1.946916	-0.449210	1.074512
H95	H	1.637024	-0.385298	0.899470
H96	H	2.137024	0.114702	1.399470
F97	F	1.653889	-0.368524	1.122272
F98	F	2.153889	0.131476	1.622272
