data_functionalizedCrystal
_audit_creation_method	'MofGen! by Chris Wilmer'
_symmetry_space_group_name_H-M	'P1'
_symmetry_Int_Tables_number	1
_symmetry_cell_setting	triclinic
loop_
_symmetry_equiv_pos_as_xyz
  x,y,z
_cell_length_a	11.026607
_cell_length_b	9.065218
_cell_length_c	7.540329
_cell_angle_alpha	89.999489
_cell_angle_beta	90.004209
_cell_angle_gamma	83.199049
loop_
_atom_site_label
_atom_site_type_symbol
_atom_site_fract_x
_atom_site_fract_y
_atom_site_fract_z
O1	O	0.178457	-2.004895	0.147482
O2	O	0.193095	-1.579261	0.147484
O3	O	0.008735	-1.756802	0.147476
O4	O	0.362817	-1.827354	0.147489
O5	O	0.008725	-1.756797	-0.147489
O6	O	0.193084	-1.579256	-0.147481
O7	O	0.178447	-2.004891	-0.147483
Cu8	Cu	0.185765	-1.792073	-0.174415
Cu9	Cu	0.185777	-1.792078	0.174415
O10	O	0.362806	-1.827350	-0.147476
C11	C	0.191683	-1.523921	0.000002
C12	C	0.187476	-1.359029	0.000002
N13	N	0.185776	-1.792081	0.419764
C14	C	-0.036624	-1.743784	-0.000004
C15	C	-0.171765	-1.704984	0.000003
C16	C	-0.244393	-1.812117	0.000005
C17	C	-0.384068	-1.772018	0.000011
C18	C	0.408165	-1.840368	0.000008
C19	C	0.543306	-1.879168	0.000013
C20	C	0.179859	-2.060230	0.000003
C21	C	0.184065	-2.225122	0.000014
N22	N	0.185755	-1.792080	-0.419763
H23	H	-0.203167	-1.933525	-0.000007
O24	O	-0.402114	-2.040003	0.000003
H25	H	-0.300973	-2.046265	-0.000015
O26	O	-0.226360	-1.544160	-0.000012
H27	H	-0.283603	-1.521372	0.120204
O28	O	-0.438651	-1.611184	0.000001
H29	H	-0.539791	-1.604926	-0.000011
