data_functionalizedCrystal
_audit_creation_method	'MofGen! by Chris Wilmer'
_symmetry_space_group_name_H-M	'P1'
_symmetry_Int_Tables_number	1
_symmetry_cell_setting	triclinic
loop_
_symmetry_equiv_pos_as_xyz
  x,y,z
_cell_length_a	21.295420
_cell_length_b	25.639240
_cell_length_c	21.295411
_cell_angle_alpha	90.021594
_cell_angle_beta	89.975307
_cell_angle_gamma	89.958587
loop_
_atom_site_label
_atom_site_type_symbol
_atom_site_fract_x
_atom_site_fract_y
_atom_site_fract_z
Zn1	Zn	0.962300	0.208235	-0.355914
Zn2	Zn	0.962179	0.295655	-0.250639
Zn3	Zn	0.857023	0.208232	-0.250659
Zn4	Zn	0.856969	0.295638	-0.355871
O5	O	0.909618	0.251940	-0.303271
O6	O	1.050373	0.219839	-0.341959
O7	O	0.948202	0.284064	-0.162552
O8	O	0.871061	0.135068	-0.264647
O9	O	1.050284	0.284066	-0.264614
O10	O	0.948408	0.135069	-0.341978
O11	O	0.870944	0.219835	-0.162567
O12	O	0.768927	0.219819	-0.264605
O13	O	0.870970	0.284038	-0.443966
O14	O	0.768887	0.284036	-0.341904
O15	O	0.948356	0.219823	-0.443998
O16	O	0.948150	0.368818	-0.264572
O17	O	0.870853	0.368806	-0.341885
C18	C	0.746066	0.251926	-0.303253
C19	C	0.676098	0.251932	-0.303260
C20	C	0.176636	0.285439	-0.343481
C21	C	0.242379	0.285439	-0.343474
C22	C	0.275259	0.251952	-0.303290
C23	C	0.242391	0.218471	-0.263098
C24	C	0.176650	0.218476	-0.263102
N25	N	0.378512	0.206173	-0.298558
N26	N	0.440963	0.206170	-0.298558
C27	C	0.473333	0.251937	-0.303277
N28	N	0.440893	0.297709	-0.308008
N29	N	0.378436	0.297711	-0.308010
C30	C	0.346544	0.251944	-0.303282
C31	C	0.577479	0.285419	-0.343456
C32	C	0.643223	0.285420	-0.343445
C33	C	0.643234	0.218447	-0.263072
C34	C	0.577491	0.218450	-0.263080
C35	C	0.544618	0.251936	-0.303275
C36	C	0.909499	0.387783	-0.303236
C37	C	0.909506	0.445897	-0.303242
C38	C	0.949919	0.806253	-0.263058
C39	C	0.949939	0.860858	-0.263064
O40	O	0.984216	0.889089	-0.228879
N41	N	0.909669	0.888179	-0.303285
C42	C	0.869381	0.860893	-0.343506
O43	O	0.835131	0.889146	-0.377718
C44	C	0.869366	0.806290	-0.343503
C45	C	0.909634	0.778972	-0.303275
C46	C	0.990185	0.778935	-0.222834
C47	C	0.990165	0.724334	-0.222828
C48	C	0.949879	0.697052	-0.263045
C49	C	0.909614	0.724371	-0.303269
C50	C	0.829082	0.779005	-0.383727
C51	C	0.829070	0.724398	-0.383721
C52	C	0.869338	0.697080	-0.343493
C53	C	0.869308	0.642489	-0.343479
N54	N	0.909578	0.615167	-0.303259
C55	C	0.949863	0.642449	-0.263041
C56	C	0.869418	0.975564	-0.343511
C57	C	0.869430	1.030166	-0.343512
C58	C	0.949988	1.030127	-0.263070
C59	C	0.949973	0.975524	-0.263067
C60	C	0.909688	0.948243	-0.303290
C61	C	0.949817	0.527784	-0.263030
C62	C	0.949792	0.473179	-0.263025
C63	C	0.869236	0.473223	-0.343468
C64	C	0.869259	0.527823	-0.343471
C65	C	0.909555	0.555103	-0.303250
O66	O	0.835050	0.614222	-0.377649
O67	O	0.984114	0.614189	-0.228841
C68	C	1.073808	0.251955	-0.303289
C69	C	1.143776	0.251961	-0.303297
C70	C	0.909670	0.251929	-0.467461
C71	C	0.909692	0.251924	-0.537429
C72	C	0.909731	1.115567	-0.303308
C73	C	0.909718	1.057453	-0.303297
C74	C	0.949986	0.218486	-0.570313
C75	C	0.949985	0.218463	-0.636056
C76	C	0.909697	0.251888	-0.668912
C77	C	0.869396	0.285329	-0.636020
C78	C	0.869394	0.285347	-0.570278
N79	N	0.904828	0.297626	-0.772127
N80	N	0.904834	0.297608	-0.834579
C81	C	0.909701	0.251835	-0.866986
N82	N	0.914574	0.206081	-0.834584
N83	N	0.914571	0.206100	-0.772126
C84	C	0.909695	0.251872	-0.740197
C85	C	0.949996	0.218370	-0.971156
C86	C	0.949990	0.218346	-1.036900
C87	C	0.869405	0.285216	-1.036863
C88	C	0.869407	0.285235	-0.971120
C89	C	0.909706	0.251813	-0.938271
C90	C	0.909602	0.251913	-0.139719
C91	C	0.909702	0.251771	-0.069751
H92	H	0.149896	0.191212	-0.230379
H93	H	0.836434	0.451001	-0.376211
H94	H	1.022956	0.702095	-0.190073
H95	H	0.836600	0.312467	-0.944345
O96	O	0.830121	0.554283	-0.382605
C97	C	0.794547	0.518491	-0.418086
H98	H	0.820313	0.479544	-0.420277
H99	H	0.787818	0.534250	-0.467681
H100	H	0.746746	0.512739	-0.394991
O101	O	0.989123	0.948931	-0.224081
C102	C	1.029769	0.917313	-0.259953
H103	H	1.007543	0.909129	-0.307636
H104	H	1.038212	0.878921	-0.234314
H105	H	1.076418	0.938322	-0.266915
H106	H	0.836592	0.312542	-0.662775
O107	O	0.989192	0.185845	-1.068748
C108	C	1.024747	0.156343	-1.025654
H109	H	1.026903	0.177773	-0.978792
H110	H	1.074350	0.150768	-1.044670
H111	H	1.001739	0.116632	-1.018653
H112	H	0.982793	1.052350	-0.230325
H113	H	0.269166	0.191206	-0.230379
H114	H	0.149875	0.312707	-0.376209
O115	O	0.989117	0.185953	-0.939145
C116	C	0.980470	0.193133	-0.874067
H117	H	0.959810	0.233483	-0.865080
H118	H	1.027626	0.189602	-0.849104
H119	H	0.946981	0.162122	-0.855394
H120	H	0.669976	0.312685	-0.376166
O121	O	0.830376	1.056677	-0.382674
C122	C	0.844088	1.043283	-0.445422
H123	H	0.894372	1.028232	-0.448644
H124	H	0.838659	1.079181	-0.476526
H125	H	0.810323	1.011606	-0.461838
O126	O	0.989162	0.186055	-0.668077
C127	C	1.029796	0.215824	-0.706103
H128	H	1.007548	0.255440	-0.715938
H129	H	1.038260	0.194520	-0.752339
H130	H	1.076438	0.221584	-0.680784
O131	O	0.790057	0.805590	-0.422842
C132	C	0.825890	0.837115	-0.463548
H133	H	0.873603	0.845274	-0.441384
H134	H	0.800253	0.875526	-0.471980
H135	H	0.832789	0.816040	-0.510194
H136	H	0.836608	0.953354	-0.376264
O137	O	0.274378	0.317887	-0.382544
C138	C	0.312434	0.288157	-0.423269
H139	H	0.322297	0.248509	-0.401146
H140	H	0.358654	0.309455	-0.431658
H141	H	0.287125	0.282466	-0.469932
H142	H	0.550712	0.312685	-0.376185
H143	H	0.670004	0.191182	-0.230351
O144	O	0.545665	0.185875	-0.224030
C145	C	0.588780	0.156327	-0.188549
H146	H	0.635657	0.154544	-0.214333
H147	H	0.569814	0.115125	-0.181925
H148	H	0.595733	0.175415	-0.140698
H149	H	0.796266	0.702189	-0.416478
H150	H	1.022994	0.801142	-0.190085
H151	H	0.982799	0.191270	-0.543571
H152	H	0.836579	0.312576	-0.543504
H153	H	0.836596	0.312426	-1.063613
H154	H	0.982583	0.450938	-0.230265
O155	O	0.988978	0.554197	-0.223898
C156	C	1.024518	0.518367	-0.188409
H157	H	0.998717	0.479469	-0.186210
H158	H	1.031262	0.534151	-0.138817
H159	H	1.072315	0.512509	-0.211502
