data_functionalizedCrystal
_audit_creation_method	'MofGen! by Chris Wilmer'
_symmetry_space_group_name_H-M	'P1'
_symmetry_Int_Tables_number	1
_symmetry_cell_setting	triclinic
loop_
_symmetry_equiv_pos_as_xyz
  x,y,z
_cell_length_a	16.625548
_cell_length_b	16.625546
_cell_length_c	16.625539
_cell_angle_alpha	89.971468
_cell_angle_beta	89.982945
_cell_angle_gamma	90.023536
loop_
_atom_site_label
_atom_site_type_symbol
_atom_site_fract_x
_atom_site_fract_y
_atom_site_fract_z
Zn1	Zn	1.232652	-0.320992	-0.455898
Zn2	Zn	1.482652	-0.070992	-0.205898
Zn3	Zn	1.732652	0.179008	0.044102
Zn4	Zn	1.982652	0.429008	0.294102
Zn5	Zn	1.232564	-0.455831	-0.321060
Zn6	Zn	1.482564	-0.205831	-0.071060
Zn7	Zn	1.732564	0.044169	0.178940
Zn8	Zn	1.982564	0.294169	0.428940
Zn9	Zn	1.097823	-0.321018	-0.321078
Zn10	Zn	1.347823	-0.071018	-0.071078
Zn11	Zn	1.597823	0.178982	0.178922
Zn12	Zn	1.847823	0.428982	0.428922
Zn13	Zn	1.097785	-0.455789	-0.455850
Zn14	Zn	1.347785	-0.205789	-0.205850
Zn15	Zn	1.597785	0.044211	0.044150
Zn16	Zn	1.847785	0.294211	0.294150
O17	O	1.165206	-0.388408	-0.388471
O18	O	1.415206	-0.138408	-0.138471
O19	O	1.665206	0.111592	0.111529
O20	O	1.915206	0.361592	0.361529
O21	O	1.345473	-0.338885	-0.438024
O22	O	1.595473	-0.088885	-0.188024
O23	O	1.845473	0.161115	0.061976
O24	O	2.095473	0.411115	0.311976
O25	O	1.214669	-0.437976	-0.208230
O26	O	1.464669	-0.187976	0.041770
O27	O	1.714669	0.062024	0.291770
O28	O	1.964669	0.312024	0.541770
O29	O	1.115761	-0.208182	-0.338990
O30	O	1.365761	0.041818	-0.088990
O31	O	1.615761	0.291818	0.161010
O32	O	1.865761	0.541818	0.411010
O33	O	1.345408	-0.437951	-0.338959
O34	O	1.595408	-0.187951	-0.088959
O35	O	1.845408	0.062049	0.161041
O36	O	2.095408	0.312049	0.411041
O37	O	1.214820	-0.208163	-0.438041
O38	O	1.464820	0.041837	-0.188041
O39	O	1.714820	0.291837	0.061959
O40	O	1.964820	0.541837	0.311959
O41	O	1.115675	-0.338930	-0.208243
O42	O	1.365675	-0.088930	0.041757
O43	O	1.615675	0.161070	0.291757
O44	O	1.865675	0.411070	0.541757
O45	O	0.984985	-0.338889	-0.338944
O46	O	1.234985	-0.088889	-0.088944
O47	O	1.484985	0.161111	0.161056
O48	O	1.734985	0.411111	0.411056
O49	O	1.115696	-0.437879	-0.568689
O50	O	1.365696	-0.187879	-0.318689
O51	O	1.615696	0.062121	-0.068689
O52	O	1.865696	0.312121	0.181311
O53	O	0.984957	-0.437905	-0.437960
O54	O	1.234957	-0.187905	-0.187960
O55	O	1.484957	0.062095	0.062040
O56	O	1.734957	0.312095	0.312040
O57	O	1.214783	-0.338845	-0.568724
O58	O	1.464783	-0.088845	-0.318724
O59	O	1.714783	0.161155	-0.068724
O60	O	1.964783	0.411155	0.181276
O61	O	1.214632	-0.568658	-0.338912
O62	O	1.464632	-0.318658	-0.088912
O63	O	1.714632	-0.068658	0.161088
O64	O	1.964632	0.181342	0.411088
O65	O	1.115611	-0.568627	-0.437942
O66	O	1.365611	-0.318627	-0.187942
O67	O	1.615611	-0.068627	0.062058
O68	O	1.865611	0.181373	0.312058
C69	C	0.955715	-0.388396	-0.388449
C70	C	1.205715	-0.138396	-0.138449
C71	C	1.455715	0.111604	0.111551
C72	C	1.705715	0.361604	0.361551
C73	C	0.866094	-0.388410	-0.388458
C74	C	1.116094	-0.138410	-0.138458
C75	C	1.366094	0.111590	0.111542
C76	C	1.616094	0.361590	0.361542
C77	C	0.537918	-0.388416	-0.388493
C78	C	0.787918	-0.138416	-0.138493
C79	C	1.037918	0.111584	0.111507
C80	C	1.287918	0.361584	0.361507
C81	C	0.629227	-0.388412	-0.388481
C82	C	0.879227	-0.138412	-0.138481
C83	C	1.129227	0.111588	0.111519
C84	C	1.379227	0.361588	0.361519
C85	C	0.702003	-0.388414	-0.388475
C86	C	0.952003	-0.138414	-0.138475
C87	C	1.202003	0.111586	0.111525
C88	C	1.452003	0.361586	0.361525
C89	C	0.793318	-0.388409	-0.388464
C90	C	1.043318	-0.138409	-0.138464
C91	C	1.293318	0.111591	0.111536
C92	C	1.543318	0.361591	0.361536
C93	C	1.165130	-0.597898	-0.388438
C94	C	1.415130	-0.347898	-0.138438
C95	C	1.665130	-0.097898	0.111562
C96	C	1.915130	0.152102	0.361562
C97	C	1.165171	-0.687519	-0.388450
C98	C	1.415171	-0.437519	-0.138450
C99	C	1.665171	-0.187519	0.111550
C100	C	1.915171	0.062481	0.361550
C101	C	1.165311	-1.015695	-0.388534
C102	C	1.415311	-0.765695	-0.138534
C103	C	1.665311	-0.515695	0.111466
C104	C	1.915311	-0.265695	0.361466
C105	C	1.165270	-0.924387	-0.388513
C106	C	1.415270	-0.674387	-0.138513
C107	C	1.665270	-0.424387	0.111487
C108	C	1.915270	-0.174387	0.361487
C109	C	1.165240	-0.851610	-0.388492
C110	C	1.415240	-0.601610	-0.138492
C111	C	1.665240	-0.351610	0.111508
C112	C	1.915240	-0.101610	0.361508
C113	C	1.165200	-0.760296	-0.388471
C114	C	1.415200	-0.510296	-0.138471
C115	C	1.665200	-0.260296	0.111529
C116	C	1.915200	-0.010296	0.361529
C117	C	1.375515	-0.388420	-0.388494
C118	C	1.625515	-0.138420	-0.138494
C119	C	1.875515	0.111580	0.111506
C120	C	2.125515	0.361580	0.361506
C121	C	1.465136	-0.388425	-0.388504
C122	C	1.715136	-0.138425	-0.138504
C123	C	1.965136	0.111575	0.111496
C124	C	2.215136	0.361575	0.361496
C125	C	1.165245	-0.388354	-0.598780
C126	C	1.415245	-0.138354	-0.348780
C127	C	1.665245	0.111646	-0.098780
C128	C	1.915245	0.361646	0.151220
C129	C	1.165262	-0.388332	-0.688402
C130	C	1.415262	-0.138332	-0.438402
C131	C	1.665262	0.111668	-0.188402
C132	C	1.915262	0.361668	0.061598
C133	C	1.165305	-0.178099	-0.388523
C134	C	1.415305	0.071901	-0.138523
C135	C	1.665305	0.321901	0.111477
C136	C	1.915305	0.571901	0.361477
C137	C	1.165347	-0.088477	-0.388545
C138	C	1.415347	0.161523	-0.138545
C139	C	1.665347	0.411523	0.111455
C140	C	1.915347	0.661523	0.361455
C141	C	1.165275	-0.388314	-0.761184
C142	C	1.415275	-0.138314	-0.511184
C143	C	1.665275	0.111686	-0.261184
C144	C	1.915275	0.361686	-0.011184
C145	C	1.165294	-0.388284	-0.852493
C146	C	1.415294	-0.138284	-0.602493
C147	C	1.665294	0.111716	-0.352493
C148	C	1.915294	0.361716	-0.102493
C149	C	1.165313	-0.388255	-0.925269
C150	C	1.415313	-0.138255	-0.675269
C151	C	1.665313	0.111745	-0.425269
C152	C	1.915313	0.361745	-0.175269
C153	C	1.165333	-0.388226	-1.016583
C154	C	1.415333	-0.138226	-0.766583
C155	C	1.665333	0.111774	-0.516583
C156	C	1.915333	0.361774	-0.266583
C157	C	1.165213	-0.388402	-0.178981
C158	C	1.415213	-0.138402	0.071019
C159	C	1.665213	0.111598	0.321019
C160	C	1.915213	0.361598	0.571019
C161	C	1.165352	-0.388198	-0.089360
C162	C	1.415352	-0.138198	0.160640
C163	C	1.665352	0.111802	0.410640
C164	C	1.915352	0.361802	0.660640
