data_functionalizedCrystal
_audit_creation_method	'MofGen! by Chris Wilmer'
_symmetry_space_group_name_H-M	'P1'
_symmetry_Int_Tables_number	1
_symmetry_cell_setting	triclinic
loop_
_symmetry_equiv_pos_as_xyz
  x,y,z
_cell_length_a	18.215407
_cell_length_b	17.640280
_cell_length_c	18.215399
_cell_angle_alpha	101.224603
_cell_angle_beta	90.017368
_cell_angle_gamma	78.798252
loop_
_atom_site_label
_atom_site_type_symbol
_atom_site_fract_x
_atom_site_fract_y
_atom_site_fract_z
Zn1	Zn	1.184378	-0.314728	0.356899
Zn2	Zn	1.684378	0.185272	0.856899
Zn3	Zn	1.209194	-0.446906	0.208984
Zn4	Zn	1.709194	0.053094	0.708984
Zn5	Zn	1.061314	-0.314746	0.233848
Zn6	Zn	1.561314	0.185254	0.733848
Zn7	Zn	1.086174	-0.446855	0.332023
Zn8	Zn	1.586174	0.053145	0.832023
O9	O	1.135265	-0.380809	0.282939
O10	O	1.635265	0.119191	0.782939
O11	O	1.290657	-0.332275	0.337283
O12	O	1.790657	0.167725	0.837283
O13	O	1.189559	-0.429404	0.109292
O14	O	1.689559	0.070596	0.609292
O15	O	1.056849	-0.204139	0.270988
O16	O	1.556849	0.295861	0.770988
O17	O	1.308889	-0.429386	0.228610
O18	O	1.808889	0.070614	0.728610
O19	O	1.147264	-0.204125	0.361393
O20	O	1.647264	0.295875	0.861393
O21	O	1.080912	-0.332307	0.127560
O22	O	1.580912	0.167693	0.627560
O23	O	0.961625	-0.332258	0.246867
O24	O	1.461625	0.167742	0.746867
O25	O	1.099220	-0.429299	0.438313
O26	O	1.599220	0.070701	0.938313
O27	O	0.979890	-0.429317	0.318996
O28	O	1.479890	0.070683	0.818996
O29	O	1.171370	-0.332225	0.456589
O30	O	1.671370	0.167775	0.956589
O31	O	1.213664	-0.557505	0.204488
O32	O	1.713664	-0.057505	0.704488
O33	O	1.123282	-0.557467	0.294885
O34	O	1.623282	-0.057467	0.794885
C35	C	0.944054	-0.380785	0.282930
C36	C	1.444054	0.119215	0.782930
C37	C	0.862257	-0.380793	0.282941
C38	C	1.362257	0.119207	0.782941
C39	C	0.664588	-0.330332	0.339581
C40	C	1.164588	0.169668	0.839581
C41	C	0.587731	-0.330338	0.339583
C42	C	1.087731	0.169662	0.839583
C43	C	0.606698	-0.431308	0.226305
C44	C	1.106698	0.068692	0.726305
C45	C	0.683553	-0.431297	0.226301
C46	C	1.183553	0.068703	0.726301
C47	C	0.712497	-0.380810	0.282943
C48	C	1.212497	0.119190	0.782943
C49	C	0.558784	-0.380828	0.282948
C50	C	1.058784	0.119172	0.782948
C51	C	0.475452	-0.380836	0.282949
C52	C	0.975452	0.119164	0.782949
C53	C	0.795834	-0.380801	0.282942
C54	C	1.295834	0.119199	0.782942
C55	C	1.173884	-0.586165	0.244305
C56	C	1.673884	-0.086165	0.744305
C57	C	1.190473	-0.674017	0.227802
C58	C	1.690473	-0.174017	0.727802
C59	C	1.009545	-0.962991	0.408577
C60	C	1.509545	-0.462991	0.908577
C61	C	1.025134	-1.045542	0.393046
C62	C	1.525134	-0.545542	0.893046
C63	C	1.119307	-1.045515	0.299011
C64	C	1.619307	-0.545515	0.799011
C65	C	1.103729	-0.962963	0.314536
C66	C	1.603729	-0.462963	0.814536
C67	C	1.048846	-0.921708	0.369319
C68	C	1.548846	-0.421708	0.869319
C69	C	1.143030	-0.921680	0.275279
C70	C	1.643030	-0.421680	0.775279
C71	C	1.127449	-0.839135	0.290800
C72	C	1.627449	-0.339135	0.790800
C73	C	1.072568	-0.797873	0.345579
C74	C	1.572568	-0.297873	0.845579
C75	C	1.033266	-0.839163	0.384841
C76	C	1.533266	-0.339163	0.884841
C77	C	1.197908	-0.962937	0.220493
C78	C	1.697908	-0.462937	0.720493
C79	C	1.237209	-0.921653	0.181235
C80	C	1.737209	-0.421653	0.681235
C81	C	1.221633	-0.839107	0.196760
C82	C	1.721633	-0.339107	0.696760
C83	C	1.166752	-0.797845	0.251539
C84	C	1.666752	-0.297845	0.751539
C85	C	1.260935	-0.797817	0.157498
C86	C	1.760935	-0.297817	0.657498
C87	C	1.245355	-0.715272	0.173020
C88	C	1.745355	-0.215272	0.673020
C89	C	1.151171	-0.715300	0.267060
C90	C	1.651171	-0.215300	0.767060
C91	C	1.327223	-0.380834	0.282947
C92	C	1.827223	0.119166	0.782947
C93	C	1.409024	-0.380845	0.282951
C94	C	1.909024	0.119155	0.782951
C95	C	1.135300	-0.380754	0.474902
C96	C	1.635300	0.119246	0.974902
C97	C	1.135314	-0.380731	0.556705
C98	C	1.635314	0.119269	1.056705
C99	C	1.096515	-0.174651	0.321739
C100	C	1.596515	0.325349	0.821739
C101	C	1.080003	-0.086799	0.338273
C102	C	1.580003	0.413201	0.838273
C103	C	1.135262	-0.380806	0.091733
C104	C	1.635262	0.119194	0.591733
C105	C	1.135348	-0.380607	0.009972
C106	C	1.635348	0.119393	0.509972
C107	C	1.172891	-0.330138	0.754426
C108	C	1.672891	0.169862	1.254426
C109	C	1.172895	-0.330115	0.831289
C110	C	1.672895	0.169885	1.331289
C111	C	1.097767	-0.431203	0.812246
C112	C	1.597767	0.068797	1.312246
C113	C	1.097758	-0.431221	0.735385
C114	C	1.597758	0.068779	1.235385
C115	C	1.135325	-0.380690	0.706477
C116	C	1.635325	0.119310	1.206477
C117	C	1.135338	-0.380648	0.860200
C118	C	1.635338	0.119352	1.360200
C119	C	1.135342	-0.380624	0.943539
C120	C	1.635342	0.119376	1.443539
C121	C	1.135319	-0.380713	0.623133
C122	C	1.635319	0.119287	1.123133
H123	H	1.106486	-0.681709	0.311675
H124	H	1.606486	-0.181709	0.811675
H125	H	1.277358	-0.681659	0.141051
H126	H	1.777358	-0.181659	0.641051
H127	H	1.067162	-0.472386	0.696343
H128	H	1.567162	0.027614	1.196343
C129	C	0.749010	-0.319469	0.440633
C130	C	1.249010	0.180531	0.940633
C131	C	0.696403	-0.274833	0.401838
C132	C	1.196403	0.225167	0.901838
H133	H	0.768645	-0.285203	0.479070
H134	H	1.268645	0.214797	0.979070
H135	H	0.788539	-0.349523	0.406903
H136	H	1.288539	0.150477	0.906903
H137	H	0.725517	-0.353945	0.462246
H138	H	1.225517	0.146055	0.962246
H139	H	0.719897	-0.240361	0.380221
H140	H	1.219897	0.259639	0.880221
H141	H	0.656867	-0.244766	0.435573
H142	H	1.156867	0.255234	0.935573
C143	C	0.499295	-0.319507	0.440633
C144	C	0.999295	0.180493	0.940633
C145	C	0.535069	-0.274855	0.401843
C146	C	1.035069	0.225145	0.901843
H147	H	0.466781	-0.285250	0.479067
H148	H	0.966781	0.214750	0.979067
H149	H	0.535774	-0.353972	0.462242
H150	H	1.035774	0.146028	0.962242
H151	H	0.471058	-0.349571	0.406894
H152	H	0.971058	0.150429	0.906894
H153	H	0.563310	-0.244795	0.435580
H154	H	1.063310	0.255205	0.935580
H155	H	0.498585	-0.240376	0.380233
H156	H	0.998585	0.259624	0.880233
H157	H	0.583123	-0.472414	0.180189
H158	H	1.083123	0.027586	0.680189
H159	H	1.067184	-0.472345	0.835792
H160	H	1.567184	0.027655	1.335792
H161	H	1.203484	-0.288949	0.870327
H162	H	1.703484	0.211051	1.370327
H163	H	0.988580	-0.805571	0.429456
H164	H	1.488580	-0.305571	0.929456
H165	H	0.722562	-0.472403	0.180175
H166	H	1.222562	0.027597	0.680175
H167	H	0.993135	-1.079152	0.425027
H168	H	1.493135	-0.579152	0.925027
C169	C	1.269812	-0.319177	0.670072
C170	C	1.769812	0.180823	1.170072
C171	C	1.214174	-0.274587	0.722649
C172	C	1.714174	0.225413	1.222649
H173	H	1.295299	-0.284878	0.650460
H174	H	1.795299	0.215122	1.150460
H175	H	1.247439	-0.349281	0.630517
H176	H	1.747439	0.150719	1.130517
H177	H	1.304440	-0.353604	0.693585
H178	H	1.804440	0.146396	1.193585
H179	H	1.179543	-0.240164	0.699134
H180	H	1.679543	0.259836	1.199134
H181	H	1.236548	-0.244470	0.762210
H182	H	1.736548	0.255530	1.262210
C183	C	0.918023	-0.971300	0.499996
C184	C	1.418023	-0.471300	0.999996
C185	C	0.949227	-0.917635	0.468806
C186	C	1.449227	-0.417635	0.968806
H187	H	0.880787	-0.943297	0.537175
H188	H	1.380787	-0.443297	1.037175
H189	H	0.956144	-1.003459	0.522120
H190	H	1.456144	-0.503459	1.022120
H191	H	0.895967	-1.003531	0.461844
H192	H	1.395967	-0.503531	0.961844
H193	H	0.971289	-0.885407	0.506957
H194	H	1.471289	-0.385407	1.006957
H195	H	0.911100	-0.885463	0.446683
H196	H	1.411100	-0.385463	0.946683
C197	C	1.031541	-0.679673	0.297783
C198	C	1.531541	-0.179673	0.797783
C199	C	1.055440	-0.707138	0.362643
C200	C	1.555440	-0.207138	0.862643
H201	H	1.020972	-0.623657	0.308319
H202	H	1.520972	-0.123657	0.808319
H203	H	0.987594	-0.698387	0.281503
H204	H	1.487594	-0.198387	0.781503
H205	H	1.069856	-0.698338	0.259544
H206	H	1.569856	-0.198338	0.759544
H207	H	1.017123	-0.688477	0.400881
H208	H	1.517123	-0.188477	0.900881
H209	H	1.099392	-0.688415	0.378934
H210	H	1.599392	-0.188415	0.878934
H211	H	1.163990	-1.079117	0.254405
H212	H	1.663990	-0.579117	0.754405
H213	H	1.281892	-0.955254	0.136629
H214	H	1.781892	-0.455254	0.636629
C215	C	1.238958	-1.081130	0.268291
C216	C	1.738958	-0.581130	0.768291
C217	C	1.215046	-1.053672	0.203431
C218	C	1.715046	-0.553672	0.703431
H219	H	1.249544	-1.137146	0.257756
H220	H	1.749544	-0.637146	0.757756
H221	H	1.200650	-1.062476	0.306528
H222	H	1.700650	-0.562476	0.806528
H223	H	1.282905	-1.062400	0.284569
H224	H	1.782905	-0.562400	0.784569
H225	H	1.171095	-1.072398	0.187156
H226	H	1.671095	-0.572398	0.687156
H227	H	1.253357	-1.072335	0.165182
H228	H	1.753357	-0.572335	0.665182
H229	H	1.305615	-0.831420	0.112889
H230	H	1.805615	-0.331420	0.612889
