data_functionalizedCrystal
_audit_creation_method	'MofGen! by Chris Wilmer'
_symmetry_space_group_name_H-M	'P1'
_symmetry_Int_Tables_number	1
_symmetry_cell_setting	triclinic
loop_
_symmetry_equiv_pos_as_xyz
  x,y,z
_cell_length_a	8.497365
_cell_length_b	12.759401
_cell_length_c	12.759399
_cell_angle_alpha	89.983359
_cell_angle_beta	90.051436
_cell_angle_gamma	89.967415
loop_
_atom_site_label
_atom_site_type_symbol
_atom_site_fract_x
_atom_site_fract_y
_atom_site_fract_z
Zn1	Zn	-0.891959	1.606384	0.417960
Zn2	Zn	-0.628161	1.606238	0.593738
Zn3	Zn	-0.628186	1.430647	0.418079
Zn4	Zn	-0.891893	1.430673	0.593602
O5	O	-0.760050	1.518486	0.505845
O6	O	-0.856983	1.753386	0.441285
O7	O	-0.407402	1.582874	0.570544
O8	O	-0.663214	1.454009	0.271042
O9	O	-0.663172	1.753279	0.570428
O10	O	-0.857007	1.583122	0.270955
O11	O	-0.407420	1.453868	0.441487
O12	O	-0.663150	1.283630	0.441355
O13	O	-1.112664	1.454054	0.570196
O14	O	-0.856894	1.283649	0.570311
O15	O	-1.112713	1.583148	0.441152
O16	O	-0.663108	1.582899	0.740741
O17	O	-0.856871	1.453912	0.740641
C18	C	-0.760018	1.245518	0.505832
C19	C	-0.760042	1.128742	0.505852
C20	C	-0.760014	1.518421	0.778812
C21	C	-0.760051	1.518490	0.895589
C22	C	-0.860766	1.073917	0.573101
C23	C	-0.860798	0.964193	0.573105
C24	C	-0.659367	0.964128	0.438607
C25	C	-0.659345	1.073850	0.438598
C26	C	-0.350170	1.518410	0.505959
C27	C	-0.171526	1.518560	0.505744
C28	C	-0.760082	1.792519	0.505858
C29	C	-0.760096	1.909296	0.505864
C30	C	-0.760120	1.518579	0.231811
C31	C	-0.760150	1.518619	0.115035
C32	C	-0.659274	1.585730	0.950468
C33	C	-0.659327	1.585797	1.060192
C34	C	-0.860939	1.451376	1.060148
C35	C	-0.860893	1.451314	0.950426
H36	H	-0.942765	1.118607	0.627861
O37	O	-0.550627	1.658329	1.119372
H38	H	-0.621333	1.711807	1.169244
O39	O	-0.969259	0.905057	0.645755
H40	H	-1.039201	0.961664	0.692562
O41	O	-0.550705	1.132997	0.366062
H42	H	-0.470328	1.182947	0.413042
H43	H	-0.942965	1.396559	0.905740
H44	H	-0.577381	0.919421	0.383853
H45	H	-0.577165	1.640430	0.905822
O46	O	-0.969672	1.378903	1.119292
H47	H	-0.952757	1.390229	1.204809
