data_functionalizedCrystal
_audit_creation_method	'MofGen! by Chris Wilmer'
_symmetry_space_group_name_H-M	'P1'
_symmetry_Int_Tables_number	1
_symmetry_cell_setting	triclinic
loop_
_symmetry_equiv_pos_as_xyz
  x,y,z
_cell_length_a	12.759401
_cell_length_b	18.215405
_cell_length_c	18.215407
_cell_angle_alpha	90.017568
_cell_angle_beta	90.003037
_cell_angle_gamma	90.026410
loop_
_atom_site_label
_atom_site_type_symbol
_atom_site_fract_x
_atom_site_fract_y
_atom_site_fract_z
Zn1	Zn	1.606006	-0.293056	0.416064
Zn2	Zn	2.106006	0.206944	0.916064
Zn3	Zn	1.605921	-0.416100	0.292992
Zn4	Zn	2.105921	0.083900	0.792992
Zn5	Zn	1.430360	-0.293055	0.293016
Zn6	Zn	1.930360	0.206945	0.793016
Zn7	Zn	1.430266	-0.416089	0.416021
Zn8	Zn	1.930266	0.083911	0.916021
O9	O	1.518138	-0.354575	0.354523
O10	O	2.018138	0.145425	0.854523
O11	O	1.753016	-0.309383	0.399746
O12	O	2.253016	0.190617	0.899746
O13	O	1.582636	-0.399781	0.190011
O14	O	2.082636	0.100219	0.690011
O15	O	1.453735	-0.190071	0.309366
O16	O	1.953735	0.309929	0.809366
O17	O	1.752953	-0.399783	0.309326
O18	O	2.252953	0.100217	0.809326
O19	O	1.582782	-0.190072	0.399769
O20	O	2.082782	0.309928	0.899769
O21	O	1.453652	-0.309381	0.190028
O22	O	1.953652	0.190619	0.690028
O23	O	1.283326	-0.309370	0.309325
O24	O	1.783326	0.190630	0.809325
O25	O	1.453574	-0.399764	0.519011
O26	O	1.953574	0.100236	1.019011
O27	O	1.283257	-0.399763	0.399696
O28	O	1.783257	0.100237	0.899696
O29	O	1.582690	-0.309373	0.519043
O30	O	2.082690	0.190627	1.019043
O31	O	1.582545	-0.519082	0.309285
O32	O	2.082545	-0.019082	0.809285
O33	O	1.453492	-0.519075	0.399673
O34	O	1.953492	-0.019075	0.899673
C35	C	1.245171	-0.354566	0.354509
C36	C	1.745171	0.145434	0.854509
C37	C	1.128394	-0.354580	0.354520
C38	C	1.628394	0.145420	0.854520
C39	C	1.073524	-0.401719	0.401502
C40	C	1.573524	0.098281	0.901502
C41	C	0.963800	-0.401722	0.401517
C42	C	1.463800	0.098278	0.901517
C43	C	0.963826	-0.307444	0.307560
C44	C	1.463826	0.192556	0.807560
C45	C	1.073548	-0.307438	0.307550
C46	C	1.573548	0.192562	0.807550
C47	C	1.518027	-0.545781	0.354488
C48	C	2.018027	-0.045781	0.854488
C49	C	1.518076	-0.627580	0.354497
C50	C	2.018076	-0.127580	0.854497
C51	C	1.585432	-0.815754	0.307518
C52	C	2.085432	-0.315754	0.807518
C53	C	1.585479	-0.892612	0.307536
C54	C	2.085479	-0.392612	0.807536
C55	C	1.450979	-0.892644	0.401581
C56	C	1.950979	-0.392644	0.901581
C57	C	1.450938	-0.815787	0.401566
C58	C	1.950938	-0.315787	0.901566
C59	C	1.518163	-0.777343	0.354531
C60	C	2.018163	-0.277343	0.854531
C61	C	1.518251	-0.931060	0.354563
C62	C	2.018251	-0.431060	0.854563
C63	C	1.518301	-1.014393	0.354583
C64	C	2.018301	-0.514393	0.854583
C65	C	1.518114	-0.694005	0.354512
C66	C	2.018114	-0.194005	0.854512
C67	C	1.792172	-0.354584	0.354538
C68	C	2.292172	0.145416	0.854538
C69	C	1.908948	-0.354589	0.354545
C70	C	2.408948	0.145411	0.854545
C71	C	1.518131	-0.354568	0.546476
C72	C	2.018131	0.145432	1.046476
C73	C	1.518128	-0.354565	0.628275
C74	C	2.018128	0.145435	1.128275
C75	C	1.518278	-0.162622	0.354575
C76	C	2.018278	0.337378	0.854575
C77	C	1.518338	-0.080823	0.354597
C78	C	2.018338	0.419177	0.854597
C79	C	1.450968	-0.307512	0.816479
C80	C	1.950968	0.192488	1.316479
C81	C	1.450963	-0.307518	0.893338
C82	C	1.950963	0.192482	1.393338
C83	C	1.585281	-0.401651	0.893309
C84	C	2.085281	0.098349	1.393309
C85	C	1.585279	-0.401649	0.816452
C86	C	2.085279	0.098351	1.316452
C87	C	1.518124	-0.354575	0.778039
C88	C	2.018124	0.145425	1.278039
C89	C	1.518121	-0.354583	0.931755
C90	C	2.018121	0.145417	1.431755
C91	C	1.518117	-0.354590	1.015088
C92	C	2.018117	0.145410	1.515088
C93	C	1.518127	-0.354569	0.694700
C94	C	2.018127	0.145431	1.194700
C95	C	1.518132	-0.354596	1.163317
C96	C	2.018132	0.145404	1.663317
C97	C	1.518117	-0.354593	1.081518
C98	C	2.018117	0.145407	1.581518
H99	H	0.919157	-0.269065	0.269318
H100	H	1.419157	0.230935	0.769318
H101	H	1.639969	-0.439976	0.785153
H102	H	2.139969	0.060024	1.285153
O103	O	1.132727	-0.256593	0.256865
O104	O	1.632727	0.243407	0.756865
H105	H	1.182738	-0.219192	0.289866
H106	H	1.682738	0.280808	0.789866
O107	O	1.132670	-0.452551	0.452178
O108	O	1.632670	0.047449	0.952178
H109	H	1.182685	-0.419658	0.489670
H110	H	1.682685	0.080342	0.989670
H111	H	0.919129	-0.440106	0.439776
H112	H	1.419129	0.059894	0.939776
O113	O	1.657947	-0.774286	0.256799
O114	O	2.157947	-0.274286	0.756799
H115	H	1.704739	-0.813911	0.224118
H116	H	2.204739	-0.313911	0.724118
O117	O	1.658026	-0.934043	0.256826
O118	O	2.158026	-0.434043	0.756826
H119	H	1.704755	-0.894397	0.224116
H120	H	2.204755	-0.394397	0.724116
O121	O	1.378459	-0.934113	0.452295
O122	O	1.878459	-0.434113	0.952295
H123	H	1.425444	-0.969094	0.489770
H124	H	1.925444	-0.469094	0.989770
O125	O	1.378366	-0.774350	0.452264
O126	O	1.878366	-0.274350	0.952264
H127	H	1.331611	-0.813992	0.484962
H128	H	1.831611	-0.313992	0.984962
O129	O	1.378539	-0.256742	0.775045
O130	O	1.878539	0.243258	1.275045
H131	H	1.296073	-0.269366	0.789784
H132	H	1.796073	0.230634	1.289784
H133	H	1.396277	-0.269195	0.924632
H134	H	1.896277	0.230805	1.424632
H135	H	1.639957	-0.439977	0.924594
H136	H	2.139957	0.060023	1.424594
