data_functionalizedCrystal
_audit_creation_method	'MofGen! by Chris Wilmer'
_symmetry_space_group_name_H-M	'P1'
_symmetry_Int_Tables_number	1
_symmetry_cell_setting	triclinic
loop_
_symmetry_equiv_pos_as_xyz
  x,y,z
_cell_length_a	29.839131
_cell_length_b	12.759401
_cell_length_c	12.759393
_cell_angle_alpha	89.981433
_cell_angle_beta	89.962110
_cell_angle_gamma	90.040464
loop_
_atom_site_label
_atom_site_type_symbol
_atom_site_fract_x
_atom_site_fract_y
_atom_site_fract_z
Zn1	Zn	-0.178838	1.606060	-0.593937
Zn2	Zn	-0.253977	1.605873	-0.418238
Zn3	Zn	-0.178860	1.430362	-0.418276
Zn4	Zn	-0.253941	1.430269	-0.593879
O5	O	-0.216404	1.518141	-0.506083
O6	O	-0.188811	1.753056	-0.570638
O7	O	-0.244037	1.582551	-0.271222
O8	O	-0.115990	1.453787	-0.441618
O9	O	-0.244015	1.752919	-0.441553
O10	O	-0.115974	1.582871	-0.570676
O11	O	-0.188849	1.453605	-0.271250
O12	O	-0.188814	1.283329	-0.441562
O13	O	-0.243954	1.453628	-0.740908
O14	O	-0.243975	1.283260	-0.570577
O15	O	-0.188776	1.582781	-0.740951
O16	O	-0.316839	1.582461	-0.441497
O17	O	-0.316813	1.453446	-0.570539
C18	C	-0.216394	1.245174	-0.506068
C19	C	-0.216400	1.128397	-0.506087
C20	C	-0.187709	1.073600	-0.573406
C21	C	-0.187718	0.963876	-0.573412
C22	C	-0.245111	0.963756	-0.438778
C23	C	-0.245100	1.073478	-0.438767
C24	C	-0.159009	1.128519	-0.640725
C25	C	-0.130317	1.073722	-0.708051
C26	C	-0.130325	0.963998	-0.708057
C27	C	-0.159026	0.909071	-0.640739
C28	C	-0.333127	1.517951	-0.506030
C29	C	-0.383061	1.517966	-0.506043
C30	C	-0.692706	1.585441	-0.438988
C31	C	-0.880379	1.585571	-0.439029
O32	O	-0.904644	1.642790	-0.381976
N33	N	-0.903846	1.518359	-0.506162
C34	C	-0.880392	1.451114	-0.573294
O35	O	-0.904659	1.393957	-0.630403
C36	C	-0.692720	1.450991	-0.573258
C37	C	-0.669255	1.518200	-0.506113
C38	C	-0.669240	1.652646	-0.371850
C39	C	-0.622325	1.652609	-0.371836
C40	C	-0.598875	1.585367	-0.438961
C41	C	-0.622340	1.518163	-0.506099
C42	C	-0.669267	1.383752	-0.640395
C43	C	-0.622346	1.383729	-0.640382
C44	C	-0.598881	1.450938	-0.573237
C45	C	-0.551974	1.450884	-0.573211
N46	N	-0.528506	1.518096	-0.506078
C47	C	-0.551957	1.585338	-0.438953
C48	C	-0.978923	1.451183	-0.573307
C49	C	-1.025841	1.451212	-0.573315
C50	C	-1.025824	1.585670	-0.439051
C51	C	-0.978905	1.585635	-0.439038
C52	C	-0.955456	1.518395	-0.506174
C53	C	-0.453431	1.585254	-0.438929
C54	C	-0.406511	1.585208	-0.438918
C55	C	-0.406533	1.450754	-0.573186
C56	C	-0.453448	1.450796	-0.573193
C57	C	-0.476896	1.518054	-0.506061
O58	O	-0.527679	1.393703	-0.630242
O59	O	-0.527682	1.642503	-0.381869
C60	C	-0.739621	1.585479	-0.439002
C61	C	-0.763086	1.518274	-0.506140
C62	C	-0.739636	1.451033	-0.573265
C63	C	-0.810004	1.518304	-0.506148
C64	C	-0.833454	1.585545	-0.439023
C65	C	-0.809987	1.652757	-0.371890
C66	C	-0.763071	1.652720	-0.371877
C67	C	-0.763103	1.383820	-0.640398
C68	C	-0.810019	1.383862	-0.640405
C69	C	-0.833469	1.451104	-0.573280
C70	C	-0.099226	1.518360	-0.506158
C71	C	-0.049291	1.518454	-0.506190
C72	C	-0.216359	1.518215	-0.780116
C73	C	-0.216339	1.518246	-0.896893
C74	C	-0.216415	1.792174	-0.506098
C75	C	-0.216420	1.908951	-0.506104
C76	C	-0.187606	1.585505	-0.951779
C77	C	-0.187590	1.585530	-1.061503
C78	C	-0.245044	1.451034	-1.061445
C79	C	-0.245058	1.451004	-0.951723
C80	C	-0.158887	1.652747	-0.896948
C81	C	-0.130151	1.720013	-0.951834
C82	C	-0.130135	1.720038	-1.061558
C83	C	-0.158855	1.652797	-1.116396
C84	C	-0.216417	1.518128	-0.233115
C85	C	-0.216310	1.518301	-0.116339
H86	H	-0.387408	1.639937	-0.384237
H87	H	-0.106766	1.774751	-0.907178
H88	H	-0.106959	0.919384	-0.762869
O89	O	-0.832789	1.318681	-0.705786
C90	C	-0.821264	1.341572	-0.810506
H91	H	-0.808329	1.425493	-0.815866
H92	H	-0.794043	1.285215	-0.837909
C93	C	-0.878807	1.226270	-0.874059
C94	C	-0.862923	1.329346	-0.880643
H95	H	-0.904503	1.218724	-0.917325
H96	H	-0.886571	1.210844	-0.803507
H97	H	-0.856119	1.179317	-0.896893
H98	H	-0.885609	1.376296	-0.857797
H99	H	-0.855164	1.344780	-0.951193
H100	H	-0.959803	1.640363	-0.384364
O101	O	-0.102208	1.785471	-1.114714
C102	C	-0.076856	1.844789	-1.042786
H103	H	-0.095269	1.848369	-0.964558
H104	H	-0.042735	1.806382	-1.031140
C105	C	-0.047768	1.952233	-1.181701
C106	C	-0.070384	1.956638	-1.085623
H107	H	-0.043773	2.021225	-1.208125
H108	H	-0.064846	1.912267	-1.230161
H109	H	-0.019336	1.920222	-1.171982
H110	H	-0.098817	1.988636	-1.095345
H111	H	-0.053311	1.996612	-1.037165
O112	O	-0.158797	1.652987	-1.222983
C113	C	-0.127268	1.726749	-1.259672
H114	H	-0.120986	1.788126	-1.196450
H115	H	-0.094506	1.685157	-1.279169
C116	C	-0.153284	1.705213	-1.436467
C117	C	-0.145572	1.780602	-1.358819
H118	H	-0.164574	1.738429	-1.497628
H119	H	-0.174525	1.655515	-1.411750
H120	H	-0.125981	1.670559	-1.452701
H121	H	-0.172877	1.815245	-1.342576
H122	H	-0.124336	1.830308	-1.383535
O123	O	-0.102373	1.127024	-0.773328
C124	C	-0.057588	1.100239	-0.750584
H125	H	-0.055278	1.070050	-0.666662
H126	H	-0.045880	1.036583	-0.806964
C127	C	-0.030441	1.234826	-0.866014
C128	C	-0.027604	1.197756	-0.762938
H129	H	-0.011945	1.294978	-0.873639
H130	H	-0.060614	1.252870	-0.881341
H131	H	-0.020685	1.181771	-0.912986
H132	H	-0.037365	1.250807	-0.715968
H133	H	0.002568	1.179724	-0.747603
O134	O	-0.273041	0.910356	-0.373547
C135	C	-0.302085	0.846865	-0.433248
H136	H	-0.304897	0.879967	-0.515978
H137	H	-0.288205	0.763726	-0.436938
C138	C	-0.345309	0.804447	-0.280113
C139	C	-0.348766	0.845109	-0.381721
H140	H	-0.374103	0.803359	-0.248327
H141	H	-0.325740	0.847219	-0.239889
H142	H	-0.333740	0.735168	-0.283201
H143	H	-0.360329	0.914391	-0.378629
H144	H	-0.368338	0.802349	-0.421942
H145	H	-0.268426	1.396289	-1.106103
H146	H	-0.158999	1.217862	-0.640727
H147	H	-0.268449	1.396220	-0.907034
O148	O	-0.273015	1.126552	-0.373347
C149	C	-0.298345	1.054554	-0.313922
H150	H	-0.299930	0.976354	-0.356951
H151	H	-0.281856	1.042873	-0.234199
C152	C	-0.344199	1.193368	-0.245728
C153	C	-0.346150	1.097323	-0.298582
H154	H	-0.373687	1.219751	-0.236261
H155	H	-0.327133	1.241875	-0.285761
H156	H	-0.330457	1.183621	-0.179298
H157	H	-0.359887	1.107074	-0.365015
H158	H	-0.363219	1.048818	-0.258560
O159	O	-0.476135	1.650618	-0.373615
C160	C	-0.445355	1.709936	-0.314380
H161	H	-0.411932	1.666871	-0.310710
H162	H	-0.440316	1.789705	-0.352917
C163	C	-0.504739	1.778043	-0.207080
C164	C	-0.463690	1.725145	-0.202565
H165	H	-0.516050	1.787429	-0.138109
H166	H	-0.525477	1.738082	-0.246990
H167	H	-0.500535	1.844512	-0.239199
H168	H	-0.467896	1.658673	-0.170459
H169	H	-0.442954	1.765095	-0.162647
H170	H	-0.159021	0.819726	-0.640727
H171	H	-0.688329	1.707408	-0.317188
O172	O	-0.599604	1.718006	-0.306589
C173	C	-0.630371	1.777340	-0.247339
H174	H	-0.663799	1.780958	-0.290389
H175	H	-0.635402	1.738922	-0.167509
C176	C	-0.570968	1.884720	-0.179427
C177	C	-0.612025	1.889170	-0.232306
H178	H	-0.559651	1.953701	-0.170149
H179	H	-0.550240	1.844743	-0.219341
H180	H	-0.575167	1.852700	-0.112908
H181	H	-0.607824	1.921177	-0.298828
H182	H	-0.632752	1.929155	-0.192402
H183	H	-0.158898	1.652737	-0.807605
H184	H	-1.044925	1.640421	-0.384395
O185	O	-1.048681	1.386064	-0.638585
C186	C	-1.075764	1.445859	-0.706521
H187	H	-1.082775	1.525501	-0.669535
H188	H	-1.057649	1.457355	-0.784380
C189	C	-1.111735	1.290249	-0.770943
C190	C	-1.120350	1.388062	-0.725512
H191	H	-1.139237	1.254596	-0.782663
H192	H	-1.093488	1.249962	-0.725176
H193	H	-1.096638	1.299843	-0.835821
H194	H	-1.135441	1.378467	-0.660630
H195	H	-1.138600	1.428346	-0.771269
O196	O	-0.956198	1.385904	-0.638666
C197	C	-0.967615	1.408825	-0.743401
H198	H	-1.001660	1.449247	-0.745614
H199	H	-0.941173	1.462789	-0.778843
C200	C	-0.928002	1.256716	-0.804221
C201	C	-0.969819	1.306355	-0.806941
H202	H	-0.929360	1.193509	-0.843418
H203	H	-0.920308	1.241275	-0.733660
H204	H	-0.905972	1.301696	-0.833755
H205	H	-0.991847	1.261379	-0.777396
H206	H	-0.977516	1.321786	-0.877498
O207	O	-0.691985	1.318435	-0.705723
C208	C	-0.661217	1.259076	-0.764944
H209	H	-0.627754	1.302093	-0.768592
H210	H	-0.656272	1.179297	-0.726408
C211	C	-0.720588	1.191059	-0.872282
C212	C	-0.679489	1.243898	-0.876770
H213	H	-0.731859	1.181691	-0.941260
H214	H	-0.741317	1.231046	-0.832381
H215	H	-0.716462	1.124582	-0.840163
H216	H	-0.683617	1.310378	-0.908875
H217	H	-0.658761	1.203921	-0.916678
O218	O	-0.599547	1.318560	-0.705709
C219	C	-0.572351	1.378319	-0.773592
H220	H	-0.586451	1.461074	-0.780152
H221	H	-0.536801	1.381925	-0.741104
C222	C	-0.554301	1.225296	-0.874713
C223	C	-0.571620	1.326935	-0.882777
H224	H	-0.553848	1.193599	-0.942062
H225	H	-0.572622	1.185034	-0.828977
H226	H	-0.524678	1.228315	-0.847635
H227	H	-0.601244	1.323914	-0.909841
H228	H	-0.553304	1.367196	-0.928520
O229	O	-0.383726	1.385594	-0.638502
C230	C	-0.356532	1.445374	-0.706372
H231	H	-0.370640	1.528122	-0.712928
H232	H	-0.320985	1.448996	-0.673872
C233	C	-0.338461	1.292370	-0.807501
C234	C	-0.355791	1.394001	-0.815560
H235	H	-0.338002	1.260679	-0.874852
H236	H	-0.356781	1.252094	-0.761774
H237	H	-0.308840	1.295403	-0.780414
H238	H	-0.385413	1.390966	-0.842634
H239	H	-0.337476	1.434275	-0.861294
H240	H	-0.472554	1.396072	-0.627871
H241	H	-0.743969	1.707448	-0.317201
H242	H	-0.829088	1.707505	-0.317232
H243	H	-0.744014	1.329065	-0.695061
