data_functionalizedCrystal
_audit_creation_method	'MofGen! by Chris Wilmer'
_symmetry_space_group_name_H-M	'P1'
_symmetry_Int_Tables_number	1
_symmetry_cell_setting	triclinic
loop_
_symmetry_equiv_pos_as_xyz
  x,y,z
_cell_length_a	10.540539
_cell_length_b	9.016244
_cell_length_c	10.540539
_cell_angle_alpha	89.999933
_cell_angle_beta	95.474508
_cell_angle_gamma	90.005301
loop_
_atom_site_label
_atom_site_type_symbol
_atom_site_fract_x
_atom_site_fract_y
_atom_site_fract_z
O1	O	1.685893	0.123263	-0.178895
O2	O	1.316480	0.123280	-0.195751
O3	O	1.509614	0.123269	-0.002617
O4	O	1.492759	0.123274	-0.372030
O5	O	1.509586	-0.123411	-0.002621
O6	O	1.316452	-0.123400	-0.195755
O7	O	1.685865	-0.123418	-0.178900
Cu8	Cu	1.501156	-0.145933	-0.187328
Cu9	Cu	1.501189	0.145795	-0.187323
O10	O	1.492730	-0.123407	-0.372034
C11	C	1.269163	-0.000058	-0.194489
C12	C	1.128215	-0.000051	-0.190707
C13	C	0.944788	-0.000628	-0.045790
C14	C	1.091406	-0.000057	-0.049624
C15	C	1.066558	0.140811	-0.258600
C16	C	0.920014	0.140914	-0.253785
C17	C	0.919493	-0.139608	-0.256660
C18	C	1.066475	-0.141455	-0.257960
N19	N	1.501141	-0.351119	-0.187331
C20	C	1.397510	-0.586146	-0.290298
C21	C	1.397739	-0.414255	-0.290684
C22	C	1.633864	-0.413464	-0.217464
C23	C	1.633298	-0.585409	-0.218193
C24	C	1.473367	-0.585663	-0.053892
C25	C	1.470322	-0.413709	-0.054757
C26	C	1.733182	-0.000077	-0.180161
C27	C	1.874130	-0.000074	-0.183943
C28	C	1.508336	-0.000068	0.044684
C29	C	1.504554	-0.000060	0.185632
N30	N	1.501213	0.350982	-0.187310
C31	C	1.494008	-0.000066	-0.419335
C32	C	1.497790	-0.000064	-0.560283
C33	C	1.359637	0.000500	0.369059
C34	C	1.363471	-0.000055	0.222441
C35	C	1.572434	-0.140930	0.247287
C36	C	1.567619	-0.141049	0.393832
C37	C	1.570520	0.139473	0.394355
C38	C	1.571820	0.141336	0.247373
H39	H	1.088912	0.146054	-0.362208
O40	O	1.421455	-0.359743	-0.421798
H41	H	1.339392	-0.291445	-0.461274
H42	H	0.872266	-0.140559	-0.358564
O43	O	1.147844	-0.133805	0.021146
H44	H	1.252857	-0.133533	0.018471
H45	H	1.304121	-0.099949	0.399265
O46	O	1.573443	-0.639581	0.047695
H47	H	1.623965	-0.542934	0.094056
O48	O	1.665557	-0.638531	-0.347123
H49	H	1.681406	-0.541410	-0.408367
H50	H	1.712941	-0.626995	-0.146204
H51	H	1.309661	-0.101200	0.180683
O52	O	1.266462	-0.640963	-0.266669
H53	H	1.225200	-0.704692	-0.350794
O54	O	1.666840	-0.356421	-0.344949
H55	H	1.756984	-0.292217	-0.331703
H56	H	1.299123	-0.372106	-0.272553
O57	O	0.906901	-0.134440	0.028038
H58	H	0.957973	-0.132331	0.125110
H59	H	1.517429	-0.246347	0.422030
H60	H	1.378630	-0.629106	-0.025213
H61	H	1.674681	0.149837	0.223152
H62	H	1.676041	-0.146173	0.224933
O63	O	1.292698	0.133682	0.165991
H64	H	1.255416	0.199337	0.243409
H65	H	1.415177	-0.629339	-0.388722
O66	O	1.738595	-0.359297	-0.120826
H67	H	1.697061	-0.287186	-0.050129
O68	O	1.340982	-0.359765	-0.024495
H69	H	1.298816	-0.288662	-0.103533
O70	O	1.285802	0.134288	0.406961
H71	H	1.346776	0.201811	0.476569
H72	H	1.522153	0.245547	0.206517
H73	H	1.540849	-0.370737	0.025564
H74	H	1.669083	-0.147444	0.441800
O75	O	1.122962	0.279682	-0.196116
H76	H	1.227324	0.281306	-0.203314
H77	H	1.525258	-0.245756	0.204686
H78	H	0.872045	0.147309	-0.355250
H79	H	1.524871	0.246244	0.425910
H80	H	0.887935	-0.246381	-0.211004
O81	O	1.705501	0.140746	0.456914
H82	H	1.720776	0.042537	0.520016
H83	H	1.133163	0.101092	0.004177
O84	O	0.904788	0.132419	0.027750
H85	H	0.834805	0.198943	-0.033670
H86	H	0.891816	0.246209	-0.203602
H87	H	1.107425	-0.245664	-0.208362
H88	H	1.090700	-0.149959	-0.360819
