data_functionalizedCrystal
_audit_creation_method	'MofGen! by Chris Wilmer'
_symmetry_space_group_name_H-M	'P1'
_symmetry_Int_Tables_number	1
_symmetry_cell_setting	triclinic
loop_
_symmetry_equiv_pos_as_xyz
  x,y,z
_cell_length_a	10.489741
_cell_length_b	12.837942
_cell_length_c	11.295657
_cell_angle_alpha	94.164587
_cell_angle_beta	85.446558
_cell_angle_gamma	90.315943
loop_
_atom_site_label
_atom_site_type_symbol
_atom_site_fract_x
_atom_site_fract_y
_atom_site_fract_z
O1	O	1.701773	-0.140094	0.098948
O2	O	1.332090	-0.153833	0.098966
O3	O	1.508735	0.004000	0.098950
O4	O	1.525128	-0.297927	0.098964
O5	O	1.525570	-0.008586	-0.099095
O6	O	1.348925	-0.166419	-0.099079
O7	O	1.718607	-0.152680	-0.099098
Cu8	Cu	1.535303	-0.160699	-0.117171
Cu9	Cu	1.515394	-0.145814	0.117040
O10	O	1.541963	-0.310513	-0.099081
C11	C	1.292861	-0.159088	-0.000054
C12	C	1.150889	-0.155983	-0.000047
C13	C	1.511614	0.036369	-0.000072
C14	C	1.495096	0.151570	-0.000069
N15	N	1.549316	-0.171167	-0.281903
C16	C	1.071679	-0.055559	-0.000063
C17	C	0.976482	-0.096793	0.097583
C18	C	0.993116	-0.109226	-0.097674
C19	C	1.057555	-0.197254	0.097680
C20	C	1.074205	-0.209678	-0.097665
C21	C	0.979041	-0.250984	0.000005
C22	C	1.757836	-0.147425	-0.000075
C23	C	1.899808	-0.150529	-0.000074
C24	C	1.539084	-0.342882	-0.000057
C25	C	1.555601	-0.458082	-0.000052
C26	C	1.693670	0.391046	-0.000054
C27	C	1.678156	0.499288	-0.000051
C28	C	1.448553	0.476298	-0.000052
C29	C	1.464067	0.368056	-0.000055
C30	C	1.586630	0.325434	-0.000058
C31	C	1.602144	0.217190	-0.000069
C32	C	1.372542	0.194202	-0.000061
C33	C	1.357027	0.302444	-0.000059
C34	C	1.400385	-0.059923	-0.531243
C35	C	1.411004	-0.067840	-0.655903
C36	C	1.581164	-0.194924	-0.655885
C37	C	1.570546	-0.187007	-0.531225
C38	C	1.480154	-0.119503	-0.468909
C39	C	1.469543	-0.111581	-0.344246
C40	C	1.639696	-0.238669	-0.344231
C41	C	1.650315	-0.246587	-0.468891
N42	N	1.501391	-0.135338	0.281771
H43	H	0.933765	-0.049055	0.180134
O44	O	1.312484	0.005667	-0.470886
C45	C	1.244380	0.056584	-0.552637
H46	H	1.249713	0.008048	-0.641501
H47	H	1.288212	0.136768	-0.565889
C48	C	1.097024	0.129063	-0.394853
C49	C	1.103565	0.069446	-0.503994
H50	H	1.010164	0.137002	-0.364846
H51	H	1.142909	0.094763	-0.339774
H52	H	1.133558	0.195877	-0.405911
H53	H	1.067046	0.002630	-0.492931
H54	H	1.057670	0.103735	-0.559069
H55	H	1.723906	-0.301549	-0.519646
H56	H	1.257240	0.337162	-0.000052
H57	H	0.938724	-0.333623	0.000062
H58	H	1.116949	-0.257382	-0.180219
H59	H	1.654752	-0.249887	-0.706645
H60	H	1.704652	-0.287183	-0.293465
O61	O	1.091365	-0.241526	0.196406
C62	C	1.040337	-0.182260	0.299067
H63	H	0.954385	-0.135810	0.276311
H64	H	1.116339	-0.126232	0.332736
C65	C	1.103604	-0.313003	0.424417
C66	C	0.998030	-0.255960	0.396470
H67	H	1.077512	-0.358463	0.484502
H68	H	1.137988	-0.352931	0.355253
H69	H	1.166930	-0.266303	0.452467
H70	H	0.934713	-0.302660	0.368406
H71	H	0.963635	-0.216042	0.465631
H72	H	0.964469	-0.071962	-0.180226
H73	H	1.701941	0.182489	-0.000076
H74	H	1.346045	-0.019326	-0.706651
H75	H	1.765319	0.552707	-0.000045
O76	O	1.119914	0.042987	-0.000108
C77	C	1.085548	0.089831	-0.102104
H78	H	0.996800	0.049685	-0.135793
H79	H	1.167704	0.081518	-0.174526
C80	C	1.165914	0.255766	-0.028800
C81	C	1.056906	0.206464	-0.070172
H82	H	1.148252	0.327712	-0.009106
H83	H	1.189072	0.224207	0.039915
H84	H	1.234367	0.248828	-0.089159
H85	H	0.988460	0.213391	-0.009808
H86	H	1.033735	0.238028	-0.138876
O87	O	1.329600	0.517879	-0.000099
C88	C	1.338865	0.627488	-0.000058
H89	H	1.438598	0.649765	-0.037550
H90	H	1.320943	0.663688	0.094957
C91	C	1.115980	0.640863	-0.031671
C92	C	1.238471	0.668224	-0.077729
H93	H	1.054049	0.665993	-0.079577
H94	H	1.109736	0.567018	-0.031694
H95	H	1.101063	0.671032	0.047508
H96	H	1.253392	0.638045	-0.156900
H97	H	1.244715	0.742065	-0.077721
H98	H	1.793466	0.356343	-0.000068
H99	H	1.285383	0.140767	-0.000074
H100	H	1.395944	-0.056614	-0.293510
