data_functionalizedCrystal
_audit_creation_method	'MofGen! by Chris Wilmer'
_symmetry_space_group_name_H-M	'P1'
_symmetry_Int_Tables_number	1
_symmetry_cell_setting	triclinic
loop_
_symmetry_equiv_pos_as_xyz
  x,y,z
_cell_length_a	15.995343
_cell_length_b	19.188924
_cell_length_c	15.072220
_cell_angle_alpha	89.996779
_cell_angle_beta	89.991823
_cell_angle_gamma	83.315574
loop_
_atom_site_label
_atom_site_type_symbol
_atom_site_fract_x
_atom_site_fract_y
_atom_site_fract_z
O1	O	1.110668	0.089966	-0.073698
O2	O	1.610668	0.589966	0.426302
O3	O	0.866851	0.101085	-0.073719
O4	O	1.366851	0.601085	0.426281
O5	O	0.995798	-0.006113	-0.073697
O6	O	1.495798	0.493887	0.426303
O7	O	0.981720	0.197164	-0.073720
O8	O	1.481720	0.697164	0.426280
O9	O	0.995766	-0.006107	0.073868
O10	O	1.495766	0.493893	0.573868
O11	O	0.866819	0.101091	0.073846
O12	O	1.366819	0.601091	0.573846
O13	O	1.110636	0.089972	0.073867
O14	O	1.610636	0.589972	0.573867
Zn15	Zn	0.988722	0.095532	0.097286
Zn16	Zn	1.488722	0.595532	0.597286
Zn17	Zn	0.988764	0.095524	-0.097138
Zn18	Zn	1.488764	0.595524	0.402862
O19	O	0.981688	0.197170	0.073845
O20	O	1.481688	0.697170	0.573845
C21	C	0.835642	0.100629	0.000060
C22	C	1.335642	0.600629	0.500060
C23	C	0.742696	0.099254	0.000053
C24	C	1.242696	0.599254	0.500053
C25	C	0.572519	0.096758	0.000065
C26	C	1.072519	0.596758	0.500065
C27	C	0.549459	0.019377	0.000073
C28	C	1.049459	0.519377	0.500073
C29	C	0.452786	0.017921	0.000413
C30	C	0.952786	0.517921	0.500413
C31	C	0.404968	0.094299	0.000076
C32	C	0.904968	0.594299	0.500076
C33	C	0.433898	0.133210	0.084171
C34	C	0.933898	0.633210	0.584171
C35	C	0.530687	0.134128	0.084236
C36	C	1.030687	0.634128	0.584236
C37	C	0.530629	0.135254	-0.083579
C38	C	1.030629	0.635254	0.416421
C39	C	0.434145	0.132398	-0.084679
C40	C	0.934145	0.632398	0.415321
C41	C	0.310275	0.092914	0.000085
C42	C	0.810275	0.592914	0.500085
C43	C	0.667211	0.098145	0.000061
C44	C	1.167211	0.598145	0.500061
C45	C	0.995327	-0.032122	0.000086
C46	C	1.495327	0.467878	0.500086
C47	C	0.993962	-0.109630	0.000088
C48	C	1.493962	0.390370	0.500088
C49	C	0.993342	-0.146034	-0.080350
C50	C	1.493342	0.353966	0.419650
C51	C	0.992047	-0.218860	-0.080357
C52	C	1.492047	0.281140	0.419643
C53	C	0.991388	-0.255281	0.000079
C54	C	1.491388	0.244719	0.500079
C55	C	0.992004	-0.218868	0.080528
C56	C	1.492004	0.281132	0.580528
C57	C	0.993291	-0.146043	0.080532
C58	C	1.493291	0.353957	0.580532
N59	N	1.037004	-0.374827	0.059950
N60	N	1.537004	0.125173	0.559950
N61	N	1.035783	-0.444008	0.059940
N62	N	1.535783	0.055992	0.559940
C63	C	0.987510	-0.474700	0.000070
C64	C	1.487510	0.025300	0.500070
N65	N	0.940514	-0.433598	-0.059803
N66	N	1.440514	0.066402	0.440197
N67	N	0.941738	-0.364411	-0.059796
N68	N	1.441738	0.135589	0.440204
C69	C	0.989993	-0.334248	0.000083
C70	C	1.489993	0.165752	0.500083
C71	C	0.985485	-0.590070	-0.080381
C72	C	1.485485	-0.090070	0.419619
C73	C	0.984184	-0.662897	-0.080384
C74	C	1.484184	-0.162897	0.419616
C75	C	0.984150	-0.662905	0.080502
C76	C	1.484150	-0.162905	0.580502
C77	C	0.985442	-0.590078	0.080503
C78	C	1.485442	-0.090078	0.580503
C79	C	0.986113	-0.553666	0.000059
C80	C	1.486113	-0.053666	0.500059
C81	C	1.141845	0.090428	0.000086
C82	C	1.641845	0.590428	0.500086
C83	C	1.234791	0.091803	0.000088
C84	C	1.734791	0.591803	0.500088
C85	C	0.982159	0.223179	0.000060
C86	C	1.482159	0.723179	0.500060
C87	C	0.983525	0.300687	0.000052
C88	C	1.483525	0.800687	0.500052
N89	N	0.988700	0.095537	0.229975
N90	N	1.488700	0.595537	0.729975
N91	N	0.988793	0.095514	-0.229826
N92	N	1.488793	0.595514	0.270174
C93	C	0.988763	0.095522	0.589176
C94	C	1.488763	0.595522	1.089176
C95	C	0.919535	0.152689	0.551557
C96	C	1.419535	0.652689	1.051557
C97	C	0.919692	0.152897	0.448732
C98	C	1.419692	0.652897	0.948732
C99	C	0.988731	0.095529	0.410972
C100	C	1.488731	0.595529	0.910972
C101	C	1.076037	0.111439	0.448269
C102	C	1.576037	0.611439	0.948269
C103	C	1.075649	0.111845	0.551127
C104	C	1.575649	0.611845	1.051127
C105	C	0.971463	0.022276	0.551282
C106	C	1.471463	0.522276	1.051282
C107	C	0.969457	0.022764	0.448419
C108	C	1.469457	0.522764	0.948419
C109	C	0.988718	0.095532	0.310259
C110	C	1.488718	0.595532	0.810259
C111	C	0.988781	0.095520	0.689889
C112	C	1.488781	0.595520	1.189889
H113	H	0.557557	0.107500	0.147344
H114	H	1.057557	0.607500	0.647344
H115	H	0.930711	0.207252	0.424113
H116	H	1.430711	0.707252	0.924113
O117	O	1.031929	-0.036236	0.414387
O118	O	1.531929	0.463764	0.914387
H119	H	1.065646	-0.063381	0.471272
H120	H	1.565646	0.436619	0.971272
O121	O	1.145918	0.058798	0.584100
O122	O	1.645918	0.558798	1.084100
H123	H	1.180031	0.032972	0.526577
H124	H	1.680031	0.532972	1.026577
H125	H	0.993792	-0.116403	0.146037
H126	H	1.493792	0.383597	0.646037
H127	H	0.986026	-0.560421	-0.145883
H128	H	1.486026	-0.060421	0.354117
O129	O	0.833279	0.140344	0.584351
O130	O	1.333279	0.640344	1.084351
H131	H	0.785559	0.181314	0.556920
H132	H	1.285559	0.681314	1.056920
H133	H	0.545050	0.190873	0.087826
H134	H	1.045050	0.690873	0.587826
O135	O	0.427751	-0.022443	-0.079404
O136	O	0.927751	0.477557	0.420596
H137	H	0.484742	-0.041097	-0.118595
H138	H	0.984742	0.458903	0.381405
H139	H	0.578539	-0.010125	0.060295
H140	H	1.078539	0.489875	0.560295
O141	O	0.983437	-0.702181	0.167258
O142	O	1.483437	-0.202181	0.667258
H143	H	0.984082	-0.664628	0.223195
H144	H	1.484082	-0.164628	0.723195
H145	H	0.401843	0.189422	0.087056
H146	H	0.901843	0.689422	0.587056
H147	H	0.985954	-0.560439	0.146005
H148	H	1.485954	-0.060439	0.646005
H149	H	1.128771	0.070909	0.423809
H150	H	1.628771	0.570909	0.923809
H151	H	1.021951	-0.020266	0.575609
H152	H	1.521951	0.479734	1.075609
H153	H	1.090934	0.165263	0.575104
H154	H	1.590934	0.665263	1.075104
O155	O	0.994045	-0.106757	-0.167110
O156	O	1.494045	0.393243	0.332890
H157	H	0.993384	-0.144309	-0.223045
H158	H	1.493384	0.355691	0.276955
H159	H	0.413891	0.106517	0.146998
H160	H	0.913891	0.606517	0.646998
O161	O	0.833716	0.140357	0.415319
O162	O	1.333716	0.640357	0.915319
H163	H	0.791650	0.134091	0.472628
H164	H	1.291650	0.634091	0.972628
O165	O	0.548903	0.210702	-0.084682
O166	O	1.048903	0.710702	0.415318
H167	H	0.617992	0.212371	-0.087230
H168	H	1.117992	0.712371	0.412770
H169	H	0.991537	-0.248505	-0.145861
H170	H	1.491537	0.251495	0.354139
O171	O	0.991309	-0.258146	0.167287
O172	O	1.491309	0.241854	0.667287
H173	H	0.990324	-0.314905	0.153771
H174	H	1.490324	0.185095	0.653771
O175	O	0.983483	-0.702163	-0.167146
O176	O	1.483483	-0.202163	0.332854
H177	H	0.984162	-0.664605	-0.223079
H178	H	1.484162	-0.164605	0.276921
O179	O	0.428484	-0.022227	0.080739
O180	O	0.928484	0.477773	0.580739
H181	H	0.384505	0.012593	0.122711
H182	H	0.884505	0.512593	0.622711
O183	O	0.568204	0.102909	-0.168041
O184	O	1.068204	0.602909	0.331959
H185	H	0.517993	0.082738	-0.208103
H186	H	1.017993	0.582738	0.291897
O187	O	0.933922	0.224288	0.585763
O188	O	1.433922	0.724288	1.085763
H189	H	0.990165	0.219335	0.629439
H190	H	1.490165	0.719335	1.129439
H191	H	1.091694	0.164248	0.422496
H192	H	1.591694	0.664248	0.922496
H193	H	0.909197	0.006977	0.577269
H194	H	1.409197	0.506977	1.077269
O195	O	0.884383	0.006767	0.416147
O196	O	1.384383	0.506767	0.916147
H197	H	0.855940	0.050452	0.373608
H198	H	1.355940	0.550452	0.873608
H199	H	0.415706	0.104061	-0.146894
H200	H	0.915706	0.604061	0.353106
H201	H	0.577590	-0.010618	-0.060223
H202	H	1.077590	0.489382	0.439777
H203	H	0.400983	0.188127	-0.090024
H204	H	0.900983	0.688127	0.409976
