data_functionalizedCrystal
_audit_creation_method	'MofGen! by Chris Wilmer'
_symmetry_space_group_name_H-M	'P1'
_symmetry_Int_Tables_number	1
_symmetry_cell_setting	triclinic
loop_
_symmetry_equiv_pos_as_xyz
  x,y,z
_cell_length_a	18.101398
_cell_length_b	29.839131
_cell_length_c	18.101389
_cell_angle_alpha	90.028941
_cell_angle_beta	90.024327
_cell_angle_gamma	90.030494
loop_
_atom_site_label
_atom_site_type_symbol
_atom_site_fract_x
_atom_site_fract_y
_atom_site_fract_z
Zn1	Zn	1.132100	-0.178957	0.418785
Zn2	Zn	1.632100	0.321043	0.918785
Zn3	Zn	1.131987	-0.254074	0.294920
Zn4	Zn	1.631987	0.245926	0.794920
Zn5	Zn	1.008259	-0.178952	0.294946
Zn6	Zn	1.508259	0.321048	0.794946
Zn7	Zn	1.008200	-0.254055	0.418709
Zn8	Zn	1.508200	0.245945	0.918709
O9	O	1.070136	-0.216510	0.356840
O10	O	1.570136	0.283490	0.856840
O11	O	1.235718	-0.188932	0.402375
O12	O	1.735718	0.311068	0.902375
O13	O	1.115551	-0.244115	0.191291
O14	O	1.615551	0.255885	0.691291
O15	O	1.024758	-0.116086	0.311415
O16	O	1.524758	0.383914	0.811415
O17	O	1.235635	-0.244119	0.311372
O18	O	1.735635	0.255881	0.811372
O19	O	1.115744	-0.116089	0.402399
O20	O	1.615744	0.383911	0.902399
O21	O	1.024648	-0.188924	0.191309
O22	O	1.524648	0.311076	0.691309
O23	O	0.904618	-0.188905	0.311342
O24	O	1.404618	0.311095	0.811342
O25	O	1.024659	-0.244087	0.522352
O26	O	1.524659	0.255913	1.022352
O27	O	0.904575	-0.244082	0.402270
O28	O	1.404575	0.255918	0.902270
O29	O	1.115687	-0.188913	0.522407
O30	O	1.615687	0.311087	1.022407
O31	O	1.115495	-0.316938	0.311299
O32	O	1.615495	0.183062	0.811299
O33	O	1.024549	-0.316924	0.402246
O34	O	1.524549	0.183076	0.902246
C35	C	0.877726	-0.216491	0.356801
C36	C	1.377726	0.283509	0.856801
C37	C	0.795412	-0.216494	0.356802
C38	C	1.295412	0.283506	0.856802
C39	C	0.496321	-0.216522	0.356864
C40	C	0.996321	0.283478	0.856864
C41	C	0.527648	-0.181633	0.299934
C42	C	1.027648	0.318367	0.799934
C43	C	0.613266	-0.181726	0.299691
C44	C	1.113266	0.318274	0.799691
C45	C	0.644703	-0.216508	0.356834
C46	C	1.144703	0.283492	0.856834
C47	C	0.613580	-0.263830	0.335495
C48	C	1.113580	0.236170	0.835495
C49	C	0.527934	-0.263636	0.335099
C50	C	1.027934	0.236364	0.835099
C51	C	0.527937	-0.204501	0.435267
C52	C	1.027937	0.295499	0.935267
C53	C	0.613588	-0.203447	0.434840
C54	C	1.113588	0.296553	0.934840
C55	C	0.728563	-0.216503	0.356817
C56	C	1.228563	0.283497	0.856817
C57	C	0.412461	-0.216531	0.356879
C58	C	0.912461	0.283469	0.856879
C59	C	1.070023	-0.333232	0.356777
C60	C	1.570023	0.166768	0.856777
C61	C	1.070043	-0.383167	0.356775
C62	C	1.570043	0.116833	0.856775
C63	C	1.117502	-0.692777	0.404283
C64	C	1.617502	-0.192777	0.904283
C65	C	1.117583	-0.880450	0.404327
C66	C	1.617583	-0.380450	0.904327
O67	O	1.157824	-0.904687	0.444673
O68	O	1.657824	-0.404687	0.944673
N69	N	1.070262	-0.903952	0.356922
N70	N	1.570262	-0.403952	0.856922
C71	C	1.022915	-0.880532	0.309506
C72	C	1.522915	-0.380532	0.809506
O73	O	0.982662	-0.904828	0.269191
O74	O	1.482662	-0.404828	0.769191
C75	C	1.022831	-0.692860	0.309466
C76	C	1.522831	-0.192860	0.809466
C77	C	1.070160	-0.669361	0.356869
C78	C	1.570160	-0.169361	0.856869
C79	C	1.164827	-0.669277	0.451682
C80	C	1.664827	-0.169277	0.951682
C81	C	1.164809	-0.622362	0.451668
C82	C	1.664809	-0.122362	0.951668
C83	C	1.117467	-0.598946	0.404254
C84	C	1.617467	-0.098946	0.904254
C85	C	1.070142	-0.622445	0.356854
C86	C	1.570142	-0.122445	0.856854
C87	C	0.975481	-0.669441	0.262054
C88	C	1.475481	-0.169441	0.762054
C89	C	0.975463	-0.622520	0.262049
C90	C	1.475463	-0.122520	0.762049
C91	C	1.022792	-0.599021	0.309452
C92	C	1.522792	-0.099021	0.809452
C93	C	1.022783	-0.552114	0.309426
C94	C	1.522783	-0.052114	0.809426
N95	N	1.070103	-0.528612	0.356831
N96	N	1.570103	-0.028612	0.856831
C97	C	1.117445	-0.552028	0.404245
C98	C	1.617445	-0.052028	0.904245
C99	C	1.022963	-0.979063	0.309529
C100	C	1.522963	-0.479063	0.809529
C101	C	1.022985	-1.025981	0.309538
C102	C	1.522985	-0.525981	0.809538
C103	C	1.117652	-1.025895	0.404361
C104	C	1.617652	-0.525895	0.904361
C105	C	1.117633	-0.978976	0.404347
C106	C	1.617633	-0.478976	0.904347
C107	C	1.070284	-0.955561	0.356934
C108	C	1.570284	-0.455561	0.856934
C109	C	1.117405	-0.453502	0.404210
C110	C	1.617405	0.046498	0.904210
C111	C	1.117385	-0.406583	0.404190
C112	C	1.617385	0.093417	0.904190
C113	C	1.022716	-0.406672	0.309370
C114	C	1.522716	0.093328	0.809370
C115	C	1.022738	-0.453588	0.309388
C116	C	1.522738	0.046412	0.809388
C117	C	1.070085	-0.477002	0.356814
C118	C	1.570085	0.022998	0.856814
O119	O	0.982557	-0.527848	0.269107
O120	O	1.482557	-0.027848	0.769107
O121	O	1.157680	-0.527724	0.444565
O122	O	1.657680	-0.027724	0.944565
C123	C	1.117520	-0.739692	0.404297
C124	C	1.617520	-0.239692	0.904297
C125	C	1.070196	-0.763192	0.356897
C126	C	1.570196	-0.263192	0.856897
C127	C	1.022853	-0.739776	0.309483
C128	C	1.522853	-0.239776	0.809483
C129	C	1.070217	-0.810109	0.356906
C130	C	1.570217	-0.310109	0.856906
C131	C	1.117559	-0.833526	0.404321
C132	C	1.617559	-0.333526	0.904321
C133	C	1.164880	-0.810024	0.451726
C134	C	1.664880	-0.310024	0.951726
C135	C	1.164862	-0.763108	0.451711
C136	C	1.664862	-0.263108	0.951711
C137	C	0.975533	-0.763277	0.262078
C138	C	1.475533	-0.263277	0.762078
C139	C	0.975555	-0.810193	0.262096
C140	C	1.475555	-0.310193	0.762096
C141	C	1.022897	-0.833609	0.309510
C142	C	1.522897	-0.333609	0.809510
C143	C	1.263298	-0.216528	0.356879
C144	C	1.763298	0.283472	0.856879
C145	C	1.345612	-0.216536	0.356896
C146	C	1.845612	0.283464	0.856896
C147	C	1.070179	-0.216498	0.550002
C148	C	1.570179	0.283502	1.050002
C149	C	1.070197	-0.216493	0.632316
C150	C	1.570197	0.283507	1.132316
C151	C	1.070270	-0.099331	0.356919
C152	C	1.570270	0.400669	0.856919
C153	C	1.070327	-0.049397	0.356952
C154	C	1.570327	0.450603	0.856952
C155	C	1.070136	-0.216488	0.164429
C156	C	1.570136	0.283512	0.664429
C157	C	1.070262	-0.216367	0.082116
C158	C	1.570262	0.283633	0.582116
C159	C	1.070241	-0.216409	0.931407
C160	C	1.570241	0.283591	1.431407
C161	C	1.012771	-0.251013	0.900047
C162	C	1.512771	0.248987	1.400047
C163	C	1.012926	-0.251173	0.814429
C164	C	1.512926	0.248827	1.314429
C165	C	1.070219	-0.216451	0.783025
C166	C	1.570219	0.283549	1.283025
C167	C	1.148242	-0.229306	0.814126
C168	C	1.648242	0.270694	1.314126
C169	C	1.147922	-0.229533	0.899771
C170	C	1.647922	0.270467	1.399771
C171	C	1.050365	-0.168874	0.899846
C172	C	1.550365	0.331126	1.399846
C173	C	1.048629	-0.169148	0.814195
C174	C	1.548629	0.330852	1.314195
C175	C	1.070211	-0.216474	0.699165
C176	C	1.570211	0.283526	1.199165
C177	C	1.070253	-0.216387	1.015267
C178	C	1.570253	0.283613	1.515267
H179	H	0.633941	-0.290522	0.375662
H180	H	1.133941	0.209478	0.875662
H181	H	1.192211	-0.204894	0.793788
H182	H	1.692211	0.295106	1.293788
N183	N	1.213221	-0.739107	0.500117
N184	N	1.713221	-0.239107	1.000117
N185	N	1.260424	-0.712922	0.474094
N186	N	1.760424	-0.212922	0.974094
H187	H	1.294586	-0.695974	0.508280
H188	H	1.794586	-0.195974	1.008280
H189	H	0.936902	-0.603458	0.223441
H190	H	1.436902	-0.103458	0.723441
N191	N	0.638919	-0.191696	0.226809
N192	N	1.138919	0.308304	0.726809
N193	N	0.593569	-0.198609	0.175965
N194	N	1.093569	0.301391	0.675965
H195	H	0.611684	-0.205652	0.124488
H196	H	1.111684	0.294348	0.624488
H197	H	0.994459	-0.157163	0.921435
H198	H	1.494459	0.342837	1.421435
H199	H	0.991210	-0.159454	0.793866
H200	H	1.491210	0.340546	1.293866
N201	N	0.974357	-0.382757	0.260930
N202	N	1.474357	0.117243	0.760930
N203	N	0.979304	-0.388021	0.192600
N204	N	1.479304	0.111979	0.692600
H205	H	0.945147	-0.371131	0.158391
H206	H	1.445147	0.128869	0.658391
N207	N	0.640445	-0.276839	0.264368
N208	N	1.140445	0.223161	0.764368
N209	N	0.682505	-0.251341	0.229270
N210	N	1.182505	0.248659	0.729270
H211	H	0.701478	-0.260526	0.179034
H212	H	1.201478	0.239474	0.679034
N213	N	0.927216	-0.834201	0.213671
N214	N	1.427216	-0.334201	0.713671
N215	N	0.953301	-0.860391	0.166511
N216	N	1.453301	-0.360391	0.666511
H217	H	0.919159	-0.877346	0.132315
H218	H	1.419159	-0.377346	0.632315
N219	N	1.102861	-0.136527	0.925303
N220	N	1.602861	0.363473	1.425303
N221	N	1.081842	-0.103795	0.962924
N222	N	1.581842	0.396205	1.462924
H223	H	1.118918	-0.080952	0.980907
H224	H	1.618918	0.419048	1.480907
N225	N	0.927131	-0.693434	0.213631
N226	N	1.427131	-0.193434	0.713631
N227	N	0.932064	-0.688215	0.145299
N228	N	1.432064	-0.188215	0.645299
H229	H	0.897910	-0.705159	0.111099
H230	H	1.397910	-0.205159	0.611099
H231	H	1.087433	-0.141998	0.792819
H232	H	1.587433	0.358002	1.292819
H233	H	1.155928	-0.387451	0.442791
H234	H	1.655928	0.112549	0.942791
N235	N	0.974602	-0.955145	0.261090
N236	N	1.474602	-0.455145	0.761090
N237	N	1.000665	-0.928968	0.213918
N238	N	1.500665	-0.428968	0.713918
H239	H	0.966510	-0.912075	0.179708
H240	H	1.466510	-0.412075	0.679708
N241	N	0.500900	-0.161964	0.459613
N242	N	1.000900	0.338036	0.959613
N243	N	0.520186	-0.146764	0.521028
N244	N	1.020186	0.353236	1.021028
H245	H	0.501092	-0.116720	0.538215
H246	H	1.001092	0.383280	1.038215
H247	H	0.633936	-0.168623	0.450930
H248	H	1.133936	0.331377	0.950930
H249	H	0.984205	-0.472722	0.270783
H250	H	1.484205	0.027278	0.770783
N251	N	0.502548	-0.236384	0.488486
N252	N	1.002548	0.263616	0.988486
N253	N	0.517930	-0.276966	0.480997
N254	N	1.017930	0.223034	0.980997
H255	H	0.500003	-0.299486	0.518579
H256	H	1.000003	0.200514	1.018579
N257	N	1.213240	-0.833955	0.500148
N258	N	1.713240	-0.333955	1.000148
N259	N	1.213244	-0.875845	0.500145
N260	N	1.713244	-0.375845	1.000145
H261	H	1.247394	-0.892749	0.534343
H262	H	1.747394	-0.392749	1.034343
H263	H	1.155954	-0.472560	0.442834
H264	H	1.655954	0.027440	0.942834
H265	H	0.936980	-0.744215	0.223469
H266	H	1.436980	-0.244215	0.723469
N267	N	0.501851	-0.137475	0.316530
N268	N	1.001851	0.362525	0.816530
N269	N	0.516528	-0.120012	0.377583
N270	N	1.016528	0.379988	0.877583
H271	H	0.498302	-0.088825	0.389305
H272	H	0.998302	0.411175	0.889305
N273	N	0.639661	-0.137700	0.316450
N274	N	1.139661	0.362300	0.816450
N275	N	0.594828	-0.106689	0.328408
N276	N	1.094828	0.393311	0.828408
H277	H	0.613465	-0.075591	0.340234
H278	H	1.113465	0.424409	0.840234
H279	H	0.507921	-0.273832	0.277782
H280	H	1.007921	0.226168	0.777782
H281	H	0.506098	-0.189489	0.242177
H282	H	1.006098	0.310511	0.742177
N283	N	0.940342	-0.241079	0.788053
N284	N	1.440342	0.258921	1.288053
N285	N	0.889216	-0.233867	0.832898
N286	N	1.389216	0.266133	1.332898
H287	H	0.837949	-0.226740	0.814274
H288	H	1.337949	0.273260	1.314274
N289	N	0.939971	-0.241018	0.925872
N290	N	1.439971	0.258982	1.425872
N291	N	0.929590	-0.208278	0.967695
N292	N	1.429590	0.291722	1.467695
H293	H	0.878173	-0.201219	0.985940
H294	H	1.378173	0.298781	1.485940
H295	H	0.634990	-0.227008	0.479532
H296	H	1.134990	0.272992	0.979532
N297	N	0.501941	-0.297354	0.384844
N298	N	1.001941	0.202646	0.884844
N299	N	0.547055	-0.320955	0.419738
N300	N	1.047055	0.179045	0.919738
H301	H	0.528701	-0.344770	0.454867
H302	H	1.028701	0.155230	0.954867
H303	H	1.025762	-0.286032	0.921562
H304	H	1.525762	0.213968	1.421562
H305	H	1.203346	-0.603232	0.490269
H306	H	1.703346	-0.103232	0.990269
H307	H	1.026048	-0.286408	0.793936
H308	H	1.526048	0.213592	1.293936
H309	H	1.203378	-0.688338	0.490297
H310	H	1.703378	-0.188338	0.990297
H311	H	1.156172	-0.959846	0.442947
H312	H	1.656172	-0.459846	0.942947
N313	N	1.166011	-1.049826	0.452785
N314	N	1.666011	-0.549826	0.952785
N315	N	1.166017	-1.091716	0.452780
N316	N	1.666017	-0.591716	0.952780
H317	H	1.200167	-1.108620	0.486980
H318	H	1.700167	-0.608620	0.986980
N319	N	0.974648	-1.049975	0.261099
N320	N	1.474648	-0.549975	0.761099
N321	N	0.932385	-1.029056	0.218770
N322	N	1.432385	-0.529056	0.718770
H323	H	0.898244	-1.046000	0.184559
H324	H	1.398244	-0.546000	0.684559
N325	N	1.169067	-0.273125	0.924821
N326	N	1.669067	0.226875	1.424821
N327	N	1.183956	-0.303169	0.879051
N328	N	1.683956	0.196831	1.379051
H329	H	1.198891	-0.333957	0.896738
H330	H	1.698891	0.166043	1.396738
N331	N	1.203459	-0.199287	0.925793
N332	N	1.703459	0.300713	1.425793
N333	N	1.242334	-0.178080	0.880699
N334	N	1.742334	0.321920	1.380699
H335	H	1.281557	-0.156720	0.899073
H336	H	1.781557	0.343280	1.399073
N337	N	1.169743	-0.272434	0.787208
N338	N	1.669743	0.227566	1.287208
N339	N	1.127738	-0.293777	0.745128
N340	N	1.627738	0.206223	1.245128
H341	H	1.142919	-0.324237	0.726116
H342	H	1.642919	0.175763	1.226116
