data_functionalizedCrystal
_audit_creation_method	'MofGen! by Chris Wilmer'
_symmetry_space_group_name_H-M	'P1'
_symmetry_Int_Tables_number	1
_symmetry_cell_setting	triclinic
loop_
_symmetry_equiv_pos_as_xyz
  x,y,z
_cell_length_a	19.188905
_cell_length_b	19.188930
_cell_length_c	17.666332
_cell_angle_alpha	89.988397
_cell_angle_beta	89.983521
_cell_angle_gamma	83.139668
loop_
_atom_site_label
_atom_site_type_symbol
_atom_site_fract_x
_atom_site_fract_y
_atom_site_fract_z
O1	O	0.926161	0.087086	-0.063081
O2	O	1.426161	0.587086	0.436919
O3	O	0.722847	0.098838	-0.063057
O4	O	1.222847	0.598838	0.436943
O5	O	0.830371	-0.008694	-0.063055
O6	O	1.330371	0.491306	0.436945
O7	O	0.818637	0.194618	-0.063083
O8	O	1.318637	0.694618	0.436917
O9	O	0.830352	-0.008700	0.062842
O10	O	1.330352	0.491300	0.562842
O11	O	0.722828	0.098832	0.062840
O12	O	1.222828	0.598832	0.562840
O13	O	0.926142	0.087080	0.062815
O14	O	1.426142	0.587080	0.562815
Cu15	Cu	0.824483	0.092956	0.074323
Cu16	Cu	1.324483	0.592956	0.574323
Cu17	Cu	0.824506	0.092962	-0.074565
Cu18	Cu	1.324506	0.592962	0.425435
O19	O	0.818618	0.194612	0.062814
O20	O	1.318618	0.694612	0.562814
C21	C	0.696826	0.098458	-0.000105
C22	C	1.196826	0.598458	0.499895
C23	C	0.619321	0.097324	-0.000095
C24	C	1.119321	0.597324	0.499905
C25	C	0.582939	0.096782	-0.068723
C26	C	1.082939	0.596782	0.431277
C27	C	0.510116	0.095709	-0.068732
C28	C	1.010116	0.595709	0.431268
C29	C	0.473678	0.095164	-0.000110
C30	C	0.973678	0.595164	0.499890
C31	C	0.510068	0.095709	0.068528
C32	C	1.010068	0.595709	0.568528
C33	C	0.582889	0.096789	0.068535
C34	C	1.082889	0.596789	0.568535
N35	N	0.364650	0.053733	0.050966
N36	N	0.864650	0.553733	0.550966
N37	N	0.295473	0.052705	0.050954
N38	N	0.795473	0.552705	0.550954
C39	C	0.254272	0.091911	-0.000127
C40	C	0.754272	0.591911	0.499873
N41	N	0.284861	0.132174	-0.051208
N42	N	0.784861	0.632174	0.448792
N43	N	0.354045	0.133199	-0.051199
N44	N	0.854045	0.633199	0.448801
C45	C	0.394716	0.093993	-0.000110
C46	C	0.894716	0.593993	0.499890
C47	C	0.138926	0.090207	-0.068770
C48	C	0.638926	0.590207	0.431230
C49	C	0.066101	0.089138	-0.068777
C50	C	0.566101	0.589138	0.431223
C51	C	0.066055	0.089131	0.068485
C52	C	0.566055	0.589131	0.568485
C53	C	0.138879	0.090207	0.068490
C54	C	0.638879	0.590207	0.568490
C55	C	0.175310	0.090742	-0.000140
C56	C	0.675310	0.590742	0.499860
C57	C	0.829982	-0.034708	-0.000104
C58	C	1.329982	0.465292	0.499896
C59	C	0.828841	-0.112213	-0.000098
C60	C	1.328841	0.387787	0.499902
C61	C	0.891933	-0.157142	-0.000102
C62	C	1.391933	0.342858	0.499898
C63	C	0.890861	-0.229966	-0.000114
C64	C	1.390861	0.270034	0.499886
C65	C	0.826694	-0.257857	-0.000107
C66	C	1.326694	0.242143	0.499893
C67	C	0.763594	-0.212917	-0.000107
C68	C	1.263594	0.287083	0.499893
C69	C	0.764668	-0.140095	-0.000102
C70	C	1.264668	0.359905	0.499898
N71	N	0.777640	-0.365859	0.042744
N72	N	1.277640	0.134141	0.542744
N73	N	0.776624	-0.435038	0.042742
N74	N	1.276624	0.064962	0.542742
C75	C	0.823456	-0.477265	-0.000122
C76	C	1.323456	0.022735	0.499878
N77	N	0.871352	-0.447702	-0.042973
N78	N	1.371352	0.052298	0.457027
N79	N	0.872369	-0.378517	-0.042967
N80	N	1.372369	0.121483	0.457033
C81	C	0.825523	-0.336819	-0.000112
C82	C	1.325523	0.163181	0.499888
C83	C	0.885390	-0.601159	-0.000140
C84	C	1.385390	-0.101159	0.499860
C85	C	0.884315	-0.673984	-0.000156
C86	C	1.384315	-0.173984	0.499844
C87	C	0.757047	-0.656933	-0.000142
C88	C	1.257047	-0.156933	0.499858
C89	C	0.758123	-0.584110	-0.000133
C90	C	1.258123	-0.084110	0.499867
C91	C	0.822296	-0.556228	-0.000128
C92	C	1.322296	-0.056228	0.499872
C93	C	0.952163	0.087460	-0.000138
C94	C	1.452163	0.587460	0.499862
C95	C	1.029668	0.088594	-0.000153
C96	C	1.529668	0.588594	0.499847
C97	C	0.819007	0.220626	-0.000139
C98	C	1.319007	0.720626	0.499861
C99	C	0.820148	0.298131	-0.000150
C100	C	1.320148	0.798131	0.499850
N101	N	0.824473	0.092950	0.179042
N102	N	1.324473	0.592950	0.679042
N103	N	0.824522	0.092962	-0.179284
N104	N	1.324522	0.592962	0.320716
C105	C	0.872100	0.045358	0.218653
C106	C	1.372100	0.545358	0.718653
C107	C	0.872104	0.045355	0.297901
C108	C	1.372104	0.545355	0.797901
C109	C	0.824488	0.092956	0.337535
C110	C	1.324488	0.592956	0.837535
C111	C	0.776852	0.140552	0.297915
C112	C	1.276852	0.640552	0.797915
C113	C	0.776844	0.140549	0.218668
C114	C	1.276844	0.640549	0.718668
N115	N	0.815411	0.154764	0.461945
N116	N	1.315411	0.654764	0.961945
N117	N	0.815422	0.154764	0.537226
N118	N	1.315422	0.654764	1.037226
C119	C	0.824506	0.092966	0.576299
C120	C	1.324506	0.592966	1.076299
N121	N	0.833592	0.031164	0.537247
N122	N	1.333592	0.531164	1.037247
N123	N	0.833584	0.031165	0.461960
N124	N	1.333584	0.531165	0.961960
C125	C	0.824490	0.092964	0.423464
C126	C	1.324490	0.592964	0.923464
C127	C	0.872140	0.045366	0.701838
C128	C	1.372140	0.545366	1.201838
C129	C	0.872139	0.045361	0.781087
C130	C	1.372139	0.545361	1.281087
C131	C	0.776890	0.140564	0.781100
C132	C	1.276890	0.640564	1.281100
C133	C	0.776888	0.140562	0.701852
C134	C	1.276888	0.640562	1.201852
C135	C	0.824516	0.092964	0.662226
C136	C	1.324516	0.592964	1.162226
H137	H	0.168589	0.090650	-0.124653
H138	H	0.668589	0.590650	0.375347
Br139	Br	0.016723	0.088413	-0.161924
Br140	Br	0.516723	0.588413	0.338076
Br141	Br	0.936734	-0.019240	0.164874
Br142	Br	1.436734	0.480760	0.664874
H143	H	0.910889	0.006598	0.330157
H144	H	1.410889	0.506598	0.830157
H145	H	0.713289	-0.103513	-0.000099
H146	H	1.213289	0.396487	0.499901
H147	H	0.937644	-0.578456	-0.000139
H148	H	1.437644	-0.078456	0.499861
Br149	Br	0.712224	0.205149	0.351700
Br150	Br	1.212224	0.705149	0.851700
H151	H	0.480396	0.095267	0.124401
H152	H	0.980396	0.595267	0.624401
Br153	Br	0.969948	-0.734962	-0.000170
Br154	Br	1.469948	-0.234962	0.499830
Br155	Br	0.936775	-0.019239	0.834849
Br156	Br	1.436775	0.480761	1.334849
Br157	Br	0.712250	0.205157	0.648089
Br158	Br	1.212250	0.705157	1.148089
Br159	Br	0.712260	0.205158	0.834882
Br160	Br	1.212260	0.705158	1.334882
H161	H	0.706747	-0.547527	-0.000125
H162	H	1.206747	-0.047527	0.499875
Br163	Br	0.632379	0.097509	-0.161863
Br164	Br	1.132379	0.597509	0.338137
H165	H	0.704801	-0.679641	-0.000140
H166	H	1.204801	-0.179641	0.499860
H167	H	0.910920	0.006606	0.669574
H168	H	1.410920	0.506606	1.169574
Br169	Br	0.460729	0.094976	-0.161877
Br170	Br	0.960729	0.594976	0.338123
Br171	Br	0.632268	0.097526	0.161681
Br172	Br	1.132268	0.597526	0.661681
Br173	Br	0.016611	0.088401	0.161619
Br174	Br	0.516611	0.588401	0.661619
Br175	Br	0.188258	0.090940	0.161634
Br176	Br	0.688258	0.590940	0.661634
H177	H	0.944187	-0.134445	-0.000101
H178	H	1.444187	0.365555	0.499899
Br179	Br	0.976491	-0.290954	-0.000123
Br180	Br	1.476491	0.209046	0.499877
Br181	Br	0.712202	0.205142	0.164907
Br182	Br	1.212202	0.705142	0.664907
Br183	Br	0.676510	-0.250767	-0.000107
Br184	Br	1.176510	0.249233	0.499893
