data_functionalizedCrystal
_audit_creation_method	'MofGen! by Chris Wilmer'
_symmetry_space_group_name_H-M	'P1'
_symmetry_Int_Tables_number	1
_symmetry_cell_setting	triclinic
loop_
_symmetry_equiv_pos_as_xyz
  x,y,z
_cell_length_a	14.519709
_cell_length_b	13.101039
_cell_length_c	14.519731
_cell_angle_alpha	86.632198
_cell_angle_beta	96.315501
_cell_angle_gamma	86.642264
loop_
_atom_site_label
_atom_site_type_symbol
_atom_site_fract_x
_atom_site_fract_y
_atom_site_fract_z
O1	O	-1.228933	0.085070	0.115817
O2	O	-0.895599	0.418404	0.449150
O3	O	-0.562266	0.751737	0.782484
O4	O	-0.960459	0.085105	0.130051
O5	O	-0.627126	0.418438	0.463385
O6	O	-0.293792	0.751771	0.796718
O7	O	-1.101803	0.085077	-0.011302
O8	O	-0.768470	0.418411	0.322031
O9	O	-0.435137	0.751744	0.655364
O10	O	-1.087588	0.085098	0.257171
O11	O	-0.754255	0.418431	0.590504
O12	O	-0.420922	0.751764	0.923837
O13	O	-1.091662	-0.085351	-0.001144
O14	O	-0.758329	0.247983	0.332190
O15	O	-0.424995	0.581316	0.665523
O16	O	-0.950318	-0.085323	0.140210
O17	O	-0.616984	0.248010	0.473543
O18	O	-0.283651	0.581343	0.806877
O19	O	-1.218791	-0.085358	0.125976
O20	O	-0.885458	0.247976	0.459309
O21	O	-0.552125	0.581309	0.792642
Zn22	Zn	-1.082944	-0.112400	0.134706
Zn23	Zn	-0.749611	0.220934	0.468039
Zn24	Zn	-0.416278	0.554267	0.801373
Zn25	Zn	-1.096306	0.112147	0.121321
Zn26	Zn	-0.762973	0.445480	0.454655
Zn27	Zn	-0.429639	0.778813	0.787988
O28	O	-1.077447	-0.085330	0.267329
O29	O	-0.744114	0.248003	0.600663
O30	O	-0.410780	0.581336	0.933996
C31	C	-0.921029	-0.000105	0.134467
C32	C	-0.587695	0.333228	0.467800
C33	C	-0.254362	0.666562	0.801134
C34	C	-0.818648	-0.000092	0.132478
C35	C	-0.485315	0.333241	0.465811
C36	C	-0.151981	0.666574	0.799145
C37	C	-0.443749	-0.000136	0.125161
C38	C	-0.110416	0.333198	0.458495
C39	C	0.222918	0.666531	0.791828
C40	C	-0.548058	-0.000123	0.127193
C41	C	-0.214725	0.333210	0.460526
C42	C	0.118609	0.666544	0.793860
C43	C	-0.631195	-0.000113	0.128819
C44	C	-0.297862	0.333220	0.462153
C45	C	0.035471	0.666554	0.795486
C46	C	-0.735511	-0.000102	0.130852
C47	C	-0.402177	0.333231	0.464185
C48	C	-0.068844	0.666564	0.797518
N49	N	-1.073832	-0.265646	0.143840
N50	N	-0.740499	0.067687	0.477173
N51	N	-0.407166	0.401020	0.810507
C52	C	-1.061435	-0.474686	0.156276
C53	C	-0.728101	-0.141353	0.489609
C54	C	-0.394768	0.191980	0.822942
C55	C	-1.117820	-0.525573	0.099747
C56	C	-0.784487	-0.192240	0.433081
C57	C	-0.451153	0.141094	0.766414
C58	C	-1.110922	-0.641890	0.106667
C59	C	-0.777588	-0.308557	0.440000
C60	C	-0.444255	0.024776	0.773333
C61	C	-1.068332	-0.358359	0.149357
C62	C	-0.734998	-0.025025	0.482691
C63	C	-0.401665	0.308308	0.816024
C64	C	-0.258222	-0.000143	0.121560
C65	C	0.075111	0.333190	0.454893
C66	C	0.408445	0.666524	0.788227
C67	C	-0.360603	-0.000142	0.123548
C68	C	-0.027270	0.333192	0.456881
C69	C	0.306063	0.666525	0.790215
C70	C	-1.096066	-0.000137	-0.040582
C71	C	-0.762733	0.333197	0.292751
C72	C	-0.429400	0.666530	0.626084
C73	C	-1.094070	-0.000137	-0.142963
C74	C	-0.760737	0.333196	0.190371
C75	C	-0.427404	0.666529	0.523704
N76	N	-1.105425	0.265393	0.112180
N77	N	-0.772092	0.598727	0.445513
N78	N	-0.438759	0.932060	0.778847
C79	C	-1.092449	-0.000135	-0.226107
C80	C	-0.759115	0.333199	0.107226
C81	C	-0.425782	0.666532	0.440560
C82	C	-1.090423	-0.000127	-0.330416
C83	C	-0.757089	0.333207	0.002917
C84	C	-0.423756	0.666540	0.336251
C85	C	-1.088815	-0.000120	-0.413556
C86	C	-0.755481	0.333214	-0.080222
C87	C	-0.422148	0.666547	0.253111
C88	C	-1.086789	-0.000114	-0.517871
C89	C	-0.753455	0.333220	-0.184538
C90	C	-0.420122	0.666553	0.148795
C91	C	-1.083184	-0.000114	0.296609
C92	C	-0.749851	0.333219	0.629943
C93	C	-0.416517	0.666553	0.963276
C94	C	-1.085181	-0.000107	0.398989
C95	C	-0.751847	0.333227	0.732323
C96	C	-0.418514	0.666560	1.065656
H97	H	-1.007985	-0.518473	0.209865
H98	H	-0.674652	-0.185140	0.543198
H99	H	-0.341319	0.148193	0.876532
O100	O	-1.188627	-0.467576	0.028754
O101	O	-0.855293	-0.134243	0.362088
O102	O	-0.521960	0.199091	0.695421
H103	H	-1.236443	-0.418698	0.064732
H104	H	-0.903109	-0.085364	0.398065
H105	H	-0.569776	0.247969	0.731399
