data_functionalizedCrystal
_audit_creation_method	'MofGen! by Chris Wilmer'
_symmetry_space_group_name_H-M	'P1'
_symmetry_Int_Tables_number	1
_symmetry_cell_setting	triclinic
loop_
_symmetry_equiv_pos_as_xyz
  x,y,z
_cell_length_a	12.811445
_cell_length_b	11.804783
_cell_length_c	12.811442
_cell_angle_alpha	82.070015
_cell_angle_beta	83.530129
_cell_angle_gamma	82.082282
loop_
_atom_site_label
_atom_site_type_symbol
_atom_site_fract_x
_atom_site_fract_y
_atom_site_fract_z
O1	O	1.344547	0.254196	0.092607
O2	O	1.044800	0.224115	0.113747
O3	O	1.205240	0.224110	-0.046693
O4	O	1.184107	0.254202	0.253046
O5	O	1.241695	0.033948	-0.010189
O6	O	1.081255	0.033953	0.150250
O7	O	1.381002	0.064034	0.129110
Cu8	Cu	1.234457	0.031630	0.143013
Cu9	Cu	1.191345	0.256519	0.099844
O10	O	1.220562	0.064040	0.289549
C11	C	1.024714	0.124890	0.131932
C12	C	0.910553	0.112541	0.131720
N13	N	1.264788	-0.126544	0.173375
C14	C	0.656280	0.296675	0.091543
C15	C	0.549014	0.285077	0.091343
C16	C	0.588754	0.077750	0.131130
C17	C	0.696019	0.089347	0.131329
C18	C	0.729778	0.198813	0.111533
C19	C	0.837047	0.210409	0.111725
C20	C	0.876782	0.003084	0.151519
C21	C	0.769517	-0.008514	0.151319
C22	C	1.088151	-0.538735	-0.003444
C23	C	1.065186	-0.419044	-0.026419
C24	C	1.115085	-0.345913	0.023528
C25	C	1.187952	-0.392485	0.096453
C26	C	1.210925	-0.512188	0.119424
C27	C	1.237859	-0.319366	0.146396
C28	C	1.310726	-0.365938	0.219321
C29	C	1.333695	-0.485629	0.242288
C30	C	1.283796	-0.558760	0.192341
C31	C	1.214885	-0.199663	0.123425
C32	C	1.337659	-0.173116	0.246293
C33	C	1.360624	-0.292807	0.269268
C34	C	1.401087	0.163262	0.110925
C35	C	1.515247	0.175618	0.111135
C36	C	1.223399	0.124886	-0.066753
C37	C	1.223183	0.112540	-0.180912
N38	N	1.161022	0.414693	0.069474
C39	C	1.242755	-0.008515	-0.321920
C40	C	1.242954	0.003082	-0.214657
C41	C	1.203208	0.210408	-0.254440
C42	C	1.203009	0.198811	-0.361703
C43	C	1.222784	0.089346	-0.395439
C44	C	1.222592	0.077751	-0.502706
C45	C	1.182839	0.285076	-0.542485
C46	C	1.183038	0.296673	-0.435222
C47	C	1.202403	0.163266	0.309610
C48	C	1.202617	0.175619	0.423767
H49	H	0.864530	0.299542	0.095606
C50	C	1.015334	-0.188911	-0.076265
C51	C	1.089833	-0.214346	-0.001715
H52	H	0.999736	-0.107683	-0.091841
H53	H	1.043324	-0.220866	-0.139184
H54	H	0.952409	-0.220919	-0.048318
H55	H	1.152761	-0.182345	-0.029665
H56	H	1.061845	-0.182377	0.061216
C57	C	0.946137	-0.457316	-0.145552
C58	C	0.985089	-0.367855	-0.106567
H59	H	0.896680	-0.425711	-0.195029
H60	H	1.003102	-0.503433	-0.179470
H61	H	0.912196	-0.503465	-0.088594
H62	H	1.019037	-0.321711	-0.163524
H63	H	0.928114	-0.321718	-0.072650
C64	C	0.638794	-0.126022	0.170485
C65	C	0.551632	-0.042567	0.152894
H66	H	0.615874	-0.200300	0.183928
H67	H	0.688595	-0.122728	0.109665
H68	H	0.671016	-0.111645	0.229807
H69	H	0.519415	-0.056940	0.093567
H70	H	0.501814	-0.045865	0.213721
C71	C	1.058858	-0.071205	0.169483
C72	C	0.957576	-0.104495	0.173491
H73	H	1.108735	-0.137619	0.183049
H74	H	1.077058	-0.032250	0.101276
H75	H	1.059473	-0.021181	0.221420
H76	H	0.956960	-0.154512	0.121548
H77	H	0.939372	-0.143469	0.241708
H78	H	0.742014	-0.097637	0.167440
H79	H	1.155556	-0.161756	0.064050
C80	C	1.188027	-0.196967	-0.308085
C81	C	1.264495	-0.128832	-0.359016
H82	H	1.201448	-0.271243	-0.330992
H83	H	1.191013	-0.204069	-0.233691
H84	H	1.119759	-0.161803	-0.325046
H85	H	1.332763	-0.163991	-0.342048
H86	H	1.261519	-0.121734	-0.433426
C87	C	1.249835	-0.744677	0.158373
C88	C	1.309031	-0.690331	0.217605
H89	H	1.265415	-0.825905	0.173968
H90	H	1.176522	-0.722502	0.175922
H91	H	1.267435	-0.722495	0.085054
H92	H	1.291425	-0.712507	0.290924
H93	H	1.382360	-0.712517	0.200062
C94	C	1.260904	-0.071199	-0.032567
C95	C	1.264907	-0.104489	-0.133842
H96	H	1.274450	-0.137614	0.017325
H97	H	1.312843	-0.021180	-0.031960
H98	H	1.192695	-0.032242	-0.014376
H99	H	1.333119	-0.143439	-0.152036
H100	H	1.212966	-0.154528	-0.134451
C101	C	1.452737	-0.447363	0.361440
C102	C	1.413793	-0.536823	0.322445
H103	H	1.502181	-0.478970	0.410930
H104	H	1.486682	-0.401219	0.304497
H105	H	1.395758	-0.401242	0.395354
H106	H	1.470772	-0.582940	0.288523
H107	H	1.379849	-0.582987	0.379397
H108	H	0.489174	0.364766	0.075068
H109	H	1.166580	0.364762	-0.602358
C110	C	1.368232	-0.113667	0.410932
C111	C	1.392515	-0.092747	0.301207
H112	H	1.402103	-0.064051	0.444827
H113	H	1.293797	-0.099515	0.427351
H114	H	1.392347	-0.191623	0.435031
H115	H	1.368393	-0.014793	0.277106
H116	H	1.466966	-0.106891	0.284780
H117	H	1.419954	-0.330743	0.328645
C118	C	1.186062	0.320248	-0.107697
C119	C	1.181609	0.330737	-0.217363
H120	H	1.172775	0.394540	-0.084817
H121	H	1.134127	0.274125	-0.073127
H122	H	1.254313	0.284980	-0.090777
H123	H	1.113356	0.365997	-0.234282
H124	H	1.233546	0.376877	-0.251945
C125	C	1.060676	0.468806	-0.423121
C126	C	1.161310	0.416988	-0.398123
H127	H	1.047265	0.543081	-0.400211
H128	H	1.057706	0.475915	-0.497517
H129	H	1.008806	0.422571	-0.388571
H130	H	1.213181	0.463219	-0.432680
H131	H	1.164288	0.409886	-0.323713
H132	H	1.238696	-0.011381	-0.530171
C133	C	0.606229	0.500445	0.052198
C134	C	0.693395	0.416995	0.069788
H135	H	0.629143	0.574726	0.038776
H136	H	0.574019	0.486078	-0.007123
H137	H	0.556419	0.497135	0.113023
H138	H	0.743203	0.420299	0.008960
H139	H	0.725622	0.431366	0.129115
H140	H	1.047539	-0.598288	-0.044110
