data_functionalizedCrystal
_audit_creation_method	'MofGen! by Chris Wilmer'
_symmetry_space_group_name_H-M	'P1'
_symmetry_Int_Tables_number	1
_symmetry_cell_setting	triclinic
loop_
_symmetry_equiv_pos_as_xyz
  x,y,z
_cell_length_a	17.038272
_cell_length_b	14.048226
_cell_length_c	14.971486
_cell_angle_alpha	90.006640
_cell_angle_beta	87.362843
_cell_angle_gamma	90.000663
loop_
_atom_site_label
_atom_site_type_symbol
_atom_site_fract_x
_atom_site_fract_y
_atom_site_fract_z
O1	O	1.037595	0.079043	0.194250
O2	O	1.537595	0.579043	0.694250
O3	O	0.809961	0.079071	0.191166
O4	O	1.309961	0.579071	0.691166
O5	O	0.929879	0.079049	0.062965
O6	O	1.429879	0.579049	0.562965
O7	O	0.917677	0.079064	0.322451
O8	O	1.417677	0.579064	0.822451
O9	O	0.929865	-0.079272	0.062956
O10	O	1.429865	0.420728	0.562956
O11	O	0.809946	-0.079251	0.191157
O12	O	1.309946	0.420749	0.691157
O13	O	1.037581	-0.079279	0.194241
O14	O	1.537581	0.420721	0.694241
Zn15	Zn	0.923761	-0.104402	0.192697
Zn16	Zn	1.423761	0.395598	0.692697
Zn17	Zn	0.923780	0.104194	0.192710
Zn18	Zn	1.423780	0.604194	0.692710
O19	O	0.917662	-0.079257	0.322442
O20	O	1.417662	0.420743	0.822442
C21	C	0.780822	-0.000087	0.188356
C22	C	1.280822	0.499913	0.688356
C23	C	0.694019	-0.000076	0.179986
C24	C	1.194019	0.499924	0.679986
N25	N	0.923754	-0.246762	0.192689
N26	N	1.423754	0.253238	0.692689
C27	C	0.976870	-0.296590	0.135948
C28	C	1.476870	0.203410	0.635948
C29	C	0.976876	-0.396248	0.135948
C30	C	1.476876	0.103752	0.635948
C31	C	0.923768	-0.446076	0.192694
C32	C	1.423768	0.053924	0.692694
C33	C	0.870645	-0.396241	0.249438
C34	C	1.370645	0.103759	0.749438
C35	C	0.870637	-0.296585	0.249433
C36	C	1.370637	0.203415	0.749433
C37	C	0.870668	-0.603956	0.249446
C38	C	1.370668	-0.103956	0.749446
C39	C	0.870677	-0.703618	0.249452
C40	C	1.370677	-0.203618	0.749452
C41	C	0.976907	-0.703618	0.135961
C42	C	1.476907	-0.203618	0.635961
C43	C	0.976898	-0.603962	0.135956
C44	C	1.476898	-0.103962	0.635956
C45	C	0.923777	-0.554134	0.192701
C46	C	1.423777	-0.054134	0.692701
C47	C	0.643995	-0.000072	0.256830
C48	C	1.143995	0.499928	0.756830
C49	C	0.562435	-0.000086	0.248961
C50	C	1.062435	0.499914	0.748961
C51	C	0.530901	-0.000096	0.164246
C52	C	1.030901	0.499904	0.664246
C53	C	0.580933	-0.000103	0.087397
C54	C	1.080933	0.499897	0.587397
C55	C	0.662491	-0.000096	0.095267
C56	C	1.162491	0.499904	0.595267
C57	C	0.285111	-0.000124	0.136442
C58	C	0.785111	0.499876	0.636442
C59	C	0.203547	-0.000127	0.128577
C60	C	0.703547	0.499873	0.628577
C61	C	0.185054	-0.000112	0.290142
C62	C	0.685054	0.499888	0.790142
C63	C	0.266615	-0.000100	0.298005
C64	C	0.766615	0.499900	0.798005
C65	C	0.316639	-0.000111	0.221155
C66	C	0.816639	0.499889	0.721155
C67	C	0.447535	-0.000107	0.156200
C68	C	0.947535	0.499893	0.656200
C69	C	0.400004	-0.000107	0.229202
C70	C	0.900004	0.499893	0.729202
C71	C	1.066719	-0.000119	0.197051
C72	C	1.566719	0.499881	0.697051
C73	C	1.153522	-0.000124	0.205421
C74	C	1.653522	0.499876	0.705421
C75	C	0.929326	-0.000111	0.029595
C76	C	1.429326	0.499889	0.529595
C77	C	0.927691	-0.000110	-0.069825
C78	C	1.427691	0.499890	0.430175
N79	N	0.923794	0.246554	0.192711
N80	N	1.423794	0.746554	0.692711
C81	C	0.998140	-0.000120	-0.121776
C82	C	1.498140	0.499880	0.378224
C83	C	0.996598	-0.000110	-0.215190
C84	C	1.496598	0.499890	0.284810
C85	C	0.924607	-0.000097	-0.256653
C86	C	1.424607	0.499903	0.243347
C87	C	0.854153	-0.000085	-0.204695
C88	C	1.354153	0.499915	0.295305
C89	C	0.855695	-0.000088	-0.111282
C90	C	1.355695	0.499912	0.388718
C91	C	0.850944	-0.000081	-0.399398
C92	C	1.350944	0.499919	0.100602
C93	C	0.849402	-0.000080	-0.492817
C94	C	1.349402	0.499920	0.007183
C95	C	0.991847	-0.000103	-0.503306
C96	C	1.491847	0.499897	-0.003306
C97	C	0.993389	-0.000106	-0.409893
C98	C	1.493389	0.499894	0.090107
C99	C	0.922935	-0.000096	-0.357942
C100	C	1.422935	0.499904	0.142058
C101	C	0.918215	-0.000095	0.355812
C102	C	1.418215	0.499905	0.855812
C103	C	0.919850	-0.000090	0.455232
C104	C	1.419850	0.499910	0.955232
H105	H	1.020120	-0.256026	0.089743
H106	H	1.520120	0.243974	0.589743
H107	H	0.790780	-0.000086	-0.526573
H108	H	1.290780	0.499914	-0.026573
F109	F	0.413967	-0.000115	0.066043
F110	F	0.913967	0.499885	0.566043
H111	H	1.020160	-0.744193	0.089758
H112	H	1.520160	-0.244193	0.589758
H113	H	0.555252	-0.000125	0.018421
H114	H	1.055252	0.499875	0.518421
F115	F	0.338340	-0.000136	0.054650
F116	F	0.838340	0.499864	0.554650
H117	H	0.521707	-0.000082	0.311535
H118	H	1.021707	0.499918	0.811535
F119	F	0.814151	-0.756642	0.309849
F120	F	1.314151	-0.256642	0.809849
F121	F	0.814119	-0.449273	0.309828
F122	F	1.314119	0.050727	0.809828
H123	H	0.793572	-0.000070	-0.357101
H124	H	1.293572	0.499930	0.142899
F125	F	0.169989	-0.000155	0.038409
F126	F	0.669989	0.499845	0.538409
F127	F	0.300169	-0.000083	0.388169
F128	F	0.800169	0.499917	0.888169
H129	H	0.703221	-0.000099	0.032693
H130	H	1.203221	0.499901	0.532693
F131	F	0.814127	-0.550929	0.309838
F132	F	1.314127	-0.050929	0.809838
H133	H	0.795537	-0.000069	-0.238461
H134	H	1.295537	0.499931	0.261539
F135	F	0.433566	-0.000100	0.319358
F136	F	0.933566	0.499900	0.819358
F137	F	1.074763	-0.000142	-0.077657
F138	F	1.574763	0.499858	0.422343
F139	F	1.033425	-0.550930	0.075567
F140	F	1.533425	-0.050930	0.575567
F141	F	0.780714	-0.000075	-0.055992
F142	F	1.280714	0.499925	0.444008
H143	H	1.053965	-0.000119	-0.257485
H144	H	1.553965	0.499881	0.242515
H145	H	1.020127	-0.436817	0.089745
H146	H	1.520127	0.063183	0.589745
F147	F	1.070010	-0.000117	-0.365768
F148	F	1.570010	0.499883	0.134232
H149	H	1.049214	-0.000108	-0.545610
H150	H	1.549214	0.499892	-0.045610
F151	F	0.677547	-0.000055	0.346995
F152	F	1.177547	0.499945	0.846995
F153	F	0.814100	-0.243557	0.309822
F154	F	1.314100	0.256443	0.809822
F155	F	0.131810	-0.000102	0.371924
F156	F	0.631810	0.499898	0.871924
