data_functionalizedCrystal
_audit_creation_method	'MofGen! by Chris Wilmer'
_symmetry_space_group_name_H-M	'P1'
_symmetry_Int_Tables_number	1
_symmetry_cell_setting	triclinic
loop_
_symmetry_equiv_pos_as_xyz
  x,y,z
_cell_length_a	16.625547
_cell_length_b	12.645330
_cell_length_c	12.645318
_cell_angle_alpha	89.940182
_cell_angle_beta	89.953011
_cell_angle_gamma	90.012583
loop_
_atom_site_label
_atom_site_type_symbol
_atom_site_fract_x
_atom_site_fract_y
_atom_site_fract_z
Zn1	Zn	1.232912	-0.421689	-0.599546
Zn2	Zn	1.232786	-0.599079	-0.422279
Zn3	Zn	1.098022	-0.421830	-0.422277
Zn4	Zn	1.098067	-0.598911	-0.599482
O5	O	1.165447	-0.510377	-0.510896
O6	O	1.345728	-0.445232	-0.576058
O7	O	1.214838	-0.575695	-0.273931
O8	O	1.115949	-0.273464	-0.445818
O9	O	1.345635	-0.575559	-0.445821
O10	O	1.215052	-0.273361	-0.576057
O11	O	1.115827	-0.445471	-0.273930
O12	O	0.985195	-0.445308	-0.445757
O13	O	1.116027	-0.575273	-0.747838
O14	O	0.985229	-0.575409	-0.575948
O15	O	1.215096	-0.445069	-0.747885
O16	O	1.214882	-0.747404	-0.445759
O17	O	1.115905	-0.747281	-0.575950
C18	C	0.955956	-0.510357	-0.510846
C19	C	0.866335	-0.510373	-0.510850
C20	C	0.793552	-0.510375	-0.510863
C21	C	0.702244	-0.510381	-0.510889
C22	C	0.629467	-0.510391	-0.510916
C23	C	0.538153	-0.510398	-0.510942
C24	C	1.165406	-0.785807	-0.510871
C25	C	1.165463	-0.903637	-0.510896
C26	C	1.227629	-1.071234	-0.428827
C27	C	1.227832	-0.948674	-0.429028
C28	C	1.188539	-0.947955	-0.622643
C29	C	1.189032	-1.070553	-0.622207
C30	C	1.080196	-1.070981	-0.482319
C31	C	1.080604	-0.948378	-0.479813
C32	C	1.375756	-0.510399	-0.510947
C33	C	1.465377	-0.510408	-0.510968
C34	C	1.165581	-0.510137	-0.787402
C35	C	1.165638	-0.510034	-0.905232
C36	C	1.165509	-0.233872	-0.510944
C37	C	1.165536	-0.116042	-0.510965
C38	C	1.165360	-0.510540	-0.235466
C39	C	1.165459	-0.510344	-0.117636
C40	C	1.102753	-0.428944	-0.072816
C41	C	1.102613	-0.429010	0.049745
C42	C	1.143408	-0.622117	0.050613
C43	C	1.142850	-0.621826	-0.071985
C44	C	1.250595	-0.480570	-0.072750
C45	C	1.250229	-0.477932	0.049850
H46	H	1.213390	-0.918718	-0.346169
H47	H	1.250215	-0.917153	-0.647311
H48	H	1.299436	-0.532712	0.080481
H49	H	1.145789	-1.100184	-0.685516
H50	H	1.116428	-0.345940	0.079584
H51	H	1.116348	-0.345703	-0.102542
H52	H	1.187757	-0.684366	0.079790
H53	H	1.040017	-0.448510	-0.103407
H54	H	1.291040	-0.919255	-0.447976
H55	H	1.031841	-0.917731	-0.535251
H56	H	1.270934	-0.400275	-0.103926
H57	H	1.290498	-1.101954	-0.447563
H58	H	1.251413	-1.099052	-0.646471
H59	H	1.213368	-1.100835	-0.345726
H60	H	1.039571	-0.448727	0.079291
H61	H	1.144691	-0.918773	-0.685482
H62	H	1.033931	-1.099954	-0.542143
H63	H	1.059217	-1.102035	-0.402252
H64	H	1.080646	-0.646906	-0.100352
H65	H	1.063205	-0.919428	-0.397576
H66	H	1.186587	-0.684596	-0.101618
H67	H	1.081941	-0.647527	0.081544
H68	H	1.267000	-0.395443	0.078671
H69	H	1.297309	-0.539837	-0.101739
