data_functionalizedCrystal
_audit_creation_method	'MofGen! by Chris Wilmer'
_symmetry_space_group_name_H-M	'P1'
_symmetry_Int_Tables_number	1
_symmetry_cell_setting	triclinic
loop_
_symmetry_equiv_pos_as_xyz
  x,y,z
_cell_length_a	13.032831
_cell_length_b	18.101395
_cell_length_c	13.032268
_cell_angle_alpha	97.146252
_cell_angle_beta	90.886977
_cell_angle_gamma	82.835691
loop_
_atom_site_label
_atom_site_type_symbol
_atom_site_fract_x
_atom_site_fract_y
_atom_site_fract_z
Zn1	Zn	1.498320	-0.500117	-0.780796
Zn2	Zn	1.520028	-0.610451	-0.608808
Zn3	Zn	1.348189	-0.469181	-0.587040
Zn4	Zn	1.326277	-0.606447	-0.758934
O5	O	1.423203	-0.546549	-0.683894
O6	O	1.645116	-0.529375	-0.776242
O7	O	1.515487	-0.580440	-0.462005
O8	O	1.368189	-0.369663	-0.612782
O9	O	1.661064	-0.610437	-0.649882
O10	O	1.478491	-0.392391	-0.755134
O11	O	1.389238	-0.476650	-0.446012
O12	O	1.201366	-0.472767	-0.591582
O13	O	1.330844	-0.603613	-0.905750
O14	O	1.185268	-0.573616	-0.717872
O15	O	1.457244	-0.525493	-0.921812
O16	O	1.494241	-0.713541	-0.628683
O17	O	1.351893	-0.710600	-0.738979
C18	C	1.156001	-0.519401	-0.649993
C19	C	1.041687	-0.507806	-0.635514
C20	C	0.982797	-0.552600	-0.691451
C21	C	0.864648	-0.540618	-0.676488
C22	C	1.423070	-0.738943	-0.683847
C23	C	1.423102	-0.821262	-0.683873
C24	C	1.423321	-1.120381	-0.683957
C25	C	1.333919	-1.087270	-0.753573
C26	C	1.333573	-1.001594	-0.753276
C27	C	1.423212	-0.971985	-0.683916
C28	C	1.407642	-0.991648	-0.571811
C29	C	1.407070	-1.077279	-0.572223
C30	C	1.528588	-1.101951	-0.725513
C31	C	1.527646	-1.016421	-0.727809
C32	C	1.423153	-0.888117	-0.683886
C33	C	1.423378	-1.204247	-0.683979
C34	C	1.691449	-0.573804	-0.717929
C35	C	1.805759	-0.585418	-0.732432
C36	C	1.389178	-0.567557	-0.952140
C37	C	1.374679	-0.576509	-1.066450
C38	C	1.423363	-0.353408	-0.683968
C39	C	1.423431	-0.271103	-0.684000
C40	C	1.430755	-0.541848	-1.125361
C41	C	1.415770	-0.551100	-1.243507
C42	C	1.457155	-0.525575	-0.416700
C43	C	1.471854	-0.516434	-0.302416
H44	H	0.827601	-0.493392	-0.617521
O45	O	1.343180	-1.121545	-0.852515
C46	C	1.264707	-1.195202	-0.991974
C47	C	1.254074	-1.156399	-0.879918
H48	H	1.192685	-1.223405	-1.014157
H49	H	1.273713	-1.151713	-1.046331
H50	H	1.335640	-1.239264	-0.998366
H51	H	1.183141	-1.112341	-0.873426
H52	H	1.245126	-1.199933	-0.825614
O53	O	0.997634	-0.451508	-0.565031
C54	C	0.986690	-0.398370	-0.386008
C55	C	1.036669	-0.462163	-0.465729
H56	H	1.018214	-0.406971	-0.305701
H57	H	1.005514	-0.342208	-0.406780
H58	H	0.899274	-0.398731	-0.386521
H59	H	1.124093	-0.461872	-0.465257
H60	H	1.017762	-0.518295	-0.444928
O61	O	1.483705	-0.968559	-0.507543
C62	C	1.624128	-1.004667	-0.394451
C63	C	1.538024	-1.030909	-0.467207
H64	H	1.668054	-1.055060	-0.361801
H65	H	1.679735	-0.976794	-0.439335
H66	H	1.588285	-0.962702	-0.328292
H67	H	1.573776	-1.072898	-0.533380
H68	H	1.482428	-1.058738	-0.422249
O69	O	1.304249	-0.620085	-1.110789
C70	C	1.225028	-0.668980	-1.268961
C71	C	1.304842	-0.619620	-1.218888
H72	H	1.225466	-0.668608	-1.356363
H73	H	1.245689	-0.728909	-1.250245
H74	H	1.144781	-0.645923	-1.237324
H75	H	1.385118	-0.642610	-1.250495
H76	H	1.284093	-0.559698	-1.237597
O77	O	1.343235	-0.986334	-0.851993
C78	C	1.361268	-1.036284	-1.031901
C79	C	1.350321	-1.053665	-0.920150
H80	H	1.367022	-1.090711	-1.087035
H81	H	1.290860	-0.997015	-1.052853
H82	H	1.434108	-1.008255	-1.038533
H83	H	1.277523	-1.081720	-0.913435
H84	H	1.420782	-1.092902	-0.899247
H85	H	1.596674	-0.997101	-0.681897
H86	H	1.489853	-0.505321	-1.088329
H87	H	1.256075	-1.099292	-0.725253
H88	H	1.255269	-0.971539	-0.724662
O89	O	1.315687	-1.089231	-0.532162
C90	C	1.151106	-1.033486	-0.459253
C91	C	1.254547	-1.019851	-0.504623
H92	H	1.101654	-0.977402	-0.436955
H93	H	1.108469	-1.069570	-0.519410
H94	H	1.166652	-1.063586	-0.387732
H95	H	1.239093	-0.989729	-0.576130
H96	H	1.297152	-0.983797	-0.444400
H97	H	1.470108	-1.098787	-0.517844
O98	O	1.026817	-0.608950	-0.761880
C99	C	0.999179	-0.712156	-0.890685
C100	C	0.949195	-0.648358	-0.810976
H101	H	0.936447	-0.744046	-0.930386
H102	H	1.042636	-0.687538	-0.950936
H103	H	1.055479	-0.752152	-0.849684
H104	H	0.892850	-0.608340	-0.851887
H105	H	0.905803	-0.673029	-0.750730
O106	O	1.542338	-0.472896	-1.258089
C107	C	1.621437	-0.423896	-1.099905
C108	C	1.541609	-0.473247	-1.149973
H109	H	1.620859	-0.424150	-1.012485
H110	H	1.701744	-0.446943	-1.131396
H111	H	1.600752	-0.364009	-1.118774
H112	H	1.562198	-0.533144	-1.131125
H113	H	1.461324	-0.450138	-1.118481
H114	H	1.356658	-0.587621	-1.280533
O115	O	1.317492	-0.954287	-0.531233
C116	C	1.236213	-0.865259	-0.394647
C117	C	1.338387	-0.907504	-0.440495
H118	H	1.253069	-0.827437	-0.321266
H119	H	1.196237	-0.829652	-0.453394
H120	H	1.183677	-0.907461	-0.375303
H121	H	1.391002	-0.865355	-0.459836
H122	H	1.378281	-0.943123	-0.381721
H123	H	1.545469	-1.132313	-0.806592
H124	H	0.842804	-0.632638	-0.791410
O125	O	1.542077	-1.002415	-0.826355
C126	C	1.652269	-1.026607	-0.976632
C127	C	1.636066	-1.042532	-0.865032
H128	H	1.728267	-1.059020	-1.007928
H129	H	1.585659	-1.045006	-1.027266
H130	H	1.654904	-0.963953	-0.977292
H131	H	1.633454	-1.105176	-0.864273
H132	H	1.702678	-1.024081	-0.814446
O133	O	1.607841	-1.127963	-0.665315
C134	C	1.700860	-1.235655	-0.599259
C135	C	1.611097	-1.206294	-0.667486
H136	H	1.703509	-1.298985	-0.600975
H137	H	1.776981	-1.222156	-0.629841
H138	H	1.688498	-1.207542	-0.516383
H139	H	1.623360	-1.234389	-0.750378
H140	H	1.535008	-1.219781	-0.636818
