data_functionalizedCrystal
_audit_creation_method	'MofGen! by Chris Wilmer'
_symmetry_space_group_name_H-M	'P1'
_symmetry_Int_Tables_number	1
_symmetry_cell_setting	triclinic
loop_
_symmetry_equiv_pos_as_xyz
  x,y,z
_cell_length_a	10.654550
_cell_length_b	10.654556
_cell_length_c	9.130313
_cell_angle_alpha	89.998135
_cell_angle_beta	89.996647
_cell_angle_gamma	84.486220
loop_
_atom_site_label
_atom_site_type_symbol
_atom_site_fract_x
_atom_site_fract_y
_atom_site_fract_z
O1	O	0.176437	1.667835	-0.121740
O2	O	0.193235	1.302357	-0.121755
O3	O	0.002097	1.493499	-0.121742
O4	O	0.367575	1.476693	-0.121753
O5	O	0.002091	1.493486	0.121857
O6	O	0.193229	1.302344	0.121844
O7	O	0.176431	1.667822	0.121859
Cu8	Cu	0.184830	1.485082	0.144094
Cu9	Cu	0.184836	1.485097	-0.143990
O10	O	0.367569	1.476680	0.121846
C11	C	0.191997	1.255553	0.000043
C12	C	0.188302	1.116110	0.000037
C13	C	-0.044704	1.492259	0.000056
C14	C	-0.184147	1.488567	0.000051
C15	C	0.183102	0.919572	-0.132737
C16	C	0.186566	1.050594	-0.132746
C17	C	0.186560	1.050598	0.132839
C18	C	0.183087	0.919580	0.132846
C19	C	-0.263631	1.601108	0.000060
C20	C	-0.394651	1.597631	0.000049
C21	C	-0.366693	1.369062	0.000027
C22	C	-0.235675	1.372540	0.000027
C23	C	-0.279773	1.733070	0.000079
C24	C	-0.410794	1.729594	0.000069
C25	C	0.414370	1.477920	0.000045
C26	C	0.553813	1.481612	0.000041
C27	C	0.177669	1.714626	0.000058
C28	C	0.181364	1.854069	0.000054
N29	N	0.184824	1.485080	0.346717
N30	N	0.184832	1.485109	-0.346612
C31	C	0.100224	1.569746	0.423374
C32	C	0.100225	1.569758	0.576711
C33	C	0.269436	1.400433	0.576719
C34	C	0.269428	1.400416	0.423385
H35	H	0.181698	0.866237	-0.240865
H36	H	0.338320	1.331465	0.360966
H37	H	0.338320	1.331504	0.639158
H38	H	0.187979	1.103921	-0.240878
H39	H	0.031334	1.638700	0.639122
H40	H	0.187965	1.103953	0.240953
H41	H	-0.170963	1.280898	-0.000000
C42	C	0.181174	0.847518	0.278928
C43	C	0.290512	0.852211	0.388477
C44	C	0.288592	0.780151	0.534551
C45	C	0.177334	0.703396	0.571075
C46	C	0.067988	0.698700	0.461523
C47	C	0.069908	0.770760	0.315449
H48	H	0.372880	0.909032	0.361442
H49	H	0.369539	0.783628	0.615649
H50	H	0.175913	0.650053	0.679208
H51	H	-0.014379	0.641879	0.488558
H52	H	-0.011039	0.767283	0.234352
C53	C	-0.423379	1.241439	0.000007
C54	C	-0.509617	1.207603	0.126492
C55	C	-0.566300	1.079977	0.126473
C56	C	-0.536745	0.986187	-0.000033
C57	C	-0.450503	1.020022	-0.126527
C58	C	-0.393820	1.147648	-0.126508
H59	H	-0.531499	1.277033	0.220148
H60	H	-0.630142	1.054931	0.220113
H61	H	-0.578705	0.891711	-0.000047
H62	H	-0.428621	0.950591	-0.220183
H63	H	-0.329978	1.172693	-0.220148
C64	C	0.007153	1.662864	0.339038
C65	C	0.007138	1.662856	0.170377
C66	C	-0.085940	1.755974	0.086046
C67	C	-0.179003	1.849099	0.170377
C68	C	-0.178992	1.849110	0.339048
C69	C	-0.085914	1.755993	0.423378
H70	H	0.076032	1.593916	0.107942
H71	H	-0.085948	1.755965	-0.038816
H72	H	-0.247905	1.918030	0.107950
H73	H	-0.247886	1.918050	0.401483
H74	H	-0.085906	1.756002	0.548240
H75	H	-0.250411	1.784691	-0.101858
H76	H	-0.244148	1.775086	0.105262
H77	H	-0.456434	1.769480	-0.105109
H78	H	-0.452555	1.779310	0.102014
