data_functionalizedCrystal
_audit_creation_method	'MofGen! by Chris Wilmer'
_symmetry_space_group_name_H-M	'P1'
_symmetry_Int_Tables_number	1
_symmetry_cell_setting	triclinic
loop_
_symmetry_equiv_pos_as_xyz
  x,y,z
_cell_length_a	17.699083
_cell_length_b	17.699104
_cell_length_c	16.776229
_cell_angle_alpha	89.998888
_cell_angle_beta	90.001114
_cell_angle_gamma	96.712734
loop_
_atom_site_label
_atom_site_type_symbol
_atom_site_fract_x
_atom_site_fract_y
_atom_site_fract_z
O1	O	-1.004086	0.095712	-0.066167
O2	O	-0.504086	0.595712	0.433833
O3	O	-0.783708	0.108164	-0.066192
O4	O	-0.283708	0.608164	0.433808
O5	O	-0.900115	-0.008250	-0.066184
O6	O	-0.400115	0.491750	0.433816
O7	O	-0.887679	0.212126	-0.066174
O8	O	-0.387679	0.712126	0.433826
O9	O	-0.900099	-0.008257	0.066392
O10	O	-0.400099	0.491743	0.566392
O11	O	-0.783693	0.108157	0.066385
O12	O	-0.283693	0.608157	0.566385
O13	O	-1.004070	0.095705	0.066410
O14	O	-0.504070	0.595705	0.566410
Zn15	Zn	-0.893879	0.101930	0.087447
Zn16	Zn	-0.393879	0.601930	0.587447
Zn17	Zn	-0.893899	0.101939	-0.087228
Zn18	Zn	-0.393899	0.601939	0.412772
O19	O	-0.887664	0.212119	0.066403
O20	O	-0.387664	0.712119	0.566403
C21	C	-0.755503	0.107715	0.000093
C22	C	-0.255503	0.607715	0.500093
C23	C	-0.671485	0.106376	0.000083
C24	C	-0.171485	0.606376	0.500083
C25	C	-0.899659	-0.036450	0.000101
C26	C	-0.399659	0.463550	0.500101
C27	C	-0.898314	-0.120467	0.000091
C28	C	-0.398314	0.379533	0.500091
C29	C	-0.888120	0.240319	0.000116
C30	C	-0.388120	0.740319	0.500116
C31	C	-0.889464	0.324337	0.000120
C32	C	-0.389464	0.824337	0.500120
C33	C	-1.032275	0.096155	0.000123
C34	C	-0.532275	0.596155	0.500123
C35	C	-1.116293	0.097493	0.000128
C36	C	-0.616293	0.597493	0.500128
C37	C	-0.622869	0.174709	0.000087
C38	C	-0.122869	0.674709	0.500087
C39	C	-0.543926	0.173446	0.000097
C40	C	-0.043926	0.673446	0.500097
C41	C	-0.513600	0.103851	0.000098
C42	C	-0.013600	0.603851	0.500098
C43	C	-0.562222	0.035513	0.000097
C44	C	-0.062222	0.535513	0.500097
C45	C	-0.641164	0.036776	0.000093
C46	C	-0.141164	0.536776	0.500093
C47	C	-0.243859	0.030418	0.000117
C48	C	0.256141	0.530418	0.500117
C49	C	-0.164911	0.029160	0.000119
C50	C	0.335089	0.529160	0.500119
C51	C	-0.146621	0.167088	0.000121
C52	C	0.353379	0.667088	0.500121
C53	C	-0.225563	0.168351	0.000117
C54	C	0.274437	0.668351	0.500117
C55	C	-0.274178	0.100014	0.000120
C56	C	0.225822	0.600014	0.500120
C57	C	-0.359777	0.101383	0.000110
C58	C	0.140223	0.601383	0.500110
C59	C	-0.428002	0.102480	0.000102
C60	C	0.071998	0.602480	0.500102
C61	C	-0.828721	0.849208	0.000083
C62	C	-0.328721	1.349208	0.500083
C63	C	-0.827461	0.770264	0.000091
C64	C	-0.327461	1.270264	0.500091
C65	C	-0.895797	0.721646	0.000101
C66	C	-0.395797	1.221646	0.500101
C67	C	-0.965395	0.751976	0.000112
C68	C	-0.465395	1.251976	0.500112
C69	C	-0.966654	0.830919	0.000109
C70	C	-0.466654	1.330919	0.500109
C71	C	-0.960322	0.433610	0.000122
C72	C	-0.460322	0.933610	0.500122
C73	C	-0.959059	0.354663	0.000123
C74	C	-0.459059	0.854663	0.500123
C75	C	-0.821130	0.372956	0.000105
C76	C	-0.321130	0.872956	0.500105
C77	C	-0.822388	0.451898	0.000102
C78	C	-0.322388	0.951898	0.500102
C79	C	-0.891987	0.482221	0.000116
C80	C	-0.391987	0.982221	0.500116
C81	C	-0.893351	0.567821	0.000109
C82	C	-0.393351	1.067821	0.500109
C83	C	-0.894433	0.636048	0.000103
C84	C	-0.394433	1.136048	0.500103
N85	N	-0.893871	0.101923	0.206658
N86	N	-0.393871	0.601923	0.706658
N87	N	-0.893914	0.101940	-0.206440
N88	N	-0.393914	0.601940	0.293560
C89	C	-0.945431	0.050396	0.248378
C90	C	-0.445431	0.550396	0.748378
C91	C	-0.945435	0.050395	0.331830
C92	C	-0.445435	0.550395	0.831830
C93	C	-0.893882	0.101926	0.373561
C94	C	-0.393882	0.601926	0.873561
C95	C	-0.842316	0.153456	0.331835
C96	C	-0.342316	0.653456	0.831835
C97	C	-0.842309	0.153452	0.248384
C98	C	-0.342309	0.653452	0.748384
C99	C	-0.842343	0.153470	0.668382
C100	C	-0.342343	0.653470	1.168382
C101	C	-0.842356	0.153472	0.751839
C102	C	-0.342356	0.653472	1.251839
C103	C	-0.945470	0.050414	0.751828
C104	C	-0.445470	0.550414	1.251828
C105	C	-0.945463	0.050410	0.668378
C106	C	-0.445463	0.550410	1.168378
C107	C	-0.893894	0.101937	0.626659
C108	C	-0.393894	0.601937	1.126659
C109	C	-0.893890	0.101936	0.536170
C110	C	-0.393890	0.601936	1.036170
C111	C	-0.893890	0.101931	0.464048
C112	C	-0.393890	0.601931	0.964048
H113	H	-0.647554	0.231382	0.000085
H114	H	-0.147554	0.731382	0.500085
H115	H	-0.987419	0.008438	0.365799
H116	H	-0.487419	0.508438	0.865799
C117	C	-0.797668	0.284552	0.642704
C118	C	-0.297668	0.784552	1.142704
C119	C	-0.785667	0.210117	0.622535
C120	C	-0.285667	0.710117	1.122535
H121	H	-0.762679	0.319525	0.614394
H122	H	-0.262679	0.819525	1.114394
H123	H	-0.790299	0.291918	0.698370
H124	H	-0.290299	0.791918	1.198370
H125	H	-0.848163	0.292696	0.629011
H126	H	-0.348163	0.792696	1.129011
H127	H	-0.735173	0.201971	0.636234
H128	H	-0.235173	0.701971	1.136234
H129	H	-0.793030	0.202748	0.566856
H130	H	-0.293030	0.702748	1.066856
C131	C	-0.343242	-0.048192	0.068261
C132	C	0.156758	0.451808	0.568261
C133	C	-0.297292	-0.044697	0.000110
C134	C	0.202708	0.455303	0.500110
H135	H	-0.376229	-0.094569	0.068256
H136	H	0.123771	0.405431	0.568256
H137	H	-0.372597	-0.006569	0.068257
H138	H	0.127403	0.493431	0.568257
H139	H	-0.312059	-0.045822	0.114489
H140	H	0.187941	0.454178	0.614489
H141	H	-0.328475	-0.047061	-0.046119
H142	H	0.171525	0.452939	0.453881
H143	H	-0.267934	-0.086331	0.000106
H144	H	0.232066	0.413669	0.500106
H145	H	-1.014709	0.315079	0.000131
H146	H	-0.514709	0.815079	0.500131
C147	C	-0.770300	-0.022533	0.000089
C148	C	-0.270300	0.477467	0.500089
C149	C	-0.694607	-0.038337	0.000088
C150	C	-0.194607	0.461663	0.500088
H151	H	-0.803292	-0.068907	0.000094
H152	H	-0.303292	0.431093	0.500094
H153	H	-0.779475	0.006006	-0.046141
H154	H	-0.279475	0.506006	0.453859
H155	H	-0.779471	0.006011	0.046324
H156	H	-0.279471	0.506011	0.546324
H157	H	-0.685435	-0.066876	-0.046150
H158	H	-0.185435	0.433124	0.453850
H159	H	-0.685429	-0.066888	0.046323
H160	H	-0.185429	0.433112	0.546323
C161	C	-1.082584	0.712086	-0.068025
C162	C	-0.582584	1.212086	0.431975
C163	C	-1.040513	0.698538	0.000121
C164	C	-0.540513	1.198538	0.500121
H165	H	-1.128961	0.679099	-0.068017
H166	H	-0.628961	1.179099	0.431983
H167	H	-1.054047	0.702902	-0.114251
H168	H	-0.554047	1.202902	0.385749
H169	H	-1.093288	0.763443	-0.068014
H170	H	-0.593288	1.263443	0.431986
H171	H	-1.029804	0.647182	0.000108
H172	H	-0.529804	1.147182	0.500108
H173	H	-1.069056	0.707716	0.046360
H174	H	-0.569056	1.207716	0.546360
H175	H	-0.800337	0.195410	0.365817
H176	H	-0.300337	0.695410	0.865817
C177	C	-0.692253	0.859352	0.000071
C178	C	-0.192253	1.359352	0.500071
C179	C	-0.753603	0.902645	0.000072
C180	C	-0.253603	1.402645	0.500072
H181	H	-0.645878	0.892342	0.000071
H182	H	-0.145878	1.392342	0.500071
H183	H	-0.694637	0.828182	-0.046157
H184	H	-0.194637	1.328182	0.453843
H185	H	-0.694633	0.828180	0.046308
H186	H	-0.194633	1.328180	0.546308
H187	H	-0.751226	0.933813	-0.046168
H188	H	-0.251226	1.433813	0.453832
H189	H	-0.751218	0.933828	0.046305
H190	H	-0.251218	1.433828	0.546305
C191	C	-0.746039	0.692095	-0.068074
C192	C	-0.246039	1.192095	0.431926
C193	C	-0.750961	0.736932	0.000076
C194	C	-0.250961	1.236932	0.500076
H195	H	-0.698810	0.671516	-0.068079
H196	H	-0.198810	1.171516	0.431921
H197	H	-0.749407	0.722510	-0.114298
H198	H	-0.249407	1.222510	0.385702
H199	H	-0.786558	0.651844	-0.068054
H200	H	-0.286558	1.151844	0.431946
H201	H	-0.710445	0.777187	0.000053
H202	H	-0.210445	1.277187	0.500053
H203	H	-0.747587	0.706516	0.046312
H204	H	-0.247587	1.206516	0.546312
C205	C	-1.048092	0.909092	-0.068036
C206	C	-0.548092	1.409092	0.431964
C207	C	-1.043151	0.864258	0.000115
C208	C	-0.543151	1.364258	0.500115
H209	H	-1.095318	0.929678	-0.068026
H210	H	-0.595318	1.429678	0.431974
H211	H	-1.044746	0.878675	-0.114260
H212	H	-0.544746	1.378675	0.385740
H213	H	-1.007569	0.949339	-0.068033
H214	H	-0.507569	1.449339	0.431967
H215	H	-1.083672	0.824008	0.000108
H216	H	-0.583672	1.324008	0.500108
H217	H	-1.046505	0.894678	0.046350
H218	H	-0.546505	1.394678	0.546350
C219	C	-0.684911	0.398969	0.000077
C220	C	-0.184911	0.898969	0.500077
C221	C	-0.744623	0.339624	0.000094
C222	C	-0.244623	0.839624	0.500094
H223	H	-0.637682	0.378391	0.000063
H224	H	-0.137682	0.878391	0.500063
H225	H	-0.688263	0.429379	0.046306
H226	H	-0.188263	0.929379	0.546306
H227	H	-0.688288	0.429377	-0.046160
H228	H	-0.188288	0.929377	0.453840
H229	H	-0.741250	0.309218	0.046334
H230	H	-0.241250	0.809218	0.546334
H231	H	-0.741270	0.309201	-0.046140
H232	H	-0.241270	0.809201	0.453860
H233	H	-0.987415	0.008437	0.214407
H234	H	-0.487415	0.508437	0.714407
H235	H	-0.987445	0.008452	0.634403
H236	H	-0.487445	0.508452	1.134403
C237	C	-0.444536	0.252043	-0.068056
C238	C	0.055464	0.752043	0.431944
C239	C	-0.490488	0.248561	0.000092
C240	C	0.009512	0.748561	0.500092
H241	H	-0.411545	0.298417	-0.068056
H242	H	0.088455	0.798417	0.431944
H243	H	-0.475712	0.249666	-0.114281
H244	H	0.024288	0.749666	0.385719
H245	H	-0.415179	0.210413	-0.068041
H246	H	0.084821	0.710413	0.431959
H247	H	-0.519850	0.290189	0.000074
H248	H	-0.019850	0.790189	0.500074
H249	H	-0.459309	0.250945	0.046329
H250	H	0.040691	0.750945	0.546329
H251	H	-0.987458	0.008455	0.785805
H252	H	-0.487458	0.508455	1.285805
C253	C	-0.449333	-0.027670	0.000096
C254	C	0.050667	0.472330	0.500096
C255	C	-0.528890	-0.040989	0.000097
C256	C	-0.028890	0.459011	0.500097
H257	H	-0.428758	-0.074901	0.000089
H258	H	0.071242	0.425099	0.500089
H259	H	-0.432642	0.000452	0.046327
H260	H	0.067358	0.500452	0.546327
H261	H	-0.432645	0.000464	-0.046138
H262	H	0.067355	0.500464	0.453862
H263	H	-0.545578	-0.069118	0.046334
H264	H	-0.045578	0.430882	0.546334
H265	H	-0.545587	-0.069123	-0.046139
H266	H	-0.045587	0.430877	0.453861
C267	C	-0.303744	0.249783	0.068251
C268	C	0.196256	0.749783	0.568251
C269	C	-0.258904	0.244849	0.000106
C270	C	0.241096	0.744849	0.500106
H271	H	-0.324332	0.297008	0.068240
H272	H	0.175668	0.797008	0.568240
H273	H	-0.273331	0.246434	0.114479
H274	H	0.226669	0.746434	0.614479
H275	H	-0.343990	0.209258	0.068241
H276	H	0.156010	0.709258	0.568241
H277	H	-0.218654	0.285370	0.000119
H278	H	0.281346	0.785370	0.500119
H279	H	-0.289319	0.248205	-0.046133
H280	H	0.210681	0.748205	0.453867
C281	C	-0.047224	0.245694	-0.068020
C282	C	0.452776	0.745694	0.431980
C283	C	-0.093178	0.242208	0.000127
C284	C	0.406822	0.742208	0.500127
H285	H	-0.014230	0.292066	-0.068014
H286	H	0.485770	0.792066	0.431986
H287	H	-0.078397	0.243322	-0.114246
H288	H	0.421603	0.743322	0.385754
H289	H	-0.017868	0.204061	-0.068007
H290	H	0.482132	0.704061	0.431993
H291	H	-0.122538	0.283837	0.000111
H292	H	0.377462	0.783837	0.500111
H293	H	-0.062001	0.244587	0.046365
H294	H	0.437999	0.744587	0.546365
H295	H	-0.800372	0.195436	0.785814
H296	H	-0.300372	0.695436	1.285814
C297	C	-0.740389	0.255330	0.256771
C298	C	-0.240389	0.755330	0.756771
C299	C	-0.785635	0.210096	0.202522
C300	C	-0.285635	0.710096	0.702522
H301	H	-0.705403	0.290302	0.228456
H302	H	-0.205403	0.790302	0.728456
H303	H	-0.713227	0.223861	0.289324
H304	H	-0.213227	0.723861	0.789324
H305	H	-0.771854	0.282516	0.289315
H306	H	-0.271854	0.782516	0.789315
H307	H	-0.754171	0.182906	0.169982
H308	H	-0.254171	0.682906	0.669982
H309	H	-0.812799	0.241569	0.169955
H310	H	-0.312799	0.741569	0.669955
H311	H	-0.140223	-0.027517	0.000121
H312	H	0.359777	0.472483	0.500121
H313	H	-0.766743	0.491479	0.000090
H314	H	-0.266743	0.991479	0.500090
C315	C	-1.096534	0.407588	0.000138
C316	C	-0.596534	0.907588	0.500138
C317	C	-1.036824	0.466935	0.000133
C318	C	-0.536824	0.966935	0.500133
H319	H	-1.143765	0.428165	0.000140
H320	H	-0.643765	0.928165	0.500140
H321	H	-1.093166	0.377179	0.046366
H322	H	-0.593166	0.877179	0.546366
H323	H	-1.093173	0.377179	-0.046099
H324	H	-0.593173	0.877179	0.453901
H325	H	-1.040181	0.497340	0.046373
H326	H	-0.540181	0.997340	0.546373
H327	H	-1.040194	0.497356	-0.046100
H328	H	-0.540194	0.997356	0.453900
