data_functionalizedCrystal
_audit_creation_method	'MofGen! by Chris Wilmer'
_symmetry_space_group_name_H-M	'P1'
_symmetry_Int_Tables_number	1
_symmetry_cell_setting	triclinic
loop_
_symmetry_equiv_pos_as_xyz
  x,y,z
_cell_length_a	16.109302
_cell_length_b	16.109304
_cell_length_c	13.448316
_cell_angle_alpha	89.996206
_cell_angle_beta	89.991297
_cell_angle_gamma	83.462209
loop_
_atom_site_label
_atom_site_type_symbol
_atom_site_fract_x
_atom_site_fract_y
_atom_site_fract_z
O1	O	1.103135	0.106872	-0.082730
O2	O	0.861073	0.120171	-0.082722
O3	O	0.988753	-0.007510	-0.082727
O4	O	0.975456	0.234552	-0.082725
O5	O	0.988737	-0.007517	0.082657
O6	O	0.861057	0.120163	0.082662
O7	O	1.103119	0.106864	0.082654
Cu8	Cu	0.982087	0.113513	0.097759
Cu9	Cu	0.982106	0.113522	-0.097827
O10	O	0.975440	0.234544	0.082659
C11	C	0.830090	0.119628	-0.000029
C12	C	0.737795	0.118012	-0.000026
C13	C	0.988206	-0.038488	-0.000037
C14	C	0.986590	-0.130784	-0.000044
C15	C	0.525445	0.114273	0.090115
C16	C	0.438725	0.112746	0.090112
C17	C	0.438753	0.112759	-0.090199
C18	C	0.525473	0.114280	-0.090194
C19	C	0.568816	0.115041	-0.000034
C20	C	0.395377	0.111994	-0.000042
C21	C	0.301351	0.110338	-0.000047
C22	C	0.662848	0.116695	-0.000030
C23	C	0.982865	-0.343117	-0.090191
C24	C	0.981339	-0.429837	-0.090190
C25	C	0.981325	-0.429842	0.090121
C26	C	0.982845	-0.343123	0.090119
C27	C	0.983619	-0.299763	-0.000040
C28	C	0.980573	-0.473202	-0.000037
C29	C	0.978918	-0.567228	-0.000035
C30	C	0.985272	-0.205731	-0.000042
C31	C	1.134102	0.107407	-0.000041
C32	C	1.226397	0.109022	-0.000051
C33	C	0.975987	0.265523	-0.000033
C34	C	0.977603	0.357818	-0.000033
N35	N	0.982079	0.113506	0.235323
N36	N	0.982120	0.113522	-0.235391
C37	C	1.038633	0.056992	0.287361
C38	C	1.038639	0.056991	0.391464
C39	C	0.982093	0.113509	0.443528
C40	C	0.925533	0.170025	0.391482
C41	C	0.925525	0.170021	0.287381
C42	C	0.925556	0.170031	0.608462
C43	C	0.925566	0.170036	0.712571
C44	C	1.038670	0.057001	0.712546
C45	C	1.038662	0.056997	0.608444
C46	C	0.982103	0.113514	0.556406
H47	H	0.560733	0.114893	0.163529
F48	F	0.983641	-0.296979	0.186075
H49	H	1.084722	0.010982	0.754921
F50	F	0.392571	0.111930	0.186061
F51	F	0.392619	0.111932	-0.186148
H52	H	1.084683	0.010972	0.244978
F53	F	0.571634	0.115092	-0.186149
H54	H	0.983492	-0.307815	-0.163604
H55	H	0.980722	-0.465131	-0.163599
F56	F	0.980501	-0.475996	0.186069
F57	F	1.098828	-0.003157	0.446848
H58	H	1.084709	0.010980	0.566055
F59	F	0.865348	0.230172	0.446893
H60	H	0.879520	0.216057	0.754955
H61	H	0.879497	0.216051	0.566096
H62	H	0.879472	0.216039	0.245012
