data_functionalizedCrystal
_audit_creation_method	'MofGen! by Chris Wilmer'
_symmetry_space_group_name_H-M	'P1'
_symmetry_Int_Tables_number	1
_symmetry_cell_setting	triclinic
loop_
_symmetry_equiv_pos_as_xyz
  x,y,z
_cell_length_a	19.121241
_cell_length_b	29.839131
_cell_length_c	19.120904
_cell_angle_alpha	87.598232
_cell_angle_beta	90.124528
_cell_angle_gamma	92.469032
loop_
_atom_site_label
_atom_site_type_symbol
_atom_site_fract_x
_atom_site_fract_y
_atom_site_fract_z
Zn1	Zn	1.054826	-0.162205	0.442145
Zn2	Zn	1.059726	-0.234000	0.324886
Zn3	Zn	0.942592	-0.161938	0.319914
Zn4	Zn	0.937533	-0.240364	0.437070
O5	O	0.998669	-0.199627	0.381004
O6	O	1.153584	-0.169177	0.430794
O7	O	1.048356	-0.221665	0.226123
O8	O	0.957546	-0.099106	0.336171
O9	O	1.157184	-0.221924	0.344644
O10	O	1.040004	-0.099302	0.425973
O11	O	0.962298	-0.168722	0.222470
O12	O	0.843813	-0.174894	0.331251
O13	O	0.948924	-0.232771	0.535847
O14	O	0.840096	-0.232513	0.417325
O15	O	1.035098	-0.175348	0.539575
O16	O	1.043451	-0.297712	0.339724
O17	O	0.953676	-0.302388	0.422146
C18	C	0.816516	-0.204365	0.373199
C19	C	0.738590	-0.206404	0.369876
C20	C	0.700103	-0.179946	0.413237
C21	C	0.626883	-0.181859	0.410109
C22	C	0.592151	-0.210232	0.363624
C23	C	0.630643	-0.236691	0.320258
C24	C	0.703862	-0.234775	0.323383
C25	C	0.371171	-0.217386	0.351938
C26	C	0.297947	-0.219300	0.348818
C27	C	0.294191	-0.164468	0.438669
C28	C	0.367412	-0.162557	0.441793
C29	C	0.405898	-0.189014	0.398424
C30	C	0.517308	-0.212189	0.360427
C31	C	0.480739	-0.187054	0.401618
C32	C	0.998565	-0.316350	0.380940
C33	C	0.998583	-0.366284	0.380939
C34	C	1.041592	-0.675996	0.427827
C35	C	1.041667	-0.863669	0.427873
O36	O	1.078132	-0.887993	0.467690
N37	N	0.998785	-0.887068	0.381087
C38	C	0.955879	-0.863546	0.334289
O39	O	0.919401	-0.887756	0.294501
C40	C	0.955801	-0.675875	0.334248
C41	C	0.998691	-0.652478	0.381032
C42	C	1.084478	-0.652599	0.474608
C43	C	1.084462	-0.605684	0.474594
C44	C	1.041560	-0.582165	0.427798
C45	C	0.998674	-0.605563	0.381017
C46	C	0.912891	-0.652355	0.287454
C47	C	0.912874	-0.605434	0.287449
C48	C	0.955764	-0.582037	0.334233
C49	C	0.955757	-0.535129	0.334208
N50	N	0.998638	-0.511730	0.380994
C51	C	1.041540	-0.535248	0.427789
C52	C	0.955923	-0.962076	0.334313
C53	C	0.955943	-1.008994	0.334323
C54	C	1.041731	-1.009113	0.427907
C55	C	1.041714	-0.962194	0.427894
C56	C	0.998805	-0.938677	0.381099
C57	C	1.041503	-0.436722	0.427755
C58	C	1.041485	-0.389803	0.427734
C59	C	0.955695	-0.389688	0.334153
C60	C	0.955716	-0.436603	0.334170
C61	C	0.998622	-0.460119	0.380977
O62	O	0.919305	-0.510776	0.294416
O63	O	1.078000	-0.511031	0.467582
C64	C	1.041609	-0.722912	0.427842
C65	C	0.998723	-0.746309	0.381061
C66	C	0.955821	-0.722791	0.334265
C67	C	0.998743	-0.793226	0.381070
C68	C	1.041645	-0.816745	0.427865
C69	C	1.084527	-0.793345	0.474651
C70	C	1.084510	-0.746430	0.474637
C71	C	0.912940	-0.746190	0.287479
C72	C	0.912960	-0.793105	0.287497
C73	C	0.955862	-0.816624	0.334292
C74	C	1.181534	-0.194870	0.388840
C75	C	1.259460	-0.192843	0.392179
C76	C	0.990901	-0.204799	0.563859
C77	C	0.987590	-0.207004	0.641782
C78	C	0.998793	-0.082447	0.381084
C79	C	0.998845	-0.032512	0.381118
C80	C	1.006448	-0.194441	0.198861
C81	C	1.009895	-0.192106	0.120945
C82	C	1.030898	-0.178143	0.680332
C83	C	1.027779	-0.180213	0.753547
C84	C	0.981354	-0.211145	0.788212
C85	C	0.938041	-0.240007	0.749657
C86	C	0.941157	-0.237935	0.676442
C87	C	0.969698	-0.218896	1.009175
C88	C	0.966586	-0.220967	1.082395
C89	C	1.056324	-0.161172	1.086281
C90	C	1.059439	-0.159104	1.013065
C91	C	1.016123	-0.187964	0.974516
C92	C	0.978167	-0.213263	0.863050
C93	C	1.019308	-0.185844	0.899679
H94	H	0.509021	-0.163951	0.439464
H95	H	1.076638	-0.943147	0.465990
H96	H	1.076664	-1.028269	0.466009
H97	H	1.076436	-0.455864	0.465874
H98	H	0.602359	-0.259790	0.282405
H99	H	1.063047	-0.156713	0.784932
H100	H	0.877966	-0.671397	0.249357
H101	H	0.262848	-0.142928	0.473976
H102	H	1.097245	-0.133917	0.984846
H103	H	1.068705	-0.152956	0.652113
C104	C	0.927698	-0.246865	0.900559
C105	C	0.890424	-0.271694	0.851132
C106	C	0.843919	-0.302648	0.885660
H107	H	0.953206	-0.266589	0.930258
H108	H	0.895916	-0.231293	0.927804
H109	H	0.922201	-0.287266	0.823899
H110	H	0.864901	-0.251982	0.821430
H111	H	0.812137	-0.287075	0.912905
H112	H	0.869433	-0.322369	0.915358
H113	H	0.818619	-0.319495	0.852129
H114	H	0.735197	-0.256319	0.288073
C115	C	1.131055	-0.818834	0.525574
C116	C	1.112787	-0.809759	0.594264
C117	C	1.155631	-0.833230	0.641193
H118	H	1.124955	-0.850135	0.518973
H119	H	1.178614	-0.809603	0.517420
H120	H	1.065239	-0.818993	0.602415
H121	H	1.118890	-0.778463	0.600887
H122	H	1.203190	-0.823998	0.633039
H123	H	1.149528	-0.864529	0.634586
H124	H	1.143247	-0.827072	0.687804
H125	H	0.489021	-0.235291	0.322578
H126	H	1.119435	-0.727383	0.512733
H127	H	0.928780	-0.246157	1.110617
H128	H	1.091588	-0.137675	1.117675
C129	C	1.130907	-0.580233	0.525433
C130	C	1.089257	-0.555604	0.568617
C131	C	1.132018	-0.532153	0.615457
H132	H	1.156467	-0.600916	0.553368
H133	H	1.162601	-0.560343	0.499973
H134	H	1.057575	-0.575492	0.594075
H135	H	1.063697	-0.534913	0.540701
H136	H	1.163712	-0.512262	0.589998
H137	H	1.157576	-0.552839	0.643388
H138	H	1.103765	-0.515436	0.644759
H139	H	1.076414	-0.370754	0.465832
C140	C	0.866267	-0.818486	0.236780
C141	C	0.796242	-0.809345	0.249035
C142	C	0.753204	-0.832720	0.202341
H143	H	0.878468	-0.809228	0.190094
H144	H	0.872366	-0.849803	0.243489
H145	H	0.790147	-0.778034	0.242321
H146	H	0.784020	-0.818604	0.295712
H147	H	0.759303	-0.864038	0.209050
H148	H	0.765411	-0.823461	0.155658
H149	H	0.705687	-0.826525	0.210654
H150	H	0.920797	-0.455654	0.296070
C151	C	0.260366	-0.250119	0.298274
C152	C	0.309741	-0.272871	0.260949
C153	C	0.275147	-0.301260	0.214381
H154	H	0.230661	-0.271263	0.323737
H155	H	0.233118	-0.232796	0.266528
H156	H	0.336977	-0.290193	0.292690
H157	H	0.339448	-0.251739	0.235472
H158	H	0.247900	-0.283937	0.182635
H159	H	0.245443	-0.322401	0.239849
H160	H	0.308643	-0.316697	0.189046
H161	H	0.728376	-0.156843	0.451093
C162	C	0.866401	-0.579841	0.236604
C163	C	0.908025	-0.550587	0.193404
C164	C	0.865240	-0.527001	0.146563
H165	H	0.840851	-0.600446	0.208679
H166	H	0.834699	-0.563074	0.262063
H167	H	0.939715	-0.567353	0.167947
H168	H	0.933575	-0.529973	0.221309
H169	H	0.833537	-0.510233	0.172022
H170	H	0.839691	-0.547609	0.118643
H171	H	0.893474	-0.507146	0.117250
H172	H	0.920767	-0.370532	0.296050
H173	H	0.402498	-0.238929	0.316625
H174	H	0.878003	-0.727045	0.249374
H175	H	1.119414	-0.671743	0.512718
C176	C	0.894170	-0.269217	0.634460
C177	C	0.906820	-0.260773	0.562922
C178	C	0.863538	-0.289577	0.524227
H179	H	0.903845	-0.299492	0.646789
H180	H	0.846547	-0.264200	0.644401
H181	H	0.954431	-0.265793	0.552985
H182	H	0.897140	-0.230503	0.550571
H183	H	0.815915	-0.284560	0.534169
H184	H	0.873217	-0.319850	0.536563
H185	H	0.872111	-0.283849	0.475685
C186	C	0.909307	-1.034314	0.283492
C187	C	0.871720	-1.003670	0.242526
C188	C	0.828741	-1.026977	0.195702
H189	H	0.937376	-1.051051	0.254054
H190	H	0.877568	-1.054169	0.308961
H191	H	0.903455	-0.983822	0.217059
H192	H	0.843638	-0.986932	0.271945
H193	H	0.797002	-1.046832	0.221170
H194	H	0.856815	-1.043713	0.166268
H195	H	0.803228	-1.006189	0.167905
H196	H	0.934437	-0.242402	0.977798
C197	C	1.069733	-0.152216	0.862173
C198	C	1.106989	-0.127375	0.911600
C199	C	1.153442	-0.096390	0.877069
H200	H	1.101535	-0.167750	0.834910
H201	H	1.044165	-0.132506	0.832491
H202	H	1.132555	-0.147082	0.941270
H203	H	1.075205	-0.111832	0.938865
H204	H	1.127874	-0.076680	0.847387
H205	H	1.185239	-0.111928	0.849807
H206	H	1.178721	-0.079529	0.910599
C207	C	0.585220	-0.153116	0.457270
C208	C	0.631307	-0.127869	0.498665
C209	C	0.592953	-0.101387	0.542125
H210	H	0.557800	-0.133466	0.429373
H211	H	0.555366	-0.171932	0.486581
H212	H	0.661149	-0.109054	0.469357
H213	H	0.658728	-0.147507	0.526576
H214	H	0.563099	-0.120204	0.571435
H215	H	0.565535	-0.081740	0.514222
H216	H	0.624217	-0.084257	0.570220
C217	C	0.404991	-0.131701	0.492278
C218	C	0.355614	-0.108929	0.529568
C219	C	0.390207	-0.080497	0.576075
H220	H	0.432254	-0.148982	0.524053
H221	H	0.434682	-0.110574	0.466749
H222	H	0.325935	-0.130054	0.555096
H223	H	0.328349	-0.091641	0.497811
H224	H	0.419898	-0.059369	0.550546
H225	H	0.417469	-0.097781	0.607845
H226	H	0.356710	-0.065040	0.601377
H227	H	0.920981	-0.942932	0.296206
H228	H	0.900239	-0.265191	0.777886
