data_functionalizedCrystal
_audit_creation_method	'MofGen! by Chris Wilmer'
_symmetry_space_group_name_H-M	'P1'
_symmetry_Int_Tables_number	1
_symmetry_cell_setting	triclinic
loop_
_symmetry_equiv_pos_as_xyz
  x,y,z
_cell_length_a	14.519709
_cell_length_b	17.699083
_cell_length_c	16.176319
_cell_angle_alpha	90.001389
_cell_angle_beta	89.992256
_cell_angle_gamma	96.518420
loop_
_atom_site_label
_atom_site_type_symbol
_atom_site_fract_x
_atom_site_fract_y
_atom_site_fract_z
O1	O	0.116624	-1.004413	-0.068632
O2	O	0.616624	-0.504413	0.431368
O3	O	0.131798	-0.784078	-0.068660
O4	O	0.631798	-0.284078	0.431340
O5	O	-0.010052	-0.900087	-0.068638
O6	O	0.489948	-0.400087	0.431362
O7	O	0.258474	-0.888403	-0.068654
O8	O	0.758474	-0.388403	0.431346
O9	O	-0.010061	-0.900071	0.068855
O10	O	0.489939	-0.400071	0.568855
O11	O	0.131789	-0.784062	0.068833
O12	O	0.631789	-0.284062	0.568833
O13	O	0.116615	-1.004397	0.068861
O14	O	0.616615	-0.504397	0.568861
Cu15	Cu	0.124201	-0.894228	0.081401
Cu16	Cu	0.624201	-0.394228	0.581401
Cu17	Cu	0.124212	-0.894247	-0.081200
Cu18	Cu	0.624212	-0.394247	0.418800
O19	O	0.258465	-0.888387	0.068839
O20	O	0.758465	-0.388387	0.568839
C21	C	0.131249	-0.755871	0.000083
C22	C	0.631249	-0.255871	0.500083
C23	C	0.129618	-0.671848	0.000073
C24	C	0.629618	-0.171848	0.500073
C25	C	-0.044414	-0.899534	0.000109
C26	C	0.455586	-0.399534	0.500109
C27	C	-0.146789	-0.897903	0.000109
C28	C	0.353211	-0.397903	0.500109
C29	C	0.117164	-1.032603	0.000116
C30	C	0.617164	-0.532603	0.500116
C31	C	0.118795	-1.116626	0.000121
C32	C	0.618795	-0.616626	0.500121
C33	C	-0.521659	-0.891896	0.000087
C34	C	-0.021659	-0.391896	0.500087
C35	C	-0.417358	-0.893564	0.000093
C36	C	0.082642	-0.393564	0.500093
C37	C	-0.334227	-0.894899	0.000099
C38	C	0.165773	-0.394899	0.500099
C39	C	-0.229920	-0.896568	0.000104
C40	C	0.270080	-0.396568	0.500104
C41	C	0.292827	-0.888940	0.000090
C42	C	0.792827	-0.388940	0.500090
C43	C	0.395202	-0.890572	0.000085
C44	C	0.895202	-0.390572	0.500085
N45	N	0.124193	-0.894220	0.195767
N46	N	0.624193	-0.394220	0.695767
C47	C	0.212881	-0.623466	0.000068
C48	C	0.712881	-0.123466	0.500068
C49	C	0.211343	-0.544518	0.000079
C50	C	0.711343	-0.044518	0.500079
C51	C	0.126541	-0.513954	0.000089
C52	C	0.626541	-0.013954	0.500089
C53	C	0.043272	-0.562343	0.000096
C54	C	0.543272	-0.062343	0.500096
C55	C	0.044811	-0.641289	0.000091
C56	C	0.544811	-0.141289	0.500091
C57	C	0.037064	-0.243962	0.000117
C58	C	0.537064	0.256038	0.500117
C59	C	0.035531	-0.165010	0.000119
C60	C	0.535531	0.334990	0.500119
C61	C	0.203596	-0.147191	0.000105
C62	C	0.703596	0.352809	0.500105
C63	C	0.205135	-0.226137	0.000100
C64	C	0.705135	0.273863	0.500100
C65	C	0.121866	-0.274519	0.000112
C66	C	0.621866	0.225481	0.500112
C67	C	0.123535	-0.360123	0.000102
C68	C	0.623535	0.139877	0.500102
C69	C	0.124872	-0.428352	0.000093
C70	C	0.624872	0.071648	0.500093
N71	N	0.124213	-0.894260	-0.195565
N72	N	0.624213	-0.394260	0.304435
C73	C	0.061408	-0.945604	0.239040
C74	C	0.561408	-0.445604	0.739040
C75	C	0.061407	-0.945608	0.325588
C76	C	0.561407	-0.445608	0.825588
C77	C	0.124196	-0.894231	0.368859
C78	C	0.624196	-0.394231	0.868859
C79	C	0.186985	-0.842841	0.325579
C80	C	0.686985	-0.342841	0.825579
C81	C	0.186981	-0.842834	0.239034
C82	C	0.686981	-0.342834	0.739034
C83	C	0.187002	-0.842867	0.674608
C84	C	0.687002	-0.342867	1.174608
C85	C	0.187003	-0.842879	0.761159
C86	C	0.687003	-0.342879	1.261159
C87	C	0.061428	-0.945641	0.761161
C88	C	0.561428	-0.445641	1.261161
C89	C	0.061424	-0.945634	0.674616
C90	C	0.561424	-0.445634	1.174616
C91	C	0.124209	-0.894242	0.631343
C92	C	0.624209	-0.394242	1.131343
C93	C	0.124208	-0.894237	0.537499
C94	C	0.624208	-0.394237	1.037499
C95	C	0.124202	-0.894238	0.462702
C96	C	0.624202	-0.394238	0.962702
H97	H	0.279144	-0.505128	0.000074
H98	H	0.779144	-0.005128	0.500074
H99	H	0.274189	-0.251017	0.000088
H100	H	0.774189	0.248983	0.500088
H101	H	-0.030739	-0.283346	0.000127
H102	H	0.469261	0.216654	0.500127
H103	H	0.010281	-0.987445	0.203814
H104	H	0.510281	-0.487445	0.703814
N105	N	-0.006299	-1.001069	0.807833
N106	N	0.493701	-0.501069	1.307833
H107	H	0.004249	-1.054793	0.792762
H108	H	0.504249	-0.554793	1.292762
H109	H	0.003261	-0.993212	0.869210
H110	H	0.503261	-0.493212	1.369210
N111	N	0.304351	-0.656421	0.000051
N112	N	0.804351	-0.156421	0.500051
H113	H	0.340819	-0.638788	0.051018
H114	H	0.840819	-0.138788	0.551018
H115	H	0.292622	-0.713770	0.000014
H116	H	0.792622	-0.213770	0.500014
N117	N	-0.044995	-0.693475	0.000089
N118	N	0.455005	-0.193475	0.500089
H119	H	-0.031153	-0.748124	0.000088
H120	H	0.468847	-0.248124	0.500088
H121	H	-0.081962	-0.683567	0.051064
H122	H	0.418038	-0.183567	0.551064
H123	H	0.271397	-0.107789	0.000100
H124	H	0.771397	0.392211	0.500100
H125	H	-0.033529	-0.140129	0.000128
H126	H	0.466471	0.359871	0.500128
H127	H	-0.025775	-0.537452	0.000116
H128	H	0.474225	-0.037452	0.500116
H129	H	0.238106	-0.801004	0.360816
H130	H	0.738106	-0.301004	0.860816
H131	H	0.010281	-0.987449	0.360821
H132	H	0.510281	-0.487449	0.860821
N133	N	0.254718	-0.787453	0.807835
N134	N	0.754718	-0.287453	1.307835
H135	H	0.295515	-0.816426	0.843731
H136	H	0.795515	-0.316426	1.343731
H137	H	0.294426	-0.754906	0.767238
H138	H	0.794426	-0.254906	1.267238
N139	N	0.254712	-0.787435	0.627941
N140	N	0.754712	-0.287435	1.127941
H141	H	0.294488	-0.754891	0.668489
H142	H	0.794488	-0.254891	1.168489
H143	H	0.295441	-0.816452	0.592017
H144	H	0.795441	-0.316452	1.092017
H145	H	0.010298	-0.987473	0.639387
H146	H	0.510298	-0.487473	1.139387
N147	N	0.254694	-0.787408	0.192355
N148	N	0.754694	-0.287408	0.692355
H149	H	0.294473	-0.754862	0.232899
H150	H	0.794473	-0.254862	0.732899
H151	H	0.295421	-0.816429	0.156434
H152	H	0.795421	-0.316429	0.656434
