data_functionalizedCrystal
_audit_creation_method	'MofGen! by Chris Wilmer'
_symmetry_space_group_name_H-M	'P1'
_symmetry_Int_Tables_number	1
_symmetry_cell_setting	triclinic
loop_
_symmetry_equiv_pos_as_xyz
  x,y,z
_cell_length_a	12.759400
_cell_length_b	12.759401
_cell_length_c	12.759393
_cell_angle_alpha	90.017109
_cell_angle_beta	90.031877
_cell_angle_gamma	90.013728
loop_
_atom_site_label
_atom_site_type_symbol
_atom_site_fract_x
_atom_site_fract_y
_atom_site_fract_z
Zn1	Zn	-0.418228	1.606240	0.593983
Zn2	Zn	-0.593948	1.606139	0.418303
Zn3	Zn	-0.418280	1.430547	0.418323
Zn4	Zn	-0.593862	1.430531	0.593945
O5	O	-0.506080	1.518364	0.506138
O6	O	-0.441551	1.753248	0.570687
O7	O	-0.570703	1.582811	0.271285
O8	O	-0.271252	1.453902	0.441648
O9	O	-0.570652	1.753174	0.441616
O10	O	-0.271214	1.582983	0.570706
O11	O	-0.441641	1.453804	0.271299
O12	O	-0.441558	1.283524	0.441611
O13	O	-0.570506	1.453875	0.740971
O14	O	-0.570557	1.283512	0.570640
O15	O	-0.441469	1.582968	0.740999
O16	O	-0.740957	1.582795	0.441579
O17	O	-0.740895	1.453777	0.570621
C18	C	-0.506055	1.245397	0.506124
C19	C	-0.506070	1.128620	0.506143
C20	C	-0.438974	1.073790	0.573454
C21	C	-0.438994	0.964066	0.573461
C22	C	-0.573215	0.964012	0.438841
C23	C	-0.573189	1.073734	0.438830
C24	C	-0.361486	1.073820	0.651179
C25	C	-0.361506	0.964096	0.651185
C26	C	-0.779047	1.518302	0.506117
C27	C	-0.895824	1.518371	0.506142
C28	C	-0.950683	1.585626	0.439024
C29	C	-1.060407	1.585690	0.439056
C30	C	-1.060402	1.451237	0.573328
C31	C	-0.950680	1.451179	0.573301
C32	C	-0.950687	1.663249	0.361500
C33	C	-1.060411	1.663313	0.361532
C34	C	-0.232046	1.518456	0.506183
C35	C	-0.115270	1.518494	0.506203
C36	C	-0.505972	1.518431	0.780172
C37	C	-0.505926	1.518459	0.896949
C38	C	-0.506105	1.792398	0.506154
C39	C	-0.506116	1.909174	0.506160
C40	C	-0.506111	1.518358	0.233171
C41	C	-0.505861	1.518534	0.116395
C42	C	-0.573062	1.451306	1.061523
C43	C	-0.573092	1.451266	0.951798
C44	C	-0.438718	1.585690	0.951829
C45	C	-0.438683	1.585724	1.061551
C46	C	-0.650645	1.373701	1.061504
C47	C	-0.650676	1.373661	0.951780
H48	H	-0.383400	0.934349	0.732521
H49	H	-0.732042	1.395475	0.921981
Br50	Br	-0.602104	1.244831	0.895064
Br51	Br	-1.134857	1.360054	0.664470
H52	H	-0.906014	1.396424	0.627963
H53	H	-0.920831	1.744591	0.383351
Br54	Br	-1.117002	1.792142	0.410243
Br55	Br	-0.664214	1.148145	0.347439
H56	H	-0.390718	1.107884	0.728417
H57	H	-0.916740	1.634125	0.284174
H58	H	-0.628838	1.292347	1.091286
H59	H	-0.727929	1.402834	1.095518
Br60	Br	-0.232630	0.907347	0.602844
Br61	Br	-0.664297	0.889518	0.347490
Br62	Br	-1.110194	1.627092	0.225898
Br63	Br	-0.347494	1.676980	1.136019
H64	H	-0.280083	1.103588	0.629525
Br65	Br	-0.347542	1.676861	0.877391
