data_functionalizedCrystal
_audit_creation_method	'MofGen! by Chris Wilmer'
_symmetry_space_group_name_H-M	'P1'
_symmetry_Int_Tables_number	1
_symmetry_cell_setting	triclinic
loop_
_symmetry_equiv_pos_as_xyz
  x,y,z
_cell_length_a	18.050590
_cell_length_b	13.897447
_cell_length_c	13.897441
_cell_angle_alpha	89.973472
_cell_angle_beta	90.006213
_cell_angle_gamma	89.989639
loop_
_atom_site_label
_atom_site_type_symbol
_atom_site_fract_x
_atom_site_fract_y
_atom_site_fract_z
Zn1	Zn	1.135380	0.384263	0.545035
Zn2	Zn	1.135291	0.545585	0.383747
Zn3	Zn	1.011184	0.384275	0.383794
Zn4	Zn	1.011162	0.545487	0.545041
O5	O	1.073254	0.464903	0.464404
O6	O	1.239293	0.405699	0.523617
O7	O	1.118799	0.524232	0.248772
O8	O	1.027705	0.249292	0.405200
O9	O	1.239227	0.524221	0.405120
O10	O	1.118951	0.249283	0.523662
O11	O	1.027619	0.405719	0.248806
O12	O	0.907256	0.405624	0.405206
O13	O	1.027668	0.524055	0.680022
O14	O	0.907241	0.524066	0.523673
O15	O	1.118930	0.405604	0.680017
O16	O	1.118778	0.680554	0.405127
O17	O	1.027582	0.680482	0.523628
C18	C	0.880302	0.464837	0.464446
C19	C	0.797756	0.464832	0.464486
C20	C	0.598318	0.529425	0.528756
C21	C	0.548919	0.441470	0.552484
C22	C	0.646626	0.464886	0.464439
C23	C	0.548943	0.552891	0.440711
C24	C	0.500641	0.464945	0.464396
C25	C	0.598314	0.376884	0.488213
C26	C	0.598342	0.488364	0.376399
C27	C	0.548966	0.400348	0.400093
C28	C	0.730724	0.464852	0.464467
C29	C	0.416544	0.464969	0.464368
C30	C	1.073188	0.715517	0.464394
C31	C	1.073228	0.822731	0.464422
C32	C	1.073262	0.909801	0.464448
C33	C	1.073311	1.019033	0.464478
C34	C	1.266960	0.464969	0.464363
C35	C	1.349506	0.464998	0.464346
C36	C	1.073307	0.464817	0.715997
C37	C	1.073329	0.464781	0.823211
C38	C	1.073335	1.213310	0.464448
C39	C	1.073355	1.106096	0.464498
C40	C	1.073244	0.464918	0.213790
C41	C	1.073366	0.464683	0.106576
C42	C	1.073349	0.464716	1.019507
C43	C	1.073336	0.464755	0.910274
H44	H	0.527210	0.421631	0.626919
C45	C	0.627368	0.602061	0.601269
C46	C	0.704925	0.601707	0.599734
C47	C	0.731712	0.668610	0.666512
H48	H	0.610524	0.585326	0.663828
H49	H	0.609781	0.664427	0.585036
H50	H	0.722505	0.539355	0.615973
H51	H	0.721788	0.618453	0.537192
H52	H	0.714125	0.730976	0.650279
H53	H	0.714864	0.651869	0.729066
H54	H	0.784337	0.668385	0.665473
C55	C	0.520070	0.652063	0.413774
C56	C	0.546169	0.677023	0.322237
C57	C	0.519581	0.768369	0.297398
H58	H	0.536953	0.697910	0.459456
H59	H	0.467442	0.651241	0.413320
H60	H	0.598786	0.677852	0.322699
H61	H	0.529288	0.631201	0.276535
H62	H	0.466953	0.767547	0.296943
H63	H	0.536465	0.814208	0.343086
H64	H	0.537279	0.785313	0.235285
H65	H	0.620068	0.508230	0.301985
H66	H	0.527432	0.345732	0.345684
H67	H	0.619910	0.302462	0.508349
