data_functionalizedCrystal
_audit_creation_method	'MofGen! by Chris Wilmer'
_symmetry_space_group_name_H-M	'P1'
_symmetry_Int_Tables_number	1
_symmetry_cell_setting	triclinic
loop_
_symmetry_equiv_pos_as_xyz
  x,y,z
_cell_length_a	14.044191
_cell_length_b	14.044220
_cell_length_c	12.996460
_cell_angle_alpha	90.006978
_cell_angle_beta	90.002997
_cell_angle_gamma	93.190327
loop_
_atom_site_label
_atom_site_type_symbol
_atom_site_fract_x
_atom_site_fract_y
_atom_site_fract_z
O1	O	1.277174	0.230202	0.085522
O2	O	1.527174	0.480202	0.335522
O3	O	1.777174	0.730202	0.585522
O4	O	2.027174	0.980202	0.835522
O5	O	1.000501	0.221889	0.085535
O6	O	1.250501	0.471889	0.335535
O7	O	1.500501	0.721889	0.585535
O8	O	1.750501	0.971889	0.835535
O9	O	1.134685	0.087710	0.085518
O10	O	1.384685	0.337710	0.335518
O11	O	1.634685	0.587710	0.585518
O12	O	1.884685	0.837710	0.835518
O13	O	1.142991	0.364381	0.085538
O14	O	1.392991	0.614381	0.335538
O15	O	1.642991	0.864381	0.585538
O16	O	1.892991	1.114381	0.835538
O17	O	1.134669	0.087700	-0.085616
O18	O	1.384669	0.337700	0.164384
O19	O	1.634669	0.587700	0.414384
O20	O	1.884669	0.837700	0.664384
O21	O	1.000486	0.221880	-0.085599
O22	O	1.250486	0.471880	0.164401
O23	O	1.500486	0.721880	0.414401
O24	O	1.750486	0.971880	0.664401
O25	O	1.277158	0.230192	-0.085612
O26	O	1.527158	0.480192	0.164388
O27	O	1.777158	0.730192	0.414388
O28	O	2.027158	0.980192	0.664388
Cu29	Cu	1.138820	0.226035	-0.101232
Cu30	Cu	1.388820	0.476035	0.148768
Cu31	Cu	1.638820	0.726035	0.398768
Cu32	Cu	1.888820	0.976035	0.648768
Cu33	Cu	1.138839	0.226046	0.101154
Cu34	Cu	1.388839	0.476046	0.351154
Cu35	Cu	1.638839	0.726046	0.601154
Cu36	Cu	1.888839	0.976046	0.851154
O37	O	1.142975	0.364372	-0.085596
O38	O	1.392975	0.614372	0.164404
O39	O	1.642975	0.864372	0.414404
O40	O	1.892975	1.114372	0.664404
C41	C	0.964872	0.218248	-0.000031
C42	C	1.214872	0.468248	0.249969
C43	C	1.464872	0.718248	0.499969
C44	C	1.714872	0.968248	0.749969
C45	C	0.858728	0.207401	-0.000026
C46	C	1.108728	0.457401	0.249974
C47	C	1.358728	0.707401	0.499974
C48	C	1.608728	0.957401	0.749974
C49	C	1.131041	0.052083	-0.000049
C50	C	1.381041	0.302083	0.249951
C51	C	1.631041	0.552083	0.499951
C52	C	1.881041	0.802083	0.749951
C53	C	1.120197	-0.054060	-0.000050
C54	C	1.370197	0.195940	0.249950
C55	C	1.620197	0.445940	0.499950
C56	C	1.870197	0.695940	0.749950
C57	C	0.613270	0.264501	-0.000032
C58	C	0.863270	0.514501	0.249968
C59	C	1.113270	0.764501	0.499968
C60	C	1.363270	1.014501	0.749968
C61	C	0.664395	0.187585	-0.000036
C62	C	0.914395	0.437585	0.249964
C63	C	1.164395	0.687585	0.499964
C64	C	1.414395	0.937585	0.749964
C65	C	0.772532	0.198613	-0.000031
C66	C	1.022532	0.448613	0.249969
C67	C	1.272532	0.698613	0.499969
C68	C	1.522532	0.948613	0.749969
C69	C	0.505123	0.253474	-0.000038
C70	C	0.755123	0.503474	0.249962
C71	C	1.005123	0.753474	0.499962
C72	C	1.255123	1.003474	0.749962
C73	C	1.100370	-0.248398	-0.000034
C74	C	1.350370	0.001602	0.249966
C75	C	1.600370	0.251602	0.499966
C76	C	1.850370	0.501602	0.749966
C77	C	1.177285	-0.299526	-0.000034
C78	C	1.427285	-0.049526	0.249966
C79	C	1.677285	0.200474	0.499966
C80	C	1.927285	0.450474	0.749966
C81	C	1.166253	-0.407663	-0.000026
C82	C	1.416253	-0.157663	0.249974
C83	C	1.666253	0.092337	0.499974
C84	C	1.916253	0.342337	0.749974
C85	C	1.111400	-0.140252	-0.000043
C86	C	1.361400	0.109748	0.249957
C87	C	1.611400	0.359748	0.499957
C88	C	1.861400	0.609748	0.749957
C89	C	1.312788	0.233834	-0.000044
C90	C	1.562788	0.483834	0.249956
C91	C	1.812788	0.733834	0.499956
C92	C	2.062788	0.983834	0.749956
C93	C	1.418931	0.244681	-0.000042
C94	C	1.668931	0.494681	0.249958
C95	C	1.918931	0.744681	0.499958
C96	C	2.168931	0.994681	0.749958
C97	C	1.146618	0.399998	-0.000026
C98	C	1.396618	0.649998	0.249974
C99	C	1.646618	0.899998	0.499974
C100	C	1.896618	1.149998	0.749974
C101	C	1.157463	0.506142	-0.000019
C102	C	1.407463	0.756142	0.249981
C103	C	1.657463	1.006142	0.499981
C104	C	1.907463	1.256142	0.749981
N105	N	1.138814	0.226027	-0.243579
N106	N	1.388814	0.476027	0.006421
N107	N	1.638814	0.726027	0.256421
N108	N	1.888814	0.976027	0.506421
C109	C	1.138838	0.226047	-0.663393
C110	C	1.388838	0.476047	-0.413393
C111	C	1.638838	0.726047	-0.163393
C112	C	1.888838	0.976047	0.086607
C113	C	1.138829	0.226045	-0.546588
C114	C	1.388829	0.476045	-0.296588
C115	C	1.638829	0.726045	-0.046588
C116	C	1.888829	0.976045	0.203412
C117	C	1.138826	0.226038	-0.453490
C118	C	1.388826	0.476038	-0.203490
C119	C	1.638826	0.726038	0.046510
C120	C	1.888826	0.976038	0.296510
C121	C	1.138816	0.226034	-0.336677
C122	C	1.388816	0.476034	-0.086677
C123	C	1.638816	0.726034	0.163323
C124	C	1.888816	0.976034	0.413323
N125	N	1.138852	0.226047	0.243501
N126	N	1.388852	0.476047	0.493501
N127	N	1.638852	0.726047	0.743501
N128	N	1.888852	0.976047	0.993501
H129	H	0.626952	0.113452	0.000031
H130	H	0.876952	0.363452	0.250031
H131	H	1.126952	0.613452	0.500031
H132	H	1.376952	0.863452	0.750031
Cl133	Cl	0.985920	-0.306201	-0.000024
Cl134	Cl	1.235920	-0.056201	0.249976
Cl135	Cl	1.485920	0.193799	0.499976
Cl136	Cl	1.735920	0.443799	0.749976
H137	H	0.650711	0.338628	-0.000024
H138	H	0.900711	0.588628	0.249976
H139	H	1.150711	0.838628	0.499976
H140	H	1.400711	1.088628	0.749976
H141	H	1.251419	-0.262085	0.000031
H142	H	1.501419	-0.012085	0.250031
H143	H	1.751419	0.237915	0.500031
H144	H	2.001419	0.487915	0.750031
