data_functionalizedCrystal
_audit_creation_method	'MofGen! by Chris Wilmer'
_symmetry_space_group_name_H-M	'P1'
_symmetry_Int_Tables_number	1
_symmetry_cell_setting	triclinic
loop_
_symmetry_equiv_pos_as_xyz
  x,y,z
_cell_length_a	27.732048
_cell_length_b	16.974810
_cell_length_c	16.053802
_cell_angle_alpha	88.925582
_cell_angle_beta	92.539157
_cell_angle_gamma	96.981651
loop_
_atom_site_label
_atom_site_type_symbol
_atom_site_fract_x
_atom_site_fract_y
_atom_site_fract_z
O1	O	0.061625	-1.048325	0.001427
O2	O	0.069022	-0.818774	-0.014093
O3	O	-0.005031	-0.940678	-0.005836
O4	O	0.135678	-0.926421	-0.006831
O5	O	-0.000972	-0.933968	0.132569
O6	O	0.073081	-0.812064	0.124311
O7	O	0.065684	-1.041615	0.139831
Zn8	Zn	0.070027	-0.925774	0.154046
Zn9	Zn	0.064679	-0.934614	-0.028308
O10	O	0.139737	-0.919711	0.131573
C11	C	0.070695	-0.786060	0.053124
C12	C	0.069629	-0.698581	0.047210
C13	C	0.071339	-0.653830	0.119878
C14	C	0.070329	-0.571635	0.114324
C15	C	0.067612	-0.534192	0.036101
C16	C	0.065900	-0.578949	-0.036572
C17	C	0.066907	-0.661143	-0.031017
C18	C	0.064361	-0.288762	0.011397
C19	C	0.063357	-0.206562	0.005847
C20	C	0.067785	-0.199253	0.156744
C21	C	0.068794	-0.281448	0.162292
C22	C	0.067079	-0.326199	0.089619
N23	N	0.066581	-0.450176	0.030422
N24	N	0.068107	-0.410215	0.095299
C25	C	-0.021010	-0.937023	0.063349
C26	C	-0.074670	-0.936122	0.063295
C27	C	-0.413096	-1.002488	0.067739
C28	C	-0.614776	-0.999144	0.067501
O29	O	-0.645676	-1.059831	0.071568
N30	N	-0.634324	-0.926860	0.062615
C31	C	-0.603450	-0.855406	0.057782
O32	O	-0.624705	-0.793847	0.053612
C33	C	-0.401771	-0.858751	0.058014
C34	C	-0.382225	-0.931040	0.062909
C35	C	-0.393550	-1.074771	0.072633
C36	C	-0.343133	-1.075606	0.072697
C37	C	-0.312262	-1.004157	0.067867
C38	C	-0.331808	-0.931874	0.062973
C39	C	-0.370897	-0.787298	0.053175
C40	C	-0.320475	-0.788141	0.053231
C41	C	-0.300930	-0.860430	0.058126
C42	C	-0.250520	-0.861261	0.058207
N43	N	-0.230972	-0.933546	0.063093
C44	C	-0.261843	-1.004994	0.067923
C45	C	-0.709334	-0.853655	0.057662
C46	C	-0.759753	-0.852819	0.057606
C47	C	-0.771076	-0.996557	0.067323
C48	C	-0.720656	-0.997393	0.067386
C49	C	-0.689786	-0.925940	0.062549
C50	C	-0.155963	-1.006742	0.068058
C51	C	-0.105541	-1.007570	0.068125
C52	C	-0.094222	-0.863832	0.058403
C53	C	-0.144640	-0.863003	0.058340
C54	C	-0.175510	-0.934464	0.063165
O55	O	-0.219592	-0.800607	0.054133
O56	O	-0.240579	-1.066545	0.072074
C57	C	-0.463513	-1.001653	0.067675
C58	C	-0.483060	-0.929370	0.062781
C59	C	-0.452189	-0.857922	0.057951
C60	C	-0.533479	-0.928533	0.062725
C61	C	-0.564350	-0.999982	0.067555
C62	C	-0.544801	-1.072266	0.072441
C63	C	-0.494384	-1.073101	0.072505
C64	C	-0.471737	-0.785637	0.053065
C65	C	-0.522155	-0.784808	0.053002
C66	C	-0.553026	-0.856256	0.057832
C67	C	0.155716	-0.923365	0.062387
C68	C	0.209376	-0.924267	0.062436
C69	C	0.064008	-0.074329	0.072610
C70	C	0.065067	-0.161811	0.078515
N71	N	0.073677	-0.919747	0.278498
N72	N	0.061025	-0.940648	-0.152760
C73	C	0.042179	-0.971636	0.325707
C74	C	0.044736	-0.967426	0.412828
C75	C	0.078795	-0.911332	0.452740
C76	C	0.110294	-0.859437	0.405524
C77	C	0.107734	-0.863643	0.318404
C78	C	0.089965	-0.892960	0.712905
C79	C	0.092524	-0.888759	0.800031
C80	C	0.026964	-0.996748	0.807329
C81	C	0.024409	-1.000952	0.720207
C82	C	0.055907	-0.949055	0.672999
N83	N	0.081411	-0.907030	0.541792
N84	N	0.053288	-0.953354	0.583949
H85	H	0.071714	-0.535204	0.173498
H86	H	0.071004	-0.311929	0.225990
O87	O	0.069879	-0.150935	0.235120
H88	H	0.068810	-0.087470	0.218119
H89	H	0.014446	-1.017317	0.293217
O90	O	-0.012319	-1.061461	0.677155
H91	H	-0.037030	-1.030497	0.635246
O92	O	0.129262	-0.828253	0.843077
H93	H	0.125754	-0.834057	0.911589
H94	H	0.065515	-0.697578	-0.090191
O95	O	0.062515	-0.337019	-0.066985
H96	H	0.095779	-0.367219	-0.068573
H97	H	0.061145	-0.176078	-0.057854
O98	O	-0.780833	-0.774851	0.052337
H99	H	-0.750892	-0.725314	0.048981
H100	H	0.001320	-1.039000	0.845774
O101	O	0.062972	-0.538570	-0.120945
H102	H	0.062565	-0.473895	-0.112601
H103	H	-0.089630	-1.066439	0.072113
O104	O	-0.676040	-0.776583	0.052450
H105	H	-0.651146	-0.770794	0.108653
H106	H	-0.181092	-1.064933	0.071984
O107	O	-0.322055	-1.153575	0.077952
H108	H	-0.351998	-1.203111	0.081286
H109	H	0.019087	-1.009678	0.451266
H110	H	-0.538063	-0.725937	0.049023
O111	O	0.123940	-0.836995	0.661992
H112	H	0.148057	-0.797291	0.704385
H113	H	-0.160554	-0.804139	0.054377
O114	O	0.147033	-0.798935	0.448565
H115	H	0.143526	-0.804734	0.517077
H116	H	-0.418681	-1.132956	0.076563
O117	O	0.141709	-0.807682	0.267479
H118	H	0.165826	-0.767974	0.309867
O119	O	-0.699575	-1.075360	0.072650
H120	H	-0.729517	-1.124898	0.075992
H121	H	0.073555	-0.684309	0.183576
O122	O	-0.804377	-1.073623	0.072527
H123	H	-0.842719	-1.060890	0.071658
O124	O	-0.391972	-0.709329	0.047892
H125	H	-0.362028	-0.659796	0.044533
O126	O	-0.287178	-0.711072	0.048024
H127	H	-0.309244	-0.660670	0.044619
O128	O	-0.060922	-0.786771	0.053192
H129	H	-0.022580	-0.799504	0.054050
O130	O	-0.473306	-1.151070	0.077768
H131	H	-0.503249	-1.200606	0.081105
H132	H	-0.569945	-1.130442	0.076377
H133	H	-0.446606	-0.727454	0.049130
