data_functionalizedCrystal
_audit_creation_method	'MofGen! by Chris Wilmer'
_symmetry_space_group_name_H-M	'P1'
_symmetry_Int_Tables_number	1
_symmetry_cell_setting	triclinic
loop_
_symmetry_equiv_pos_as_xyz
  x,y,z
_cell_length_a	18.050589
_cell_length_b	13.032831
_cell_length_c	13.032268
_cell_angle_alpha	89.113023
_cell_angle_beta	97.149417
_cell_angle_gamma	97.166814
loop_
_atom_site_label
_atom_site_type_symbol
_atom_site_fract_x
_atom_site_fract_y
_atom_site_fract_z
Zn1	Zn	-0.501530	-1.498351	-0.780835
Zn2	Zn	-0.612177	-1.520065	-0.608855
Zn3	Zn	-0.470507	-1.348217	-0.587076
Zn4	Zn	-0.608161	-1.326314	-0.758980
O5	O	-0.548094	-1.423237	-0.683937
O6	O	-0.530872	-1.645148	-0.776283
O7	O	-0.582081	-1.515523	-0.462049
O8	O	-0.370708	-1.368212	-0.612810
O9	O	-0.612163	-1.661101	-0.649930
O10	O	-0.393501	-1.478515	-0.755164
O11	O	-0.477997	-1.389267	-0.446048
O12	O	-0.474104	-1.201395	-0.591619
O13	O	-0.605320	-1.330881	-0.905796
O14	O	-0.575238	-1.185303	-0.717916
O15	O	-0.526978	-1.457276	-0.921853
O16	O	-0.715559	-1.494284	-0.628738
O17	O	-0.712609	-1.351936	-0.739034
C18	C	-0.520869	-1.156033	-0.650033
C19	C	-0.509242	-1.041718	-0.635553
C20	C	-0.741032	-1.423115	-0.683904
C21	C	-0.823584	-1.423152	-0.683936
C22	C	-0.569162	-1.389213	-0.952184
C23	C	-0.578139	-1.374714	-1.066495
C24	C	-1.021463	-1.345814	-0.743900
C25	C	-1.060964	-1.332669	-0.646879
C26	C	-0.974726	-1.423252	-0.683962
C27	C	-1.082312	-1.436446	-0.781001
C28	C	-1.120722	-1.423345	-0.683996
C29	C	-1.013131	-1.410063	-0.586886
C30	C	-1.034484	-1.513876	-0.721076
C31	C	-1.073962	-1.500775	-0.623995
C32	C	-0.890621	-1.423195	-0.683944
C33	C	-1.204825	-1.423402	-0.684003
C34	C	-0.354407	-1.423384	-0.683996
C35	C	-0.271869	-1.423447	-0.684021
C36	C	-0.575426	-1.691484	-0.717973
C37	C	-0.587073	-1.805795	-0.732478
C38	C	-0.554162	-0.982831	-0.691494
C39	C	-0.542146	-0.864681	-0.676530
C40	C	-0.543380	-1.430788	-1.125403
C41	C	-0.552658	-1.415804	-1.243549
C42	C	-0.527061	-1.457187	-0.416741
C43	C	-0.517894	-1.471885	-0.302456
H44	H	-1.072993	-1.256073	-0.615515
H45	H	-0.589283	-1.356694	-1.280578
H46	H	-0.601514	-1.019885	-0.750468
H47	H	-0.481259	-1.530984	-1.265427
H48	H	-0.983153	-1.398850	-0.504801
C49	C	-0.627215	-1.295538	-1.223845
C50	C	-0.627593	-1.294935	-1.116479
H51	H	-0.657752	-1.246290	-1.254700
H52	H	-0.577163	-1.278307	-1.239500
H53	H	-0.646488	-1.362427	-1.250152
H54	H	-0.608314	-1.228048	-1.090171
H55	H	-0.677655	-1.312161	-1.100817
C56	C	-1.182500	-1.589085	-0.556738
C57	C	-1.104835	-1.589241	-0.555504
H58	H	-1.201559	-1.643701	-0.514456
H59	H	-1.192082	-1.524876	-0.530978
H60	H	-1.206530	-1.598591	-0.625617
H61	H	-1.080804	-1.579728	-0.486625
H62	H	-1.095247	-1.653466	-0.581259
H63	H	-0.461885	-1.004664	-0.576587
C64	C	-0.435527	-1.460385	-1.006295
C65	C	-0.493936	-1.510576	-1.075415
H66	H	-0.405006	-1.509648	-0.975433
H67	H	-0.405823	-1.410337	-1.042530
H68	H	-0.456141	-1.427147	-0.954035
H69	H	-0.473322	-1.543809	-1.127680
H70	H	-0.523644	-1.560644	-1.039179
H71	H	-0.998449	-1.280253	-0.794494
C72	C	-1.053473	-1.630851	-0.865135
C73	C	-1.018240	-1.617243	-0.763472
H74	H	-1.043439	-1.694661	-0.891317
H75	H	-1.106220	-1.631408	-0.866050
H76	H	-1.034644	-1.575717	-0.906988
H77	H	-1.037073	-1.672372	-0.721618
H78	H	-0.965482	-1.616694	-0.762551
C79	C	-0.508607	-0.761279	-0.522990
C80	C	-0.478219	-0.814686	-0.596899
H81	H	-0.469142	-0.730422	-0.473825
H82	H	-0.535219	-0.709022	-0.556148
H83	H	-0.542059	-0.808178	-0.488860
H84	H	-0.444771	-0.767785	-0.631035
H85	H	-0.451595	-0.866949	-0.563738
C86	C	-1.096295	-1.370241	-0.954363
C87	C	-1.122887	-1.451473	-0.891765
H88	H	-1.121339	-1.379518	-1.022746
H89	H	-1.105813	-1.306437	-0.927602
H90	H	-1.043700	-1.369690	-0.955207
H91	H	-1.175482	-1.452020	-0.890915
H92	H	-1.113375	-1.515294	-0.918533
C93	C	-0.650535	-0.963163	-0.811513
C94	C	-0.651004	-0.855799	-0.812096
H95	H	-0.690006	-0.994030	-0.860663
H96	H	-0.603626	-0.978813	-0.828893
H97	H	-0.657670	-0.989458	-0.744590
H98	H	-0.643864	-0.829502	-0.879018
H99	H	-0.697926	-0.840140	-0.794723
