data_functionalizedCrystal
_audit_creation_method	'MofGen! by Chris Wilmer'
_symmetry_space_group_name_H-M	'P1'
_symmetry_Int_Tables_number	1
_symmetry_cell_setting	triclinic
loop_
_symmetry_equiv_pos_as_xyz
  x,y,z
_cell_length_a	10.685976
_cell_length_b	18.101397
_cell_length_c	10.686551
_cell_angle_alpha	85.588535
_cell_angle_beta	89.651515
_cell_angle_gamma	85.657616
loop_
_atom_site_label
_atom_site_type_symbol
_atom_site_fract_x
_atom_site_fract_y
_atom_site_fract_z
Zn1	Zn	1.972142	-0.358104	-0.561821
Zn2	Zn	1.955890	-0.490684	-0.352044
Zn3	Zn	1.746270	-0.356714	-0.368196
Zn4	Zn	1.762332	-0.471757	-0.577874
O5	O	1.859158	-0.419315	-0.464984
O6	O	2.145519	-0.384195	-0.520515
O7	O	1.914560	-0.480252	-0.178643
O8	O	1.776312	-0.253267	-0.393922
O9	O	2.133579	-0.481600	-0.366393
O10	O	1.942259	-0.254289	-0.536178
O11	O	1.760553	-0.381824	-0.190510
O12	O	1.572868	-0.363471	-0.409489
O13	O	1.803687	-0.449342	-0.751288
O14	O	1.584668	-0.447993	-0.563538
O15	O	1.957834	-0.365842	-0.739493
O16	O	1.930134	-0.591805	-0.381959
O17	O	1.787928	-0.577899	-0.547875
C18	C	1.533254	-0.403528	-0.490009
C19	C	1.393833	-0.396791	-0.500744
C20	C	1.859046	-0.611723	-0.464931
C21	C	1.859117	-0.694040	-0.464942
C22	C	1.859285	-0.993133	-0.465044
C23	C	1.948468	-0.970524	-0.360415
C24	C	1.948822	-0.884911	-0.360641
C25	C	1.859202	-0.844750	-0.464992
C26	C	1.905192	-0.871982	-0.594465
C27	C	1.905899	-0.957685	-0.593879
C28	C	1.723943	-0.956629	-0.441364
C29	C	1.724372	-0.871135	-0.438362
C30	C	1.859153	-0.760889	-0.464971
C31	C	1.859338	-1.076994	-0.465073
C32	C	2.186335	-0.435164	-0.439861
C33	C	2.325759	-0.441918	-0.429156
C34	C	1.884365	-0.405636	-0.792180
C35	C	1.895106	-0.399806	-0.931611
C36	C	1.859307	-0.226156	-0.465061
C37	C	1.859371	-0.143843	-0.465094
C38	C	1.834123	-0.432891	-0.139055
C39	C	1.823624	-0.438523	0.000395
H40	H	1.345454	-0.353003	-0.570255
H41	H	1.374145	-0.485714	-0.359652
Br42	Br	2.115576	-0.857039	-0.385415
H43	H	1.844343	-0.972033	-0.673970
H44	H	1.918766	-0.994192	-0.263778
Br45	Br	1.898812	-0.854964	-0.200126
H46	H	1.657370	-0.970460	-0.517694
H47	H	1.689877	-0.853623	-0.343130
Br48	Br	2.114297	-1.012652	-0.384816
H49	H	2.005131	-0.981105	-0.615123
H50	H	1.754212	-0.476133	-0.951149
H51	H	1.842663	-0.845222	-0.674080
Br52	Br	2.068837	-0.841850	-0.630829
H53	H	1.684065	-0.980660	-0.349121
H54	H	1.964532	-0.362200	-0.980073
H55	H	1.653528	-0.843343	-0.509806
