data_functionalizedCrystal
_audit_creation_method	'MofGen! by Chris Wilmer'
_symmetry_space_group_name_H-M	'P1'
_symmetry_Int_Tables_number	1
_symmetry_cell_setting	triclinic
loop_
_symmetry_equiv_pos_as_xyz
  x,y,z
_cell_length_a	27.732048
_cell_length_b	26.210047
_cell_length_c	27.732048
_cell_angle_alpha	89.999521
_cell_angle_beta	97.357345
_cell_angle_gamma	90.003465
loop_
_atom_site_label
_atom_site_type_symbol
_atom_site_fract_x
_atom_site_fract_y
_atom_site_fract_z
O1	O	0.640931	0.042369	-0.057510
O2	O	0.500138	0.042385	-0.066256
O3	O	0.574907	0.042367	0.008514
O4	O	0.566162	0.042387	-0.132279
O5	O	0.574893	-0.042491	0.008502
O6	O	0.500123	-0.042473	-0.066267
O7	O	0.640917	-0.042489	-0.057522
Cu8	Cu	0.570519	-0.050229	-0.061896
Cu9	Cu	0.570536	0.050125	-0.061882
O10	O	0.566147	-0.042471	-0.132291
C11	C	0.482124	-0.000042	-0.066078
C12	C	0.428469	-0.000036	-0.065525
N13	N	0.570510	-0.120813	-0.061905
C14	C	0.089654	-0.000053	-0.106229
C15	C	-0.112006	-0.000057	-0.104178
O16	O	-0.143262	-0.000074	-0.141398
N17	N	-0.131130	-0.000063	-0.059843
C18	C	-0.099835	-0.000071	-0.016017
O19	O	-0.120728	-0.000081	0.021740
C20	C	0.101824	-0.000069	-0.018068
C21	C	0.120944	-0.000059	-0.062407
C22	C	0.108775	-0.000043	-0.150563
C23	C	0.159187	-0.000039	-0.151076
C24	C	0.190477	-0.000045	-0.107253
C25	C	0.171356	-0.000055	-0.062919
C26	C	0.133117	-0.000081	0.025757
C27	C	0.183535	-0.000082	0.025240
C28	C	0.202655	-0.000071	-0.019098
C29	C	0.253059	-0.000057	-0.019609
N30	N	0.272183	-0.000051	-0.063944
C31	C	0.240892	-0.000045	-0.107766
C32	C	-0.205709	-0.000070	-0.014943
C33	C	-0.256124	-0.000070	-0.014430
C34	C	-0.268291	-0.000057	-0.102591
C35	C	-0.217876	-0.000054	-0.103104
C36	C	-0.186585	-0.000065	-0.059278
C37	C	0.346761	-0.000036	-0.108839
C38	C	0.397178	-0.000030	-0.109347
C39	C	0.409341	-0.000045	-0.021186
C40	C	0.358929	-0.000049	-0.020678
C41	C	0.327639	-0.000046	-0.064508
O42	O	0.284343	-0.000046	0.017592
O43	O	0.261794	-0.000047	-0.145518
C44	C	0.039242	-0.000057	-0.105716
C45	C	0.020120	-0.000067	-0.061382
C46	C	0.051411	-0.000073	-0.017560
C47	C	-0.030294	-0.000066	-0.060869
C48	C	-0.061585	-0.000060	-0.104691
C49	C	-0.042461	-0.000054	-0.149026
C50	C	0.007951	-0.000050	-0.149539
C51	C	0.032287	-0.000078	0.026775
C52	C	-0.018125	-0.000082	0.027284
C53	C	-0.049416	-0.000076	-0.016538
C54	C	0.603640	-0.473336	-0.028781
C55	C	0.603651	-0.686994	-0.028774
O56	O	0.631801	-0.714623	-0.000614
N57	N	0.570538	-0.713707	-0.061871
C58	C	0.537419	-0.687003	-0.094970
O59	O	0.509251	-0.714626	-0.123117
C60	C	0.537406	-0.473345	-0.094974
C61	C	0.570524	-0.446635	-0.061878
C62	C	0.636755	-0.446625	0.004312
C63	C	0.636754	-0.393214	0.004308
C64	C	0.603638	-0.366513	-0.028789
C65	C	0.570523	-0.393223	-0.061882
C66	C	0.504284	-0.446641	-0.128070
C67	C	0.504283	-0.393223	-0.128067
C68	C	0.537401	-0.366513	-0.094971
C69	C	0.537405	-0.313111	-0.094983
N70	N	0.570518	-0.286397	-0.061886
C71	C	0.603634	-0.313098	-0.028789
C72	C	0.537428	-0.799176	-0.094966
C73	C	0.537432	-0.852590	-0.094965
C74	C	0.603664	-0.852578	-0.028769
C75	C	0.603662	-0.799163	-0.028773
C76	C	0.570541	-0.772463	-0.061869
C77	C	0.603629	-0.200931	-0.028800
C78	C	0.603626	-0.147514	-0.028808
C79	C	0.537393	-0.147531	-0.095002
C80	C	0.537397	-0.200943	-0.094996
C81	C	0.570517	-0.227641	-0.061891
O82	O	0.509267	-0.285449	-0.123125
O83	O	0.631790	-0.285466	-0.000639
C84	C	0.603641	-0.526747	-0.028777
C85	C	0.570527	-0.553457	-0.061871
C86	C	0.537410	-0.526756	-0.094968
C87	C	0.570530	-0.606872	-0.061870
C88	C	0.603646	-0.633573	-0.028773
C89	C	0.636759	-0.606859	0.004323
C90	C	0.636758	-0.553448	0.004320
C91	C	0.504298	-0.553470	-0.128064
C92	C	0.504302	-0.606881	-0.128058
C93	C	0.537418	-0.633582	-0.094961
C94	C	0.658931	-0.000061	-0.057699
C95	C	0.712586	-0.000064	-0.058252
C96	C	0.574716	-0.000064	0.026515
C97	C	0.574164	-0.000068	0.080170
N98	N	0.570548	0.120709	-0.061868
C99	C	0.566338	-0.000040	-0.150292
C100	C	0.566891	-0.000032	-0.203947
C101	C	0.614867	-0.000046	0.418985
C102	C	0.612816	-0.000039	0.620645
O103	O	0.650037	-0.000021	0.651900
N104	N	0.568481	-0.000034	0.639768
C105	C	0.524656	-0.000028	0.608474
O106	O	0.486899	-0.000019	0.629367
C107	C	0.526707	-0.000032	0.406815
C108	C	0.571045	-0.000042	0.387694
C109	C	0.659202	-0.000056	0.399864
C110	C	0.659714	-0.000060	0.349452
C111	C	0.615892	-0.000056	0.318161
C112	C	0.571557	-0.000046	0.337282
C113	C	0.482882	-0.000022	0.375521
C114	C	0.483399	-0.000022	0.325104
C115	C	0.527737	-0.000032	0.305983
C116	C	0.528247	-0.000046	0.255580
N117	N	0.572583	-0.000051	0.236456
C118	C	0.616405	-0.000056	0.267747
C119	C	0.523582	-0.000027	0.714348
C120	C	0.523069	-0.000027	0.764762
C121	C	0.611230	-0.000037	0.776930
C122	C	0.611742	-0.000041	0.726514
C123	C	0.567917	-0.000032	0.695224
C124	C	0.617477	-0.000066	0.161878
C125	C	0.617986	-0.000073	0.111461
C126	C	0.529825	-0.000060	0.099298
C127	C	0.529316	-0.000056	0.149710
C128	C	0.573147	-0.000057	0.180999
O129	O	0.491047	-0.000059	0.224296
O130	O	0.654156	-0.000054	0.246844
C131	C	0.614355	-0.000042	0.469397
C132	C	0.570021	-0.000033	0.488518
C133	C	0.526198	-0.000028	0.457228
C134	C	0.569508	-0.000033	0.538933
C135	C	0.613330	-0.000037	0.570223
C136	C	0.657665	-0.000042	0.551100
C137	C	0.658177	-0.000046	0.500688
C138	C	0.481863	-0.000023	0.476351
C139	C	0.481355	-0.000019	0.526764
C140	C	0.525177	-0.000024	0.558054
H141	H	0.321291	-0.000036	-0.144530
C142	C	0.434107	-0.000013	0.396542
C143	C	0.421610	-0.044075	0.429520
C144	C	0.372831	-0.044067	0.450537
C145	C	0.336547	0.000003	0.438576
C146	C	0.349043	0.044069	0.405595
C147	C	0.397822	0.044061	0.384578
H148	H	0.448470	-0.076702	0.438377
H149	H	0.363581	-0.076688	0.474952
H150	H	0.300438	0.000009	0.454134
H151	H	0.322183	0.076696	0.396739
H152	H	0.407072	0.076682	0.360164
C153	C	0.180212	-0.000036	-0.199850
C154	C	0.168247	-0.044100	-0.236143
C155	C	0.189266	-0.044101	-0.284922
C156	C	0.222251	-0.000037	-0.297407
C157	C	0.234217	0.044030	-0.261113
C158	C	0.213198	0.044031	-0.212335
H159	H	0.143829	-0.076721	-0.226901
H160	H	0.180408	-0.076723	-0.311789
H161	H	0.237810	-0.000038	-0.333516
H162	H	0.258636	0.076651	-0.270355
H163	H	0.222057	0.076653	-0.185468
H164	H	0.023514	-0.000042	-0.185643
C165	C	0.480547	-0.000048	0.170750
C166	C	0.444241	-0.044106	0.158807
C167	C	0.395472	-0.044092	0.179844
C168	C	0.383009	-0.000018	0.212824
C169	C	0.419316	0.044043	0.224768
C170	C	0.468085	0.044029	0.203731
H171	H	0.453466	-0.076735	0.134391
H172	H	0.368596	-0.076710	0.171001
H173	H	0.346907	-0.000008	0.228396
H174	H	0.410091	0.076672	0.249184
H175	H	0.494961	0.076647	0.212574
H176	H	-0.202311	-0.000049	-0.139207
H177	H	0.117558	-0.000090	0.061861
H178	H	0.477317	-0.468381	-0.155019
H179	H	0.477311	-0.371487	-0.155018
H180	H	0.447710	-0.000014	0.299629
C181	C	0.475369	-0.000025	0.679933
C182	C	0.438937	0.044040	0.681851
C183	C	0.390724	0.044039	0.647440
C184	C	0.378943	-0.000027	0.611110
C185	C	0.415376	-0.044094	0.609190
C186	C	0.463589	-0.044093	0.643602
H187	H	0.447657	0.076663	0.708746
H188	H	0.363754	0.076661	0.648861
H189	H	0.343252	-0.000027	0.585637
H190	H	0.406656	-0.076717	0.582296
H191	H	0.490559	-0.076715	0.642181
C192	C	0.217954	-0.000091	0.073450
C193	C	0.216038	-0.044163	0.109877
C194	C	0.250456	-0.044171	0.158086
C195	C	0.286790	-0.000107	0.169867
C196	C	0.288707	0.043968	0.133439
C197	C	0.254289	0.043976	0.085230
H198	H	0.189140	-0.076785	0.101157
H199	H	0.249037	-0.076799	0.185053
H200	H	0.312268	-0.000113	0.205555
H201	H	0.315604	0.076589	0.142159
H202	H	0.255708	0.076603	0.058263
C203	C	0.500970	-0.230325	-0.131404
C204	C	0.445935	-0.222979	-0.130971
C205	C	0.409503	-0.252356	-0.167376
C206	C	0.428106	-0.289080	-0.204215
C207	C	0.483145	-0.296428	-0.204649
C208	C	0.519577	-0.267051	-0.168244
H209	H	0.432160	-0.195792	-0.103699
H210	H	0.368760	-0.246917	-0.167054
H211	H	0.401137	-0.310827	-0.231164
H212	H	0.496919	-0.323615	-0.231920
H213	H	0.560320	-0.272491	-0.168566
C214	C	-0.171294	-0.000076	0.033270
C215	C	-0.173216	-0.044142	0.069702
C216	C	-0.138805	-0.044144	0.117915
C217	C	-0.102471	-0.000080	0.129696
C218	C	-0.100548	0.043990	0.093262
C219	C	-0.134959	0.043992	0.045049
H220	H	-0.200114	-0.076764	0.060983
H221	H	-0.140229	-0.076767	0.144886
H222	H	-0.076998	-0.000081	0.165386
H223	H	-0.073650	0.076611	0.101981
H224	H	-0.133535	0.076615	0.018078
C225	C	0.500965	-0.118155	-0.131406
C226	C	0.500962	-0.059401	-0.131404
C227	C	0.464530	-0.030024	-0.167806
C228	C	0.428100	-0.059400	-0.204210
C229	C	0.428101	-0.118157	-0.204214
C230	C	0.464533	-0.147534	-0.167812
H231	H	0.527931	-0.037652	-0.104455
H232	H	0.464530	0.013472	-0.167804
H233	H	0.401131	-0.037654	-0.231157
H234	H	0.401132	-0.139906	-0.231163
H235	H	0.464534	-0.191030	-0.167814
H236	H	0.663725	-0.531704	0.031269
H237	H	-0.293777	-0.000053	-0.138273
C238	C	0.706951	-0.000052	0.479660
C239	C	0.743239	-0.044118	0.491620
C240	C	0.792016	-0.044122	0.470597
C241	C	0.804504	-0.000060	0.437614
C242	C	0.768214	0.044010	0.425652
C243	C	0.719438	0.044014	0.446675
H244	H	0.733996	-0.076739	0.516037
H245	H	0.818879	-0.076746	0.479451
H246	H	0.840611	-0.000063	0.422051
H247	H	0.777458	0.076631	0.401235
H248	H	0.692574	0.076637	0.437821
C249	C	0.673187	-0.636237	0.040732
C250	C	0.654572	-0.672958	0.077568
C251	C	0.690996	-0.702339	0.113976
C252	C	0.746033	-0.694998	0.113548
C253	C	0.764650	-0.658275	0.076710
C254	C	0.728227	-0.628894	0.040302
H255	H	0.613828	-0.678394	0.077887
H256	H	0.677214	-0.729524	0.141246
H257	H	0.772996	-0.716747	0.140499
H258	H	0.805395	-0.652839	0.076391
H259	H	0.742009	-0.601710	0.013032
C260	C	0.665690	-0.000071	0.196291
C261	C	0.702113	-0.044145	0.194374
C262	C	0.750325	-0.044154	0.228788
C263	C	0.762114	-0.000091	0.265118
C264	C	0.725690	0.043986	0.267036
C265	C	0.677478	0.043996	0.232622
H266	H	0.693387	-0.076766	0.167479
H267	H	0.777288	-0.076783	0.227367
H268	H	0.797803	-0.000098	0.290592
H269	H	0.734416	0.076608	0.293930
H270	H	0.650515	0.076625	0.234042
C271	C	0.074361	-0.000034	-0.198773
C272	C	0.076286	0.044040	-0.235197
C273	C	0.041876	0.044054	-0.283411
C274	C	0.005540	-0.000006	-0.295201
C275	C	0.003613	-0.044083	-0.258776
C276	C	0.038023	-0.044097	-0.210562
H277	H	0.103186	0.076659	-0.226471
H278	H	0.043303	0.076682	-0.310375
H279	H	-0.019932	0.000004	-0.330892
H280	H	-0.023286	-0.076702	-0.267503
H281	H	0.036596	-0.076726	-0.183598
C282	C	0.640090	-0.881956	0.007640
C283	C	0.640086	-0.940709	0.007638
C284	C	0.676507	-0.970090	0.044048
C285	C	0.712931	-0.940718	0.080461
C286	C	0.712936	-0.881961	0.080465
C287	C	0.676515	-0.852580	0.044054
H288	H	0.613121	-0.962456	-0.019318
H289	H	0.676503	-1.013586	0.044045
H290	H	0.739892	-0.962467	0.107414
H291	H	0.739901	-0.860215	0.107421
H292	H	0.676519	-0.809084	0.044057
H293	H	0.510469	-0.874334	-0.121920
C294	C	0.467869	-0.636260	-0.164466
C295	C	0.412834	-0.628914	-0.164027
C296	C	0.376400	-0.658290	-0.200430
C297	C	0.395000	-0.695013	-0.237272
C298	C	0.450037	-0.702360	-0.237712
C299	C	0.486472	-0.672984	-0.201309
H300	H	0.399063	-0.601728	-0.136754
H301	H	0.335657	-0.652851	-0.200104
H302	H	0.368028	-0.716759	-0.264220
H303	H	0.463809	-0.729546	-0.264986
H304	H	0.527215	-0.678423	-0.201635
H305	H	0.647846	-0.000048	0.710950
H306	H	0.477330	-0.531734	-0.155015
C307	C	0.705870	-0.000045	0.585526
C308	C	0.717630	-0.044107	0.621864
C309	C	0.765832	-0.044107	0.656292
C310	C	0.802274	-0.000046	0.654383
C311	C	0.790516	0.044019	0.618044
C312	C	0.742313	0.044019	0.583615
H313	H	0.690652	-0.076726	0.623278
H314	H	0.774536	-0.076727	0.683193
H315	H	0.837956	-0.000046	0.679869
H316	H	0.817493	0.076639	0.616629
H317	H	0.733609	0.076639	0.556715
C318	C	0.673179	-0.363835	0.040718
C319	C	0.672777	-0.371184	0.095758
C320	C	0.709202	-0.341809	0.132172
C321	C	0.746030	-0.305084	0.113545
C322	C	0.746433	-0.297733	0.058503
C323	C	0.710008	-0.327108	0.022089
H324	H	0.645514	-0.398372	0.109549
H325	H	0.708903	-0.347251	0.172918
H326	H	0.772994	-0.283339	0.140501
H327	H	0.773697	-0.270546	0.044712
H328	H	0.710307	-0.321666	-0.018657
H329	H	0.412743	-0.000021	-0.145454
H330	H	0.343360	-0.000050	0.015426
H331	H	-0.271687	-0.000070	0.021674
H332	H	0.434827	-0.000048	0.014492
C333	C	0.066702	-0.000081	0.074984
C334	C	0.064785	-0.044147	0.111418
C335	C	0.099197	-0.044145	0.159630
C336	C	0.135526	-0.000077	0.171409
C337	C	0.137445	0.043992	0.134975
C338	C	0.103033	0.043990	0.086762
H339	H	0.037890	-0.076772	0.102699
H340	H	0.097777	-0.076769	0.186601
H341	H	0.161001	-0.000076	0.207099
H342	H	0.164339	0.076617	0.143694
H343	H	0.104453	0.076614	0.059791
H344	H	-0.067947	-0.000047	-0.184708
H345	H	-0.033688	-0.000086	0.063392
H346	H	0.630597	-0.125768	-0.001858
H347	H	0.646911	-0.000041	0.802415
H348	H	0.630598	-0.222662	-0.001842
H349	H	0.663722	-0.468360	0.031266
H350	H	0.630629	-0.777418	-0.001823
H351	H	0.510456	-0.777440	-0.121918
H352	H	0.654093	-0.000082	0.095896
H353	H	0.695819	-0.000066	0.333889
H354	H	0.445246	-0.000016	0.542327
H355	H	0.694889	-0.000058	0.425336
H356	H	0.494146	-0.000058	0.073812
H357	H	0.486964	-0.000028	0.780325
H358	H	0.446177	-0.000018	0.450879
