data_functionalizedCrystal
_audit_creation_method	'MofGen! by Chris Wilmer'
_symmetry_space_group_name_H-M	'P1'
_symmetry_Int_Tables_number	1
_symmetry_cell_setting	triclinic
loop_
_symmetry_equiv_pos_as_xyz
  x,y,z
_cell_length_a	20.875641
_cell_length_b	20.875641
_cell_length_c	20.875641
_cell_angle_alpha	60.089808
_cell_angle_beta	90.154292
_cell_angle_gamma	60.088404
loop_
_atom_site_label
_atom_site_type_symbol
_atom_site_fract_x
_atom_site_fract_y
_atom_site_fract_z
Zr1	Zr	0.669192	0.647095	-0.080423
O2	O	0.572011	0.780198	-0.187368
O3	O	0.695347	0.513993	-0.044500
O4	O	0.705113	0.637327	-0.177603
O5	O	0.558678	0.664569	0.047158
O6	O	0.814243	0.629621	-0.173469
O7	O	0.562245	0.656864	-0.054266
O8	O	0.796773	0.409000	0.064627
O9	O	0.576147	0.885191	-0.190937
O10	O	0.792337	0.562989	-0.029886
O11	O	0.708233	0.574490	0.042721
O12	O	0.719731	0.719700	-0.113990
O13	O	0.635627	0.731201	-0.041383
Zr14	Zr	0.837552	0.647095	0.087930
Zr15	Zr	0.843241	0.634806	-0.073830
Zr16	Zr	0.663503	0.659384	0.081337
Zr17	Zr	0.675789	0.814547	-0.086115
Zr18	Zr	0.830955	0.479643	0.093622
O19	O	0.811396	0.780197	0.052007
O20	O	0.819486	0.762723	-0.177994
O21	O	0.563921	0.797671	0.042633
O22	O	0.934733	0.513993	0.194875
O23	O	0.942822	0.496519	-0.035126
O24	O	0.687257	0.531467	0.185501
O25	O	0.948066	0.629621	-0.039651
O26	O	0.801630	0.656863	0.185110
O27	O	0.692501	0.664569	0.180976
O28	O	0.944499	0.637326	0.061773
O29	O	0.714493	0.875422	-0.185697
O30	O	0.792251	0.418768	0.193204
O31	O	0.930596	0.408999	0.198444
O32	O	0.935119	0.399231	0.069867
O33	O	0.571625	0.894959	-0.062360
O34	O	0.709970	0.885190	-0.057120
O35	O	0.787013	0.574490	0.121497
O36	O	0.871117	0.562989	0.048890
O37	O	0.798511	0.719700	-0.035214
O38	O	0.714406	0.731201	0.037393
C39	C	0.745120	0.437638	0.010874
C40	C	0.742320	0.366551	0.013291
C41	C	0.535663	0.662467	-0.004493
C42	C	0.461775	0.667685	-0.007292
C43	C	0.464960	0.588336	0.035291
C44	C	0.395531	0.593244	0.032659
C45	C	0.322919	0.677500	-0.012560
C46	C	0.319736	0.756855	-0.055144
C47	C	0.389163	0.751947	-0.052507
C48	C	0.111213	0.700952	-0.025149
C49	C	0.041784	0.705854	-0.027784
C50	C	0.117584	0.542242	0.060021
C51	C	0.187010	0.537341	0.062649
C52	C	0.183821	0.616696	0.020069
N53	N	0.251951	0.682519	-0.015253
N54	N	0.254788	0.611677	0.022767
C55	C	0.784904	0.327150	-0.023474
C56	C	0.782274	0.260351	-0.021196
C57	C	0.737056	0.232959	0.017843
C58	C	0.694471	0.272362	0.054612
C59	C	0.697105	0.339155	0.052338
C60	C	0.724473	0.033836	0.028712
C61	C	0.721840	-0.032960	0.030981
C62	C	0.809645	-0.044968	-0.044826
C63	C	0.812272	0.021831	-0.047101
C64	C	0.769690	0.061225	-0.010328
N65	N	0.734365	0.164682	0.020170
N66	N	0.772386	0.129496	-0.012651
C67	C	0.971081	0.631723	0.012000
C68	C	1.044969	0.626505	0.014799
C69	C	0.760489	0.631723	-0.198583
C70	C	0.762904	0.626506	-0.267254
C71	C	0.761623	0.856552	-0.003367
C72	C	0.764424	0.927640	-0.005784
C73	C	0.726140	0.705854	-0.343417
C74	C	0.728420	0.700947	-0.407938
C75	C	0.767459	0.616690	-0.396294
C76	C	0.804228	0.537336	-0.320123
C77	C	0.801952	0.542244	-0.255604
C78	C	0.778333	0.593238	-0.584548
C79	C	0.780603	0.588336	-0.649076
C80	C	0.704797	0.751947	-0.736886
C81	C	0.702521	0.756848	-0.672362
C82	C	0.739293	0.677494	-0.596197
N83	N	0.769788	0.611671	-0.462244
N84	N	0.736968	0.682513	-0.530249
C85	C	0.746255	0.662467	0.206090
C86	C	0.743840	0.667684	0.274761
C87	C	0.962829	0.422266	0.019121
C88	C	1.033917	0.345961	0.024336
C89	C	0.738004	0.453010	0.213211
C90	C	0.732788	0.387139	0.284299
C91	C	0.955712	0.437638	0.221457
C92	C	1.024385	0.366550	0.295344
C93	C	0.551031	0.856552	-0.213950
C94	C	0.482359	0.927640	-0.287837
C95	C	0.543915	0.871924	-0.011614
C96	C	0.472827	0.948229	-0.016829
C97	C	0.768740	0.841180	-0.205704
C98	C	0.773956	0.907051	-0.276792
C99	C	1.026179	0.310127	-0.014342
C100	C	1.092967	0.238439	-0.009457
C101	C	1.167494	0.202582	0.034111
C102	C	1.175231	0.238423	0.072790
C103	C	1.108443	0.310114	0.067900
C104	C	0.771460	0.356206	0.358810
C105	C	0.766557	0.294324	0.425610
C106	C	0.722984	0.263371	0.417898
C107	C	0.684307	0.294310	0.343379
C108	C	0.689207	0.356196	0.276580
C109	C	1.100543	0.327162	0.292142
C110	C	1.165075	0.260376	0.361560
C111	C	1.153448	0.232974	0.434179
C112	C	1.077281	0.272368	0.437379
C113	C	1.012751	0.339158	0.367962
C114	C	0.406201	0.967036	-0.284635
C115	C	0.341669	1.033843	-0.354054
C116	C	0.353297	1.061249	-0.426674
C117	C	0.429463	1.021850	-0.429873
C118	C	0.493993	0.955049	-0.360455
C119	C	0.480566	0.984070	0.021842
C120	C	0.413778	1.055775	0.016939
C121	C	0.339252	1.091634	-0.026631
C122	C	0.331515	1.055790	-0.065307
C123	C	0.398302	0.984091	-0.060408
C124	C	0.817535	0.937984	-0.269054
C125	C	0.822451	0.999867	-0.335842
C126	C	0.783783	1.030820	-0.410366
C127	C	0.740203	0.999881	-0.418102
C128	C	0.735292	0.937994	-0.351315
H129	H	0.398131	0.528630	0.067336
H130	H	0.108607	0.765567	-0.059834
H131	H	0.857937	1.025052	-0.329528
N132	N	0.698499	1.033271	-0.498484
H133	H	0.708225	1.077172	-0.539613
H134	H	0.640345	1.064687	-0.507658
N135	N	0.259523	1.076327	-0.350600
H136	H	0.253114	1.106649	-0.323272
H137	H	0.250066	1.027940	-0.320634
N138	N	0.637324	0.260908	0.335074
H139	H	0.659540	0.229447	0.308366
H140	H	0.580868	0.313930	0.302608
H141	H	0.541242	0.954879	0.057326
N142	N	0.833676	0.356690	-0.065581
H143	H	0.828883	0.404985	-0.061447
H144	H	0.814384	0.381727	-0.122620
N145	N	1.116800	0.348755	0.109622
H146	H	1.093813	0.414950	0.070092
H147	H	1.174161	0.315088	0.137960
N148	N	0.818461	0.389581	0.367139
H149	H	0.842209	0.360590	0.424482
H150	H	0.782948	0.457485	0.338327
N151	N	0.930610	0.381618	0.371425
H152	H	0.891487	0.428086	0.316434
H153	H	0.924263	0.411899	0.398776
H154	H	1.205999	0.178588	0.490698
N155	N	0.808278	0.260958	0.505977
H156	H	0.836629	0.289953	0.500721
H157	H	0.847372	0.193054	0.538371
N158	N	0.251130	1.094457	-0.112284
H159	H	0.210001	1.145308	-0.109506
H160	H	0.241967	1.045469	-0.090031
H161	H	0.657657	0.250050	0.086403
H162	H	0.719001	0.212979	0.472296
H163	H	0.438922	1.044172	-0.489008
H164	H	0.246131	0.468729	0.099457
H165	H	0.396718	0.944727	-0.225512
N166	N	1.255615	0.199729	0.119791
H167	H	1.250391	0.233301	0.143558
H168	H	1.288008	0.206429	0.084280
H169	H	0.657717	0.381374	0.215913
N170	N	1.113096	0.356701	0.213823
H171	H	1.171138	0.321608	0.222340
H172	H	1.089783	0.423491	0.182026
N173	N	0.283697	1.133294	-0.501545
H174	H	0.252468	1.191072	-0.504717
H175	H	0.249428	1.112319	-0.501996
H176	H	1.227088	0.228307	0.358941
H177	H	1.067825	0.250048	0.496515
N178	N	0.576130	0.912554	-0.363924
H179	H	0.603301	0.845240	-0.335483
H180	H	0.606365	0.923961	-0.338166
H181	H	0.849023	0.912791	-0.208379
N182	N	0.422133	1.094425	0.058657
H183	H	0.479480	1.060818	0.087006
H184	H	0.393324	1.087727	0.097751
H185	H	0.284876	1.150016	-0.030614
H186	H	0.391990	0.954912	-0.091897
H187	H	1.221870	0.144206	0.038086
N188	N	-0.036537	0.796737	-0.076546
H189	H	-0.080033	0.787801	-0.071754
H190	H	-0.039619	0.828727	-0.133259
N191	N	0.121023	0.456657	0.105941
H192	H	0.066025	0.472547	0.097410
H193	H	0.148370	0.422959	0.163574
N194	N	0.789074	1.097582	-0.482397
H195	H	0.757965	1.112503	-0.530786
H196	H	0.845757	1.070216	-0.479377
H197	H	0.699802	0.912816	-0.357626
N198	N	0.660424	0.847724	-0.684921
H199	H	0.637483	0.897248	-0.742962
H200	H	0.698723	0.850427	-0.658512
H201	H	0.689803	0.065900	0.058658
N202	N	0.543276	0.497459	0.084056
H203	H	0.534755	0.447937	0.110633
H204	H	0.572397	0.494742	0.125063
H205	H	0.260609	0.825459	-0.091958
H206	H	0.386565	0.816561	-0.087173
N207	N	0.673068	-0.062503	0.073097
H208	H	0.708019	-0.129285	0.116611
H209	H	0.632018	-0.050548	0.034793
H210	H	0.812393	0.519720	-0.639586
H211	H	0.816950	0.228271	-0.051132
H212	H	0.662427	0.371237	0.082274
H213	H	0.849092	0.044132	-0.078889
H214	H	0.965502	0.339320	-0.049829
H215	H	0.694345	0.774466	-0.352908
N216	N	0.855568	-0.087454	-0.084489
H217	H	0.847039	-0.133923	-0.077127
H218	H	0.913201	-0.117739	-0.060553
H219	H	0.698485	0.765560	-0.469952
H220	H	0.808275	0.528622	-0.522540
N221	N	0.665152	0.837535	-0.819030
H222	H	0.607300	0.877045	-0.828550
H223	H	0.672574	0.821575	-0.858090
N224	N	0.846338	0.446461	-0.307567
H225	H	0.808085	0.443663	-0.333927
H226	H	0.869285	0.396989	-0.249514
N227	N	0.841608	0.456659	-0.173455
H228	H	0.801473	0.457931	-0.146273
H229	H	0.883243	0.452217	-0.143249
N230	N	1.084613	0.199792	-0.051178
H231	H	1.027265	0.233384	-0.079512
H232	H	1.107650	0.133593	-0.011605
