data_functionalizedCrystal
_audit_creation_method	'MofGen! by Chris Wilmer'
_symmetry_space_group_name_H-M	'P1'
_symmetry_Int_Tables_number	1
_symmetry_cell_setting	triclinic
loop_
_symmetry_equiv_pos_as_xyz
  x,y,z
_cell_length_a	23.096457
_cell_length_b	20.919151
_cell_length_c	20.919309
_cell_angle_alpha	60.700880
_cell_angle_beta	89.999751
_cell_angle_gamma	58.214850
loop_
_atom_site_label
_atom_site_type_symbol
_atom_site_fract_x
_atom_site_fract_y
_atom_site_fract_z
Zr1	Zr	0.525489	0.731863	-0.119841
O2	O	0.430139	0.864533	-0.225290
O3	O	0.559404	0.593587	-0.082320
O4	O	0.557683	0.723782	-0.217803
O5	O	0.427888	0.742669	0.011155
O6	O	0.652964	0.723783	-0.217807
O7	O	0.431859	0.734339	-0.089807
O8	O	0.656041	0.490889	0.024548
O9	O	0.424810	0.975563	-0.231200
O10	O	0.639315	0.652539	-0.072597
O11	O	0.565244	0.658754	0.002752
O12	O	0.563219	0.812041	-0.156762
O13	O	0.489148	0.818256	-0.081412
Zr14	Zr	0.671116	0.745150	0.041176
Zr15	Zr	0.677451	0.731866	-0.119847
Zr16	Zr	0.519155	0.745148	0.041182
Zr17	Zr	0.516991	0.908942	-0.129266
Zr18	Zr	0.679615	0.568071	0.050601
O19	O	0.637202	0.883426	0.003655
O20	O	0.646208	0.864537	-0.225299
O21	O	0.421133	0.883422	0.003663
O22	O	0.766467	0.612480	0.146625
O23	O	0.775473	0.593591	-0.082329
O24	O	0.550397	0.612476	0.146633
O25	O	0.768718	0.734345	-0.089820
O26	O	0.638922	0.753232	0.139138
O27	O	0.543642	0.753230	0.139142
O28	O	0.764746	0.742674	0.011142
O29	O	0.545599	0.975565	-0.231205
O30	O	0.651006	0.501448	0.152539
O31	O	0.771795	0.501450	0.152534
O32	O	0.776830	0.490891	0.024543
O33	O	0.419776	0.986122	-0.103208
O34	O	0.540565	0.986124	-0.103213
O35	O	0.633387	0.664972	0.078096
O36	O	0.707458	0.658757	0.002747
O37	O	0.631361	0.818259	-0.081418
O38	O	0.557291	0.824474	-0.006068
C39	C	0.608933	0.517008	-0.027543
C40	C	0.612541	0.441834	-0.023542
C41	C	0.560995	0.463114	-0.080549
C42	C	0.564388	0.392491	-0.076817
C43	C	0.619324	0.300588	-0.016073
C44	C	0.670875	0.279307	0.040937
C45	C	0.667485	0.349930	0.037201
C46	C	0.632226	0.084522	-0.001849
C47	C	0.635611	0.013899	0.001884
C48	C	0.529124	0.127087	-0.115872
C49	C	0.525736	0.197706	-0.119600
C50	C	0.577289	0.176420	-0.062592
C51	C	0.622791	0.228398	-0.012255
C52	C	0.573824	0.248609	-0.066414
C53	C	0.408222	0.738503	-0.039325
C54	C	0.343711	0.738502	-0.039323
C55	C	0.353127	0.655246	0.004603
C56	C	0.292511	0.655245	0.004606
C57	C	0.222481	0.738504	-0.039331
C58	C	0.213067	0.821772	-0.083259
C59	C	0.273682	0.821771	-0.083255
N60	N	0.099113	0.797613	-0.106770
N61	N	0.041533	0.797607	-0.106773
C62	C	0.039848	0.738511	-0.039345
N63	N	0.097924	0.679406	0.028086
N64	N	0.155509	0.679408	0.028087
C65	C	0.156749	0.738514	-0.039340
C66	C	-0.016460	0.655248	0.004589
C67	C	-0.077078	0.655251	0.004594
C68	C	-0.156523	0.821779	-0.083279
C69	C	-0.095904	0.821775	-0.083277
C70	C	-0.025875	0.738506	-0.039345
C71	C	0.788383	0.738510	-0.039340
C72	C	0.852895	0.738511	-0.039343
C73	C	0.606226	0.721890	-0.240747
C74	C	0.608915	0.716250	-0.309106
C75	C	0.587672	0.960005	-0.051122
C76	C	0.584065	1.035180	-0.055123
C77	C	0.570458	0.796857	-0.385153
C78	C	0.572994	0.791552	-0.449380
C79	C	0.613983	0.705640	-0.437558
C80	C	0.652445	0.625027	-0.361502
C81	C	0.649912	0.630332	-0.297277
C82	C	0.623620	0.685456	-0.629279
C83	C	0.626148	0.680156	-0.693512
C84	C	0.546698	0.846682	-0.781386
C85	C	0.544166	0.851980	-0.717155
C86	C	0.582630	0.771367	-0.641106
C87	C	0.616575	0.700216	-0.503207
C88	C	0.580043	0.776792	-0.575458
C89	C	0.590380	0.755124	0.162082
C90	C	0.587691	0.760763	0.230440
C91	C	0.799014	0.517011	-0.027551
C92	C	0.867133	0.441838	-0.023552
C93	C	0.601010	0.533625	0.173872
C94	C	0.601929	0.464090	0.246231
C95	C	0.791091	0.533628	0.173864
C96	C	0.856521	0.464094	0.246221
C97	C	0.405515	0.943385	-0.252529
C98	C	0.340085	1.012919	-0.324886
C99	C	0.397592	0.960002	-0.051115
C100	C	0.329473	1.035175	-0.055113
C101	C	0.595596	0.943388	-0.252537
C102	C	0.594677	1.012923	-0.324896
C103	C	0.863553	0.403290	-0.061010
C104	C	0.927553	0.332665	-0.057268
C105	C	0.995132	0.300585	-0.016064
C106	C	0.998710	0.339140	0.021395
C107	C	0.934711	0.409768	0.017648
C108	C	0.637930	0.434682	0.319547
C109	C	0.638790	0.369357	0.387542
C110	C	0.603653	0.333437	0.382220
C111	C	0.567647	0.362851	0.308896
C112	C	0.566783	0.428180	0.240902
C113	C	0.925918	0.428196	0.240869
C114	C	0.987403	0.362871	0.308849
C115	C	0.979488	0.333441	0.382181
C116	C	0.910084	0.369346	0.387531
C117	C	0.848601	0.434674	0.319552
C118	C	0.270687	1.048825	-0.319535
C119	C	0.209202	1.114172	-0.387516
C120	C	0.217116	1.143607	-0.460848
C121	C	0.286521	1.107697	-0.466198
C122	C	0.348004	1.042356	-0.398218
C123	C	0.333052	1.073730	-0.017663
C124	C	0.269053	1.144373	-0.021423
C125	C	0.201473	1.176455	-0.062630
C126	C	0.197895	1.137897	-0.100085
C127	C	0.261894	1.067260	-0.096329
C128	C	0.629821	1.048823	-0.319549
C129	C	0.628972	1.114149	-0.387531
C130	C	0.592973	1.143580	-0.460862
C131	C	0.557828	1.107673	-0.466208
C132	C	0.558682	1.042343	-0.398225
H133	H	0.522413	0.409826	-0.123238
H134	H	1.053742	0.313010	0.054942
H135	H	0.709459	0.332597	0.083623
C136	C	0.131077	1.254153	-0.066752
C137	C	0.056738	1.289448	-0.112072
C138	C	-0.013655	1.367143	-0.116188
C139	C	-0.009708	1.409542	-0.074984
C140	C	0.064634	1.374246	-0.029661
C141	C	0.135027	1.296552	-0.025545
H142	H	0.053813	1.258062	-0.142577
H143	H	-0.068688	1.393270	-0.149740
H144	H	-0.061817	1.467056	-0.078032
H145	H	0.067559	1.405633	0.000843
H146	H	0.190060	1.270424	0.008007
C147	C	0.534954	0.871294	-0.588464
C148	C	0.572292	0.897840	-0.556391
C149	C	0.527201	0.992341	-0.569390
C150	C	0.444772	1.060296	-0.614461
C151	C	0.407430	1.033752	-0.646537
C152	C	0.452522	0.939250	-0.633538
H153	H	0.633314	0.847534	-0.523024
H154	H	0.554844	1.011991	-0.545645
H155	H	0.411393	1.130252	-0.624083
H156	H	0.346408	1.084057	-0.679904
H157	H	0.424878	0.919601	-0.657283
H158	H	0.410144	0.587442	0.040371
H159	H	0.404510	1.013121	-0.402584
H160	H	1.043910	0.333644	0.304479
C161	C	0.500564	0.564207	-0.147369
C162	C	0.520421	0.625247	-0.203599
C163	C	0.459990	0.726339	-0.270423
C164	C	0.379700	0.766391	-0.281016
C165	C	0.359839	0.705350	-0.224784
C166	C	0.420270	0.604258	-0.157961
H167	H	0.579860	0.595599	-0.195759
H168	H	0.474693	0.771526	-0.312049
H169	H	0.334965	0.841226	-0.330483
H170	H	0.300401	0.734998	-0.232625
H171	H	0.405567	0.559072	-0.116335
H172	H	0.481011	0.272535	-0.169074
C173	C	0.901386	0.336960	0.468201
C174	C	0.825054	0.376434	0.474103
C175	C	0.816359	0.344041	0.554775
C176	C	0.883994	0.272173	0.629544
C177	C	0.960331	0.232695	0.623644
C178	C	0.969027	0.265088	0.542972
H179	H	0.774981	0.429638	0.418752
H180	H	0.759849	0.373266	0.559142
H181	H	0.877557	0.248194	0.689261
H182	H	1.010404	0.179491	0.678995
H183	H	1.025537	0.235863	0.538605
H184	H	0.659525	0.610193	-0.683877
H185	H	0.808533	0.429407	-0.094572
H186	H	0.681228	0.564694	-0.235355
H187	H	0.388073	1.047615	0.015897
H188	H	0.258970	1.035870	-0.126824
H189	H	1.029558	0.280245	0.437529
C190	C	0.525370	0.891363	-0.398163
C191	C	0.483072	0.980029	-0.481817
C192	C	0.437985	1.074538	-0.494830
C193	C	0.435195	1.080381	-0.424188
C194	C	0.477494	0.991712	-0.340529
C195	C	0.522581	0.897203	-0.327516
H196	H	0.485136	0.975706	-0.534115
H197	H	0.406673	1.140176	-0.556761
H198	H	0.401818	1.150342	-0.433821
H199	H	0.475430	0.996035	-0.288230
H200	H	0.553893	0.831565	-0.265585
C201	C	0.923606	0.290256	-0.098467
C202	C	0.958537	0.186907	-0.050617
C203	C	0.954589	0.144499	-0.091815
C204	C	0.915710	0.205440	-0.180863
C205	C	0.880777	0.308795	-0.228718
C206	C	0.884725	0.351202	-0.187520
H207	H	0.987320	0.141789	0.015306
H208	H	0.980450	0.067989	-0.056389
H209	H	0.912788	0.174047	-0.211360
H210	H	0.851994	0.353912	-0.294641
H211	H	0.858864	0.427713	-0.222946
H212	H	1.047239	0.243074	-0.013018
C213	C	0.472422	0.150497	-0.178582
C214	C	0.496942	0.114436	-0.229677
C215	C	0.440240	0.137849	-0.292392
C216	C	0.359018	0.197322	-0.304011
C217	C	0.334495	0.233387	-0.252915
C218	C	0.391197	0.209974	-0.190200
H219	H	0.557071	0.070407	-0.221077
H220	H	0.458394	0.111151	-0.330217
H221	H	0.317044	0.214654	-0.350437
H222	H	0.274366	0.277416	-0.261515
H223	H	0.373042	0.236671	-0.152375
H224	H	0.167046	1.196812	-0.516196
H225	H	0.592283	1.196776	-0.516211
C226	C	0.273001	1.186769	0.019789
C227	C	0.310457	1.233605	-0.003318
C228	C	0.314407	1.275996	0.037896
C229	C	0.280902	1.271551	0.102218
C230	C	0.243444	1.224713	0.125329
C231	C	0.239493	1.182322	0.084115
H232	H	0.335262	1.236897	-0.050936
H233	H	0.342137	1.310669	0.020787
H234	H	0.283827	1.302931	0.132727
H235	H	0.218639	1.221421	0.172947
H236	H	0.211763	1.147649	0.101223
H237	H	0.040561	0.587447	0.040377
H238	H	0.792097	0.463894	0.323920
H239	H	-0.069405	0.587451	0.040369
H240	H	0.529098	0.323439	-0.115873
H241	H	0.292956	1.131671	-0.525913
H242	H	0.937636	0.441146	0.048156
C243	C	-0.233550	0.913368	-0.131610
C244	C	-0.300227	0.913374	-0.131617
C245	C	-0.377260	1.004966	-0.179947
C246	C	-0.387615	1.096550	-0.228270
C247	C	-0.320935	1.096547	-0.228265
C248	C	-0.243903	1.004955	-0.179936
H249	H	-0.292564	0.845575	-0.095843
H250	H	-0.426620	1.004968	-0.179950
H251	H	-0.444639	1.164351	-0.264047
H252	H	-0.328599	1.164346	-0.264039
H253	H	-0.194543	1.004953	-0.179932
C254	C	0.123554	1.173187	-0.145401
C255	C	0.069051	1.274754	-0.214879
C256	C	-0.005293	1.310040	-0.260186
C257	C	-0.025134	1.243759	-0.236016
C258	C	0.029370	1.142185	-0.166534
C259	C	0.103714	1.106899	-0.121227
H260	H	0.083737	1.323825	-0.232774
H261	H	-0.045641	1.385232	-0.311621
H262	H	-0.080168	1.269879	-0.269556
H263	H	0.014683	1.093114	-0.148639
H264	H	0.144061	1.031707	-0.069792
H265	H	0.668112	0.345416	0.447239
C266	C	0.518226	1.140060	-0.546876
C267	C	0.560652	1.125826	-0.601336
C268	C	0.521046	1.158222	-0.682008
C269	C	0.439015	1.204851	-0.708219
C270	C	0.396584	1.219087	-0.653758
C271	C	0.436190	1.186691	-0.573087
H272	H	0.621381	1.091307	-0.581934
H273	H	0.552457	1.147683	-0.722323
H274	H	0.409696	1.228832	-0.767937
H275	H	0.335856	1.253606	-0.673160
H276	H	0.404780	1.197230	-0.532771
H277	H	0.680347	-0.060936	0.051353
H278	H	0.659135	1.024871	-0.259846
C279	C	0.527186	0.460517	0.160255
C280	C	0.488543	0.420995	0.154410
C281	C	0.448942	0.453329	0.073765
C282	C	0.447984	0.525185	-0.001035
C283	C	0.486629	0.564711	0.004807
C284	C	0.526230	0.532377	0.085452
H285	H	0.489250	0.367800	0.209784
H286	H	0.420334	0.424069	0.069441
H287	H	0.418670	0.549121	-0.060733
H288	H	0.485922	0.617907	-0.050567
H289	H	0.554837	0.561637	0.089777
H290	H	0.300179	0.587445	0.040377
H291	H	0.604362	0.280242	0.437591
C292	C	0.934636	0.460565	0.160209
C293	C	1.010980	0.421073	0.154338
C294	C	1.019705	0.453441	0.073681
C295	C	0.952087	0.525300	-0.001105
C296	C	0.875738	0.564795	0.004763
C297	C	0.867013	0.532428	0.085420
H298	H	1.061040	0.367875	0.209702
H299	H	1.076224	0.424203	0.069337
H300	H	0.958546	0.549260	-0.060813
H301	H	0.825678	0.617993	-0.050601
H302	H	0.810494	0.561666	0.089764
C303	C	0.667628	1.153645	-0.381638
C304	C	0.749889	1.089062	-0.336721
C305	C	0.788543	1.128556	-0.330825
C306	C	0.744936	1.232632	-0.369846
C307	C	0.662670	1.297221	-0.414767
C308	C	0.624016	1.257727	-0.420663
H309	H	0.782174	1.012013	-0.307832
H310	H	0.849442	1.080742	-0.297572
H311	H	0.773551	1.261868	-0.365482
H312	H	0.630386	1.374270	-0.443655
H313	H	0.563117	1.305541	-0.453916
H314	H	0.674204	0.067179	0.044571
H315	H	0.530060	1.013120	-0.402591
C316	C	0.499079	0.946488	-0.730168
C317	C	0.536415	0.973040	-0.698101
C318	C	0.491325	1.067550	-0.711117
C319	C	0.408899	1.135510	-0.756201
C320	C	0.371558	1.108960	-0.788271
C321	C	0.416648	1.014449	-0.775255
H322	H	0.597436	0.922731	-0.664725
H323	H	0.518967	1.087204	-0.687376
H324	H	0.375520	1.205472	-0.765836
H325	H	0.310537	1.159269	-0.821647
H326	H	0.389006	0.994796	-0.798996
H327	H	0.666543	0.463922	0.323896
H328	H	0.715608	0.204473	0.090393
H329	H	0.539040	0.333595	0.304574
C330	C	0.261969	1.016462	-0.238875
C331	C	0.185624	1.055979	-0.233006
C332	C	0.176898	1.023626	-0.152349
C333	C	0.244517	0.951757	-0.077562
C334	C	0.320867	0.912235	-0.083429
C335	C	0.329593	0.944588	-0.164086
H336	H	0.135564	1.109185	-0.288370
H337	H	0.120379	1.052883	-0.148006
H338	H	0.238058	0.927807	-0.017856
H339	H	0.370927	0.859029	-0.028065
H340	H	0.386112	0.915332	-0.168428
H341	H	0.667521	0.153563	0.037203
H342	H	0.156043	0.889562	-0.119032
H343	H	0.685823	0.555075	-0.351881
H344	H	0.266009	0.889571	-0.119023
H345	H	0.654941	0.619815	-0.567364
H346	H	0.152695	1.143399	-0.383145
C347	C	-0.106260	0.913360	-0.131607
C348	C	-0.073425	0.931885	-0.196674
C349	C	-0.083784	1.023475	-0.245006
C350	C	-0.126979	1.096541	-0.228272
C351	C	-0.159817	1.078019	-0.163202
C352	C	-0.149458	0.986429	-0.114870
H353	H	-0.041447	0.877795	-0.209065
H354	H	-0.059474	1.037186	-0.293175
H355	H	-0.134647	1.164342	-0.264050
H356	H	-0.191796	1.132109	-0.150812
H357	H	-0.173768	0.972718	-0.066701
H358	H	0.541680	0.857191	-0.511300
H359	H	0.515383	0.912313	-0.843310
H360	H	0.649948	0.630266	-0.493589
