data_functionalizedCrystal
_audit_creation_method	'MofGen! by Chris Wilmer'
_symmetry_space_group_name_H-M	'P1'
_symmetry_Int_Tables_number	1
_symmetry_cell_setting	triclinic
loop_
_symmetry_equiv_pos_as_xyz
  x,y,z
_cell_length_a	27.732048
_cell_length_b	7.540329
_cell_length_c	9.065215
_cell_angle_alpha	89.997358
_cell_angle_beta	83.828676
_cell_angle_gamma	90.002547
loop_
_atom_site_label
_atom_site_type_symbol
_atom_site_fract_x
_atom_site_fract_y
_atom_site_fract_z
O1	O	0.642124	-0.147251	0.175521
O2	O	0.501512	-0.147304	0.202209
O3	O	0.574725	-0.147269	-0.025963
O4	O	0.568911	-0.147286	0.403692
O5	O	0.574721	0.147696	-0.025965
O6	O	0.501508	0.147661	0.202206
O7	O	0.642119	0.147714	0.175518
Cu8	Cu	0.571813	0.174620	0.188862
Cu9	Cu	0.571818	-0.174210	0.188865
O10	O	0.568906	0.147679	0.403690
C11	C	0.483499	0.000172	0.201648
C12	C	0.429833	0.000152	0.199961
N13	N	0.571813	0.419969	0.188859
N14	N	0.571822	-0.419558	0.188857
C15	C	0.091865	0.000223	0.324175
C16	C	-0.109837	0.000240	0.317916
O17	O	-0.140318	0.000312	0.431501
N18	N	-0.129884	0.000242	0.182620
C19	C	-0.099502	0.000252	0.048878
O20	O	-0.121181	0.000272	-0.066343
C21	C	0.102200	0.000248	0.055139
C22	C	0.122244	0.000228	0.190444
C23	C	0.111909	0.000205	0.459469
C24	C	0.162332	0.000191	0.461032
C25	C	0.192710	0.000196	0.327302
C26	C	0.172666	0.000214	0.192007
C27	C	0.132581	0.000271	-0.078601
C28	C	0.183009	0.000275	-0.077023
C29	C	0.203053	0.000254	0.058282
C30	C	0.253467	0.000205	0.059840
N31	N	0.273514	0.000203	0.195136
C32	C	0.243135	0.000198	0.328867
C33	C	-0.205398	0.000250	0.045601
C34	C	-0.255823	0.000248	0.044036
C35	C	-0.266155	0.000239	0.313074
C36	C	-0.215729	0.000228	0.314638
C37	C	-0.185351	0.000248	0.180898
C38	C	0.349027	0.000168	0.332140
C39	C	0.399455	0.000147	0.333691
C40	C	0.409782	0.000165	0.064654
C41	C	0.359359	0.000177	0.063102
C42	C	0.328982	0.000184	0.196857
O43	O	0.283977	0.000153	-0.053685
O44	O	0.264824	0.000217	0.444072
C45	C	0.041443	0.000237	0.322612
C46	C	0.021398	0.000255	0.187318
C47	C	0.051777	0.000260	0.053587
C48	C	-0.029027	0.000253	0.185752
C49	C	-0.059405	0.000249	0.319483
C50	C	-0.039358	0.000246	0.454779
C51	C	0.011064	0.000233	0.456343
C52	C	0.031730	0.000262	-0.081710
C53	C	-0.018693	0.000274	-0.083262
C54	C	-0.049072	0.000269	0.050469
C55	C	0.660132	0.000235	0.176080
C56	C	0.713798	0.000243	0.177766
C57	C	0.574164	0.000212	-0.080915
C58	C	0.572495	0.000206	-0.244652
C59	C	0.569467	0.000195	0.458642
C60	C	0.571137	0.000189	0.622379
H61	H	0.415771	0.000129	0.443878
H62	H	-0.064101	0.000235	0.563668
O63	O	-0.275348	0.000480	-0.087306
C64	C	-0.304195	0.153267	-0.096289
H65	H	-0.316239	0.204193	0.020265
H66	H	-0.337465	0.118911	-0.154332
H67	H	-0.282208	0.260242	-0.162063
H68	H	-0.035008	0.000277	-0.193452
H69	H	-0.180668	0.000266	-0.063313
O70	O	0.339965	0.000251	-0.068460
C71	C	0.377594	0.000191	-0.186157
H72	H	0.412026	0.056018	-0.145606
H73	H	0.366643	0.085833	-0.280695
H74	H	0.384539	-0.141321	-0.227345
H75	H	0.116270	0.000289	-0.188780
H76	H	-0.199413	0.000222	0.424815
O77	O	0.439366	0.000254	-0.065111
C78	C	0.488169	0.000205	-0.034700
H79	H	0.490610	0.056024	0.081128
H80	H	0.510637	0.085858	-0.119997
H81	H	0.502722	-0.141304	-0.040640
H82	H	0.056459	0.000270	-0.190612
O83	O	0.030451	0.000303	0.587909
C84	C	-0.007182	0.000258	0.705591
H85	H	-0.041608	0.056104	0.665020
H86	H	0.003769	0.085891	0.800129
H87	H	-0.014138	-0.141252	0.746786
O88	O	-0.295718	0.000004	0.442887
C89	C	-0.325190	-0.152780	0.450055
H90	H	-0.328254	-0.203723	0.333032
H91	H	-0.362838	-0.118413	0.505867
H92	H	-0.308312	-0.259746	0.517061
H93	H	0.178647	0.000174	0.571212
H94	H	0.324300	0.000180	0.441056
H95	H	0.207741	0.000292	-0.185934
H96	H	0.087180	0.000208	0.568375
