data_functionalizedCrystal
_audit_creation_method	'MofGen! by Chris Wilmer'
_symmetry_space_group_name_H-M	'P1'
_symmetry_Int_Tables_number	1
_symmetry_cell_setting	triclinic
loop_
_symmetry_equiv_pos_as_xyz
  x,y,z
_cell_length_a	10.723024
_cell_length_b	9.616153
_cell_length_c	10.723024
_cell_angle_alpha	90.001147
_cell_angle_beta	95.532131
_cell_angle_gamma	90.003009
loop_
_atom_site_label
_atom_site_type_symbol
_atom_site_fract_x
_atom_site_fract_y
_atom_site_fract_z
O1	O	1.657187	0.115633	-0.175019
O2	O	1.294035	0.115637	-0.191772
O3	O	1.483988	0.115630	-0.001819
O4	O	1.467234	0.115640	-0.364972
O5	O	1.483974	-0.115662	-0.001830
O6	O	1.294021	-0.115654	-0.191783
O7	O	1.657173	-0.115659	-0.175030
Zn8	Zn	1.475595	-0.152379	-0.183408
Zn9	Zn	1.475613	0.152357	-0.183394
O10	O	1.467220	-0.115651	-0.364982
C11	C	1.247528	-0.000008	-0.190558
C12	C	1.108974	-0.000006	-0.186911
N13	N	1.475591	-0.360353	-0.183417
C14	C	1.033991	-0.000002	-0.293198
C15	C	0.890788	-0.000001	-0.289431
C16	C	1.373935	-0.419391	-0.285013
C17	C	1.373589	-0.580559	-0.284721
C18	C	1.446604	-0.581141	-0.052772
C19	C	1.445853	-0.419924	-0.053391
C20	C	1.606579	-0.419740	-0.211247
C21	C	1.605747	-0.580969	-0.214173
C22	C	1.703680	-0.000010	-0.176243
C23	C	1.842234	-0.000003	-0.179891
C24	C	1.482762	-0.000014	0.044675
C25	C	1.479114	-0.000009	0.183229
N26	N	1.475626	0.360332	-0.183375
C27	C	1.468447	-0.000004	-0.411477
C28	C	1.472094	0.000000	-0.550031
C29	C	1.585401	-0.000009	0.258212
C30	C	1.581634	-0.000004	0.401415
H31	H	1.075814	-0.000008	-0.386984
N32	N	0.805453	0.000016	-0.409967
H33	H	0.715250	0.000019	-0.390190
H34	H	0.822064	-0.085725	-0.460187
H35	H	1.067152	0.000027	-0.093125
H36	H	0.906659	0.000002	-0.088896
N37	N	1.354870	-0.000004	0.238600
H38	H	1.348458	0.085737	0.292008
H39	H	1.348525	-0.085799	0.291946
H40	H	1.390962	-0.620132	-0.381751
H41	H	1.391021	-0.380636	-0.382375
H42	H	1.277292	-0.378905	-0.267310
H43	H	1.276411	-0.619153	-0.266758
H44	H	1.381099	-0.000010	0.385544
N45	N	1.634902	-0.631655	-0.341443
H46	H	1.715188	-0.687229	-0.332502
H47	H	1.644855	-0.549255	-0.398036
H48	H	1.350307	-0.382346	-0.029114
N49	N	1.540154	-0.368172	0.049867
H50	H	1.582023	-0.450091	0.095589
H51	H	1.496024	-0.309944	0.110535
H52	H	1.518665	-0.619424	0.024730
N53	N	1.321505	-0.634651	-0.019853
H54	H	1.283460	-0.696789	-0.089346
H55	H	1.263717	-0.553546	-0.008930
H56	H	1.634306	-0.379090	-0.304548
H57	H	1.685001	-0.621203	-0.145087
N58	N	1.706802	-0.369168	-0.113138
H59	H	1.667621	-0.308088	-0.050958
H60	H	1.771382	-0.314052	-0.154834
H61	H	1.679187	-0.000018	0.216390
H62	H	1.672624	-0.000009	0.465848
