data_functionalizedCrystal
_audit_creation_method	'MofGen! by Chris Wilmer'
_symmetry_space_group_name_H-M	'P1'
_symmetry_Int_Tables_number	1
_symmetry_cell_setting	triclinic
loop_
_symmetry_equiv_pos_as_xyz
  x,y,z
_cell_length_a	19.805405
_cell_length_b	19.805398
_cell_length_c	12.645331
_cell_angle_alpha	89.984889
_cell_angle_beta	90.025389
_cell_angle_gamma	89.972363
loop_
_atom_site_label
_atom_site_type_symbol
_atom_site_fract_x
_atom_site_fract_y
_atom_site_fract_z
Zn1	Zn	-0.269508	-0.382698	1.620588
Zn2	Zn	-0.382694	-0.269506	1.620466
Zn3	Zn	-0.269522	-0.269524	1.443326
Zn4	Zn	-0.382659	-0.382655	1.443257
O5	O	-0.326096	-0.326096	1.531909
O6	O	-0.284532	-0.367694	1.768919
O7	O	-0.367701	-0.174792	1.596946
O8	O	-0.174803	-0.284562	1.466920
O9	O	-0.367688	-0.284532	1.768829
O10	O	-0.174794	-0.367711	1.597153
O11	O	-0.284554	-0.174805	1.466802
O12	O	-0.284521	-0.284520	1.294969
O13	O	-0.367629	-0.477377	1.466803
O14	O	-0.367642	-0.367637	1.294919
O15	O	-0.284498	-0.477409	1.597087
O16	O	-0.477406	-0.284490	1.596879
O17	O	-0.477380	-0.367620	1.466685
C18	C	-0.501952	-0.326063	1.531790
C19	C	-0.577184	-0.326072	1.531836
C20	C	-0.326058	-0.502638	1.531951
C21	C	-0.326042	-0.577870	1.531968
C22	C	-0.326080	-0.326076	1.256480
C23	C	-0.326089	-0.326084	1.138649
C24	C	-0.612519	-0.282831	1.599694
C25	C	-0.683207	-0.282846	1.599739
C26	C	-0.718559	-0.326099	1.531920
C27	C	-0.683219	-0.369344	1.464059
C28	C	-0.612532	-0.369332	1.464020
C29	C	-0.968293	-0.369394	1.464215
C30	C	-1.038985	-0.369401	1.464257
C31	C	-1.038967	-0.282909	1.599934
C32	C	-0.968280	-0.282896	1.599895
C33	C	-0.932947	-0.326144	1.532039
C34	C	-0.856298	-0.326128	1.531992
C35	C	-0.795206	-0.326111	1.531960
C36	C	-0.149553	-0.326143	1.532058
C37	C	-0.074321	-0.326164	1.532121
C38	C	-0.282636	-1.039679	1.599935
C39	C	-0.282657	-0.968991	1.599919
C40	C	-0.325948	-0.933632	1.532077
C41	C	-0.369226	-0.968966	1.464256
C42	C	-0.369208	-1.039653	1.464278
C43	C	-0.369300	-0.683893	1.464163
C44	C	-0.369313	-0.613200	1.464144
C45	C	-0.282748	-0.613230	1.599804
C46	C	-0.282730	-0.683918	1.599826
C47	C	-0.326011	-0.719245	1.532009
C48	C	-0.325989	-0.795893	1.532029
C49	C	-0.325967	-0.856985	1.532051
C50	C	-0.326084	-0.150240	1.531929
C51	C	-0.325909	-0.075008	1.532117
C52	C	-0.273557	-0.274084	0.971082
C53	C	-0.273693	-0.273855	1.093641
C54	C	-0.397389	-0.306591	1.094116
C55	C	-0.397102	-0.306236	0.971518
C56	C	-0.308000	-0.397777	0.971490
C57	C	-0.306407	-0.397379	1.094096
C58	C	-0.326112	-0.326116	1.808414
C59	C	-0.326119	-0.326124	1.926244
H60	H	-0.711974	-0.247635	1.654995
H61	H	-0.404447	-1.068417	1.409054
N62	N	-0.576400	-0.238657	1.668969
N63	N	-0.513287	-0.238650	1.668928
H64	H	-0.487779	-0.207451	1.717856
N65	N	-0.447899	-0.351697	0.934281
N66	N	-0.456738	-0.359532	0.837176
H67	H	-0.492615	-0.391635	0.810879
N68	N	-0.413503	-0.719993	1.394912
N69	N	-0.456621	-0.759428	1.432204
H70	H	-0.487841	-0.784932	1.383297
N71	N	-0.932180	-0.238706	1.669170
N72	N	-0.963738	-0.200102	1.729755
H73	H	-0.938244	-0.168892	1.778685
N74	N	-0.447827	-0.352652	1.130688
N75	N	-0.431748	-0.400473	1.190126
H76	H	-0.467369	-0.433005	1.215956
N77	N	-1.075071	-0.238735	1.669244
N78	N	-1.138184	-0.238749	1.669274
H79	H	-1.163683	-0.207550	1.718220
N80	N	-0.207359	-0.289163	1.131406
N81	N	-0.160639	-0.300090	1.067217
H82	H	-0.113785	-0.310892	1.093883
H83	H	-1.067766	-0.404627	1.409032
N84	N	-0.240581	-0.415824	1.130591
N85	N	-0.194397	-0.426994	1.065560
H86	H	-0.147905	-0.440017	1.091336
N87	N	-0.932217	-0.413572	1.394897
N88	N	-0.963792	-0.452184	1.334349
H89	H	-0.938311	-0.483387	1.285388
H90	H	-0.247509	-0.584458	1.655027
H91	H	-0.712009	-0.404563	1.408844
N92	N	-0.576446	-0.413509	1.394704
N93	N	-0.608017	-0.452126	1.334158
H94	H	-0.582533	-0.483331	1.285205
N95	N	-0.238500	-0.720024	1.669124
N96	N	-0.199866	-0.688472	1.729674
H97	H	-0.168628	-0.713970	1.778620
N98	N	-0.288733	-0.207251	1.130393
N99	N	-0.339554	-0.197209	1.186828
H100	H	-0.350180	-0.150167	1.212785
H101	H	-0.412469	-0.253854	0.942879
N102	N	-0.238403	-1.075784	1.669231
N103	N	-0.199768	-1.044228	1.729776
H104	H	-0.168527	-1.069724	1.778720
N105	N	-0.238455	-0.932914	1.669209
N106	N	-0.199805	-0.964492	1.729776
H107	H	-0.168587	-0.939014	1.778719
H108	H	-0.341899	-0.438228	1.124737
H109	H	-0.404565	-0.584413	1.408892
N110	N	-0.417013	-0.241585	1.132566
N111	N	-0.469569	-0.235369	1.186392
H112	H	-0.483427	-0.189457	1.213545
N113	N	-0.413450	-0.932840	1.394973
N114	N	-0.413462	-0.869727	1.394962
H115	H	-0.444696	-0.844213	1.346030
N116	N	-0.207033	-0.289248	0.934118
N117	N	-0.197581	-0.338584	0.874294
H118	H	-0.150597	-0.349294	0.848177
N119	N	-0.288410	-0.207870	0.932374
N120	N	-0.337539	-0.198840	0.871910
H121	H	-0.348032	-0.152077	0.844570
H122	H	-0.346284	-0.436552	0.942494
N123	N	-0.243919	-0.420031	0.932752
N124	N	-0.239821	-0.473270	0.880076
H125	H	-0.194562	-0.488983	0.852717
