data_functionalizedCrystal
_audit_creation_method	'MofGen! by Chris Wilmer'
_symmetry_space_group_name_H-M	'P1'
_symmetry_Int_Tables_number	1
_symmetry_cell_setting	triclinic
loop_
_symmetry_equiv_pos_as_xyz
  x,y,z
_cell_length_a	13.897449
_cell_length_b	13.897441
_cell_length_c	13.897448
_cell_angle_alpha	90.030599
_cell_angle_beta	89.982475
_cell_angle_gamma	89.977141
loop_
_atom_site_label
_atom_site_type_symbol
_atom_site_fract_x
_atom_site_fract_y
_atom_site_fract_z
Zn1	Zn	-1.474703	0.545436	-0.383988
Zn2	Zn	-1.224703	0.795436	-0.133988
Zn3	Zn	-0.974703	1.045436	0.116012
Zn4	Zn	-0.724703	1.295436	0.366012
Zn5	Zn	-1.474597	0.384137	-0.545310
Zn6	Zn	-1.224597	0.634137	-0.295310
Zn7	Zn	-0.974597	0.884137	-0.045310
Zn8	Zn	-0.724597	1.134137	0.204690
Zn9	Zn	-1.313392	0.384148	-0.384030
Zn10	Zn	-1.063392	0.634148	-0.134030
Zn11	Zn	-0.813392	0.884148	0.115970
Zn12	Zn	-0.563392	1.134148	0.365970
Zn13	Zn	-1.313373	0.545384	-0.545243
Zn14	Zn	-1.063373	0.795384	-0.295243
Zn15	Zn	-0.813373	1.045384	-0.045243
Zn16	Zn	-0.563373	1.295384	0.204757
O17	O	-1.394016	0.464776	-0.464643
O18	O	-1.144016	0.714776	-0.214643
O19	O	-0.894016	0.964776	0.035357
O20	O	-0.644016	1.214776	0.285357
O21	O	-1.609670	0.524056	-0.405399
O22	O	-1.359670	0.774056	-0.155399
O23	O	-1.109670	1.024056	0.094601
O24	O	-0.859670	1.274056	0.344601
O25	O	-1.453176	0.249157	-0.523962
O26	O	-1.203176	0.499157	-0.273962
O27	O	-0.953176	0.749157	-0.023962
O28	O	-0.703176	0.999157	0.226038
O29	O	-1.334842	0.405570	-0.249043
O30	O	-1.084842	0.655570	0.000957
O31	O	-0.834842	0.905570	0.250957
O32	O	-0.584842	1.155570	0.500957
O33	O	-1.609592	0.405551	-0.523921
O34	O	-1.359592	0.655551	-0.273921
O35	O	-1.109592	0.905551	-0.023921
O36	O	-0.859592	1.155551	0.226079
O37	O	-1.453356	0.524067	-0.249012
O38	O	-1.203356	0.774067	0.000988
O39	O	-0.953356	1.024067	0.250988
O40	O	-0.703356	1.274067	0.500988
O41	O	-1.334739	0.249165	-0.405470
O42	O	-1.084739	0.499165	-0.155470
O43	O	-0.834739	0.749165	0.094530
O44	O	-0.584739	0.999165	0.344530
O45	O	-1.178408	0.405519	-0.405405
O46	O	-0.928408	0.655519	-0.155405
O47	O	-0.678408	0.905519	0.094595
O48	O	-0.428408	1.155519	0.344595
O49	O	-1.334811	0.680372	-0.523806
O50	O	-1.084811	0.930372	-0.273806
O51	O	-0.834811	1.180372	-0.023806
O52	O	-0.584811	1.430372	0.226194
O53	O	-1.178394	0.523978	-0.523847
O54	O	-0.928394	0.773978	-0.273847
O55	O	-0.678394	1.023978	-0.023847
O56	O	-0.428394	1.273978	0.226153
O57	O	-1.453339	0.680411	-0.405333
O58	O	-1.203339	0.930411	-0.155333
O59	O	-0.953339	1.180411	0.094667
O60	O	-0.703339	1.430411	0.344667
O61	O	-1.453158	0.405501	-0.680283
O62	O	-1.203158	0.655501	-0.430283
O63	O	-0.953158	0.905501	-0.180283
O64	O	-0.703158	1.155501	0.069717
O65	O	-1.334708	0.523968	-0.680233
O66	O	-1.084708	0.773968	-0.430233
O67	O	-0.834708	1.023968	-0.180233
O68	O	-0.584708	1.273968	0.069767
C69	C	-1.143402	0.464745	-0.464624
C70	C	-0.893402	0.714745	-0.214624
C71	C	-0.643402	0.964745	0.035376
C72	C	-0.393402	1.214745	0.285376
C73	C	-1.036188	0.464755	-0.464639
C74	C	-0.786188	0.714755	-0.214639
C75	C	-0.536188	0.964755	0.035361
C76	C	-0.286188	1.214755	0.285361
C77	C	-0.839893	0.464773	-0.464637
C78	C	-0.589893	0.714773	-0.214637
C79	C	-0.339893	0.964773	0.035363
C80	C	-0.089893	1.214773	0.285363
C81	C	-0.949125	0.464760	-0.464635
C82	C	-0.699125	0.714760	-0.214635
C83	C	-0.449125	0.964760	0.035365
C84	C	-0.199125	1.214760	0.285365
C85	C	-1.393946	0.464748	-0.715257
C86	C	-1.143946	0.714748	-0.465257
C87	C	-0.893946	0.964748	-0.215257
C88	C	-0.643946	1.214748	0.034743
C89	C	-1.394004	0.464769	-0.822471
C90	C	-1.144004	0.714769	-0.572471
C91	C	-0.894004	0.964769	-0.322471
C92	C	-0.644004	1.214769	-0.072471
C93	C	-1.394085	0.716369	-0.464558
C94	C	-1.144085	0.966369	-0.214558
C95	C	-0.894085	1.216369	0.035442
C96	C	-0.644085	1.466369	0.285442
C97	C	-1.394114	0.823583	-0.464521
C98	C	-1.144114	1.073583	-0.214521
C99	C	-0.894114	1.323583	0.035479
C100	C	-0.644114	1.573583	0.285479
C101	C	-0.645609	0.464799	-0.464656
C102	C	-0.395609	0.714799	-0.214656
C103	C	-0.145609	0.964799	0.035344
C104	C	0.104391	1.214799	0.285344
C105	C	-0.752823	0.464785	-0.464646
C106	C	-0.502823	0.714785	-0.214646
C107	C	-0.252823	0.964785	0.035354
C108	C	-0.002823	1.214785	0.285354
C109	C	-1.394003	0.214162	-0.464658
C110	C	-1.144003	0.464162	-0.214658
C111	C	-0.894003	0.714162	0.035342
C112	C	-0.644003	0.964162	0.285342
C113	C	-1.394161	0.106949	-0.464423
C114	C	-1.144161	0.356949	-0.214423
C115	C	-0.894161	0.606949	0.035577
C116	C	-0.644161	0.856949	0.285577
C117	C	-1.394140	1.019879	-0.464456
C118	C	-1.144140	1.269879	-0.214456
C119	C	-0.894140	1.519879	0.035544
C120	C	-0.644140	1.769879	0.285544
C121	C	-1.394122	0.910646	-0.464495
C122	C	-1.144122	1.160646	-0.214495
C123	C	-0.894122	1.410646	0.035505
C124	C	-0.644122	1.660646	0.285505
C125	C	-1.394105	0.464829	-1.018766
C126	C	-1.144105	0.714829	-0.768766
C127	C	-0.894105	0.964829	-0.518766
C128	C	-0.644105	1.214829	-0.268766
C129	C	-1.394046	0.464798	-0.909534
C130	C	-1.144046	0.714798	-0.659534
C131	C	-0.894046	0.964798	-0.409534
C132	C	-0.644046	1.214798	-0.159534
C133	C	-1.394113	0.464825	-0.213050
C134	C	-1.144113	0.714825	0.036950
C135	C	-0.894113	0.964825	0.286950
C136	C	-0.644113	1.214825	0.536950
C137	C	-1.394154	0.464846	-0.105836
C138	C	-1.144154	0.714846	0.144164
C139	C	-0.894154	0.964846	0.394164
C140	C	-0.644154	1.214846	0.644164
