data_functionalizedCrystal
_audit_creation_method	'MofGen! by Chris Wilmer'
_symmetry_space_group_name_H-M	'P1'
_symmetry_Int_Tables_number	1
_symmetry_cell_setting	triclinic
loop_
_symmetry_equiv_pos_as_xyz
  x,y,z
_cell_length_a	16.109301
_cell_length_b	19.288864
_cell_length_c	18.366186
_cell_angle_alpha	89.977071
_cell_angle_beta	90.006550
_cell_angle_gamma	96.701137
loop_
_atom_site_label
_atom_site_type_symbol
_atom_site_fract_x
_atom_site_fract_y
_atom_site_fract_z
O1	O	0.103714	-0.921601	0.060785
O2	O	0.117706	-0.719373	0.060736
O3	O	-0.010340	-0.826042	0.060755
O4	O	0.231760	-0.814932	0.060767
O5	O	-0.010343	-0.826024	-0.060345
O6	O	0.117702	-0.719355	-0.060363
O7	O	0.103711	-0.921582	-0.060314
Zn8	Zn	0.110706	-0.820466	-0.079566
Zn9	Zn	0.110711	-0.820490	0.079988
O10	O	0.231756	-0.814913	-0.060333
C11	C	0.117254	-0.693487	0.000180
C12	C	0.115902	-0.616380	0.000161
C13	C	-0.041315	-0.825583	0.000205
C14	C	-0.133606	-0.824234	0.000203
N15	N	0.110702	-0.820454	-0.188457
C16	C	-0.356084	-0.884391	0.000229
C17	C	-0.442800	-0.883118	0.000235
C18	C	-0.422493	-0.756559	0.000201
C19	C	-0.335778	-0.757833	0.000201
C20	C	-0.302577	-0.821751	0.000211
C21	C	-0.476007	-0.819204	0.000217
C22	C	-0.570028	-0.817823	0.000223
C23	C	-0.208549	-0.823133	0.000206
C24	C	0.262732	-0.815372	0.000219
C25	C	0.355022	-0.816722	0.000225
C26	C	0.104163	-0.947469	0.000244
C27	C	0.105514	-1.024576	0.000268
C28	C	0.191034	-0.571863	0.000176
C29	C	0.189764	-0.499413	0.000184
C30	C	0.113359	-0.471483	0.000191
C31	C	0.038218	-0.516009	0.000172
C32	C	0.039489	-0.588458	0.000157
C33	C	0.053297	-0.363084	0.042639
C34	C	0.052028	-0.290636	0.042659
C35	C	0.109433	-0.248028	0.000235
C36	C	0.168121	-0.277874	-0.042199
C37	C	0.169392	-0.350323	-0.042214
C38	C	0.111971	-0.392925	0.000207
C39	C	0.183193	-0.124952	0.000258
C40	C	0.181920	-0.052501	0.000262
C41	C	0.030372	-0.069099	0.000257
C42	C	0.031647	-0.141548	0.000246
C43	C	0.108060	-0.169470	0.000250
C44	C	0.161004	-0.862562	-0.226538
C45	C	0.161001	-0.862573	-0.302766
C46	C	0.110707	-0.820464	-0.340910
C47	C	0.060396	-0.778353	-0.302820
C48	C	0.060393	-0.778349	-0.226593
C49	C	0.108604	-0.757847	-0.461706
C50	C	0.108613	-0.757850	-0.537931
C51	C	0.110710	-0.820479	-0.576017
C52	C	0.112816	-0.883106	-0.537869
C53	C	0.112814	-0.883101	-0.461642
C54	C	0.110704	-0.820465	-0.423564
C55	C	0.161011	-0.862603	-0.696753
C56	C	0.161003	-0.862616	-0.772982
C57	C	0.060403	-0.778390	-0.773035
C58	C	0.060406	-0.778383	-0.696807
C59	C	0.110715	-0.820489	-0.658671
N60	N	0.110708	-0.820507	0.188879
H61	H	-0.329054	-0.936438	0.000239
H62	H	-0.449537	-0.704519	0.000191
F63	F	0.115049	-0.949766	-0.578396
F64	F	-0.048320	-0.188929	0.000234
F65	F	0.229220	-0.232533	-0.087353
F66	F	-0.499743	-0.949789	0.000256
F67	F	0.231847	-0.382085	-0.087377
F68	F	0.269732	-0.452026	0.000198
F69	F	-0.010424	-0.258878	0.087827
F70	F	0.261890	-0.005121	0.000274
H71	H	-0.292210	-0.706821	0.000188
H72	H	0.006549	-0.397771	0.077190
H73	H	0.114527	-0.934094	-0.430585
F74	F	0.272359	-0.601575	0.000178
F75	F	0.264517	-0.154671	0.000257
F76	F	-0.050945	-0.039379	0.000258
F77	F	-0.043098	-0.486284	0.000176
H78	H	-0.021694	-0.624704	0.000145
F79	F	0.214560	-0.907363	-0.185954
F80	F	0.214540	-0.907392	-0.343302
F81	F	0.214539	-0.907427	-0.656163
H82	H	0.019451	-0.744104	-0.804091
F83	F	0.214540	-0.907438	-0.813510
H84	H	0.019445	-0.744068	-0.333882
F85	F	0.006881	-0.733555	-0.656277
H86	H	0.106903	-0.706856	-0.568986
F87	F	0.106318	-0.691191	-0.421180
F88	F	0.006857	-0.733527	-0.186064
