data_functionalizedCrystal
_audit_creation_method	'MofGen! by Chris Wilmer'
_symmetry_space_group_name_H-M	'P1'
_symmetry_Int_Tables_number	1
_symmetry_cell_setting	triclinic
loop_
_symmetry_equiv_pos_as_xyz
  x,y,z
_cell_length_a	10.489741
_cell_length_b	16.098524
_cell_length_c	10.489741
_cell_angle_alpha	93.039168
_cell_angle_beta	84.539174
_cell_angle_gamma	93.036829
loop_
_atom_site_label
_atom_site_type_symbol
_atom_site_fract_x
_atom_site_fract_y
_atom_site_fract_z
O1	O	1.699188	0.069205	0.185102
O2	O	1.327994	0.069218	0.201996
O3	O	1.522037	0.069206	0.007951
O4	O	1.505145	0.069216	0.379147
O5	O	1.511743	-0.069308	-0.002331
O6	O	1.317700	-0.069296	0.191714
O7	O	1.688894	-0.069309	0.174820
Zn8	Zn	1.501662	-0.091294	0.181634
Zn9	Zn	1.515226	0.091203	0.195181
O10	O	1.494851	-0.069297	0.368865
C11	C	1.275315	-0.000038	0.195579
C12	C	1.133686	-0.000033	0.191762
C13	C	1.065545	-0.000044	0.068297
C14	C	0.978494	0.068250	0.131690
C15	C	0.968379	-0.068313	0.121582
C16	C	1.048504	0.068318	0.255210
C17	C	1.038394	-0.068307	0.245081
C18	C	0.951371	0.000004	0.308565
N19	N	1.492415	-0.215844	0.172388
C20	C	1.567252	-0.259426	0.247278
C21	C	1.560800	-0.346615	0.240801
C22	C	1.479504	-0.390221	0.159441
C23	C	1.404665	-0.346632	0.084543
C24	C	1.411124	-0.259445	0.091013
C25	C	1.456102	-0.653472	0.135990
C26	C	1.449646	-0.740665	0.129528
C27	C	1.605784	-0.740642	0.285785
C28	C	1.612230	-0.653453	0.292255
C29	C	1.537396	-0.609872	0.217351
C30	C	1.472905	-0.479342	0.152822
C31	C	1.544003	-0.520752	0.223964
C32	C	1.741573	-0.000052	0.181237
C33	C	1.883203	-0.000051	0.185054
C34	C	1.515614	-0.000050	-0.044722
C35	C	1.511797	-0.000049	-0.186351
N36	N	1.524483	0.215753	0.204418
C37	C	1.388333	-0.000038	-0.254491
C38	C	1.441581	-0.068335	-0.351683
C39	C	1.451760	0.068229	-0.341520
C40	C	1.565092	-0.068401	-0.281682
C41	C	1.575257	0.068223	-0.271506
C42	C	1.628594	-0.000090	-0.368672
C43	C	1.501274	-0.000039	0.421538
C44	C	1.505091	-0.000035	0.563168
H45	H	0.933110	-0.126051	0.065033
H46	H	1.395167	-0.617999	0.074997
O47	O	1.267196	-0.000259	-0.195322
C48	C	1.059936	-0.072483	-0.169104
C49	C	1.197085	-0.072343	-0.236179
H50	H	1.003204	-0.130749	-0.202131
H51	H	1.063942	-0.071943	-0.060834
H52	H	1.011102	-0.014820	-0.194756
H53	H	1.245999	-0.129997	-0.210630
H54	H	1.192990	-0.072840	-0.344432
H55	H	1.403795	0.125973	-0.368198
O56	O	1.642828	0.137015	-0.229312
C57	C	1.825603	0.190589	-0.122490
C58	C	1.749231	0.112605	-0.170243
H59	H	1.911631	0.170881	-0.074698
H60	H	1.860325	0.230111	-0.207137
H61	H	1.761325	0.228514	-0.050198
H62	H	1.813430	0.074615	-0.242511
H63	H	1.714493	0.073144	-0.085530
H64	H	1.115241	0.000039	-0.033193
O65	O	1.374230	-0.137186	-0.394026
C66	C	1.296055	-0.214622	-0.575976
C67	C	1.372397	-0.136630	-0.528207
H68	H	1.294525	-0.214190	-0.684461
H69	H	1.343378	-0.272856	-0.550255
H70	H	1.193658	-0.214531	-0.528547
H71	H	1.474804	-0.136640	-0.575608
H72	H	1.324972	-0.078431	-0.553908
O73	O	1.691012	-0.611065	0.371446
C74	C	1.707223	-0.512597	0.551039
C75	C	1.617864	-0.560559	0.461451
H76	H	1.648122	-0.471738	0.623813
H77	H	1.759570	-0.558693	0.603549
H78	H	1.780156	-0.471808	0.492006
H79	H	1.544859	-0.601349	0.520388
H80	H	1.565611	-0.514418	0.408936
O81	O	0.946832	0.137153	0.074401
C82	C	1.023084	0.263204	-0.027977
C83	C	1.059110	0.185203	0.036862
H84	H	1.113837	0.302084	-0.058321
H85	H	0.970859	0.243545	-0.115997
H86	H	0.957863	0.301760	0.042478
H87	H	1.124371	0.146613	-0.033494
H88	H	1.111268	0.204920	0.124902
H89	H	1.612991	-0.126205	-0.255141
H90	H	1.083628	0.126121	0.311701
O91	O	1.325718	-0.389115	0.005616
C92	C	1.246545	-0.523436	-0.073596
C93	C	1.335990	-0.475433	0.015863
H94	H	1.254839	-0.593232	-0.065362
H95	H	1.143314	-0.506322	-0.044954
H96	H	1.275334	-0.506281	-0.176780
H97	H	1.307317	-0.492562	0.119074
H98	H	1.439199	-0.492551	-0.012888
O99	O	1.749808	-0.000283	-0.427603
C100	C	1.946440	-0.072439	-0.464036
C101	C	1.809186	-0.072329	-0.397244
H102	H	1.994497	-0.130673	-0.439493
H103	H	1.942762	-0.071939	-0.572261
H104	H	2.003708	-0.014744	-0.429727
H105	H	1.751840	-0.130014	-0.431447
H106	H	1.812960	-0.072785	-0.289028
O107	O	1.070286	-0.137271	0.302045
C108	C	1.065792	-0.287229	0.296069
C109	C	1.029621	-0.209189	0.231425
H110	H	1.032906	-0.345395	0.239015
H111	H	1.174197	-0.286285	0.299222
H112	H	1.016970	-0.287776	0.397894
H113	H	1.078356	-0.208591	0.129573
H114	H	0.921202	-0.210163	0.228373
O115	O	1.678671	-0.782885	0.358467
C116	C	1.891837	-0.809578	0.408337
C117	C	1.809435	-0.761672	0.325966
H118	H	1.997576	-0.792459	0.382071
H119	H	1.865735	-0.792417	0.514094
H120	H	1.873194	-0.879380	0.389764
H121	H	1.828033	-0.691860	0.344428
H122	H	1.835552	-0.778903	0.220236
H123	H	1.383438	-0.776167	0.063275
O124	O	1.633535	-0.388821	0.313685
C125	C	1.789125	-0.379597	0.469312
C126	C	1.706798	-0.331696	0.386859
H127	H	1.848399	-0.333432	0.528474
H128	H	1.724064	-0.420395	0.536201
H129	H	1.855929	-0.420436	0.404221
H130	H	1.639984	-0.290812	0.451851
H131	H	1.771935	-0.290950	0.319959
H132	H	1.350184	-0.223961	0.030030
H133	H	0.901951	0.000044	0.410171
H134	H	1.633444	-0.223928	0.313538
H135	H	1.610198	-0.485245	0.290203
H136	H	1.406713	-0.514855	0.086579
