data_functionalizedCrystal
_audit_creation_method	'MofGen! by Chris Wilmer'
_symmetry_space_group_name_H-M	'P1'
_symmetry_Int_Tables_number	1
_symmetry_cell_setting	triclinic
loop_
_symmetry_equiv_pos_as_xyz
  x,y,z
_cell_length_a	21.295419
_cell_length_b	13.897449
_cell_length_c	13.897441
_cell_angle_alpha	89.979267
_cell_angle_beta	90.020000
_cell_angle_gamma	89.997004
loop_
_atom_site_label
_atom_site_type_symbol
_atom_site_fract_x
_atom_site_fract_y
_atom_site_fract_z
Zn1	Zn	0.250568	1.474810	-0.545452
Zn2	Zn	0.750568	1.974810	-0.045452
Zn3	Zn	0.355847	1.474749	-0.384183
Zn4	Zn	0.855847	1.974749	0.115817
Zn5	Zn	0.250598	1.313499	-0.384171
Zn6	Zn	0.750598	1.813499	0.115829
Zn7	Zn	0.355805	1.313526	-0.545436
Zn8	Zn	0.855805	1.813526	-0.045436
O9	O	0.303204	1.394146	-0.464811
O10	O	0.803204	1.894146	0.035189
O11	O	0.264538	1.609783	-0.524072
O12	O	0.764538	2.109783	-0.024072
O13	O	0.341915	1.453322	-0.249200
O14	O	0.841915	1.953322	0.250800
O15	O	0.162504	1.334911	-0.405566
O16	O	0.662504	1.834911	0.094434
O17	O	0.341886	1.609738	-0.405588
O18	O	0.841886	2.109738	0.094412
O19	O	0.162482	1.453426	-0.524059
O20	O	0.662482	1.953426	-0.024059
O21	O	0.264589	1.334852	-0.249191
O22	O	0.764589	1.834852	0.250809
O23	O	0.264549	1.178521	-0.405551
O24	O	0.764549	1.678521	0.094449
O25	O	0.341815	1.334957	-0.680420
O26	O	0.841815	1.834957	-0.180420
O27	O	0.341844	1.178540	-0.524032
O28	O	0.841844	1.678540	-0.024032
O29	O	0.264498	1.453452	-0.680432
O30	O	0.764498	1.953452	-0.180432
O31	O	0.443930	1.453348	-0.405573
O32	O	0.943930	1.953348	0.094427
O33	O	0.443900	1.334898	-0.524044
O34	O	0.943900	1.834898	-0.024044
C35	C	0.303196	1.143531	-0.464789
C36	C	0.803196	1.643531	0.035211
C37	C	0.303207	1.036317	-0.464802
C38	C	0.803207	1.536317	0.035198
C39	C	0.139014	1.394172	-0.464813
C40	C	0.639014	1.894172	0.035187
C41	C	0.069046	1.394184	-0.464814
C42	C	0.569046	1.894184	0.035186
C43	C	0.303210	0.840022	-0.464827
C44	C	0.803210	1.340022	0.035173
C45	C	0.303206	0.949255	-0.464811
C46	C	0.803206	1.449255	0.035189
C47	C	0.036168	1.332514	-0.526491
C48	C	0.536168	1.832514	-0.026491
C49	C	-0.029575	1.332523	-0.526505
C50	C	0.470425	1.832523	-0.026505
C51	C	-0.062437	1.394192	-0.464824
C52	C	0.437563	1.894192	0.035176
C53	C	-0.029551	1.455874	-0.403143
C54	C	0.470449	1.955874	0.096857
C55	C	0.036190	1.455870	-0.403138
C56	C	0.536190	1.955870	0.096862
N57	N	-0.165640	1.401572	-0.380398
N58	N	0.334360	1.901572	0.119602
N59	N	-0.228092	1.401570	-0.380406
N60	N	0.271908	1.901570	0.119594
C61	C	-0.260511	1.394210	-0.464837
C62	C	0.239489	1.894210	0.035163
N63	N	-0.228121	1.386832	-0.549263
N64	N	0.271879	1.886832	-0.049263
N65	N	-0.165663	1.386829	-0.549254
N66	N	0.334337	1.886829	-0.049254
C67	C	-0.133722	1.394204	-0.464823
C68	C	0.366278	1.894204	0.035177
C69	C	-0.364675	1.332546	-0.526534
C70	C	0.135325	1.832546	-0.026534
C71	C	-0.430419	1.332562	-0.526549
C72	C	0.069581	1.832562	-0.026549
C73	C	-0.430394	1.455909	-0.403179
C74	C	0.069606	1.955909	0.096821
C75	C	-0.364651	1.455898	-0.403172
C76	C	0.135349	1.955898	0.096828
C77	C	-0.331796	1.394211	-0.464848
C78	C	0.168204	1.894211	0.035152
C79	C	0.466756	1.394145	-0.464829
C80	C	0.966756	1.894145	0.035171
C81	C	0.536724	1.394233	-0.464869
C82	C	1.036724	1.894233	0.035131
C83	C	0.303149	1.394214	-0.716404
C84	C	0.803149	1.894214	-0.216404
C85	C	0.303125	1.394243	-0.823618
C86	C	0.803125	1.894243	-0.323618
C87	C	0.303213	1.645739	-0.464833
C88	C	0.803213	2.145739	0.035167
C89	C	0.303217	1.752953	-0.464843
C90	C	0.803217	2.252953	0.035157
C91	C	0.303082	1.394269	-1.019913
C92	C	0.803082	1.894269	-0.519913
C93	C	0.303108	1.394252	-0.910680
C94	C	0.803108	1.894252	-0.410680
C95	C	0.303214	1.394133	-0.214196
C96	C	0.803214	1.894133	0.285804
C97	C	0.303061	1.394291	-0.106983
C98	C	0.803061	1.894291	0.393017
H99	H	0.062915	1.282281	-0.576710
H100	H	0.562915	1.782281	-0.076710
H101	H	-0.056349	1.282302	-0.576731
H102	H	0.443651	1.782302	-0.076731
H103	H	-0.457188	1.282346	-0.576779
H104	H	0.042812	1.782346	-0.076779
C105	C	-0.328484	1.523730	-0.335311
C106	C	0.171516	2.023730	0.164689
N107	N	-0.301243	1.574824	-0.284195
N108	N	0.198757	2.074824	0.215805
C109	C	-0.065700	1.523709	-0.335292
C110	C	0.434300	2.023709	0.164708
N111	N	-0.092928	1.574805	-0.284186
N112	N	0.407072	2.074805	0.215814
H113	H	0.062959	1.506092	-0.352912
H114	H	0.562959	2.006092	0.147088
C115	C	-0.328532	1.264701	-0.594389
C116	C	0.171468	1.764701	-0.094389
N117	N	-0.301311	1.213602	-0.645500
N118	N	0.198689	1.713602	-0.145500
H119	H	-0.457149	1.506125	-0.352962
H120	H	0.042851	2.006125	0.147038
