data_functionalizedCrystal
_audit_creation_method	'MofGen! by Chris Wilmer'
_symmetry_space_group_name_H-M	'P1'
_symmetry_Int_Tables_number	1
_symmetry_cell_setting	triclinic
loop_
_symmetry_equiv_pos_as_xyz
  x,y,z
_cell_length_a	8.559649
_cell_length_b	7.088929
_cell_length_c	8.559649
_cell_angle_alpha	95.344185
_cell_angle_beta	110.221336
_cell_angle_gamma	95.325015
loop_
_atom_site_label
_atom_site_type_symbol
_atom_site_fract_x
_atom_site_fract_y
_atom_site_fract_z
O1	O	2.108185	-0.158958	0.036318
O2	O	2.608185	0.341042	0.536318
O3	O	1.632699	-0.158965	-0.047464
O4	O	2.132699	0.341035	0.452536
O5	O	1.912333	-0.158959	0.232170
O6	O	2.412333	0.341041	0.732170
O7	O	1.828551	-0.158964	-0.243315
O8	O	2.328551	0.341036	0.256685
O9	O	1.949712	0.159017	0.269616
O10	O	2.449712	0.659017	0.769616
O11	O	1.670079	0.159011	-0.010018
O12	O	2.170079	0.659011	0.489982
O13	O	2.145564	0.159018	0.073764
O14	O	2.645564	0.659018	0.573764
Cu15	Cu	1.911235	0.188048	0.035292
Cu16	Cu	2.411235	0.688048	0.535292
Cu17	Cu	1.867029	-0.187995	-0.008992
Cu18	Cu	2.367029	0.312005	0.491008
O19	O	1.865931	0.159012	-0.205870
O20	O	2.365931	0.659012	0.294130
C21	C	1.591080	0.000022	-0.035090
C22	C	2.091080	0.500022	0.464910
C23	C	1.411380	0.000019	-0.053990
C24	C	1.911380	0.500019	0.446010
C25	C	1.937372	0.000026	0.311201
C26	C	2.437372	0.500026	0.811201
C27	C	1.956269	0.000015	0.490899
C28	C	2.456269	0.500015	0.990899
C29	C	2.187183	0.000027	0.061390
C30	C	2.687183	0.500027	0.561390
C31	C	2.366881	0.000017	0.080288
C32	C	2.866881	0.500017	0.580288
N33	N	1.942338	0.452537	0.066441
N34	N	2.442338	0.952537	0.566441
N35	N	1.835940	-0.452484	-0.040127
N36	N	2.335940	0.047516	0.459873
C37	C	1.840892	0.000023	-0.284902
C38	C	2.340892	0.500023	0.215098
C39	C	1.821992	0.000021	-0.464601
C40	C	2.321992	0.500021	0.035399
H41	H	1.311991	0.000007	-0.183419
H42	H	1.811991	0.500007	0.316581
H43	H	1.725671	0.465867	-0.150562
H44	H	2.225671	0.965867	0.349438
H45	H	2.052625	0.534195	0.176874
H46	H	2.552625	1.034195	0.676874
H47	H	1.692573	0.000025	0.436021
H48	H	2.192573	0.500025	0.936021
H49	H	2.085699	0.000033	0.590290
H50	H	2.585699	0.500033	1.090290
H51	H	1.466259	0.000009	0.209706
H52	H	1.966259	0.500009	0.709706
