data_functionalizedCrystal
_audit_creation_method	'MofGen! by Chris Wilmer'
_symmetry_space_group_name_H-M	'P1'
_symmetry_Int_Tables_number	1
_symmetry_cell_setting	triclinic
loop_
_symmetry_equiv_pos_as_xyz
  x,y,z
_cell_length_a	13.897449
_cell_length_b	13.897448
_cell_length_c	13.897441
_cell_angle_alpha	90.030599
_cell_angle_beta	90.022859
_cell_angle_gamma	90.017525
loop_
_atom_site_label
_atom_site_type_symbol
_atom_site_fract_x
_atom_site_fract_y
_atom_site_fract_z
Zn1	Zn	-1.474703	0.383988	-0.545436
Zn2	Zn	-0.974703	0.883988	-0.045436
Zn3	Zn	-1.474597	0.545310	-0.384137
Zn4	Zn	-0.974597	1.045310	0.115863
Zn5	Zn	-1.313392	0.384030	-0.384148
Zn6	Zn	-0.813392	0.884030	0.115852
Zn7	Zn	-1.313373	0.545243	-0.545384
Zn8	Zn	-0.813373	1.045243	-0.045384
O9	O	-1.394016	0.464643	-0.464776
O10	O	-0.894016	0.964643	0.035224
O11	O	-1.609670	0.405399	-0.524056
O12	O	-1.109670	0.905399	-0.024056
O13	O	-1.453176	0.523962	-0.249157
O14	O	-0.953176	1.023962	0.250843
O15	O	-1.334842	0.249043	-0.405570
O16	O	-0.834842	0.749043	0.094430
O17	O	-1.609592	0.523921	-0.405551
O18	O	-1.109592	1.023921	0.094449
O19	O	-1.453356	0.249012	-0.524067
O20	O	-0.953356	0.749012	-0.024067
O21	O	-1.334739	0.405470	-0.249165
O22	O	-0.834739	0.905470	0.250835
O23	O	-1.178408	0.405405	-0.405519
O24	O	-0.678408	0.905405	0.094481
O25	O	-1.334811	0.523806	-0.680372
O26	O	-0.834811	1.023806	-0.180372
O27	O	-1.178394	0.523847	-0.523978
O28	O	-0.678394	1.023847	-0.023978
O29	O	-1.453339	0.405333	-0.680411
O30	O	-0.953339	0.905333	-0.180411
O31	O	-1.453158	0.680283	-0.405501
O32	O	-0.953158	1.180283	0.094499
O33	O	-1.334708	0.680233	-0.523968
O34	O	-0.834708	1.180233	-0.023968
C35	C	-1.143402	0.464624	-0.464745
C36	C	-0.643402	0.964624	0.035255
C37	C	-1.036188	0.464639	-0.464755
C38	C	-0.536188	0.964639	0.035245
C39	C	-0.839893	0.464637	-0.464773
C40	C	-0.339893	0.964637	0.035227
C41	C	-0.949125	0.464635	-0.464760
C42	C	-0.449125	0.964635	0.035240
C43	C	-1.393946	0.715257	-0.464748
C44	C	-0.893946	1.215257	0.035252
C45	C	-1.394004	0.822471	-0.464769
C46	C	-0.894004	1.322471	0.035231
C47	C	-1.394085	0.464558	-0.716369
C48	C	-0.894085	0.964558	-0.216369
C49	C	-1.394114	0.464521	-0.823583
C50	C	-0.894114	0.964521	-0.323583
C51	C	-0.645609	0.464656	-0.464799
C52	C	-0.145609	0.964656	0.035201
C53	C	-0.752823	0.464646	-0.464785
C54	C	-0.252823	0.964646	0.035215
C55	C	-1.394113	0.213050	-0.464825
C56	C	-0.894113	0.713050	0.035175
C57	C	-1.394154	0.105836	-0.464846
C58	C	-0.894154	0.605836	0.035154
C59	C	-1.394105	1.018766	-0.464829
C60	C	-0.894105	1.518766	0.035171
C61	C	-1.394046	0.909534	-0.464798
C62	C	-0.894046	1.409534	0.035202
C63	C	-1.394140	0.464456	-1.019879
C64	C	-0.894140	0.964456	-0.519879
C65	C	-1.394122	0.464495	-0.910646
C66	C	-0.894122	0.964495	-0.410646
C67	C	-1.394003	0.464658	-0.214162
C68	C	-0.894003	0.964658	0.285838
C69	C	-1.394161	0.464423	-0.106949
C70	C	-0.894161	0.964423	0.393051
