data_functionalizedCrystal
_audit_creation_method	'MofGen! by Chris Wilmer'
_symmetry_space_group_name_H-M	'P1'
_symmetry_Int_Tables_number	1
_symmetry_cell_setting	triclinic
loop_
_symmetry_equiv_pos_as_xyz
  x,y,z
_cell_length_a	14.519709
_cell_length_b	14.519709
_cell_length_c	9.130313
_cell_angle_alpha	89.994534
_cell_angle_beta	90.002092
_cell_angle_gamma	83.680145
loop_
_atom_site_label
_atom_site_type_symbol
_atom_site_fract_x
_atom_site_fract_y
_atom_site_fract_z
O1	O	1.223866	0.120891	-0.121612
O2	O	1.723866	0.620891	0.378388
O3	O	0.955389	0.135128	-0.121657
O4	O	1.455389	0.635128	0.378343
O5	O	1.096746	-0.006229	-0.121620
O6	O	1.596746	0.493771	0.378380
O7	O	1.082509	0.262248	-0.121649
O8	O	1.582509	0.762248	0.378351
O9	O	1.096736	-0.006233	0.121979
O10	O	1.596736	0.493767	0.621979
O11	O	0.955380	0.135124	0.121942
O12	O	1.455380	0.635124	0.621942
O13	O	1.223857	0.120887	0.121987
O14	O	1.723857	0.620887	0.621987
Cu15	Cu	1.089617	0.128005	0.144207
Cu16	Cu	1.589617	0.628005	0.644207
Cu17	Cu	1.089629	0.128010	-0.143877
Cu18	Cu	1.589629	0.628010	0.356123
O19	O	1.082500	0.262244	0.121950
O20	O	1.582500	0.762244	0.621950
C21	C	0.921025	0.134462	0.000137
C22	C	1.421025	0.634462	0.500137
C23	C	0.818643	0.132474	0.000120
C24	C	1.318643	0.632474	0.500120
C25	C	1.096078	-0.040591	0.000180
C26	C	1.596078	0.459409	0.500180
C27	C	1.094090	-0.142972	0.000180
C28	C	1.594090	0.357028	0.500180
C29	C	0.443748	0.125154	0.000187
C30	C	0.943748	0.625154	0.500187
C31	C	0.548056	0.127187	0.000168
C32	C	1.048056	0.627187	0.500168
C33	C	0.631192	0.128814	0.000152
C34	C	1.131192	0.628814	0.500152
C35	C	0.735507	0.130847	0.000136
C36	C	1.235507	0.630847	0.500136
C37	C	1.086770	-0.517868	0.000141
C38	C	1.586770	-0.017868	0.500141
C39	C	1.088803	-0.413560	0.000152
C40	C	1.588803	0.086440	0.500152
C41	C	1.090430	-0.330423	0.000162
C42	C	1.590430	0.169577	0.500162
C43	C	1.092463	-0.226109	0.000170
C44	C	1.592463	0.273891	0.500170
C45	C	1.258221	0.121553	0.000190
C46	C	1.758221	0.621553	0.500190
C47	C	1.360602	0.123541	0.000197
C48	C	1.860602	0.623541	0.500197
C49	C	1.083168	0.296605	0.000147
C50	C	1.583168	0.796605	0.500147
C51	C	1.085156	0.398987	0.000137
C52	C	1.585156	0.898987	0.500137
N53	N	1.089616	0.128001	0.346830
N54	N	1.589616	0.628001	0.846830
N55	N	1.089637	0.128006	-0.346500
N56	N	1.589637	0.628006	0.153500
C57	C	1.152230	0.065434	0.423498
C58	C	1.652230	0.565434	0.923498
C59	C	1.152238	0.065435	0.576835
C60	C	1.652238	0.565435	1.076835
C61	C	1.027017	0.190576	0.576822
C62	C	1.527017	0.690576	1.076822
C63	C	1.027004	0.190571	0.423487
C64	C	1.527004	0.690571	0.923487
H65	H	1.203211	0.014485	0.361087
H66	H	1.703211	0.514485	0.861087
H67	H	1.203223	0.014486	0.639254
H68	H	1.703223	0.514486	1.139254
C69	C	0.958128	0.259399	0.339147
C70	C	1.458128	0.759399	0.839147
H71	H	0.920850	0.296673	0.406760
H72	H	1.420850	0.796673	0.906760
H73	H	0.919685	0.226134	0.279344
H74	H	1.419685	0.726134	0.779344
H75	H	0.991365	0.297864	0.279318
H76	H	1.491365	0.797864	0.779318
H77	H	0.976041	0.241520	0.639252
H78	H	1.476041	0.741520	1.139252
