data_functionalizedCrystal
_audit_creation_method	'MofGen! by Chris Wilmer'
_symmetry_space_group_name_H-M	'P1'
_symmetry_Int_Tables_number	1
_symmetry_cell_setting	triclinic
loop_
_symmetry_equiv_pos_as_xyz
  x,y,z
_cell_length_a	11.792241
_cell_length_b	10.654546
_cell_length_c	9.730223
_cell_angle_alpha	89.998853
_cell_angle_beta	89.996370
_cell_angle_gamma	95.661551
loop_
_atom_site_label
_atom_site_type_symbol
_atom_site_fract_x
_atom_site_fract_y
_atom_site_fract_z
O1	O	-0.159396	1.667386	-0.114303
O2	O	-0.174589	1.301864	-0.114298
O3	O	-0.001842	1.493495	-0.114309
O4	O	-0.332142	1.475754	-0.114292
O5	O	-0.001847	1.493493	0.114271
O6	O	-0.174593	1.301861	0.114282
O7	O	-0.159400	1.667383	0.114277
Zn8	Zn	-0.166997	1.484622	0.150571
Zn9	Zn	-0.166992	1.484625	-0.150593
O10	O	-0.332147	1.475752	0.114288
C11	C	-0.173476	1.255068	-0.000008
C12	C	-0.170141	1.115634	-0.000006
C13	C	-0.168561	1.050145	-0.124611
C14	C	-0.165418	0.919133	-0.124623
C15	C	-0.165432	0.919111	0.124588
C16	C	-0.168583	1.050120	0.124597
C17	C	-0.170119	1.115659	-0.249215
C18	C	-0.168537	1.050170	-0.373831
C19	C	-0.165395	0.919158	-0.373842
C20	C	-0.163834	0.853635	-0.249238
C21	C	-0.374438	1.476868	-0.000000
C22	C	-0.500460	1.480203	0.000006
C23	C	-0.731186	1.486336	-0.000029
C24	C	-0.602793	1.482929	-0.000010
C25	C	0.040449	1.492379	-0.000024
C26	C	0.166470	1.489044	-0.000039
C27	C	-0.160513	1.714179	-0.000017
C28	C	-0.163848	1.853613	-0.000027
N29	N	-0.167001	1.484629	0.356108
N30	N	-0.166979	1.484628	-0.356129
C31	C	-0.090535	1.569505	0.428029
C32	C	-0.090521	1.569502	0.571912
C33	C	-0.243449	1.399742	0.571940
C34	C	-0.243456	1.399741	0.428059
C35	C	-0.014079	1.654394	0.356077
C36	C	0.062392	1.739278	0.427998
C37	C	0.062406	1.739275	0.571881
C38	C	-0.014051	1.654387	0.643843
H39	H	-0.161287	0.746954	-0.249257
H40	H	-0.164160	0.865752	0.226034
C41	C	-0.327531	1.306357	0.651088
H42	H	-0.373061	1.255792	0.587646
H43	H	-0.375164	1.351827	0.707236
H44	H	-0.286228	1.253813	0.707195
C45	C	-0.170281	1.122168	0.261660
H46	H	-0.168874	1.064393	0.335868
H47	H	-0.237571	1.164155	0.266870
H48	H	-0.105418	1.182397	0.266810
C49	C	-0.327573	1.306385	0.348941
H50	H	-0.373118	1.255842	0.412397
H51	H	-0.286306	1.253836	0.292806
H52	H	-0.375206	1.351890	0.292822
H53	H	-0.014085	1.654407	0.238920
H54	H	-0.014026	1.654383	0.761002
C55	C	0.146484	1.832651	0.348847
H56	H	0.135517	1.820509	0.252856
H57	H	0.222357	1.818514	0.372405
H58	H	0.133437	1.916547	0.372437
C59	C	0.146521	1.832638	0.650991
H60	H	0.192045	1.883197	0.587528
H61	H	0.194158	1.787152	0.707112
H62	H	0.105243	1.885191	0.707123
H63	H	-0.164118	0.865838	-0.475309
H64	H	-0.169818	1.103525	-0.475278
C65	C	-0.173580	1.259766	-0.249208
H66	H	-0.174290	1.289406	-0.341260
H67	H	-0.108225	1.298532	-0.203180
H68	H	-0.240377	1.280262	-0.203194
