data_functionalizedCrystal
_audit_creation_method	'MofGen! by Chris Wilmer'
_symmetry_space_group_name_H-M	'P1'
_symmetry_Int_Tables_number	1
_symmetry_cell_setting	triclinic
loop_
_symmetry_equiv_pos_as_xyz
  x,y,z
_cell_length_a	6.817900
_cell_length_b	17.078472
_cell_length_c	16.305550
_cell_angle_alpha	96.275374
_cell_angle_beta	103.455250
_cell_angle_gamma	99.306020
loop_
_atom_site_label
_atom_site_type_symbol
_atom_site_fract_x
_atom_site_fract_y
_atom_site_fract_z
V1	V	-4.005358	-0.110437	-0.262946
O2	O	-4.014715	0.004618	-0.258028
O3	O	-3.936405	-0.218315	-0.261064
O4	O	-3.957028	-0.109040	-0.377664
O5	O	-3.993949	-0.105413	-0.140620
V6	V	-4.491640	-0.096639	-0.248325
O7	O	-4.260564	-0.140703	-0.295018
O8	O	-4.686631	-0.066373	-0.216253
O9	O	-4.337386	0.011239	-0.250207
O10	O	-4.599680	-0.211694	-0.253243
O11	O	-4.620446	-0.101663	-0.370651
O12	O	-4.316763	-0.098035	-0.133607
C13	C	-3.776404	-0.244603	-0.256894
C14	C	-3.801314	-0.332797	-0.256120
C15	C	-3.994349	-0.378282	-0.259961
C16	C	-4.017745	-0.461150	-0.259239
C17	C	-3.848102	-0.498530	-0.254669
C18	C	-3.655053	-0.453039	-0.250830
C19	C	-3.631662	-0.370174	-0.251559
C20	C	-3.898617	-0.745927	-0.252044
C21	C	-3.922022	-0.828798	-0.251313
C22	C	-4.284714	-0.836904	-0.259724
C23	C	-4.261303	-0.754036	-0.260447
C24	C	-4.068260	-0.708553	-0.256612
N25	N	-3.872011	-0.583234	-0.253928
N26	N	-4.044356	-0.623851	-0.257360
C27	C	-3.802710	-0.105212	-0.405628
C28	C	-3.844342	-0.104784	-0.499411
C29	C	-3.995743	-0.103126	-0.840157
C30	C	-3.760626	-0.098203	-0.799233
C31	C	-3.717286	-0.098977	-0.701737
C32	C	-3.920630	-0.103948	-0.671109
C33	C	-4.072844	-0.182301	-0.721675
C34	C	-4.114791	-0.181858	-0.819225
C35	C	-4.064268	-0.030322	-0.794370
C36	C	-4.016456	-0.029702	-0.696528
C37	C	-3.878192	-0.104416	-0.575570
C38	C	-4.038189	-0.102664	-0.935697
C39	C	-4.160729	0.037524	-0.254375
C40	C	-4.115057	0.125716	-0.255155
C41	C	-4.134423	-0.101866	-0.105638
C42	C	-4.072030	-0.102290	-0.011855
H43	H	-4.132491	-0.347852	-0.263674
C44	C	-4.230086	-0.511176	-0.263449
C45	C	-4.412636	-0.514101	-0.340594
C46	C	-4.624987	-0.564124	-0.344801
C47	C	-4.654788	-0.611222	-0.271863
C48	C	-4.472233	-0.608298	-0.194713
C49	C	-4.259881	-0.558275	-0.190506
H50	H	-4.390580	-0.479235	-0.394591
H51	H	-4.760127	-0.566288	-0.401912
H52	H	-4.811983	-0.648252	-0.274977
H53	H	-4.494288	-0.643164	-0.140716
H54	H	-4.124742	-0.556111	-0.133394
H55	H	-4.006983	-0.237430	-0.704820
H56	H	-3.741430	-0.708904	-0.248917
H57	H	-3.705642	-0.150510	-0.830704
H58	H	-4.287327	-0.188729	-0.847211
H59	H	-4.235783	-0.033232	-0.821184
H60	H	-4.399452	-0.723607	-0.264174
C61	C	-3.561061	-0.022805	-0.654469
C62	C	-3.474944	0.039151	-0.705380
C63	C	-3.318845	0.115359	-0.658113
C64	C	-3.248864	0.129611	-0.559935
C65	C	-3.334983	0.067653	-0.509019
C66	C	-3.491081	-0.008555	-0.556285
H67	H	-3.526747	0.028603	-0.778062
H68	H	-3.255095	0.161224	-0.695805
H69	H	-3.133311	0.186024	-0.524946
H70	H	-3.283179	0.078201	-0.436337
H71	H	-3.554831	-0.054420	-0.518593
H72	H	-3.640853	-0.151887	-0.685403
C73	C	-3.631681	-0.021742	-0.815995
C74	C	-3.738288	0.037164	-0.867050
C75	C	-3.609344	0.113628	-0.883818
C76	C	-3.373791	0.131187	-0.849530
C77	C	-3.267171	0.072280	-0.798472
C78	C	-3.396116	-0.004185	-0.781704
H79	H	-3.912670	0.024168	-0.892434
H80	H	-3.688272	0.157235	-0.921615
H81	H	-3.278339	0.187790	-0.861943
H82	H	-3.092790	0.085276	-0.773087
H83	H	-3.317188	-0.047792	-0.743907
C84	C	-4.051870	-0.256309	-0.860217
C85	C	-3.963881	-0.315752	-0.804134
C86	C	-3.900951	-0.390204	-0.845121
C87	C	-3.926010	-0.405212	-0.942191
C88	C	-4.014003	-0.345767	-0.998280
C89	C	-4.076933	-0.271315	-0.957293
H90	H	-3.945327	-0.304644	-0.732272
H91	H	-3.835812	-0.434209	-0.803600
H92	H	-3.879425	-0.460325	-0.972532
H93	H	-4.032557	-0.356875	-1.070142
H94	H	-4.142072	-0.227310	-0.998814
C95	C	-4.278095	-0.191053	-0.696119
C96	C	-4.479894	-0.194231	-0.763858
C97	C	-4.685143	-0.202981	-0.738300
C98	C	-4.688593	-0.208552	-0.645003
C99	C	-4.486787	-0.205374	-0.577259
C100	C	-4.281538	-0.196624	-0.602816
H101	H	-4.477347	-0.190107	-0.832927
H102	H	-4.834533	-0.205334	-0.788450
H103	H	-4.840531	-0.215029	-0.626084
H104	H	-4.489335	-0.209498	-0.508189
H105	H	-4.132148	-0.194271	-0.552667
H106	H	-3.984095	0.029045	-0.807784
H107	H	-4.441884	-0.873944	-0.262845
C108	C	-3.867735	0.048592	-0.650152
C109	C	-3.783849	0.110149	-0.701986
C110	C	-3.635117	0.188440	-0.655605
C111	C	-3.570270	0.205175	-0.557390
C112	C	-3.654156	0.143617	-0.505550
C113	C	-3.802888	0.065326	-0.551931
H114	H	-3.831853	0.097762	-0.774696
H115	H	-3.573019	0.234010	-0.693981
H116	H	-3.460169	0.263131	-0.523056
H117	H	-3.606153	0.156004	-0.432840
H118	H	-3.864986	0.019756	-0.513555
H119	H	-4.163928	-0.028727	-0.675181
H120	H	-3.516931	-0.483482	-0.247115
H121	H	-3.474477	-0.333141	-0.248434
H122	H	-3.783877	-0.859233	-0.247612
