data_functionalizedCrystal
_audit_creation_method	'MofGen! by Chris Wilmer'
_symmetry_space_group_name_H-M	'P1'
_symmetry_Int_Tables_number	1
_symmetry_cell_setting	triclinic
loop_
_symmetry_equiv_pos_as_xyz
  x,y,z
_cell_length_a	29.839135
_cell_length_b	29.839132
_cell_length_c	29.839125
_cell_angle_alpha	90.019925
_cell_angle_beta	89.984512
_cell_angle_gamma	89.952207
loop_
_atom_site_label
_atom_site_type_symbol
_atom_site_fract_x
_atom_site_fract_y
_atom_site_fract_z
Zn1	Zn	0.686708	0.178886	-0.254040
Zn2	Zn	1.020041	0.512219	0.079293
Zn3	Zn	1.353374	0.845553	0.412626
Zn4	Zn	0.686635	0.253998	-0.178907
Zn5	Zn	1.019968	0.587331	0.154426
Zn6	Zn	1.353301	0.920665	0.487759
Zn7	Zn	0.611590	0.178886	-0.178918
Zn8	Zn	0.944924	0.512219	0.154415
Zn9	Zn	1.278257	0.845553	0.487748
Zn10	Zn	0.611533	0.253993	-0.254004
Zn11	Zn	0.944866	0.587326	0.079329
Zn12	Zn	1.278200	0.920660	0.412662
O13	O	0.649116	0.216441	-0.216468
O14	O	0.982450	0.549774	0.116866
O15	O	1.315783	0.883107	0.450199
O16	O	0.749565	0.188852	-0.244084
O17	O	1.082898	0.522185	0.089249
O18	O	1.416232	0.855518	0.422582
O19	O	0.676673	0.244036	-0.116042
O20	O	1.010007	0.577370	0.217292
O21	O	1.343340	0.910703	0.550625
O22	O	0.621609	0.116019	-0.188903
O23	O	0.954943	0.449352	0.144430
O24	O	1.288276	0.782686	0.477763
O25	O	0.749512	0.244036	-0.188884
O26	O	1.082845	0.577370	0.144449
O27	O	1.416178	0.910703	0.477782
O28	O	0.676798	0.116019	-0.244095
O29	O	1.010131	0.449352	0.089238
O30	O	1.343464	0.782686	0.422572
O31	O	0.621539	0.188852	-0.116050
O32	O	0.954872	0.522185	0.217284
O33	O	1.288205	0.855519	0.550617
O34	O	0.548716	0.188847	-0.188868
O35	O	0.882049	0.522181	0.144465
O36	O	1.215382	0.855514	0.477798
O37	O	0.621512	0.244028	-0.316876
O38	O	0.954845	0.577361	0.016457
O39	O	1.288178	0.910694	0.349790
O40	O	0.548674	0.244028	-0.244033
O41	O	0.882007	0.577361	0.089300
O42	O	1.215340	0.910695	0.422633
O43	O	0.676742	0.188847	-0.316903
O44	O	1.010075	0.522180	0.016431
O45	O	1.343409	0.855514	0.349764
O46	O	0.676618	0.316865	-0.188849
O47	O	1.009951	0.650198	0.144484
O48	O	1.343285	0.983531	0.477817
O49	O	0.621441	0.316861	-0.244023
O50	O	0.954774	0.650194	0.089311
O51	O	1.288108	0.983527	0.422644
C52	C	0.532394	0.216437	-0.216448
C53	C	0.865727	0.549771	0.116885
C54	C	1.199061	0.883104	0.450218
C55	C	0.482459	0.216447	-0.216451
C56	C	0.815793	0.549780	0.116882
C57	C	1.149126	0.883113	0.450216
C58	C	0.172841	0.187750	-0.245252
C59	C	0.506174	0.521083	0.088081
C60	C	0.839508	0.854416	0.421414
C61	C	-0.014832	0.187753	-0.245265
C62	C	0.318501	0.521086	0.088068
C63	C	0.651835	0.854420	0.421401
O64	O	-0.039076	0.163344	-0.269732
O65	O	0.294258	0.496677	0.063601
O66	O	0.627591	0.830010	0.396935
N67	N	-0.038326	0.216441	-0.216484
N68	N	0.295008	0.549775	0.116849
N69	N	0.628341	0.883108	0.450183
C70	C	-0.014898	0.245129	-0.187696
C71	C	0.318435	0.578462	0.145638
C72	C	0.651769	0.911796	0.478971
O73	O	-0.039187	0.269527	-0.163212
O74	O	0.294146	0.602860	0.170121
O75	O	0.627480	0.936194	0.503454
C76	C	0.172774	0.245123	-0.187681
C77	C	0.506108	0.578457	0.145653
C78	C	0.839441	0.911790	0.478986
C79	C	0.196265	0.216436	-0.216467
C80	C	0.529599	0.549769	0.116866
C81	C	0.862932	0.883103	0.450200
C82	C	0.196332	0.159065	-0.274036
C83	C	0.529665	0.492398	0.059297
C84	C	0.862999	0.825731	0.392631
C85	C	0.243248	0.159066	-0.274034
C86	C	0.576581	0.492399	0.059299
C87	C	0.909914	0.825733	0.392632
C88	C	0.266672	0.187752	-0.245249
C89	C	0.600005	0.521086	0.088084
C90	C	0.933339	0.854419	0.421418
C91	C	0.243181	0.216437	-0.216465
C92	C	0.576514	0.549771	0.116868
C93	C	0.909847	0.883104	0.450201
C94	C	0.196201	0.273808	-0.158890
C95	C	0.529534	0.607141	0.174443
C96	C	0.862868	0.940475	0.507776
C97	C	0.243122	0.273803	-0.158888
C98	C	0.576455	0.607137	0.174445
C99	C	0.909789	0.940470	0.507778
C100	C	0.266613	0.245116	-0.187675
C101	C	0.599946	0.578450	0.145659
C102	C	0.933280	0.911783	0.478992
C103	C	0.313521	0.245125	-0.187678
C104	C	0.646854	0.578458	0.145655
C105	C	0.980187	0.911792	0.478988
N106	N	0.337014	0.216437	-0.216459
N107	N	0.670347	0.549770	0.116874
N108	N	1.003681	0.883103	0.450207
C109	C	0.313590	0.187750	-0.245245
C110	C	0.646923	0.521084	0.088089
C111	C	0.980256	0.854417	0.421422
C112	C	-0.113429	0.245130	-0.187706
C113	C	0.219905	0.578464	0.145627
C114	C	0.553238	0.911797	0.478961
C115	C	-0.160346	0.245133	-0.187710
C116	C	0.172987	0.578466	0.145623
C117	C	0.506320	0.911799	0.478957
C118	C	-0.160277	0.187756	-0.245279
C119	C	0.173056	0.521089	0.088054
C120	C	0.506389	0.854422	0.421387
C121	C	-0.113359	0.187756	-0.245277
C122	C	0.219975	0.521090	0.088056
C123	C	0.553308	0.854423	0.421390
C124	C	-0.089935	0.216442	-0.216487
C125	C	0.243398	0.549775	0.116846
C126	C	0.576732	0.883109	0.450180
C127	C	0.412116	0.187755	-0.245239
C128	C	0.745449	0.521089	0.088094
C129	C	1.078782	0.854422	0.421427
C130	C	0.459035	0.187760	-0.245236
C131	C	0.792369	0.521094	0.088097
C132	C	1.125702	0.854427	0.421430
C133	C	0.458962	0.245135	-0.187665
C134	C	0.792295	0.578469	0.145668
C135	C	1.125629	0.911802	0.479001
C136	C	0.412046	0.245132	-0.187670
C137	C	0.745380	0.578465	0.145663
C138	C	1.078713	0.911799	0.478997
C139	C	0.388624	0.216438	-0.216458
C140	C	0.721958	0.549772	0.116875
C141	C	1.055291	0.883105	0.450208
O142	O	0.337793	0.269518	-0.163221
O143	O	0.671126	0.602851	0.170113
O144	O	1.004460	0.936185	0.503446
O145	O	0.337887	0.163349	-0.269717
O146	O	0.671220	0.496682	0.063616
O147	O	1.004553	0.830015	0.396949
C148	C	0.125926	0.187749	-0.245254
C149	C	0.459259	0.521082	0.088079
C150	C	0.792592	0.854415	0.421412
C151	C	0.102434	0.216434	-0.216471
C152	C	0.435768	0.549767	0.116863
C153	C	0.769101	0.883100	0.450196
C154	C	0.125859	0.245120	-0.187685
C155	C	0.459192	0.578453	0.145648
C156	C	0.792525	0.911787	0.478981
C157	C	0.055517	0.216436	-0.216475
C158	C	0.388850	0.549769	0.116859
C159	C	0.722183	0.883102	0.450192
C160	C	0.032092	0.187749	-0.245260
C161	C	0.365426	0.521083	0.088073
C162	C	0.698759	0.854416	0.421406
C163	C	0.055586	0.159061	-0.274041
C164	C	0.388919	0.492394	0.059292
C165	C	0.722252	0.825728	0.392625
C166	C	0.102501	0.159062	-0.274040
C167	C	0.435835	0.492396	0.059294
C168	C	0.769168	0.825729	0.392627
C169	C	0.102365	0.273808	-0.158904
C170	C	0.435699	0.607142	0.174429
C171	C	0.769032	0.940475	0.507763
C172	C	0.055450	0.273805	-0.158909
C173	C	0.388783	0.607138	0.174425
C174	C	0.722116	0.940472	0.507758
C175	C	0.032025	0.245119	-0.187694
C176	C	0.365359	0.578452	0.145639
C177	C	0.698692	0.911785	0.478973
C178	C	0.649028	0.333163	-0.216441
C179	C	0.982361	0.666497	0.116893
C180	C	1.315694	0.999830	0.450226
C181	C	0.649031	0.383098	-0.216444
C182	C	0.982364	0.716431	0.116889
C183	C	1.315697	1.049765	0.450222
C184	C	0.677867	0.692730	-0.187762
C185	C	1.011201	1.026064	0.145571
C186	C	1.344534	1.359397	0.478904
C187	C	0.677910	0.880404	-0.187773
C188	C	1.011244	1.213737	0.145561
C189	C	1.344577	1.547070	0.478894
O190	O	0.702380	0.904659	-0.163378
O191	O	1.035713	1.237993	0.169955
O192	O	1.369047	1.571326	0.503288
N193	N	0.649164	0.903883	-0.216475
N194	N	0.982497	1.237216	0.116858
N195	N	1.315830	1.570550	0.450192
C196	C	0.620406	0.880441	-0.245179
C197	C	0.953739	1.213774	0.088155
C198	C	1.287073	1.547108	0.421488
O199	O	0.595960	0.904718	-0.269595
O200	O	0.929293	1.238051	0.063738
O201	O	1.262626	1.571385	0.397071
C202	C	0.620366	0.692769	-0.245171
C203	C	0.953699	1.026102	0.088163
C204	C	1.287033	1.359436	0.421496
C205	C	0.649111	0.669292	-0.216463
C206	C	0.982445	1.002625	0.116870
C207	C	1.315778	1.335959	0.450204
C208	C	0.706611	0.669254	-0.159058
C209	C	1.039944	1.002587	0.174276
C210	C	1.373277	1.335920	0.507609
C211	C	0.706598	0.622338	-0.159054
C212	C	1.039931	0.955671	0.174280
C213	C	1.373265	1.289005	0.507613
C214	C	0.677842	0.598900	-0.187754
C215	C	1.011175	0.932233	0.145579
C216	C	1.344509	1.265566	0.478912
C217	C	0.649098	0.622377	-0.216459
C218	C	0.982432	0.955710	0.116874
C219	C	1.315765	1.289043	0.450208
C220	C	0.591611	0.669328	-0.273876
C221	C	0.924944	1.002661	0.059457
C222	C	1.258278	1.335995	0.392790
C223	C	0.591604	0.622407	-0.273873
C224	C	0.924938	0.955740	0.059461
C225	C	1.258271	1.289074	0.392794
C226	C	0.620350	0.598930	-0.245165
C227	C	0.953683	0.932263	0.088168
C228	C	1.287016	1.265597	0.421501
C229	C	0.620330	0.552023	-0.245156
C230	C	0.953663	0.885356	0.088177
C231	C	1.286996	1.218689	0.421511
N232	N	0.649076	0.528543	-0.216454
N233	N	0.982410	0.861877	0.116880
N234	N	1.315743	1.195210	0.450213
C235	C	0.677832	0.551982	-0.187753
C236	C	1.011166	0.885315	0.145581
C237	C	1.344499	1.218648	0.478914
C238	C	0.620429	0.978972	-0.245180
C239	C	0.953762	1.312305	0.088153
C240	C	1.287095	1.645638	0.421486
C241	C	0.620438	1.025890	-0.245182
C242	C	0.953771	1.359223	0.088151
C243	C	1.287105	1.692556	0.421485
C244	C	0.677943	1.025849	-0.187776
C245	C	1.011276	1.359182	0.145557
C246	C	1.344610	1.692515	0.478890
C247	C	0.677931	0.978930	-0.187773
C248	C	1.011264	1.312263	0.145561
C249	C	1.344598	1.645597	0.478894
C250	C	0.649175	0.955492	-0.216478
C251	C	0.982509	1.288826	0.116855
C252	C	1.315842	1.622159	0.450189
C253	C	0.677803	0.453456	-0.187746
C254	C	1.011137	0.786789	0.145587
C255	C	1.344470	1.120123	0.478920
C256	C	0.677787	0.406536	-0.187744
C257	C	1.011120	0.739870	0.145590
C258	C	1.344453	1.073203	0.478923
C259	C	0.620284	0.406581	-0.245151
C260	C	0.953617	0.739915	0.088182
C261	C	1.286950	1.073248	0.421516
C262	C	0.620298	0.453497	-0.245152
C263	C	0.953632	0.786830	0.088181
C264	C	1.286965	1.120163	0.421515
C265	C	0.649062	0.476933	-0.216448
C266	C	0.982395	0.810266	0.116885
C267	C	1.315729	1.143600	0.450218
O268	O	0.595876	0.527738	-0.269541
O269	O	0.929210	0.861071	0.063792
O270	O	1.262543	1.194405	0.397126
O271	O	0.702282	0.527697	-0.163347
O272	O	1.035616	0.861030	0.169986
O273	O	1.368949	1.194363	0.503320
C274	C	0.677880	0.739646	-0.187766
C275	C	1.011213	1.072979	0.145567
C276	C	1.344547	1.406313	0.478900
C277	C	0.649137	0.763123	-0.216471
C278	C	0.982470	1.096456	0.116862
C279	C	1.315803	1.429790	0.450196
C280	C	0.620381	0.739684	-0.245172
C281	C	0.953714	1.073018	0.088161
C282	C	1.287047	1.406351	0.421495
C283	C	0.649146	0.810041	-0.216473
C284	C	0.982479	1.143374	0.116861
C285	C	1.315813	1.476707	0.450194
C286	C	0.677902	0.833479	-0.187772
C287	C	1.011236	1.166813	0.145561
C288	C	1.344569	1.500146	0.478895
C289	C	0.706649	0.810000	-0.159070
C290	C	1.039982	1.143333	0.174264
C291	C	1.373316	1.476667	0.507597
C292	C	0.706636	0.763084	-0.159066
C293	C	1.039969	1.096418	0.174268
C294	C	1.373303	1.429751	0.507601
C295	C	0.591634	0.763164	-0.273874
C296	C	0.924967	1.096497	0.059459
C297	C	1.258301	1.429830	0.392792
C298	C	0.591649	0.810079	-0.273875
C299	C	0.924982	1.143413	0.059458
C300	C	1.258315	1.476746	0.392791
C301	C	0.620405	0.833518	-0.245175
C302	C	0.953738	1.166851	0.088159
C303	C	1.287071	1.500184	0.421492
C304	C	0.766295	0.216445	-0.216487
C305	C	1.099628	0.549778	0.116846
C306	C	1.432961	0.883111	0.450180
C307	C	0.816229	0.216446	-0.216495
C308	C	1.149563	0.549780	0.116838
C309	C	1.482896	0.883113	0.450171
C310	C	0.649129	0.216437	-0.333646
C311	C	0.982462	0.549770	-0.000313
C312	C	1.315795	0.883103	0.333021
C313	C	0.649134	0.216435	-0.383580
C314	C	0.982467	0.549768	-0.050247
C315	C	1.315800	0.883102	0.283086
C316	C	0.649201	1.099262	-0.216495
C317	C	0.982534	1.432596	0.116839
C318	C	1.315868	1.765929	0.450172
C319	C	0.649194	1.049328	-0.216481
C320	C	0.982528	1.382661	0.116852
C321	C	1.315861	1.715995	0.450185
C322	C	0.677923	0.187627	-0.693241
C323	C	1.011256	0.520961	-0.359907
C324	C	1.344589	0.854294	-0.026574
C325	C	0.677945	0.187589	-0.880914
C326	C	1.011278	0.520922	-0.547581
C327	C	1.344611	0.854256	-0.214247
O328	O	0.702389	0.163138	-0.905193
O329	O	1.035722	0.496471	-0.571860
O330	O	1.369055	0.829805	-0.238526
N331	N	0.649193	0.216315	-0.904366
N332	N	0.982527	0.549648	-0.571032
N333	N	1.315860	0.882981	-0.237699
C334	C	0.620432	0.245050	-0.880896
C335	C	0.953766	0.578383	-0.547563
C336	C	1.287099	0.911717	-0.214230
O337	O	0.595975	0.269479	-0.905150
O338	O	0.929308	0.602812	-0.571817
O339	O	1.262641	0.936146	-0.238483
C340	C	0.620408	0.245086	-0.693224
C341	C	0.953741	0.578419	-0.359891
C342	C	1.287075	0.911753	-0.026557
C343	C	0.649165	0.216361	-0.669775
C344	C	0.982498	0.549695	-0.336441
C345	C	1.315831	0.883028	-0.003108
C346	C	0.706676	0.158905	-0.669791
C347	C	1.040010	0.492238	-0.336458
C348	C	1.373343	0.825571	-0.003125
C349	C	0.706672	0.158916	-0.622876
C350	C	1.040006	0.492250	-0.289542
C351	C	1.373339	0.825583	0.043791
C352	C	0.677914	0.187650	-0.599410
C353	C	1.011248	0.520984	-0.266076
C354	C	1.344581	0.854317	0.067257
C355	C	0.649160	0.216373	-0.622859
C356	C	0.982494	0.549706	-0.289526
C357	C	1.315827	0.883040	0.043807
C358	C	0.591645	0.273819	-0.669756
C359	C	0.924978	0.607152	-0.336422
C360	C	1.258312	0.940485	-0.003089
C361	C	0.591641	0.273824	-0.622835
C362	C	0.924974	0.607158	-0.289501
C363	C	1.258307	0.940491	0.043832
C364	C	0.620397	0.245100	-0.599385
C365	C	0.953731	0.578433	-0.266052
C366	C	1.287064	0.911766	0.067281
C367	C	0.620398	0.245119	-0.552478
C368	C	0.953732	0.578452	-0.219144
C369	C	1.287065	0.911785	0.114189
N370	N	0.649150	0.216393	-0.529026
N371	N	0.982483	0.549726	-0.195693
N372	N	1.315816	0.883059	0.137641
C373	C	0.677908	0.187659	-0.552492
C374	C	1.011241	0.520992	-0.219159
C375	C	1.344574	0.854325	0.114175
C376	C	0.620448	0.245030	-0.979427
C377	C	0.953781	0.578363	-0.646094
C378	C	1.287114	0.911697	-0.312760
C379	C	0.620454	0.245022	-1.026345
C380	C	0.953788	0.578355	-0.693012
C381	C	1.287121	0.911688	-0.359678
C382	C	0.677966	0.187560	-1.026359
C383	C	1.011300	0.520893	-0.693026
C384	C	1.344633	0.854226	-0.359692
C385	C	0.677962	0.187571	-0.979440
C386	C	1.011295	0.520904	-0.646107
C387	C	1.344628	0.854237	-0.312774
C388	C	0.649199	0.216304	-0.955975
C389	C	0.982532	0.549637	-0.622642
C390	C	1.315866	0.882971	-0.289309
C391	C	0.677897	0.187685	-0.453966
C392	C	1.011230	0.521019	-0.120633
C393	C	1.344564	0.854352	0.212701
C394	C	0.677892	0.187701	-0.407046
C395	C	1.011225	0.521034	-0.073713
C396	C	1.344558	0.854368	0.259620
C397	C	0.620378	0.245161	-0.407036
C398	C	0.953712	0.578494	-0.073703
C399	C	1.287045	0.911828	0.259630
C400	C	0.620385	0.245147	-0.453952
C401	C	0.953718	0.578481	-0.120618
C402	C	1.287052	0.911814	0.212715
C403	C	0.649146	0.216406	-0.477416
C404	C	0.982479	0.549739	-0.144082
C405	C	1.315813	0.883073	0.189251
O406	O	0.595964	0.269553	-0.528170
O407	O	0.929297	0.602887	-0.194836
O408	O	1.262631	0.936220	0.138497
O409	O	0.702355	0.163226	-0.528230
O410	O	1.035688	0.496560	-0.194897
O411	O	1.369021	0.829893	0.138436
C412	C	0.677927	0.187616	-0.740156
C413	C	1.011260	0.520949	-0.406823
C414	C	1.344593	0.854282	-0.073490
C415	C	0.649173	0.216338	-0.763606
C416	C	0.982506	0.549671	-0.430272
C417	C	1.315840	0.883005	-0.096939
C418	C	0.620415	0.245072	-0.740140
C419	C	0.953748	0.578406	-0.406806
C420	C	1.287082	0.911739	-0.073473
C421	C	0.649179	0.216330	-0.810524
C422	C	0.982513	0.549663	-0.477190
C423	C	1.315846	0.882997	-0.143857
C424	C	0.677937	0.187596	-0.833990
C425	C	1.011271	0.520929	-0.500656
C426	C	1.344604	0.854262	-0.167323
C427	C	0.706689	0.158870	-0.810538
C428	C	1.040022	0.492203	-0.477204
C429	C	1.373355	0.825536	-0.143871
C430	C	0.706685	0.158881	-0.763622
C431	C	1.040018	0.492215	-0.430289
C432	C	1.373351	0.825548	-0.096956
C433	C	0.591664	0.273798	-0.763592
C434	C	0.924997	0.607131	-0.430258
C435	C	1.258330	0.940465	-0.096925
C436	C	0.591670	0.273785	-0.810507
C437	C	0.925004	0.607118	-0.477174
C438	C	1.258337	0.940451	-0.143840
C439	C	0.620428	0.245050	-0.833973
C440	C	0.953762	0.578384	-0.500640
C441	C	1.287095	0.911717	-0.167306
C442	C	0.649130	0.216412	-0.099745
C443	C	0.982464	0.549746	0.233588
C444	C	1.315797	0.883079	0.566922
C445	C	0.649212	0.216288	-0.049811
C446	C	0.982545	0.549621	0.283522
C447	C	1.315879	0.882954	0.616856
H448	H	0.392919	0.268496	-0.164235
H449	H	0.726252	0.601830	0.169098
H450	H	1.059586	0.935163	0.502432
O451	O	0.125046	0.301719	-0.130927
O452	O	0.458380	0.635053	0.202406
O453	O	0.791713	0.968386	0.535739
C454	C	0.094244	0.327028	-0.105520
C455	C	0.427578	0.660362	0.227814
C456	C	0.760911	0.993695	0.561147
H457	H	0.060805	0.328605	-0.123922
H458	H	0.394139	0.661939	0.209411
H459	H	0.727472	0.995272	0.542744
H460	H	0.107763	0.362420	-0.100662
H461	H	0.441097	0.695753	0.232672
H462	H	0.774430	1.029086	0.566005
H463	H	0.089257	0.310527	-0.071430
H464	H	0.422591	0.643860	0.261903
H465	H	0.755924	0.977193	0.595237
H466	H	0.701226	0.472532	-0.164374
H467	H	1.034559	0.805865	0.168959
H468	H	1.367893	1.139199	0.502293
O469	O	0.734559	0.130908	-0.833357
O470	O	1.067893	0.464241	-0.500023
O471	O	1.401226	0.797574	-0.166690
C472	C	0.709004	0.101896	-0.860502
C473	C	1.042337	0.435230	-0.527169
C474	C	1.375671	0.768563	-0.193836
H475	H	0.673624	0.099126	-0.846353
H476	H	1.006957	0.432459	-0.513020
H477	H	1.340290	0.765792	-0.179686
H478	H	0.725279	0.067322	-0.861047
H479	H	1.058613	0.400655	-0.527714
H480	H	1.391946	0.733989	-0.194380
H481	H	0.707445	0.115782	-0.896057
H482	H	1.040778	0.449115	-0.562724
H483	H	1.374111	0.782448	-0.229391
O484	O	0.563692	0.301660	-0.692580
O485	O	0.897025	0.634994	-0.359246
O486	O	1.230359	0.968327	-0.025913
C487	C	0.534692	0.276080	-0.719712
C488	C	0.868026	0.609413	-0.386378
C489	C	1.201359	0.942746	-0.053045
H490	H	0.550566	0.242033	-0.726751
H491	H	0.883899	0.575366	-0.393418
H492	H	1.217233	0.908700	-0.060084
H493	H	0.528660	0.294375	-0.752699
H494	H	0.861993	0.627708	-0.419366
H495	H	1.195326	0.961042	-0.086032
H496	H	0.501402	0.271146	-0.701625
H497	H	0.834735	0.604479	-0.368292
H498	H	1.168069	0.937812	-0.034958
H499	H	0.730101	0.135491	-0.744534
H500	H	1.063434	0.468824	-0.411200
H501	H	1.396768	0.802157	-0.077867
O502	O	0.563786	0.832931	-0.301787
O503	O	0.897119	1.166264	0.031546
O504	O	1.230452	1.499597	0.364880
C505	C	0.589353	0.860017	-0.330839
C506	C	0.922686	1.193351	0.002495
C507	C	1.256020	1.526684	0.335828
H508	H	0.623409	0.867019	-0.315025
H509	H	0.956743	1.200353	0.018309
H510	H	1.290076	1.533686	0.351642
H511	H	0.571058	0.893026	-0.336852
H512	H	0.904391	1.226359	-0.003519
H513	H	1.237724	1.559692	0.329815
H514	H	0.594266	0.841910	-0.364131
H515	H	0.927599	1.175244	-0.030798
H516	H	1.260933	1.508577	0.302536
O517	O	0.734569	0.599605	-0.131157
O518	O	1.067902	0.932939	0.202176
O519	O	1.401235	1.266272	0.535509
C520	C	0.759942	0.630362	-0.105824
C521	C	1.093275	0.963695	0.227510
C522	C	1.426609	1.297028	0.560843
H523	H	0.761484	0.663796	-0.124231
H524	H	1.094817	0.997130	0.209103
H525	H	1.428150	1.330463	0.542436
H526	H	0.795342	0.616777	-0.101069
H527	H	1.128675	0.950110	0.232264
H528	H	1.462008	1.283443	0.565598
H529	H	0.743520	0.635382	-0.071686
H530	H	1.076853	0.968716	0.261647
H531	H	1.410186	1.302049	0.594981
O532	O	0.734498	0.692081	-0.131179
O533	O	1.067831	1.025415	0.202155
O534	O	1.401165	1.358748	0.535488
C535	C	0.708970	0.719268	-0.102126
C536	C	1.042304	1.052601	0.231207
C537	C	1.375637	1.385935	0.564540
H538	H	0.674903	0.726319	-0.117915
H539	H	1.008236	1.059653	0.215418
H540	H	1.341570	1.392986	0.548751
H541	H	0.727287	0.752246	-0.096158
H542	H	1.060621	1.085580	0.237175
H543	H	1.393954	1.418913	0.570509
H544	H	0.704079	0.701223	-0.068814
H545	H	1.037413	1.034557	0.264519
H546	H	1.370746	1.367890	0.597853
H547	H	0.478160	0.164399	-0.268679
H548	H	0.811493	0.497733	0.064654
H549	H	1.144826	0.831066	0.397988
O550	O	0.389437	0.159871	-0.273248
O551	O	0.722771	0.493204	0.060085
O552	O	1.056104	0.826538	0.393418
C553	C	0.420240	0.134549	-0.298643
C554	C	0.753573	0.467882	0.034691
C555	C	1.086906	0.801216	0.368024
H556	H	0.453668	0.152956	-0.300155
H557	H	0.787001	0.486290	0.033178
H558	H	1.120335	0.819623	0.366511
H559	H	0.406705	0.129813	-0.334051
H560	H	0.740038	0.463146	-0.000718
H561	H	1.073372	0.796479	0.332616
H562	H	0.425254	0.100403	-0.282257
H563	H	0.758587	0.433736	0.051076
H564	H	1.091921	0.767070	0.384409
H565	H	0.597011	0.959892	-0.268556
H566	H	0.930345	1.293225	0.064777
H567	H	1.263678	1.626559	0.398110
O568	O	0.563718	0.740449	-0.301816
O569	O	0.897051	1.073783	0.031517
O570	O	1.230385	1.407116	0.364851
C571	C	0.573511	0.751878	-0.346603
C572	C	0.906845	1.085211	-0.013269
C573	C	1.240178	1.418545	0.320064
H574	H	0.590796	0.785921	-0.347553
H575	H	0.924129	1.119254	-0.014219
H576	H	1.257462	1.452588	0.319114
H577	H	0.541072	0.753518	-0.366711
H578	H	0.874406	1.086851	-0.033378
H579	H	1.207739	1.420184	0.299955
H580	H	0.596584	0.725437	-0.361760
H581	H	0.929918	1.058771	-0.028426
H582	H	1.263251	1.392104	0.304907
O583	O	0.705898	0.956196	-0.159874
O584	O	1.039231	1.289529	0.173459
O585	O	1.372564	1.622863	0.506793
C586	C	0.731268	0.986950	-0.134535
C587	C	1.064602	1.320283	0.198799
C588	C	1.397935	1.653617	0.532132
H589	H	0.732815	1.020385	-0.152941
H590	H	1.066148	1.353718	0.180393
H591	H	1.399482	1.687052	0.513726
H592	H	0.766666	0.973363	-0.129774
H593	H	1.100000	1.306696	0.203559
H594	H	1.433333	1.640030	0.536892
H595	H	0.714840	0.991971	-0.100400
H596	H	1.048173	1.325304	0.232934
H597	H	1.381507	1.658637	0.566267
H598	H	0.701316	0.164280	-0.473065
H599	H	1.034649	0.497613	-0.139731
H600	H	1.367982	0.830947	0.193602
H601	H	0.478042	0.268492	-0.164230
H602	H	0.811376	0.601825	0.169103
H603	H	1.144709	0.935158	0.502437
O604	O	0.705907	0.159623	-0.956733
O605	O	1.039241	0.492956	-0.623400
O606	O	1.372574	0.826290	-0.290066
C607	C	0.731298	0.134272	-0.987512
C608	C	1.064632	0.467605	-0.654178
C609	C	1.397965	0.800938	-0.320845
H610	H	0.712901	0.132713	-1.020953
H611	H	1.046235	0.466047	-0.687620
H612	H	1.379568	0.799380	-0.354287
H613	H	0.736120	0.098876	-0.973966
H614	H	1.069454	0.432210	-0.640633
H615	H	1.402787	0.765543	-0.307300
H616	H	0.765404	0.150724	-0.992503
H617	H	1.098738	0.484057	-0.659169
H618	H	1.432071	0.817391	-0.325836
H619	H	0.036505	0.135705	-0.297481
H620	H	0.369839	0.469038	0.035852
H621	H	0.703172	0.802372	0.369186
O622	O	0.563715	0.301630	-0.833334
O623	O	0.897049	0.634963	-0.500001
O624	O	1.230382	0.968296	-0.166667
C625	C	0.534715	0.276045	-0.860462
C626	C	0.868048	0.609378	-0.527128
C627	C	1.201382	0.942712	-0.193795
H628	H	0.550590	0.241998	-0.867499
H629	H	0.883923	0.575332	-0.534166
H630	H	1.217257	0.908665	-0.200832
H631	H	0.528680	0.294337	-0.893451
H632	H	0.862013	0.627670	-0.560117
H633	H	1.195346	0.961004	-0.226784
H634	H	0.501426	0.271111	-0.842373
H635	H	0.834759	0.604445	-0.509040
H636	H	1.168093	0.937778	-0.175706
O637	O	0.592418	0.383786	-0.273078
O638	O	0.925751	0.717120	0.060255
O639	O	1.259085	1.050453	0.393588
C640	C	0.617977	0.356601	-0.302104
C641	C	0.951311	0.689934	0.031230
C642	C	1.284644	1.023268	0.364563
H643	H	0.653360	0.370707	-0.304911
H644	H	0.986693	0.704041	0.028423
H645	H	1.320026	1.037374	0.361756
H646	H	0.601710	0.356065	-0.336664
H647	H	0.935043	0.689398	-0.003330
H648	H	1.268376	1.022731	0.330003
H649	H	0.619531	0.321049	-0.288208
H650	H	0.952864	0.654382	0.045125
H651	H	1.286197	0.987715	0.378459
O652	O	0.592437	0.273121	-0.384306
O653	O	0.925770	0.606455	-0.050973
O654	O	1.259103	0.939788	0.282360
C655	C	0.567051	0.298469	-0.415060
C656	C	0.900384	0.631803	-0.081727
C657	C	1.233717	0.965136	0.251606
H658	H	0.585447	0.300014	-0.448512
H659	H	0.918781	0.633347	-0.115178
H660	H	1.252114	0.966681	0.218155
H661	H	0.562236	0.333870	-0.401498
H662	H	0.895570	0.667203	-0.068165
H663	H	1.228903	1.000536	0.265168
H664	H	0.532941	0.282023	-0.420039
H665	H	0.866274	0.615356	-0.086706
H666	H	1.199608	0.948689	0.246627
O667	O	0.563712	0.301754	-0.740870
O668	O	0.897045	0.635087	-0.407537
O669	O	1.230378	0.968421	-0.074203
C670	C	0.538330	0.327093	-0.771635
C671	C	0.871663	0.660426	-0.438302
C672	C	1.204997	0.993760	-0.104968
H673	H	0.556737	0.328637	-0.805081
H674	H	0.890070	0.661971	-0.471748
H675	H	1.223403	0.995304	-0.138414
H676	H	0.533504	0.362494	-0.758079
H677	H	0.866838	0.695827	-0.424745
H678	H	1.200171	1.029160	-0.091412
H679	H	0.504225	0.310639	-0.776623
H680	H	0.837559	0.643972	-0.443289
H681	H	1.170892	0.977305	-0.109956
H682	H	0.262370	0.135705	-0.297474
H683	H	0.595703	0.469039	0.035859
H684	H	0.929037	0.802372	0.369192
H685	H	0.701357	1.044940	-0.164407
H686	H	1.034691	1.378274	0.168926
H687	H	1.368024	1.711607	0.502260
O688	O	0.734604	0.740352	-0.131167
O689	O	1.067937	1.073685	0.202167
O690	O	1.401271	1.407018	0.535500
C691	C	0.759976	0.771108	-0.105831
C692	C	1.093309	1.104441	0.227502
C693	C	1.426643	1.437775	0.560835
H694	H	0.761521	0.804542	-0.124240
H695	H	1.094855	1.137875	0.209093
H696	H	1.428188	1.471208	0.542427
H697	H	0.795374	0.757521	-0.101072
H698	H	1.128708	1.090855	0.232261
H699	H	1.462041	1.424188	0.565595
H700	H	0.743550	0.776131	-0.071696
H701	H	1.076883	1.109464	0.261638
H702	H	1.410217	1.442798	0.594971
O703	O	0.705841	0.159753	-0.384338
O704	O	1.039174	0.493086	-0.051004
O705	O	1.372507	0.826420	0.282329
C706	C	0.731230	0.134397	-0.415114
C707	C	1.064563	0.467730	-0.081781
C708	C	1.397896	0.801064	0.251553
H709	H	0.712831	0.132835	-0.448555
H710	H	1.046164	0.466168	-0.115222
H711	H	1.379498	0.799501	0.218112
H712	H	0.736052	0.099004	-0.401565
H713	H	1.069385	0.432337	-0.068231
H714	H	1.402718	0.765670	0.265102
H715	H	0.765336	0.150848	-0.420109
H716	H	1.098669	0.484182	-0.086776
H717	H	1.432002	0.817515	0.246557
O718	O	0.125248	0.131151	-0.302015
O719	O	0.458581	0.464484	0.031318
O720	O	0.791914	0.797818	0.364651
C721	C	0.094504	0.105843	-0.327427
C722	C	0.427837	0.439176	0.005907
C723	C	0.761171	0.772510	0.339240
H724	H	0.061056	0.104265	-0.309027
H725	H	0.394390	0.437598	0.024307
H726	H	0.727723	0.770931	0.357640
H727	H	0.108085	0.070452	-0.332285
H728	H	0.441419	0.403785	0.001048
H729	H	0.774752	0.737119	0.334382
H730	H	0.089510	0.122346	-0.361516
H731	H	0.422844	0.455680	-0.028182
H732	H	0.756177	0.789013	0.305151
H733	H	0.597027	1.045000	-0.268554
H734	H	0.930360	1.378334	0.064779
H735	H	1.263693	1.711667	0.398112
O736	O	0.032614	0.301723	-0.131008
O737	O	0.365947	0.635057	0.202325
O738	O	0.699280	0.968390	0.535658
C739	C	0.005447	0.330774	-0.156526
C740	C	0.338781	0.664108	0.176808
C741	C	0.672114	0.997441	0.510141
H742	H	0.019590	0.333606	-0.191905
H743	H	0.352923	0.666939	0.141429
H744	H	0.686257	1.000272	0.474762
H745	H	0.004885	0.365322	-0.140210
H746	H	0.338219	0.698655	0.193124
H747	H	0.671552	1.031989	0.526457
H748	H	-0.030100	0.316888	-0.158096
H749	H	0.303234	0.650222	0.175237
H750	H	0.636567	0.983555	0.508570
H751	H	0.177265	0.135702	-0.297477
H752	H	0.510598	0.469036	0.035857
H753	H	0.843932	0.802369	0.369190
H754	H	0.701195	0.387423	-0.164365
H755	H	1.034528	0.720756	0.168968
H756	H	1.367861	1.054090	0.502302
H757	H	0.597043	0.268417	-1.045434
H758	H	0.930376	0.601750	-0.712100
H759	H	1.263709	0.935084	-0.378767
O760	O	-0.090611	0.159846	-0.273253
O761	O	0.242723	0.493180	0.060081
O762	O	0.576056	0.826513	0.393414
C763	C	-0.121352	0.134540	-0.298668
C764	C	0.211981	0.467873	0.034665
C765	C	0.545314	0.801206	0.367999
H766	H	-0.154801	0.132960	-0.280271
H767	H	0.178532	0.466294	0.053063
H768	H	0.511865	0.799627	0.386396
H769	H	-0.107770	0.099149	-0.303528
H770	H	0.225563	0.432482	0.029806
H771	H	0.558896	0.765816	0.363139
H772	H	-0.126344	0.151045	-0.332757
H773	H	0.206990	0.484379	0.000577
H774	H	0.540323	0.817712	0.333910
O775	O	0.173440	0.301736	-0.130946
O776	O	0.506773	0.635069	0.202388
O777	O	0.840107	0.968402	0.535721
C778	C	0.184867	0.346526	-0.140682
C779	C	0.518200	0.679860	0.192651
C780	C	0.851534	1.013193	0.525984
H781	H	0.218934	0.347481	-0.157956
H782	H	0.552267	0.680815	0.175377
H783	H	0.885600	1.014148	0.508710
H784	H	0.186455	0.366616	-0.108219
H785	H	0.519789	0.699949	0.225114
H786	H	0.853122	1.033283	0.558448
H787	H	0.158453	0.361701	-0.163744
H788	H	0.491786	0.695034	0.169589
H789	H	0.825120	1.028368	0.502922
H790	H	0.730088	0.135525	-0.603787
H791	H	1.063421	0.468858	-0.270454
H792	H	1.396755	0.802192	0.062879
O793	O	0.563675	0.692057	-0.301807
O794	O	0.897008	1.025390	0.031526
O795	O	1.230341	1.358723	0.364859
C796	C	0.538290	0.661299	-0.327129
C797	C	0.871624	0.994632	0.006204
C798	C	1.204957	1.327966	0.339538
H799	H	0.556687	0.627836	-0.328692
H800	H	0.890020	0.961169	0.004641
H801	H	1.223354	1.294503	0.337974
H802	H	0.533479	0.674839	-0.362524
H803	H	0.866812	1.008172	-0.029191
H804	H	1.200145	1.341506	0.304142
H805	H	0.504180	0.656351	-0.310647
H806	H	0.837513	0.989684	0.022686
H807	H	1.170846	1.323018	0.356020
O808	O	0.563734	0.599619	-0.301805
O809	O	0.897068	0.932953	0.031528
O810	O	1.230401	1.266286	0.364862
C811	C	0.589285	0.572432	-0.330836
C812	C	0.922618	0.905765	0.002497
C813	C	1.255951	1.239098	0.335831
H814	H	0.624670	0.586530	-0.333644
H815	H	0.958003	0.919863	-0.000311
H816	H	1.291337	1.253197	0.333022
H817	H	0.573014	0.571903	-0.365394
H818	H	0.906347	0.905237	-0.032061
H819	H	1.239680	1.238570	0.301272
H820	H	0.590831	0.536877	-0.316945
H821	H	0.924165	0.870211	0.016388
H822	H	1.257498	1.203544	0.349721
H823	H	0.730062	0.829092	-0.135699
H824	H	1.063395	1.162425	0.197634
H825	H	1.396729	1.495758	0.530968
H826	H	0.730095	0.135503	-0.688892
H827	H	1.063428	0.468837	-0.355559
H828	H	1.396761	0.802170	-0.022226
O829	O	-0.183085	0.159950	-0.273263
O830	O	0.150248	0.493284	0.060070
O831	O	0.483582	0.826617	0.393404
C832	C	-0.210227	0.185571	-0.302242
C833	C	0.123106	0.518905	0.031092
C834	C	0.456439	0.852238	0.364425
H835	H	-0.217284	0.219596	-0.286338
H836	H	0.116049	0.552929	0.046995
H837	H	0.449382	0.886263	0.380329
H838	H	-0.243205	0.167284	-0.308293
H839	H	0.090128	0.500618	0.025041
H840	H	0.423461	0.833951	0.358374
H841	H	-0.192141	0.190551	-0.335526
H842	H	0.141192	0.523884	-0.002193
H843	H	0.474526	0.857218	0.331140
O844	O	0.592554	0.273010	-0.956658
O845	O	0.925887	0.606343	-0.623324
O846	O	1.259221	0.939676	-0.289991
C847	C	0.602330	0.317781	-0.968130
C848	C	0.935663	0.651114	-0.634796
C849	C	1.268996	0.984448	-0.301463
H850	H	0.638222	0.320046	-0.981025
H851	H	0.971555	0.653380	-0.647692
H852	H	1.304888	0.986713	-0.314359
H853	H	0.598431	0.339986	-0.937274
H854	H	0.931764	0.673319	-0.603941
H855	H	1.265097	1.006653	-0.270608
H856	H	0.578242	0.329514	-0.995364
H857	H	0.911575	0.662848	-0.662031
H858	H	1.244909	0.996181	-0.328698
O859	O	-0.183094	0.273017	-0.159708
O860	O	0.150240	0.606350	0.173625
O861	O	0.483573	0.939684	0.506958
C862	C	-0.152352	0.298341	-0.134311
C863	C	0.180981	0.631674	0.199023
C864	C	0.514315	0.965008	0.532356
H865	H	-0.118894	0.279934	-0.132790
H866	H	0.214439	0.613267	0.200543
H867	H	0.547772	0.946601	0.533877
H868	H	-0.165921	0.303081	-0.098905
H869	H	0.167413	0.636414	0.234428
H870	H	0.500746	0.969747	0.567761
H871	H	-0.147382	0.332486	-0.150698
H872	H	0.185951	0.665819	0.182635
H873	H	0.519284	0.999152	0.515969
H874	H	0.596893	0.472613	-0.268529
H875	H	0.930226	0.805946	0.064804
H876	H	1.263560	1.139279	0.398137
O877	O	0.265925	0.301693	-0.130985
O878	O	0.599258	0.635026	0.202349
O879	O	0.932591	0.968360	0.535682
C880	C	0.293038	0.330758	-0.156505
C881	C	0.626372	0.664091	0.176828
C882	C	0.959705	0.997425	0.510161
H883	H	0.300093	0.314967	-0.190581
H884	H	0.633426	0.648300	0.142753
H885	H	0.966760	0.981633	0.476086
H886	H	0.326019	0.336752	-0.138192
H887	H	0.659353	0.670086	0.195141
H888	H	0.992686	1.003419	0.528474
H889	H	0.274928	0.364057	-0.161380
H890	H	0.608262	0.697391	0.171954
H891	H	0.941595	1.030724	0.505287
O892	O	0.705856	0.159657	-1.049228
O893	O	1.039189	0.492991	-0.715894
O894	O	1.372523	0.826324	-0.382561
C895	C	0.699698	0.165820	-1.095666
C896	C	1.033032	0.499153	-0.762332
C897	C	1.366365	0.832487	-0.428999
H898	H	0.665019	0.180540	-1.102060
H899	H	0.998352	0.513873	-0.768727
H900	H	1.331685	0.847207	-0.435394
H901	H	0.702765	0.132166	-1.113505
H902	H	1.036099	0.465499	-0.780172
H903	H	1.369432	0.798832	-0.446838
H904	H	0.726331	0.189736	-1.108983
H905	H	1.059664	0.523069	-0.775650
H906	H	1.392997	0.856403	-0.442317
H907	H	-0.094361	0.268491	-0.164260
H908	H	0.238972	0.601825	0.169073
H909	H	0.572305	0.935158	0.502406
H910	H	0.568213	0.297218	-0.603732
H911	H	0.901547	0.630552	-0.270398
H912	H	1.234880	0.963885	0.062935
O913	O	0.592430	0.272989	-0.476781
O914	O	0.925763	0.606322	-0.143448
O915	O	1.259097	0.939655	0.189886
C916	C	0.563428	0.247400	-0.503903
C917	C	0.896762	0.580733	-0.170570
C918	C	1.230095	0.914066	0.162763
H919	H	0.579305	0.213354	-0.510941
H920	H	0.912639	0.546687	-0.177607
H921	H	1.245972	0.880021	0.155726
H922	H	0.557387	0.265689	-0.536893
H923	H	0.890721	0.599023	-0.203559
H924	H	1.224054	0.932356	0.129774
H925	H	0.530142	0.242464	-0.485810
H926	H	0.863476	0.575797	-0.152477
H927	H	1.196809	0.909131	0.180857
