data_functionalizedCrystal
_audit_creation_method	'MofGen! by Chris Wilmer'
_symmetry_space_group_name_H-M	'P1'
_symmetry_Int_Tables_number	1
_symmetry_cell_setting	triclinic
loop_
_symmetry_equiv_pos_as_xyz
  x,y,z
_cell_length_a	18.215407
_cell_length_b	17.640280
_cell_length_c	18.215399
_cell_angle_alpha	78.775397
_cell_angle_beta	89.980167
_cell_angle_gamma	78.800709
loop_
_atom_site_label
_atom_site_type_symbol
_atom_site_fract_x
_atom_site_fract_y
_atom_site_fract_z
Zn1	Zn	1.184366	-0.314661	-0.356963
Zn2	Zn	1.209181	-0.446838	-0.209048
Zn3	Zn	1.061303	-0.314687	-0.233905
Zn4	Zn	1.086163	-0.446794	-0.332082
O5	O	1.135253	-0.380745	-0.282999
O6	O	1.290643	-0.332202	-0.337352
O7	O	1.189546	-0.429337	-0.109356
O8	O	1.056838	-0.204079	-0.271045
O9	O	1.308875	-0.429312	-0.228680
O10	O	1.147252	-0.204060	-0.361454
O11	O	1.080901	-0.332246	-0.127618
O12	O	0.961615	-0.332203	-0.246918
O13	O	1.099208	-0.429237	-0.438372
O14	O	0.979879	-0.429262	-0.319048
O15	O	1.171357	-0.332159	-0.456652
O16	O	1.213652	-0.557436	-0.204553
O17	O	1.123271	-0.557404	-0.294945
C18	C	0.944044	-0.380731	-0.282981
C19	C	0.862248	-0.380745	-0.282987
C20	C	0.683598	-0.431363	-0.320471
C21	C	0.606740	-0.431365	-0.320479
C22	C	0.587662	-0.330142	-0.245542
C23	C	0.664519	-0.330136	-0.245538
C24	C	0.712485	-0.380751	-0.283000
C25	C	0.558771	-0.380759	-0.283013
C26	C	0.475438	-0.380761	-0.283022
C27	C	0.795824	-0.380748	-0.282993
C28	C	1.173871	-0.586099	-0.244368
C29	C	1.190460	-0.673950	-0.227866
C30	C	1.009534	-0.962935	-0.408631
C31	C	1.025123	-1.045484	-0.393101
C32	C	1.119295	-1.045452	-0.299071
C33	C	1.103717	-0.962901	-0.314596
C34	C	1.048835	-0.921649	-0.369375
C35	C	1.143018	-0.921615	-0.275340
C36	C	1.127438	-0.839071	-0.290861
C37	C	1.072557	-0.797813	-0.345636
C38	C	1.033255	-0.839105	-0.384896
C39	C	1.197896	-0.962869	-0.220557
C40	C	1.237196	-0.921583	-0.181301
C41	C	1.221620	-0.839038	-0.196825
C42	C	1.166739	-0.797780	-0.251601
C43	C	1.260922	-0.797746	-0.157566
C44	C	1.245342	-0.715202	-0.173086
C45	C	1.151159	-0.715236	-0.267122
C46	C	1.327209	-0.380759	-0.283018
C47	C	1.409009	-0.380765	-0.283027
C48	C	1.135288	-0.380690	-0.474963
C49	C	1.135302	-0.380667	-0.556766
C50	C	1.096504	-0.174589	-0.321798
C51	C	1.079991	-0.086738	-0.338331
C52	C	1.172878	-0.330072	-0.754489
C53	C	1.172883	-0.330049	-0.831352
C54	C	1.097755	-0.431141	-0.812304
C55	C	1.097747	-0.431159	-0.735444
C56	C	1.135313	-0.380626	-0.706537
C57	C	1.135326	-0.380584	-0.860261
C58	C	1.135330	-0.380560	-0.943600
C59	C	1.135307	-0.380649	-0.623194
C60	C	1.135250	-0.380742	-0.091794
C61	C	1.135336	-0.380543	-0.010033
H62	H	1.106474	-0.681646	-0.311735
C63	C	1.056433	-0.486723	-0.844109
N64	N	1.025308	-0.528588	-0.868064
H65	H	1.067151	-0.472326	-0.696400
C66	C	1.214194	-0.274477	-0.722696
N67	N	1.245312	-0.232598	-0.698753
H68	H	0.688037	-0.288916	-0.215026
C69	C	0.736358	-0.487035	-0.361687
N70	N	0.776095	-0.528966	-0.392736
C71	C	0.574970	-0.487050	-0.361692
N72	N	0.551042	-0.528996	-0.392732
C73	C	0.981888	-1.090896	-0.436294
N74	N	0.949325	-1.125099	-0.468826
H75	H	0.548599	-0.288934	-0.215039
H76	H	1.281879	-0.955182	-0.136698
C77	C	1.055419	-0.707011	-0.362710
N78	N	1.042511	-0.638620	-0.375570
H79	H	1.277344	-0.681587	-0.141120
H80	H	1.203471	-0.288881	-0.870391
C81	C	0.972872	-0.793722	-0.445147
N82	N	0.927388	-0.759540	-0.490520
H83	H	0.964849	-0.929345	-0.453244
C84	C	1.321282	-0.843135	-0.097302
N85	N	1.366745	-0.877322	-0.051910
C86	C	1.215035	-1.053671	-0.203488
N87	N	1.227946	-1.122063	-0.190634
H88	H	1.163978	-1.079051	-0.254467
