data_functionalizedCrystal
_audit_creation_method	'MofGen! by Chris Wilmer'
_symmetry_space_group_name_H-M	'P1'
_symmetry_Int_Tables_number	1
_symmetry_cell_setting	triclinic
loop_
_symmetry_equiv_pos_as_xyz
  x,y,z
_cell_length_a	6.817900
_cell_length_b	17.110062
_cell_length_c	17.253917
_cell_angle_alpha	80.208174
_cell_angle_beta	77.340689
_cell_angle_gamma	99.930758
loop_
_atom_site_label
_atom_site_type_symbol
_atom_site_fract_x
_atom_site_fract_y
_atom_site_fract_z
V1	V	3.986223	0.254878	-0.111098
O2	O	3.974783	0.242278	0.005535
O3	O	3.937753	0.260586	-0.220476
O4	O	3.920263	0.362639	-0.109302
O5	O	3.992394	0.139519	-0.106409
V6	V	4.472136	0.240175	-0.097157
O7	O	4.242240	0.287130	-0.141677
O8	O	4.666316	0.207922	-0.066578
O9	O	4.297400	0.234466	0.012222
O10	O	4.600973	0.252775	-0.213790
O11	O	4.583362	0.355534	-0.101846
O12	O	4.314889	0.132413	-0.098952
C13	C	3.783305	0.258488	-0.247143
C14	C	3.824845	0.263874	-0.336562
C15	C	3.815968	0.192978	-0.367139
C16	C	3.855018	0.198042	-0.451158
C17	C	3.902930	0.274001	-0.504597
C18	C	3.911812	0.344902	-0.474014
C19	C	3.872777	0.339839	-0.389997
C20	C	4.022734	0.297019	-0.757098
C21	C	4.061765	0.302077	-0.841120
C22	C	4.004971	0.155216	-0.818258
C23	C	3.965925	0.150159	-0.734240
C24	C	3.974821	0.221060	-0.703665
N25	N	3.942840	0.279178	-0.590478
N26	N	3.934926	0.215883	-0.617786
C27	C	3.760994	0.388666	-0.105329
C28	C	3.788348	0.476810	-0.104585
C29	C	3.982642	0.522534	-0.108251
C30	C	4.008331	0.605354	-0.107551
C31	C	3.839727	0.642451	-0.103192
C32	C	3.645416	0.596721	-0.099523
C33	C	3.619726	0.513900	-0.100217
C34	C	3.897100	0.889684	-0.100681
C35	C	3.922807	0.972511	-0.099990
C36	C	4.285720	0.981139	-0.108017
C37	C	4.260015	0.898317	-0.108715
C38	C	4.065706	0.852593	-0.105042
N39	N	3.865983	0.727108	-0.102479
N40	N	4.039450	0.767937	-0.105749
C41	C	4.144465	1.106382	-0.102925
C42	C	4.117101	1.018235	-0.103656
C43	C	4.115190	0.236562	0.038885
C44	C	4.052888	0.231182	0.128302
H45	H	3.950840	0.406750	-0.517532
H46	H	3.880028	0.397570	-0.365104
O47	O	4.164490	0.482521	-0.112945
H48	H	4.303905	0.528231	-0.115366
H49	H	4.397315	0.868119	-0.112264
O50	O	3.845416	0.121576	-0.484141
H51	H	3.805507	0.067905	-0.432866
O52	O	4.495276	1.030455	-0.111961
H53	H	4.605911	1.028831	-0.169090
H54	H	4.166540	0.642578	-0.110532
H55	H	3.785497	1.002712	-0.096438
O56	O	3.687541	0.840374	-0.096732
H57	H	3.574630	0.880089	-0.093595
H58	H	3.776939	0.131123	-0.323634
O59	O	3.463556	0.636727	-0.094825
H60	H	3.514062	0.702001	-0.094969
O61	O	3.410174	0.464569	-0.096260
H62	H	3.356626	0.490576	-0.149275
O63	O	3.914231	0.068224	-0.676614
H64	H	4.030743	0.065559	-0.640837
H65	H	3.997736	0.097492	-0.843162
H66	H	4.100772	0.363936	-0.884630
H67	H	4.029955	0.354752	-0.732214
