data_functionalizedCrystal
_audit_creation_method	'MofGen! by Chris Wilmer'
_symmetry_space_group_name_H-M	'P1'
_symmetry_Int_Tables_number	1
_symmetry_cell_setting	triclinic
loop_
_symmetry_equiv_pos_as_xyz
  x,y,z
_cell_length_a	6.817900
_cell_length_b	7.190334
_cell_length_c	19.453172
_cell_angle_alpha	88.400474
_cell_angle_beta	101.710488
_cell_angle_gamma	60.611776
loop_
_atom_site_label
_atom_site_type_symbol
_atom_site_fract_x
_atom_site_fract_y
_atom_site_fract_z
V1	V	-4.214595	0.665986	-0.096060
V2	V	-3.714595	1.165986	0.403940
O3	O	-4.207232	0.652283	0.005769
O4	O	-3.707232	1.152283	0.505769
O5	O	-4.156462	0.662417	-0.191579
O6	O	-3.656462	1.162417	0.308421
O7	O	-4.251932	0.955995	-0.094076
O8	O	-3.751932	1.455995	0.405924
O9	O	-4.111100	0.356672	-0.092409
O10	O	-3.611100	0.856672	0.407591
V11	V	-4.688375	0.628870	-0.083940
V12	V	-4.188375	1.128870	0.416060
O13	O	-4.497227	0.747403	-0.122646
O14	O	-3.997227	1.247403	0.377354
O15	O	-4.855941	0.547452	-0.057353
O16	O	-4.355941	1.047452	0.442647
O17	O	-4.523302	0.632438	0.011580
O18	O	-4.023302	1.132438	0.511580
O19	O	-4.813136	0.642573	-0.185768
O20	O	-4.313136	1.142573	0.314232
O21	O	-4.909267	0.938183	-0.087591
O22	O	-4.409267	1.438183	0.412409
O23	O	-4.427832	0.338860	-0.085923
O24	O	-3.927832	0.838860	0.414077
C25	C	-3.996321	0.652166	-0.214880
C26	C	-3.496321	1.152166	0.285120
C27	C	-4.030648	0.651181	-0.292965
C28	C	-3.530648	1.151181	0.207035
C29	C	-4.461523	0.656862	-0.854023
C30	C	-3.961523	1.156862	-0.354023
C31	C	-4.429280	0.657773	-0.780654
C32	C	-3.929280	1.157773	-0.280654
C33	C	-4.227226	0.645547	-0.740304
C34	C	-3.727226	1.145547	-0.240304
C35	C	-4.057375	0.632353	-0.773327
C36	C	-3.557375	1.132353	-0.273327
C37	C	-4.089611	0.631421	-0.846694
C38	C	-3.589611	1.131421	-0.346694
N39	N	-4.097601	0.759509	-0.628420
N40	N	-3.597601	1.259509	-0.128420
N41	N	-4.066993	0.760400	-0.558724
N42	N	-3.566993	1.260400	-0.058724
C43	C	-4.130086	0.648349	-0.519252
C44	C	-3.630086	1.148349	-0.019252
N45	N	-4.224988	0.535403	-0.552111
N46	N	-3.724988	1.035403	-0.052111
N47	N	-4.255610	0.534522	-0.621813
N48	N	-3.755610	1.034522	-0.121813
C49	C	-4.192249	0.646554	-0.660749
C50	C	-3.692249	1.146554	-0.160749
C51	C	-4.264961	0.662514	-0.406682
C52	C	-3.764961	1.162514	0.093318
C53	C	-4.232704	0.663411	-0.333310
C54	C	-3.732704	1.163411	0.166690
C55	C	-3.860804	0.638013	-0.325986
C56	C	-3.360804	1.138013	0.174014
C57	C	-3.893055	0.637095	-0.399355
C58	C	-3.393055	1.137095	0.100645
C59	C	-4.095143	0.649356	-0.439699
C60	C	-3.595143	1.149356	0.060301
C61	C	-4.118114	1.026651	-0.090503
C62	C	-3.618114	1.526651	0.409497
C63	C	-4.231959	1.268197	-0.089493
C64	C	-3.731959	1.768197	0.410507
C65	C	-4.346783	0.642684	0.034877
C66	C	-3.846783	1.142684	0.534877
C67	C	-4.291698	0.643683	0.112962
C68	C	-3.791698	1.143683	0.612962
H69	H	-4.429507	0.672486	-0.439531
H70	H	-3.929507	1.172486	0.060469
H71	H	-4.626071	0.666839	-0.886867
H72	H	-4.126071	1.166839	-0.386867
H73	H	-4.370999	0.674132	-0.306430
H74	H	-3.870999	1.174132	0.193570
H75	H	-4.567569	0.668491	-0.753767
H76	H	-4.067569	1.168491	-0.253767
H77	H	-3.892857	0.622395	-0.740469
H78	H	-3.392857	1.122395	-0.240469
H79	H	-3.951316	0.620695	-0.873575
H80	H	-3.451316	1.120695	-0.373575
H81	H	-3.754768	0.626371	-0.426236
H82	H	-3.254768	1.126371	0.073764
H83	H	-3.696284	0.628051	-0.293133
H84	H	-3.196284	1.128051	0.206867
