data_functionalizedCrystal
_audit_creation_method	'MofGen! by Chris Wilmer'
_symmetry_space_group_name_H-M	'P1'
_symmetry_Int_Tables_number	1
_symmetry_cell_setting	triclinic
loop_
_symmetry_equiv_pos_as_xyz
  x,y,z
_cell_length_a	6.817900
_cell_length_b	19.551786
_cell_length_c	17.078481
_cell_angle_alpha	96.653389
_cell_angle_beta	99.306161
_cell_angle_gamma	101.662645
loop_
_atom_site_label
_atom_site_type_symbol
_atom_site_fract_x
_atom_site_fract_y
_atom_site_fract_z
V1	V	-3.970595	-0.096511	-0.247729
O2	O	-3.968495	0.004806	-0.242635
O3	O	-3.913534	-0.191527	-0.246400
O4	O	-3.901786	-0.094953	-0.355606
O5	O	-3.980324	-0.092437	-0.132672
V6	V	-4.457989	-0.084401	-0.233923
O7	O	-4.223360	-0.123075	-0.278014
O8	O	-4.655421	-0.057837	-0.203638
O9	O	-4.291844	0.010614	-0.235253
O10	O	-4.577485	-0.185718	-0.239018
O11	O	-4.565656	-0.088475	-0.348981
O12	O	-4.303591	-0.085959	-0.126046
C13	C	-3.757088	-0.214692	-0.242586
C14	C	-3.791585	-0.292368	-0.242217
C15	C	-4.016583	-0.842174	-0.166964
C16	C	-3.984153	-0.769187	-0.167302
C17	C	-3.991554	-0.742580	-0.240119
C18	C	-4.031338	-0.788966	-0.312602
C19	C	-4.063747	-0.861950	-0.312262
C20	C	-4.074798	-0.636879	-0.299350
C21	C	-4.042401	-0.563896	-0.299688
C22	C	-3.891585	-0.517473	-0.241172
C23	C	-3.773192	-0.544040	-0.182305
C24	C	-3.805601	-0.617025	-0.181965
C25	C	-3.956413	-0.663442	-0.240496
C26	C	-3.816627	-0.391957	-0.169059
C27	C	-3.784185	-0.318970	-0.169400
C28	C	-3.831391	-0.338750	-0.314703
C29	C	-3.863812	-0.411735	-0.314359
C30	C	-3.856437	-0.438334	-0.241536
C31	C	-3.742102	-0.091501	-0.381889
C32	C	-3.767070	-0.090856	-0.470081
C33	C	-3.959814	-0.094041	-0.515569
C34	C	-3.983262	-0.093434	-0.598435
C35	C	-3.813966	-0.089648	-0.635812
C36	C	-3.621205	-0.086460	-0.590318
C37	C	-3.597757	-0.087062	-0.507452
C38	C	-3.864680	-0.087469	-0.883207
C39	C	-3.888145	-0.086870	-0.966079
C40	C	-4.250200	-0.093843	-0.974190
C41	C	-4.226737	-0.094448	-0.891323
C42	C	-4.033978	-0.091257	-0.845836
N43	N	-3.837930	-0.089029	-0.720515
N44	N	-4.010014	-0.091870	-0.761134
C45	C	-4.111631	0.033776	-0.239065
C46	C	-4.056372	0.111451	-0.239438
C47	C	-4.126618	-0.089413	-0.099760
C48	C	-4.080889	-0.090055	-0.011567
H49	H	-3.650384	-0.506243	-0.134656
H50	H	-3.483361	-0.083373	-0.620756
H51	H	-3.896223	-0.449496	-0.373376
C52	C	-4.195277	-0.096941	-0.648472
H53	H	-4.184998	-0.096033	-0.703176
H54	H	-4.286310	-0.139404	-0.643963
H55	H	-4.245313	-0.057538	-0.629155
H56	H	-4.096145	-0.899710	-0.371281
C57	C	-3.385745	-0.083561	-0.457413
H58	H	-3.396022	-0.084455	-0.402707
H59	H	-3.335704	-0.122960	-0.476726
H60	H	-3.294710	-0.041094	-0.461924
C61	C	-4.008437	-0.871428	-0.086861
H62	H	-3.980074	-0.833351	-0.043745
H63	H	-4.136063	-0.901832	-0.086726
H64	H	-3.904103	-0.897143	-0.080687
H65	H	-3.951740	-0.731421	-0.108283
C66	C	-3.808491	-0.421222	-0.088960
H67	H	-3.833518	-0.471332	-0.099137
H68	H	-3.677509	-0.402860	-0.056144
H69	H	-3.909465	-0.407537	-0.062188
H70	H	-4.138808	-0.542271	-0.347620
C71	C	-3.675362	-0.646248	-0.117224
H72	H	-3.580886	-0.608152	-0.082424
H73	H	-3.761539	-0.672037	-0.087094
H74	H	-3.603271	-0.676577	-0.142221
C75	C	-3.702045	-0.082971	-1.007240
H76	H	-3.583923	-0.081232	-0.968295
H77	H	-3.724667	-0.123614	-1.046711
H78	H	-3.682761	-0.041729	-1.032113
C79	C	-3.740411	-0.267956	-0.089674
H80	H	-3.740680	-0.294254	-0.046258
H81	H	-3.610812	-0.236733	-0.083760
H82	H	-3.842772	-0.241414	-0.089814
C83	C	-3.839415	-0.309489	-0.394797
H84	H	-3.814388	-0.259379	-0.384620
H85	H	-3.738416	-0.323184	-0.421539
H86	H	-3.970379	-0.327841	-0.427641
C87	C	-4.240704	-0.687939	-0.363722
H88	H	-4.306590	-0.661665	-0.398820
H89	H	-4.179814	-0.719097	-0.393588
H90	H	-4.338084	-0.714547	-0.338464
C91	C	-4.039459	-0.759701	-0.392698
H92	H	-4.014472	-0.709592	-0.382522
H93	H	-3.938486	-0.773384	-0.419464
H94	H	-4.170447	-0.778065	-0.425520
H95	H	-4.364600	-0.097531	-0.860897
H96	H	-4.097680	-0.097129	-0.485144
C97	C	-3.652661	-0.083968	-0.833182
H98	H	-3.555205	-0.081636	-0.867315
H99	H	-3.615472	-0.043128	-0.793286
H100	H	-3.656496	-0.124995	-0.808093
H101	H	-4.407138	-0.096439	-1.011235
