data_functionalizedCrystal
_audit_creation_method	'MofGen! by Chris Wilmer'
_symmetry_space_group_name_H-M	'P1'
_symmetry_Int_Tables_number	1
_symmetry_cell_setting	triclinic
loop_
_symmetry_equiv_pos_as_xyz
  x,y,z
_cell_length_a	19.121112
_cell_length_b	19.121063
_cell_length_c	19.120904
_cell_angle_alpha	94.741613
_cell_angle_beta	90.088845
_cell_angle_gamma	90.126867
loop_
_atom_site_label
_atom_site_type_symbol
_atom_site_fract_x
_atom_site_fract_y
_atom_site_fract_z
Zn1	Zn	1.039579	-0.343505	-0.456027
Zn2	Zn	1.539579	0.156495	0.043973
Zn3	Zn	1.039492	-0.456148	-0.343374
Zn4	Zn	1.539492	0.043852	0.156626
Zn5	Zn	0.927792	-0.333517	-0.333406
Zn6	Zn	1.427792	0.166483	0.166594
Zn7	Zn	0.917325	-0.455676	-0.455559
Zn8	Zn	1.417325	0.044324	0.044441
O9	O	0.981047	-0.397212	-0.397092
O10	O	1.481047	0.102788	0.102908
O11	O	1.137478	-0.362825	-0.445451
O12	O	1.637478	0.137175	0.054549
O13	O	1.029019	-0.435899	-0.243785
O14	O	1.529019	0.064101	0.256215
O15	O	0.947037	-0.236577	-0.345696
O16	O	1.447037	0.263423	0.154304
O17	O	1.137414	-0.445584	-0.362686
O18	O	1.637414	0.054416	0.137314
O19	O	1.029167	-0.243915	-0.435786
O20	O	1.529167	0.256085	0.064214
O21	O	0.946953	-0.345802	-0.236461
O22	O	1.446953	0.154198	0.263539
O23	O	0.828492	-0.345344	-0.345242
O24	O	1.328492	0.154656	0.154758
O25	O	0.929198	-0.444779	-0.553888
O26	O	1.429198	0.055221	-0.053888
O27	O	0.820802	-0.435094	-0.434987
O28	O	1.320802	0.064906	0.065013
O29	O	1.019017	-0.362368	-0.554232
O30	O	1.519017	0.137632	-0.054232
O31	O	1.018870	-0.554351	-0.362231
O32	O	1.518870	-0.054351	0.137769
O33	O	0.929114	-0.554005	-0.444653
O34	O	1.429114	-0.054005	0.055347
C35	C	0.799260	-0.389085	-0.388983
C36	C	1.299260	0.110915	0.111017
C37	C	0.721489	-0.385625	-0.385531
C38	C	1.221489	0.114375	0.114469
C39	C	0.281836	-0.363681	-0.363667
C40	C	0.781836	0.136319	0.136333
C41	C	0.354909	-0.366935	-0.366914
C42	C	0.854909	0.133065	0.133086
C43	C	0.387458	-0.415361	-0.415193
C44	C	0.887458	0.084639	0.084807
C45	C	0.346929	-0.460531	-0.460233
C46	C	0.846929	0.039469	0.039767
C47	C	0.273857	-0.457272	-0.456989
C48	C	0.773857	0.042728	0.043011
C49	C	0.607889	-0.427537	-0.427326
C50	C	1.107889	0.072463	0.072674
C51	C	0.680966	-0.430793	-0.430566
C52	C	1.180966	0.069207	0.069434
C53	C	0.688941	-0.337196	-0.337247
C54	C	1.188941	0.162804	0.162753
C55	C	0.615867	-0.333945	-0.334005
C56	C	1.115867	0.166055	0.165995
C57	C	0.575345	-0.379112	-0.379047
C58	C	1.075345	0.120888	0.120953
C59	C	0.462151	-0.418690	-0.418512
C60	C	0.962151	0.081310	0.081488
C61	C	0.500654	-0.375779	-0.375731
C62	C	1.000654	0.124221	0.124269
C63	C	0.972865	-0.579659	-0.404489
C64	C	1.472865	-0.079659	0.095511
C65	C	0.969427	-0.657714	-0.407680
C66	C	1.469427	-0.157714	0.092320
C67	C	1.014577	-0.694545	-0.366305
C68	C	1.514577	-0.194545	0.133695
C69	C	1.011348	-0.767887	-0.369311
C70	C	1.511348	-0.267887	0.130689
C71	C	0.962966	-0.804396	-0.413688
C72	C	1.462966	-0.304396	0.086312
C73	C	0.917815	-0.767560	-0.455067
C74	C	1.417815	-0.267560	0.044933
C75	C	0.921047	-0.694220	-0.452065
C76	C	1.421047	-0.194220	0.047935
C77	C	0.950869	-1.025827	-0.424901
C78	C	1.450869	-0.525827	0.075099
C79	C	0.947638	-1.099172	-0.427898
C80	C	1.447638	-0.599172	0.072102
C81	C	1.041173	-1.099494	-0.342143
C82	C	1.541173	-0.599494	0.157857
C83	C	1.044398	-1.026152	-0.339142
C84	C	1.544398	-0.526152	0.160858
C85	C	0.999249	-0.989323	-0.380523
C86	C	1.499249	-0.489323	0.119477
C87	C	0.959663	-0.879362	-0.416759
C88	C	1.459663	-0.379362	0.083241
C89	C	1.002556	-0.914358	-0.377455
C90	C	1.502556	-0.414358	0.122545
C91	C	1.163543	-0.405371	-0.405233
C92	C	1.663543	0.094629	0.094767
C93	C	1.241312	-0.408848	-0.408702
C94	C	1.741312	0.091152	0.091298
C95	C	0.972950	-0.404635	-0.580252
C96	C	1.472950	0.095365	-0.080252
C97	C	0.969499	-0.407798	-0.658304
C98	C	1.469499	0.092202	-0.158304
C99	C	0.989279	-0.214054	-0.389681
C100	C	1.489279	0.285946	0.110319
C101	C	0.992787	-0.136003	-0.386524
C102	C	1.492787	0.363997	0.113476
C103	C	1.014640	-0.366379	-0.695153
C104	C	1.514640	0.133621	-0.195153
C105	C	1.011389	-0.369348	-0.768491
C106	C	1.511389	0.130652	-0.268491
C107	C	0.963001	-0.413741	-0.804978
C108	C	1.463001	0.086259	-0.304978
C109	C	0.917855	-0.455161	-0.768124
C110	C	1.417855	0.044839	-0.268124
C111	C	0.921103	-0.452188	-0.694787
C112	C	1.421103	0.047812	-0.194787
C113	C	0.950852	-0.424861	-1.026399
C114	C	1.450852	0.075139	-0.526399
C115	C	0.947609	-0.427833	-1.099740
C116	C	1.447609	0.072167	-0.599740
C117	C	1.041143	-0.342018	-1.100103
C118	C	1.541143	0.157982	-0.600103
C119	C	1.044389	-0.339052	-1.026765
C120	C	1.544389	0.160948	-0.526765
C121	C	0.999241	-0.380470	-0.989916
C122	C	1.499241	0.119530	-0.489916
C123	C	0.959678	-0.416778	-0.879942
C124	C	1.459678	0.083222	-0.379942
C125	C	1.002560	-0.377428	-0.914954
C126	C	1.502560	0.122572	-0.414954
C127	C	0.989155	-0.389769	-0.214643
C128	C	1.489155	0.110231	0.285357
C129	C	0.992750	-0.386414	-0.136590
C130	C	1.492750	0.113586	0.363410
H131	H	0.707465	-0.470228	-0.469884
H132	H	1.207465	0.029772	0.030116
H133	H	0.920269	-0.909096	-0.452889
H134	H	1.420269	-0.409096	0.047111
F135	F	1.089223	-1.138696	-0.298108
F136	F	1.589223	-0.638696	0.201892
F137	F	1.089188	-0.297940	-1.139324
F138	F	1.589188	0.202060	-0.639324
F139	F	0.564771	-0.475611	-0.475262
F140	F	1.064771	0.024389	0.024738
F141	F	0.381572	-0.512071	-0.511614
F142	F	0.881572	-0.012071	-0.011614
H143	H	1.083794	-0.302905	-0.997062
H144	H	1.583794	0.197095	-0.497062
F145	F	1.059457	-0.325289	-0.807708
F146	F	1.559457	0.174711	-0.307708
H147	H	0.908203	-0.463984	-1.129446
H148	H	1.408203	0.036016	-0.629446
H149	H	0.914099	-0.458598	-0.996406
H150	H	1.414099	0.041402	-0.496406
F151	F	0.466011	-0.324239	-0.324353
F152	F	0.966011	0.175761	0.175647
F153	F	1.054051	-0.330177	-0.876120
F154	F	1.554051	0.169823	-0.376120
H155	H	0.721942	-0.300423	-0.300577
H156	H	1.221942	0.199577	0.199423
F157	F	0.866354	-0.502405	-0.806958
F158	F	1.366354	-0.002405	-0.306958
H159	H	1.083795	-0.996428	-0.303006
H160	H	1.583795	-0.496428	0.196994
H161	H	0.908247	-1.128897	-0.464048
H162	H	1.408247	-0.628897	0.035952
F163	F	0.230730	-0.505344	-0.504923
F164	F	0.730730	-0.005344	-0.004923
H165	H	0.884338	-0.485909	-0.664785
H166	H	1.384338	0.014091	-0.164785
F167	F	1.066145	-0.319133	-0.656328
F168	F	1.566145	0.180867	-0.156328
F169	F	0.247201	-0.312142	-0.312278
F170	F	0.747201	0.187858	0.187722
F171	F	0.398034	-0.318857	-0.318986
F172	F	0.898034	0.181143	0.181014
H173	H	0.920283	-0.452926	-0.909658
H174	H	1.420283	0.047074	-0.409658
F175	F	0.496798	-0.470237	-0.469884
F176	F	0.996798	0.029763	0.030116
H177	H	0.884283	-0.664233	-0.485757
H178	H	1.384283	-0.164233	0.014243
F179	F	0.581232	-0.282400	-0.282623
F180	F	1.081232	0.217600	0.217377
F181	F	1.059404	-0.807082	-0.325276
F182	F	1.559404	-0.307082	0.174724
F183	F	1.066068	-0.655695	-0.319069
F184	F	1.566068	-0.155695	0.180931
F185	F	0.866326	-0.806418	-0.502300
F186	F	1.366326	-0.306418	-0.002300
F187	F	0.902816	-0.986640	-0.468943
F188	F	1.402816	-0.486640	0.031057
H189	H	1.041952	-0.884630	-0.341326
H190	H	1.541952	-0.384630	0.158674
