data_functionalizedCrystal
_audit_creation_method	'MofGen! by Chris Wilmer'
_symmetry_space_group_name_H-M	'P1'
_symmetry_Int_Tables_number	1
_symmetry_cell_setting	triclinic
loop_
_symmetry_equiv_pos_as_xyz
  x,y,z
_cell_length_a	10.489741
_cell_length_b	10.489741
_cell_length_c	8.965430
_cell_angle_alpha	90.001157
_cell_angle_beta	90.000707
_cell_angle_gamma	95.460826
loop_
_atom_site_label
_atom_site_type_symbol
_atom_site_fract_x
_atom_site_fract_y
_atom_site_fract_z
O1	O	0.179958	-1.694053	-0.123946
O2	O	0.196851	-1.322858	-0.123969
O3	O	0.002807	-1.516902	-0.123948
O4	O	0.374003	-1.500009	-0.123967
O5	O	0.002820	-1.516886	0.124130
O6	O	0.196864	-1.322841	0.124110
O7	O	0.179971	-1.694037	0.124133
Cu8	Cu	0.188419	-1.508438	0.146773
Cu9	Cu	0.188404	-1.508457	-0.146609
O10	O	0.374016	-1.499993	0.124112
C11	C	-0.044718	-1.515618	0.000090
C12	C	-0.186348	-1.511801	0.000087
C13	C	0.195582	-1.275318	0.000067
C14	C	0.191765	-1.133688	0.000059
C15	C	-0.254488	-1.388336	0.000069
C16	C	-0.346604	-1.446652	0.122388
C17	C	-0.346591	-1.446697	-0.122198
C18	C	-0.276599	-1.570167	0.122508
C19	C	-0.276576	-1.570195	-0.122189
C20	C	-0.368665	-1.628600	0.000161
C21	C	0.181241	-1.741577	0.000093
C22	C	0.185058	-1.883206	0.000092
C23	C	0.421541	-1.501277	0.000070
C24	C	0.563170	-1.505094	0.000063
N25	N	0.188429	-1.508433	0.353122
C26	C	0.068300	-1.065548	0.000079
C27	C	0.126617	-0.973430	-0.122237
C28	C	0.126659	-0.973447	0.122349
C29	C	0.250133	-1.043435	-0.122358
C30	C	0.250158	-1.043462	0.122338
C31	C	0.308564	-0.951371	-0.000007
N32	N	0.188384	-1.508471	-0.352958
C33	C	0.278138	-1.418666	0.450418
C34	C	0.303949	-1.534163	0.549838
C35	C	0.162629	-1.392986	0.549830
C36	C	0.214298	-1.623988	0.450352
C37	C	0.072927	-1.482735	0.450336
C38	C	0.098690	-1.598314	0.549711
H39	H	-0.204837	-1.286824	0.000185
H40	H	0.236216	-1.721659	0.406840
H41	H	0.140828	-1.295338	0.593530
H42	H	0.022803	-1.674327	0.593034
H43	H	-0.245761	-1.622355	0.226035
H44	H	-0.245537	-1.622398	-0.225600
H45	H	-0.033196	-1.115238	-0.000069
H46	H	0.302361	-1.074502	0.225749
H47	H	0.074371	-0.942422	-0.225643
H48	H	-0.377610	-1.394404	0.225794
H49	H	-0.418089	-1.730204	0.000235
H50	H	0.354072	-1.342824	0.406821
H51	H	0.401606	-1.555925	0.593543
H52	H	-0.024699	-1.460937	0.406596
H53	H	-0.377561	-1.394447	-0.225620
H54	H	0.302327	-1.074270	-0.225883
H55	H	0.410168	-0.901947	-0.000079
H56	H	0.074402	-0.942463	0.225758
