data_functionalizedCrystal
_audit_creation_method	'MofGen! by Chris Wilmer'
_symmetry_space_group_name_H-M	'P1'
_symmetry_Int_Tables_number	1
_symmetry_cell_setting	triclinic
loop_
_symmetry_equiv_pos_as_xyz
  x,y,z
_cell_length_a	14.044220
_cell_length_b	23.532407
_cell_length_c	13.101039
_cell_angle_alpha	93.336507
_cell_angle_beta	86.340132
_cell_angle_gamma	88.018778
loop_
_atom_site_label
_atom_site_type_symbol
_atom_site_fract_x
_atom_site_fract_y
_atom_site_fract_z
O1	O	1.261651	0.134360	-0.085125
O2	O	0.985730	0.129407	-0.085150
O3	O	1.132009	0.049404	-0.085118
O4	O	1.115371	0.214364	-0.085157
O5	O	1.121514	0.055154	0.085309
O6	O	0.975234	0.135158	0.085277
O7	O	1.251155	0.140111	0.085302
Zn8	Zn	1.111528	0.138547	0.112349
Zn9	Zn	1.125356	0.130971	-0.112197
O10	O	1.104875	0.220114	0.085270
C11	C	0.945188	0.130115	0.000061
C12	C	0.840024	0.123648	0.000052
C13	C	0.647472	0.111828	0.000075
C14	C	0.589407	0.157687	0.000068
C15	C	0.482265	0.151110	0.000081
C16	C	0.754624	0.118404	0.000062
C17	C	1.126338	0.031040	0.000098
C18	C	1.125063	-0.032246	0.000106
C19	C	1.203641	-0.427092	0.000057
C20	C	1.202458	-0.486556	0.000049
O21	O	1.275300	-0.519354	0.000018
N22	N	1.115494	-0.513896	0.000042
C23	C	1.029708	-0.481769	0.000032
O24	O	0.955630	-0.510484	0.000024
C25	C	1.030893	-0.422306	0.000033
C26	C	1.117862	-0.394968	0.000050
C27	C	1.290603	-0.399754	0.000073
C28	C	1.291786	-0.340294	0.000083
C29	C	1.206007	-0.308170	0.000077
C30	C	1.119045	-0.335508	0.000060
C31	C	0.945109	-0.390179	0.000016
C32	C	0.946301	-0.330712	0.000015
C33	C	1.033270	-0.303375	0.000033
C34	C	1.034448	-0.243924	0.000063
N35	N	1.121412	-0.216584	0.000070
C36	C	1.207191	-0.248707	0.000077
C37	C	1.027228	-0.606646	0.000029
C38	C	1.026042	-0.666108	0.000036
C39	C	1.198792	-0.670891	0.000051
C40	C	1.199977	-0.611428	0.000052
C41	C	1.114192	-0.579306	0.000036
C42	C	1.209668	-0.123835	0.000099
C43	C	1.210843	-0.064369	0.000113
C44	C	1.038093	-0.059591	0.000092
C45	C	1.036917	-0.119052	0.000084
C46	C	1.122713	-0.151173	0.000083
O47	O	0.961644	-0.211090	0.000090
O48	O	1.281258	-0.219985	0.000071
C49	C	1.291697	0.139403	0.000089
C50	C	1.396862	0.145869	0.000091
C51	C	1.110547	0.238478	0.000052
C52	C	1.111822	0.301763	0.000037
N53	N	1.102098	0.143718	0.265595
N54	N	1.134794	0.125796	-0.265443
C55	C	1.089267	0.150758	0.474635
C56	C	1.147622	0.118757	0.525524
C57	C	1.140483	0.122674	0.641841
C58	C	1.096405	0.146842	0.358308
H59	H	0.616718	0.067631	0.000091
H60	H	1.281666	-0.042114	0.000130
H61	H	1.202943	0.088418	0.481734
H62	H	0.876442	-0.304561	0.000002
H63	H	0.957366	-0.580495	0.000026
H64	H	0.874290	-0.412427	-0.000005
H65	H	0.966099	-0.141310	0.000098
H66	H	1.279531	-0.149982	0.000094
C67	C	1.014541	0.191748	0.533782
C68	C	1.006798	0.195255	0.651777
C69	C	0.932076	0.236246	0.710937
C70	C	0.865096	0.273729	0.652101
C71	C	0.872837	0.270223	0.534099
C72	C	0.947559	0.229232	0.474939
H73	H	1.056382	0.167506	0.695336
H74	H	0.926346	0.238841	0.798290
H75	H	0.809783	0.304073	0.695895
H76	H	0.823253	0.297971	0.490540
H77	H	0.953289	0.226637	0.387586
C78	C	0.630945	0.217402	0.000039
C79	C	0.602313	0.261884	0.088522
C80	C	0.643853	0.321597	0.088489
C81	C	0.714026	0.336826	-0.000028
C82	C	0.742662	0.292342	-0.088517
C83	C	0.701121	0.232630	-0.088484
H84	H	0.550363	0.250612	0.154053
H85	H	0.622655	0.354526	0.153995
H86	H	0.744777	0.381029	-0.000053
H87	H	0.794611	0.303615	-0.154049
H88	H	0.722320	0.199700	-0.153990
H89	H	1.362605	-0.318042	0.000093
C90	C	1.384972	-0.435083	0.000086
C91	C	1.450929	-0.425890	0.088600
C92	C	1.545304	-0.461213	0.088622
C93	C	1.573722	-0.505729	0.000131
C94	C	1.507763	-0.514924	-0.088389
C95	C	1.413388	-0.479601	-0.088412
H96	H	1.429894	-0.392934	0.154112
H97	H	1.594131	-0.454405	0.154151
H98	H	1.643584	-0.531877	0.000148
H99	H	1.528798	-0.547879	-0.153902
H100	H	1.364561	-0.486408	-0.153941
C101	C	1.293155	-0.706234	0.000049
C102	C	1.310643	-0.744798	0.088542
C103	C	1.404999	-0.780142	0.088542
C104	C	1.481867	-0.776921	0.000048
C105	C	1.464382	-0.738355	-0.088451
C106	C	1.370025	-0.703012	-0.088451
H107	H	1.253738	-0.747184	0.154056
H108	H	1.417943	-0.808691	0.154055
H109	H	1.551716	-0.803085	0.000048
H110	H	1.521286	-0.735970	-0.153965
H111	H	1.357081	-0.674463	-0.153964
H112	H	1.270794	-0.589174	0.000065
H113	H	0.955222	-0.688360	0.000039
H114	H	0.968254	-0.033425	0.000090
