data_functionalizedCrystal
_audit_creation_method	'MofGen! by Chris Wilmer'
_symmetry_space_group_name_H-M	'P1'
_symmetry_Int_Tables_number	1
_symmetry_cell_setting	triclinic
loop_
_symmetry_equiv_pos_as_xyz
  x,y,z
_cell_length_a	16.109301
_cell_length_b	16.992696
_cell_length_c	15.455382
_cell_angle_alpha	87.160297
_cell_angle_beta	92.983937
_cell_angle_gamma	92.935033
loop_
_atom_site_label
_atom_site_type_symbol
_atom_site_fract_x
_atom_site_fract_y
_atom_site_fract_z
O1	O	1.113290	-0.103852	0.072092
O2	O	1.613290	0.396148	0.572092
O3	O	0.872066	-0.116395	0.072107
O4	O	1.372066	0.383605	0.572107
O5	O	0.991710	0.004020	0.072076
O6	O	1.491710	0.504020	0.572076
O7	O	0.993646	-0.224267	0.072124
O8	O	1.493646	0.275733	0.572124
O9	O	0.984829	0.010161	-0.072186
O10	O	1.484829	0.510161	0.427814
O11	O	0.865186	-0.110253	-0.072154
O12	O	1.365186	0.389747	0.427846
O13	O	1.106410	-0.097710	-0.072170
O14	O	1.606410	0.402290	0.427830
Cu15	Cu	0.985169	-0.103421	-0.085334
Cu16	Cu	1.485169	0.396579	0.414666
Cu17	Cu	0.993306	-0.110684	0.085272
Cu18	Cu	1.493306	0.389316	0.585272
O19	O	0.986766	-0.218125	-0.072138
O20	O	1.486766	0.281875	0.427862
C21	C	0.837617	-0.112816	-0.000022
C22	C	1.337617	0.387184	0.499978
C23	C	0.745220	-0.111293	-0.000017
C24	C	1.245220	0.388707	0.499983
C25	C	0.527480	-0.179203	-0.000013
C26	C	1.027480	0.320797	0.499987
C27	C	0.440663	-0.177765	-0.000018
C28	C	0.940663	0.322235	0.499982
C29	C	0.451003	-0.034897	-0.000045
C30	C	0.951003	0.465103	0.499955
C31	C	0.537817	-0.036336	-0.000045
C32	C	1.037817	0.463664	0.499955
C33	C	0.576054	-0.108491	-0.000025
C34	C	1.076054	0.391509	0.499975
C35	C	0.402422	-0.105615	-0.000030
C36	C	0.902422	0.394385	0.499970
C37	C	0.308292	-0.104056	-0.000037
C38	C	0.808292	0.395944	0.499963
C39	C	0.670190	-0.110050	-0.000020
C40	C	1.170190	0.389950	0.499980
C41	C	0.985781	0.036303	-0.000059
C42	C	1.485781	0.536303	0.499941
C43	C	0.978357	0.123346	-0.000072
C44	C	1.478357	0.623346	0.499928
C45	C	1.049982	0.173605	-0.000084
C46	C	1.549982	0.673605	0.499916
C47	C	1.043002	0.255390	-0.000088
C48	C	1.543002	0.755390	0.499912
C49	C	0.964395	0.286914	-0.000085
C50	C	1.464395	0.786914	0.499915
C51	C	0.892765	0.236648	-0.000070
C52	C	1.392765	0.736648	0.499930
C53	C	0.899746	0.154865	-0.000060
C54	C	1.399746	0.654865	0.499940
C55	C	0.935461	0.530505	-0.000108
C56	C	1.435461	1.030505	0.499892
C57	C	0.928484	0.612296	-0.000121
C58	C	1.428484	1.112296	0.499879
C59	C	1.078723	0.631032	-0.000137
C60	C	1.578723	1.131032	0.499863
C61	C	1.085697	0.549246	-0.000132
C62	C	1.585697	1.049246	0.499868
C63	C	1.014067	0.498987	-0.000113
C64	C	1.514067	0.998987	0.499887
N65	N	0.957258	0.370511	-0.000092
N66	N	1.457258	0.870511	0.499908
N67	N	1.021205	0.415391	-0.000100
N68	N	1.521205	0.915391	0.499900
C69	C	1.140859	-0.101289	-0.000039
C70	C	1.640859	0.398711	0.499961
C71	C	1.233256	-0.102812	-0.000038
C72	C	1.733256	0.397188	0.499962
C73	C	0.992692	0.749593	-0.000039
C74	C	1.492692	1.249593	0.499961
C75	C	1.000110	0.662555	-0.000133
C76	C	1.500110	1.162555	0.499867
N77	N	0.999029	-0.115787	0.205267
N78	N	1.499029	0.384213	0.705267
C79	C	1.030756	-0.144052	0.749272
C80	C	1.530756	0.355948	1.249272
C81	C	1.026421	-0.140184	0.658465
C82	C	1.526421	0.359816	1.158465
C83	C	0.970768	-0.090583	0.613057
C84	C	1.470768	0.409417	1.113057
C85	C	0.919453	-0.044841	0.658462
C86	C	1.419453	0.455159	1.158462
C87	C	0.923794	-0.048705	0.749268
C88	C	1.423794	0.451295	1.249268
C89	C	0.952055	-0.073910	0.341477
C90	C	1.452055	0.426090	0.841477
C91	C	0.947717	-0.070050	0.250665
C92	C	1.447717	0.429950	0.750665
C93	C	1.054686	-0.165392	0.250674
C94	C	1.554686	0.334608	0.750674
C95	C	1.059018	-0.169256	0.341482
C96	C	1.559018	0.330744	0.841482
C97	C	1.007707	-0.123511	0.386879
C98	C	1.507707	0.376489	0.886879
N99	N	0.966333	-0.086629	0.520237
N100	N	1.466333	0.413371	1.020237
N101	N	1.012146	-0.127461	0.479697
N102	N	1.512146	0.372539	0.979697
N103	N	0.979444	-0.098315	0.794671
N104	N	1.479444	0.401685	1.294671
H105	H	0.401118	-0.235346	-0.000010
H106	H	0.901118	0.264654	0.499990
Cl107	Cl	1.128951	-0.231647	0.398559
Cl108	Cl	1.628951	0.268353	0.898559
H109	H	0.419859	0.023849	-0.000067
H110	H	0.919859	0.523849	0.499933
H111	H	1.113992	0.147945	-0.000092
H112	H	1.613992	0.647945	0.499908
Cl113	Cl	0.598886	0.052567	-0.000067
Cl114	Cl	1.098886	0.552567	0.499933
H115	H	0.910274	-0.036661	0.378428
H116	H	1.410274	0.463339	0.878428
Cl117	Cl	1.133050	0.318570	-0.000106
Cl118	Cl	1.633050	0.818570	0.499894
H119	H	1.076070	-0.184447	0.786237
H120	H	1.576070	0.315553	1.286237
Cl121	Cl	0.809699	0.091681	-0.000041
Cl122	Cl	1.309699	0.591681	0.499959
Cl123	Cl	1.090929	-0.197686	0.601396
Cl124	Cl	1.590929	0.302314	1.101396
Cl125	Cl	1.184522	0.509620	-0.000108
Cl126	Cl	1.684522	1.009620	0.499892
H127	H	0.902393	-0.029659	0.213697
H128	H	1.402393	0.470341	0.713697
H129	H	1.137040	0.671961	-0.000152
H130	H	1.637040	1.171961	0.499848
H131	H	0.864470	0.637960	-0.000133
H132	H	1.364470	1.137960	0.499867
H133	H	0.874143	-0.004451	0.621484
H134	H	1.374143	0.495549	1.121484
H135	H	0.877134	0.489594	-0.000093
H136	H	1.377134	0.989594	0.499907
Cl137	Cl	1.119189	-0.222894	0.193599
Cl138	Cl	1.619189	0.277106	0.693599
H139	H	0.828761	0.262322	-0.000062
H140	H	1.328761	0.762322	0.499938
H141	H	0.558609	-0.237956	-0.000002
H142	H	1.058609	0.262044	0.499998
Cl143	Cl	0.859292	0.008803	0.806340
Cl144	Cl	1.359292	0.508803	1.306340
