data_functionalizedCrystal
_audit_creation_method	'MofGen! by Chris Wilmer'
_symmetry_space_group_name_H-M	'P1'
_symmetry_Int_Tables_number	1
_symmetry_cell_setting	triclinic
loop_
_symmetry_equiv_pos_as_xyz
  x,y,z
_cell_length_a	10.489741
_cell_length_b	10.654550
_cell_length_c	9.730223
_cell_angle_alpha	90.000193
_cell_angle_beta	89.997533
_cell_angle_gamma	84.512038
loop_
_atom_site_label
_atom_site_type_symbol
_atom_site_fract_x
_atom_site_fract_y
_atom_site_fract_z
O1	O	-1.693961	-0.177187	-0.114201
O2	O	-1.322757	-0.193819	-0.114222
O3	O	-1.516894	-0.002768	-0.114206
O4	O	-1.499824	-0.368238	-0.114217
O5	O	-1.516891	-0.002772	0.114374
O6	O	-1.322755	-0.193824	0.114358
O7	O	-1.693958	-0.177192	0.114379
Zn8	Zn	-1.508356	-0.185508	0.150660
Zn9	Zn	-1.508359	-0.185502	-0.150504
O10	O	-1.499822	-0.368243	0.114363
C11	C	-1.275225	-0.192565	0.000065
C12	C	-1.133597	-0.188807	0.000057
C13	C	-1.741491	-0.178445	0.000089
C14	C	-1.883118	-0.182204	0.000088
C15	C	-1.065516	-0.067246	0.000074
C16	C	-0.973362	-0.124668	-0.112627
C17	C	-0.973394	-0.124702	0.112735
C18	C	-1.043309	-0.246278	-0.112737
C19	C	-1.043350	-0.246295	0.112726
C20	C	-0.951224	-0.303805	-0.000002
C21	C	-1.515639	0.044029	0.000082
C22	C	-1.511889	0.183474	0.000077
C23	C	-1.501076	-0.415039	0.000071
C24	C	-1.504826	-0.554484	0.000067
N25	N	-1.508364	-0.185512	0.356197
C26	C	-1.626194	0.262906	0.000088
C27	C	-1.622663	0.393928	0.000078
C28	C	-1.390513	0.366074	0.000053
C29	C	-1.394045	0.235054	0.000053
C30	C	-1.760224	0.278989	0.000108
C31	C	-1.756693	0.410011	0.000099
N32	N	-1.508362	-0.185489	-0.356040
C33	C	-1.594350	-0.100943	0.428130
C34	C	-1.594346	-0.100928	0.572013
C35	C	-1.422367	-0.270061	0.572017
C36	C	-1.422365	-0.270069	0.428136
C37	C	-1.693644	-0.003299	0.428129
C38	C	-1.693641	-0.003284	0.572012
H39	H	-1.115254	0.032684	-0.000064
H40	H	-1.074113	-0.297671	-0.208124
C41	C	-1.952407	0.437845	0.129257
C42	C	-1.824843	0.466368	0.129240
H43	H	-1.994470	0.472634	0.208986
H44	H	-1.994472	0.472613	0.049552
H45	H	-1.954787	0.348941	0.129268
H46	H	-1.822462	0.555272	0.129219
H47	H	-1.782767	0.431605	0.208966
H48	H	-0.942440	-0.073247	0.208015
H49	H	-1.812649	0.249608	-0.095542
H50	H	-0.901752	-0.403841	-0.000066
H51	H	-1.352338	-0.338921	0.369570
H52	H	-1.352348	-0.338905	0.630606
H53	H	-1.802903	0.243340	0.098807
H54	H	-1.797200	0.455637	-0.098594
C55	C	-1.646388	0.206070	0.487323
C56	C	-1.664233	0.127020	0.375395
H57	H	-1.628222	0.286517	0.454763
H58	H	-1.722007	0.214905	0.541550
H59	H	-1.576815	0.170404	0.541549
H60	H	-1.733812	0.162681	0.321174
H61	H	-1.588605	0.118189	0.321144
H62	H	-1.786257	-0.033931	0.383507
C63	C	-0.968550	-0.117718	-0.359204
C64	C	-0.931533	-0.055233	-0.241253
H65	H	-0.942741	-0.074839	-0.438608
H66	H	-0.929038	-0.201736	-0.359325
H67	H	-1.058982	-0.118935	-0.359680
H68	H	-0.841100	-0.054024	-0.240771
H69	H	-0.971041	0.028807	-0.241132
H70	H	-1.074371	-0.297690	0.208010
H71	H	-1.662650	0.087953	0.616628
H72	H	-1.791664	-0.024848	0.611067
H73	H	-1.300967	0.170383	0.000025
H74	H	-1.294568	0.408086	0.000032
