data_functionalizedCrystal
_audit_creation_method	'MofGen! by Chris Wilmer'
_symmetry_space_group_name_H-M	'P1'
_symmetry_Int_Tables_number	1
_symmetry_cell_setting	triclinic
loop_
_symmetry_equiv_pos_as_xyz
  x,y,z
_cell_length_a	14.908783
_cell_length_b	14.908178
_cell_length_c	18.215399
_cell_angle_alpha	93.325522
_cell_angle_beta	93.319871
_cell_angle_gamma	96.402596
loop_
_atom_site_label
_atom_site_type_symbol
_atom_site_fract_x
_atom_site_fract_y
_atom_site_fract_z
Zn1	Zn	1.363071	-0.280644	0.467152
Zn2	Zn	1.696404	0.052690	0.800485
Zn3	Zn	2.029738	0.386023	1.133819
Zn4	Zn	1.354241	-0.432033	0.336540
Zn5	Zn	1.687574	-0.098699	0.669873
Zn6	Zn	2.020908	0.234634	1.003207
Zn7	Zn	1.211698	-0.289395	0.336552
Zn8	Zn	1.545031	0.043938	0.669885
Zn9	Zn	1.878365	0.377271	1.003218
Zn10	Zn	1.202943	-0.440700	0.452025
Zn11	Zn	1.536277	-0.107367	0.785358
Zn12	Zn	1.869610	0.225966	1.118691
O13	O	1.282988	-0.360693	0.398067
O14	O	1.616322	-0.027360	0.731400
O15	O	1.949655	0.305974	1.064734
O16	O	1.488568	-0.293436	0.456152
O17	O	1.821902	0.039898	0.789485
O18	O	2.155235	0.373231	1.122819
O19	O	1.335301	-0.413147	0.233554
O20	O	1.668634	-0.079813	0.566887
O21	O	2.001968	0.253520	0.900221
O22	O	1.239137	-0.161556	0.360212
O23	O	1.572470	0.171778	0.693545
O24	O	1.905804	0.505111	1.026879
O25	O	1.482081	-0.404660	0.360192
O26	O	1.815414	-0.071327	0.693525
O27	O	2.148748	0.262006	1.026858
O28	O	1.350350	-0.155126	0.456163
O29	O	1.683683	0.178207	0.789497
O30	O	2.017017	0.511541	1.122830
O31	O	1.230575	-0.308352	0.233563
O32	O	1.563908	0.024982	0.566896
O33	O	1.897242	0.358315	0.900229
O34	O	1.083868	-0.316756	0.345544
O35	O	1.417201	0.016577	0.678877
O36	O	1.750535	0.349910	1.012210
O37	O	1.224216	-0.419433	0.557019
O38	O	1.557550	-0.086100	0.890352
O39	O	1.890883	0.247233	1.223685
O40	O	1.077436	-0.427920	0.430381
O41	O	1.410769	-0.094586	0.763714
O42	O	1.744103	0.238747	1.097048
O43	O	1.341861	-0.301840	0.568133
O44	O	1.675195	0.031493	0.901466
O45	O	2.008528	0.364826	1.234799
O46	O	1.326812	-0.559861	0.345523
O47	O	1.660145	-0.226528	0.678857
O48	O	1.993479	0.106806	1.012190
O49	O	1.215654	-0.566229	0.430369
O50	O	1.548988	-0.232896	0.763703
O51	O	1.882321	0.100437	1.097036
C52	C	1.047808	-0.374229	0.386322
C53	C	1.381141	-0.040896	0.719656
C54	C	1.714475	0.292438	1.052989
C55	C	0.947196	-0.380041	0.381314
C56	C	1.280529	-0.046708	0.714648
C57	C	1.613862	0.286625	1.047981
C58	C	0.764879	-0.275304	0.471963
C59	C	1.098212	0.058030	0.805296
C60	C	1.431545	0.391363	1.138630
C61	C	0.670344	-0.280762	0.467260
C62	C	1.003678	0.052571	0.800594
C63	C	1.337011	0.385905	1.133927
C64	C	0.663592	-0.396411	0.367203
C65	C	0.996925	-0.063078	0.700536
C66	C	1.330259	0.270256	1.033869
C67	C	0.758126	-0.390953	0.371906
C68	C	1.091459	-0.057619	0.705239
C69	C	1.424793	0.275714	1.038572
C70	C	0.808766	-0.330398	0.424288
C71	C	1.142099	0.002935	0.757622
C72	C	1.475433	0.336269	1.090955
C73	C	0.903302	-0.324945	0.428994
C74	C	1.236635	0.008388	0.762328
C75	C	1.569968	0.341722	1.095661
C76	C	0.896548	-0.440589	0.328934
C77	C	1.229881	-0.107256	0.662267
C78	C	1.563215	0.226078	0.995600
C79	C	0.802014	-0.446047	0.324231
C80	C	1.135347	-0.112714	0.657564
C81	C	1.468680	0.220620	0.990898
C82	C	1.269350	-0.595890	0.386321
C83	C	1.602683	-0.262557	0.719654
C84	C	1.936016	0.070777	1.052988
C85	C	1.263598	-0.696504	0.381325
C86	C	1.596931	-0.363170	0.714658
C87	C	1.930264	-0.029837	1.047991
C88	C	1.368508	-0.878727	0.471947
C89	C	1.701841	-0.545393	0.805280
C90	C	2.035174	-0.212060	1.138613
C91	C	1.363106	-0.973262	0.467255
C92	C	1.696440	-0.639929	0.800588
C93	C	2.029773	-0.306595	1.133921
C94	C	1.247390	-0.980111	0.367253
C95	C	1.580723	-0.646778	0.700586
C96	C	1.914056	-0.313444	1.033920
C97	C	1.252791	-0.885576	0.371945
C98	C	1.586124	-0.552243	0.705278
C99	C	1.919458	-0.218909	1.038611
C100	C	1.313353	-0.834887	0.424293
C101	C	1.646686	-0.501553	0.757626
C102	C	1.980020	-0.168220	1.090959
C103	C	1.318758	-0.740350	0.428981
C104	C	1.652092	-0.407016	0.762314
C105	C	1.985425	-0.073683	1.095647
C106	C	1.203038	-0.747201	0.328983
C107	C	1.536371	-0.413867	0.662316
C108	C	1.869704	-0.080534	0.995649
C109	C	1.197636	-0.841736	0.324291
C110	C	1.530970	-0.508403	0.657624
C111	C	1.864303	-0.175069	0.990957
C112	C	1.519087	-0.347105	0.409858
C113	C	1.852420	-0.013772	0.743191
C114	C	2.185754	0.319562	1.076525
C115	C	1.619698	-0.341314	0.414883
C116	C	1.953031	-0.007981	0.748216
C117	C	2.286365	0.325352	1.081549
C118	C	1.283047	-0.360627	0.590026
C119	C	1.616380	-0.027294	0.923359
C120	C	1.949714	0.306039	1.256693
C121	C	1.283072	-0.360599	0.671827
C122	C	1.616405	-0.027266	1.005161
C123	C	1.949739	0.306067	1.338494
C124	C	1.296705	-0.124576	0.409877
C125	C	1.630038	0.208757	0.743210
C126	C	1.963372	0.542091	1.076543
C127	C	1.302550	-0.023957	0.414909
C128	C	1.635884	0.309376	0.748242
C129	C	1.969217	0.642710	1.081576
C130	C	1.282986	-0.360690	0.206861
C131	C	1.616319	-0.027357	0.540194
C132	C	1.949652	0.305977	0.873528
C133	C	1.283151	-0.360453	0.125081
C134	C	1.616484	-0.027120	0.458415
C135	C	1.949817	0.306214	0.791748
C136	C	1.344354	-0.299313	0.865813
C137	C	1.677687	0.034020	1.199147
C138	C	2.011020	0.367353	1.532480
C139	C	1.344366	-0.299286	0.942674
C140	C	1.677699	0.034047	1.276007
C141	C	2.011033	0.367380	1.609341
C142	C	1.221863	-0.421742	0.931089
C143	C	1.555196	-0.088409	1.264423
C144	C	1.888529	0.244925	1.597756
C145	C	1.221847	-0.421764	0.854230
C146	C	1.555180	-0.088430	1.187564
C147	C	1.888513	0.244903	1.520897
C148	C	1.283097	-0.360551	0.821594
C149	C	1.616431	-0.027217	1.154928
C150	C	1.949764	0.306116	1.488261
C151	C	1.283126	-0.360502	0.975314
C152	C	1.616459	-0.027168	1.308648
C153	C	1.949792	0.306165	1.641981
C154	C	1.283138	-0.360473	1.058650
C155	C	1.616472	-0.027140	1.391983
C156	C	1.949805	0.306194	1.725317
C157	C	1.283084	-0.360578	0.738253
C158	C	1.616417	-0.027245	1.071587
C159	C	1.949750	0.306089	1.404920
H160	H	0.634615	-0.235896	0.506080
H161	H	0.967948	0.097437	0.839414
H162	H	1.301282	0.430771	1.172747
O163	O	0.943885	-0.500009	0.277502
O164	O	1.277219	-0.166675	0.610836
O165	O	1.610552	0.166658	0.944169
H166	H	0.921638	-0.572123	0.285583
H167	H	1.254971	-0.238789	0.618916
H168	H	1.588304	0.094544	0.952249
H169	H	1.148327	-0.883020	0.281672
H170	H	1.481660	-0.549687	0.615006
H171	H	1.814993	-0.216353	0.948339
H172	H	1.394246	-0.249419	0.978674
H173	H	1.727579	0.083914	1.312008
H174	H	2.060913	0.417247	1.645341
O175	O	1.410410	-0.233292	0.830608
O176	O	1.743743	0.100041	1.163942
O177	O	2.077077	0.433374	1.497275
H178	H	1.399007	-0.163134	0.848133
H179	H	1.732341	0.170199	1.181466
H180	H	2.065674	0.503533	1.514799
O181	O	1.433834	-0.824046	0.528396
O182	O	1.767167	-0.490713	0.861729
O183	O	2.100501	-0.157380	1.195062
H184	H	1.417236	-0.843043	0.584471
H185	H	1.750569	-0.509710	0.917804
H186	H	2.083903	-0.176376	1.251138
O187	O	1.422596	-1.020551	0.518649
O188	O	1.755930	-0.687218	0.851983
O189	O	2.089263	-0.353884	1.185316
H190	H	1.465618	-0.969418	0.555833
H191	H	1.798951	-0.636084	0.889166
H192	H	2.132285	-0.302751	1.222499
O193	O	0.957920	-0.259632	0.485490
O194	O	1.291253	0.073702	0.818823
O195	O	1.624586	0.407035	1.152156
H196	H	1.031029	-0.265095	0.480757
H197	H	1.364362	0.068238	0.814090
H198	H	1.697696	0.401572	1.147424
O199	O	1.155802	-0.487765	0.966288
O200	O	1.489135	-0.154431	1.299622
O201	O	1.822469	0.178902	1.632955
H202	H	1.166107	-0.477468	1.027163
H203	H	1.499441	-0.144134	1.360496
H204	H	1.832774	0.189199	1.693829
O205	O	1.182086	-1.034787	0.310785
O206	O	1.515419	-0.701454	0.644119
O207	O	1.848753	-0.368121	0.977452
H208	H	1.187607	-1.107888	0.315526
H209	H	1.520940	-0.774554	0.648860
H210	H	1.854274	-0.441221	0.982193
O211	O	0.608968	-0.461709	0.310699
O212	O	0.942302	-0.128376	0.644033
O213	O	1.275635	0.204958	0.977366
H214	H	0.535860	-0.456244	0.315441
H215	H	0.869194	-0.122911	0.648774
H216	H	1.202527	0.210423	0.982107
H217	H	1.171958	-0.471630	0.818225
H218	H	1.505291	-0.138297	1.151559
H219	H	1.838624	0.195036	1.484892
O220	O	1.384076	-0.685675	0.485439
O221	O	1.717409	-0.352342	0.818772
O222	O	2.050742	-0.019008	1.152106
H223	H	1.432622	-0.639944	0.456970
H224	H	1.765955	-0.306611	0.790304
H225	H	2.099288	0.026722	1.123637
O226	O	1.143544	-0.699924	0.277574
O227	O	1.476877	-0.366590	0.610908
O228	O	1.810210	-0.033257	0.944241
H229	H	1.099916	-0.659525	0.310309
H230	H	1.433249	-0.326191	0.643642
H231	H	1.766582	0.007142	0.976976
O232	O	0.819507	-0.209996	0.528457
O233	O	1.152840	0.123338	0.861790
O234	O	1.486174	0.456671	1.195123
H235	H	0.773106	-0.172598	0.560817
H236	H	1.106440	0.160735	0.894150
H237	H	1.439773	0.494069	1.227484
H238	H	0.760770	-0.495346	0.281580
H239	H	1.094103	-0.162013	0.614914
H240	H	1.427437	0.171321	0.948247
