data_functionalizedCrystal
_audit_creation_method	'MofGen! by Chris Wilmer'
_symmetry_space_group_name_H-M	'P1'
_symmetry_Int_Tables_number	1
_symmetry_cell_setting	triclinic
loop_
_symmetry_equiv_pos_as_xyz
  x,y,z
_cell_length_a	19.288864
_cell_length_b	14.971500
_cell_length_c	13.448316
_cell_angle_alpha	89.999484
_cell_angle_beta	89.981082
_cell_angle_gamma	96.621966
loop_
_atom_site_label
_atom_site_type_symbol
_atom_site_fract_x
_atom_site_fract_y
_atom_site_fract_z
O1	O	-0.921717	0.111577	0.083002
O2	O	-0.719506	0.126629	0.082933
O3	O	-0.826026	-0.011125	0.082973
O4	O	-0.815197	0.249332	0.082961
O5	O	-0.826016	-0.011126	-0.082411
O6	O	-0.719495	0.126628	-0.082451
O7	O	-0.921706	0.111576	-0.082382
Cu8	Cu	-0.820600	0.119102	-0.097517
Cu9	Cu	-0.820613	0.119103	0.098068
O10	O	-0.815186	0.249331	-0.082422
C11	C	-0.693623	0.126144	0.000232
C12	C	-0.616514	0.124690	0.000206
C13	C	-0.825535	-0.044448	0.000284
C14	C	-0.824078	-0.143736	0.000293
C15	C	-0.947590	0.112061	0.000321
C16	C	-1.024698	0.113515	0.000353
C17	C	-0.572085	0.205518	0.000218
C18	C	-0.499633	0.204153	0.000229
C19	C	-0.471614	0.121954	0.000248
C20	C	-0.516054	0.041115	0.000230
C21	C	-0.588504	0.042484	0.000209
C22	C	-0.363143	0.057337	0.058226
C23	C	-0.290694	0.055973	0.058253
C24	C	-0.248155	0.117731	0.000308
C25	C	-0.278072	0.180869	-0.057650
C26	C	-0.350522	0.182237	-0.057671
C27	C	-0.393056	0.120461	0.000270
C28	C	-0.125164	0.197083	0.000331
C29	C	-0.052712	0.195714	0.000336
C30	C	-0.069134	0.032675	0.000347
C31	C	-0.141585	0.034046	0.000332
C32	C	-0.169596	0.116253	0.000329
C33	C	-0.815678	0.282653	0.000269
C34	C	-0.817134	0.381942	0.000266
N35	N	-0.820596	0.119100	-0.235082
C36	C	-0.823400	0.809616	0.090442
C37	C	-0.822030	0.716325	0.090438
C38	C	-0.821343	0.669681	0.000284
C39	C	-0.822020	0.716335	-0.089873
C40	C	-0.823385	0.809626	-0.089867
C41	C	-0.819177	0.521887	-0.089877
C42	C	-0.817813	0.428589	-0.089883
C43	C	-0.817821	0.428585	0.090428
C44	C	-0.819186	0.521876	0.090433
C45	C	-0.819864	0.568524	0.000277
C46	C	-0.862766	0.173213	-0.287105
C47	C	-0.862775	0.173209	-0.391208
C48	C	-0.820609	0.119097	-0.443286
C49	C	-0.778438	0.064978	-0.391256
C50	C	-0.778433	0.064977	-0.287154
C51	C	-0.778448	0.064984	-0.608236
C52	C	-0.778452	0.064985	-0.712344
C53	C	-0.862790	0.173215	-0.712290
C54	C	-0.862786	0.173215	-0.608188
C55	C	-0.820613	0.119097	-0.556165
N56	N	-0.820622	0.119098	0.235632
H57	H	-0.594886	0.272458	0.000217
O58	O	-0.908259	0.231587	-0.552018
H59	H	-0.945546	0.188587	-0.504560
H60	H	-0.897126	0.217284	-0.754652
H61	H	-0.744094	0.020914	-0.244798
H62	H	-0.397773	0.007044	0.105417
H63	H	-0.821457	0.678351	-0.163278
H64	H	-0.821480	0.678348	0.163846
H65	H	-0.823928	0.847607	-0.163276
H66	H	-0.493236	-0.025811	0.000260
O67	O	-0.732968	0.006603	-0.447426
H68	H	-0.703651	-0.031036	-0.393758
O69	O	-0.038925	-0.055986	0.000355
H70	H	-0.056796	-0.094819	0.067754
O71	O	-0.817077	0.378290	-0.187128
H72	H	-0.863767	0.327641	-0.191428
O73	O	-0.189510	-0.053136	0.000323
H74	H	-0.222941	-0.056412	0.067716
H75	H	-0.624679	-0.023339	0.000200
O76	O	-0.908245	0.231578	-0.230936
H77	H	-0.937574	0.269199	-0.284605
O78	O	-0.258432	-0.012122	0.120769
H79	H	-0.200906	-0.002690	0.111062
O80	O	-0.824134	0.859926	0.187681
H81	H	-0.823423	0.811813	0.250365
O82	O	-0.732976	0.006621	-0.768521
H83	H	-0.703657	-0.031020	-0.714859
H84	H	-0.463452	0.269975	0.000236
H85	H	-0.744108	0.020914	-0.565881
H86	H	-0.374878	0.233644	-0.104866
H87	H	-0.897115	0.217272	-0.433561
O88	O	-0.155379	0.285747	0.000313
H89	H	-0.213223	0.273120	0.000311
H90	H	-0.819750	0.559850	0.163845
H91	H	-0.817267	0.390601	0.163837
H92	H	-0.243438	0.231158	-0.104835
H93	H	-0.819714	0.559867	-0.163292
H94	H	-0.016537	0.261537	0.000340
