data_functionalizedCrystal
_audit_creation_method	'MofGen! by Chris Wilmer'
_symmetry_space_group_name_H-M	'P1'
_symmetry_Int_Tables_number	1
_symmetry_cell_setting	triclinic
loop_
_symmetry_equiv_pos_as_xyz
  x,y,z
_cell_length_a	19.077236
_cell_length_b	16.625545
_cell_length_c	19.077174
_cell_angle_alpha	92.273408
_cell_angle_beta	85.294282
_cell_angle_gamma	92.318364
loop_
_atom_site_label
_atom_site_type_symbol
_atom_site_fract_x
_atom_site_fract_y
_atom_site_fract_z
Zn1	Zn	1.093734	-0.291123	-0.441975
Zn2	Zn	1.593734	0.208877	0.058025
Zn3	Zn	1.088917	-0.420758	-0.324088
Zn4	Zn	1.588917	0.079242	0.175912
Zn5	Zn	0.971115	-0.291135	-0.319358
Zn6	Zn	1.471115	0.208865	0.180642
Zn7	Zn	0.975807	-0.431113	-0.437192
Zn8	Zn	1.475807	0.068887	0.062808
O9	O	1.032393	-0.358532	-0.380653
O10	O	1.532393	0.141468	0.119347
O11	O	1.191748	-0.303980	-0.430318
O12	O	1.691748	0.196020	0.069682
O13	O	1.069311	-0.399234	-0.224810
O14	O	1.569311	0.100766	0.275190
O15	O	0.987433	-0.178300	-0.335646
O16	O	1.487433	0.321700	0.164354
O17	O	1.188209	-0.399222	-0.343707
O18	O	1.688209	0.100778	0.156293
O19	O	1.077521	-0.178291	-0.425732
O20	O	1.577521	0.321709	0.074268
O21	O	0.982762	-0.304001	-0.221335
O22	O	1.482762	0.195999	0.278665
O23	O	0.873085	-0.314043	-0.331008
O24	O	1.373085	0.185957	0.168992
O25	O	0.995430	-0.416872	-0.536477
O26	O	1.495430	0.083128	-0.036477
O27	O	0.876532	-0.416884	-0.417580
O28	O	1.376532	0.083116	0.082420
O29	O	1.082070	-0.314022	-0.539991
O30	O	1.582070	0.185978	-0.039991
O31	O	1.073860	-0.534965	-0.339069
O32	O	1.573860	-0.034965	0.160931
O33	O	0.990759	-0.542573	-0.422166
O34	O	1.490759	-0.042573	0.077834
C35	C	0.849229	-0.366589	-0.373262
C36	C	1.349229	0.133411	0.126738
C37	C	0.770871	-0.370056	-0.370117
C38	C	1.270871	0.129944	0.129883
C39	C	0.735904	-0.322182	-0.413802
C40	C	1.235904	0.177818	0.086198
C41	C	0.662278	-0.325436	-0.410841
C42	C	1.162278	0.174564	0.089159
C43	C	0.623620	-0.376567	-0.364198
C44	C	1.123620	0.123433	0.135802
C45	C	0.658592	-0.424443	-0.320508
C46	C	1.158592	0.075557	0.179492
C47	C	0.732216	-0.421185	-0.323466
C48	C	1.232216	0.078815	0.176534
C49	C	0.403228	-0.391616	-0.350504
C50	C	0.903228	0.108384	0.149496
C51	C	0.329599	-0.394872	-0.347550
C52	C	0.829599	0.105128	0.152450
C53	C	0.333290	-0.295863	-0.437883
C54	C	0.833290	0.204137	0.062117
C55	C	0.406916	-0.292613	-0.440840
C56	C	0.906916	0.207387	0.059160
C57	C	0.441881	-0.340486	-0.397148
C58	C	0.941881	0.159514	0.102852
N59	N	0.548363	-0.379896	-0.361171
N60	N	1.048363	0.120104	0.138829
N61	N	0.517137	-0.337152	-0.400171
N62	N	1.017137	0.162848	0.099829
C63	C	1.032316	-0.568026	-0.380628
C64	C	1.532316	-0.068026	0.119372
C65	C	1.032348	-0.657646	-0.380643
C66	C	1.532348	-0.157646	0.119357
C67	C	1.032376	-0.730428	-0.380658
C68	C	1.532376	-0.230428	0.119342
C69	C	1.032418	-0.821735	-0.380676
C70	C	1.532418	-0.321735	0.119324
C71	C	1.032455	-0.894510	-0.380686
C72	C	1.532455	-0.394510	0.119314
C73	C	1.032496	-0.985823	-0.380702
C74	C	1.532496	-0.485823	0.119298
C75	C	1.216273	-0.350445	-0.388074
C76	C	1.716273	0.149555	0.111926
C77	C	1.294632	-0.346998	-0.391236
C78	C	1.794632	0.153002	0.108764
C79	C	1.039811	-0.366601	-0.564528
C80	C	1.539811	0.133399	-0.064528
C81	C	1.042972	-0.370039	-0.642884
C82	C	1.542972	0.129961	-0.142884
C83	C	1.032491	-0.148221	-0.380695
C84	C	1.532491	0.351779	0.119305
C85	C	1.032533	-0.058599	-0.380713
C86	C	1.532533	0.441401	0.119287
C87	C	0.999398	-0.322073	-0.677887
C88	C	1.499398	0.177927	-0.177887
C89	C	1.002365	-0.325310	-0.751511
C90	C	1.502365	0.174690	-0.251511
C91	C	1.048910	-0.376510	-0.790132
C92	C	1.548910	0.123490	-0.290132
C93	C	1.092486	-0.424482	-0.755124
C94	C	1.592486	0.075518	-0.255124
C95	C	1.089515	-0.421248	-0.681501
C96	C	1.589515	0.078752	-0.181501
C97	C	1.062625	-0.391502	-1.010515
C98	C	1.562625	0.108498	-0.510515
C99	C	1.065595	-0.394731	-1.084143
C100	C	1.565595	0.105269	-0.584143
C101	C	0.975472	-0.295559	-1.080524
C102	C	1.475472	0.204441	-0.580524
C103	C	0.972508	-0.292326	-1.006900
C104	C	1.472508	0.207674	-0.506900
C105	C	1.016081	-0.340301	-0.971899
C106	C	1.516081	0.159699	-0.471899
N107	N	1.051946	-0.379819	-0.865387
N108	N	1.551946	0.120181	-0.365387
N109	N	1.013042	-0.336997	-0.896645
N110	N	1.513042	0.163003	-0.396645
C111	C	1.025045	-0.350435	-0.197496
C112	C	1.525045	0.149565	0.302504
C113	C	1.022021	-0.346764	-0.119145
C114	C	1.522021	0.153236	0.380855
H115	H	0.304813	-0.256887	-0.473454
H116	H	0.804813	0.243113	0.026546
C117	C	1.110597	-0.444230	-0.972024
C118	C	1.610597	0.055770	-0.472024
N119	N	1.146746	-0.483930	-0.943032
N120	N	1.646746	0.016070	-0.443032
C121	C	0.770679	-0.473852	-0.275410
C122	C	1.270679	0.026148	0.224590
N123	N	0.799648	-0.513521	-0.239212
N124	N	1.299648	-0.013521	0.260788
C125	C	0.778421	-0.265932	-0.465114
C126	C	1.278421	0.234068	0.034886
N127	N	0.810442	-0.223559	-0.503760
N128	N	1.310442	0.276441	-0.003760
H129	H	0.627111	-0.466072	-0.282526
H130	H	1.127111	0.033928	0.217474
C131	C	0.623818	-0.272773	-0.458901
C132	C	1.123818	0.227227	0.041099
N133	N	0.594851	-0.233105	-0.495102
N134	N	1.094851	0.266895	0.004898
H135	H	0.298125	-0.436514	-0.309567
H136	H	0.798125	0.063486	0.190433
C137	C	0.954437	-0.272534	-0.790010
C138	C	1.454437	0.227466	-0.290010
N139	N	0.918337	-0.232778	-0.819008
N140	N	1.418337	0.267222	-0.319008
C141	C	0.921303	-0.236004	-0.964423
C142	C	1.421303	0.263996	-0.464423
N143	N	0.882736	-0.193580	-0.932429
N144	N	1.382736	0.306420	-0.432429
H145	H	0.961499	-0.280375	-0.646447
H146	H	1.461499	0.219625	-0.146447
C147	C	1.143527	-0.480992	-0.797603
C148	C	1.643527	0.019008	-0.297603
N149	N	1.181916	-0.523623	-0.829594
N150	N	1.681916	-0.023623	-0.329594
C151	C	1.137453	-0.474012	-0.642999
C152	C	1.637453	0.025988	-0.142999
N153	N	1.173561	-0.513755	-0.614000
N154	N	1.673561	-0.013755	-0.114000
C155	C	0.927541	-0.242796	-1.119032
C156	C	1.427541	0.257204	-0.619032
N157	N	0.891434	-0.203055	-1.148035
N158	N	1.391434	0.296945	-0.648035
H159	H	0.431688	-0.430598	-0.314927
H160	H	0.931688	0.069402	0.185073
H161	H	0.438386	-0.250979	-0.478825
H162	H	0.938386	0.249021	0.021175
C163	C	1.116798	-0.451060	-1.126624
C164	C	1.616798	0.048940	-0.626624
N165	N	1.155363	-0.493486	-1.158621
N166	N	1.655363	0.006514	-0.658621
