data_functionalizedCrystal
_audit_creation_method	'MofGen! by Chris Wilmer'
_symmetry_space_group_name_H-M	'P1'
_symmetry_Int_Tables_number	1
_symmetry_cell_setting	triclinic
loop_
_symmetry_equiv_pos_as_xyz
  x,y,z
_cell_length_a	10.489741
_cell_length_b	14.044220
_cell_length_c	12.503572
_cell_angle_alpha	86.156832
_cell_angle_beta	93.551639
_cell_angle_gamma	88.864026
loop_
_atom_site_label
_atom_site_type_symbol
_atom_site_fract_x
_atom_site_fract_y
_atom_site_fract_z
O1	O	-1.714360	-0.128402	-0.089257
O2	O	-1.214360	0.371598	0.410743
O3	O	-1.344439	-0.140964	-0.089274
O4	O	-0.844439	0.359036	0.410726
O5	O	-1.523846	0.003339	-0.089255
O6	O	-1.023846	0.503339	0.410745
O7	O	-1.534953	-0.272705	-0.089275
O8	O	-1.034953	0.227295	0.410725
O9	O	-1.510356	-0.007531	0.089386
O10	O	-1.010356	0.492469	0.589386
O11	O	-1.330949	-0.151834	0.089367
O12	O	-0.830949	0.348166	0.589367
O13	O	-1.700869	-0.139273	0.089384
O14	O	-1.200869	0.360727	0.589384
Cu15	Cu	-1.514677	-0.146546	0.105687
Cu16	Cu	-1.014677	0.353454	0.605687
Cu17	Cu	-1.530631	-0.133690	-0.105576
Cu18	Cu	-1.030631	0.366310	0.394424
O19	O	-1.521462	-0.283575	0.089365
O20	O	-1.021462	0.216425	0.589365
C21	C	-1.290066	-0.145450	0.000045
C22	C	-0.790066	0.354550	0.500045
C23	C	-1.148150	-0.142611	0.000038
C24	C	-0.648150	0.357389	0.500038
C25	C	-1.512240	0.033251	0.000066
C26	C	-1.012240	0.533251	0.500066
C27	C	-1.497740	0.138576	0.000066
C28	C	-0.997740	0.638576	0.500066
C29	C	-1.755242	-0.134786	0.000063
C30	C	-1.255242	0.365214	0.500063
C31	C	-1.897160	-0.137625	0.000062
C32	C	-1.397160	0.362375	0.500062
C33	C	-1.070696	-0.050796	0.000055
C34	C	-0.570696	0.449204	0.500055
C35	C	-0.989620	-0.088809	-0.088025
C36	C	-0.489620	0.411191	0.411975
C37	C	-0.976355	-0.099548	0.088101
C38	C	-0.476355	0.400452	0.588101
C39	C	-1.068948	-0.180657	-0.088114
C40	C	-0.568948	0.319343	0.411886
C41	C	-1.055686	-0.191389	0.088090
C42	C	-0.555686	0.308611	0.588090
C43	C	-0.974646	-0.229468	-0.000011
C44	C	-0.474646	0.270532	0.499989
C45	C	-1.533069	-0.313487	0.000042
C46	C	-1.033069	0.186513	0.500042
C47	C	-1.547569	-0.418812	0.000034
C48	C	-1.047569	0.081188	0.500034
N49	N	-1.503465	-0.155587	0.254278
N50	N	-1.003465	0.344413	0.754278
C51	C	-1.471233	0.331419	0.000050
C52	C	-0.971233	0.831419	0.500050
C53	C	-1.574071	0.388351	0.000051
C54	C	-1.074071	0.888351	0.500051
C55	C	-1.559322	0.495655	0.000042
C56	C	-1.059322	0.995655	0.500042
C57	C	-1.485980	0.224105	0.000059
C58	C	-0.985980	0.724105	0.500059
N59	N	-1.541853	-0.124641	-0.254168
N60	N	-1.041853	0.375359	0.245832
C61	C	-1.486973	-0.168896	0.473391
C62	C	-0.986973	0.331104	0.973391
C63	C	-1.558341	-0.111336	0.526726
C64	C	-1.058341	0.388664	1.026726
C65	C	-1.549164	-0.118741	0.648648
C66	C	-1.049164	0.381259	1.148648
C67	C	-1.496148	-0.161492	0.351458
C68	C	-0.996148	0.338508	0.851458
H69	H	-1.112738	0.024690	-0.000049
H70	H	-0.612738	0.524690	0.499951
H71	H	-1.372122	0.363266	0.000043
H72	H	-0.872122	0.863266	0.500043
H73	H	-1.109343	-0.214940	-0.162663
H74	H	-0.609343	0.285060	0.337337
O75	O	-1.639491	-0.045835	0.472136
O76	O	-1.139491	0.454165	0.972136
C77	C	-1.704075	0.006208	0.545739
C78	C	-1.204075	0.506208	1.045739
H79	H	-1.645667	0.002804	0.625940
H80	H	-1.145667	0.502804	1.125940
H81	H	-1.717193	0.083784	0.513144
H82	H	-1.217193	0.583784	1.013144
H83	H	-1.801589	-0.025877	0.557648
H84	H	-1.301589	0.474123	1.057648
H85	H	-1.418987	-0.223732	0.519292
H86	H	-0.918987	0.276268	1.019292
H87	H	-0.960288	-0.045428	-0.162486
H88	H	-0.460288	0.454572	0.337514
H89	H	-0.932889	-0.305023	-0.000065
H90	H	-0.432889	0.194977	0.499935
H91	H	-1.085046	-0.234738	0.162555
H92	H	-0.585046	0.265262	0.662555
H93	H	-1.673195	0.356507	-0.000016
H94	H	-1.173195	0.856507	0.499984
O95	O	-0.928145	-0.058465	0.176908
O96	O	-0.428145	0.441535	0.676908
C97	C	-0.977281	0.035738	0.176559
C98	C	-0.477281	0.535738	0.676559
H99	H	-1.070927	0.042810	0.124996
H100	H	-0.570927	0.542810	0.624996
H101	H	-0.995135	0.053086	0.262219
H102	H	-0.495135	0.553086	0.762219
H103	H	-0.905515	0.087493	0.142181
H104	H	-0.405515	0.587493	0.642181
