data_functionalizedCrystal
_audit_creation_method	'MofGen! by Chris Wilmer'
_symmetry_space_group_name_H-M	'P1'
_symmetry_Int_Tables_number	1
_symmetry_cell_setting	triclinic
loop_
_symmetry_equiv_pos_as_xyz
  x,y,z
_cell_length_a	17.699083
_cell_length_b	16.992695
_cell_length_c	16.176319
_cell_angle_alpha	89.993125
_cell_angle_beta	89.998611
_cell_angle_gamma	86.975619
loop_
_atom_site_label
_atom_site_type_symbol
_atom_site_fract_x
_atom_site_fract_y
_atom_site_fract_z
O1	O	1.010252	0.099146	-0.068631
O2	O	0.790676	0.112045	-0.068658
O3	O	0.899584	-0.008546	-0.068638
O4	O	0.901344	0.219736	-0.068651
O5	O	0.899567	-0.008553	0.068855
O6	O	0.790660	0.112037	0.068835
O7	O	1.010235	0.099138	0.068862
Cu8	Cu	0.900446	0.105587	0.081403
Cu9	Cu	0.900465	0.105596	-0.081199
O10	O	0.901328	0.219729	0.068842
C11	C	0.762442	0.111579	0.000085
C12	C	0.678338	0.110192	0.000075
C13	C	0.897311	-0.037758	0.000108
C14	C	0.890554	-0.124789	0.000107
C15	C	0.634124	0.180976	0.000071
C16	C	0.555099	0.179669	0.000082
C17	C	0.520290	0.107576	0.000091
C18	C	0.564510	0.036787	0.000097
C19	C	0.643533	0.038095	0.000092
C20	C	0.245818	0.031509	0.000118
C21	C	0.166789	0.030206	0.000120
C22	C	0.157384	0.173082	0.000108
C23	C	0.236408	0.174391	0.000103
C24	C	0.280621	0.103602	0.000113
C25	C	0.366308	0.105020	0.000103
C26	C	0.434604	0.106157	0.000095
C27	C	0.955751	-0.175154	0.000116
C28	C	0.949398	-0.256928	0.000107
C29	C	0.877846	-0.288336	0.000096
C30	C	0.812643	-0.237965	0.000084
C31	C	0.818998	-0.156192	0.000087
C32	C	0.851510	-0.531884	0.000081
C33	C	0.845160	-0.613663	0.000081
C34	C	0.981915	-0.632621	0.000102
C35	C	0.988263	-0.550845	0.000110
C36	C	0.923061	-0.500481	0.000094
N37	N	0.871350	-0.371923	0.000090
N38	N	0.929558	-0.416897	0.000095
C39	C	1.038469	0.099604	0.000117
C40	C	1.122574	0.100991	0.000122
C41	C	0.903601	0.248941	0.000094
C42	C	0.910358	0.335972	0.000090
N43	N	0.900438	0.105580	0.195768
N44	N	0.900479	0.105597	-0.195564
C45	C	0.948679	0.052204	0.239041
C46	C	0.948683	0.052203	0.325588
C47	C	0.900449	0.105583	0.368861
C48	C	0.852202	0.158961	0.325582
C49	C	0.852195	0.158957	0.239036
C50	C	0.852229	0.158976	0.674610
C51	C	0.852242	0.158977	0.761161
C52	C	0.948717	0.052222	0.761162
C53	C	0.948709	0.052218	0.674617
C54	C	0.900461	0.105593	0.631345
C55	C	0.900456	0.105593	0.537501
C56	C	0.900457	0.105588	0.462703
H57	H	0.519103	0.237308	0.000078
C58	C	1.001755	-0.006502	0.373185
H59	H	1.030489	-0.038285	0.335019
H60	H	0.972571	-0.039108	0.406958
H61	H	1.034963	0.021673	0.406935
H62	H	0.765906	-0.115186	0.000080
H63	H	0.987989	0.008755	0.639387
C64	C	0.274694	0.253692	0.000097
H65	H	0.237043	0.295662	0.000104
H66	H	0.305326	0.257177	-0.047850
H67	H	0.305324	0.257165	0.048050
H68	H	0.138450	-0.028504	0.000128
H69	H	0.988001	0.008758	0.796403
H70	H	0.987960	0.008740	0.203814
C71	C	0.294446	-0.046354	0.000117
H72	H	0.346495	-0.035255	0.000121
H73	H	0.283424	-0.075916	-0.047828
H74	H	0.283427	-0.075924	0.048071
H75	H	0.536162	-0.021912	0.000116
C76	C	0.766450	-0.648211	0.000054
H77	H	0.728527	-0.606505	0.000035
H78	H	0.761115	-0.679724	0.047998
H79	H	0.761147	-0.679710	-0.047902
C80	C	1.053634	-0.688018	0.000111
H81	H	1.097156	-0.657600	0.000123
H82	H	1.054004	-0.720306	-0.047836
H83	H	1.053993	-0.720317	0.048064
C84	C	0.799165	0.217692	0.627022
H85	H	0.770448	0.249488	0.665191
H86	H	0.765953	0.189533	0.593269
H87	H	0.828362	0.250296	0.593253
H88	H	1.014017	-0.149588	0.000131
C89	C	0.799133	0.217671	0.191432
H90	H	0.806032	0.210019	0.133692
H91	H	0.810512	0.269987	0.205603
H92	H	0.748112	0.209215	0.205624
C93	C	0.692168	-0.039767	0.000088
H94	H	0.660121	-0.082891	0.000085
H95	H	0.723194	-0.042232	0.048031
H96	H	0.723187	-0.042221	-0.047868
H97	H	0.812925	0.202421	0.360819
C98	C	1.066969	-0.516298	0.000129
H99	H	1.061415	-0.460384	0.000139
H100	H	1.094036	-0.533585	-0.047811
H101	H	1.094008	-0.533603	0.048089
H102	H	0.121377	0.230722	0.000103
C103	C	1.021115	-0.312326	0.000126
H104	H	1.064639	-0.281909	0.000145
H105	H	1.021493	-0.344616	-0.047821
H106	H	1.021467	-0.344624	0.048079
C107	C	0.799180	0.217691	0.808764
H108	H	0.806102	0.210053	0.866504
H109	H	0.748158	0.209238	0.794593
H110	H	0.810559	0.270010	0.794570
C111	C	0.672407	0.260279	0.000061
H112	H	0.634754	0.302247	0.000068
H113	H	0.703038	0.263764	-0.047887
H114	H	0.703039	0.263756	0.048013
H115	H	0.798417	-0.490887	0.000069
H116	H	0.754384	-0.263544	0.000070
