data_functionalizedCrystal
_audit_creation_method	'MofGen! by Chris Wilmer'
_symmetry_space_group_name_H-M	'P1'
_symmetry_Int_Tables_number	1
_symmetry_cell_setting	triclinic
loop_
_symmetry_equiv_pos_as_xyz
  x,y,z
_cell_length_a	6.817900
_cell_length_b	11.102244
_cell_length_c	19.453114
_cell_angle_alpha	94.504759
_cell_angle_beta	101.709288
_cell_angle_gamma	108.604870
loop_
_atom_site_label
_atom_site_type_symbol
_atom_site_fract_x
_atom_site_fract_y
_atom_site_fract_z
V1	V	-4.033148	-0.177162	-0.218997
O2	O	-3.993679	0.007152	-0.214830
O3	O	-4.010456	-0.349972	-0.217498
O4	O	-3.975747	-0.175034	-0.314510
O5	O	-4.028628	-0.168998	-0.117146
V6	V	-4.514612	-0.155045	-0.206815
O7	O	-4.298925	-0.225676	-0.245719
O8	O	-4.699032	-0.106530	-0.180093
O9	O	-4.314098	0.017766	-0.208315
O10	O	-4.671478	-0.339358	-0.210982
O11	O	-4.636529	-0.163209	-0.308666
O12	O	-4.348807	-0.157173	-0.111302
C13	C	-3.862002	-0.392081	-0.214042
C14	C	-3.924675	-0.533360	-0.213453
C15	C	-3.916966	-0.581204	-0.148857
C16	C	-3.975866	-0.713953	-0.148311
C17	C	-4.050173	-0.751003	-0.276963
C18	C	-3.991288	-0.618257	-0.277509
C19	C	-3.850353	-0.496307	-0.084801
C20	C	-3.842639	-0.544150	-0.020199
C21	C	-3.901539	-0.676899	-0.019654
C22	C	-3.968153	-0.761805	-0.083710
C23	C	-3.817726	-0.168928	-0.337791
C24	C	-3.852248	-0.168332	-0.415873
C25	C	-4.051197	-0.174431	-0.456130
C26	C	-4.083634	-0.173871	-0.529497
C27	C	-3.917123	-0.167238	-0.562606
C28	C	-3.718142	-0.161130	-0.522339
C29	C	-3.685704	-0.161678	-0.448972
N30	N	-3.867364	-0.234354	-0.681394
N31	N	-3.898192	-0.233838	-0.751090
C32	C	-4.014843	-0.165586	-0.783654
N33	N	-4.099540	-0.097887	-0.743892
N34	N	-4.068718	-0.098410	-0.674191
C35	C	-3.952275	-0.166643	-0.642159
C36	C	-4.248977	-0.171076	-0.903464
C37	C	-4.281403	-0.170508	-0.976831
C38	C	-3.915911	-0.157780	-0.969673
C39	C	-3.883484	-0.158335	-0.896306
C40	C	-4.050028	-0.164990	-0.863206
C41	C	-4.125895	0.059868	-0.211768
C42	C	-4.042460	0.201145	-0.212362
C43	C	-4.170171	-0.163282	-0.088018
C44	C	-4.114887	-0.163872	-0.009935
H45	H	-3.788415	-0.475013	0.031952
H46	H	-4.245651	-0.178845	-0.562281
H47	H	-3.895274	-0.715849	0.032947
C48	C	-4.234392	-0.181729	-0.419723
N49	N	-4.372372	-0.187218	-0.392300
C50	C	-3.664634	-0.151651	-0.852023
N51	N	-3.499788	-0.146618	-0.818670
H52	H	-3.582567	-0.155725	-0.549300
H53	H	-4.016124	-0.869898	-0.083260
C54	C	-4.123414	-0.844402	-0.347419
N55	N	-4.178564	-0.914750	-0.400487
C56	C	-3.999765	-0.565624	-0.348568
N57	N	-4.006156	-0.525982	-0.402092
H58	H	-3.523689	-0.156701	-0.416194
C59	C	-4.500266	-0.177204	-1.021113
N60	N	-4.665117	-0.182246	-1.054467
H61	H	-3.802378	-0.388214	-0.085238
H62	H	-4.384584	-0.176490	-0.876513
H63	H	-3.780328	-0.152367	-0.996628
