data_functionalizedCrystal
_audit_creation_method	'MofGen! by Chris Wilmer'
_symmetry_space_group_name_H-M	'P1'
_symmetry_Int_Tables_number	1
_symmetry_cell_setting	triclinic
loop_
_symmetry_equiv_pos_as_xyz
  x,y,z
_cell_length_a	10.654550
_cell_length_b	14.044220
_cell_length_c	9.730223
_cell_angle_alpha	90.003717
_cell_angle_beta	90.007970
_cell_angle_gamma	88.836890
loop_
_atom_site_label
_atom_site_type_symbol
_atom_site_fract_x
_atom_site_fract_y
_atom_site_fract_z
O1	O	1.681230	0.133229	0.114408
O2	O	2.181230	0.633229	0.614408
O3	O	1.317027	0.145922	0.114387
O4	O	1.817027	0.645922	0.614387
O5	O	1.493662	0.001555	0.114384
O6	O	1.993662	0.501555	0.614384
O7	O	1.504595	0.277596	0.114411
O8	O	2.004595	0.777596	0.614411
O9	O	1.493644	0.001556	-0.114196
O10	O	1.993644	0.501556	0.385804
O11	O	1.317010	0.145923	-0.114193
O12	O	1.817010	0.645923	0.385807
O13	O	1.681213	0.133230	-0.114172
O14	O	2.181213	0.633230	0.385828
Zn15	Zn	1.499108	0.139577	-0.150474
Zn16	Zn	1.999108	0.639577	0.349526
Zn17	Zn	1.499131	0.139575	0.150689
Zn18	Zn	1.999131	0.639575	0.650689
O19	O	1.504578	0.277597	-0.114169
O20	O	2.004578	0.777597	0.385831
C21	C	1.270127	0.144991	0.000094
C22	C	1.770127	0.644991	0.500094
C23	C	1.130403	0.142202	0.000085
C24	C	1.630403	0.642202	0.500085
C25	C	1.059459	0.227203	0.000114
C26	C	1.559459	0.727203	0.500114
C27	C	0.928175	0.224578	0.000137
C28	C	1.428175	0.724578	0.500137
C29	C	0.938790	0.051942	0.000109
C30	C	1.438790	0.551942	0.500109
C31	C	1.070072	0.054569	0.000076
C32	C	1.570072	0.554569	0.500076
C33	C	1.119790	0.314837	0.000123
C34	C	1.619790	0.814837	0.500123
C35	C	1.048846	0.399845	0.000153
C36	C	1.548846	0.899845	0.500153
C37	C	0.917561	0.397219	0.000177
C38	C	1.417561	0.897219	0.500177
C39	C	0.857221	0.309585	0.000170
C40	C	1.357221	0.809585	0.500170
C41	C	1.488867	-0.033790	0.000093
C42	C	1.988867	0.466210	0.500093
C43	C	1.474592	-0.139110	0.000090
C44	C	1.974592	0.360890	0.500090
C45	C	1.448493	-0.331943	0.000108
C46	C	1.948493	0.168057	0.500108
C47	C	1.549741	-0.388911	0.000119
C48	C	2.049741	0.111089	0.500119
C49	C	1.535219	-0.496210	0.000129
C50	C	2.035219	0.003790	0.500129
C51	C	1.463013	-0.224634	0.000098
C52	C	1.963013	0.275366	0.500098
C53	C	1.728113	0.134161	0.000124
C54	C	2.228113	0.634161	0.500124
C55	C	1.867836	0.136950	0.000142
C56	C	2.367836	0.636950	0.500142
C57	C	1.509372	0.312942	0.000125
C58	C	2.009372	0.812942	0.500125
C59	C	1.523648	0.418262	0.000137
C60	C	2.023648	0.918262	0.500137
N61	N	1.499102	0.139577	-0.356011
N62	N	1.999102	0.639577	0.143989
C63	C	1.420874	0.203474	-0.427971
C64	C	1.920874	0.703474	0.072029
C65	C	1.420899	0.203472	-0.571854
C66	C	1.920899	0.703472	-0.071854
C67	C	1.577383	0.075668	-0.571804
C68	C	2.077383	0.575668	-0.071804
C69	C	1.577364	0.075675	-0.427924
C70	C	2.077364	0.575675	0.072076
C71	C	1.342613	0.267376	-0.356058
C72	C	1.842613	0.767376	0.143942
C73	C	1.264378	0.331278	-0.428018
C74	C	1.764378	0.831278	0.071982
C75	C	1.264403	0.331276	-0.571901
C76	C	1.764403	0.831276	-0.071901
C77	C	1.342663	0.267373	-0.643824
C78	C	1.842663	0.767373	-0.143824
N79	N	1.499146	0.139568	0.356226
N80	N	1.999146	0.639568	0.856226
H81	H	0.859801	0.466437	0.000187
H82	H	1.359801	0.966437	0.500187
H83	H	1.127836	-0.014647	0.000056
H84	H	1.627836	0.485353	0.500056
F85	F	1.677296	-0.347332	0.000115
F86	F	2.177296	0.152668	0.500115
H87	H	1.350913	-0.363754	0.000106
H88	H	1.850913	0.136246	0.500106
H89	H	1.226688	0.316985	0.000110
H90	H	1.726688	0.816985	0.500110
H91	H	1.342583	0.267382	-0.238901
H92	H	1.842583	0.767382	0.261099
H93	H	1.200668	0.383312	-0.369451
H94	H	1.700668	0.883312	0.130549
H95	H	1.200710	0.383314	-0.630489
H96	H	1.700710	0.883314	-0.130489
H97	H	1.342686	0.267383	-0.760983
H98	H	1.842686	0.767383	-0.260983
H99	H	1.097984	0.471193	0.000147
H100	H	1.597984	0.971193	0.500147
F101	F	1.660627	0.007669	-0.351338
F102	F	2.160627	0.507669	0.148662
F103	F	0.717494	0.306795	0.000176
F104	F	1.217494	0.806795	0.500176
F105	F	0.874567	-0.041317	0.000107
F106	F	1.374567	0.458683	0.500107
H107	H	1.641098	0.023639	-0.630373
H108	H	2.141098	0.523639	-0.130373
