data_functionalizedCrystal
_audit_creation_method	'MofGen! by Chris Wilmer'
_symmetry_space_group_name_H-M	'P1'
_symmetry_Int_Tables_number	1
_symmetry_cell_setting	triclinic
loop_
_symmetry_equiv_pos_as_xyz
  x,y,z
_cell_length_a	18.215407
_cell_length_b	12.827892
_cell_length_c	18.215399
_cell_angle_alpha	89.973563
_cell_angle_beta	89.985640
_cell_angle_gamma	90.012835
loop_
_atom_site_label
_atom_site_type_symbol
_atom_site_fract_x
_atom_site_fract_y
_atom_site_fract_z
Zn1	Zn	1.125099	-0.416090	-0.416088
Zn2	Zn	1.125034	-0.590857	-0.293030
Zn3	Zn	1.002038	-0.416123	-0.293040
Zn4	Zn	1.002017	-0.590782	-0.416060
O5	O	1.063547	-0.503463	-0.354554
O6	O	1.228074	-0.439291	-0.399771
O7	O	1.108700	-0.567723	-0.190047
O8	O	1.018398	-0.269882	-0.309379
O9	O	1.228027	-0.567691	-0.309361
O10	O	1.108810	-0.269858	-0.399781
O11	O	1.018335	-0.439346	-0.190054
O12	O	0.899051	-0.439274	-0.309352
O13	O	1.018363	-0.567564	-0.519048
O14	O	0.899036	-0.567595	-0.399734
O15	O	1.108790	-0.439219	-0.519068
O16	O	1.108680	-0.737083	-0.309334
O17	O	1.018300	-0.737028	-0.399724
C18	C	0.872341	-0.503431	-0.354541
C19	C	0.790542	-0.503442	-0.354553
C20	C	0.602372	-0.436722	-0.401704
C21	C	0.525513	-0.436731	-0.401707
C22	C	0.525474	-0.570233	-0.307417
C23	C	0.602332	-0.570218	-0.307412
C24	C	0.640778	-0.503464	-0.354559
C25	C	0.487062	-0.503488	-0.354567
C26	C	0.403729	-0.503498	-0.354570
C27	C	0.724117	-0.503452	-0.354556
C28	C	1.063501	-0.774973	-0.354541
C29	C	1.063549	-0.891126	-0.354559
C30	C	1.108267	-0.942816	-0.399334
C31	C	1.108318	-1.062866	-0.399354
C32	C	1.255500	-0.503496	-0.354568
C33	C	1.337299	-0.503510	-0.354573
C34	C	1.063582	-0.503379	-0.546507
C35	C	1.063596	-0.503344	-0.628306
C36	C	1.063613	-0.230893	-0.354584
C37	C	1.063641	-0.114740	-0.354597
C38	C	1.016583	-0.436453	-0.816505
C39	C	1.016596	-0.436432	-0.893364
C40	C	1.110698	-0.570110	-0.893345
C41	C	1.110681	-0.570136	-0.816488
C42	C	1.063625	-0.503301	-0.778070
C43	C	1.063654	-0.503255	-0.931786
C44	C	1.063669	-0.503232	-1.015120
C45	C	1.063609	-0.503325	-0.694731
C46	C	1.063555	-0.503471	-0.163348
C47	C	1.063682	-0.503212	-0.081550
H48	H	0.494162	-0.624583	-0.269032
H49	H	0.978290	-0.381999	-0.924655
C50	C	1.160042	-1.122916	-0.451142
N51	N	1.199002	-1.168148	-0.490151
H52	H	1.025356	-1.070295	-0.316259
H53	H	1.148989	-0.624575	-0.785193
C54	C	1.162295	-0.643852	-0.935612
N55	N	1.201101	-0.699479	-0.967446
C56	C	0.644660	-0.363281	-0.453561
N57	N	0.676510	-0.307960	-0.492620
H58	H	1.025297	-0.935749	-0.316245
H59	H	0.494246	-0.382381	-0.440096
C60	C	1.159942	-0.882536	-0.451100
N61	N	1.198866	-0.837136	-0.490091
C62	C	0.644581	-0.643644	-0.255546
N63	N	0.676404	-0.698943	-0.216480
H64	H	0.978267	-0.382032	-0.785227
