data_functionalizedCrystal
_audit_creation_method	'MofGen! by Chris Wilmer'
_symmetry_space_group_name_H-M	'P1'
_symmetry_Int_Tables_number	1
_symmetry_cell_setting	triclinic
loop_
_symmetry_equiv_pos_as_xyz
  x,y,z
_cell_length_a	14.560432
_cell_length_b	21.606444
_cell_length_c	21.606444
_cell_angle_alpha	59.997726
_cell_angle_beta	89.999969
_cell_angle_gamma	60.001981
loop_
_atom_site_label
_atom_site_type_symbol
_atom_site_fract_x
_atom_site_fract_y
_atom_site_fract_z
Zr1	Zr	0.884807	0.677436	-0.081210
O2	O	0.738166	0.806558	-0.180039
O3	O	0.929755	0.548317	-0.050913
O4	O	0.929763	0.677438	-0.180035
O5	O	0.738157	0.677434	0.050936
O6	O	1.080904	0.677436	-0.180033
O7	O	0.738158	0.677437	-0.050917
O8	O	1.080889	0.446463	0.050943
O9	O	0.738172	0.908408	-0.180040
O10	O	1.061725	0.601423	-0.037991
O11	O	0.948930	0.601423	0.038019
O12	O	0.948940	0.753446	-0.114005
O13	O	0.836144	0.753445	-0.037995
Zr14	Zr	1.125857	0.677429	0.081238
Zr15	Zr	1.125859	0.677433	-0.081206
Zr16	Zr	0.884805	0.677432	0.081234
Zr17	Zr	0.884816	0.839875	-0.081211
Zr18	Zr	1.125848	0.514990	0.081239
O19	O	1.080909	0.806548	0.050941
O20	O	1.080911	0.806554	-0.180033
O21	O	0.738164	0.806552	0.050935
O22	O	1.272498	0.548308	0.180067
O23	O	1.272500	0.548313	-0.050907
O24	O	0.929753	0.548312	0.180061
O25	O	1.272507	0.677431	-0.050908
O26	O	1.080901	0.677428	0.180063
O27	O	0.929760	0.677429	0.180060
O28	O	1.272506	0.677428	0.050945
O29	O	0.929776	0.908406	-0.180037
O30	O	1.080888	0.446460	0.180064
O31	O	1.272492	0.446457	0.180068
O32	O	1.272493	0.446460	0.050946
O33	O	0.738170	0.908405	-0.050919
O34	O	0.929775	0.908403	-0.050915
O35	O	1.061724	0.601420	0.114033
O36	O	1.174519	0.601420	0.038023
O37	O	1.061734	0.753443	-0.037991
O38	O	0.948938	0.753442	0.038018
C39	C	1.005321	0.474246	0.000015
C40	C	1.005317	0.405286	0.000015
C41	C	0.703812	0.677436	0.000009
C42	C	0.601479	0.677437	0.000007
C43	C	1.064226	-0.018022	-0.039662
C44	C	1.064218	0.046778	-0.039666
C45	C	1.005337	0.079175	0.000011
C46	C	0.946450	0.046774	0.039687
C47	C	0.946452	-0.018021	0.039685
C48	C	0.946438	0.308085	0.039695
C49	C	0.946443	0.372882	0.039695
C50	C	1.064204	0.372884	-0.039656
C51	C	1.064207	0.308089	-0.039658
C52	C	1.005315	0.275697	0.000014
C53	C	1.005323	0.205434	0.000016
C54	C	1.005335	0.149432	0.000014
C55	C	0.601456	0.677451	-0.112226
C56	C	0.553367	0.677460	-0.168343
C57	C	0.457217	0.677460	-0.168340
C58	C	0.409156	0.677448	-0.112214
C59	C	0.457245	0.677438	-0.056098
C60	C	0.553395	0.677441	-0.056108
C61	C	0.457273	0.677418	0.056137
C62	C	0.553418	0.677425	0.056133
C63	C	0.409212	0.677406	0.112263
C64	C	0.457296	0.677403	0.168378
C65	C	0.553451	0.677404	0.168373
C66	C	0.601507	0.677415	0.112249
C67	C	1.306851	0.677429	0.000019
C68	C	1.409184	0.677428	0.000021
C69	C	1.005334	0.677438	-0.203179
C70	C	1.005334	0.677439	-0.272140
C71	C	1.005343	0.880620	0.000013
C72	C	1.005347	0.949579	0.000012
C73	C	1.088599	0.677440	-0.304537
C74	C	1.088602	0.677434	-0.369330
C75	C	1.005336	0.677433	-0.401728
C76	C	0.922067	0.677430	-0.369326
C77	C	0.922069	0.677430	-0.304531
C78	C	0.922057	0.677429	-0.630636
C79	C	0.922059	0.677432	-0.695437
C80	C	1.088590	0.677433	-0.695435
C81	C	1.088593	0.677433	-0.630641
C82	C	1.005328	0.677425	-0.598241
C83	C	1.005326	0.677430	-0.527984
C84	C	1.005332	0.677434	-0.471987
C85	C	1.005330	0.677428	0.203207
C86	C	1.005329	0.677426	0.272168
C87	C	1.306840	0.474242	0.000020
C88	C	1.409169	0.405281	0.000022
C89	C	1.005319	0.474241	0.203208
C90	C	1.005314	0.405279	0.272170
C91	C	1.306838	0.474237	0.203213
C92	C	1.409167	0.405275	0.272177
C93	C	0.703825	0.880628	-0.203185
C94	C	0.601497	0.949590	-0.272149
C95	C	0.703824	0.880623	0.000008
C96	C	0.601495	0.949584	0.000005
C97	C	1.005345	0.880624	-0.203180
C98	C	1.005350	0.949586	-0.272142
C99	C	1.398347	0.372898	-0.039662
C100	C	1.494487	0.308111	-0.039675
C101	C	1.601448	0.275704	0.000001
C102	C	1.612268	0.308093	0.039686
C103	C	1.516129	0.372884	0.039695
C104	C	1.064189	0.372893	0.344240
C105	C	1.064181	0.308105	0.409044
C106	C	1.005303	0.275701	0.401775
C107	C	0.946421	0.308094	0.329697
C108	C	0.946423	0.372885	0.264895
C109	C	1.516109	0.372890	0.264887
C110	C	1.612267	0.308101	0.329679
C111	C	1.601480	0.275694	0.401761
C112	C	1.494526	0.308086	0.409050
C113	C	1.398371	0.372878	0.344258
C114	C	0.494554	0.981984	-0.264859
C115	C	0.398397	1.046792	-0.329651
C116	C	0.409184	1.079202	-0.401734
C117	C	0.516138	1.046807	-0.409022
C118	C	0.612293	0.982003	-0.344230
C119	C	0.612317	0.981974	0.039683
C120	C	0.516177	1.046779	0.039678
C121	C	0.409216	1.079189	-0.000000
C122	C	0.398396	1.046796	-0.039682
C123	C	0.494534	0.981996	-0.039682
C124	C	1.064239	0.981970	-0.264849
C125	C	1.064265	1.046758	-0.329640
C126	C	1.005395	1.079165	-0.401723
C127	C	0.946504	1.046775	-0.409015
C128	C	0.946485	0.981984	-0.344225
H129	H	1.112180	-0.044399	-0.071968
H130	H	0.330926	0.677400	0.112266
N131	N	0.727670	0.947039	0.082477
H132	H	0.770185	0.958314	0.046083
H133	H	0.770100	0.882007	0.122413
H134	H	0.898502	0.073160	0.071989
H135	H	0.898489	0.281717	0.072001
H136	H	0.898504	-0.044397	0.071991
H137	H	1.485759	0.281691	0.467748
H138	H	0.898484	0.281701	0.323790
N139	N	0.527862	1.081707	0.082481
H140	H	0.610211	1.051333	0.107621
H141	H	0.490530	1.070436	0.122369
N142	N	0.883004	1.081741	-0.486765
H143	H	0.845689	1.051399	-0.481563
H144	H	0.937073	1.070463	-0.515373
N145	N	1.727633	0.273129	0.082490
H146	H	1.736667	0.322552	0.061687
H147	H	1.786819	0.227155	0.076451
N148	N	1.005407	1.149058	-0.471599
H149	H	0.959176	1.164681	-0.518374
H150	H	1.085183	1.126453	-0.471552
N151	N	1.127728	0.081715	-0.082461
H152	H	1.210092	0.032277	-0.061641
H153	H	1.118706	0.127694	-0.076435
N154	N	0.705147	0.677467	-0.112237
H155	H	0.728294	0.677480	-0.156307
H156	H	0.768285	0.623497	-0.063197
N157	N	0.283051	1.081707	-0.321777
H158	H	0.223766	1.127680	-0.373756
H159	H	0.274154	1.108525	-0.293111
N160	N	0.405473	0.677375	0.228915
H161	H	0.337273	0.677367	0.220406
H162	H	0.382235	0.731338	0.226443
N163	N	0.605199	0.677478	-0.228879
H164	H	0.673403	0.677482	-0.220371
H165	H	0.548340	0.731453	-0.280362
N166	N	1.127714	0.407828	-0.082455
H167	H	1.118776	0.453795	-0.076440
H168	H	1.096800	0.434660	-0.137943
N169	N	0.727631	0.947062	-0.352109
H170	H	0.770134	0.882022	-0.327003
H171	H	0.770086	0.958385	-0.327009
N172	N	0.882939	0.407796	0.187164
H173	H	0.891869	0.453757	0.147209
H174	H	0.800601	0.434628	0.181160
H175	H	0.898525	0.955624	-0.350173
N176	N	1.127779	1.081685	-0.321756
H177	H	1.073788	1.146728	-0.346873
H178	H	1.187047	1.070341	-0.346845
N179	N	0.405349	0.677463	-0.228859
H180	H	0.450382	0.677468	-0.264414
H181	H	0.325416	0.731430	-0.258282
H182	H	1.524914	0.399266	0.206199
N183	N	1.127737	0.947025	-0.187107
H184	H	1.165046	0.977376	-0.192330
H185	H	1.186922	0.881979	-0.158494
N186	N	0.305528	1.149079	0.000003
H187	H	0.328625	1.164674	0.031163
H188	H	0.259289	1.126482	0.022568
H189	H	1.112158	0.281710	-0.071964
H190	H	1.699345	0.281734	0.323731
N191	N	0.283026	1.081742	-0.082461
H192	H	0.240501	1.146787	-0.122387
H193	H	0.240629	1.070397	-0.045999
H194	H	1.112134	0.281739	0.467726
H195	H	0.330874	0.677437	-0.112210
H196	H	1.311297	0.399238	0.350205
N197	N	0.305469	1.149097	-0.471613
H198	H	0.236087	1.164693	-0.456050
H199	H	0.305513	1.126501	-0.502773
N200	N	0.605315	0.677383	0.228908
H201	H	0.548549	0.731341	0.226467
H202	H	0.673528	0.677351	0.220362
N203	N	0.882935	0.407825	0.082493
H204	H	0.845626	0.377474	0.107625
H205	H	0.823752	0.472871	0.046059
N206	N	0.482841	0.947068	-0.082479
H207	H	0.440355	0.920196	-0.061661
H208	H	0.560003	0.901133	-0.076452
N209	N	0.705225	0.677396	0.112285
H210	H	0.688386	0.731358	0.063284
H211	H	0.768375	0.623391	0.117273
N212	N	1.527810	0.407805	0.082502
H213	H	1.610160	0.377438	0.107634
H214	H	1.490493	0.396519	0.122398
H215	H	1.156393	0.677436	-0.721820
N216	N	1.178403	0.677448	-0.269600
H217	H	1.231152	0.677446	-0.299956
H218	H	1.222071	0.623482	-0.215730
H219	H	1.156403	0.677433	-0.395707
N220	N	0.832252	0.677419	-0.730373
H221	H	0.868590	0.623453	-0.730273
H222	H	0.788524	0.731420	-0.784223
N223	N	1.178396	0.677439	-0.595699
H224	H	1.231148	0.677437	-0.626054
H225	H	1.222061	0.623471	-0.541830
H226	H	0.854258	0.677425	-0.604263
H227	H	1.112135	0.399269	0.350173
N228	N	1.705188	0.205806	0.471646
H229	H	1.751468	0.228358	0.471672
H230	H	1.751371	0.152069	0.471627
N231	N	0.832262	0.677420	-0.404261
H232	H	0.844892	0.677422	-0.450226
H233	H	0.755861	0.731386	-0.419919
N234	N	0.832268	0.677422	-0.269582
H235	H	0.779517	0.677422	-0.299937
H236	H	0.788601	0.731387	-0.269680
H237	H	1.311262	0.399283	-0.071980
N238	N	1.482802	0.273186	-0.082481
H239	H	1.400452	0.303545	-0.107606
H240	H	1.520129	0.208140	-0.046054
H241	H	0.485749	0.955599	-0.206172
N242	N	0.527764	1.081767	-0.486770
H243	H	0.450617	1.127730	-0.526703
H244	H	0.570266	1.032286	-0.492778
N245	N	1.705136	0.205824	-0.000013
H246	H	1.682039	0.190230	-0.031174
H247	H	1.751372	0.152097	0.053745
N248	N	1.005307	0.205818	0.471672
H249	H	1.051546	0.190221	0.518429
H250	H	1.038791	0.152094	0.471640
