data_functionalizedCrystal
_audit_creation_method	'MofGen! by Chris Wilmer'
_symmetry_space_group_name_H-M	'P1'
_symmetry_Int_Tables_number	1
_symmetry_cell_setting	triclinic
loop_
_symmetry_equiv_pos_as_xyz
  x,y,z
_cell_length_a	21.395362
_cell_length_b	13.897448
_cell_length_c	21.395364
_cell_angle_alpha	90.000997
_cell_angle_beta	90.036401
_cell_angle_gamma	90.033571
loop_
_atom_site_label
_atom_site_type_symbol
_atom_site_fract_x
_atom_site_fract_y
_atom_site_fract_z
Zn1	Zn	0.957869	-0.383857	0.354598
Zn2	Zn	0.957810	-0.545096	0.249826
Zn3	Zn	0.853098	-0.383861	0.249799
Zn4	Zn	0.853077	-0.545157	0.354531
O5	O	0.905464	-0.464493	0.302188
O6	O	1.045539	-0.405219	0.340739
O7	O	0.943903	-0.523683	0.162144
O8	O	0.867030	-0.248879	0.263718
O9	O	1.045495	-0.523680	0.263763
O10	O	0.944005	-0.248876	0.340713
O11	O	0.866972	-0.405225	0.162125
O12	O	0.765417	-0.405284	0.263653
O13	O	0.866995	-0.523784	0.442217
O14	O	0.765402	-0.523787	0.340598
O15	O	0.943985	-0.405278	0.442267
O16	O	0.943883	-0.680085	0.263698
O17	O	0.866937	-0.680130	0.340624
C18	C	0.742676	-0.464544	0.302116
C19	C	0.673035	-0.464589	0.302100
C20	C	0.905418	-0.715107	0.302170
C21	C	0.905456	-0.822321	0.302183
C22	C	0.640330	-0.526375	0.342105
C23	C	0.574895	-0.526351	0.342133
C24	C	0.542166	-0.464551	0.302144
C25	C	0.574879	-0.402753	0.262136
C26	C	0.640313	-0.402772	0.262113
C27	C	0.438448	-0.456759	0.245739
C28	C	0.373015	-0.456747	0.245760
C29	C	0.340346	-0.464489	0.302213
C30	C	0.373117	-0.472262	0.358647
C31	C	0.438552	-0.472281	0.358625
C32	C	0.471214	-0.464524	0.302164
C33	C	0.236688	-0.526253	0.342253
C34	C	0.171252	-0.526222	0.342282
C35	C	0.171238	-0.402629	0.262279
C36	C	0.236673	-0.402654	0.262255
C37	C	0.269394	-0.464471	0.302241
C38	C	0.905521	-1.018616	0.302223
C39	C	0.905483	-0.909383	0.302203
C40	C	1.068887	-0.464442	0.302262
C41	C	1.138528	-0.464421	0.302293
C42	C	0.905494	-0.464537	0.465612
C43	C	0.905507	-0.464556	0.535253
C44	C	0.905527	-0.212900	0.302220
C45	C	0.905553	-0.105686	0.302234
C46	C	0.945590	-0.402861	0.567993
C47	C	0.945580	-0.402845	0.633428
C48	C	0.905495	-0.464542	0.666121
C49	C	0.865404	-0.526242	0.633373
C50	C	0.865410	-0.526249	0.567939
C51	C	0.900518	-0.551437	0.769788
C52	C	0.900516	-0.551432	0.835221
C53	C	0.905472	-0.464520	0.867942
C54	C	0.910443	-0.377610	0.835222
C55	C	0.910449	-0.377617	0.769788
C56	C	0.905483	-0.464541	0.737074
C57	C	0.945547	-0.402801	0.971634
C58	C	0.945533	-0.402784	1.037071
C59	C	0.865360	-0.526190	1.037015
C60	C	0.865370	-0.526199	0.971580
C61	C	0.905467	-0.464506	0.938893
C62	C	0.905436	-0.464477	1.139401
C63	C	0.905446	-0.464481	1.069760
H64	H	0.666968	-0.576710	0.374666
Cl65	Cl	0.995961	-0.325259	0.674596
Cl66	Cl	0.815017	-0.603817	0.526778
Cl67	Cl	0.277790	-0.324978	0.211958
Cl68	Cl	0.681430	-0.325091	0.211816
H69	H	0.914495	-0.306853	0.743150
H70	H	0.465232	-0.478608	0.404575
Cl71	Cl	0.332055	-0.481990	0.429623
H72	H	0.896315	-0.622194	0.743152
Cl73	Cl	0.814980	-0.603768	0.930419
Cl74	Cl	0.894273	-0.660688	0.876348
H75	H	0.548261	-0.576665	0.374713
H76	H	0.832715	-0.576415	1.063633
H77	H	0.832764	-0.576474	0.659996
Cl78	Cl	0.277827	-0.603958	0.392523
Cl79	Cl	0.130137	-0.603899	0.392583
H80	H	0.144591	-0.352306	0.229722
Cl81	Cl	0.331823	-0.446973	0.174816
Cl82	Cl	0.916676	-0.268341	0.876350
H83	H	0.465042	-0.450450	0.199764
Cl84	Cl	0.995949	-0.325241	0.930540
Cl85	Cl	0.995994	-0.325298	0.526905
Cl86	Cl	0.995937	-0.325231	1.078231
H87	H	0.548227	-0.352434	0.229578
