data_functionalizedCrystal
_audit_creation_method	'MofGen! by Chris Wilmer'
_symmetry_space_group_name_H-M	'P1'
_symmetry_Int_Tables_number	1
_symmetry_cell_setting	triclinic
loop_
_symmetry_equiv_pos_as_xyz
  x,y,z
_cell_length_a	6.817900
_cell_length_b	11.102288
_cell_length_c	13.561464
_cell_angle_alpha	107.718164
_cell_angle_beta	104.692446
_cell_angle_gamma	108.605689
loop_
_atom_site_label
_atom_site_type_symbol
_atom_site_fract_x
_atom_site_fract_y
_atom_site_fract_z
V1	V	-4.143463	-0.297347	-0.346246
O2	O	-4.101888	-0.110745	-0.339655
O3	O	-4.120022	-0.469336	-0.343878
O4	O	-4.134171	-0.347636	-0.497256
O5	O	-4.087640	-0.233288	-0.185215
V6	V	-4.618789	-0.268545	-0.326985
O7	O	-4.422701	-0.360527	-0.388496
O8	O	-4.789748	-0.205365	-0.284736
O9	O	-4.419024	-0.096555	-0.329353
O10	O	-4.777762	-0.455147	-0.333577
O11	O	-4.792009	-0.332604	-0.488016
O12	O	-4.404875	-0.218256	-0.175976
C13	C	-3.969829	-0.509549	-0.338416
C14	C	-4.032210	-0.650506	-0.337486
C15	C	-3.987876	-0.354306	-0.534063
C16	C	-4.061727	-0.396561	-0.657514
C17	C	-4.246036	-0.725145	-0.342590
C18	C	-4.304644	-0.857593	-0.341725
C19	C	-3.935576	-0.840748	-0.330649
C20	C	-3.876977	-0.708306	-0.331521
C21	C	-4.023494	-0.027536	-0.941798
C22	C	-3.954032	0.012090	-0.825816
C23	C	-3.980951	-0.090069	-0.783735
C24	C	-4.077341	-0.231861	-0.857647
C25	C	-4.146826	-0.271492	-0.973641
C26	C	-4.104283	-0.334025	-0.815577
C27	C	-4.200673	-0.475818	-0.889490
C28	C	-4.270147	-0.515442	-1.005471
C29	C	-4.243229	-0.413282	-1.047553
C30	C	-4.034799	-0.294394	-0.699584
C31	C	-4.158130	-0.538351	-0.731427
C32	C	-4.227592	-0.577977	-0.847408
C33	C	-4.232559	-0.056348	-0.334812
C34	C	-4.149418	0.084605	-0.335749
C35	C	-4.214511	-0.211587	-0.139163
C36	C	-4.119897	-0.169326	-0.015710
H37	H	-4.372440	-0.678087	-0.347446
H38	H	-3.809197	-0.887824	-0.325789
H39	H	-4.299777	-0.445539	-1.141993
H40	H	-3.875560	0.127537	-0.765645
H41	H	-4.001604	0.055626	-0.976073
O42	O	-4.374073	-0.668369	-1.085196
H43	H	-4.381085	-0.732750	-1.036452
O44	O	-3.905994	-0.047327	-0.658639
H45	H	-4.052234	-0.095738	-0.639098
O46	O	-3.930797	-0.141469	-0.619872
H47	H	-4.034134	-0.123772	-0.570446
H48	H	-3.702851	-0.647534	-0.327369
O49	O	-4.331559	-0.730910	-0.927126
H50	H	-4.504125	-0.761020	-0.984910
H51	H	-4.180054	-0.621538	-0.697165
H52	H	-4.478758	-0.918360	-0.345883
