data_functionalizedCrystal
_audit_creation_method	'MofGen! by Chris Wilmer'
_symmetry_space_group_name_H-M	'P1'
_symmetry_Int_Tables_number	1
_symmetry_cell_setting	triclinic
loop_
_symmetry_equiv_pos_as_xyz
  x,y,z
_cell_length_a	10.268362
_cell_length_b	17.699083
_cell_length_c	17.699083
_cell_angle_alpha	83.283015
_cell_angle_beta	89.993826
_cell_angle_gamma	90.001444
loop_
_atom_site_label
_atom_site_type_symbol
_atom_site_fract_x
_atom_site_fract_y
_atom_site_fract_z
O1	O	0.108120	-1.004076	-0.095712
O2	O	0.108163	-0.783697	-0.108164
O3	O	0.108129	-0.900113	0.008251
O4	O	0.108154	-0.887660	-0.212127
O5	O	-0.108472	-0.900103	0.008256
O6	O	-0.108437	-0.783687	-0.108160
O7	O	-0.108480	-1.004066	-0.095707
Cu8	Cu	-0.128236	-0.893876	-0.101933
Cu9	Cu	0.127919	-0.893888	-0.101938
O10	O	-0.108446	-0.887650	-0.212122
C11	C	-0.000132	-0.755495	-0.107716
C12	C	-0.000116	-0.671477	-0.106377
C13	C	-0.000171	-0.899662	0.036451
C14	C	-0.000172	-0.898323	0.120469
N15	N	-0.308402	-0.893873	-0.101928
C16	C	-0.574073	-0.893884	-0.101937
C17	C	-0.426235	-0.893875	-0.101934
N18	N	0.308085	-0.893896	-0.101937
C19	C	-0.000183	-1.032268	-0.096156
C20	C	-0.000190	-1.116286	-0.097494
C21	C	-0.000108	-0.622856	-0.174710
C22	C	-0.000125	-0.543913	-0.173448
C23	C	-0.000140	-0.513592	-0.103852
C24	C	-0.000152	-0.562219	-0.035513
C25	C	-0.000144	-0.641161	-0.036776
C26	C	-0.000184	-0.243856	-0.030418
C27	C	-0.000188	-0.164908	-0.029160
C28	C	-0.000166	-0.146608	-0.167090
C29	C	-0.000158	-0.225550	-0.168353
C30	C	-0.000176	-0.274170	-0.100015
C31	C	-0.000160	-0.359769	-0.101384
C32	C	-0.000147	-0.427995	-0.102481
C33	C	-0.000143	-0.888102	-0.240322
C34	C	-0.000134	-0.889440	-0.324340
C35	C	-0.000187	-0.966656	0.169090
C36	C	-0.000175	-0.965394	0.248033
C37	C	-0.000157	-0.895798	0.278354
C38	C	-0.000138	-0.827459	0.229727
C39	C	-0.000141	-0.828722	0.150785
C40	C	-0.000127	-0.822364	0.548090
C41	C	-0.000128	-0.821106	0.627038
C42	C	-0.000161	-0.959036	0.645338
C43	C	-0.000163	-0.960299	0.566396
C44	C	-0.000138	-0.891961	0.517776
C45	C	-0.000148	-0.893330	0.432177
C46	C	-0.000156	-0.894427	0.363951
H47	H	-0.000095	-0.647537	-0.231384
H48	H	-0.000183	-0.537526	0.021154
O49	O	-0.000112	-0.746037	0.659743
H50	H	0.088163	-0.742175	0.695275
H51	H	-0.000158	-0.107012	-0.222734
H52	H	-0.000190	-1.021038	0.287618
O53	O	-0.000140	-0.258255	-0.243417
H54	H	-0.088416	-0.293792	-0.247281
H55	H	-0.000149	-0.680748	0.018868
O56	O	-0.000178	-1.032749	0.697777
H57	H	-0.000160	-1.020183	0.757765
O58	O	-0.000191	-0.296290	0.043287
H59	H	-0.088480	-0.332691	0.046017
H60	H	-0.000116	-0.770792	0.254420
H61	H	-0.000106	-0.766718	0.508512
O62	O	-0.000138	-0.755021	0.098338
H63	H	-0.000141	-0.706413	0.132682
H64	H	-0.000118	-0.504328	-0.229092
H65	H	-0.000209	-1.023330	0.144409
O66	O	-0.000227	-0.132201	0.045908
H67	H	-0.000256	-0.179271	0.093216
O68	O	-0.000164	-1.035363	0.533690
H69	H	-0.000154	-1.082669	0.580763
