data_functionalizedCrystal
_audit_creation_method	'MofGen! by Chris Wilmer'
_symmetry_space_group_name_H-M	'P1'
_symmetry_Int_Tables_number	1
_symmetry_cell_setting	triclinic
loop_
_symmetry_equiv_pos_as_xyz
  x,y,z
_cell_length_a	16.625547
_cell_length_b	18.050589
_cell_length_c	16.625539
_cell_angle_alpha	89.975176
_cell_angle_beta	89.975178
_cell_angle_gamma	90.028158
loop_
_atom_site_label
_atom_site_type_symbol
_atom_site_fract_x
_atom_site_fract_y
_atom_site_fract_z
Zn1	Zn	1.232648	-0.295659	-0.456020
Zn2	Zn	1.482648	-0.045659	-0.206020
Zn3	Zn	1.732648	0.204341	0.043980
Zn4	Zn	1.982648	0.454341	0.293980
Zn5	Zn	1.232538	-0.419857	-0.321196
Zn6	Zn	1.482538	-0.169857	-0.071196
Zn7	Zn	1.732538	0.080143	0.178804
Zn8	Zn	1.982538	0.330143	0.428804
Zn9	Zn	1.097810	-0.295685	-0.321191
Zn10	Zn	1.347810	-0.045685	-0.071191
Zn11	Zn	1.597810	0.204315	0.178809
Zn12	Zn	1.847810	0.454315	0.428809
Zn13	Zn	1.097767	-0.419812	-0.455976
Zn14	Zn	1.347767	-0.169812	-0.205976
Zn15	Zn	1.597767	0.080188	0.044024
Zn16	Zn	1.847767	0.330188	0.294024
O17	O	1.165191	-0.357753	-0.388596
O18	O	1.415191	-0.107753	-0.138596
O19	O	1.665191	0.142247	0.111404
O20	O	1.915191	0.392247	0.361404
O21	O	1.345466	-0.312142	-0.438156
O22	O	1.595466	-0.062142	-0.188156
O23	O	1.845466	0.187858	0.061844
O24	O	2.095466	0.437858	0.311844
O25	O	1.214638	-0.403415	-0.208363
O26	O	1.464638	-0.153415	0.041637
O27	O	1.714638	0.096585	0.291637
O28	O	1.964638	0.346585	0.541637
O29	O	1.115761	-0.191757	-0.339093
O30	O	1.365761	0.058243	-0.089093
O31	O	1.615761	0.308243	0.160907
O32	O	1.865761	0.558243	0.410907
O33	O	1.345385	-0.403390	-0.339101
O34	O	1.595385	-0.153390	-0.089101
O35	O	1.845385	0.096610	0.160899
O36	O	2.095385	0.346610	0.410899
O37	O	1.214826	-0.191738	-0.438152
O38	O	1.464826	0.058262	-0.188152
O39	O	1.714826	0.308262	0.061848
O40	O	1.964826	0.558262	0.311848
O41	O	1.115654	-0.312187	-0.208359
O42	O	1.365654	-0.062187	0.041641
O43	O	1.615654	0.187813	0.291641
O44	O	1.865654	0.437813	0.541641
O45	O	0.984972	-0.312143	-0.339050
O46	O	1.234972	-0.062143	-0.089050
O47	O	1.484972	0.187857	0.160950
O48	O	1.734972	0.437857	0.410950
O49	O	1.115687	-0.403313	-0.568814
O50	O	1.365687	-0.153313	-0.318814
O51	O	1.615687	0.096687	-0.068814
O52	O	1.865687	0.346687	0.181186
O53	O	0.984940	-0.403338	-0.438075
O54	O	1.234940	-0.153338	-0.188075
O55	O	1.484940	0.096662	0.061925
O56	O	1.734940	0.346662	0.311925
O57	O	1.214784	-0.312099	-0.568847
O58	O	1.464784	-0.062099	-0.318847
O59	O	1.714784	0.187901	-0.068847
O60	O	1.964784	0.437901	0.181153
O61	O	1.214596	-0.523776	-0.339058
O62	O	1.464596	-0.273776	-0.089058
O63	O	1.714596	-0.023776	0.160942
O64	O	1.964596	0.226224	0.410942
O65	O	1.115580	-0.523742	-0.438080
O66	O	1.365580	-0.273742	-0.188080
O67	O	1.615580	-0.023742	0.061920
O68	O	1.865580	0.226258	0.311920
C69	C	0.955700	-0.357739	-0.388558
C70	C	1.205700	-0.107739	-0.138558
C71	C	1.455700	0.142261	0.111442
C72	C	1.705700	0.392261	0.361442
C73	C	0.866079	-0.357751	-0.388560
C74	C	1.116079	-0.107751	-0.138560
C75	C	1.366079	0.142249	0.111440
C76	C	1.616079	0.392249	0.361440
C77	C	0.793296	-0.357752	-0.388570
C78	C	1.043296	-0.107752	-0.138570
C79	C	1.293296	0.142248	0.111430
C80	C	1.543296	0.392248	0.361430
C81	C	0.701988	-0.357756	-0.388591
C82	C	0.951988	-0.107756	-0.138591
C83	C	1.201988	0.142244	0.111409
C84	C	1.451988	0.392244	0.361409
C85	C	0.629212	-0.357763	-0.388611
C86	C	0.879212	-0.107763	-0.138611
C87	C	1.129212	0.142237	0.111389
C88	C	1.379212	0.392237	0.361389
C89	C	0.537897	-0.357768	-0.388630
C90	C	0.787897	-0.107768	-0.138630
C91	C	1.037897	0.142232	0.111370
C92	C	1.287897	0.392232	0.361370
C93	C	1.165093	-0.550706	-0.388582
C94	C	1.415093	-0.300706	-0.138582
C95	C	1.665093	-0.050706	0.111418
C96	C	1.915093	0.199294	0.361418
C97	C	1.165126	-0.633251	-0.388603
C98	C	1.415126	-0.383251	-0.138603
C99	C	1.665126	-0.133251	0.111397
C100	C	1.915126	0.116749	0.361397
C101	C	1.111334	-0.832711	-0.442433
C102	C	1.361334	-0.582711	-0.192433
C103	C	1.611334	-0.332711	0.057567
C104	C	1.861334	-0.082711	0.307567
C105	C	1.091677	-0.882153	-0.368856
C106	C	1.341677	-0.632153	-0.118856
C107	C	1.591677	-0.382153	0.131144
C108	C	1.841677	-0.132153	0.381144
C109	C	1.165205	-0.784382	-0.388614
C110	C	1.415205	-0.534382	-0.138614
C111	C	1.665205	-0.284382	0.111386
C112	C	1.915205	-0.034382	0.361386
C113	C	1.184901	-0.882021	-0.462200
C114	C	1.434901	-0.632021	-0.212200
C115	C	1.684901	-0.382021	0.037800
C116	C	1.934901	-0.132021	0.287800
C117	C	1.165280	-0.930367	-0.388631
C118	C	1.415280	-0.680367	-0.138631
C119	C	1.665280	-0.430367	0.111369
C120	C	1.915280	-0.180367	0.361369
C121	C	1.145510	-0.832736	-0.314998
C122	C	1.395510	-0.582736	-0.064998
C123	C	1.645510	-0.332736	0.185002
C124	C	1.895510	-0.082736	0.435002
C125	C	1.238767	-0.832601	-0.408392
C126	C	1.488767	-0.582601	-0.158392
C127	C	1.738767	-0.332601	0.091608
C128	C	1.988767	-0.082601	0.341608
C129	C	1.219139	-0.882020	-0.334763
C130	C	1.469139	-0.632020	-0.084763
C131	C	1.719139	-0.382020	0.165237
C132	C	1.969139	-0.132020	0.415237
C133	C	1.165160	-0.700283	-0.388605
C134	C	1.415160	-0.450283	-0.138605
C135	C	1.665160	-0.200283	0.111395
C136	C	1.915160	0.049717	0.361395
C137	C	1.165325	-1.014463	-0.388631
C138	C	1.415325	-0.764463	-0.138631
C139	C	1.665325	-0.514463	0.111369
C140	C	1.915325	-0.264463	0.361369
C141	C	1.375500	-0.357768	-0.388634
C142	C	1.625500	-0.107768	-0.138634
C143	C	1.875500	0.142232	0.111366
C144	C	2.125500	0.392232	0.361366
C145	C	1.465121	-0.357775	-0.388651
C146	C	1.715121	-0.107775	-0.138651
C147	C	1.965121	0.142225	0.111349
C148	C	2.215121	0.392225	0.361349
C149	C	1.165243	-0.357698	-0.598905
C150	C	1.415243	-0.107698	-0.348905
C151	C	1.665243	0.142302	-0.098905
C152	C	1.915243	0.392302	0.151095
C153	C	1.165266	-0.357674	-0.688526
C154	C	1.415266	-0.107674	-0.438526
C155	C	1.665266	0.142326	-0.188526
C156	C	1.915266	0.392326	0.061474
C157	C	1.165311	-0.164048	-0.388627
C158	C	1.415311	0.085952	-0.138627
C159	C	1.665311	0.335952	0.111373
C160	C	1.915311	0.585952	0.361373
C161	C	1.165362	-0.081502	-0.388640
C162	C	1.415362	0.168498	-0.138640
C163	C	1.665362	0.418498	0.111360
C164	C	1.915362	0.668498	0.361360
C165	C	1.165303	-0.357591	-1.016702
C166	C	1.415303	-0.107591	-0.766702
C167	C	1.665303	0.142409	-0.516702
C168	C	1.915303	0.392409	-0.266702
C169	C	1.165290	-0.357617	-0.925393
C170	C	1.415290	-0.107617	-0.675393
C171	C	1.665290	0.142383	-0.425393
C172	C	1.915290	0.392383	-0.175393
C173	C	1.165285	-0.357633	-0.852617
C174	C	1.415285	-0.107633	-0.602617
C175	C	1.665285	0.142367	-0.352617
C176	C	1.915285	0.392367	-0.102617
C177	C	1.165271	-0.357658	-0.761302
C178	C	1.415271	-0.107658	-0.511302
C179	C	1.665271	0.142342	-0.261302
C180	C	1.915271	0.392342	-0.011302
C181	C	1.165185	-0.357755	-0.179105
C182	C	1.415185	-0.107755	0.070895
C183	C	1.665185	0.142245	0.320895
C184	C	1.915185	0.392245	0.570895
C185	C	1.165319	-0.357569	-0.089484
C186	C	1.415319	-0.107569	0.160516
C187	C	1.665319	0.142431	0.410516
C188	C	1.915319	0.392431	0.660516
H189	H	1.029503	-0.903934	-0.352143
H190	H	1.279503	-0.653934	-0.102143
H191	H	1.529503	-0.403934	0.147857
H192	H	1.779503	-0.153934	0.397857
C193	C	1.049709	-0.803455	-0.503832
C194	C	1.299709	-0.553455	-0.253832
C195	C	1.549709	-0.303455	-0.003832
C196	C	1.799709	-0.053455	0.246168
H197	H	1.076582	-0.774455	-0.543260
H198	H	1.326582	-0.524455	-0.293260
H199	H	1.576582	-0.274455	-0.043260
H200	H	1.826582	-0.024455	0.206740
H201	H	1.010904	-0.773820	-0.476953
H202	H	1.260904	-0.523820	-0.226953
H203	H	1.510904	-0.273820	0.023047
H204	H	1.760904	-0.023820	0.273047
H205	H	1.023630	-0.844049	-0.529172
H206	H	1.273630	-0.594049	-0.279172
H207	H	1.523630	-0.344049	-0.029172
H208	H	1.773630	-0.094049	0.220828
C209	C	1.122946	-0.803621	-0.230914
C210	C	1.372946	-0.553621	0.019086
C211	C	1.622946	-0.303621	0.269086
C212	C	1.872946	-0.053621	0.519086
H213	H	1.113582	-0.844276	-0.195824
H214	H	1.363582	-0.594276	0.054176
H215	H	1.613582	-0.344276	0.304176
H216	H	1.863582	-0.094276	0.554176
H217	H	1.075609	-0.774365	-0.234581
H218	H	1.325609	-0.524365	0.015419
H219	H	1.575609	-0.274365	0.265419
H220	H	1.825609	-0.024365	0.515419
H221	H	1.165736	-0.774266	-0.210459
H222	H	1.415736	-0.524266	0.039541
H223	H	1.665736	-0.274266	0.289541
H224	H	1.915736	-0.024266	0.539541
H225	H	1.264728	-0.903535	-0.289205
H226	H	1.514728	-0.653535	-0.039205
H227	H	1.764728	-0.403535	0.210795
H228	H	2.014728	-0.153535	0.460795
H229	H	1.300928	-0.810821	-0.425140
H230	H	1.550928	-0.560821	-0.175140
H231	H	1.800928	-0.310821	0.074860
H232	H	2.050928	-0.060821	0.324860
C233	C	1.207370	-0.911267	-0.546256
C234	C	1.457370	-0.661267	-0.296256
C235	C	1.707370	-0.411267	-0.046256
C236	C	1.957370	-0.161267	0.203744
H237	H	1.169014	-0.894374	-0.584419
H238	H	1.419014	-0.644374	-0.334419
H239	H	1.669014	-0.394374	-0.084419
H240	H	1.919014	-0.144374	0.165581
H241	H	1.207719	-0.963888	-0.545544
H242	H	1.457719	-0.713888	-0.295544
H243	H	1.707719	-0.463888	-0.045544
H244	H	1.957719	-0.213888	0.204456
H245	H	1.259234	-0.893564	-0.560668
H246	H	1.509234	-0.643564	-0.310668
H247	H	1.759234	-0.393564	-0.060668
H248	H	2.009234	-0.143564	0.189332
