data_functionalizedCrystal
_audit_creation_method	'MofGen! by Chris Wilmer'
_symmetry_space_group_name_H-M	'P1'
_symmetry_Int_Tables_number	1
_symmetry_cell_setting	triclinic
loop_
_symmetry_equiv_pos_as_xyz
  x,y,z
_cell_length_a	15.698487
_cell_length_b	19.377369
_cell_length_c	19.377574
_cell_angle_alpha	82.425876
_cell_angle_beta	104.490439
_cell_angle_gamma	48.637709
loop_
_atom_site_label
_atom_site_type_symbol
_atom_site_fract_x
_atom_site_fract_y
_atom_site_fract_z
Zr1	Zr	0.665922	0.779878	0.049333
O2	O	0.470780	0.928513	-0.037245
O3	O	0.742369	0.631241	0.056990
O4	O	0.672465	0.779879	-0.064479
O5	O	0.576913	0.779875	0.201523
O6	O	0.812645	0.779882	-0.064481
O7	O	0.540684	0.779875	0.084224
O8	O	0.937690	0.513995	0.152806
O9	O	0.451868	1.045762	-0.015764
O10	O	0.859501	0.692380	0.083070
O11	O	0.781923	0.692378	0.170610
O12	O	0.699620	0.867380	0.027595
O13	O	0.622043	0.867378	0.115135
Zr14	Zr	0.947274	0.779882	0.236409
Zr15	Zr	0.889493	0.779883	0.049331
Zr16	Zr	0.723703	0.779878	0.236411
Zr17	Zr	0.635759	0.966875	0.083594
Zr18	Zr	0.977437	0.592885	0.202149
O19	O	0.870827	0.928520	0.228752
O20	O	0.788669	0.928520	-0.037248
O21	O	0.552938	0.928513	0.228755
O22	O	1.142416	0.631247	0.322988
O23	O	1.060258	0.631247	0.056987
O24	O	0.824527	0.631241	0.322991
O25	O	1.036283	0.779885	0.084220
O26	O	0.940731	0.779881	0.350222
O27	O	0.800551	0.779879	0.350223
O28	O	1.072512	0.779885	0.201518
O29	O	0.629577	1.045765	-0.015766
O30	O	0.983619	0.513995	0.301508
O31	O	1.161328	0.513999	0.301507
O32	O	1.115399	0.513999	0.152805
O33	O	0.497797	1.045761	0.132938
O34	O	0.675506	1.045765	0.132936
O35	O	0.913576	0.692380	0.258148
O36	O	0.991153	0.692382	0.170608
O37	O	0.831273	0.867382	0.115133
O38	O	0.753695	0.867380	0.202672
C39	C	0.844327	0.545975	0.100017
C40	C	0.857132	0.466590	0.085473
C41	C	0.697293	0.205187	0.266360
C42	C	0.709487	0.130501	0.252755
C43	C	0.790472	0.130513	0.161371
C44	C	0.778290	0.205196	0.174970
C45	C	0.731699	0.242528	0.227465
C46	C	0.812696	0.242538	0.136075
C47	C	0.800509	0.317219	0.149671
C48	C	0.753916	0.354558	0.202161
C49	C	0.719512	0.317209	0.241060
C50	C	0.859279	0.205210	0.083577
C51	C	0.893685	0.242551	0.044682
C52	C	0.881506	0.317228	0.058282
C53	C	0.834913	0.354568	0.110772
C54	C	0.915911	0.354577	0.019382
C55	C	0.903723	0.429258	0.032978
C56	C	0.822726	0.429248	0.124368
C57	C	0.526945	0.779875	0.142874
C58	C	0.432033	0.779873	0.142875
C59	C	0.258242	0.779890	0.142870
C60	C	0.354948	0.779885	0.142871
C61	C	1.086251	0.779886	0.142869
C62	C	1.181163	0.779888	0.142868
C63	C	0.734322	0.779880	-0.091134
C64	C	0.709792	0.779880	-0.170554
C65	C	0.768869	1.013785	0.185725
C66	C	0.756064	1.093171	0.200270
C67	C	1.015221	0.779882	-0.431778
C68	C	0.992144	0.779883	-0.506405
C69	C	0.837701	0.779880	-0.506385
C70	C	0.860761	0.779883	-0.431758
C71	C	0.949524	0.779883	-0.394460
C72	C	0.795063	0.779885	-0.394440
C73	C	0.818126	0.779883	-0.319818
C74	C	0.906888	0.779879	-0.282514
C75	C	0.972587	0.779881	-0.319838
C76	C	0.706307	0.779878	-0.431738
C77	C	0.640609	0.779879	-0.394420
C78	C	0.663665	0.779885	-0.319798
C79	C	0.752427	0.779881	-0.282494
C80	C	0.597966	0.779883	-0.282474
C81	C	0.621029	0.779881	-0.207852
C82	C	0.775490	0.779879	-0.207872
C83	C	0.878874	0.779880	0.376877
C84	C	0.903404	0.779880	0.456296
C85	C	1.123980	0.545981	0.100015
C86	C	1.231697	0.466597	0.085469
C87	C	0.916603	0.545975	0.334023
C88	C	0.953938	0.466589	0.398898
C89	C	1.196256	0.545980	0.334020
C90	C	1.328503	0.466597	0.398894
C91	C	0.416940	1.013780	-0.048278
C92	C	0.284693	1.093163	-0.113152
C93	C	0.489216	1.013780	0.185728
C94	C	0.381499	1.093163	0.200273
C95	C	0.696593	1.013786	-0.048280
C96	C	0.659258	1.093171	-0.113155
C97	C	1.213558	0.429317	0.032937
C98	C	1.314754	0.354738	0.019255
C99	C	1.434090	0.317436	0.058110
C100	C	1.452226	0.354724	0.110644
C101	C	1.351029	0.429306	0.124322
C102	C	1.040194	0.429310	0.475066
C103	C	1.075270	0.354730	0.536032
C104	C	1.024096	0.317425	0.520828
C105	C	0.937829	0.354711	0.444652
C106	C	0.902747	0.429295	0.383689
C107	C	1.431111	0.429319	0.383665
C108	C	1.555375	0.354740	0.444616
C109	C	1.577029	0.317436	0.520795
C110	C	1.474409	0.354721	0.536024
C111	C	1.350147	0.429304	0.475074
C112	C	0.182084	1.130451	-0.097921
C113	C	0.057816	1.205053	-0.158868
C114	C	0.036161	1.242361	-0.235046
C115	C	0.138782	1.205071	-0.250275
C116	C	0.263046	1.130475	-0.189328
C117	C	0.399634	1.130451	0.252799
C118	C	0.298429	1.205051	0.266465
C119	C	0.179092	1.242355	0.227608
C120	C	0.160958	1.205064	0.175076
C121	C	0.262159	1.130471	0.161407
C122	C	0.710456	1.130452	-0.097928
C123	C	0.675400	1.205033	-0.158879
C124	C	0.589140	1.242337	-0.235057
C125	C	0.537942	1.205048	-0.250285
C126	C	0.573005	1.130463	-0.189334
H127	H	0.743988	0.415371	0.213227
H128	H	0.681573	0.347606	0.283807
C129	C	0.944937	0.201476	-0.013059
N130	N	0.983547	0.170536	-0.056547
C131	C	0.242195	1.089451	0.103632
N132	N	0.227150	1.058557	0.060116
H133	H	0.780693	1.100092	-0.035904
H134	H	0.496798	1.100083	0.284449
H135	H	0.063780	1.235449	0.143442
H136	H	1.266607	0.459646	0.487484
H137	H	0.313219	1.235401	0.309243
C138	C	1.170179	0.313719	0.619817
N139	N	1.241668	0.282829	0.682921
C140	C	1.371007	0.470297	0.182121
N141	N	1.386064	0.501166	0.225658
C142	C	0.967151	0.313507	-0.038364
N143	N	1.005747	0.282573	-0.081858
H144	H	1.052673	0.256694	0.570475
C145	C	1.668241	0.313731	0.427846
N146	N	1.753248	0.282842	0.415212
H147	H	0.659354	0.235584	0.309106
C148	C	1.713731	0.235385	0.587832
N149	N	1.816699	0.173581	0.638320
C150	C	-0.055049	1.246056	-0.142098
N151	N	-0.140055	1.276938	-0.129466
H152	H	0.832515	0.459638	0.321670
H153	H	1.299964	0.324388	-0.023523
H154	H	0.096697	1.303094	0.238745
C155	C	0.516656	1.089475	-0.206096
N156	N	0.474204	1.058609	-0.218726
H157	H	0.896170	0.324326	0.432284
H158	H	0.717097	1.235386	-0.146465
H159	H	0.784787	0.459646	0.167114
C160	C	1.498252	0.313667	0.619825
N161	N	1.516215	0.282737	0.682945
C162	C	-0.100541	1.324410	-0.302083
N163	N	-0.203507	1.386206	-0.352573
H164	H	0.931739	0.459663	0.001305
H165	H	0.560600	1.303069	-0.284680
C166	C	0.114942	1.246111	-0.334079
N167	N	0.096982	1.277019	-0.397203
C168	C	1.112859	0.779888	-0.390748
N169	N	1.186399	0.779891	-0.359843
C170	C	0.443104	1.246057	-0.334093
N171	N	0.371685	1.276937	-0.397222
H172	H	0.681462	0.100103	0.284430
H173	H	0.346590	1.100116	-0.201740
H174	H	0.828402	0.100112	0.118627
H175	H	0.869191	0.144405	0.072505
C176	C	0.680928	0.779893	-0.513829
N177	N	0.661807	0.779910	-0.575662
H178	H	0.925668	0.779873	-0.221750
C179	C	0.873128	0.779885	-0.166842
N180	N	0.946668	0.779888	-0.135937
H181	H	1.044857	0.779891	-0.289471
H182	H	1.045652	0.779881	-0.536785
H183	H	0.199693	1.100078	-0.035899
C184	C	1.096496	0.470338	0.491810
N185	N	1.138902	0.501240	0.504429
H186	H	0.765433	0.779877	-0.536761
C187	C	0.542983	0.779869	-0.435453
N188	N	0.469449	0.779861	-0.466358
H189	H	1.413503	0.459681	0.321641
C190	C	0.500348	0.779864	-0.323506
N191	N	0.426824	0.779846	-0.354410
H192	H	0.567532	0.779881	-0.177467
H193	H	1.516480	0.256705	0.046966
C194	C	1.082294	0.470341	-0.009818
N195	N	0.983426	0.501241	-0.042028
H196	H	1.549402	0.324341	0.142276
