data_functionalizedCrystal
_audit_creation_method	'MofGen! by Chris Wilmer'
_symmetry_space_group_name_H-M	'P1'
_symmetry_Int_Tables_number	1
_symmetry_cell_setting	triclinic
loop_
_symmetry_equiv_pos_as_xyz
  x,y,z
_cell_length_a	15.944551
_cell_length_b	27.732048
_cell_length_c	15.021413
_cell_angle_alpha	89.999048
_cell_angle_beta	89.997174
_cell_angle_gamma	83.070697
loop_
_atom_site_label
_atom_site_type_symbol
_atom_site_fract_x
_atom_site_fract_y
_atom_site_fract_z
O1	O	1.113714	0.062334	-0.073949
O2	O	1.447047	0.395667	0.259384
O3	O	1.780380	0.729001	0.592718
O4	O	0.869064	0.070020	-0.073973
O5	O	1.202397	0.403353	0.259361
O6	O	1.535730	0.736687	0.592694
O7	O	0.998987	-0.004187	-0.073943
O8	O	1.332320	0.329146	0.259390
O9	O	1.665654	0.662480	0.592723
O10	O	0.983790	0.136541	-0.073979
O11	O	1.317124	0.469874	0.259355
O12	O	1.650457	0.803207	0.592688
O13	O	0.998966	-0.004176	0.074121
O14	O	1.332300	0.329157	0.407454
O15	O	1.665633	0.662490	0.740788
O16	O	0.869043	0.070030	0.074092
O17	O	1.202376	0.403364	0.407425
O18	O	1.535710	0.736697	0.740758
O19	O	1.113693	0.062345	0.074115
O20	O	1.447026	0.395678	0.407448
O21	O	1.780360	0.729011	0.740782
Zn22	Zn	0.991365	0.066189	0.097612
Zn23	Zn	1.324698	0.399522	0.430945
Zn24	Zn	1.658031	0.732856	0.764278
Zn25	Zn	0.991392	0.066175	-0.097469
Zn26	Zn	1.324725	0.399509	0.235864
Zn27	Zn	1.658059	0.732842	0.569197
O28	O	0.983770	0.136551	0.074086
O29	O	1.317103	0.469885	0.407419
O30	O	1.650436	0.803218	0.740752
C31	C	0.837763	0.069706	0.000057
C32	C	1.171097	0.403039	0.333390
C33	C	1.504430	0.736373	0.666723
C34	C	0.744530	0.068749	0.000049
C35	C	1.077863	0.402083	0.333382
C36	C	1.411197	0.735416	0.666715
C37	C	0.530305	0.020466	0.000078
C38	C	0.863638	0.353800	0.333411
C39	C	1.196971	0.687133	0.666745
C40	C	0.469001	0.042882	-0.072931
C41	C	0.802335	0.376215	0.260402
C42	C	1.135668	0.709549	0.593736
C43	C	0.573827	0.067019	0.000060
C44	C	0.907160	0.400352	0.333393
C45	C	1.240493	0.733686	0.666726
C46	C	0.469003	0.042904	0.073049
C47	C	0.802337	0.376237	0.406382
C48	C	1.135670	0.709570	0.739715
C49	C	0.408936	0.065344	0.000074
C50	C	0.742269	0.398677	0.333407
C51	C	1.075602	0.732011	0.666741
C52	C	0.513752	0.089448	-0.073010
C53	C	0.847085	0.422781	0.260324
C54	C	1.180418	0.756114	0.593657
C55	C	0.513760	0.089463	0.073036
C56	C	0.847093	0.422796	0.406369
C57	C	1.180426	0.756129	0.739702
C58	C	0.452474	0.111912	0.000009
C59	C	0.785807	0.445246	0.333342
C60	C	1.119140	0.778579	0.666675
C61	C	0.668816	0.067983	0.000051
C62	C	1.002150	0.401316	0.333384
C63	C	1.335483	0.734649	0.666717
C64	C	0.313947	0.064384	0.000077
C65	C	0.647281	0.397717	0.333410
C66	C	0.980614	0.731051	0.666743
C67	C	0.998658	-0.022190	0.000091
C68	C	1.331991	0.311143	0.333425
C69	C	1.665324	0.644477	0.666758
C70	C	0.997697	-0.075849	0.000099
C71	C	1.331030	0.257484	0.333432
C72	C	1.664364	0.590818	0.666765
C73	C	1.068426	-0.414358	0.000060
C74	C	1.401759	-0.081024	0.333393
C75	C	1.735093	0.252309	0.666726
C76	C	1.064862	-0.616033	0.000047
C77	C	1.398195	-0.282699	0.333380
C78	C	1.731529	0.050634	0.666714
O79	O	1.129539	-0.647008	0.000014
O80	O	1.462872	-0.313675	0.333347
O81	O	1.796205	0.019658	0.666681
N82	N	0.987823	-0.635490	0.000040
N83	N	1.321156	-0.302157	0.333374
N84	N	1.654490	0.031176	0.666707
C85	C	0.911669	-0.604525	0.000031
C86	C	1.245003	-0.271192	0.333365
C87	C	1.578336	0.062141	0.666698
O88	O	0.846061	-0.625703	0.000016
O89	O	1.179394	-0.292369	0.333350
O90	O	1.512728	0.040964	0.666683
C91	C	0.915234	-0.402851	0.000038
C92	C	1.248567	-0.069518	0.333371
C93	C	1.581901	0.263815	0.666704
C94	C	0.992278	-0.383397	0.000053
C95	C	1.325612	-0.050064	0.333386
C96	C	1.658945	0.283270	0.666720
C97	C	1.145464	-0.394903	0.000074
C98	C	1.478797	-0.061569	0.333408
C99	C	1.812131	0.271764	0.666741
C100	C	1.146354	-0.344487	0.000082
C101	C	1.479687	-0.011154	0.333416
C102	C	1.813021	0.322180	0.666749
C103	C	1.070206	-0.313526	0.000076
C104	C	1.403540	0.019807	0.333409
C105	C	1.736873	0.353141	0.666742
C106	C	0.993168	-0.332981	0.000061
C107	C	1.326502	0.000352	0.333394
C108	C	1.659835	0.333686	0.666728
C109	C	0.839081	-0.371887	0.000022
C110	C	1.172415	-0.038554	0.333355
C111	C	1.505748	0.294779	0.666689
C112	C	0.839979	-0.321466	0.000021
C113	C	1.173313	0.011867	0.333355
C114	C	1.506646	0.345200	0.666688
C115	C	0.917024	-0.302012	0.000037
C116	C	1.250357	0.031322	0.333370
C117	C	1.583690	0.364655	0.666704
C118	C	0.917911	-0.251604	0.000063
C119	C	1.251244	0.081729	0.333396
C120	C	1.584577	0.415062	0.666729
N121	N	0.994950	-0.232147	0.000069
N122	N	1.328283	0.101186	0.333403
N123	N	1.661617	0.434520	0.666736
C124	C	1.071098	-0.263108	0.000076
C125	C	1.404431	0.070225	0.333409
C126	C	1.737764	0.403559	0.666742
C127	C	0.909803	-0.710408	0.000030
C128	C	1.243136	-0.377074	0.333363
C129	C	1.576470	-0.043741	0.666696
C130	C	0.908912	-0.760826	0.000030
C131	C	1.242245	-0.427492	0.333363
C132	C	1.575578	-0.094159	0.666696
C133	C	1.062105	-0.772330	0.000044
C134	C	1.395438	-0.438996	0.333377
C135	C	1.728772	-0.105663	0.666710
C136	C	1.062995	-0.721911	0.000050
C137	C	1.396329	-0.388577	0.333383
C138	C	1.729662	-0.055244	0.666717
C139	C	0.986842	-0.690950	0.000036
C140	C	1.320176	-0.357617	0.333369
C141	C	1.653509	-0.024283	0.666703
C142	C	1.072961	-0.157231	0.000093
C143	C	1.406295	0.176103	0.333427
C144	C	1.739628	0.509436	0.666760
C145	C	1.073845	-0.106810	0.000105
C146	C	1.407178	0.226523	0.333438
C147	C	1.740511	0.559857	0.666772
C148	C	0.920652	-0.095310	0.000086
C149	C	1.253985	0.238023	0.333420
C150	C	1.587319	0.571356	0.666753
C151	C	0.919768	-0.145727	0.000079
C152	C	1.253102	0.187607	0.333413
C153	C	1.586435	0.520940	0.666746
C154	C	0.995930	-0.176686	0.000080
C155	C	1.329263	0.156647	0.333413
C156	C	1.662596	0.489981	0.666746
O157	O	0.853269	-0.220600	0.000085
O158	O	1.186602	0.112733	0.333419
O159	O	1.519935	0.446066	0.666752
O160	O	1.136697	-0.241921	0.000071
O161	O	1.470030	0.091412	0.333404
O162	O	1.803363	0.424745	0.666738
C163	C	1.067536	-0.464774	0.000052
C164	C	1.400869	-0.131440	0.333385
C165	C	1.734203	0.201893	0.666718
C166	C	0.990498	-0.484228	0.000037
C167	C	1.323831	-0.150895	0.333370
C168	C	1.657165	0.182438	0.666704
C169	C	0.914350	-0.453268	0.000031
C170	C	1.247684	-0.119934	0.333364
C171	C	1.581017	0.213399	0.666697
C172	C	0.989607	-0.534647	0.000037
C173	C	1.322940	-0.201313	0.333370
C174	C	1.656273	0.132020	0.666704
C175	C	1.065754	-0.565608	0.000044
C176	C	1.399088	-0.232274	0.333377
C177	C	1.732421	0.101059	0.666710
C178	C	1.142794	-0.546150	0.000050
C179	C	1.476127	-0.212817	0.333383
C180	C	1.809460	0.120516	0.666717
C181	C	1.143684	-0.495734	0.000058
C182	C	1.477017	-0.162401	0.333391
C183	C	1.810350	0.170932	0.666725
C184	C	0.837311	-0.472725	0.000024
C185	C	1.170644	-0.139392	0.333357
C186	C	1.503978	0.193942	0.666691
C187	C	0.836427	-0.523141	0.000017
C188	C	1.169760	-0.189808	0.333350
C189	C	1.503094	0.143525	0.666684
C190	C	0.912575	-0.554102	0.000023
C191	C	1.245908	-0.220769	0.333357
C192	C	1.579242	0.112564	0.666690
C193	C	1.144993	0.062658	0.000084
C194	C	1.478326	0.395992	0.333417
C195	C	1.811660	0.729325	0.666750
C196	C	1.238227	0.063615	0.000086
C197	C	1.571560	0.396948	0.333419
C198	C	1.904893	0.730282	0.666753
C199	C	0.984099	0.154554	0.000049
C200	C	1.317432	0.487888	0.333383
C201	C	1.650766	0.821221	0.666716
C202	C	0.985059	0.208213	0.000036
C203	C	1.318393	0.541547	0.333369
C204	C	1.651726	0.874880	0.666703
N205	N	0.991352	0.066198	0.230749
N206	N	1.324686	0.399532	0.564083
N207	N	1.658019	0.732865	0.897416
N208	N	0.991411	0.066162	-0.230607
N209	N	1.324744	0.399495	0.102727
N210	N	1.658078	0.732829	0.436060
C211	C	0.931267	0.100495	0.470419
C212	C	1.264600	0.433829	0.803752
C213	C	1.597933	0.767162	1.137086
C214	C	1.007044	0.109879	0.529758
C215	C	1.340378	0.443213	0.863091
C216	C	1.673711	0.776546	1.196425
C217	C	0.991374	0.066186	0.412356
C218	C	1.324707	0.399520	0.745690
C219	C	1.658041	0.732853	1.079023
C220	C	0.915617	0.056813	0.529759
C221	C	1.248950	0.390146	0.863092
C222	C	1.582283	0.723480	1.196426
C223	C	0.991388	0.066176	0.587780
C224	C	1.324721	0.399509	0.921114
C225	C	1.658055	0.732842	1.254447
C226	C	1.067190	0.075592	0.470389
C227	C	1.400523	0.408925	0.803722
C228	C	1.733856	0.742259	1.137055
C229	C	0.975712	0.022507	0.470385
C230	C	1.309045	0.355840	0.803718
C231	C	1.642379	0.689173	1.137051
C232	C	1.051545	0.031872	0.529697
C233	C	1.384878	0.365205	0.863030
C234	C	1.718212	0.698539	1.196363
C235	C	0.991365	0.066194	0.311299
C236	C	1.324698	0.399527	0.644632
C237	C	1.658031	0.732860	0.977966
C238	C	0.991406	0.066168	0.688836
C239	C	1.324739	0.399501	1.022169
C240	C	1.658073	0.732835	1.355502
H241	H	0.533625	0.109141	0.134753
H242	H	0.866958	0.442474	0.468086
H243	H	1.200292	0.775807	0.801419
H244	H	1.020304	0.146814	0.555837
H245	H	1.353637	0.480147	0.889171
H246	H	1.686971	0.813480	1.222504
F247	F	1.150956	0.086005	0.436449
F248	F	1.484290	0.419338	0.769782
F249	F	1.817623	0.752671	1.103115
F250	F	1.118062	-0.006059	0.563508
F251	F	1.451395	0.327274	0.896841
F252	F	1.784729	0.660607	1.230174
F253	F	0.443065	0.017142	-0.153598
F254	F	0.776398	0.350475	0.179735
F255	F	1.109732	0.683808	0.513069
H256	H	0.847786	-0.685203	0.000018
H257	H	1.181120	-0.351870	0.333352
H258	H	1.514453	-0.018537	0.666685
F259	F	1.226518	-0.427847	0.000081
F260	F	1.559852	-0.094514	0.333414
F261	F	1.893185	0.238820	0.666747
H262	H	0.776344	-0.387718	0.000004
H263	H	1.109677	-0.054385	0.333337
H264	H	1.443010	0.278949	0.666671
H265	H	0.962429	-0.014416	0.444285
H266	H	1.295762	0.318918	0.777618
H267	H	1.629095	0.652251	1.110951
H268	H	0.564143	-0.018169	-0.000003
H269	H	0.897476	0.315165	0.333331
H270	H	1.230809	0.648498	0.666664
F271	F	0.539548	0.115159	-0.153776
F272	F	0.872882	0.448492	0.179557
F273	F	1.206215	0.781825	0.512891
F274	F	1.144995	-0.701210	0.000066
F275	F	1.478329	-0.367877	0.333400
F276	F	1.811662	-0.034544	0.666733
F277	F	0.864894	0.138448	0.436395
F278	F	1.198228	0.471782	0.769729
F279	F	1.531561	0.805115	1.103062
H280	H	0.418809	0.150587	-0.000042
H281	H	0.752143	0.483920	0.333291
H282	H	1.085476	0.817254	0.666625
H283	H	0.858655	-0.070093	0.000084
H284	H	1.191988	0.263240	0.333418
H285	H	1.525321	0.596574	0.666751
F286	F	0.443076	0.017163	0.153725
F287	F	0.776409	0.350497	0.487058
F288	F	1.109742	0.683830	0.820391
F289	F	1.155849	-0.086108	0.000121
F290	F	1.489183	0.247225	0.333455
F291	F	1.822516	0.580558	0.666788
H292	H	1.134979	-0.182432	0.000090
H293	H	1.468313	0.150901	0.333424
H294	H	1.801646	0.484234	0.666757
H295	H	1.206421	-0.479900	0.000071
H296	H	1.539754	-0.146566	0.333404
H297	H	1.873088	0.186767	0.666737
F298	F	0.826911	-0.781525	0.000029
F299	F	1.160244	-0.448192	0.333362
F300	F	1.493578	-0.114858	0.666696
F301	F	0.758924	-0.288518	0.000005
F302	F	1.092258	0.044815	0.333338
F303	F	1.425591	0.378148	0.666671
H304	H	1.209091	-0.328652	0.000091
H305	H	1.542425	0.004681	0.333425
H306	H	1.875758	0.338014	0.666758
F307	F	1.143147	-0.805289	0.000049
F308	F	1.476481	-0.471956	0.333382
F309	F	1.809814	-0.138622	0.666715
H310	H	0.775301	-0.447521	0.000017
H311	H	1.108634	-0.114188	0.333350
H312	H	1.441967	0.219146	0.666683
F313	F	0.837770	-0.166432	0.000079
F314	F	1.171103	0.166901	0.333412
F315	F	1.504437	0.500235	0.666745
F316	F	1.223836	-0.579110	0.000062
F317	F	1.557169	-0.245777	0.333395
F318	F	1.890502	0.087557	0.666728
F319	F	0.831870	0.046456	0.563848
F320	F	1.165204	0.379789	0.897182
F321	F	1.498537	0.713123	1.230515
H322	H	0.773684	-0.538976	0.000012
H323	H	1.107017	-0.205642	0.333345
H324	H	1.440350	0.127691	0.666679
