data_functionalizedCrystal
_audit_creation_method	'MofGen! by Chris Wilmer'
_symmetry_space_group_name_H-M	'P1'
_symmetry_Int_Tables_number	1
_symmetry_cell_setting	triclinic
loop_
_symmetry_equiv_pos_as_xyz
  x,y,z
_cell_length_a	21.395362
_cell_length_b	21.395361
_cell_length_c	21.395356
_cell_angle_alpha	90.028721
_cell_angle_beta	89.964122
_cell_angle_gamma	89.953589
loop_
_atom_site_label
_atom_site_type_symbol
_atom_site_fract_x
_atom_site_fract_y
_atom_site_fract_z
Zn1	Zn	0.957810	0.249186	-0.354583
Zn2	Zn	0.957728	0.353963	-0.249805
Zn3	Zn	0.853040	0.249233	-0.249785
Zn4	Zn	0.852995	0.353959	-0.354510
O5	O	0.905393	0.301585	-0.302171
O6	O	1.045477	0.263067	-0.340724
O7	O	0.943825	0.340092	-0.162124
O8	O	0.866992	0.161548	-0.263709
O9	O	1.045417	0.340047	-0.263743
O10	O	0.943966	0.161514	-0.340704
O11	O	0.866912	0.263147	-0.162109
O12	O	0.765356	0.263142	-0.263637
O13	O	0.866914	0.340039	-0.442197
O14	O	0.765323	0.340084	-0.340578
O15	O	0.943922	0.263062	-0.442251
O16	O	0.943781	0.441641	-0.263672
O17	O	0.866834	0.441637	-0.340598
C18	C	0.742606	0.301618	-0.302098
C19	C	0.672964	0.301647	-0.302082
C20	C	0.640250	0.341764	-0.342085
C21	C	0.574815	0.341749	-0.342113
C22	C	0.542096	0.301623	-0.302126
C23	C	0.574818	0.261499	-0.262120
C24	C	0.640252	0.261511	-0.262098
C25	C	0.438379	0.296585	-0.245721
C26	C	0.372946	0.296578	-0.245742
C27	C	0.340275	0.301582	-0.302195
C28	C	0.373045	0.306608	-0.358629
C29	C	0.438480	0.306620	-0.358607
C30	C	0.471144	0.301605	-0.302146
C31	C	0.236609	0.341685	-0.342232
C32	C	0.171172	0.341665	-0.342261
C33	C	0.171177	0.261418	-0.262263
C34	C	0.236612	0.261435	-0.262240
C35	C	0.269324	0.301571	-0.302223
C36	C	0.905311	0.464373	-0.302143
C37	C	0.905333	0.534014	-0.302152
C38	C	0.945435	0.566708	-0.262139
C39	C	0.945464	0.632143	-0.262156
C40	C	0.905381	0.664882	-0.302179
C41	C	0.865276	0.632180	-0.342200
C42	C	0.865252	0.566746	-0.342186
C43	C	0.848966	0.768612	-0.307074
C44	C	0.848988	0.834045	-0.307083
C45	C	0.905454	0.866703	-0.302224
C46	C	0.961899	0.833920	-0.297343
C47	C	0.961876	0.768486	-0.297329
C48	C	0.905402	0.735835	-0.302198
C49	C	0.945591	0.970350	-0.262227
C50	C	0.945622	1.035786	-0.262249
C51	C	0.865428	1.035822	-0.342289
C52	C	0.865403	0.970386	-0.342271
C53	C	0.905484	0.937654	-0.302237
C54	C	1.068817	0.301552	-0.302244
C55	C	1.138458	0.301538	-0.302275
C56	C	0.905422	0.301545	-0.465594
C57	C	0.905435	0.301528	-0.535235
C58	C	0.905494	1.138162	-0.302223
C59	C	0.905538	1.068520	-0.302273
C60	C	0.945591	0.261346	-1.037061
C61	C	0.945587	0.261361	-0.971625
C62	C	0.905488	0.301444	-0.938874
C63	C	0.865404	0.341526	-0.971563
C64	C	0.865414	0.341514	-1.036997
C65	C	0.849019	0.306422	-0.835179
C66	C	0.849008	0.306429	-0.769746
C67	C	0.905456	0.301484	-0.737053
C68	C	0.961918	0.296519	-0.769801
C69	C	0.961929	0.296507	-0.835235
C70	C	0.905473	0.301462	-0.867921
C71	C	0.945536	0.261424	-0.633419
C72	C	0.945532	0.261444	-0.567982
C73	C	0.865344	0.341605	-0.567921
C74	C	0.865354	0.341589	-0.633356
C75	C	0.905449	0.301495	-0.666101
C76	C	0.905400	0.301580	-0.139383
C77	C	0.905510	0.301421	-0.069742
H78	H	0.465158	0.310710	-0.404557
F79	F	0.822771	1.070660	-0.384889
F80	F	0.136356	0.384361	-0.384844
F81	F	0.988199	0.218792	-0.533201
H82	H	0.978230	0.943698	-0.229631
H83	H	0.832641	0.658840	-0.374788
H84	H	0.346446	0.310682	-0.404599
H85	H	0.978281	1.062405	-0.229666
H86	H	0.548174	0.374416	-0.374690
H87	H	0.832596	0.540126	-0.374770
H88	H	0.832774	0.374149	-1.063606
H89	H	0.832746	0.943765	-0.374851
F90	F	0.988284	0.218694	-1.071907
F91	F	0.788915	0.868929	-0.312276
F92	F	0.988249	0.218707	-0.936836
H93	H	0.832712	0.374219	-0.659966
H94	H	0.802981	0.742029	-0.311033
F95	F	1.022018	0.291229	-0.870086
F96	F	0.822674	0.384270	-0.533069
H97	H	0.263245	0.374363	-0.374793
F98	F	0.136359	0.218710	-0.219709
F99	F	0.271430	0.218738	-0.219661
F100	F	0.338076	0.291229	-0.185682
H101	H	0.803033	0.310472	-0.743087
F102	F	1.022001	0.291265	-0.735013
H103	H	0.978184	0.228777	-0.660081
H104	H	0.464975	0.292507	-0.199747
F105	F	0.788934	0.311678	-0.869966
H106	H	0.666881	0.374445	-0.374644
F107	F	0.539996	0.218792	-0.219566
H108	H	0.666888	0.228841	-0.229522
F109	F	0.988100	0.531876	-0.219537
H110	H	0.978122	0.658768	-0.229572
H111	H	1.007834	0.741795	-0.293357
H112	H	1.007879	0.860508	-0.293386
H113	H	0.832757	0.374163	-0.944892
