data_functionalizedCrystal
_audit_creation_method	'MofGen! by Chris Wilmer'
_symmetry_space_group_name_H-M	'P1'
_symmetry_Int_Tables_number	1
_symmetry_cell_setting	triclinic
loop_
_symmetry_equiv_pos_as_xyz
  x,y,z
_cell_length_a	10.686220
_cell_length_b	29.839131
_cell_length_c	10.685880
_cell_angle_alpha	94.334932
_cell_angle_beta	89.641569
_cell_angle_gamma	94.423467
loop_
_atom_site_label
_atom_site_type_symbol
_atom_site_fract_x
_atom_site_fract_y
_atom_site_fract_z
Zn1	Zn	1.972071	-0.140242	-0.562341
Zn2	Zn	1.955762	-0.210103	-0.352573
Zn3	Zn	1.746200	-0.141157	-0.368663
Zn4	Zn	1.762165	-0.221522	-0.578342
O5	O	1.859049	-0.178256	-0.465480
O6	O	2.145457	-0.144347	-0.521085
O7	O	1.914457	-0.196561	-0.179167
O8	O	1.776306	-0.078166	-0.394393
O9	O	2.133475	-0.195673	-0.366969
O10	O	1.942253	-0.077493	-0.536687
O11	O	1.760492	-0.145907	-0.190989
O12	O	1.572768	-0.156980	-0.409908
O13	O	1.803516	-0.215136	-0.751760
O14	O	1.584497	-0.216024	-0.563958
O15	O	1.957734	-0.155420	-0.740004
O16	O	1.929937	-0.274488	-0.382484
O17	O	1.787702	-0.282877	-0.548356
C18	C	1.533115	-0.187841	-0.490416
C19	C	1.393681	-0.191953	-0.501114
C20	C	1.858818	-0.294984	-0.465435
C21	C	1.858837	-0.344918	-0.465449
C22	C	1.933266	-0.650174	-0.379217
C23	C	1.933425	-0.837844	-0.379253
O24	O	1.996524	-0.858382	-0.305901
N25	N	1.859317	-0.865693	-0.465555
C26	C	1.785170	-0.846622	-0.551858
O27	O	1.722150	-0.874616	-0.625272
C28	C	1.785019	-0.658953	-0.551826
C29	C	1.859122	-0.631106	-0.465511
C30	C	2.007365	-0.622327	-0.292909
C31	C	2.007319	-0.575413	-0.292897
C32	C	1.933175	-0.556345	-0.379191
C33	C	1.859077	-0.584191	-0.465498
C34	C	1.710880	-0.639883	-0.638135
C35	C	1.710852	-0.592962	-0.638121
C36	C	1.784955	-0.565115	-0.551806
C37	C	1.784887	-0.518209	-0.551780
N38	N	1.858996	-0.490360	-0.465479
C39	C	1.933139	-0.509428	-0.379184
C40	C	1.785253	-0.945151	-0.551867
C41	C	1.785289	-0.992068	-0.551874
C42	C	1.933545	-0.983286	-0.379270
C43	C	1.933502	-0.936368	-0.379259
C44	C	1.859361	-0.917301	-0.465566
C45	C	1.933037	-0.410904	-0.379163
C46	C	1.932981	-0.363986	-0.379155
C47	C	1.784730	-0.372772	-0.551762
C48	C	1.784780	-0.419686	-0.551767
C49	C	1.858944	-0.438750	-0.465462
O50	O	1.721832	-0.497640	-0.625103
O51	O	1.996171	-0.481426	-0.305800
C52	C	1.933312	-0.697088	-0.379229
C53	C	1.859214	-0.724935	-0.465537
C54	C	1.785070	-0.705867	-0.551831
C55	C	1.859249	-0.771852	-0.465543
C56	C	1.933393	-0.790920	-0.379249
C57	C	2.007501	-0.763071	-0.292948
C58	C	2.007456	-0.716156	-0.292935
C59	C	1.710962	-0.733716	-0.638132
C60	C	1.711012	-0.780631	-0.638137
C61	C	1.785156	-0.799699	-0.551843
C62	C	2.186257	-0.168634	-0.440447
C63	C	2.325693	-0.164534	-0.429779
C64	C	1.884225	-0.186449	-0.792670
C65	C	1.894953	-0.189941	-0.932099
C66	C	1.859318	-0.061072	-0.465550
C67	C	1.859432	-0.011135	-0.465580
C68	C	1.834044	-0.170060	-0.139557
C69	C	1.823559	-0.166435	-0.000111
H70	H	1.374157	-0.137914	-0.360521
N71	N	1.709562	-1.020510	-0.640016
N72	N	1.593161	-1.018505	-0.640451
H73	H	1.539678	-1.038591	-0.702706
N74	N	1.736580	-0.137828	-0.939373
N75	N	1.669463	-0.115725	-1.003248
H76	H	1.608033	-0.095520	-0.960347
H77	H	1.964293	-0.212739	-0.980544
N78	N	1.635236	-0.714245	-0.726302
N79	N	1.652376	-0.722128	-0.841429
H80	H	1.598887	-0.708379	-0.903704
H81	H	1.993844	-0.913697	-0.308974
H82	H	1.345210	-0.218577	-0.570369
N83	N	2.083083	-0.641799	-0.204731
N84	N	2.032873	-0.667293	-0.128123
H85	H	2.086345	-0.681042	-0.065834
N86	N	1.635109	-0.573480	-0.726265
N87	N	1.635071	-0.531590	-0.726248
H88	H	1.581576	-0.517830	-0.788496
N89	N	2.008679	-0.335548	-0.290967
N90	N	2.074873	-0.352582	-0.213927
H91	H	2.128334	-0.332500	-0.151645
H92	H	1.993431	-0.426421	-0.308889
H93	H	1.650658	-0.803301	-0.708425
H94	H	2.067664	-0.552742	-0.222615
N95	N	1.709058	-0.448127	-0.639922
N96	N	1.642853	-0.431094	-0.716955
H97	H	1.589376	-0.451177	-0.779221
N98	N	2.083222	-0.782560	-0.204799
N99	N	2.083237	-0.824451	-0.204834
H100	H	2.136714	-0.838219	-0.142587
H101	H	1.993917	-0.998819	-0.309006
N102	N	1.709508	-0.925686	-0.640044
N103	N	1.643352	-0.950561	-0.717085
H104	H	1.589853	-0.936816	-0.779359
H105	H	1.650531	-0.662549	-0.708416
H106	H	1.724359	-0.357239	-0.622019
H107	H	2.067798	-0.693486	-0.222649
