data_functionalizedCrystal
_audit_creation_method	'MofGen! by Chris Wilmer'
_symmetry_space_group_name_H-M	'P1'
_symmetry_Int_Tables_number	1
_symmetry_cell_setting	triclinic
loop_
_symmetry_equiv_pos_as_xyz
  x,y,z
_cell_length_a	13.897449
_cell_length_b	18.050590
_cell_length_c	13.897441
_cell_angle_alpha	90.033006
_cell_angle_beta	90.020733
_cell_angle_gamma	90.019832
loop_
_atom_site_label
_atom_site_type_symbol
_atom_site_fract_x
_atom_site_fract_y
_atom_site_fract_z
Zn1	Zn	1.474697	-0.295610	0.545365
Zn2	Zn	1.474588	-0.419815	0.384060
Zn3	Zn	1.313386	-0.295646	0.384083
Zn4	Zn	1.313365	-0.419766	0.545312
O5	O	1.394009	-0.357709	0.464705
O6	O	1.609664	-0.312092	0.523980
O7	O	1.453168	-0.403379	0.249081
O8	O	1.334838	-0.191716	0.405510
O9	O	1.609584	-0.403344	0.405469
O10	O	1.453353	-0.191690	0.524003
O11	O	1.334733	-0.312152	0.249099
O12	O	1.178402	-0.312105	0.405459
O13	O	1.334803	-0.403261	0.680301
O14	O	1.178386	-0.403295	0.523913
O15	O	1.453333	-0.312045	0.680340
O16	O	1.453148	-0.523733	0.405418
O17	O	1.334698	-0.523697	0.523890
C18	C	1.143395	-0.357699	0.464683
C19	C	1.036181	-0.357713	0.464697
C20	C	0.839886	-0.357716	0.464722
C21	C	0.949118	-0.357712	0.464705
C22	C	1.393935	-0.550661	0.464667
C23	C	1.393991	-0.633207	0.464682
C24	C	1.458539	-0.832650	0.400348
C25	C	1.482104	-0.881977	0.488383
C26	C	1.394046	-0.784337	0.464721
C27	C	1.370579	-0.882092	0.376725
C28	C	1.394101	-0.930322	0.464750
C29	C	1.417657	-0.832577	0.552802
C30	C	1.306091	-0.832688	0.441086
C31	C	1.329623	-0.881992	0.529181
C32	C	1.394017	-0.700239	0.464703
C33	C	1.394130	-1.014419	0.464778
C34	C	1.645602	-0.357720	0.464728
C35	C	1.752816	-0.357724	0.464737
C36	C	1.394078	-0.357644	0.716298
C37	C	1.394107	-0.357616	0.823512
C38	C	1.394110	-0.164004	0.464765
C39	C	1.394153	-0.081458	0.464790
C40	C	1.393996	-0.357721	0.214091
C41	C	1.394154	-0.357540	0.106877
C42	C	1.394133	-0.357565	1.019808
C43	C	1.394115	-0.357595	0.910575
H44	H	1.513096	-0.810984	0.345965
H45	H	1.556510	-0.903630	0.508393
C46	C	1.444627	-0.803322	0.653381
N47	N	1.464945	-0.781285	0.729134
H48	H	1.275107	-0.903521	0.583696
C49	C	1.205605	-0.803404	0.414012
N50	N	1.129920	-0.781344	0.393608
H51	H	1.350707	-0.903841	0.302296
