data_functionalizedCrystal
_audit_creation_method	'MofGen! by Chris Wilmer'
_symmetry_space_group_name_H-M	'P1'
_symmetry_Int_Tables_number	1
_symmetry_cell_setting	triclinic
loop_
_symmetry_equiv_pos_as_xyz
  x,y,z
_cell_length_a	18.101398
_cell_length_b	21.295417
_cell_length_c	18.101390
_cell_angle_alpha	89.962939
_cell_angle_beta	89.975319
_cell_angle_gamma	90.025773
loop_
_atom_site_label
_atom_site_type_symbol
_atom_site_fract_x
_atom_site_fract_y
_atom_site_fract_z
Zn1	Zn	1.132127	-0.250665	-0.418817
Zn2	Zn	1.132023	-0.355945	-0.294967
Zn3	Zn	1.008285	-0.250685	-0.294979
Zn4	Zn	1.008238	-0.355891	-0.418755
O5	O	1.070168	-0.303296	-0.356880
O6	O	1.235746	-0.264644	-0.402409
O7	O	1.115585	-0.342013	-0.191335
O8	O	1.024776	-0.162593	-0.311437
O9	O	1.235670	-0.341993	-0.311417
O10	O	1.115762	-0.162578	-0.402421
O11	O	1.024675	-0.264679	-0.191344
O12	O	0.904646	-0.264627	-0.311377
O13	O	1.024695	-0.341902	-0.522397
O14	O	0.904611	-0.341921	-0.402315
O15	O	1.115716	-0.264592	-0.522442
O16	O	1.115540	-0.444027	-0.311357
O17	O	1.024595	-0.443988	-0.402304
C18	C	0.877758	-0.303271	-0.356841
C19	C	0.795443	-0.303275	-0.356842
C20	C	0.496352	-0.303314	-0.356904
C21	C	0.527675	-0.254439	-0.299967
C22	C	0.613293	-0.254571	-0.299724
C23	C	0.644735	-0.303294	-0.356873
C24	C	0.613618	-0.369607	-0.335543
C25	C	0.527972	-0.369335	-0.335147
C26	C	0.527967	-0.286453	-0.435305
C27	C	0.613618	-0.284977	-0.434877
C28	C	0.728594	-0.303287	-0.356857
C29	C	0.412493	-0.303326	-0.356919
C30	C	1.070071	-0.466848	-0.356839
C31	C	1.070097	-0.536816	-0.356846
C32	C	1.117494	-0.569682	-0.309538
C33	C	1.117529	-0.635425	-0.309555
C34	C	1.070153	-0.668299	-0.356871
C35	C	1.022753	-0.635424	-0.404188
C36	C	1.022725	-0.569683	-0.404175
N37	N	1.005369	-0.771559	-0.362504
N38	N	1.005398	-0.834011	-0.362512
C39	C	1.070236	-0.866373	-0.356914
N40	N	1.135046	-0.833925	-0.351293
N41	N	1.135017	-0.771468	-0.351282
C42	C	1.070179	-0.739584	-0.356891
C43	C	1.117675	-0.970525	-0.309622
C44	C	1.117711	-1.036269	-0.309644
C45	C	1.022929	-1.036267	-0.404273
C46	C	1.022899	-0.970525	-0.404255
C47	C	1.070271	-0.937658	-0.356925
C48	C	1.263330	-0.303322	-0.356919
C49	C	1.345644	-0.303334	-0.356936
C50	C	1.070212	-0.303239	-0.550042
C51	C	1.070231	-0.303214	-0.632356
C52	C	1.070286	-0.139106	-0.356937
C53	C	1.070336	-0.069138	-0.356961
C54	C	1.070271	-0.303175	-0.931447
C55	C	1.127727	-0.254705	-0.900150
C56	C	1.127548	-0.254525	-0.814532
C57	C	1.070252	-0.303195	-0.783064
C58	C	0.992235	-0.285166	-0.814132
C59	C	0.992579	-0.284803	-0.899778
C60	C	1.090144	-0.369798	-0.899855
C61	C	1.091857	-0.369458	-0.814205
C62	C	1.070236	-0.303207	-0.699205
C63	C	1.070281	-0.303162	-1.015306
C64	C	1.070167	-0.303308	-0.164469
C65	C	1.070292	-0.303155	-0.082155
H66	H	0.506125	-0.265460	-0.242211
H67	H	1.156128	-0.662190	-0.271032
O68	O	0.501460	-0.388263	-0.259224
H69	H	0.467305	-0.431402	-0.263569
O70	O	0.640397	-0.269306	-0.222767
H71	H	0.592331	-0.276377	-0.185582
O72	O	0.500515	-0.419199	-0.387685
H73	H	0.548411	-0.443404	-0.413256
O74	O	0.971825	-1.071713	-0.455306
H75	H	0.979802	-1.122949	-0.447365
H76	H	1.156251	-0.943764	-0.271085
H77	H	0.633962	-0.236178	-0.450961
H78	H	0.507104	-0.205116	-0.313191
H79	H	0.633983	-0.406998	-0.375715
O80	O	0.971586	-0.534235	-0.455192
H81	H	0.984249	-0.546803	-0.513332
O82	O	1.168833	-1.071723	-0.258616
H83	H	1.201761	-1.037821	-0.225699
H84	H	0.984301	-0.943763	-0.442774
O85	O	0.641970	-0.388879	-0.260439
H86	H	0.678214	-0.351339	-0.238184
H87	H	1.156069	-0.542924	-0.271002
H88	H	0.984181	-0.662194	-0.442715
O89	O	0.499403	-0.223514	-0.460997
H90	H	0.462349	-0.203547	-0.418167
O91	O	0.969505	-0.221376	-0.785734
H92	H	0.914254	-0.209154	-0.808074
O93	O	0.641943	-0.328705	-0.494085
H94	H	0.678804	-0.364338	-0.468726
O95	O	0.641163	-0.189430	-0.317413
H96	H	0.620858	-0.175110	-0.372764
O97	O	1.204180	-0.269467	-0.786700
H98	H	1.241702	-0.276884	-0.834414
O99	O	1.204610	-0.269457	-0.927459
H100	H	1.202696	-0.311491	-0.963633
H101	H	1.114739	-0.205625	-0.921691
O102	O	0.501134	-0.333599	-0.491507
H103	H	0.465453	-0.368871	-0.463784
H104	H	1.114393	-0.205170	-0.794062
H105	H	0.975731	-0.236102	-0.919771
H106	H	0.948313	-0.318570	-0.920478
O107	O	0.933980	-0.330478	-0.787125
H108	H	0.960077	-0.366413	-0.751184
O109	O	1.167907	-0.387469	-0.787309
H110	H	1.182769	-0.434350	-0.809559
H111	H	1.146037	-0.386213	-0.921503
O112	O	1.040455	-0.419871	-0.785837
H113	H	0.983061	-0.409040	-0.803224
H114	H	1.048300	-0.405914	-0.920098
