data_functionalizedCrystal
_audit_creation_method	'MofGen! by Chris Wilmer'
_symmetry_space_group_name_H-M	'P1'
_symmetry_Int_Tables_number	1
_symmetry_cell_setting	triclinic
loop_
_symmetry_equiv_pos_as_xyz
  x,y,z
_cell_length_a	6.817900
_cell_length_b	10.992723
_cell_length_c	23.752930
_cell_angle_alpha	95.075542
_cell_angle_beta	100.066047
_cell_angle_gamma	108.770285
loop_
_atom_site_label
_atom_site_type_symbol
_atom_site_fract_x
_atom_site_fract_y
_atom_site_fract_z
V1	V	-4.016027	-0.179456	-0.178388
O2	O	-3.975987	0.006881	-0.174997
O3	O	-3.994313	-0.354156	-0.177163
O4	O	-3.950765	-0.177461	-0.256191
O5	O	-4.019837	-0.171037	-0.095422
V6	V	-4.498382	-0.157078	-0.168465
O7	O	-4.279847	-0.228545	-0.200154
O8	O	-4.684758	-0.107989	-0.146699
O9	O	-4.296889	0.017621	-0.169690
O10	O	-4.655818	-0.343415	-0.171856
O11	O	-4.611968	-0.165497	-0.251431
O12	O	-4.340437	-0.159074	-0.090662
C13	C	-3.846351	-0.396720	-0.174348
C14	C	-3.909772	-0.539543	-0.173865
C15	C	-4.220302	-0.750508	-0.176408
C16	C	-4.154627	-0.602036	-0.177132
C17	C	-3.857657	-0.609259	-0.226858
C18	C	-3.925061	-0.757928	-0.226421
C19	C	-3.853930	-0.718615	-0.117041
C20	C	-3.791662	-0.569892	-0.116886
C21	C	-3.790800	-0.171326	-0.275155
C22	C	-3.818902	-0.170851	-0.338760
C23	C	-4.175791	-0.174223	-0.736084
C24	C	-4.202215	-0.173759	-0.795847
O25	O	-4.371039	-0.178952	-0.829231
N26	N	-4.032961	-0.167095	-0.822823
C27	C	-3.837263	-0.160880	-0.790033
O28	O	-3.695725	-0.155167	-0.818466
C29	C	-3.810837	-0.161335	-0.730271
C30	C	-3.980111	-0.168013	-0.703299
C31	C	-4.345049	-0.180899	-0.709112
C32	C	-4.318627	-0.181366	-0.649354
C33	C	-4.122947	-0.175155	-0.616568
C34	C	-3.953689	-0.168479	-0.643541
C35	C	-3.615137	-0.155111	-0.697481
C36	C	-3.588725	-0.155565	-0.637715
C37	C	-3.757999	-0.162243	-0.610743
C38	C	-3.731587	-0.162735	-0.550997
N39	N	-3.900841	-0.169400	-0.524020
C40	C	-4.096521	-0.175610	-0.556806
C41	C	-3.892773	-0.159924	-0.915538
C42	C	-3.919201	-0.159478	-0.975299
C43	C	-4.284150	-0.172355	-0.981109
C44	C	-4.257724	-0.172810	-0.921347
C45	C	-4.062027	-0.166588	-0.888561
C46	C	-4.041020	-0.176590	-0.431309
C47	C	-4.014582	-0.177061	-0.371546
C48	C	-3.649632	-0.164177	-0.365741
C49	C	-3.676070	-0.163713	-0.425499
C50	C	-3.871777	-0.169915	-0.458282
O51	O	-3.562823	-0.157540	-0.517576
O52	O	-4.238022	-0.181305	-0.528364
C53	C	-4.108194	0.060178	-0.172504
C54	C	-4.024011	0.203001	-0.172991
C55	C	-4.163745	-0.165212	-0.071695
C56	C	-4.114881	-0.165682	-0.008089
H57	H	-3.915778	-0.743686	-0.076415
H58	H	-4.200380	-0.181642	-0.457994
Br59	Br	-4.244332	-0.186133	-0.334945
H60	H	-4.200391	-0.554526	-0.139254
Br61	Br	-3.684519	-0.809653	-0.226170
H62	H	-3.680987	-0.568817	-0.226481
H63	H	-4.456468	-0.186798	-0.627398
Br64	Br	-4.487463	-0.181873	-0.884748
H65	H	-4.249354	-0.583778	-0.218021
Br66	Br	-4.610646	-0.189332	-0.753596
Br67	Br	-4.122123	-0.844976	-0.296647
H68	H	-3.942121	-0.589474	-0.269022
H69	H	-4.298838	-0.775313	-0.138305
Br70	Br	-3.384076	-0.155757	-0.321235
Br71	Br	-3.857430	-0.491625	-0.051483
H72	H	-4.346888	-0.805028	-0.216773
Br73	Br	-3.492514	-0.496418	-0.107385
H74	H	-3.706830	-0.747780	-0.114012
H75	H	-4.443488	-0.177411	-1.007814
Br76	Br	-3.689474	-0.150447	-1.011899
H77	H	-3.733406	-0.154856	-0.888847
H78	H	-3.477291	-0.149674	-0.719432
H79	H	-3.538240	-0.158289	-0.447462
Br80	Br	-3.323116	-0.147108	-0.593223
