data_functionalizedCrystal
_audit_creation_method	'MofGen! by Chris Wilmer'
_symmetry_space_group_name_H-M	'P1'
_symmetry_Int_Tables_number	1
_symmetry_cell_setting	triclinic
loop_
_symmetry_equiv_pos_as_xyz
  x,y,z
_cell_length_a	14.044191
_cell_length_b	16.176319
_cell_length_c	17.699083
_cell_angle_alpha	90.007696
_cell_angle_beta	91.762604
_cell_angle_gamma	89.995217
loop_
_atom_site_label
_atom_site_type_symbol
_atom_site_fract_x
_atom_site_fract_y
_atom_site_fract_z
O1	O	1.257292	-0.068710	-0.182469
O2	O	1.757292	0.431290	0.317531
O3	O	0.981337	-0.068720	-0.175880
O4	O	1.481337	0.431280	0.324120
O5	O	1.127111	-0.068707	-0.069523
O6	O	1.627111	0.431293	0.430477
O7	O	1.111518	-0.068722	-0.288826
O8	O	1.611518	0.431278	0.211174
O9	O	1.127091	0.068786	-0.069514
O10	O	1.627091	0.568786	0.430486
O11	O	0.981317	0.068773	-0.175871
O12	O	1.481317	0.568773	0.324129
O13	O	1.257272	0.068784	-0.182460
O14	O	1.757272	0.568784	0.317540
Cu15	Cu	1.119293	0.081333	-0.179165
Cu16	Cu	1.619293	0.581333	0.320835
Cu17	Cu	1.119317	-0.081269	-0.179175
Cu18	Cu	1.619317	0.418731	0.320825
O19	O	1.111498	0.068771	-0.288817
O20	O	1.611498	0.568771	0.211183
C21	C	0.946020	0.000025	-0.172993
C22	C	1.446020	0.500025	0.327007
C23	C	0.840814	0.000022	-0.164395
C24	C	1.340814	0.500022	0.335605
C25	C	0.590423	0.000027	-0.209655
C26	C	1.090423	0.500027	0.290345
C27	C	0.648192	0.000030	-0.148688
C28	C	1.148192	0.500030	0.351312
C29	C	0.755376	0.000025	-0.157430
C30	C	1.255376	0.500025	0.342570
C31	C	0.483229	0.000031	-0.200915
C32	C	0.983229	0.500031	0.299085
C33	C	1.126542	0.000040	-0.041283
C34	C	1.626542	0.500040	0.458717
C35	C	1.124866	0.000040	0.042850
C36	C	1.624866	0.500040	0.542850
C37	C	1.292590	0.000036	-0.185347
C38	C	1.792590	0.500036	0.314653
C39	C	1.397796	0.000035	-0.193945
C40	C	1.897796	0.500035	0.306055
N41	N	1.119283	0.195698	-0.179158
N42	N	1.619283	0.695698	0.320842
N43	N	1.119334	-0.195634	-0.179177
N44	N	1.619334	0.304366	0.320823
C45	C	1.183851	0.238968	-0.132085
C46	C	1.683851	0.738968	0.367915
C47	C	1.183856	0.325515	-0.132085
C48	C	1.683856	0.825515	0.367915
C49	C	1.119297	0.368791	-0.179161
C50	C	1.619297	0.868791	0.320839
C51	C	1.054722	0.325515	-0.226236
C52	C	1.554722	0.825515	0.273764
C53	C	1.054713	0.238969	-0.226232
C54	C	1.554713	0.738969	0.273768
C55	C	1.054754	0.674543	-0.226252
C56	C	1.554754	1.174543	0.273748
C57	C	1.054770	0.761094	-0.226254
C58	C	1.554770	1.261094	0.273746
C59	C	1.183897	0.761089	-0.132105
C60	C	1.683897	1.261089	0.367895
C61	C	1.183888	0.674543	-0.132101
C62	C	1.683888	1.174543	0.367899
C63	C	1.119311	0.631275	-0.179172
C64	C	1.619311	1.131275	0.320828
C65	C	1.119305	0.537431	-0.179171
C66	C	1.619305	1.037431	0.320829
C67	C	1.119306	0.462633	-0.179167
C68	C	1.619306	0.962633	0.320833
C69	C	1.112067	0.000022	-0.317057
C70	C	1.612067	0.500022	0.182943
C71	C	1.113743	0.000017	-0.401191
C72	C	1.613743	0.500017	0.098809
C73	C	1.210432	0.000044	0.085567
C74	C	1.710432	0.500044	0.585567
C75	C	1.208852	0.000037	0.164620
C76	C	1.708852	0.500037	0.664620
C77	C	1.121704	0.000031	0.200954
C78	C	1.621704	0.500031	0.700954
C79	C	1.036131	0.000024	0.158231
C80	C	1.536131	0.500024	0.658231
C81	C	1.037713	0.000026	0.079180
C82	C	1.537713	0.500026	0.579180
C83	C	1.029751	0.000017	0.477035
C84	C	1.529751	0.500017	0.977035
C85	C	1.028176	0.000018	0.556091
C86	C	1.528176	0.500018	1.056091
C87	C	1.200890	0.000028	0.562474
C88	C	1.700890	0.500028	1.062474
C89	C	1.202471	0.000030	0.483423
C90	C	1.702471	0.500030	0.983423
C91	C	1.116899	0.000019	0.440707
C92	C	1.616899	0.500019	0.940707
C93	C	1.118614	0.000025	0.354990
C94	C	1.618614	0.500025	0.854990
C95	C	1.119988	0.000031	0.286670
C96	C	1.619988	0.500031	0.786670
H97	H	1.236427	0.203738	-0.093754
H98	H	1.736427	0.703738	0.406246
F99	F	0.986007	0.371572	-0.276335
F100	F	1.486007	0.871572	0.223665
F101	F	0.630992	0.000014	-0.286455
F102	F	1.130992	0.500014	0.213545
F103	F	1.252575	0.371566	-0.081984
F104	F	1.752575	0.871566	0.418016
H105	H	1.236461	0.639311	-0.093770
H106	H	1.736461	1.139311	0.406230
H107	H	1.236477	0.796327	-0.093775
H108	H	1.736477	1.296327	0.406225
H109	H	0.617152	-0.000024	-0.089927
H110	H	1.117152	0.499976	0.410073
F111	F	0.986029	0.628500	-0.276350
F112	F	1.486029	1.128500	0.223650
F113	F	1.299923	0.000043	0.210079
F114	F	1.799923	0.500043	0.710079
H115	H	1.281398	0.000054	0.055990
H116	H	1.781398	0.500054	0.555990
F117	F	0.986053	0.807150	-0.276361
F118	F	1.486053	1.307150	0.223639
F119	F	0.985988	0.192919	-0.276330
F120	F	1.485988	0.692919	0.223670
H121	H	0.957206	0.000015	0.585672
H122	H	1.457206	0.500015	1.085672
H123	H	1.273436	0.000039	0.453844
H124	H	1.773436	0.500039	0.953844
F125	F	1.291964	0.000037	0.607941
F126	F	1.791964	0.500037	1.107941
H127	H	0.960073	0.000008	0.442265
H128	H	1.460073	0.500008	0.942265
F129	F	0.943382	0.000009	0.196903
F130	F	1.443382	0.500009	0.696903
H131	H	0.968036	0.000022	0.044401
H132	H	1.468036	0.500022	0.544401
