data_functionalizedCrystal
_audit_creation_method	'MofGen! by Chris Wilmer'
_symmetry_space_group_name_H-M	'P1'
_symmetry_Int_Tables_number	1
_symmetry_cell_setting	triclinic
loop_
_symmetry_equiv_pos_as_xyz
  x,y,z
_cell_length_a	14.044220
_cell_length_b	19.188924
_cell_length_c	12.503572
_cell_angle_alpha	93.509187
_cell_angle_beta	86.164750
_cell_angle_gamma	88.165421
loop_
_atom_site_label
_atom_site_type_symbol
_atom_site_fract_x
_atom_site_fract_y
_atom_site_fract_z
O1	O	1.262478	0.164590	-0.089215
O2	O	0.986536	0.158516	-0.089242
O3	O	1.132473	0.060412	-0.089215
O4	O	1.116542	0.262694	-0.089242
O5	O	1.121498	0.067803	0.089425
O6	O	0.975561	0.165907	0.089398
O7	O	1.251503	0.171981	0.089425
Cu8	Cu	1.112530	0.169619	0.105722
Cu9	Cu	1.125509	0.160878	-0.105540
O10	O	1.105566	0.270086	0.089398
C11	C	0.945745	0.159554	0.000075
C12	C	0.840553	0.151624	0.000065
C13	C	1.126470	0.038063	0.000106
C14	C	1.124925	-0.039541	0.000108
C15	C	0.647951	0.137130	0.000088
C16	C	0.590083	0.193364	0.000085
C17	C	0.482913	0.185299	0.000098
C18	C	0.755132	0.145194	0.000075
C19	C	1.130186	-0.080016	-0.097269
C20	C	1.128721	-0.152934	-0.097277
C21	C	1.122013	-0.185374	0.000097
C22	C	1.116746	-0.144890	0.097487
C23	C	1.118201	-0.071974	0.097493
N24	N	1.169200	-0.298706	0.072576
N25	N	1.167820	-0.367974	0.072564
C26	C	1.117624	-0.405067	0.000086
N27	N	1.068874	-0.370276	-0.072395
N28	N	1.070259	-0.301002	-0.072386
C29	C	1.120433	-0.264439	0.000102
C30	C	1.121296	-0.524607	-0.097306
C31	C	1.119824	-0.597526	-0.097310
C32	C	1.107859	-0.589482	0.097456
C33	C	1.109321	-0.516564	0.097458
C34	C	1.116044	-0.484132	0.000074
C35	C	1.292294	0.170944	0.000106
C36	C	1.397486	0.178873	0.000108
C37	C	1.111569	0.292434	0.000075
C38	C	1.113115	0.370038	0.000065
N39	N	1.103407	0.175767	0.254313
N40	N	1.134639	0.154725	-0.254131
C41	C	1.089988	0.184817	0.473426
C42	C	1.148055	0.145677	0.526764
C43	C	1.140589	0.150713	0.648685
C44	C	1.097454	0.179783	0.351493
H45	H	0.621028	0.247565	0.000073
H46	H	1.034672	0.222106	0.519323
H47	H	1.203376	0.108387	0.480861
H48	H	0.617008	0.082933	0.000101
H49	H	1.124104	-0.630480	-0.176610
H50	H	1.132999	-0.185894	-0.176575
H51	H	1.135658	-0.053614	-0.176567
H52	H	1.111281	-0.171308	0.176770
H53	H	1.126765	-0.498199	-0.176602
H54	H	1.113913	-0.039019	0.176791
H55	H	1.102390	-0.615894	0.176740
H56	H	1.105044	-0.483609	0.176753
