data_functionalizedCrystal
_audit_creation_method	'MofGen! by Chris Wilmer'
_symmetry_space_group_name_H-M	'P1'
_symmetry_Int_Tables_number	1
_symmetry_cell_setting	triclinic
loop_
_symmetry_equiv_pos_as_xyz
  x,y,z
_cell_length_a	25.639242
_cell_length_b	12.759400
_cell_length_c	12.759393
_cell_angle_alpha	90.030452
_cell_angle_beta	90.031512
_cell_angle_gamma	90.010100
loop_
_atom_site_label
_atom_site_type_symbol
_atom_site_fract_x
_atom_site_fract_y
_atom_site_fract_z
Zn1	Zn	0.799361	-0.418341	0.594317
Zn2	Zn	1.299361	0.081659	1.094317
Zn3	Zn	0.799307	-0.594056	0.418637
Zn4	Zn	1.299307	-0.094056	0.918637
Zn5	Zn	0.711923	-0.418378	0.418620
Zn6	Zn	1.211923	0.081622	0.918620
Zn7	Zn	0.711919	-0.593964	0.594242
Zn8	Zn	1.211919	-0.093964	1.094242
O9	O	0.755628	-0.506185	0.506454
O10	O	1.255628	-0.006185	1.006454
O11	O	0.872519	-0.441672	0.571051
O12	O	1.372519	0.058328	1.071051
O13	O	0.787694	-0.570806	0.271614
O14	O	1.287694	-0.070806	0.771614
O15	O	0.723546	-0.271352	0.441950
O16	O	1.223546	0.228648	0.941950
O17	O	0.872479	-0.570770	0.441980
O18	O	1.372479	-0.070770	0.941980
O19	O	0.787786	-0.271325	0.571034
O20	O	1.287786	0.228675	1.071034
O21	O	0.723494	-0.441736	0.271601
O22	O	1.223494	0.058264	0.771601
O23	O	0.638757	-0.441647	0.441878
O24	O	1.138757	0.058353	0.941878
O25	O	0.723540	-0.570613	0.741273
O26	O	1.223540	-0.070613	1.241273
O27	O	0.638754	-0.570650	0.570906
O28	O	1.138754	-0.070650	1.070906
O29	O	0.787783	-0.441583	0.741328
O30	O	1.287783	0.058417	1.241328
O31	O	0.787691	-0.741065	0.441907
O32	O	1.287691	-0.241065	0.941907
O33	O	0.723487	-0.740998	0.570923
O34	O	1.223487	-0.240998	1.070923
C35	C	0.619785	-0.506144	0.506383
C36	C	1.119785	-0.006144	1.006383
C37	C	0.561671	-0.506151	0.506377
C38	C	1.061671	-0.006151	1.006377
C39	C	0.755597	-0.779152	0.506432
C40	C	1.255597	-0.279152	1.006432
C41	C	0.755631	-0.895929	0.506458
C42	C	1.255631	-0.395929	1.006458
C43	C	0.789131	-1.060522	0.439387
C44	C	1.289131	-0.560522	0.939387
C45	C	0.789100	-0.950798	0.439354
C46	C	1.289100	-0.450798	0.939354
C47	C	0.722188	-0.950789	0.573592
C48	C	1.222188	-0.450789	1.073592
C49	C	0.722218	-1.060511	0.573618
C50	C	1.222218	-0.560511	1.073618
C51	C	0.201315	-0.573469	0.573576
C52	C	0.701315	-0.073469	1.073576
C53	C	0.146711	-0.573475	0.573592
C54	C	0.646711	-0.073475	1.073592
O55	O	0.118481	-0.630660	0.630666
O56	O	0.618481	-0.130660	1.130666
N57	N	0.119388	-0.506214	0.506522
N58	N	0.619388	-0.006214	1.006522
C59	C	0.146673	-0.438934	0.439439
C60	C	0.646673	0.061066	0.939439
O61	O	0.118419	-0.381723	0.382393
O62	O	0.618419	0.118277	0.882393
C63	C	0.201276	-0.438923	0.439429
C64	C	0.701276	0.061077	0.939429
C65	C	0.228596	-0.506196	0.506495
C66	C	0.728596	-0.006196	1.006495
C67	C	0.228635	-0.640736	0.640637
C68	C	0.728635	-0.140736	1.140637
C69	C	0.283236	-0.640730	0.640619
C70	C	0.783236	-0.140730	1.140619
C71	C	0.310516	-0.573458	0.573539
C72	C	0.810516	-0.073458	1.073539
C73	C	0.283197	-0.506191	0.506477
C74	C	0.783197	-0.006191	1.006477
C75	C	0.228560	-0.371639	0.372352
C76	C	0.728560	0.128361	0.872352
C77	C	0.283167	-0.371633	0.372348
C78	C	0.783167	0.128367	0.872348
C79	C	0.310487	-0.438907	0.439414
C80	C	0.810487	0.061093	0.939414
C81	C	0.365078	-0.438914	0.439379
C82	C	0.865078	0.061086	0.939379
N83	N	0.392400	-0.506175	0.506448
N84	N	0.892400	-0.006175	1.006448
C85	C	0.365120	-0.573447	0.573529
C86	C	0.865120	-0.073447	1.073529
C87	C	0.032002	-0.438961	0.439468
C88	C	0.532002	0.061039	0.939468
C89	C	-0.022600	-0.438976	0.439472
C90	C	0.477400	0.061024	0.939472
C91	C	-0.022558	-0.573516	0.573627
C92	C	0.477442	-0.073516	1.073627
C93	C	0.032045	-0.573505	0.573616
C94	C	0.532045	-0.073505	1.073616
C95	C	0.059325	-0.506222	0.506537
C96	C	0.559325	-0.006222	1.006537
C97	C	0.479785	-0.573432	0.573485
C98	C	0.979785	-0.073432	1.073485
C99	C	0.534390	-0.573423	0.573457
C100	C	1.034390	-0.073423	1.073457
C101	C	0.534344	-0.438880	0.439307
C102	C	1.034344	0.061120	0.939307
C103	C	0.479743	-0.438892	0.439330
C104	C	0.979743	0.061108	0.939330
C105	C	0.452465	-0.506171	0.506427
C106	C	0.952465	-0.006171	1.006427
O107	O	0.393343	-0.381755	0.382337
O108	O	0.893343	0.118245	0.882337
O109	O	0.393380	-0.630639	0.630575
O110	O	0.893380	-0.130639	1.130575
C111	C	0.892001	-0.506227	0.506526
C112	C	1.392001	-0.006227	1.006526
C113	C	0.950115	-0.506245	0.506557
C114	C	1.450115	-0.006245	1.006557
C115	C	0.755667	-0.506084	0.780487
C116	C	1.255667	-0.006084	1.280487
C117	C	0.755683	-0.506041	0.897264
C118	C	1.255683	-0.006041	1.397264
C119	C	0.755673	-0.232152	0.506499
C120	C	1.255673	0.267848	1.006499
C121	C	0.755692	-0.115375	0.506518
C122	C	1.255692	0.384625	1.006518
C123	C	0.755619	-0.506210	0.233486
C124	C	1.255619	-0.006210	0.733486
C125	C	0.755703	-0.505957	0.116710
C126	C	1.255703	-0.005957	0.616710
C127	C	0.789137	-0.438844	0.952156
C128	C	1.289137	0.061156	1.452156
C129	C	0.789146	-0.438799	1.061881
C130	C	1.289146	0.061201	1.561881
C131	C	0.722246	-0.573156	1.061810
C132	C	1.222246	-0.073156	1.561810
C133	C	0.722235	-0.573195	0.952088
C134	C	1.222235	-0.073195	1.452088
H135	H	0.816388	-1.105189	0.384749
H136	H	1.316388	-0.605189	0.884749
H137	H	0.694989	-0.627914	0.907394
H138	H	1.194989	-0.127914	1.407394
H139	H	0.556566	-0.384112	0.384689
H140	H	1.056566	0.115888	0.884689
H141	H	0.694985	-1.105174	0.628286
H142	H	1.194985	-0.605174	1.128286
H143	H	0.556631	-0.628209	0.628072
H144	H	1.056631	-0.128209	1.128072
H145	H	0.457498	-0.384114	0.384717
H146	H	0.957498	0.115886	0.884717
H147	H	0.695014	-0.627833	1.106462
H148	H	1.195014	-0.127833	1.606462
H149	H	0.457581	-0.628214	0.628124
H150	H	0.957581	-0.128214	1.128124
H151	H	0.305474	-0.695509	0.695234
H152	H	0.805474	-0.195509	1.195234
H153	H	0.816372	-0.384160	0.907522
H154	H	1.316372	0.115840	1.407522
H155	H	0.816387	-0.384079	1.106569
H156	H	1.316387	0.115921	1.606569
H157	H	0.206429	-0.695517	0.695268
H158	H	0.706429	-0.195517	1.195268
H159	H	0.816328	-0.906140	0.384689
H160	H	1.316328	-0.406140	0.884689
H161	H	0.054285	-0.628284	0.628229
H162	H	0.554285	-0.128284	1.128229
H163	H	0.694935	-0.906109	0.628225
H164	H	1.194935	-0.406109	1.128225
H165	H	-0.044780	-0.628290	0.628250
H166	H	0.455220	-0.128290	1.128250
H167	H	-0.044839	-0.384206	0.384849
H168	H	0.455161	0.115794	0.884849
H169	H	0.054210	-0.384172	0.384836
H170	H	0.554210	0.115828	0.884836
H171	H	0.206326	-0.316860	0.317736
H172	H	0.706326	0.183140	0.817736
H173	H	0.305375	-0.316836	0.317729
H174	H	0.805375	0.183164	0.817729
