data_functionalizedCrystal
_audit_creation_method	'MofGen! by Chris Wilmer'
_symmetry_space_group_name_H-M	'P1'
_symmetry_Int_Tables_number	1
_symmetry_cell_setting	triclinic
loop_
_symmetry_equiv_pos_as_xyz
  x,y,z
_cell_length_a	10.489716
_cell_length_b	10.489716
_cell_length_c	8.965430
_cell_angle_alpha	89.996523
_cell_angle_beta	90.001533
_cell_angle_gamma	95.470864
loop_
_atom_site_label
_atom_site_type_symbol
_atom_site_fract_x
_atom_site_fract_y
_atom_site_fract_z
O1	O	-0.179811	1.694056	-0.124035
O2	O	-0.196737	1.322855	-0.124041
O3	O	-0.002674	1.516918	-0.124020
O4	O	-0.373875	1.499992	-0.124055
O5	O	-0.002686	1.516902	0.124058
O6	O	-0.196750	1.322838	0.124038
O7	O	-0.179824	1.694039	0.124044
Cu8	Cu	-0.188288	1.508437	0.146693
Cu9	Cu	-0.188273	1.508457	-0.146689
O10	O	-0.373888	1.499976	0.124023
C11	C	-0.195472	1.275314	-0.000002
C12	C	-0.191667	1.133684	-0.000004
C13	C	-0.310673	1.035999	-0.000019
C14	C	-0.247794	0.958651	0.122310
C15	C	-0.247753	0.958674	-0.122276
C16	C	-0.128838	1.058201	0.122425
C17	C	-0.128815	1.058229	-0.122271
C18	C	-0.065848	0.980929	0.000088
C19	C	-0.421413	1.501256	-0.000020
C20	C	-0.563044	1.505061	-0.000034
C21	C	-0.660728	1.386055	-0.000015
C22	C	-0.738091	1.448949	-0.122318
C23	C	-0.738039	1.448959	0.122269
C24	C	-0.638542	1.567905	-0.122438
C25	C	-0.638484	1.567898	0.122259
C26	C	-0.715798	1.630879	-0.000074
C27	C	0.044852	1.515638	0.000020
C28	C	0.186483	1.511833	0.000024
C29	C	-0.181089	1.741580	0.000002
C30	C	-0.184894	1.883210	-0.000006
N31	N	-0.188298	1.508433	0.353042
N32	N	-0.188253	1.508471	-0.353039
C33	C	-0.278016	1.418657	0.450338
C34	C	-0.303817	1.534153	0.549751
C35	C	-0.162508	1.392986	0.549756
C36	C	-0.214157	1.623987	0.450266
C37	C	-0.072798	1.482744	0.450262
C38	C	-0.098550	1.598323	0.549630
H39	H	-0.078635	1.101514	0.225947
H40	H	-0.140716	1.295339	0.593462
H41	H	-0.740219	1.734472	-0.000134
C42	C	-0.421744	1.675465	0.694661
C43	C	-0.435641	1.563518	0.608769
H44	H	-0.503130	1.693588	0.731087
H45	H	-0.366285	1.663951	0.776304
H46	H	-0.386410	1.744784	0.634831
H47	H	-0.470966	1.494197	0.668603
H48	H	-0.491121	1.575025	0.527115
H49	H	-0.236067	1.721657	0.406748
C50	C	-0.699397	1.334652	0.347304
C51	C	-0.796700	1.381126	0.261889
H52	H	-0.735609	1.292780	0.433502
H53	H	-0.656790	1.275670	0.289688
H54	H	-0.639814	1.403996	0.376670
H55	H	-0.856279	1.311780	0.232514
H56	H	-0.839329	1.440112	0.319516
H57	H	-0.022655	1.674343	0.592954
C58	C	-0.446591	1.632297	0.259585
C59	C	-0.579703	1.635642	0.261854
H60	H	-0.410303	1.674119	0.345771
H61	H	-0.426810	1.545806	0.258704
H62	H	-0.412385	1.674721	0.172749
H63	H	-0.613911	1.593211	0.348685
H64	H	-0.599495	1.722150	0.262749
H65	H	-0.781596	1.398719	-0.225724
C66	C	-0.254557	0.952117	0.389925
C67	C	-0.315610	0.899911	0.261899
H68	H	-0.296435	0.915855	0.476093
H69	H	-0.167657	0.933647	0.390054
H70	H	-0.258196	1.042256	0.390462
H71	H	-0.311963	0.809772	0.261356
H72	H	-0.402532	0.918371	0.261770
C73	C	-0.501381	1.343512	0.441684
C74	C	-0.380527	1.316269	0.391459
H75	H	-0.564666	1.280310	0.405323
H76	H	-0.502579	1.343329	0.547617
H77	H	-0.518865	1.425368	0.406150
H78	H	-0.363039	1.234416	0.427002
H79	H	-0.379326	1.316438	0.285503
H80	H	0.024828	1.460955	0.406528
H81	H	0.037744	0.956508	0.000168
C82	C	-0.512453	1.018806	0.128376
C83	C	-0.450406	1.069318	0.000125
H84	H	-0.598713	1.039386	0.128471
H85	H	-0.510965	0.928415	0.129257
H86	H	-0.469769	1.054379	0.214379
H87	H	-0.493085	1.033738	-0.085878
H88	H	-0.451902	1.159727	-0.000770
C89	C	0.066444	1.087792	-0.263134
C90	C	-0.061054	1.116985	-0.261874
H91	H	0.108263	1.124062	-0.349334
H92	H	0.108843	1.122029	-0.176318
H93	H	0.068689	0.997483	-0.264628
H94	H	-0.063299	1.207295	-0.260367
H95	H	-0.103464	1.082754	-0.348712
H96	H	-0.298009	0.915192	-0.225680
H97	H	-0.636062	1.282540	-0.000144
H98	H	-0.595241	1.618116	-0.225964
