data_functionalizedCrystal
_audit_creation_method	'MofGen! by Chris Wilmer'
_symmetry_space_group_name_H-M	'P1'
_symmetry_Int_Tables_number	1
_symmetry_cell_setting	triclinic
loop_
_symmetry_equiv_pos_as_xyz
  x,y,z
_cell_length_a	17.640112
_cell_length_b	21.295417
_cell_length_c	21.295411
_cell_angle_alpha	89.978356
_cell_angle_beta	101.169060
_cell_angle_gamma	101.256239
loop_
_atom_site_label
_atom_site_type_symbol
_atom_site_fract_x
_atom_site_fract_y
_atom_site_fract_z
Zn1	Zn	1.208340	-0.055888	-0.161687
Zn2	Zn	1.208217	-0.161159	-0.056433
Zn3	Zn	1.076153	-0.077198	-0.077680
Zn4	Zn	1.076115	-0.182439	-0.182898
O5	O	1.142206	-0.119171	-0.119674
O6	O	1.318929	-0.052029	-0.129957
O7	O	1.190663	-0.150034	0.028833
O8	O	1.093756	0.013729	-0.088839
O9	O	1.318839	-0.129371	-0.052626
O10	O	1.190872	0.029386	-0.150559
O11	O	1.093637	-0.088348	0.013223
O12	O	0.965543	-0.108982	-0.109406
O13	O	1.093690	-0.165639	-0.268168
O14	O	0.965515	-0.186302	-0.186709
O15	O	1.190835	-0.072662	-0.252585
O16	O	1.190626	-0.252082	-0.073193
O17	O	1.093571	-0.267716	-0.166107
C18	C	0.936850	-0.152264	-0.152665
C19	C	0.848997	-0.166436	-0.166793
C20	C	0.560026	-0.011493	-0.012347
C21	C	0.477475	-0.024823	-0.025632
C22	C	0.477500	-0.105447	-0.105989
C23	C	0.560052	-0.092122	-0.092714
C24	C	0.601309	-0.045145	-0.045892
C25	C	0.601335	-0.125774	-0.126258
C26	C	0.683881	-0.112452	-0.112981
C27	C	0.725143	-0.065478	-0.066160
C28	C	0.683854	-0.031823	-0.032615
C29	C	0.560077	-0.172754	-0.173076
C30	C	0.601360	-0.206406	-0.206620
C31	C	0.683907	-0.193080	-0.193347
C32	C	0.725169	-0.146107	-0.146526
C33	C	0.725196	-0.226736	-0.226892
C34	C	0.807741	-0.213413	-0.213615
C35	C	0.807714	-0.132785	-0.133249
C36	C	1.142103	-0.282739	-0.119656
C37	C	1.142131	-0.352703	-0.119658
C38	C	1.192712	-0.377401	-0.071312
C39	C	1.192749	-0.443137	-0.071320
C40	C	1.142191	-0.484176	-0.119670
C41	C	1.091606	-0.459470	-0.168024
C42	C	1.091576	-0.393734	-0.168018
N43	N	1.073048	-0.598589	-0.135577
N44	N	1.073079	-0.661035	-0.135578
C45	C	1.142279	-0.682236	-0.119692
N46	N	1.211449	-0.638631	-0.103791
N47	N	1.211418	-0.576179	-0.103786
C48	C	1.142218	-0.555457	-0.119682
C49	C	1.192905	-0.778212	-0.071352
C50	C	1.192943	-0.843950	-0.071364
C51	C	1.091793	-0.860283	-0.168066
C52	C	1.091762	-0.794545	-0.168056
C53	C	1.142317	-0.753514	-0.119696
C54	C	1.348365	-0.085949	-0.086555
C55	C	1.436217	-0.071792	-0.072442
C56	C	1.142272	-0.119147	-0.283854
C57	C	1.142300	-0.119137	-0.353818
C58	C	1.142332	0.045040	-0.119703
C59	C	1.142385	0.115016	-0.119715
C60	C	1.192881	-0.070723	-0.378572
C61	C	1.192880	-0.070695	-0.444314
C62	C	1.142306	-0.119093	-0.485299
C63	C	1.091715	-0.167511	-0.460539
C64	C	1.091712	-0.167533	-0.394798
N65	N	1.136208	-0.175143	-0.589495
N66	N	1.136215	-0.175120	-0.651945
C67	C	1.142311	-0.119028	-0.683373
N68	N	1.148414	-0.062957	-0.649990
N69	N	1.148411	-0.062980	-0.587533
C70	C	1.142303	-0.119074	-0.556585
C71	C	1.192894	-0.070580	-0.779413
C72	C	1.192887	-0.070553	-0.845157
C73	C	1.091726	-0.167374	-0.861380
C74	C	1.091729	-0.167396	-0.795637
C75	C	1.142317	-0.119000	-0.754657
C76	C	1.142186	-0.119142	0.043874
C77	C	1.142312	-0.118950	0.113862
H78	H	0.841308	-0.094522	-0.095131
H79	H	1.233879	-0.343994	-0.031935
H80	H	0.492864	-0.183599	-0.183885
H81	H	0.567758	-0.244656	-0.244741
H82	H	1.234073	-0.744803	-0.031975
H83	H	1.233941	-0.463250	-0.031950
H84	H	1.234138	-0.864056	-0.031995
C85	C	0.679808	-0.278408	-0.278390
H86	H	0.624734	-0.281521	-0.281494
H87	H	0.693316	-0.318510	-0.266930
H88	H	0.693365	-0.267064	-0.318525
C89	C	1.248523	-0.017339	-0.734334
H90	H	1.278639	0.011506	-0.758496
H91	H	1.282946	-0.035876	-0.703164
H92	H	1.218297	0.005208	-0.713540
H93	H	0.841354	-0.240815	-0.240931
H94	H	1.050631	-0.893695	-0.207436
C95	C	1.035930	-0.366566	-0.221198
H96	H	1.005820	-0.400419	-0.249995
H97	H	1.066134	-0.336011	-0.243787
H98	H	1.001490	-0.346513	-0.202619
C99	C	1.248530	-0.017295	-0.872386
H100	H	1.278661	0.011519	-0.838561
H101	H	1.218321	0.005277	-0.902879
H102	H	1.282950	-0.035827	-0.892509
H103	H	1.050442	-0.492888	-0.207392
H104	H	0.593619	0.026770	0.025770
C105	C	1.036111	-0.767377	-0.221231
H106	H	1.006000	-0.801232	-0.250025
H107	H	1.066314	-0.736824	-0.243822
H108	H	1.001674	-0.747324	-0.202650
C109	C	1.248519	-0.017485	-0.333498
H110	H	1.278639	0.011356	-0.357661
H111	H	1.282937	-0.036025	-0.302328
H112	H	1.218299	0.005069	-0.312704
C113	C	1.036081	-0.220798	-0.367566
H114	H	1.005964	-0.249622	-0.401388
H115	H	1.001661	-0.202280	-0.347438
H116	H	1.066308	-0.243365	-0.337077
H117	H	1.234067	-0.031268	-0.464473
H118	H	1.050545	-0.206823	-0.775483
C119	C	1.036084	-0.220748	-0.505617
H120	H	1.005954	-0.249584	-0.481457
H121	H	1.066298	-0.243300	-0.526414
H122	H	1.001664	-0.202202	-0.536785
C123	C	0.815941	-0.050820	-0.051551
H124	H	0.834597	-0.018027	-0.018859
H125	H	0.834651	-0.036975	-0.089183
H126	H	0.834591	-0.088419	-0.037586
C127	C	0.729241	0.019860	0.018880
H128	H	0.692834	0.037996	0.036958
H129	H	0.761468	0.052448	-0.000074
H130	H	0.761415	0.001013	0.051532
C131	C	1.036101	-0.220613	-0.906455
H132	H	1.043351	-0.213670	-0.949153
H133	H	0.983000	-0.219967	-0.904201
H134	H	1.047647	-0.261052	-0.893825
H135	H	0.443866	0.002588	0.001683
H136	H	0.443898	-0.143698	-0.144110
