data_functionalizedCrystal
_audit_creation_method	'MofGen! by Chris Wilmer'
_symmetry_space_group_name_H-M	'P1'
_symmetry_Int_Tables_number	1
_symmetry_cell_setting	triclinic
loop_
_symmetry_equiv_pos_as_xyz
  x,y,z
_cell_length_a	16.992695
_cell_length_b	16.992694
_cell_length_c	16.053802
_cell_angle_alpha	87.240756
_cell_angle_beta	92.750682
_cell_angle_gamma	90.668223
loop_
_atom_site_label
_atom_site_type_symbol
_atom_site_fract_x
_atom_site_fract_y
_atom_site_fract_z
O1	O	0.170018	1.047735	0.069326
O2	O	0.168188	0.819334	0.069351
O3	O	0.054902	0.932619	0.069332
O4	O	0.283303	0.934450	0.069345
O5	O	0.048686	0.938849	-0.069528
O6	O	0.161972	0.825563	-0.069509
O7	O	0.163802	1.053965	-0.069534
Zn8	Zn	0.161900	0.940753	-0.091569
Zn9	Zn	0.170090	0.932546	0.091385
O10	O	0.277087	0.940679	-0.069515
C11	C	0.162724	0.793088	-0.000076
C12	C	0.155696	0.705603	-0.000067
C13	C	0.223514	0.659612	-0.000064
C14	C	0.216904	0.577412	-0.000076
C15	C	0.142476	0.541204	-0.000085
C16	C	0.074653	0.587202	-0.000091
C17	C	0.081263	0.669401	-0.000085
C18	C	0.115081	0.295891	-0.000109
C19	C	0.108476	0.213686	-0.000112
C20	C	0.250728	0.203902	-0.000099
C21	C	0.257332	0.286103	-0.000088
C22	C	0.189508	0.332093	-0.000098
N23	N	0.135719	0.457183	-0.000094
N24	N	0.196266	0.416114	-0.000094
C25	C	0.022434	0.933378	-0.000098
C26	C	-0.065050	0.926349	-0.000097
C27	C	-0.111042	0.994168	-0.000105
C28	C	-0.193242	0.987558	-0.000096
C29	C	-0.229450	0.913130	-0.000086
C30	C	-0.183452	0.845307	-0.000075
C31	C	-0.101253	0.851917	-0.000078
C32	C	-0.474763	0.885735	-0.000071
C33	C	-0.556969	0.879131	-0.000071
C34	C	-0.566753	1.021383	-0.000091
C35	C	-0.484552	1.027986	-0.000099
C36	C	-0.438561	0.960163	-0.000083
N37	N	-0.313472	0.906373	-0.000079
N38	N	-0.354541	0.966921	-0.000084
C39	C	0.309555	0.939920	-0.000084
C40	C	0.397040	0.946949	-0.000079
C41	C	0.169265	1.080210	-0.000105
C42	C	0.176294	1.167695	-0.000109
N43	N	0.175673	0.926944	0.216247
N44	N	0.156310	0.946360	-0.216430
C45	C	0.127575	0.975252	0.259933
C46	C	0.131479	0.971332	0.347340
C47	C	0.183478	0.919100	0.391060
C48	C	0.231581	0.870790	0.347368
C49	C	0.227681	0.874714	0.259962
C50	C	0.200514	0.901975	0.652472
C51	C	0.204409	0.898053	0.739884
C52	C	0.104307	0.998596	0.739850
C53	C	0.100407	1.002513	0.652443
C54	C	0.148514	0.954206	0.608758
N55	N	0.187468	0.915090	0.480404
N56	N	0.144528	0.958221	0.519416
H57	H	0.026038	0.706846	-0.000087
H58	H	-0.604207	1.076601	-0.000102
H59	H	0.272129	0.539969	-0.000072
H60	H	0.239683	0.862640	0.616911
H61	H	-0.230685	1.042784	-0.000105
H62	H	-0.455077	1.088593	-0.000108
H63	H	-0.586447	0.818520	-0.000076
H64	H	0.047865	0.184209	-0.000119
H65	H	0.059854	0.333327	-0.000118
H66	H	-0.437328	0.830508	-0.000059
H67	H	-0.212939	0.784705	-0.000061
H68	H	-0.081568	1.054775	-0.000119
H69	H	-0.063808	0.796691	-0.000071
H70	H	0.305946	0.166449	-0.000092
H71	H	0.085228	1.017782	0.224342
H72	H	0.092314	1.010668	0.382909
H73	H	0.058066	1.045044	0.616848
H74	H	0.014051	0.557715	-0.000110
H75	H	0.065141	1.037926	0.775426
H76	H	0.273924	0.828264	0.382970
H77	H	0.246755	0.855515	0.775477
H78	H	0.284121	0.689086	-0.000056
H79	H	0.266849	0.835378	0.224394
H80	H	0.317939	0.315577	-0.000071
