data_functionalizedCrystal
_audit_creation_method	'MofGen! by Chris Wilmer'
_symmetry_space_group_name_H-M	'P1'
_symmetry_Int_Tables_number	1
_symmetry_cell_setting	triclinic
loop_
_symmetry_equiv_pos_as_xyz
  x,y,z
_cell_length_a	10.654545
_cell_length_b	14.853559
_cell_length_c	9.730223
_cell_angle_alpha	89.997790
_cell_angle_beta	89.997167
_cell_angle_gamma	84.057266
loop_
_atom_site_label
_atom_site_type_symbol
_atom_site_fract_x
_atom_site_fract_y
_atom_site_fract_z
O1	O	1.666522	0.126607	-0.114269
O2	O	1.300917	0.138675	-0.114274
O3	O	1.493491	0.001463	-0.114270
O4	O	1.473948	0.263819	-0.114273
O5	O	1.493478	0.001459	0.114310
O6	O	1.300904	0.138672	0.114306
O7	O	1.666509	0.126603	0.114311
Zn8	Zn	1.483705	0.132637	0.150601
Zn9	Zn	1.483721	0.132642	-0.150563
O10	O	1.473935	0.263815	0.114307
C11	C	1.254122	0.137788	0.000015
C12	C	1.114706	0.135140	0.000013
C13	C	1.049207	0.133891	0.124613
C14	C	0.918214	0.131387	0.124613
C15	C	0.918228	0.131385	-0.124597
C16	C	1.049220	0.133882	-0.124596
C17	C	1.492601	-0.032132	0.000018
C18	C	1.489953	-0.132231	0.000010
C19	C	1.478727	-0.555464	-0.124589
C20	C	1.478713	-0.555462	0.124617
C21	C	1.481212	-0.461416	0.124618
C22	C	1.482466	-0.414389	0.000014
C23	C	1.481222	-0.461408	-0.124592
C24	C	1.482443	-0.414388	0.249222
C25	C	1.484940	-0.320336	0.249228
C26	C	1.486203	-0.273308	0.124622
C27	C	1.484960	-0.320333	0.000011
C28	C	1.486214	-0.273306	-0.124593
C29	C	1.484981	-0.320330	-0.249206
C30	C	1.482485	-0.414380	-0.249198
C31	C	1.488699	-0.179258	0.124614
C32	C	1.488709	-0.179250	-0.124596
C33	C	1.713304	0.127490	0.000019
C34	C	1.852720	0.130139	0.000012
C35	C	1.474825	0.297411	0.000017
C36	C	1.477473	0.397509	0.000015
N37	N	1.483703	0.132633	0.356137
N38	N	1.483733	0.132639	-0.356100
C39	C	1.569003	0.071901	0.428065
C40	C	1.569016	0.071901	0.571948
C41	C	1.398423	0.193373	0.571962
C42	C	1.398406	0.193368	0.428082
H43	H	1.102551	0.134897	-0.226066
N44	N	1.306447	0.258888	0.649566
H45	H	1.252405	0.297360	0.582163
H46	H	1.250883	0.224008	0.709285
H47	H	1.328938	0.242823	0.369515
H48	H	1.489675	-0.140972	0.226072
H49	H	1.489736	-0.140968	-0.226066
N50	N	1.660996	0.006396	0.350463
H51	H	1.715033	-0.032077	0.417868
H52	H	1.612850	-0.033784	0.290782
N53	N	0.847601	0.130044	-0.258996
H54	H	0.880491	0.074691	-0.313468
H55	H	0.754694	0.128312	-0.239986
N56	N	1.486279	-0.269621	0.383622
H57	H	1.485107	-0.313685	0.462557
H58	H	1.565110	-0.237430	0.389045
H59	H	1.481415	-0.452684	0.350668
H60	H	1.102522	0.134914	0.226078
N61	N	1.486212	-0.269594	-0.383598
H62	H	1.487936	-0.202876	-0.364682
H63	H	1.563536	-0.292814	-0.438096
H64	H	0.864891	0.130371	0.226075
N65	N	1.481153	-0.465097	-0.383591
H66	H	1.479376	-0.531812	-0.364679
H67	H	1.403802	-0.441830	-0.438005
H68	H	1.477727	-0.593755	-0.226046
N69	N	1.477377	-0.606180	0.259006
H70	H	1.475613	-0.672897	0.240100
H71	H	1.555612	-0.596564	0.313397
H72	H	1.638474	0.022447	0.630507
