data_functionalizedCrystal
_audit_creation_method	'MofGen! by Chris Wilmer'
_symmetry_space_group_name_H-M	'P1'
_symmetry_Int_Tables_number	1
_symmetry_cell_setting	triclinic
loop_
_symmetry_equiv_pos_as_xyz
  x,y,z
_cell_length_a	17.038272
_cell_length_b	13.339070
_cell_length_c	11.804917
_cell_angle_alpha	105.113924
_cell_angle_beta	102.704666
_cell_angle_gamma	76.629575
loop_
_atom_site_label
_atom_site_type_symbol
_atom_site_fract_x
_atom_site_fract_y
_atom_site_fract_z
O1	O	0.410990	-1.357208	0.099069
O2	O	0.358563	-1.058170	0.099061
O3	O	0.270574	-1.205914	0.099056
O4	O	0.498979	-1.209464	0.099075
O5	O	0.247442	-1.244780	-0.098983
O6	O	0.335430	-1.097037	-0.098978
O7	O	0.387858	-1.396074	-0.098970
Cu8	Cu	0.359532	-1.250104	-0.117057
Cu9	Cu	0.386889	-1.204140	0.117148
O10	O	0.475846	-1.248331	-0.098964
C11	C	0.338141	-1.039152	0.000041
C12	C	0.311743	-0.924579	0.000037
C13	C	0.229178	-1.222114	0.000036
C14	C	0.140290	-1.212468	0.000036
N15	N	0.340291	-1.282441	-0.281783
C16	C	0.109405	-1.301025	0.000037
C17	C	0.025886	-1.291954	0.000048
C18	C	-0.026746	-1.194327	0.000050
C19	C	0.004145	-1.105763	0.000052
C20	C	0.087663	-1.114833	0.000050
C21	C	-0.279460	-1.162281	0.000065
C22	C	-0.362983	-1.153218	0.000064
C23	C	-0.341236	-1.339409	0.000063
C24	C	-0.257718	-1.348472	0.000053
C25	C	-0.226833	-1.259907	0.000062
C26	C	-0.112116	-1.185053	0.000057
C27	C	-0.141464	-1.269180	0.000063
C28	C	0.517243	-1.232130	0.000058
C29	C	0.606131	-1.241774	0.000065
C30	C	0.408280	-1.415092	0.000053
C31	C	0.434679	-1.529663	0.000064
C32	C	0.516998	-0.577444	0.000073
C33	C	0.541803	-0.685090	0.000080
C34	C	0.484290	-0.744968	0.000069
C35	C	0.401968	-0.697189	0.000052
C36	C	0.377162	-0.589530	0.000054
C37	C	0.344454	-0.757054	0.000050
C38	C	0.262132	-0.709275	0.000033
C39	C	0.237330	-0.601627	0.000034
C40	C	0.294843	-0.541749	0.000046
C41	C	0.369260	-0.864712	0.000048
C42	C	0.229424	-0.876799	0.000029
C43	C	0.204619	-0.769153	0.000022
C44	C	0.452343	-1.094133	-0.655813
C45	C	0.466903	-1.069647	-0.531162
C46	C	0.435251	-1.122844	-0.468811
C47	C	0.389037	-1.200529	-0.531124
C48	C	0.374470	-1.225012	-0.655787
C49	C	0.357379	-1.253723	-0.468785
C50	C	0.311165	-1.331408	-0.531098
C51	C	0.296601	-1.355887	-0.655749
C52	C	0.328252	-1.302690	-0.718100
C53	C	0.371946	-1.229241	-0.344122
C54	C	0.294073	-1.360119	-0.344096
C55	C	0.279513	-1.384605	-0.468747
N56	N	0.406125	-1.171811	0.281875
H57	H	0.152253	-1.380525	0.000029
H58	H	0.241884	-1.447858	-0.519498
C59	C	0.173728	-1.401217	-0.305910
C60	C	0.259208	-1.418613	-0.275670
H61	H	0.152186	-1.437323	-0.263684
H62	H	0.158491	-1.426870	-0.389076
H63	H	0.152538	-1.327657	-0.285458
H64	H	0.280399	-1.492173	-0.296130
H65	H	0.274453	-1.392965	-0.192485
H66	H	-0.366391	-1.411513	0.000058
C67	C	-0.125232	-1.001918	0.000054
C68	C	-0.169972	-1.077741	0.000058
H69	H	-0.160952	-0.935667	0.000066
H70	H	-0.100281	-1.022874	-0.069007
H71	H	-0.084128	-0.995779	0.069115
H72	H	-0.211072	-1.083886	-0.069008
H73	H	-0.194936	-1.056780	0.069126
H74	H	-0.405838	-1.073718	0.000046
H75	H	0.258963	-1.419134	-0.706484
H76	H	0.000744	-1.364067	0.000047
H77	H	0.409573	-1.165989	-0.293398
H78	H	0.274651	-0.454095	0.000040
C79	C	0.122393	-0.558821	0.101820
C80	C	0.146842	-0.549110	0.000025
H81	H	0.066528	-0.526407	0.101807
H82	H	0.155116	-0.525140	0.170872
H83	H	0.128941	-0.631508	0.101803
H84	H	0.140299	-0.476423	0.000046
H85	H	0.114108	-0.582789	-0.069045
H86	H	0.436286	-0.903604	0.000057
H87	H	0.608830	-0.723982	0.000103
H88	H	-0.214869	-1.427971	0.000052
C89	C	0.089682	-0.726329	0.101811
C90	C	0.114133	-0.716626	0.000014
H91	H	0.033819	-0.693906	0.101801
H92	H	0.122409	-0.692651	0.170862
H93	H	0.096224	-0.799014	0.101796
H94	H	0.107597	-0.643940	0.000033
H95	H	0.081396	-0.750301	-0.069055
C96	C	0.205353	-1.047187	0.000006
C97	C	0.166198	-0.942607	0.000013
H98	H	0.166321	-1.087817	-0.000007
H99	H	0.246205	-1.048790	0.069065
H100	H	0.230076	-1.075885	-0.069057
H101	H	0.141480	-0.913906	0.069081
H102	H	0.125331	-0.941000	-0.069053
C103	C	0.498516	-1.016527	-0.290265
C104	C	0.451265	-1.095941	-0.331792
H105	H	0.508410	-0.999926	-0.205671
H106	H	0.469987	-0.955252	-0.318466
H107	H	0.549205	-1.040556	-0.318479
H108	H	0.400573	-1.071910	-0.303584
H109	H	0.479794	-1.157229	-0.303578
C110	C	0.595952	-0.892592	0.000073
C111	C	0.511552	-0.863297	0.000062
H112	H	0.612781	-0.965649	0.000057
H113	H	0.624220	-0.852463	0.069138
H114	H	0.608089	-0.879545	-0.068984
H115	H	0.499415	-0.876336	0.069124
H116	H	0.483275	-0.903438	-0.069010
H117	H	0.504529	-1.006396	-0.480431
C118	C	0.455819	-0.927247	-0.694247
C119	C	0.487120	-1.035660	-0.724355
H120	H	0.477285	-0.891147	-0.736571
H121	H	0.471119	-0.901557	-0.611101
H122	H	0.397824	-0.915515	-0.714670
H123	H	0.545115	-1.047393	-0.703924
H124	H	0.471825	-1.061359	-0.807520
H125	H	0.316401	-1.322629	-0.819601
H126	H	-0.254324	-1.090164	0.000072
H127	H	-0.038714	-1.026271	0.000061
H128	H	0.563817	-0.528680	0.000092
C129	C	0.057782	-0.929884	0.000043
C130	C	0.121615	-1.017490	0.000045
H131	H	0.078743	-0.869788	0.000037
H132	H	0.033730	-0.916668	0.069098
H133	H	0.017588	-0.943778	-0.069024
H134	H	0.161806	-1.003599	0.069117
H135	H	0.145680	-1.030706	-0.069017
C136	C	-0.023027	-1.367407	0.101861
C137	C	-0.083610	-1.376489	0.000060
H138	H	0.012696	-1.433655	0.101849
H139	H	-0.047991	-1.346465	0.170909
H140	H	0.007309	-1.315952	0.101851
H141	H	-0.113951	-1.427939	0.000074
H142	H	-0.058644	-1.397446	-0.069006
