data_functionalizedCrystal
_audit_creation_method	'MofGen! by Chris Wilmer'
_symmetry_space_group_name_H-M	'P1'
_symmetry_Int_Tables_number	1
_symmetry_cell_setting	triclinic
loop_
_symmetry_equiv_pos_as_xyz
  x,y,z
_cell_length_a	15.944551
_cell_length_b	15.538191
_cell_length_c	14.185569
_cell_angle_alpha	97.872928
_cell_angle_beta	76.840192
_cell_angle_gamma	65.385416
loop_
_atom_site_label
_atom_site_type_symbol
_atom_site_fract_x
_atom_site_fract_y
_atom_site_fract_z
O1	O	-1.051947	-0.142818	-0.083308
O2	O	-0.802822	-0.157803	-0.083332
O3	O	-0.975877	-0.013184	-0.083320
O4	O	-0.878892	-0.287437	-0.083320
O5	O	-1.026997	0.029533	0.083518
O6	O	-0.853942	-0.115086	0.083506
O7	O	-1.103067	-0.100101	0.083530
Cu8	Cu	-0.983172	-0.103693	0.098752
Cu9	Cu	-0.922717	-0.154211	-0.098554
O10	O	-0.930012	-0.244720	0.083518
C11	C	-0.797277	-0.135823	0.000084
C12	C	-0.704596	-0.133961	0.000074
C13	C	-1.011584	0.043269	0.000097
C14	C	-1.041807	0.147839	0.000090
C15	C	-1.108611	-0.122081	0.000112
C16	C	-1.201290	-0.123944	0.000115
C17	C	-0.518439	-0.039861	0.000094
C18	C	-0.418889	-0.104617	-0.082166
C19	C	-0.534903	-0.130586	0.000086
C20	C	-0.469306	-0.062523	0.082323
C21	C	-0.370990	-0.127317	0.000102
C22	C	-0.436553	-0.195385	-0.082242
C23	C	-0.487003	-0.153259	0.082321
C24	C	-0.387445	-0.218086	0.000041
C25	C	-0.629329	-0.132466	0.000076
C26	C	-0.276560	-0.125446	0.000105
C27	C	-0.894305	-0.301173	0.000099
C28	C	-0.864079	-0.405745	0.000100
N29	N	-1.025700	-0.068161	0.237526
C30	C	-0.741525	0.435646	0.000082
C31	C	-0.769948	0.533912	0.000087
C32	C	-0.929822	0.556348	0.000102
C33	C	-0.901410	0.458082	0.000092
C34	C	-0.807261	0.397738	0.000083
C35	C	-0.967147	0.420174	0.000093
C36	C	-0.938738	0.321917	0.000089
C37	C	-0.844593	0.261568	0.000083
C38	C	-0.778852	0.299482	0.000079
C39	C	-1.061298	0.480521	0.000109
C40	C	-1.127034	0.442613	0.000111
C41	C	-1.098624	0.344352	0.000099
C42	C	-1.004479	0.284004	0.000093
C43	C	-1.164365	0.306439	0.000103
C44	C	-1.135957	0.208182	0.000099
C45	C	-0.976071	0.185747	0.000088
N46	N	-0.880198	-0.189735	-0.237328
C47	C	-0.755263	-0.294088	0.605157
C48	C	-0.787482	-0.267179	0.710181
C49	C	-0.940730	-0.139167	0.710152
C50	C	-0.908523	-0.166062	0.605126
C51	C	-0.815790	-0.243523	0.552637
C52	C	-0.969049	-0.115497	0.552606
C53	C	-0.936846	-0.142394	0.447590
C54	C	-0.844117	-0.219855	0.395093
C55	C	-0.783587	-0.270420	0.447620
C56	C	-1.061785	-0.038040	0.605098
C57	C	-1.122311	0.012524	0.552578
C58	C	-1.090106	-0.014368	0.447559
C59	C	-0.997377	-0.091828	0.395062
C60	C	-1.150637	0.036198	0.395032
C61	C	-1.118434	0.009301	0.290015
C62	C	-0.965174	-0.118725	0.290046
H63	H	-0.389171	-0.084052	-0.151711
O64	O	-1.255869	0.364939	0.000159
C65	C	-1.307791	0.310402	0.000130
H66	H	-1.273782	0.245154	0.031705
H67	H	-1.304826	0.282918	-0.079911
C68	C	-1.456223	0.456234	0.026786
C69	C	-1.414458	0.376100	0.065575
H70	H	-1.522021	0.496759	0.067151
H71	H	-1.421242	0.492977	0.026802
H72	H	-1.453742	0.433318	-0.039914
H73	H	-1.416928	0.399016	0.132269
H74	H	-1.449442	0.339362	0.065572
O75	O	-0.728579	-0.316210	0.761158
C76	C	-0.642249	-0.307424	0.735492
H77	H	-0.655983	-0.239402	0.706611
H78	H	-0.582971	-0.375231	0.674546
C79	C	-0.592601	-0.381659	0.864265
C80	C	-0.609471	-0.298109	0.828802
H81	H	-0.572378	-0.375918	0.921822
H82	H	-0.650761	-0.387583	0.881556
H83	H	-0.543205	-0.438157	0.813469
H84	H	-0.658874	-0.241614	0.879594
H85	H	-0.551318	-0.292176	0.811523
O86	O	-1.030774	-0.063816	0.761038
C87	C	-1.037664	0.022871	0.735393
H88	H	-0.981882	0.003245	0.659147
H89	H	-1.022858	0.067159	0.794501
C90	C	-1.209053	0.108357	0.824176
C91	C	-1.140547	0.084251	0.730526
H92	H	-1.272517	0.146222	0.821178
H93	H	-1.204412	0.049955	0.841458
H94	H	-1.196703	0.145258	0.873423
H95	H	-1.152890	0.047340	0.681284
H96	H	-1.145193	0.142648	0.713236
H97	H	-1.084422	0.560525	0.000104
O98	O	-1.240788	0.111338	0.445977
C99	C	-1.311372	0.089408	0.420276
H100	H	-1.279940	0.006596	0.391412
H101	H	-1.333256	0.125990	0.359308
C102	C	-1.439980	0.229611	0.549001
C103	C	-1.401377	0.127900	0.513558
H104	H	-1.495502	0.253359	0.606539
H105	H	-1.392427	0.244389	0.566315
H106	H	-1.458209	0.260084	0.498186
H107	H	-1.383138	0.097429	0.564368
H108	H	-1.448929	0.113118	0.496255
O109	O	-1.199701	0.171206	0.000140
C110	C	-1.154429	0.071537	0.000111
H111	H	-1.091525	0.056567	0.031693
H112	H	-1.125628	0.023694	-0.079930
C113	C	-1.306112	0.065899	0.026752
C114	C	-1.228858	0.047515	0.065550
H115	H	-1.352024	0.051078	0.067114
H116	H	-1.336613	0.133047	0.026768
H117	H	-1.282099	0.026028	-0.039948
H118	H	-1.252870	0.087394	0.132244
H119	H	-1.198363	-0.019627	0.065546
H120	H	-0.889657	-0.181796	0.247307
H121	H	-0.664856	0.386509	0.000067
H122	H	-0.679746	-0.357158	0.562418
O123	O	-1.212313	0.087875	0.603619
C124	C	-1.203680	0.161561	0.664390
H125	H	-1.128237	0.155088	0.632752
H126	H	-1.214694	0.152462	0.743981
C127	C	-1.373945	0.271035	0.704855
C128	C	-1.281287	0.263090	0.665991
H129	H	-1.421818	0.333663	0.705848
H130	H	-1.379763	0.221390	0.663916
H131	H	-1.383109	0.263448	0.771178
H132	H	-1.272120	0.270665	0.599666
H133	H	-1.275470	0.312739	0.706919
O134	O	-0.817000	0.166159	0.000255
C135	C	-0.790109	0.149293	0.086643
H136	H	-0.826398	0.221574	0.147041
H137	H	-0.707757	0.116855	0.067100
C138	C	-0.778385	-0.011727	0.051638
C139	C	-0.822964	0.077048	0.125823
H140	H	-0.798647	-0.056295	0.075805
H141	H	-0.796499	-0.000367	-0.006565
H142	H	-0.709761	-0.038747	0.035359
H143	H	-0.891585	0.104072	0.142092
H144	H	-0.804862	0.065690	0.184031
H145	H	-1.167722	0.050475	0.247253
H146	H	-1.203692	0.491758	0.000122
H147	H	-0.817901	-0.241756	0.309581
O148	O	-0.693559	-0.345782	0.396666
C149	C	-0.686627	-0.432469	0.422344
H150	H	-0.762564	-0.425593	0.451207
H151	H	-0.650332	-0.444493	0.483305
C152	C	-0.532237	-0.528655	0.293603
C153	C	-0.625504	-0.520212	0.329046
H154	H	-0.494531	-0.582780	0.236055
H155	H	-0.536905	-0.470252	0.276305
H156	H	-0.502004	-0.538670	0.344413
H157	H	-0.655740	-0.510185	0.278242
H158	H	-0.620840	-0.578616	0.346333
H159	H	-0.331289	-0.293468	-0.000005
H160	H	-0.574700	0.035406	-0.000008
H161	H	-1.088003	-0.016147	0.690609
H162	H	-0.423516	-0.251553	-0.151862
H163	H	-0.516753	-0.173792	0.151870
H164	H	-0.899402	0.136609	0.000074
O165	O	-0.484869	0.004630	0.165259
C166	C	-0.552802	0.098472	0.164927
H167	H	-0.598824	0.090657	0.116773
H168	H	-0.512608	0.139102	0.132816
C169	C	-0.562610	0.166248	0.332135
C170	C	-0.619141	0.156650	0.272998
H171	H	-0.603529	0.202138	0.398797
H172	H	-0.516840	0.103026	0.332357
H173	H	-0.529118	0.200104	0.305364
H174	H	-0.652622	0.122784	0.299762
H175	H	-0.664918	0.219868	0.272782
H176	H	-0.702184	0.250344	0.000064
H177	H	-1.006481	0.605494	0.000113
O178	O	-0.706220	0.570902	0.000127
C179	C	-0.751471	0.670560	0.000108
H180	H	-0.833733	0.701706	0.031697
H181	H	-0.731216	0.677422	-0.079931
C182	C	-0.616106	0.689823	0.026739
C183	C	-0.717141	0.728080	0.065545
H184	H	-0.594927	0.725304	0.067099
H185	H	-0.585617	0.622681	0.026748
H186	H	-0.599239	0.695543	-0.039960
H187	H	-0.734005	0.722348	0.132237
H188	H	-0.747632	0.795223	0.065548
