data_functionalizedCrystal
_audit_creation_method	'MofGen! by Chris Wilmer'
_symmetry_space_group_name_H-M	'P1'
_symmetry_Int_Tables_number	1
_symmetry_cell_setting	triclinic
loop_
_symmetry_equiv_pos_as_xyz
  x,y,z
_cell_length_a	6.394984
_cell_length_b	10.723024
_cell_length_c	9.198806
_cell_angle_alpha	90.003648
_cell_angle_beta	89.998362
_cell_angle_gamma	94.518389
loop_
_atom_site_label
_atom_site_type_symbol
_atom_site_fract_x
_atom_site_fract_y
_atom_site_fract_z
O1	O	0.293022	-1.660294	-0.120878
O2	O	0.321071	-1.297439	-0.120882
O3	O	0.003055	-1.484021	-0.120876
O4	O	0.611038	-1.473712	-0.120884
O5	O	0.003054	-1.484005	0.120909
O6	O	0.321070	-1.297424	0.120903
O7	O	0.293022	-1.660279	0.120907
Cu8	Cu	0.307046	-1.478850	0.142982
Cu9	Cu	0.307047	-1.478868	-0.142957
O10	O	0.611037	-1.473697	0.120901
C11	C	0.319029	-1.250910	0.000010
C12	C	0.312922	-1.112291	0.000008
N13	N	0.307044	-1.478846	0.344096
C14	C	0.925207	-1.481963	0.000021
C15	C	0.688880	-1.475751	0.000018
C16	C	0.295063	-1.706808	0.000012
C17	C	0.301170	-1.845427	0.000004
N18	N	0.307032	-1.478881	-0.344071
C19	C	0.490867	-1.039195	0.000004
C20	C	0.484559	-0.895925	0.000002
C21	C	0.172929	-1.557180	0.416296
C22	C	0.172922	-1.557200	0.583708
H23	H	0.647881	-1.082681	0.000010
H24	H	0.421867	-1.411817	0.593850
C25	C	0.019593	-1.646643	0.333734
C26	C	-0.104172	-1.718894	0.432788
C27	C	-0.245471	-1.801311	0.356790
H28	H	0.095119	-1.699971	0.274336
H29	H	-0.067863	-1.600201	0.274401
H30	H	-0.016728	-1.765333	0.492095
H31	H	-0.179744	-1.665599	0.492188
H32	H	-0.332927	-1.754869	0.297457
H33	H	-0.169927	-1.854631	0.297395
H34	H	-0.329475	-1.850335	0.423986
C35	C	0.687533	-0.812025	-0.000230
C36	C	0.695163	-0.736547	-0.124608
C37	C	0.882104	-0.659230	-0.124863
H38	H	0.803576	-0.862139	-0.000306
H39	H	0.693104	-0.760643	0.084040
H40	H	0.689612	-0.787924	-0.208856
H41	H	0.579164	-0.686408	-0.124559
H42	H	0.887675	-0.607847	-0.040593
H43	H	0.998131	-0.709353	-0.124934
H44	H	0.887297	-0.608001	-0.209244
C45	C	0.098188	-0.929319	-0.000220
C46	C	0.090560	-1.004813	-0.124595
C47	C	-0.096380	-1.082131	-0.124842
H48	H	-0.017855	-0.879206	-0.000293
H49	H	0.092617	-0.980690	0.084052
H50	H	0.096110	-0.953447	-0.208845
H51	H	0.206560	-1.054952	-0.124548
H52	H	-0.101951	-1.133503	-0.040570
H53	H	-0.212409	-1.032009	-0.124912
H54	H	-0.101573	-1.133371	-0.209222
C55	C	0.459810	-1.389369	0.427107
C56	C	0.347612	-1.311121	0.514534
C57	C	0.488272	-1.228687	0.591035
H58	H	0.544013	-1.340100	0.360269
H59	H	0.547115	-1.435806	0.486560
H60	H	0.260343	-1.264688	0.455087
H61	H	0.263416	-1.360355	0.581399
H62	H	0.575577	-1.275124	0.650488
H63	H	0.572468	-1.179426	0.524187
H64	H	0.412167	-1.175593	0.650373
H65	H	0.155908	-1.068805	-0.000027
H66	H	0.058109	-1.624269	0.645796
