data_functionalizedCrystal
_audit_creation_method	'MofGen! by Chris Wilmer'
_symmetry_space_group_name_H-M	'P1'
_symmetry_Int_Tables_number	1
_symmetry_cell_setting	triclinic
loop_
_symmetry_equiv_pos_as_xyz
  x,y,z
_cell_length_a	15.944545
_cell_length_b	16.109304
_cell_length_c	14.421503
_cell_angle_alpha	90.005757
_cell_angle_beta	90.008315
_cell_angle_gamma	96.520602
loop_
_atom_site_label
_atom_site_type_symbol
_atom_site_fract_x
_atom_site_fract_y
_atom_site_fract_z
O1	O	1.114480	-0.107210	-0.077044
O2	O	0.869925	-0.120436	-0.077058
O3	O	0.998920	0.007206	-0.077053
O4	O	0.985486	-0.234852	-0.077050
O5	O	0.998935	0.007224	0.077170
O6	O	0.869940	-0.120418	0.077165
O7	O	1.114495	-0.107192	0.077179
Cu8	Cu	0.992219	-0.113803	0.091254
Cu9	Cu	0.992201	-0.113824	-0.091133
O10	O	0.985501	-0.234834	0.077174
C11	C	0.838639	-0.119879	0.000051
C12	C	0.745393	-0.118235	0.000046
C13	C	0.474787	-0.034207	0.000054
C14	C	0.525363	-0.074710	0.076097
C15	C	0.409751	-0.112375	0.000061
C16	C	0.525329	-0.074748	-0.075955
C17	C	0.574664	-0.115250	0.000052
C18	C	0.459099	-0.152857	0.076167
C19	C	0.459062	-0.152884	-0.075953
C20	C	0.509605	-0.193444	0.000108
C21	C	0.314750	-0.110716	0.000068
C22	C	0.669663	-0.116915	0.000053
C23	C	0.998383	0.038190	0.000056
C24	C	0.996750	0.130486	0.000048
C25	C	0.992970	0.342814	-0.084019
C26	C	0.991428	0.429535	-0.084019
C27	C	0.991448	0.429551	0.084124
C28	C	0.992984	0.342832	0.084123
C29	C	0.993749	0.299466	0.000049
C30	C	0.990671	0.472906	0.000050
C31	C	0.989000	0.566933	0.000050
C32	C	0.995419	0.205433	0.000049
C33	C	1.145781	-0.107749	0.000067
C34	C	1.239027	-0.109393	0.000067
C35	C	0.986038	0.734182	0.000059
C36	C	0.987671	0.641887	0.000051
N37	N	0.992190	-0.113833	-0.219414
C38	C	0.932430	-0.172736	-0.469065
C39	C	0.916343	-0.097549	-0.530872
C40	C	0.992206	-0.113816	-0.408576
C41	C	1.008269	-0.188987	-0.530863
C42	C	0.992219	-0.113807	-0.591297
C43	C	0.976081	-0.038591	-0.469022
C44	C	1.068040	-0.130079	-0.469007
C45	C	1.051985	-0.054837	-0.530787
C46	C	0.992196	-0.113823	-0.303315
C47	C	0.992230	-0.113791	-0.696556
N48	N	0.992238	-0.113788	0.219535
H49	H	0.430098	-0.185875	-0.140243
H50	H	0.430285	-0.185837	0.140525
H51	H	0.525075	-0.260816	0.000154
O52	O	0.872021	-0.232131	-0.436881
C53	C	0.829224	-0.273285	-0.512392
H54	H	0.836068	-0.231114	-0.576050
H55	H	0.759501	-0.288279	-0.494541
H56	H	0.857494	-0.333740	-0.527643
H57	H	1.132144	-0.143868	-0.441811
H58	H	1.021861	-0.252565	-0.558009
H59	H	0.554251	-0.041730	-0.140239
O60	O	0.456172	0.046114	0.000301
C61	C	0.490120	0.087046	0.080615
H62	H	0.499432	0.038780	0.136375
H63	H	0.444872	0.131597	0.107150
H64	H	0.553505	0.123861	0.063264
O65	O	0.990785	0.471749	-0.165624
C66	C	1.062607	0.531314	-0.170664
H67	H	1.086623	0.547455	-0.097670
H68	H	1.045169	0.590172	-0.206248
H69	H	1.114106	0.504482	-0.212147
O70	O	0.990566	0.471625	0.165812
C71	C	0.918256	0.441015	0.216969
H72	H	0.867853	0.410592	0.167781
H73	H	0.892851	0.494892	0.255103
H74	H	0.935591	0.392813	0.269390
H75	H	1.102545	-0.004952	-0.557717
O76	O	0.560012	-0.035246	0.152694
C77	C	0.618813	0.032348	0.125402
H78	H	0.641828	0.021031	0.052137
H79	H	0.674748	0.038188	0.175145
H80	H	0.587413	0.092483	0.126857
H81	H	0.993614	0.307536	0.152586
O82	O	0.993550	0.300711	-0.165712
C83	C	0.920471	0.312509	-0.216855
H84	H	0.869245	0.329768	-0.167655
H85	H	0.897066	0.252321	-0.254998
H86	H	0.936006	0.364976	-0.269267
O87	O	0.839847	-0.081009	-0.563190
C88	C	0.822453	-0.002318	-0.530351
H89	H	0.860702	0.014164	-0.464783
H90	H	0.752275	-0.004566	-0.514037
H91	H	0.840317	0.047080	-0.585677
O92	O	0.959758	0.037211	-0.436605
C93	C	0.959934	0.036287	-0.338845
H94	H	0.946544	-0.030867	-0.313270
H95	H	0.909106	0.074456	-0.311855
H96	H	1.024293	0.064524	-0.312358
