data_functionalizedCrystal
_audit_creation_method	'MofGen! by Chris Wilmer'
_symmetry_space_group_name_H-M	'P1'
_symmetry_Int_Tables_number	1
_symmetry_cell_setting	triclinic
loop_
_symmetry_equiv_pos_as_xyz
  x,y,z
_cell_length_a	14.908571
_cell_length_b	16.625545
_cell_length_c	14.908308
_cell_angle_alpha	86.733861
_cell_angle_beta	90.175053
_cell_angle_gamma	93.279815
loop_
_atom_site_label
_atom_site_type_symbol
_atom_site_fract_x
_atom_site_fract_y
_atom_site_fract_z
Zn1	Zn	1.345266	0.420778	-0.587574
Zn2	Zn	1.845266	0.920778	-0.087574
Zn3	Zn	1.353838	0.548312	-0.437211
Zn4	Zn	1.853838	1.048312	0.062789
Zn5	Zn	1.203583	0.405291	-0.428572
Zn6	Zn	1.703583	0.905291	0.071428
Zn7	Zn	1.194866	0.547354	-0.578863
Zn8	Zn	1.694866	1.047354	-0.078863
O9	O	1.274388	0.480434	-0.508055
O10	O	1.774388	0.980434	-0.008055
O11	O	1.472229	0.444578	-0.574889
O12	O	1.972229	0.944578	-0.074889
O13	O	1.341141	0.523260	-0.310241
O14	O	1.841141	1.023260	0.189759
O15	O	1.222438	0.294518	-0.449693
O16	O	1.722438	0.794518	0.050307
O17	O	1.478526	0.538277	-0.464418
O18	O	1.978526	1.038277	0.035582
O19	O	1.326533	0.305896	-0.566511
O20	O	1.826533	0.805896	-0.066511
O21	O	1.230750	0.418183	-0.303893
O22	O	1.730750	0.918183	0.196107
O23	O	1.076601	0.417254	-0.441247
O24	O	1.576601	0.917254	0.058753
O25	O	1.207581	0.536644	-0.705843
O26	O	1.707581	1.036644	-0.205843
O27	O	1.070196	0.521627	-0.551665
O28	O	1.570196	1.021627	-0.051665
O29	O	1.318080	0.443649	-0.712243
O30	O	1.818080	0.943649	-0.212243
O31	O	1.332689	0.661013	-0.455972
O32	O	1.832689	1.161013	0.044028
O33	O	1.215893	0.660309	-0.560043
O34	O	1.715893	1.160309	-0.060043
C35	C	1.040773	0.467657	-0.494574
C36	C	1.540773	0.967657	0.005426
C37	C	0.940831	0.462211	-0.488828
C38	C	1.440831	0.962211	0.011172
C39	C	0.746416	0.560814	-0.592855
C40	C	1.246416	1.060814	-0.092855
C41	C	0.652511	0.555700	-0.587460
C42	C	1.152511	1.055700	-0.087460
C43	C	0.659113	0.446865	-0.472647
C44	C	1.159113	0.946865	0.027353
C45	C	0.753018	0.451979	-0.478042
C46	C	1.253018	0.951979	0.021958
C47	C	0.796667	0.508957	-0.538148
C48	C	1.296667	1.008957	-0.038148
C49	C	0.890574	0.514074	-0.543538
C50	C	1.390574	1.014074	-0.043538
C51	C	0.897174	0.405236	-0.428730
C52	C	1.397174	0.905236	0.071270
C53	C	0.803269	0.400122	-0.423334
C54	C	1.303269	0.900122	0.076666
C55	C	1.274298	0.689918	-0.508021
C56	C	1.774298	1.189918	-0.008021
C57	C	1.274340	0.779543	-0.508041
C58	C	1.774340	1.279543	-0.008041
C59	C	1.274481	1.107732	-0.508157
C60	C	1.774481	1.607732	-0.008157
C61	C	1.274439	1.016419	-0.508127
C62	C	1.774439	1.516419	-0.008127
C63	C	1.274410	0.943640	-0.508099
C64	C	1.774410	1.443640	-0.008099
C65	C	1.274369	0.852322	-0.508070
C66	C	1.774369	1.352322	-0.008070
C67	C	1.508915	0.493262	-0.521589
C68	C	2.008915	0.993262	-0.021589
C69	C	1.608856	0.498728	-0.527356
C70	C	2.108856	0.998728	-0.027356
C71	C	1.260902	0.491767	-0.742580
C72	C	1.760902	0.991767	-0.242580
C73	C	1.255155	0.496597	-0.842521
C74	C	1.755155	0.996597	-0.342521
C75	C	1.274493	1.270134	-0.508120
C76	C	1.774493	1.770134	-0.008120
C77	C	1.274517	1.180517	-0.508174
C78	C	1.774517	1.680517	-0.008174
C79	C	1.359416	0.408817	-1.036985
C80	C	1.859416	0.908817	-0.536985
C81	C	1.354019	0.413353	-1.130888
C82	C	1.854019	0.913353	-0.630888
C83	C	1.238961	0.510198	-1.124232
C84	C	1.738961	1.010198	-0.624232
C85	C	1.244358	0.505663	-1.030329
C86	C	1.744358	1.005663	-0.530329
C87	C	1.304588	0.454972	-0.986709
C88	C	1.804588	0.954972	-0.486709
C89	C	1.309989	0.450441	-0.892804
C90	C	1.809989	0.950441	-0.392804
C91	C	1.194927	0.547282	-0.886149
C92	C	1.694927	1.047282	-0.386149
C93	C	1.189530	0.551817	-0.980052
C94	C	1.689530	1.051817	-0.480052
C95	C	1.287873	0.469089	-0.274445
C96	C	1.787873	0.969089	0.225555
C97	C	1.293794	0.464042	-0.174515
C98	C	1.793794	0.964042	0.325485
H99	H	0.938098	0.363011	-0.384181
H100	H	1.438098	0.863011	0.115819
C101	C	0.938591	0.576747	-0.609645
C102	C	1.438591	1.076747	-0.109645
H103	H	1.001715	0.572374	-0.605018
H104	H	1.501715	1.072374	-0.105018
H105	H	0.919747	0.567114	-0.669198
H106	H	1.419747	1.067114	-0.169198
H107	H	0.923942	0.629425	-0.595489
H108	H	1.423942	1.129425	-0.095489
C109	C	0.611090	0.384205	-0.406529
C110	C	1.111090	0.884205	0.093471
H111	H	0.547967	0.388595	-0.411148
H112	H	1.047967	0.888595	0.088852
H113	H	0.625731	0.331523	-0.420661
H114	H	1.125731	0.831523	0.079339
H115	H	0.629936	0.393857	-0.346976
H116	H	1.129936	0.893857	0.153024
C117	C	1.376232	0.394678	-0.844822
C118	C	1.876232	0.894678	-0.344822
H119	H	1.408104	0.367833	-0.888217
H120	H	1.908104	0.867833	-0.388217
H121	H	1.417504	0.425885	-0.810441
H122	H	1.917504	0.925885	-0.310441
H123	H	1.343947	0.355898	-0.806218
H124	H	1.843947	0.855898	-0.306218
C125	C	1.414334	0.362591	-1.186194
C126	C	1.914334	0.862591	-0.686194
H127	H	1.402492	0.372548	-1.248367
H128	H	1.902492	0.872548	-0.748367
H129	H	1.475625	0.376951	-1.174284
H130	H	1.975625	0.876951	-0.674284
H131	H	1.402082	0.306951	-1.170060
H132	H	1.902082	0.806951	-0.670060
C133	C	1.425663	0.353060	-0.989000
C134	C	1.925663	0.853060	-0.489000
H135	H	1.457542	0.326218	-1.032393
H136	H	1.957542	0.826218	-0.532393
H137	H	1.466929	0.384272	-0.954617
H138	H	1.966929	0.884272	-0.454617
H139	H	1.393381	0.314277	-0.950397
H140	H	1.893381	0.814277	-0.450397
C141	C	1.172706	0.565943	-1.172224
C142	C	1.672706	1.065943	-0.672224
H143	H	1.177347	0.562031	-1.235350
H144	H	1.677347	1.062031	-0.735350
H145	H	1.113184	0.550096	-1.153349
H146	H	1.613184	1.050096	-0.653349
H147	H	1.186723	0.620099	-1.157592
H148	H	1.686723	1.120099	-0.657592
H149	H	1.140490	0.593086	-1.015580
H150	H	1.640490	1.093086	-0.515580
C151	C	1.134604	0.598048	-0.830847
C152	C	1.634604	1.098048	-0.330847
H153	H	1.097965	0.628888	-0.870278
H154	H	1.597965	1.128888	-0.370278
H155	H	1.097550	0.563293	-0.791962
H156	H	1.597550	1.063293	-0.291962
H157	H	1.171090	0.633295	-0.796193
H158	H	1.671090	1.133295	-0.296193
C159	C	0.794433	0.623487	-0.658963
C160	C	1.294433	1.123487	-0.158963
H161	H	0.751055	0.653639	-0.690775
H162	H	1.251055	1.153639	-0.190775
H163	H	0.833030	0.658898	-0.626603
H164	H	1.333030	1.158898	-0.126603
H165	H	0.828824	0.596584	-0.700310
H166	H	1.328824	1.096584	-0.200310
H167	H	0.611601	0.597927	-0.632010
H168	H	1.111601	1.097927	-0.132010
H169	H	0.767717	0.353730	-0.374401
H170	H	1.267717	0.853730	0.125599
