data_functionalizedCrystal
_audit_creation_method	'MofGen! by Chris Wilmer'
_symmetry_space_group_name_H-M	'P1'
_symmetry_Int_Tables_number	1
_symmetry_cell_setting	triclinic
loop_
_symmetry_equiv_pos_as_xyz
  x,y,z
_cell_length_a	12.759401
_cell_length_b	12.759400
_cell_length_c	12.759401
_cell_angle_alpha	90.010485
_cell_angle_beta	90.003366
_cell_angle_gamma	90.013799
loop_
_atom_site_label
_atom_site_type_symbol
_atom_site_fract_x
_atom_site_fract_y
_atom_site_fract_z
Zn1	Zn	1.606086	-0.418448	0.594014
Zn2	Zn	1.606031	-0.594102	0.418334
Zn3	Zn	1.430438	-0.418435	0.418350
Zn4	Zn	1.430377	-0.594082	0.593972
O5	O	1.518233	-0.506267	0.506168
O6	O	1.753100	-0.441762	0.570721
O7	O	1.582740	-0.570802	0.271315
O8	O	1.453787	-0.271416	0.441676
O9	O	1.753059	-0.570815	0.441650
O10	O	1.582835	-0.271425	0.570736
O11	O	1.453733	-0.441740	0.271327
O12	O	1.283409	-0.441721	0.441636
O13	O	1.453683	-0.570781	0.740999
O14	O	1.283364	-0.570769	0.570664
O15	O	1.582776	-0.441743	0.741030
O16	O	1.582681	-0.741120	0.441609
O17	O	1.453629	-0.741106	0.570649
C18	C	1.245266	-0.506242	0.506148
C19	C	1.128489	-0.506257	0.506164
C20	C	1.073620	-0.438974	0.439102
C21	C	0.963896	-0.438999	0.439116
C22	C	0.963920	-0.573594	0.573262
C23	C	1.073642	-0.573573	0.573242
C24	C	1.073605	-0.361263	0.361657
C25	C	0.963881	-0.361288	0.361671
C26	C	1.518171	-0.779234	0.506146
C27	C	1.518240	-0.896011	0.506172
C28	C	1.585512	-0.950845	0.439055
C29	C	1.585577	-1.060569	0.439087
C30	C	1.451088	-1.060615	0.573356
C31	C	1.451030	-0.950893	0.573328
C32	C	1.663155	-0.950820	0.361532
C33	C	1.663219	-1.060544	0.361564
C34	C	1.792266	-0.506292	0.506188
C35	C	1.909043	-0.506303	0.506197
C36	C	1.518229	-0.506262	0.780201
C37	C	1.518227	-0.506259	0.896978
C38	C	1.518324	-0.232233	0.506213
C39	C	1.518363	-0.115457	0.506232
C40	C	1.585439	-0.439083	0.951857
C41	C	1.585433	-0.439085	1.061581
C42	C	1.450999	-0.573450	1.061536
C43	C	1.451001	-0.573441	0.951814
C44	C	1.663057	-0.361512	0.951884
C45	C	1.663050	-0.361514	1.061608
C46	C	1.518226	-0.506289	1.233200
C47	C	1.518219	-0.506270	1.116424
H48	H	1.107648	-0.284011	0.390935
H49	H	1.633927	-0.284217	1.095656
H50	H	1.744492	-0.920972	0.383385
Br51	Br	1.627033	-1.110277	0.225929
Br52	Br	1.359759	-0.664591	0.877336
H53	H	1.634052	-0.916844	0.284205
H54	H	0.929831	-0.390317	0.284327
Br55	Br	1.792035	-1.117153	0.410278
H56	H	0.934111	-0.279957	0.383607
H57	H	1.396264	-0.628144	1.106198
Br58	Br	1.359749	-0.876476	0.664439
H59	H	1.744412	-0.383319	1.091388
H60	H	1.396369	-1.105313	0.628034
Br61	Br	1.626791	-0.225886	0.902278
Br62	Br	1.791861	-0.410107	0.895147
H63	H	1.118313	-0.628372	0.627840
H64	H	0.919250	-0.628400	0.627874
Br65	Br	1.123210	-0.397357	0.225967
