data_functionalizedCrystal
_audit_creation_method	'MofGen! by Chris Wilmer'
_symmetry_space_group_name_H-M	'P1'
_symmetry_Int_Tables_number	1
_symmetry_cell_setting	triclinic
loop_
_symmetry_equiv_pos_as_xyz
  x,y,z
_cell_length_a	15.297475
_cell_length_b	13.897448
_cell_length_c	15.296720
_cell_angle_alpha	99.646091
_cell_angle_beta	91.617114
_cell_angle_gamma	80.320483
loop_
_atom_site_label
_atom_site_type_symbol
_atom_site_fract_x
_atom_site_fract_y
_atom_site_fract_z
Zn1	Zn	1.253455	-0.750725	-0.726608
Zn2	Zn	1.278728	-0.889621	-0.580126
Zn3	Zn	1.132329	-0.696535	-0.554848
Zn4	Zn	1.106953	-0.880140	-0.701254
O5	O	1.192866	-0.804255	-0.640709
O6	O	1.379388	-0.795796	-0.728367
O7	O	1.280504	-0.845298	-0.454198
O8	O	1.148440	-0.568756	-0.577665
O9	O	1.397955	-0.897843	-0.620747
O10	O	1.237431	-0.608569	-0.703856
O11	O	1.172946	-0.703438	-0.435627
O12	O	1.006383	-0.694244	-0.553080
O13	O	1.105191	-0.881683	-0.827192
O14	O	0.987740	-0.829138	-0.660644
O15	O	1.212825	-0.786602	-0.845820
O16	O	1.255899	-1.023331	-0.596162
O17	O	1.129697	-1.016365	-0.685154
C18	C	0.965278	-0.754783	-0.601368
C19	C	0.867911	-0.733644	-0.584559
C20	C	0.554781	-0.955341	-0.760852
C21	C	0.646262	-0.975208	-0.776642
C22	C	0.701679	-0.914818	-0.728623
C23	C	0.665605	-0.834559	-0.664810
C24	C	0.574115	-0.814694	-0.649012
C25	C	0.721013	-0.774172	-0.616784
C26	C	0.684939	-0.693913	-0.552970
C27	C	0.593458	-0.674051	-0.537176
C28	C	0.538042	-0.734441	-0.585196
C29	C	0.812503	-0.794037	-0.632581
C30	C	0.831837	-0.653391	-0.520742
C31	C	0.740356	-0.633523	-0.504951
C32	C	1.192807	-1.054852	-0.640673
C33	C	1.192856	-1.162080	-0.640700
C34	C	1.192939	-1.358403	-0.640771
C35	C	1.192890	-1.249155	-0.640734
C36	C	1.421344	-0.853922	-0.680204
C37	C	1.518707	-0.875087	-0.697035
C38	C	1.153358	-0.839129	-0.869177
C39	C	1.136522	-0.853991	-0.966536
C40	C	1.192947	-0.552688	-0.640769
C41	C	1.192981	-0.445485	-0.640795
C42	C	1.313229	-0.697877	-1.279771
C43	C	1.329053	-0.683917	-1.188298
C44	C	1.280921	-0.726434	-1.132853
C45	C	1.216964	-0.782914	-1.168890
C46	C	1.201143	-0.796882	-1.260373
C47	C	1.168836	-0.825439	-1.113455
C48	C	1.104878	-0.881919	-1.149492
C49	C	1.089060	-0.895883	-1.240966
C50	C	1.137191	-0.853367	-1.296411
C51	C	1.184656	-0.811471	-1.021973
C52	C	1.072570	-0.910475	-1.002574
C53	C	1.056746	-0.924435	-1.094047
C54	C	1.232271	-0.769458	-0.413139
C55	C	1.249277	-0.754362	-0.315809
H56	H	1.236730	-0.765483	-0.992640
H57	H	0.564092	-0.608707	-0.485206
H58	H	0.841865	-0.859385	-0.684539
C59	C	0.802309	-0.936664	-0.745996
C60	C	0.848715	-0.858407	-0.777395
C61	C	0.949349	-0.880254	-0.794773
C62	C	1.003576	-0.980357	-0.780753
C63	C	0.957170	-1.058620	-0.749352
C64	C	0.856537	-1.036774	-0.731973
H65	H	0.808572	-0.784299	-0.787775
H66	H	0.983701	-0.822317	-0.818018
H67	H	1.078071	-0.996528	-0.793617
H68	H	0.997313	-1.132729	-0.738971
H69	H	0.822184	-1.094711	-0.708728
H70	H	1.036988	-0.941882	-1.270306
H71	H	0.710971	-0.568175	-0.452993
C72	C	1.298321	-0.711073	-1.032231
C73	C	1.284502	-0.605805	-0.978049
C74	C	1.301902	-0.590436	-0.877423
C75	C	1.333121	-0.680335	-0.830978
C76	C	1.346942	-0.785609	-0.885160
C77	C	1.329542	-0.800979	-0.985787
H78	H	1.261390	-0.539250	-1.012430
H79	H	1.291671	-0.512504	-0.837314
H80	H	1.346002	-0.668957	-0.756488
H81	H	1.370054	-0.852164	-0.850779
H82	H	1.339774	-0.878910	-1.025896
C83	C	1.399393	-0.621783	-1.148658
C84	C	1.416796	-0.606416	-1.048037
C85	C	1.487137	-0.544273	-1.008395
C86	C	1.540075	-0.497496	-1.069375
C87	C	1.522673	-0.512861	-1.170003
C88	C	1.452332	-0.575005	-1.209644
H89	H	1.377607	-0.641044	-1.002890
H90	H	1.500019	-0.532899	-0.933904
H91	H	1.592146	-0.451494	-1.040030
H92	H	1.561862	-0.478233	-1.215149
H93	H	1.439451	-0.586379	-1.284136
C94	C	1.366171	-0.651121	-1.340762
C95	C	1.467923	-0.678730	-1.345401
C96	C	1.520871	-0.631973	-1.406395
C97	C	1.472067	-0.557607	-1.462749
C98	C	1.370309	-0.529995	-1.458112
C99	C	1.317361	-0.576752	-1.397119
H100	H	1.504056	-0.733783	-1.303682
H101	H	1.596199	-0.652414	-1.409827
H102	H	1.511262	-0.522995	-1.507900
H103	H	1.334176	-0.474941	-1.499831
H104	H	1.242032	-0.556311	-1.393687
C105	C	0.892784	-0.586953	-0.467915
C106	C	0.949111	-0.530758	-0.516853
C107	C	1.010063	-0.464328	-0.464027
C108	C	1.014688	-0.454094	-0.362263
C109	C	0.958359	-0.510291	-0.313319
C110	C	0.897407	-0.576721	-0.366145
H111	H	0.945689	-0.538333	-0.592190
H112	H	1.051761	-0.422728	-0.500259
H113	H	1.059808	-0.404919	-0.323158
H114	H	0.961781	-0.502716	-0.237982
H115	H	0.855709	-0.618321	-0.329913
H116	H	1.124311	-0.864730	-1.370897
H117	H	1.004671	-0.970421	-1.123402
H118	H	0.675627	-1.040557	-0.828598
H119	H	1.033379	-0.945098	-0.957431
H120	H	0.509654	-1.004506	-0.799937
H121	H	0.463549	-0.718267	-0.572344
