data_functionalizedCrystal
_audit_creation_method	'MofGen! by Chris Wilmer'
_symmetry_space_group_name_H-M	'P1'
_symmetry_Int_Tables_number	1
_symmetry_cell_setting	triclinic
loop_
_symmetry_equiv_pos_as_xyz
  x,y,z
_cell_length_a	10.654562
_cell_length_b	13.185407
_cell_length_c	9.130313
_cell_angle_alpha	89.999804
_cell_angle_beta	89.996930
_cell_angle_gamma	68.231794
loop_
_atom_site_label
_atom_site_type_symbol
_atom_site_fract_x
_atom_site_fract_y
_atom_site_fract_z
O1	O	1.614634	0.152836	-0.121889
O2	O	1.244097	0.167377	-0.121870
O3	O	1.492849	0.001840	-0.121877
O4	O	1.365881	0.318372	-0.121881
O5	O	1.492845	0.001845	0.121721
O6	O	1.244093	0.167381	0.121729
O7	O	1.614630	0.152840	0.121710
Cu8	Cu	1.429361	0.160111	0.143962
Cu9	Cu	1.429366	0.160106	-0.144122
O10	O	1.365878	0.318377	0.121718
C11	C	1.197670	0.166309	-0.000068
C12	C	1.059342	0.163106	-0.000061
C13	C	0.994329	0.161614	0.132713
C14	C	0.864351	0.158613	0.132689
C15	C	0.864408	0.158600	-0.132896
C16	C	0.994388	0.161593	-0.132870
C17	C	0.994293	0.161626	0.286047
C18	C	0.864315	0.158625	0.286022
C19	C	1.505719	-0.038688	-0.000080
C20	C	1.544058	-0.159457	-0.000088
C21	C	1.178163	-0.451494	-0.000082
C22	C	1.142137	-0.338025	-0.000090
C23	C	1.242614	-0.293377	-0.000089
C24	C	1.379123	-0.362210	-0.000081
C25	C	1.415152	-0.475690	-0.000085
C26	C	1.479604	-0.317573	-0.000092
C27	C	1.616112	-0.386406	-0.000084
C28	C	1.652135	-0.499874	-0.000086
C29	C	1.551658	-0.544522	-0.000087
C30	C	1.443574	-0.204093	-0.000088
C31	C	1.680564	-0.228289	-0.000090
C32	C	1.716589	-0.341758	-0.000082
C33	C	1.661057	0.153909	-0.000095
C34	C	1.799385	0.157112	-0.000112
C35	C	1.353008	0.358905	-0.000083
C36	C	1.314669	0.479674	-0.000085
N37	N	1.429367	0.160114	0.346585
N38	N	1.429372	0.160094	-0.346744
C39	C	1.539528	0.086840	0.423233
C40	C	1.539529	0.086827	0.576570
C41	C	1.319201	0.233372	0.576596
C42	C	1.319197	0.233379	0.423262
C43	C	1.666735	0.002236	0.423220
C44	C	1.666736	0.002223	0.576556
H45	H	1.332428	-0.148060	-0.000093
H46	H	1.674389	-0.081369	0.381602
O47	O	1.200387	0.312409	0.659290
H48	H	1.154996	0.266133	0.729158
H49	H	1.762381	-0.191938	-0.000165
H50	H	0.862334	0.079299	0.333603
O51	O	1.200367	0.312401	0.340596
H52	H	1.218861	0.300091	0.221090
O53	O	1.064520	0.163192	-0.276074
H54	H	0.997509	0.161647	-0.368423
O55	O	0.794347	0.156980	-0.276137
H56	H	0.693038	0.154654	-0.253852
O57	O	1.775316	0.037307	0.360194
H58	H	1.832888	0.055893	0.450783
H59	H	1.066713	0.086457	0.344931
O60	O	0.768328	0.258203	0.363968
H61	H	0.824412	0.309340	0.402134
H62	H	1.756760	0.020863	0.618168
O63	O	1.203759	-0.170993	-0.000067
H64	H	1.143103	-0.135841	-0.099344
H65	H	1.030992	-0.281989	-0.000101
H66	H	1.096370	-0.487857	-0.000095
O67	O	0.996905	0.266693	0.349108
H68	H	0.930454	0.336685	0.283066
H69	H	1.663720	-0.076784	0.624106
O70	O	1.590522	-0.666911	-0.000070
H71	H	1.497718	-0.686387	-0.000069
O72	O	1.799366	-0.574121	-0.000075
H73	H	1.863183	-0.524015	-0.000056
H74	H	1.827736	-0.397817	-0.000077
