data_functionalizedCrystal
_audit_creation_method	'MofGen! by Chris Wilmer'
_symmetry_space_group_name_H-M	'P1'
_symmetry_Int_Tables_number	1
_symmetry_cell_setting	triclinic
loop_
_symmetry_equiv_pos_as_xyz
  x,y,z
_cell_length_a	27.354012
_cell_length_b	27.353283
_cell_length_c	27.349551
_cell_angle_alpha	60.005606
_cell_angle_beta	60.011434
_cell_angle_gamma	59.993282
loop_
_atom_site_label
_atom_site_type_symbol
_atom_site_fract_x
_atom_site_fract_y
_atom_site_fract_z
O1	O	0.067635	-0.714267	0.597330
O2	O	0.567635	-0.214267	1.097330
O3	O	0.025429	-0.556105	0.481282
O4	O	0.525429	-0.056105	0.981282
O5	O	0.125575	-0.656186	0.481214
O6	O	0.625575	-0.156186	0.981214
O7	O	-0.032512	-0.614186	0.597397
O8	O	0.467488	-0.114186	1.097397
O9	O	0.158797	-0.622968	0.514367
O10	O	0.658797	-0.122968	1.014367
O11	O	0.058650	-0.522887	0.514434
O12	O	0.558650	-0.022887	1.014434
O13	O	0.100856	-0.681048	0.630482
O14	O	0.600856	-0.181048	1.130482
Zn15	Zn	0.085028	-0.596693	0.577722
Zn16	Zn	0.585028	-0.096693	1.077722
Zn17	Zn	0.041257	-0.640460	0.534042
Zn18	Zn	0.541257	-0.140460	1.034042
O19	O	0.000709	-0.580967	0.630549
O20	O	0.500709	-0.080967	1.130549
N21	N	0.114901	-0.566828	0.607534
N22	N	0.614901	-0.066828	1.107534
N23	N	0.011389	-0.670331	0.504229
N24	N	0.511389	-0.170331	1.004229
C25	C	0.179404	-0.338196	0.672015
C26	C	0.679404	0.161804	1.172015
C27	C	0.179501	-0.502386	0.836160
C28	C	0.679501	-0.002386	1.336160
C29	C	0.179415	-0.502363	0.671996
C30	C	0.679415	-0.002363	1.171996
C31	C	0.343611	-0.502373	0.671960
C32	C	0.843611	-0.002373	1.171960
C33	C	0.197478	-0.392371	0.690061
C34	C	0.697478	0.107629	1.190061
C35	C	0.197534	-0.484321	0.781984
C36	C	0.697534	0.015679	1.281984
C37	C	0.289434	-0.484312	0.690032
C38	C	0.789434	0.015688	1.190032
C39	C	0.197486	-0.484308	0.690051
C40	C	0.697486	0.015692	1.190051
C41	C	0.156398	-0.269238	0.649045
C42	C	0.656398	0.230762	1.149045
C43	C	0.156418	-0.525342	0.649015
C44	C	0.656418	-0.025342	1.149015
C45	C	0.220484	-0.461329	0.713032
C46	C	0.720484	0.038671	1.213032
C47	C	0.443889	-0.485097	0.619172
C48	C	0.943889	0.014903	1.119172
C49	C	0.506571	-0.505993	0.598266
C50	C	1.006571	-0.005993	1.098266
C51	C	0.506589	-0.607412	0.636940
C52	C	1.006589	-0.107412	1.136940
C53	C	0.443909	-0.586515	0.657848
C54	C	0.943909	-0.086515	1.157848
C55	C	0.171510	-0.237888	0.587422
C56	C	0.671510	0.262112	1.087422
C57	C	0.150593	-0.175201	0.566543
C58	C	0.650593	0.324799	1.066543
C59	C	0.099458	-0.175218	0.668913
C60	C	0.599458	0.324782	1.168913
C61	C	0.120375	-0.237905	0.689792
C62	C	0.620375	0.262095	1.189792
C63	C	0.094789	-0.510201	0.664176
C64	C	0.594789	-0.010201	1.164176
C65	C	0.073888	-0.531091	0.643278
C66	C	0.573888	-0.031091	1.143278
C67	C	0.176239	-0.582263	0.592072
C68	C	0.676239	-0.082263	1.092072
C69	C	0.197142	-0.561373	0.612963
C70	C	0.697142	-0.061373	1.112963
C71	C	0.094933	-0.510244	0.936476
C72	C	0.594933	-0.010244	1.436476
C73	C	0.074073	-0.531151	0.999161
C74	C	0.574073	-0.031151	1.499161
C75	C	0.176453	-0.582335	0.999126
C76	C	0.676453	-0.082335	1.499126
C77	C	0.197312	-0.561429	0.936439
C78	C	0.697312	-0.061429	1.436439
C79	C	0.156551	-0.525382	0.905116
C80	C	0.656551	-0.025382	1.405116
C81	C	0.412561	-0.525357	0.648961
C82	C	0.912561	-0.025357	1.148961
C83	C	-0.098513	-0.688235	0.485867
C84	C	0.401487	-0.188235	0.985867
C85	C	-0.006461	-0.688368	0.394066
C86	C	0.493539	-0.188368	0.894066
C87	C	-0.006645	-0.780264	0.486040
C88	C	0.493355	-0.280264	0.986040
C89	C	-0.006630	-0.688361	0.486097
C90	C	0.493370	-0.188361	0.986097
C91	C	-0.029562	-0.711308	0.463018
C92	C	0.470438	-0.211308	0.963018
N93	N	0.537030	-0.566846	0.607436
N94	N	1.037030	-0.066846	1.107436
O95	O	0.741877	-0.576849	0.459995
O96	O	1.241877	-0.076849	0.959995
O97	O	0.742050	-0.693241	0.618010
O98	O	1.242050	-0.193241	1.118010
O99	O	0.741986	-0.692977	0.517791
O100	O	1.241986	-0.192977	1.017791
O101	O	0.741941	-0.577114	0.560214
O102	O	1.241941	-0.077114	1.060214
O103	O	0.642405	-0.659839	0.551046
O104	O	1.142405	-0.159839	1.051046
O105	O	0.642469	-0.660104	0.651265
O106	O	1.142469	-0.160104	1.151265
O107	O	0.642296	-0.543712	0.493251
O108	O	1.142296	-0.043712	0.993251
Zn109	Zn	0.626572	-0.596646	0.577538
Zn110	Zn	1.126572	-0.096646	1.077538
Zn111	Zn	0.757774	-0.640307	0.533723
Zn112	Zn	1.257774	-0.140307	1.033723
O113	O	0.642360	-0.543976	0.593469
O114	O	1.142360	-0.043976	1.093469
N115	N	0.847316	-0.670107	0.503818
N116	N	1.347316	-0.170107	1.003818
N117	N	0.114877	-0.144758	0.607577
N118	N	0.614877	0.355242	1.107577
O119	O	-0.032498	0.060193	0.597441
O120	O	0.467502	0.560193	1.097441
O121	O	0.125523	0.060193	0.481067
O122	O	0.625523	0.560193	0.981067
O123	O	0.025289	0.060179	0.481345
O124	O	0.525289	0.560179	0.981345
O125	O	0.067736	0.060207	0.597163
O126	O	0.567736	0.560207	1.097163
O127	O	0.058511	-0.039410	0.514543
O128	O	0.558511	0.460590	1.014543
O129	O	0.158745	-0.039397	0.514265
O130	O	0.658745	0.460603	1.014265
O131	O	0.000724	-0.039396	0.630638
O132	O	0.500724	0.460604	1.130638
Zn133	Zn	0.085009	-0.055208	0.577722
Zn134	Zn	0.585009	0.444792	1.077722
Zn135	Zn	0.041238	0.076005	0.533983
Zn136	Zn	0.541238	0.576005	1.033983
O137	O	0.100958	-0.039382	0.630360
O138	O	0.600958	0.460618	1.130360
N139	N	0.011362	0.165555	0.504130
N140	N	0.511362	0.665555	1.004130
N141	N	0.115121	-0.566884	1.029592
N142	N	0.615121	-0.066884	1.529592
O143	O	0.104990	-0.714248	1.234528
O144	O	0.604990	-0.214248	1.734528
O145	O	-0.011371	-0.556177	1.234539
O146	O	0.488629	-0.056177	1.734539
O147	O	-0.011103	-0.656395	1.234497
O148	O	0.488897	-0.156395	1.734497
O149	O	0.104722	-0.614030	1.234569
O150	O	0.604722	-0.114030	1.734569
O151	O	0.022090	-0.623190	1.134913
O152	O	0.522090	-0.123190	1.634913
O153	O	0.021822	-0.522972	1.134954
O154	O	0.521822	-0.022972	1.634954
O155	O	0.138182	-0.681044	1.134943
O156	O	0.638182	-0.181044	1.634943
Zn157	Zn	0.085272	-0.596736	1.119137
Zn158	Zn	0.585272	-0.096736	1.619137
Zn159	Zn	0.041539	-0.640484	1.250344
Zn160	Zn	0.541539	-0.140484	1.750344
O161	O	0.137914	-0.580826	1.134984
O162	O	0.637914	-0.080826	1.634984
N163	N	0.011689	-0.670343	1.339890
N164	N	0.511689	-0.170343	1.839890
C165	C	0.038085	-0.519567	0.481870
C166	C	0.538085	-0.019567	0.981870
C167	C	0.162104	-0.643505	0.481786
C168	C	0.662104	-0.143505	0.981786
C169	C	0.088200	-0.717587	0.629893
C170	C	0.588200	-0.217587	1.129893
C171	C	-0.035819	-0.593649	0.629977
C172	C	0.464181	-0.093649	1.129977
C173	C	0.692280	-0.692701	0.654545
C174	C	1.192280	-0.192701	1.154545
C175	C	0.692203	-0.692374	0.530435
C176	C	1.192203	-0.192374	1.030435
C177	C	0.692063	-0.544251	0.456717
C178	C	1.192063	-0.044251	0.956717
C179	C	0.692144	-0.544580	0.580825
C180	C	1.192144	-0.044580	1.080825
C181	C	0.162000	0.010521	0.481600
C182	C	0.662000	0.510521	0.981600
C183	C	0.037914	0.010381	0.481984
C184	C	0.537914	0.510381	0.981984
C185	C	-0.035795	0.010399	0.630065
C186	C	0.464205	0.510399	1.130065
C187	C	0.088333	0.010415	0.629722
C188	C	0.588333	0.510415	1.129722
C189	C	-0.010799	-0.519660	1.184747
C190	C	0.489201	-0.019660	1.684747
C191	C	-0.010461	-0.643761	1.184677
C192	C	0.489539	-0.143761	1.684677
C193	C	0.137610	-0.717561	1.184734
C194	C	0.637610	-0.217561	1.684734
C195	C	0.137280	-0.593452	1.184783
C196	C	0.637280	-0.093452	1.684783
H197	H	0.061737	-0.480889	0.910978
H198	H	0.561737	0.019111	1.410978
H199	H	0.174144	-0.762957	1.184724
H200	H	0.674144	-0.262957	1.684724
H201	H	0.209648	-0.611676	1.024626
H202	H	0.709648	-0.111676	1.524626
H203	H	-0.081227	-0.584696	0.666460
H204	H	0.418773	-0.084696	1.166460
H205	H	0.692221	-0.728771	0.521355
H206	H	1.192221	-0.228771	1.021355
H207	H	0.097215	-0.763020	0.666340
H208	H	0.597215	-0.263020	1.166340
O209	O	0.692101	-0.501213	0.591758
O210	O	1.192101	-0.001213	1.091758
C211	C	0.692170	-0.523032	0.650604
C212	C	1.192170	-0.023032	1.150604
H213	H	0.673357	-0.561488	0.678934
H214	H	1.173357	-0.061488	1.178934
H215	H	0.739955	-0.539712	0.649695
H216	H	1.239955	-0.039712	1.149695
C217	C	0.676212	-0.425154	0.643048
C218	C	1.176212	0.074846	1.143048
C219	C	0.653102	-0.472383	0.677845
C220	C	1.153102	0.027617	1.177845
H221	H	0.652116	-0.393912	0.659851
H222	H	1.152116	0.106088	1.159851
H223	H	0.676168	-0.410454	0.603402
H224	H	1.176168	0.089546	1.103402
H225	H	0.716033	-0.439062	0.642294
H226	H	1.216033	0.060938	1.142294
H227	H	0.613285	-0.458477	0.678593
H228	H	1.113285	0.041523	1.178593
H229	H	0.653138	-0.487080	0.717492
H230	H	1.153138	0.012920	1.217492
H231	H	-0.046832	-0.652809	1.184615
H232	H	0.453168	-0.152809	1.684615
H233	H	0.692323	-0.729239	0.699929
H234	H	1.192323	-0.229239	1.199929
O235	O	0.692022	-0.500727	0.402539
O236	O	1.192022	-0.000727	0.902539
C237	C	0.691993	-0.522280	0.365280
C238	C	1.191993	-0.022280	0.865280
H239	H	0.710891	-0.573286	0.381473
H240	H	1.210891	-0.073286	0.881473
H241	H	0.644208	-0.507088	0.366931
H242	H	1.144208	-0.007088	0.866931
C243	C	0.707770	-0.434801	0.280588
C244	C	1.207770	0.065199	0.780588
C245	C	0.730986	-0.497447	0.300473
C246	C	1.230986	0.002553	0.800473
H247	H	0.731820	-0.419481	0.240611
H248	H	1.231820	0.080519	0.740611
H249	H	0.707787	-0.420279	0.305690
H250	H	1.207787	0.079721	0.805690
H251	H	0.667950	-0.422149	0.281969
H252	H	1.167950	0.077851	0.781969
H253	H	0.770802	-0.510098	0.299099
H254	H	1.270802	-0.010098	0.799099
H255	H	0.730976	-0.511970	0.275369
H256	H	1.230976	-0.011970	0.775369
H257	H	0.173667	-0.584388	1.184797
H258	H	0.673667	-0.084388	1.684797
O259	O	0.216052	0.010880	0.437957
O260	O	0.716052	0.510880	0.937957
C261	C	0.253293	0.010987	0.459471
C262	C	0.753293	0.510987	0.959471
H263	H	0.224490	0.029648	0.498046
H264	H	0.724490	0.529648	0.998046
H265	H	0.283755	-0.036727	0.475890
H266	H	0.783755	0.463273	0.975890
C267	C	0.327110	0.027432	0.361308
C268	C	0.827110	0.527432	0.861308
C269	C	0.291733	0.050357	0.408682
C270	C	0.791733	0.550357	0.908682
H271	H	0.350824	0.051715	0.329979
H272	H	0.850824	0.551715	0.829979
H273	H	0.302021	0.027358	0.346813
H274	H	0.802021	0.527358	0.846813
H275	H	0.352490	-0.012329	0.374998
H276	H	0.852490	0.487671	0.874998
H277	H	0.266350	0.090115	0.394994
H278	H	0.766350	0.590115	0.894994
H279	H	0.316819	0.050439	0.423174
H280	H	0.816819	0.550439	0.923174
H281	H	0.023897	-0.518815	1.024687
H282	H	0.523897	-0.018815	1.524687
H283	H	0.028825	0.010378	0.445599
H284	H	0.528825	0.510378	0.945599
O285	O	-0.089980	0.010438	0.673576
O286	O	0.410020	0.510438	1.173576
C287	C	-0.127251	0.010418	0.652033
C288	C	0.372749	0.510418	1.152033
H289	H	-0.111044	0.029256	0.601028
H290	H	0.388956	0.529256	1.101028
H291	H	-0.125636	-0.037360	0.667268
H292	H	0.374364	0.462640	1.167268
C293	C	-0.211944	0.026351	0.739463
C294	C	0.288056	0.526351	1.239463
C295	C	-0.192041	0.049493	0.676818
C296	C	0.307959	0.549493	1.176818
H297	H	-0.251910	0.050452	0.754754
H298	H	0.248090	0.550452	1.254754
H299	H	-0.186834	0.026362	0.753979
H300	H	0.313166	0.526362	1.253979
H301	H	-0.210593	-0.013464	0.752151
H302	H	0.289407	0.486536	1.252151
H303	H	-0.193385	0.089304	0.664132
H304	H	0.306615	0.589304	1.164132
H305	H	-0.217153	0.049490	0.662301
H306	H	0.282847	0.549490	1.162301
H307	H	0.097420	0.010424	0.666105
H308	H	0.597420	0.510424	1.166105
H309	H	-0.047330	-0.474261	1.184750
H310	H	0.452670	0.025739	1.684750
H311	H	0.247489	-0.573760	0.910909
H312	H	0.747489	-0.073760	1.410909
H313	H	0.023705	-0.518748	0.655609
H314	H	0.523705	-0.018748	1.155609
O315	O	0.055204	-0.475111	0.699101
O316	O	0.555204	0.024889	1.199101
C317	C	0.018934	-0.422540	0.667466
C318	C	0.518934	0.077460	1.167466
H319	H	0.043119	-0.413820	0.617314
H320	H	0.543119	0.086180	1.117314
H321	H	-0.025104	-0.428233	0.680818
H322	H	0.474896	0.071767	1.180818
C323	C	-0.023573	-0.379914	0.744219
C324	C	0.476427	0.120086	1.244219
C325	C	0.006134	-0.369201	0.682621
C326	C	0.506134	0.130799	1.182621
H327	H	-0.031471	-0.347012	0.753569
H328	H	0.468529	0.152988	1.253569
H329	H	0.000862	-0.415333	0.765534
H330	H	0.500862	0.084667	1.265534
H331	H	-0.060267	-0.384659	0.755338
H332	H	0.439733	0.115341	1.255338
H333	H	0.042831	-0.364464	0.671505
H334	H	0.542831	0.135536	1.171505
H335	H	-0.018294	-0.333780	0.661305
H336	H	0.481706	0.166220	1.161305
O337	O	0.215830	-0.617177	0.556967
O338	O	0.715830	-0.117177	1.056967
C339	C	0.252056	-0.585522	0.504403
C340	C	0.752056	-0.085522	1.004403
H341	H	0.227838	-0.535371	0.495701
H342	H	0.727838	-0.035371	0.995701
H343	H	0.296101	-0.598870	0.510090
H344	H	0.796101	-0.098870	1.010090
C345	C	0.294587	-0.662256	0.461746
C346	C	0.794587	-0.162256	0.961746
C347	C	0.264840	-0.600659	0.451055
C348	C	0.764840	-0.100659	0.951055
H349	H	0.302476	-0.671595	0.428838
H350	H	0.802476	-0.171595	0.928838
H351	H	0.270183	-0.683584	0.497160
H352	H	0.770183	-0.183584	0.997160
H353	H	0.331289	-0.673372	0.466486
H354	H	0.831289	-0.173372	0.966486
H355	H	0.228136	-0.589546	0.446322
H356	H	0.728136	-0.089546	0.946322
H357	H	0.289239	-0.579329	0.415638
H358	H	0.789239	-0.079329	0.915638
O359	O	0.256989	-0.576003	0.598274
O360	O	0.756989	-0.076003	1.098274
C361	C	0.266707	-0.549852	0.624459
C362	C	0.766707	-0.049852	1.124459
H363	H	0.225572	-0.509613	0.633926
H364	H	0.725572	-0.009613	1.133926
H365	H	0.275087	-0.584152	0.668178
H366	H	0.775087	-0.084152	1.168178
C367	C	0.372093	-0.578730	0.569591
C368	C	0.872093	-0.078730	1.069591
C369	C	0.321572	-0.529305	0.581214
C370	C	0.821572	-0.029305	1.081214
H371	H	0.405938	-0.566058	0.542917
H372	H	0.905938	-0.066058	1.042917
H373	H	0.365547	-0.596351	0.551951
H374	H	0.865547	-0.096351	1.051951
H375	H	0.379069	-0.607309	0.606027
H376	H	0.879069	-0.107309	1.106027
H377	H	0.314593	-0.500731	0.544780
H378	H	0.814593	-0.000731	1.044780
H379	H	0.328119	-0.511679	0.598847
H380	H	0.828119	-0.011679	1.098847
O381	O	0.413571	-0.625703	0.686750
O382	O	0.913571	-0.125703	1.186750
C383	C	0.454687	-0.684163	0.690117
C384	C	0.954687	-0.184163	1.190117
H385	H	0.499356	-0.681777	0.653088
H386	H	0.999356	-0.181777	1.153088
H387	H	0.461378	-0.708093	0.735540
H388	H	0.961378	-0.208093	1.235540
C389	C	0.375355	-0.721850	0.727937
C390	C	0.875355	-0.221850	1.227937
C391	C	0.430218	-0.718919	0.682454
C392	C	0.930218	-0.218919	1.182454
H393	H	0.360261	-0.743291	0.723213
H394	H	0.860261	-0.243291	1.223213
H395	H	0.347654	-0.682465	0.725671
H396	H	0.847654	-0.182465	1.225671
H397	H	0.380939	-0.741790	0.765785
H398	H	0.880939	-0.241790	1.265785
H399	H	0.424632	-0.698973	0.644607
H400	H	0.924632	-0.198973	1.144607
H401	H	0.457917	-0.758302	0.684713
H402	H	0.957917	-0.258302	1.184713
H403	H	0.532080	-0.473208	0.574011
H404	H	1.032080	0.026792	1.074011
O405	O	0.537107	-0.666816	0.645602
O406	O	1.037107	-0.166816	1.145602
C407	C	0.573377	-0.688544	0.679696
C408	C	1.073377	-0.188544	1.179696
H409	H	0.582764	-0.649848	0.674786
H410	H	1.082764	-0.149848	1.174786
H411	H	0.549241	-0.710139	0.728819
H412	H	1.049241	-0.210139	1.228819
C413	C	0.621388	-0.782905	0.663245
C414	C	1.121388	-0.282905	1.163245
C415	C	0.632922	-0.735379	0.657210
C416	C	1.132922	-0.235379	1.157210
H417	H	0.658117	-0.811797	0.649377
H418	H	1.158117	-0.311797	1.149377
H419	H	0.596951	-0.768268	0.640277
H420	H	1.096951	-0.268268	1.140277
H421	H	0.601273	-0.800894	0.704182
H422	H	1.101273	-0.300894	1.204182
H423	H	0.653029	-0.717386	0.616273
H424	H	1.153029	-0.217386	1.116273
H425	H	0.657363	-0.750014	0.680171
H426	H	1.157363	-0.250014	1.180171
O427	O	0.413502	-0.425663	0.610438
O428	O	0.913502	0.074337	1.110438
C429	C	0.428783	-0.393322	0.548546
C430	C	0.928783	0.106678	1.048546
H431	H	0.474289	-0.420714	0.523858
H432	H	0.974289	0.079286	1.023858
H433	H	0.393492	-0.383967	0.531468
H434	H	0.893492	0.116033	1.031468
C435	C	0.375783	-0.299986	0.567682
C436	C	0.875783	0.200014	1.067682
C437	C	0.431678	-0.333628	0.537360
C438	C	0.931678	0.166372	1.037360
H439	H	0.377567	-0.263162	0.560781
H440	H	0.877567	0.236838	1.060781
H441	H	0.365486	-0.321774	0.609380
H442	H	0.865486	0.178226	1.109380
H443	H	0.346380	-0.292196	0.553447
H444	H	0.846380	0.207804	1.053447
H445	H	0.461078	-0.341423	0.551601
H446	H	0.961078	0.158577	1.051601
H447	H	0.441980	-0.311839	0.495664
H448	H	0.941980	0.188161	0.995664
O449	O	0.206473	-0.268230	0.547758
O450	O	0.706473	0.231770	1.047758
C451	C	0.215332	-0.227116	0.488889
C452	C	0.715332	0.272884	0.988889
H453	H	0.177533	-0.182434	0.489015
H454	H	0.677533	0.317566	0.989015
H455	H	0.259982	-0.220445	0.470917
H456	H	0.759982	0.279555	0.970917
C457	C	0.262182	-0.306455	0.448535
C458	C	0.762182	0.193545	0.948535
C459	C	0.215753	-0.251576	0.448689
C460	C	0.715753	0.248424	0.948689
H461	H	0.262445	-0.321543	0.423736
H462	H	0.762445	0.178457	0.923736
H463	H	0.256216	-0.334155	0.488196
H464	H	0.756216	0.165845	0.988196
H465	H	0.299385	-0.300888	0.433560
H466	H	0.799385	0.199112	0.933560
H467	H	0.178551	-0.257145	0.463671
H468	H	0.678551	0.242855	0.963671
H469	H	0.221714	-0.223878	0.409029
H470	H	0.721714	0.276122	0.909029
H471	H	0.162897	-0.149674	0.516363
H472	H	0.662897	0.350326	1.016363
H473	H	0.070133	-0.149706	0.702094
H474	H	0.570133	0.350294	1.202094
H475	H	0.108067	-0.263426	0.739970
H476	H	0.608067	0.236574	1.239970
H477	H	0.029071	-0.474132	0.445424
H478	H	0.529071	0.025868	0.945424
H479	H	0.207509	-0.652460	0.445301
H480	H	0.707509	-0.152460	0.945301
