data_functionalizedCrystal
_audit_creation_method	'MofGen! by Chris Wilmer'
_symmetry_space_group_name_H-M	'P1'
_symmetry_Int_Tables_number	1
_symmetry_cell_setting	triclinic
loop_
_symmetry_equiv_pos_as_xyz
  x,y,z
_cell_length_a	12.759401
_cell_length_b	14.908520
_cell_length_c	14.908308
_cell_angle_alpha	96.360765
_cell_angle_beta	93.281184
_cell_angle_gamma	93.320696
loop_
_atom_site_label
_atom_site_type_symbol
_atom_site_fract_x
_atom_site_fract_y
_atom_site_fract_z
Zn1	Zn	1.544174	-0.389868	-0.532499
Zn2	Zn	2.044174	0.110132	-0.032499
Zn3	Zn	1.544055	-0.532513	-0.389870
Zn4	Zn	2.044055	-0.032513	0.110130
Zn5	Zn	1.379242	-0.381171	-0.381165
Zn6	Zn	1.879242	0.118829	0.118835
Zn7	Zn	1.357688	-0.541187	-0.541187
Zn8	Zn	1.857688	-0.041187	-0.041187
O9	O	1.456290	-0.461185	-0.461180
O10	O	1.956290	0.038815	0.038820
O11	O	1.691178	-0.408800	-0.513587
O12	O	2.191178	0.091200	-0.013587
O13	O	1.531163	-0.505168	-0.262054
O14	O	2.031163	-0.005168	0.237946
O15	O	1.410191	-0.255660	-0.393961
O16	O	1.910191	0.244340	0.106039
O17	O	1.691090	-0.513601	-0.408797
O18	O	2.191090	-0.013601	0.091203
O19	O	1.531366	-0.262050	-0.505146
O20	O	2.031366	0.237950	-0.005146
O21	O	1.410075	-0.393977	-0.255658
O22	O	1.910075	0.106023	0.244342
O23	O	1.229363	-0.402388	-0.402384
O24	O	1.729363	0.097612	0.097616
O25	O	1.373455	-0.528384	-0.666696
O26	O	1.873455	-0.028384	-0.166696
O27	O	1.213527	-0.519951	-0.519952
O28	O	1.713527	-0.019951	-0.019952
O29	O	1.510466	-0.417211	-0.660313
O30	O	2.010466	0.082789	-0.160313
O31	O	1.510262	-0.660329	-0.417221
O32	O	2.010262	-0.160329	0.082779
O33	O	1.373339	-0.666701	-0.528393
O34	O	1.873339	-0.166701	-0.028393
C35	C	1.183324	-0.461168	-0.461167
C36	C	1.683324	0.038832	0.038833
C37	C	1.066546	-0.461183	-0.461184
C38	C	1.566546	0.038817	0.038816
C39	C	1.003466	-0.522485	-0.522311
C40	C	1.503466	-0.022485	-0.022311
C41	C	0.893740	-0.522497	-0.522322
C42	C	1.393740	-0.022497	-0.022322
C43	C	0.910185	-0.399902	-0.400070
C44	C	1.410185	0.100098	0.099930
C45	C	1.019908	-0.399887	-0.400064
C46	C	1.519908	0.100113	0.099936
C47	C	0.993970	-0.593267	-0.592890
C48	C	1.493970	-0.093267	-0.092890
C49	C	0.884245	-0.593280	-0.592900
C50	C	1.384245	-0.093280	-0.092900
C51	C	1.439476	-0.696359	-0.474714
C52	C	1.939476	-0.196359	0.025286
C53	C	1.432377	-0.796969	-0.480535
C54	C	1.932377	-0.296969	0.019465
C55	C	1.561747	-0.979335	-0.375801
C56	C	2.061747	-0.479335	0.124199
C57	C	1.555081	-1.073867	-0.381267
C58	C	2.055081	-0.573867	0.118733
C59	C	1.412384	-1.080567	-0.496936
C60	C	1.912384	-0.580567	0.003064
C61	C	1.419050	-0.986035	-0.491470
C62	C	1.919050	-0.486035	0.008530
C63	C	1.493733	-0.935422	-0.430900
C64	C	1.993733	-0.435422	0.069100
C65	C	1.500394	-0.840888	-0.425430
C66	C	2.000394	-0.340888	0.074570
C67	C	1.357703	-0.847590	-0.541103
C68	C	1.857703	-0.347590	-0.041103
C69	C	1.351037	-0.942122	-0.546569
C70	C	1.851037	-0.442122	-0.046569
C71	C	1.730321	-0.461203	-0.461194
C72	C	2.230321	0.038797	0.038806
C73	C	1.847097	-0.461211	-0.461200
C74	C	2.347097	0.038789	0.038800
C75	C	1.439569	-0.474735	-0.697264
C76	C	1.939569	0.025265	-0.197264
C77	C	1.432444	-0.480509	-0.797869
C78	C	1.932444	0.019491	-0.297869
C79	C	1.473196	-0.225094	-0.447613
C80	C	1.973196	0.274906	0.052387
C81	C	1.480401	-0.124486	-0.441831
C82	C	1.980401	0.375514	0.058169
C83	C	1.561723	-0.375574	-0.980271
C84	C	2.061723	0.124426	-0.480271
C85	C	1.555032	-0.380996	-1.074798
C86	C	2.055032	0.119004	-0.574798
C87	C	1.412366	-0.496771	-1.081452
C88	C	1.912366	0.003229	-0.581452
C89	C	1.419057	-0.491348	-0.986925
C90	C	1.919057	0.008652	-0.486925
C91	C	1.493739	-0.430749	-0.936337
C92	C	1.993739	0.069251	-0.436337
C93	C	1.500435	-0.425332	-0.841809
C94	C	2.000435	0.074668	-0.341809
C95	C	1.357765	-0.541101	-0.848464
C96	C	1.857765	-0.041101	-0.348464
C97	C	1.351074	-0.546524	-0.942992
C98	C	1.851074	-0.046524	-0.442992
C99	C	1.473010	-0.447622	-0.226011
C100	C	1.973010	0.052378	0.273989
C101	C	1.480357	-0.441593	-0.125392
C102	C	1.980357	0.058407	0.374608
H103	H	1.071265	-0.349963	-0.350294
H104	H	1.571265	0.150037	0.149706
H105	H	1.622550	-0.938124	-0.326477
H106	H	2.122550	-0.438124	0.173523
H107	H	0.847287	-0.572107	-0.658100
H108	H	1.347287	-0.072107	-0.158100
Cl109	Cl	1.655616	-0.299404	-0.916673
Cl110	Cl	2.155616	0.200596	-0.416673
Cl111	Cl	1.318518	-1.144210	-0.573086
Cl112	Cl	1.818518	-0.644210	-0.073086
H113	H	0.850801	-0.662274	-0.578044
H114	H	1.350801	-0.162274	-0.078044
Cl115	Cl	1.640499	-0.311628	-1.130025
Cl116	Cl	2.140499	0.188372	-0.630025
Cl117	Cl	1.640590	-1.129069	-0.311999
Cl118	Cl	2.140590	-0.629069	0.188001
H119	H	1.561246	-0.375990	-0.800622
H120	H	2.061246	0.124010	-0.300622
H121	H	0.872199	-0.349996	-0.350309
H122	H	1.372199	0.150004	0.149691
Cl123	Cl	1.318482	-0.572940	-1.145062
Cl124	Cl	1.818482	-0.072940	-0.645062
Cl125	Cl	1.041938	-0.693810	-0.559948
Cl126	Cl	1.541938	-0.193810	-0.059948
Cl127	Cl	1.257193	-0.622701	-1.006595
Cl128	Cl	1.757193	-0.122701	-0.506595
Cl129	Cl	1.034351	-0.570662	-0.699505
Cl130	Cl	1.534351	-0.070662	-0.199505
H131	H	1.302410	-0.586032	-0.812684
H132	H	1.802410	-0.086032	-0.312684
Cl133	Cl	1.272182	-0.792380	-0.610362
Cl134	Cl	1.772182	-0.292380	-0.110362
H135	H	1.561202	-0.799679	-0.376109
H136	H	2.061202	-0.299679	0.123891
H137	H	1.290235	-0.983344	-0.595885
H138	H	1.790235	-0.483344	-0.095885
