data_functionalizedCrystal
_audit_creation_method	'MofGen! by Chris Wilmer'
_symmetry_space_group_name_H-M	'P1'
_symmetry_Int_Tables_number	1
_symmetry_cell_setting	triclinic
loop_
_symmetry_equiv_pos_as_xyz
  x,y,z
_cell_length_a	17.038278
_cell_length_b	17.038272
_cell_length_c	9.730223
_cell_angle_alpha	89.998176
_cell_angle_beta	89.999541
_cell_angle_gamma	91.111028
loop_
_atom_site_label
_atom_site_type_symbol
_atom_site_fract_x
_atom_site_fract_y
_atom_site_fract_z
O1	O	1.048749	0.170523	-0.114303
O2	O	1.548749	0.670523	0.385697
O3	O	0.820938	0.167818	-0.114304
O4	O	1.320938	0.667818	0.385696
O5	O	0.933490	0.055265	-0.114293
O6	O	1.433490	0.555265	0.385707
O7	O	0.936197	0.283076	-0.114314
O8	O	1.436197	0.783076	0.385686
O9	O	0.933488	0.055268	0.114287
O10	O	1.433488	0.555268	0.614287
O11	O	0.820937	0.167821	0.114276
O12	O	1.320937	0.667821	0.614276
O13	O	1.048748	0.170526	0.114277
O14	O	1.548748	0.670526	0.614277
Zn15	Zn	0.934842	0.169174	0.150568
Zn16	Zn	1.434842	0.669174	0.650568
Zn17	Zn	0.934844	0.169170	-0.150595
Zn18	Zn	1.434844	0.669170	0.349405
O19	O	0.936196	0.283079	0.114266
O20	O	1.436196	0.783079	0.614266
C21	C	0.791645	0.165356	-0.000014
C22	C	1.291645	0.665356	0.499986
C23	C	0.704361	0.158009	-0.000014
C24	C	1.204361	0.658009	0.499986
C25	C	0.931026	0.025974	-0.000003
C26	C	1.431026	0.525974	0.499997
C27	C	0.923678	-0.061310	-0.000003
C28	C	1.423678	0.438690	0.499997
C29	C	0.210935	0.112872	-0.000014
C30	C	0.710935	0.612872	0.499986
C31	C	0.292947	0.119781	-0.000007
C32	C	0.792947	0.619781	0.499993
C33	C	0.329347	0.194155	-0.000020
C34	C	0.829347	0.694155	0.499980
C35	C	0.283730	0.261623	-0.000027
C36	C	0.783730	0.761623	0.499973
C37	C	0.201720	0.254713	-0.000025
C38	C	0.701720	0.754713	0.499975
C39	C	0.576734	0.218567	-0.000018
C40	C	1.076734	0.718567	0.499982
C41	C	0.658751	0.225473	-0.000025
C42	C	1.158751	0.725473	0.499975
C43	C	0.667962	0.083630	-0.000002
C44	C	1.167962	0.583630	0.499998
C45	C	0.585949	0.076726	-0.000008
C46	C	1.085949	0.576726	0.499992
C47	C	0.540340	0.144194	-0.000008
C48	C	1.040340	0.644194	0.499992
C49	C	0.413176	0.201219	-0.000017
C50	C	0.913176	0.701219	0.499983
C51	C	0.456513	0.137129	-0.000001
C52	C	0.956513	0.637129	0.499999
C53	C	0.991142	-0.106920	-0.000002
C54	C	1.491142	0.393080	0.499998
C55	C	0.984233	-0.188932	-0.000015
C56	C	1.484233	0.311068	0.499985
C57	C	0.909859	-0.225332	-0.000019
C58	C	1.409859	0.274668	0.499981
C59	C	0.842391	-0.179716	-0.000025
C60	C	1.342391	0.320284	0.499975
C61	C	0.849300	-0.097706	-0.000022
C62	C	1.349300	0.402294	0.499978
C63	C	0.885449	-0.472720	-0.000038
C64	C	1.385449	0.027280	0.499962
C65	C	0.878544	-0.554736	-0.000037
C66	C	1.378544	-0.054736	0.499963
C67	C	1.020387	-0.563946	-0.000030
C68	C	1.520387	-0.063946	0.499970
C69	C	1.027290	-0.481934	-0.000018
C70	C	1.527290	0.018066	0.499982
C71	C	0.959821	-0.436325	-0.000031
C72	C	1.459821	0.063675	0.499969
C73	C	0.902796	-0.309161	-0.000028
C74	C	1.402796	0.190839	0.499972
C75	C	0.966886	-0.352497	-0.000032
C76	C	1.466886	0.147503	0.499968
C77	C	1.078041	0.172988	-0.000016
C78	C	1.578041	0.672988	0.499984
C79	C	1.165325	0.180335	-0.000026
C80	C	1.665325	0.680335	0.499974
C81	C	0.938660	0.312370	-0.000027
C82	C	1.438660	0.812370	0.499973
C83	C	0.946008	0.399654	-0.000036
C84	C	1.446008	0.899654	0.499964
N85	N	0.934847	0.169176	0.356105
N86	N	1.434847	0.669176	0.856105
N87	N	0.934845	0.169162	-0.356132
N88	N	1.434845	0.669162	0.143868
C89	C	0.984699	0.119357	0.428036
C90	C	1.484699	0.619357	0.928036
C91	C	0.984697	0.119347	0.571919
C92	C	1.484697	0.619347	1.071919
C93	C	0.884987	0.218983	0.571927
C94	C	1.384987	0.718983	1.071927
C95	C	0.884986	0.218989	0.428047
C96	C	1.384986	0.718989	0.928047
C97	C	1.034560	0.069545	0.356094
C98	C	1.534560	0.569545	0.856094
C99	C	1.084418	0.019722	0.428025
C100	C	1.584418	0.519722	0.928025
C101	C	1.084415	0.019712	0.571908
C102	C	1.584415	0.519712	1.071908
C103	C	1.034555	0.069526	0.643860
C104	C	1.534555	0.569526	1.143860
H105	H	0.181305	0.052309	-0.000012
H106	H	0.681305	0.552309	0.499988
H107	H	0.830511	-0.435595	-0.000048
H108	H	1.330511	0.064405	0.499952
O109	O	0.337289	0.054272	0.000237
O110	O	0.837289	0.554272	0.500237
C111	C	0.385017	0.054034	0.118603
C112	C	0.885017	0.554034	0.618603
H113	H	0.357686	0.092194	0.201347
H114	H	0.857686	0.592194	0.701347
H115	H	0.390025	-0.008613	0.158339
H116	H	0.890025	0.491387	0.658339
H117	H	0.445932	0.078327	0.091837
H118	H	0.945932	0.578327	0.591837
O119	O	1.039087	-0.317051	-0.000210
O120	O	1.539087	0.182949	0.499790
C121	C	1.047335	-0.269901	-0.118610
C122	C	1.547335	0.230099	0.381390
H123	H	0.986795	-0.253623	-0.158087
H124	H	1.486795	0.246377	0.341913
H125	H	1.082200	-0.214177	-0.091979
H126	H	1.582200	0.285823	0.408021
H127	H	1.079680	-0.303775	-0.201501
H128	H	1.579680	0.196225	0.298499
O129	O	1.085898	-0.608285	-0.000274
O130	O	1.585898	-0.108285	0.499726
C131	C	1.086135	-0.656008	-0.118643
C132	C	1.586135	-0.156008	0.381357
H133	H	1.047971	-0.628676	-0.201383
H134	H	1.547971	-0.128676	0.298617
H135	H	1.148781	-0.661010	-0.158384
H136	H	1.648781	-0.161010	0.341616
H137	H	1.061848	-0.716926	-0.091881
H138	H	1.561848	-0.216926	0.408119
O139	O	0.836476	0.267271	0.358105
O140	O	1.336476	0.767271	0.858105
C141	C	0.785248	0.221962	0.274854
C142	C	1.285248	0.721962	0.774854
H143	H	0.779809	0.159937	0.318215
H144	H	1.279809	0.659937	0.818215
H145	H	0.724956	0.249812	0.273222
H146	H	1.224956	0.749812	0.773222
H147	H	0.809552	0.219498	0.165810
H148	H	1.309552	0.719498	0.665810
O149	O	1.034669	0.069438	0.783628
O150	O	1.534669	0.569438	1.283628
C151	C	1.089342	0.014763	0.831694
C152	C	1.589342	0.514763	1.331694
H153	H	1.135218	0.004212	0.748783
H154	H	1.635218	0.504212	1.248783
H155	H	1.119419	0.038797	0.927962
H156	H	1.619419	0.538797	1.427962
H157	H	1.057602	-0.042929	0.857203
H158	H	1.557602	0.457071	1.357203
O159	O	0.319049	0.333888	0.000204
O160	O	0.819049	0.833888	0.500204
C161	C	0.296191	0.375356	0.118563
C162	C	0.796191	0.875356	0.618563
H163	H	0.276346	0.331965	0.201317
H164	H	0.776346	0.831965	0.701317
H165	H	0.348034	0.412074	0.158288
H166	H	0.848034	0.912074	0.658288
H167	H	0.245713	0.415563	0.091793
H168	H	0.745713	0.915563	0.591793
O169	O	0.550719	0.004419	0.000078
O170	O	1.050719	0.504419	0.500078
C171	C	0.608563	-0.053646	0.000058
C172	C	1.108563	0.446354	0.500058
H173	H	0.665673	-0.027928	0.043323
H174	H	1.165673	0.472072	0.543323
H175	H	0.588090	-0.105238	0.066437
H176	H	1.088090	0.394762	0.566437
H177	H	0.618700	-0.074726	-0.109598
H178	H	1.118700	0.425274	0.390402
O179	O	0.157378	0.320223	0.000202
O180	O	0.657378	0.820223	0.500202
C181	C	0.109651	0.320466	0.118570
C182	C	0.609651	0.820466	0.618570
H183	H	0.136982	0.282307	0.201319
H184	H	0.636982	0.782307	0.701319
H185	H	0.104646	0.383114	0.158295
H186	H	0.604646	0.883114	0.658295
H187	H	0.048735	0.296175	0.091812
H188	H	0.548735	0.796175	0.591812
O189	O	1.099597	-0.446703	-0.000070
O190	O	1.599597	0.053297	0.499930
C191	C	1.157662	-0.504546	-0.000031
C192	C	1.657662	-0.004546	0.499969
H193	H	1.131951	-0.561653	-0.043320
H194	H	1.631951	-0.061653	0.456680
H195	H	1.209264	-0.484068	-0.066379
H196	H	1.709264	0.015932	0.433621
H197	H	1.178725	-0.514692	0.109634
H198	H	1.678725	-0.014692	0.609634
H199	H	0.688384	0.286039	-0.000016
H200	H	1.188384	0.786039	0.499984
O201	O	0.532400	0.284078	0.000204
O202	O	1.032400	0.784078	0.500204
C203	C	0.484670	0.284329	0.118568
C204	C	0.984670	0.784329	0.618568
H205	H	0.511997	0.246176	0.201328
H206	H	1.011997	0.746176	0.701328
H207	H	0.479663	0.346980	0.158279
H208	H	0.979663	0.846980	0.658279
H209	H	0.423754	0.260036	0.091809
H210	H	0.923754	0.760036	0.591809
O211	O	0.421121	0.064902	-0.000234
O212	O	0.921121	0.564902	0.499766
C213	C	0.373942	0.056675	-0.118598
C214	C	0.873942	0.556675	0.381402
H215	H	0.396046	0.099001	-0.201344
H216	H	0.896046	0.599001	0.298656
H217	H	0.377079	-0.006128	-0.158334
H218	H	0.877079	0.493872	0.341666
H219	H	0.310552	0.070499	-0.091832
H220	H	0.810552	0.570499	0.408168
H221	H	0.705105	0.028701	-0.000000
H222	H	1.205105	0.528701	0.500000
H223	H	1.051704	-0.077289	0.000011
H224	H	1.551704	0.422711	0.500011
O225	O	0.448450	0.273505	-0.000223
O226	O	0.948450	0.773505	0.499777
C227	C	0.425633	0.314950	-0.118636
C228	C	0.925633	0.814950	0.381364
H229	H	0.367395	0.289775	-0.158101
H230	H	0.867395	0.789775	0.341899
H231	H	0.418623	0.379596	-0.092030
H232	H	0.918623	0.879596	0.407970
H233	H	0.472429	0.308992	-0.201528
H234	H	0.972429	0.808992	0.298472
O235	O	1.049847	-0.233120	0.000057
O236	O	1.549847	0.266880	0.500057
C237	C	1.116972	-0.183406	0.000040
C238	C	1.616972	0.316594	0.500040
H239	H	1.101102	-0.123598	0.043315
H240	H	1.601102	0.376402	0.543315
H241	H	1.164572	-0.210325	0.066411
H242	H	1.664572	0.289675	0.566411
H243	H	1.139521	-0.176096	-0.109616
H244	H	1.639521	0.323904	0.390384
H245	H	0.817978	-0.584370	-0.000019
H246	H	1.317978	-0.084370	0.499981
H247	H	0.781834	-0.209360	-0.000038
H248	H	1.281834	0.290640	0.499962
O249	O	0.783790	-0.053364	-0.000263
O250	O	1.283790	0.446636	0.499737
C251	C	0.783557	-0.005634	-0.118630
C252	C	1.283557	0.494366	0.381370
H253	H	0.821721	-0.032963	-0.201371
H254	H	1.321721	0.467037	0.298629
H255	H	0.720912	-0.000627	-0.158372
H256	H	1.220912	0.499373	0.341628
H257	H	0.807847	0.055281	-0.091865
H258	H	1.307847	0.555281	0.408135
H259	H	0.842240	-0.338808	-0.000029
H260	H	1.342240	0.161192	0.499971
O261	O	1.034636	0.069429	0.216328
O262	O	1.534636	0.569429	0.716328
C263	C	1.089348	0.014798	0.168250
C264	C	1.589348	0.514798	0.668250
H265	H	1.099940	-0.031071	0.251157
H266	H	1.599940	0.468929	0.751157
H267	H	1.065328	-0.015294	0.071987
H268	H	1.565328	0.484706	0.571987
H269	H	1.147015	0.046582	0.142729
H270	H	1.647015	0.546582	0.642729
H271	H	1.125008	-0.020839	0.369434
H272	H	1.625008	0.479161	0.869434
H273	H	1.125005	-0.020861	0.630473
H274	H	1.625005	0.479139	1.130473
H275	H	0.844393	0.259540	0.630520
H276	H	1.344393	0.759540	1.130520
