data_functionalizedCrystal
_audit_creation_method	'MofGen! by Chris Wilmer'
_symmetry_space_group_name_H-M	'P1'
_symmetry_Int_Tables_number	1
_symmetry_cell_setting	triclinic
loop_
_symmetry_equiv_pos_as_xyz
  x,y,z
_cell_length_a	14.971491
_cell_length_b	14.971506
_cell_length_c	9.730223
_cell_angle_alpha	89.997177
_cell_angle_beta	89.994861
_cell_angle_gamma	83.619312
loop_
_atom_site_label
_atom_site_type_symbol
_atom_site_fract_x
_atom_site_fract_y
_atom_site_fract_z
O1	O	1.186949	0.116583	-0.114344
O2	O	0.926550	0.130537	-0.114333
O3	O	1.063719	-0.006639	-0.114335
O4	O	1.049780	0.253759	-0.114342
O5	O	1.063711	-0.006642	0.114245
O6	O	0.926541	0.130533	0.114247
O7	O	1.186940	0.116580	0.114236
Zn8	Zn	1.056739	0.123556	0.150533
Zn9	Zn	1.056751	0.123561	-0.150630
O10	O	1.049771	0.253755	0.114238
C11	C	0.893221	0.129910	-0.000042
C12	C	0.793924	0.128038	-0.000038
C13	C	0.366223	0.119960	-0.124668
C14	C	0.459523	0.121716	-0.124663
C15	C	0.506164	0.122599	-0.000060
C16	C	0.459501	0.121715	0.124547
C17	C	0.366203	0.119952	0.124541
C18	C	0.653963	0.125392	0.124552
C19	C	0.747267	0.127157	0.124559
C20	C	0.747283	0.127157	-0.124652
C21	C	0.653985	0.125394	-0.124658
C22	C	0.607328	0.124512	-0.000051
C23	C	1.063088	-0.039965	-0.000047
C24	C	1.061210	-0.139261	-0.000053
C25	C	1.134628	-0.577542	-0.000055
C26	C	1.136386	-0.484242	-0.000047
C27	C	1.055794	-0.427023	-0.000048
C28	C	0.973439	-0.463109	-0.000045
C29	C	0.971682	-0.556408	-0.000043
C30	C	0.977106	-0.268646	-0.000050
C31	C	0.978862	-0.175341	-0.000054
C32	C	1.141809	-0.196480	-0.000053
C33	C	1.140053	-0.289779	-0.000052
C34	C	1.057697	-0.325858	-0.000051
C35	C	1.220269	0.117206	-0.000058
C36	C	1.319566	0.119079	-0.000071
C37	C	1.050402	0.287081	-0.000053
C38	C	1.052280	0.386378	-0.000056
N39	N	1.056738	0.123552	0.356070
N40	N	1.056759	0.123558	-0.356167
C41	C	1.117497	0.062836	0.427995
C42	C	1.117506	0.062836	0.571878
C43	C	0.995994	0.184276	0.571898
C44	C	0.995981	0.184271	0.428018
H45	H	0.785275	0.127876	-0.226111
H46	H	1.203442	-0.454870	-0.000045
C47	C	0.929971	0.250296	0.350165
C48	C	0.876786	0.303494	0.443966
C49	C	0.815977	0.364328	0.372298
H50	H	0.892617	0.218157	0.294052
H51	H	0.962158	0.287631	0.294047
H52	H	0.844601	0.266164	0.500060
H53	H	0.914116	0.335653	0.500082
H54	H	0.848164	0.401663	0.316180
H55	H	0.778630	0.332180	0.316188
H56	H	0.779890	0.400435	0.435931
H57	H	0.785239	0.127880	0.226023
H58	H	0.913236	-0.128756	-0.000047
C59	C	0.315755	0.118963	-0.260100
C60	C	0.376592	0.120087	-0.369215
C61	C	0.330139	0.119157	-0.493997
H62	H	0.272596	0.170381	-0.265483
H63	H	0.286143	0.066137	-0.265355
H64	H	0.406189	0.172908	-0.363962
H65	H	0.419752	0.068673	-0.363877
H66	H	0.300527	0.066330	-0.499252
H67	H	0.286982	0.170576	-0.499366
H68	H	0.371411	0.119911	-0.568046
H69	H	1.205678	-0.336364	-0.000060
C70	C	0.510271	0.122820	-0.259844
C71	C	0.553877	0.200712	-0.267111
C72	C	0.600641	0.201753	-0.391618
H73	H	0.469223	0.122096	-0.334165
H74	H	0.553476	0.071416	-0.265040
H75	H	0.510677	0.252104	-0.261928
H76	H	0.594939	0.201453	-0.192819
H77	H	0.643847	0.150349	-0.396814
H78	H	0.559588	0.201027	-0.465929
H79	H	0.630241	0.254598	-0.396559
C80	C	1.183576	-0.003122	0.649719
C81	C	1.236792	-0.056280	0.555909
C82	C	1.297675	-0.117047	0.627565
H83	H	1.151474	-0.040498	0.705867
H84	H	1.220895	0.029097	0.705802
H85	H	1.199478	-0.088497	0.499850
H86	H	1.268914	-0.018929	0.499758
H87	H	1.334993	-0.084827	0.683647
H88	H	1.265565	-0.154416	0.683710
H89	H	1.333794	-0.153116	0.563926
H90	H	0.907819	-0.416515	-0.000038
C91	C	0.882248	-0.595535	-0.000334
C92	C	0.833540	-0.566484	-0.117954
C93	C	0.751152	-0.602518	-0.118272
H94	H	0.848946	-0.575929	0.079281
H95	H	0.892706	-0.659298	-0.000405
H96	H	0.823078	-0.502735	-0.117870
H97	H	0.866815	-0.586089	-0.197588
H98	H	0.761611	-0.666281	-0.118343
H99	H	0.717858	-0.582910	-0.038651
H100	H	0.718097	-0.582819	-0.198081
H101	H	0.497485	0.122428	0.226002
C102	C	1.183288	-0.003178	0.349739
C103	C	1.135545	-0.057996	0.267182
C104	C	1.196111	-0.118834	0.195081
H105	H	1.219476	-0.039423	0.413059
H106	H	1.220563	0.028990	0.293488
H107	H	1.098285	-0.090162	0.323428
H108	H	1.099360	-0.021776	0.203836
H109	H	1.233386	-0.086666	0.138829
H110	H	1.232296	-0.155073	0.258411
H111	H	1.163726	-0.156030	0.139048
C112	C	0.929995	0.250059	0.650197
C113	C	0.875219	0.202322	0.732857
C114	C	0.814419	0.262893	0.805017
H115	H	0.893718	0.286244	0.586912
H116	H	0.962193	0.287336	0.706384
H117	H	0.843024	0.165060	0.676675
H118	H	0.911471	0.166140	0.796167
H119	H	0.846617	0.300170	0.861204
H120	H	0.778148	0.299075	0.741722
H121	H	0.777252	0.230512	0.861119
H122	H	0.616012	0.124681	-0.226122
C123	C	1.222228	-0.639512	0.000013
C124	C	1.294721	-0.587940	0.000053
C125	C	1.375434	-0.644993	0.000139
H126	H	1.225065	-0.676365	-0.079676
H127	H	1.224974	-0.676336	0.079756
H128	H	1.291977	-0.551131	-0.079682
H129	H	1.291914	-0.551089	0.079736
H130	H	1.378179	-0.681817	0.079882
H131	H	1.378261	-0.681843	-0.079552
H132	H	1.424629	-0.610010	0.000178
H133	H	0.328215	0.119244	0.226000
C134	C	0.603281	0.124252	0.259797
C135	C	0.559712	0.046338	0.267103
C136	C	0.513023	0.045257	0.391672
H137	H	0.560058	0.175622	0.265097
H138	H	0.644396	0.124985	0.334050
H139	H	0.518601	0.045614	0.192870
H140	H	0.602915	-0.005045	0.261827
H141	H	0.554138	0.045989	0.465925
H142	H	0.469805	0.096630	0.396961
H143	H	0.483463	-0.007611	0.396651
H144	H	0.910043	-0.298018	-0.000030
C145	C	1.231135	-0.157140	0.000018
C146	C	1.215428	-0.063187	0.000059
C147	C	1.297690	-0.026912	0.000134
H148	H	1.264392	-0.176670	-0.079675
H149	H	1.264330	-0.176726	0.079757
H150	H	1.182248	-0.043609	-0.079672
H151	H	1.182185	-0.043632	0.079746
H152	H	1.330884	-0.046498	0.079873
H153	H	1.330941	-0.046448	-0.079561
H154	H	1.287044	0.036838	0.000174
