data_functionalizedCrystal
_audit_creation_method	'MofGen! by Chris Wilmer'
_symmetry_space_group_name_H-M	'P1'
_symmetry_Int_Tables_number	1
_symmetry_cell_setting	triclinic
loop_
_symmetry_equiv_pos_as_xyz
  x,y,z
_cell_length_a	9.065218
_cell_length_b	9.130313
_cell_length_c	10.654550
_cell_angle_alpha	90.000110
_cell_angle_beta	95.249606
_cell_angle_gamma	89.999659
loop_
_atom_site_label
_atom_site_type_symbol
_atom_site_fract_x
_atom_site_fract_y
_atom_site_fract_z
O1	O	1.959386	-0.121799	-0.184154
O2	O	1.530019	-0.121801	-0.199259
O3	O	1.754575	-0.121794	-0.009006
O4	O	1.734831	-0.121805	-0.374407
O5	O	1.754572	0.121804	-0.009012
O6	O	1.530016	0.121798	-0.199264
O7	O	1.959384	0.121800	-0.184159
Cu8	Cu	1.744700	0.144041	-0.191712
Cu9	Cu	1.744703	-0.144042	-0.191706
O10	O	1.734828	0.121793	-0.374412
C11	C	1.475039	-0.000002	-0.197810
C12	C	1.311220	-0.000002	-0.193469
N13	N	1.744708	0.346664	-0.191716
N14	N	1.744706	-0.346665	-0.191693
C15	C	2.014364	-0.000003	-0.185608
C16	C	2.178183	-0.000012	-0.189949
C17	C	1.753124	0.000003	0.037795
C18	C	1.748786	-0.000002	0.177255
C19	C	1.844167	0.423319	-0.107501
C20	C	1.844163	0.576656	-0.107486
C21	C	1.645236	0.576669	-0.275911
C22	C	1.645234	0.423335	-0.275919
C23	C	1.959020	0.423312	-0.010265
C24	C	1.959016	0.576649	-0.010250
C25	C	1.736279	-0.000007	-0.421213
C26	C	1.740616	-0.000012	-0.560673
C27	C	1.881001	0.000003	0.256217
C28	C	1.876917	-0.000007	0.387254
C29	C	1.608391	-0.000021	0.360354
C30	C	1.612477	-0.000021	0.229320
C31	C	2.036032	0.000017	0.271749
C32	C	2.031948	0.000007	0.402786
H33	H	1.564234	0.360924	-0.344483
Cl34	Cl	2.104284	-0.162374	0.472983
H35	H	2.096672	-0.101921	0.242153
H36	H	2.085399	0.105199	0.235924
Cl37	Cl	1.437041	-0.000049	0.425817
H38	H	2.090360	0.101951	0.444312
Cl39	Cl	1.920126	0.359046	0.138922
H40	H	1.564247	0.639112	-0.344467
H41	H	2.066144	0.375753	-0.041278
H42	H	1.923169	0.624198	0.081114
H43	H	2.072399	0.618265	-0.032218
Cl44	Cl	1.446257	-0.000064	0.130056
