data_functionalizedCrystal
_audit_creation_method	'MofGen! by Chris Wilmer'
_symmetry_space_group_name_H-M	'P1'
_symmetry_Int_Tables_number	1
_symmetry_cell_setting	triclinic
loop_
_symmetry_equiv_pos_as_xyz
  x,y,z
_cell_length_a	14.560438
_cell_length_b	20.875444
_cell_length_c	20.875658
_cell_angle_alpha	60.190758
_cell_angle_beta	87.031327
_cell_angle_gamma	61.741302
loop_
_atom_site_label
_atom_site_type_symbol
_atom_site_fract_x
_atom_site_fract_y
_atom_site_fract_z
Zr1	Zr	0.938051	0.667385	-0.049352
O2	O	0.807976	0.794587	-0.145142
O3	O	0.971710	0.540182	-0.024587
O4	O	0.990616	0.667382	-0.151772
O5	O	0.781227	0.667389	0.087601
O6	O	1.141756	0.667380	-0.151768
O7	O	0.789069	0.667387	-0.017958
O8	O	1.107937	0.439842	0.075742
O9	O	0.815046	0.894927	-0.139909
O10	O	1.106369	0.592501	-0.008465
O11	O	0.987722	0.592504	0.070310
O12	O	1.009981	0.742266	-0.079434
O13	O	0.891334	0.742268	-0.000660
Zr14	Zr	1.166594	0.667385	0.119007
Zr15	Zr	1.179102	0.667382	-0.049346
Zr16	Zr	0.925542	0.667388	0.119001
Zr17	Zr	0.949328	0.827415	-0.041006
Zr18	Zr	1.155317	0.507354	0.110661
O19	O	1.132935	0.794587	0.094242
O20	O	1.150720	0.794583	-0.145134
O21	O	0.790190	0.794592	0.094234
O22	O	1.296669	0.540182	0.214797
O23	O	1.314454	0.540177	-0.024579
O24	O	0.953924	0.540186	0.214789
O25	O	1.323418	0.667380	-0.017946
O26	O	1.114029	0.667387	0.221427
O27	O	0.962888	0.667389	0.221423
O28	O	1.315575	0.667382	0.087613
O29	O	1.006650	0.894925	-0.139905
O30	O	1.097994	0.439844	0.209560
O31	O	1.289598	0.439842	0.209564
O32	O	1.299541	0.439840	0.075746
O33	O	0.805104	0.894930	-0.006091
O34	O	0.996708	0.894927	-0.006087
O35	O	1.094663	0.592504	0.149089
O36	O	1.213311	0.592501	0.070315
O37	O	1.116923	0.742266	-0.000655
O38	O	0.998275	0.742268	0.078120
C39	C	1.038216	0.467211	0.024388
C40	C	1.033429	0.399274	0.020845
C41	C	0.998413	0.022683	-0.004816
C42	C	1.002911	0.086534	-0.001519
C43	C	1.080217	0.063196	0.055400
C44	C	1.153023	-0.024001	0.109031
C45	C	1.148519	-0.087850	0.105737
C46	C	1.101731	0.248228	0.071182
C47	C	1.106231	0.312086	0.074471
C48	C	0.956118	0.422617	-0.036079
C49	C	0.951625	0.358761	-0.039371
C50	C	1.024427	0.271571	0.014262
N51	N	1.084819	0.128460	0.058770
N52	N	1.019819	0.206308	0.010895
C53	C	0.750803	0.667388	0.034821
C54	C	0.648471	0.667390	0.034818
C55	C	0.604708	0.667390	-0.023333
C56	C	0.508561	0.667382	-0.023323
C57	C	0.499945	0.667377	0.092994
C58	C	0.596094	0.667379	0.092986
C59	C	0.657084	0.667401	-0.081500
C60	C	0.613321	0.667402	-0.139657
C61	C	0.517174	0.667394	-0.139647
C62	C	0.464790	0.667385	-0.081480
C63	C	1.353841	0.667381	0.034834
C64	C	1.456174	0.667380	0.034836
C65	C	1.067968	0.667381	-0.175757
C66	C	1.073278	0.667379	-0.247227
C67	C	1.066428	0.867558	0.045267
C68	C	1.071216	0.935495	0.048810
C69	C	0.992512	0.667379	-0.280808
C70	C	0.997504	0.667385	-0.347965
C71	C	1.083269	0.667386	-0.381538
C72	C	1.164040	0.667389	-0.347953
C73	C	1.159042	0.667389	-0.280800
C74	C	1.107140	0.667392	-0.582380
C75	C	1.112133	0.667390	-0.649537
C76	C	0.945596	0.667388	-0.649545
C77	C	0.940609	0.667383	-0.582388
C78	C	1.021377	0.667390	-0.548812
N79	N	1.088376	0.667390	-0.450182
N80	N	1.016265	0.667393	-0.480171
C81	C	1.036676	0.667388	0.245412
C82	C	1.031366	0.667390	0.316882
C83	C	1.339735	0.467207	0.024395
C84	C	1.437281	0.399269	0.020854
C85	C	1.022570	0.467215	0.234972
C86	C	1.012473	0.399279	0.302900
C87	C	1.324089	0.467211	0.234979
C88	C	1.416325	0.399274	0.302909
C89	C	0.780555	0.867558	-0.165324
C90	C	0.688320	0.935495	-0.233254
C91	C	0.764909	0.867562	0.045260
C92	C	0.667364	0.935500	0.048801
C93	C	1.082074	0.867554	-0.165317
C94	C	1.092172	0.935490	-0.233245
C95	C	1.427267	0.367364	-0.021937
C96	C	1.518914	0.303538	-0.025280
C97	C	1.620573	0.271613	0.014175
C98	C	1.630584	0.303524	0.056968
C99	C	1.538939	0.367353	0.060306
C100	C	1.063553	0.367376	0.375928
C101	C	1.054061	0.303552	0.439760
C102	C	0.993495	0.271628	0.430562
C103	C	0.942409	0.303538	0.357526
C104	C	0.951895	0.367365	0.293696
C105	C	1.521582	0.367369	0.293690
C106	C	1.608257	0.303543	0.357511
C107	C	1.589672	0.271620	0.430550
C108	C	1.484404	0.303532	0.439768
C109	C	1.397732	0.367361	0.375948
C110	C	0.583063	0.967408	-0.224034
C111	C	0.496389	1.031253	-0.287854
C112	C	0.514974	1.063180	-0.360893
C113	C	0.620242	1.031264	-0.370111
C114	C	0.706914	0.967424	-0.306292
C115	C	0.677378	0.967412	0.091586
C116	C	0.585734	1.031256	0.094910
C117	C	0.484076	1.063183	0.055453
C118	C	0.474064	1.031269	0.012663
C119	C	0.565707	0.967430	0.009335
C120	C	1.152746	0.967394	-0.224022
C121	C	1.162254	1.031218	-0.287841
C122	C	1.111182	1.063142	-0.360882
C123	C	1.050605	1.031232	-0.370103
C124	C	1.041104	0.967405	-0.306285
H125	H	0.888672	0.377774	-0.085720
H126	H	1.207801	-0.158843	0.149406
H127	H	0.409462	1.115164	0.058170
Cl128	Cl	0.434088	0.667369	0.166110
Cl129	Cl	0.643589	1.071406	-0.461938
Cl130	Cl	0.553098	0.927315	-0.044452
Cl131	Cl	0.346255	1.071412	-0.036932
H132	H	1.194337	0.941411	-0.164554
Cl133	Cl	1.238404	1.071325	-0.276231
H134	H	0.991774	0.941436	-0.313805
H135	H	1.344501	0.393357	-0.054076
Cl136	Cl	0.651114	0.667374	0.166095
H137	H	0.760145	0.941421	0.123722
H138	H	1.095667	0.277578	0.499223
H139	H	0.985780	0.219656	0.482542
Cl140	Cl	0.884692	0.667372	-0.238607
Cl141	Cl	0.832792	0.667380	-0.540182
Cl142	Cl	0.986394	1.071383	-0.461931
Cl143	Cl	1.735774	0.191367	0.009974
Cl144	Cl	0.679180	0.667403	-0.212771
Cl145	Cl	0.598345	1.071359	0.148711
H146	H	0.935467	0.041696	-0.051169
H147	H	0.879837	0.667383	-0.676890
Cl148	Cl	1.740582	0.263435	0.345905
Cl149	Cl	0.839235	0.927307	-0.317896
Cl150	Cl	0.866275	0.263394	0.345974
Cl151	Cl	1.551546	0.407448	0.114112
Cl152	Cl	0.864596	0.532227	-0.103496
Cl153	Cl	0.895967	0.667386	-0.390183
H154	H	1.312028	0.393330	0.383464
H155	H	1.118927	1.115115	-0.412840
Cl156	Cl	1.139702	0.407493	0.387512
Cl157	Cl	1.544975	0.407493	0.201877
H158	H	0.943639	0.157525	-0.045194
H159	H	1.169184	0.293073	0.120826
H160	H	1.172906	0.667396	-0.555047
Cl161	Cl	1.193253	0.138626	0.138608
H162	H	0.735371	0.667410	-0.081515
Cl163	Cl	1.250202	-0.053341	0.180592
Cl164	Cl	0.343925	0.667364	-0.081466
Cl165	Cl	1.219963	0.667389	-0.691737
Cl166	Cl	0.462165	0.667386	-0.212751
H167	H	1.224810	0.667391	-0.253460
Cl168	Cl	0.559670	0.927285	-0.132221
H169	H	1.233868	0.667395	-0.375294
H170	H	1.510741	0.277564	-0.060126
Cl171	Cl	0.887678	0.407459	0.201890
H172	H	0.410683	1.057228	-0.280334
H173	H	1.713367	0.277521	0.089090
Cl174	Cl	1.461058	0.263390	0.531594
Cl175	Cl	1.698645	0.191376	0.510775
H176	H	0.444391	1.115162	-0.412853
