data_functionalizedCrystal
_audit_creation_method	'MofGen! by Chris Wilmer'
_symmetry_space_group_name_H-M	'P1'
_symmetry_Int_Tables_number	1
_symmetry_cell_setting	triclinic
loop_
_symmetry_equiv_pos_as_xyz
  x,y,z
_cell_length_a	21.295420
_cell_length_b	21.295412
_cell_length_c	21.295418
_cell_angle_alpha	90.026512
_cell_angle_beta	89.975831
_cell_angle_gamma	89.976453
loop_
_atom_site_label
_atom_site_type_symbol
_atom_site_fract_x
_atom_site_fract_y
_atom_site_fract_z
Zn1	Zn	0.962358	-0.355930	0.250696
Zn2	Zn	1.295691	-0.022597	0.584029
Zn3	Zn	1.629025	0.310737	0.917362
Zn4	Zn	0.962266	-0.250663	0.355964
Zn5	Zn	1.295600	0.082670	0.689297
Zn6	Zn	1.628933	0.416004	1.022631
Zn7	Zn	0.857083	-0.250675	0.250705
Zn8	Zn	1.190417	0.082658	0.584038
Zn9	Zn	1.523750	0.415992	0.917372
Zn10	Zn	0.857055	-0.355895	0.355923
Zn11	Zn	1.190388	-0.022561	0.689257
Zn12	Zn	1.523721	0.310772	1.022590
O13	O	0.909691	-0.303291	0.303322
O14	O	1.243024	0.030043	0.636655
O15	O	1.576357	0.363376	0.969989
O16	O	1.050435	-0.341976	0.264673
O17	O	1.383769	-0.008643	0.598006
O18	O	1.717102	0.324691	0.931340
O19	O	0.948287	-0.162575	0.342022
O20	O	1.281620	0.170758	0.675356
O21	O	1.614954	0.504091	1.008689
O22	O	0.871099	-0.264657	0.162614
O23	O	1.204432	0.068676	0.495948
O24	O	1.537765	0.402009	0.829281
O25	O	1.050368	-0.264637	0.342013
O26	O	1.383701	0.068697	0.675347
O27	O	1.717035	0.402030	1.008680
O28	O	0.948444	-0.341988	0.162608
O29	O	1.281777	-0.008654	0.495941
O30	O	1.615110	0.324679	0.829274
O31	O	0.871010	-0.162584	0.264689
O32	O	1.204343	0.170749	0.598022
O33	O	1.537676	0.504083	0.931356
O34	O	0.768990	-0.264623	0.264649
O35	O	1.102323	0.068710	0.597983
O36	O	1.435657	0.402044	0.931316
O37	O	0.871050	-0.443989	0.341944
O38	O	1.204383	-0.110656	0.675277
O39	O	1.537716	0.222678	1.008610
O40	O	0.768969	-0.341927	0.341953
O41	O	1.102302	-0.008594	0.675286
O42	O	1.435636	0.324739	1.008619
O43	O	0.948416	-0.444015	0.264633
O44	O	1.281749	-0.110682	0.597967
O45	O	1.615082	0.222652	0.931300
O46	O	0.948259	-0.264603	0.444048
O47	O	1.281593	0.068731	0.777381
O48	O	1.614926	0.402064	1.110715
O49	O	0.870961	-0.341916	0.444018
O50	O	1.204294	-0.008582	0.777351
O51	O	1.537627	0.324751	1.110685
C52	C	0.746139	-0.303273	0.303298
C53	C	1.079472	0.030060	0.636631
C54	C	1.412806	0.363394	0.969965
C55	C	0.676171	-0.303280	0.303303
C56	C	1.009504	0.030053	0.636636
C57	C	1.342838	0.363386	0.969969
C58	C	0.176747	-0.343636	0.263146
C59	C	0.510081	-0.010303	0.596479
C60	C	0.843414	0.323030	0.929813
C61	C	0.242490	-0.343636	0.263141
C62	C	0.575823	-0.010303	0.596475
C63	C	0.909157	0.323031	0.929808
C64	C	0.275331	-0.303305	0.303341
C65	C	0.608665	0.030028	0.636674
C66	C	0.941998	0.363361	0.970008
C67	C	0.242425	-0.262983	0.343560
C68	C	0.575758	0.070350	0.676894
C69	C	0.909092	0.403683	1.010227
C70	C	0.176684	-0.262989	0.343568
C71	C	0.510017	0.070344	0.676902
C72	C	0.843350	0.403678	1.010235
N73	N	0.378522	-0.248186	0.308085
N74	N	0.711856	0.085147	0.641419
N75	N	1.045189	0.418481	0.974752
N76	N	0.440974	-0.248183	0.308074
N77	N	0.774307	0.085151	0.641408
N78	N	1.107641	0.418484	0.974741
C79	C	0.473406	-0.303287	0.303320
C80	C	0.806739	0.030046	0.636654
C81	C	1.140073	0.363380	0.969987
N82	N	0.441028	-0.358396	0.298566
N83	N	0.774361	-0.025063	0.631899
N84	N	1.107694	0.308270	0.965233
N85	N	0.378570	-0.358399	0.298574
N86	N	0.711904	-0.025066	0.631907
N87	N	1.045237	0.308268	0.965241
C88	C	0.346617	-0.303295	0.303337
C89	C	0.679950	0.030038	0.636671
C90	C	1.013283	0.363372	0.970004
C91	C	0.577590	-0.343610	0.263102
C92	C	0.910923	-0.010276	0.596435
C93	C	1.244257	0.323057	0.929769
C94	C	0.643334	-0.343611	0.263102
C95	C	0.976667	-0.010277	0.596435
C96	C	1.310001	0.323056	0.929768
C97	C	0.643268	-0.262952	0.343517
C98	C	0.976601	0.070381	0.676851
C99	C	1.309934	0.403715	1.010184
C100	C	0.577525	-0.262957	0.343521
C101	C	0.910859	0.070377	0.676854
C102	C	1.244192	0.403710	1.010188
C103	C	0.544690	-0.303285	0.303310
C104	C	0.878024	0.030049	0.636643
C105	C	1.211357	0.363382	0.969977
C106	C	0.909740	-0.467481	0.303283
C107	C	1.243073	-0.134148	0.636616
C108	C	1.576407	0.199186	0.969950
C109	C	0.909761	-0.537449	0.303266
C110	C	1.243094	-0.204116	0.636600
C111	C	1.576428	0.129217	0.969933
C112	C	0.869533	-0.570311	0.262994
C113	C	1.202866	-0.236977	0.596327
C114	C	1.536200	0.096356	0.929661
C115	C	0.869531	-0.636053	0.262982
C116	C	1.202864	-0.302720	0.596316
C117	C	1.536198	0.030614	0.929649
C118	C	0.909768	-0.668932	0.303236
C119	C	1.243101	-0.335598	0.636569
C120	C	1.576434	-0.002265	0.969903
C121	C	0.949998	-0.636063	0.343516
C122	C	1.283331	-0.302729	0.676849
C123	C	1.616665	0.030604	1.010183
C124	C	0.949995	-0.570321	0.343531
C125	C	1.283328	-0.236988	0.676864
C126	C	1.616661	0.096345	1.010198
N127	N	0.964872	-0.772170	0.308048
N128	N	1.298206	-0.438837	0.641381
N129	N	1.631539	-0.105504	0.974714
N130	N	0.964874	-0.834622	0.308030
N131	N	1.298207	-0.501289	0.641363
N132	N	1.631540	-0.167955	0.974697
C133	C	0.909779	-0.867007	0.303194
C134	C	1.243113	-0.533673	0.636528
C135	C	1.576446	-0.200340	0.969861
N136	N	0.854682	-0.834581	0.298365
N137	N	1.188015	-0.501247	0.631698
N138	N	1.521349	-0.167914	0.965032
N139	N	0.854681	-0.772123	0.298380
N140	N	1.188015	-0.438790	0.631713
N141	N	1.521348	-0.105457	0.965046
C142	C	0.909775	-0.740217	0.303225
C143	C	1.243109	-0.406884	0.636558
C144	C	1.576442	-0.073551	0.969891
C145	C	0.869546	-0.971154	0.262907
C146	C	1.202879	-0.637820	0.596241
C147	C	1.536212	-0.304487	0.929574
C148	C	0.869542	-1.036897	0.262900
C149	C	1.202876	-0.703564	0.596233
C150	C	1.536209	-0.370231	0.929567
C151	C	0.950015	-1.036905	0.343430
C152	C	1.283349	-0.703572	0.676764
C153	C	1.616682	-0.370239	1.010097
C154	C	0.950013	-0.971163	0.343441
C155	C	1.283346	-0.637830	0.676774
C156	C	1.616680	-0.304496	1.010108
C157	C	0.909779	-0.938291	0.303176
C158	C	1.243112	-0.604958	0.636509
C159	C	1.576446	-0.271624	0.969843
C160	C	1.073881	-0.303309	0.303347
C161	C	1.407214	0.030024	0.636680
C162	C	1.740547	0.363358	0.970013
C163	C	1.143849	-0.303317	0.303357
C164	C	1.477182	0.030017	0.636690
C165	C	1.810516	0.363350	0.970024
C166	C	0.909614	-0.303268	0.466874
C167	C	1.242947	0.030066	0.800207
C168	C	1.576281	0.363399	1.133540
C169	C	0.909639	-0.303279	0.536842
C170	C	1.242972	0.030054	0.870175
C171	C	1.576306	0.363388	1.203508
C172	C	0.909678	-0.139739	0.303316
C173	C	1.243011	0.193594	0.636649
C174	C	1.576344	0.526927	0.969982
C175	C	0.909779	-0.069771	0.303155
C176	C	1.243112	0.263562	0.636488
C177	C	1.576445	0.596895	0.969822
C178	C	0.909785	-0.303328	0.139132
C179	C	1.243118	0.030006	0.472465
C180	C	1.576451	0.363339	0.805798
C181	C	0.909825	-0.303343	0.069164
C182	C	1.243158	0.029990	0.402497
C183	C	1.576491	0.363323	0.735830
C184	C	0.950043	-0.343637	1.036243
C185	C	1.283376	-0.010304	1.369576
C186	C	1.616709	0.323029	1.702910
C187	C	0.950024	-0.343627	0.970500
C188	C	1.283357	-0.010294	1.303834
C189	C	1.616691	0.323039	1.637167
C190	C	0.909776	-0.303330	0.937681
C191	C	1.243110	0.030003	1.271014
C192	C	1.576443	0.363337	1.604348
C193	C	0.869556	-0.263028	0.970610
C194	C	1.202889	0.070305	1.303943
C195	C	1.536222	0.403639	1.637276
C196	C	0.869580	-0.263035	1.036351
C197	C	1.202913	0.070299	1.369684
C198	C	1.536246	0.403632	1.703018
N199	N	0.854639	-0.298439	0.834507
N200	N	1.187972	0.034894	1.167841
N201	N	1.521306	0.368227	1.501174
N202	N	0.854618	-0.298437	0.772056
N203	N	1.187951	0.034897	1.105389
N204	N	1.521285	0.368230	1.438723
C205	C	0.909702	-0.303307	0.739606
C206	C	1.243036	0.030027	1.072940
C207	C	1.576369	0.363360	1.406273
N208	N	0.964810	-0.308192	0.771968
N209	N	1.298143	0.025142	1.105301
N210	N	1.631476	0.358475	1.438634
N211	N	0.964830	-0.308197	0.834425
N212	N	1.298163	0.025136	1.167758
N213	N	1.631497	0.358469	1.501091
C214	C	0.909746	-0.303318	0.866396
C215	C	1.243079	0.030015	1.199729
C216	C	1.576413	0.363349	1.533062
C217	C	0.949904	-0.343592	0.635400
C218	C	1.283237	-0.010259	0.968733
C219	C	1.616570	0.323075	1.302067
C220	C	0.949886	-0.343578	0.569656
C221	C	1.283220	-0.010244	0.902990
C222	C	1.616553	0.323089	1.236323
C223	C	0.869412	-0.262982	0.569767
C224	C	1.202746	0.070352	0.903100
C225	C	1.536079	0.403685	1.236434
C226	C	0.869435	-0.262993	0.635510
C227	C	1.202769	0.070341	0.968843
C228	C	1.536102	0.403674	1.302176
C229	C	0.909680	-0.303301	0.668322
C230	C	1.243013	0.030032	1.001655
C231	C	1.576347	0.363365	1.334989
H232	H	0.150017	-0.376477	0.230405
H233	H	0.483351	-0.043144	0.563739
H234	H	0.816684	0.290190	0.897072
H235	H	0.836784	-0.944388	0.230122
H236	H	1.170118	-0.611054	0.563455
H237	H	1.503451	-0.277721	0.896788
C238	C	0.860845	-1.110859	0.178219
C239	C	1.194178	-0.777526	0.511552
C240	C	1.527511	-0.444192	0.844885
C241	C	0.825317	-1.073027	0.218638
C242	C	1.158650	-0.739694	0.551971
C243	C	1.491983	-0.406360	0.885304
H244	H	0.833539	-1.133168	0.150898
H245	H	1.166872	-0.799835	0.484231
H246	H	1.500205	-0.466501	0.817565
H247	H	0.888277	-1.085232	0.154146
H248	H	1.221610	-0.751899	0.487479
H249	H	1.554943	-0.418566	0.820812
H250	H	0.884805	-1.139841	0.202203
H251	H	1.218139	-0.806508	0.535536
H252	H	1.551472	-0.473174	0.868869
H253	H	0.801359	-1.044042	0.194654
H254	H	1.134692	-0.710708	0.527987
H255	H	1.468026	-0.377375	0.861321
H256	H	0.797873	-1.098656	0.242713
H257	H	1.131207	-0.765322	0.576047
H258	H	1.464540	-0.431989	0.909380
H259	H	0.982640	-0.376388	0.542852
H260	H	1.315974	-0.043054	0.876185
H261	H	1.649307	0.290279	1.209518
C262	C	0.183223	-0.183261	0.423054
C263	C	0.516557	0.150072	0.756387
C264	C	0.849890	0.483405	1.089720
C265	C	0.140518	-0.218662	0.387767
C266	C	0.473851	0.114671	0.721101
C267	C	0.807184	0.448005	1.054434
H268	H	0.160894	-0.155893	0.450336
H269	H	0.494227	0.177441	0.783670
H270	H	0.827560	0.510774	1.117003
H271	H	0.208867	-0.210644	0.447165
H272	H	0.542200	0.122689	0.780499
H273	H	0.875534	0.456022	1.113832
H274	H	0.208865	-0.159230	0.395588
H275	H	0.542199	0.174103	0.728922
H276	H	0.875532	0.507436	1.062255
H277	H	0.114879	-0.242697	0.415233
H278	H	0.448212	0.090637	0.748566
H279	H	0.781546	0.423970	1.081899
H280	H	0.114863	-0.191275	0.363654
H281	H	0.448197	0.142058	0.696987
H282	H	0.781530	0.475391	1.030321
H283	H	0.836644	-0.230168	0.543046
H284	H	1.169978	0.103165	0.876380
H285	H	1.503311	0.436499	1.209713
C286	C	0.789992	-0.576911	0.183391
C287	C	1.123325	-0.243578	0.516724
C288	C	1.456659	0.089756	0.850058
C289	C	0.825303	-0.534179	0.218741
C290	C	1.158637	-0.200845	0.552074
C291	C	1.491970	0.132488	0.885407
H292	H	0.762684	-0.554602	0.156075
H293	H	1.096017	-0.221269	0.489408
H294	H	1.429351	0.112064	0.822741
H295	H	0.817435	-0.602565	0.159313
H296	H	1.150769	-0.269232	0.492646
H297	H	1.484102	0.064101	0.825979
H298	H	0.765900	-0.602540	0.210815
H299	H	1.099234	-0.269206	0.544148
H300	H	1.432567	0.064127	0.877481
H301	H	0.849399	-0.508553	0.191317
H302	H	1.182732	-0.175220	0.524650
H303	H	1.516065	0.158114	0.857984
H304	H	0.797857	-0.508513	0.242821
H305	H	1.131190	-0.175180	0.576154
H306	H	1.464523	0.158153	0.909488
C307	C	0.784869	-0.709964	0.254194
C308	C	1.118202	-0.376631	0.587527
C309	C	1.451536	-0.043297	0.920860
C310	C	0.825313	-0.672185	0.218709
C311	C	1.158647	-0.338852	0.552042
C312	C	1.491980	-0.005518	0.885376
H313	H	0.757571	-0.732266	0.226859
H314	H	1.090904	-0.398932	0.560193
H315	H	1.424237	-0.065599	0.893526
H316	H	0.808832	-0.738947	0.278164
H317	H	1.142165	-0.405613	0.611498
H318	H	1.475498	-0.072280	0.944831
H319	H	0.760768	-0.684298	0.281616
H320	H	1.094101	-0.350964	0.614949
H321	H	1.427435	-0.017631	0.948282
H322	H	0.849418	-0.697852	0.191290
H323	H	1.182751	-0.364519	0.524623
H324	H	1.516085	-0.031185	0.857957
H325	H	0.801348	-0.643199	0.194728
H326	H	1.134682	-0.309866	0.528061
H327	H	1.468015	0.023467	0.861394
H328	H	0.982818	-0.376455	1.062955
H329	H	1.316151	-0.043122	1.396288
H330	H	1.649485	0.290212	1.729621
C331	C	1.029552	-0.423314	0.976988
C332	C	1.362885	-0.089981	1.310321
C333	C	1.696218	0.243353	1.643654
C334	C	0.994226	-0.387931	0.934304
C335	C	1.327559	-0.054597	1.267637
C336	C	1.660893	0.278736	1.600970
H337	H	1.056835	-0.450669	0.954641
H338	H	1.390168	-0.117335	1.287975
H339	H	1.723501	0.215998	1.621308
H340	H	1.053665	-0.395919	1.002619
H341	H	1.386998	-0.062585	1.335953
H342	H	1.720332	0.270748	1.669286
H343	H	1.002111	-0.447359	1.002643
H344	H	1.335445	-0.114026	1.335976
H345	H	1.668778	0.219308	1.669310
H346	H	1.021666	-0.363882	0.908651
H347	H	1.355000	-0.030549	1.241984
H348	H	1.688333	0.302785	1.575318
H349	H	0.970111	-0.415329	0.908661
H350	H	1.303444	-0.081996	1.241994
H351	H	1.636777	0.251337	1.575328
H352	H	0.982759	-0.662837	0.376291
H353	H	1.316092	-0.329503	0.709624
H354	H	1.649426	0.003830	1.042958
C355	C	1.034699	-1.110851	0.352164
C356	C	1.368032	-0.777517	0.685497
C357	C	1.701366	-0.444184	1.018831
C358	C	0.994253	-1.073033	0.387676
C359	C	1.327586	-0.739699	0.721009
C360	C	1.660920	-0.406366	1.054342
H361	H	1.062013	-1.133151	0.379481
H362	H	1.395346	-0.799818	0.712815
H363	H	1.728680	-0.466485	1.046148
H364	H	1.010738	-1.139834	0.328189
H365	H	1.344072	-0.806501	0.661522
H366	H	1.677405	-0.473167	0.994856
H367	H	1.058783	-1.085211	0.324745
H368	H	1.392117	-0.751878	0.658078
H369	H	1.725450	-0.418544	0.991411
H370	H	0.970165	-1.098673	0.415092
H371	H	1.303498	-0.765340	0.748425
H372	H	1.636832	-0.432006	1.081758
H373	H	1.018216	-1.044046	0.411661
H374	H	1.351549	-0.710713	0.744994
H375	H	1.684883	-0.377379	1.078328
C376	C	0.235959	-0.423355	0.183645
C377	C	0.569292	-0.090022	0.516979
C378	C	0.902625	0.243311	0.850312
C379	C	0.278662	-0.387957	0.218937
C380	C	0.611995	-0.054624	0.552270
C381	C	0.945329	0.278710	0.885603
H382	H	0.258290	-0.450714	0.156354
H383	H	0.591623	-0.117380	0.489687
H384	H	0.924956	0.215953	0.823020
H385	H	0.210323	-0.447391	0.211103
H386	H	0.543656	-0.114058	0.544436
H387	H	0.876989	0.219275	0.877769
H388	H	0.210309	-0.395965	0.159537
H389	H	0.543642	-0.062632	0.492871
H390	H	0.876975	0.270701	0.826204
H391	H	0.304309	-0.415347	0.243048
H392	H	0.637642	-0.082013	0.576382
H393	H	0.970976	0.251320	0.909715
H394	H	0.304309	-0.363919	0.191476
H395	H	0.637642	-0.030586	0.524809
H396	H	0.970975	0.302748	0.858142
C397	C	0.343173	-0.227155	0.379246
C398	C	0.676507	0.106179	0.712579
C399	C	1.009840	0.439512	1.045912
C400	C	0.278522	-0.218649	0.387747
C401	C	0.611855	0.114685	0.721080
C402	C	0.945189	0.448018	1.054414
H403	H	0.365456	-0.199782	0.406525
H404	H	0.698790	0.133552	0.739859
H405	H	1.032123	0.466885	1.073192
H406	H	0.353964	-0.269428	0.388512
H407	H	0.687297	0.063906	0.721845
H408	H	1.020630	0.397239	1.055178
H409	H	0.353947	-0.218013	0.336935
H410	H	0.687280	0.115321	0.670269
H411	H	1.020614	0.448654	1.003602
H412	H	0.267748	-0.227795	0.430057
H413	H	0.601081	0.105538	0.763390
H414	H	0.934414	0.438871	1.096723
H415	H	0.267728	-0.176366	0.378486
H416	H	0.601061	0.156967	0.711819
H417	H	0.934394	0.490300	1.045152
H418	H	0.550739	-0.230122	0.376263
H419	H	0.884072	0.103212	0.709596
H420	H	1.217406	0.436545	1.042929
H421	H	0.550855	-0.376447	0.230360
H422	H	0.884188	-0.043114	0.563693
H423	H	1.217521	0.290220	0.897026
H424	H	0.836786	-0.230216	0.943885
H425	H	1.170120	0.103117	1.277218
H426	H	1.503453	0.436450	1.610552
H427	H	0.670119	-0.376448	0.230359
H428	H	1.003452	-0.043115	0.563692
H429	H	1.336785	0.290219	0.897025
C430	C	0.744011	-0.227129	0.379211
C431	C	1.077345	0.106204	0.712544
C432	C	1.410678	0.439537	1.045878
C433	C	0.679360	-0.218620	0.387708
C434	C	1.012693	0.114713	0.721041
C435	C	1.346026	0.448047	1.054375
H436	H	0.766294	-0.199758	0.406493
H437	H	1.099627	0.133575	0.739826
H438	H	1.432960	0.466908	1.073159
H439	H	0.754798	-0.269403	0.388477
H440	H	1.088132	0.063930	0.721810
H441	H	1.421465	0.397264	1.055144
H442	H	0.754789	-0.217987	0.336902
H443	H	1.088122	0.115346	0.670235
H444	H	1.421455	0.448679	1.003568
H445	H	0.668582	-0.227767	0.430016
H446	H	1.001915	0.105566	0.763350
H447	H	1.335248	0.438900	1.096683
H448	H	0.668568	-0.176337	0.378446
H449	H	1.001902	0.156997	0.711780
H450	H	1.335235	0.490330	1.045113
C451	C	0.833735	-0.227226	0.736334
C452	C	1.167069	0.106108	1.069668
C453	C	1.500402	0.439441	1.403001
C454	C	0.825216	-0.218709	0.671701
C455	C	1.158550	0.114624	1.005035
C456	C	1.491883	0.447957	1.338368
H457	H	0.806437	-0.199883	0.758676
H458	H	1.139770	0.133451	1.092010
H459	H	1.473104	0.466784	1.425343
H460	H	0.824506	-0.269510	0.747085
H461	H	1.157839	0.063824	1.080418
H462	H	1.491173	0.397157	1.413752
H463	H	0.876040	-0.218050	0.747076
H464	H	1.209373	0.115284	1.080409
H465	H	1.542707	0.448617	1.413743
H466	H	0.782913	-0.227890	0.660959
H467	H	1.116246	0.105443	0.994292
H468	H	1.449579	0.438777	1.327626
H469	H	0.834441	-0.176416	0.660946
H470	H	1.167775	0.156918	0.994280
H471	H	1.501108	0.490251	1.327613
C472	C	0.790032	-0.183370	1.029856
C473	C	1.123365	0.149963	1.363189
C474	C	1.456699	0.483297	1.696522
C475	C	0.825364	-0.218745	1.072542
C476	C	1.158697	0.114588	1.405875
C477	C	1.492030	0.447922	1.739208
H478	H	0.762732	-0.156032	1.052200
H479	H	1.096065	0.177302	1.385534
H480	H	1.429398	0.510635	1.718867
H481	H	0.817463	-0.159314	1.004211
H482	H	1.150796	0.174019	1.337544
H483	H	1.484130	0.507353	1.670877
H484	H	0.765931	-0.210776	1.004213
H485	H	1.099264	0.122557	1.337547
H486	H	1.432598	0.455891	1.670880
H487	H	0.849468	-0.191339	1.098181
H488	H	1.182802	0.141994	1.431514
H489	H	1.516135	0.475328	1.764848
H490	H	0.797929	-0.242803	1.098197
H491	H	1.131263	0.090530	1.431531
H492	H	1.464596	0.423864	1.764864
H493	H	0.982756	-0.543566	0.376325
H494	H	1.316089	-0.210233	0.709658
H495	H	1.649422	0.123101	1.042991
C496	C	0.980502	-0.450221	0.655557
C497	C	1.313835	-0.116887	0.988890
C498	C	1.647169	0.216446	1.322223
C499	C	0.994136	-0.387898	0.671478
C500	C	1.327469	-0.054564	1.004811
C501	C	1.660802	0.278769	1.338144
H502	H	1.007809	-0.477573	0.677828
H503	H	1.341143	-0.144240	1.011161
H504	H	1.674476	0.189094	1.344494
H505	H	0.938208	-0.459382	0.666353
H506	H	1.271541	-0.126049	0.999686
H507	H	1.604874	0.207284	1.333020
H508	H	0.986254	-0.455974	0.611691
H509	H	1.319588	-0.122641	0.945025
H510	H	1.652921	0.210692	1.278358
H511	H	0.988379	-0.382143	0.715342
H512	H	1.321712	-0.048809	1.048676
H513	H	1.655046	0.284524	1.382009
H514	H	1.036440	-0.378733	0.660686
H515	H	1.369774	-0.045399	0.994019
H516	H	1.703107	0.287934	1.327352
C517	C	1.029562	-0.977777	0.423030
C518	C	1.362895	-0.644443	0.756364
C519	C	1.696228	-0.311110	1.089697
C520	C	0.994242	-0.935038	0.387702
C521	C	1.327575	-0.601704	0.721035
C522	C	1.660908	-0.268371	1.054368
H523	H	1.056869	-0.955473	0.450353
H524	H	1.390203	-0.622140	0.783687
H525	H	1.723536	-0.288806	1.117020
H526	H	1.002123	-1.003399	0.447101
H527	H	1.335457	-0.670066	0.780434
H528	H	1.668790	-0.336733	1.113767
H529	H	1.053654	-1.003436	0.395594
H530	H	1.386987	-0.670103	0.728927
H531	H	1.720320	-0.336770	1.062261
H532	H	0.970146	-0.909381	0.415138
H533	H	1.303479	-0.576048	0.748471
H534	H	1.636812	-0.242714	1.081805
H535	H	1.021683	-0.909404	0.363629
H536	H	1.355016	-0.576071	0.696963
H537	H	1.688350	-0.242737	1.030296
