data_functionalizedCrystal
_audit_creation_method	'MofGen! by Chris Wilmer'
_symmetry_space_group_name_H-M	'P1'
_symmetry_Int_Tables_number	1
_symmetry_cell_setting	triclinic
loop_
_symmetry_equiv_pos_as_xyz
  x,y,z
_cell_length_a	14.853566
_cell_length_b	23.532407
_cell_length_c	13.930277
_cell_angle_alpha	89.999972
_cell_angle_beta	89.996241
_cell_angle_gamma	83.241546
loop_
_atom_site_label
_atom_site_type_symbol
_atom_site_fract_x
_atom_site_fract_y
_atom_site_fract_z
O1	O	1.195556	0.074342	-0.079778
O2	O	1.695556	0.574342	0.420222
O3	O	0.933000	0.083200	-0.079795
O4	O	1.433000	0.583200	0.420205
O5	O	1.072196	-0.004127	-0.079768
O6	O	1.572196	0.495873	0.420232
O7	O	1.056361	0.161668	-0.079804
O8	O	1.556361	0.661668	0.420196
O9	O	1.072175	-0.004113	0.079894
O10	O	1.572175	0.495887	0.579894
O11	O	0.932980	0.083213	0.079867
O12	O	1.432980	0.583213	0.579867
O13	O	1.195536	0.074355	0.079884
O14	O	1.695536	0.574355	0.579884
Zn15	Zn	1.064255	0.078786	0.105225
Zn16	Zn	1.564255	0.578786	0.605225
Zn17	Zn	1.064281	0.078769	-0.105136
Zn18	Zn	1.564281	0.578769	0.394864
O19	O	1.056340	0.161681	0.079858
O20	O	1.556340	0.661681	0.579858
C21	C	0.899405	0.082805	0.000034
C22	C	1.399405	0.582805	0.500034
C23	C	0.799335	0.081603	0.000029
C24	C	1.299335	0.581603	0.500029
C25	C	0.376217	0.076510	-0.086985
C26	C	0.876217	0.576510	0.413015
C27	C	0.376216	0.076525	0.087084
C28	C	0.876216	0.576525	0.587084
C29	C	0.470237	0.077654	0.087081
C30	C	0.970237	0.577654	0.587081
C31	C	0.517253	0.078212	0.000044
C32	C	1.017253	0.578212	0.500044
C33	C	0.470247	0.077641	-0.086991
C34	C	0.970247	0.577641	0.413009
C35	C	0.517250	0.078231	0.174114
C36	C	1.017250	0.578231	0.674114
C37	C	0.611277	0.079361	0.174114
C38	C	1.111277	0.579361	0.674114
C39	C	0.658295	0.079915	0.087076
C40	C	1.158295	0.579915	0.587076
C41	C	0.611283	0.079343	0.000038
C42	C	1.111283	0.579343	0.500038
C43	C	0.658299	0.079901	-0.087000
C44	C	1.158299	0.579901	0.413000
C45	C	0.611289	0.079325	-0.174039
C46	C	1.111289	0.579325	0.325961
C47	C	0.517265	0.078195	-0.174030
C48	C	1.017265	0.578195	0.325970
C49	C	0.752319	0.081045	0.087066
C50	C	1.252319	0.581045	0.587066
C51	C	0.752329	0.081032	-0.087006
C52	C	1.252329	0.581032	0.412994
C53	C	1.071782	-0.025338	0.000065
C54	C	1.571782	0.474662	0.500065
C55	C	1.070570	-0.088560	0.000073
C56	C	1.570570	0.411440	0.500073
C57	C	1.145339	-0.487337	0.000025
C58	C	1.645339	0.012663	0.500025
C59	C	1.144213	-0.546742	0.000017
C60	C	1.644213	-0.046742	0.500017
O61	O	1.213524	-0.583184	-0.000013
O62	O	1.713524	-0.083184	0.499987
N63	N	1.061461	-0.569729	0.000013
N64	N	1.561461	-0.069729	0.500013
C65	C	0.979830	-0.533308	0.000006
C66	C	1.479830	-0.033308	0.500006
O67	O	0.909340	-0.558315	0.000000
O68	O	1.409340	-0.058315	0.500000
C69	C	0.980957	-0.473904	0.000006
C70	C	1.480957	0.026096	0.500006
C71	C	1.063714	-0.450920	0.000021
C72	C	1.563714	0.049080	0.500021
C73	C	1.228089	-0.464353	0.000038
C74	C	1.728089	0.035647	0.500038
C75	C	1.229215	-0.404952	0.000047
C76	C	1.729215	0.095048	0.500047
C77	C	1.147591	-0.368535	0.000043
C78	C	1.647591	0.131465	0.500043
C79	C	1.064840	-0.391519	0.000030
C80	C	1.564840	0.108481	0.500030
C81	C	0.899327	-0.437483	-0.000008
C82	C	1.399327	0.062517	0.499992
C83	C	0.900462	-0.378076	-0.000008
C84	C	1.400462	0.121924	0.499992
C85	C	0.983219	-0.355092	0.000006
C86	C	1.483219	0.144908	0.500006
C87	C	0.984341	-0.295701	0.000035
C88	C	1.484341	0.204299	0.500035
N89	N	1.067093	-0.272714	0.000039
N90	N	1.567093	0.227286	0.500039
C91	C	1.148718	-0.309131	0.000044
C92	C	1.648718	0.190869	0.500044
C93	C	0.977469	-0.658060	0.000003
C94	C	1.477469	-0.158060	0.500003
C95	C	0.976341	-0.717463	0.000009
C96	C	1.476341	-0.217463	0.500009
C97	C	1.140724	-0.730894	0.000019
C98	C	1.640724	-0.230894	0.500019
C99	C	1.141851	-0.671490	0.000020
C100	C	1.641851	-0.171490	0.500020
C101	C	1.060221	-0.635073	0.000008
C102	C	1.560221	-0.135073	0.500008
C103	C	1.151076	-0.184384	0.000064
C104	C	1.651076	0.315616	0.500064
C105	C	1.152194	-0.124977	0.000077
C106	C	1.652194	0.375023	0.500077
C107	C	0.987812	-0.111552	0.000062
C108	C	1.487812	0.388448	0.500062
C109	C	0.986693	-0.170953	0.000054
C110	C	1.486693	0.329047	0.500054
C111	C	1.068332	-0.207369	0.000051
C112	C	1.568332	0.292631	0.500051
O113	O	0.915066	-0.259224	0.000062
O114	O	1.415066	0.240776	0.500062
O115	O	1.219196	-0.284115	0.000037
O116	O	1.719196	0.215885	0.500037
C117	C	1.229131	0.074750	0.000053
C118	C	1.729131	0.574750	0.500053
C119	C	1.329201	0.075952	0.000053
C120	C	1.829201	0.575952	0.500053
C121	C	1.056754	0.182892	0.000022
C122	C	1.556754	0.682892	0.500022
C123	C	1.057966	0.246115	0.000009
C124	C	1.557966	0.746115	0.500009
N125	N	1.064243	0.078798	0.248792
N126	N	1.564243	0.578798	0.748792
N127	N	1.064300	0.078752	-0.248702
N128	N	1.564300	0.578752	0.251298
C129	C	1.118659	0.113362	0.701047
C130	C	1.618659	0.613362	1.201047
C131	C	1.009932	0.044152	0.701045
C132	C	1.509932	0.544152	1.201045
C133	C	1.009918	0.044161	0.600549
C134	C	1.509918	0.544161	1.100549
C135	C	1.064277	0.078771	0.550297
C136	C	1.564277	0.578771	1.050297
C137	C	1.118649	0.113371	0.600541
C138	C	1.618649	0.613371	1.100541
C139	C	0.955554	0.009557	0.550297
C140	C	1.455554	0.509557	1.050297
C141	C	0.955539	0.009565	0.449795
C142	C	1.455539	0.509565	0.949795
C143	C	1.009893	0.044177	0.399542
C144	C	1.509893	0.544177	0.899542
C145	C	1.064267	0.078780	0.449792
C146	C	1.564267	0.578780	0.949792
C147	C	1.118625	0.113389	0.399541
C148	C	1.618625	0.613389	0.899541
C149	C	1.172994	0.147995	0.449789
C150	C	1.672994	0.647995	0.949789
C151	C	1.173003	0.147984	0.550288
C152	C	1.673003	0.647984	1.050288
C153	C	1.009884	0.044188	0.299043
C154	C	1.509884	0.544188	0.799043
C155	C	1.118615	0.113398	0.299036
C156	C	1.618615	0.613398	0.799036
H157	H	0.337929	0.076074	0.157946
H158	H	0.837929	0.576074	0.657946
F159	F	0.802360	0.081621	-0.179646
F160	F	1.302360	0.581621	0.320354
H161	H	0.911267	-0.018613	0.408891
H162	H	1.411267	0.481387	0.908891
F163	F	0.952086	0.007319	0.754528
F164	F	1.452086	0.507319	1.254528
H165	H	0.478962	0.077780	0.244975
H166	H	0.978962	0.577780	0.744975
F167	F	0.326190	0.075883	-0.179614
F168	F	0.826190	0.575883	0.320386
H169	H	0.649544	0.079828	0.244987
H170	H	1.149544	0.579828	0.744987
F171	F	1.230860	0.184811	0.603772
F172	F	1.730860	0.684811	1.103772
H173	H	0.649581	0.079783	-0.244905
H174	H	1.149581	0.579783	0.255095
F175	F	1.176514	0.150193	0.754524
F176	F	1.676514	0.650193	1.254524
H177	H	1.217555	-0.214027	0.000058
H178	H	1.717555	0.285973	0.500058
H179	H	0.790589	0.081519	0.157932
H180	H	1.290589	0.581519	0.657932
F181	F	0.897706	-0.027274	0.603783
F182	F	1.397706	0.472726	1.103783
F183	F	0.467232	0.077564	-0.266654
F184	F	0.967232	0.577564	0.233346
H185	H	1.219588	-0.106267	0.000091
H186	H	1.719588	0.393733	0.500091
F187	F	1.317297	-0.380499	0.000042
F188	F	1.817297	0.119501	0.500042
F189	F	1.314974	-0.503102	0.000042
F190	F	1.814974	-0.003102	0.500042
H191	H	0.965620	0.016011	0.258135
H192	H	1.465620	0.516011	0.758135
H193	H	1.209239	-0.652781	0.000031
H194	H	1.709239	-0.152781	0.500031
H195	H	1.207187	-0.760555	0.000019
H196	H	1.707187	-0.260555	0.500019
F197	F	0.888260	-0.741917	0.000011
F198	F	1.388260	-0.241917	0.500011
H199	H	0.919305	-0.189667	0.000069
H200	H	1.419305	0.310333	0.500069
F201	F	0.890581	-0.619308	-0.000001
F202	F	1.390581	-0.119308	0.499999
H203	H	0.831938	-0.456186	-0.000025
H204	H	1.331938	0.043814	0.499975
F205	F	0.813577	-0.339322	-0.000023
F206	F	1.313577	0.160678	0.499977
F207	F	1.176467	0.150238	0.245562
F208	F	1.676467	0.650238	0.745562
H209	H	0.921355	-0.081891	0.000062
H210	H	1.421355	0.418109	0.500062
F211	F	1.230850	0.184824	0.396296
F212	F	1.730850	0.684824	0.896296
