data_functionalizedCrystal
_audit_creation_method	'MofGen! by Chris Wilmer'
_symmetry_space_group_name_H-M	'P1'
_symmetry_Int_Tables_number	1
_symmetry_cell_setting	triclinic
loop_
_symmetry_equiv_pos_as_xyz
  x,y,z
_cell_length_a	12.759401
_cell_length_b	12.759393
_cell_length_c	12.759400
_cell_angle_alpha	90.031564
_cell_angle_beta	89.982372
_cell_angle_gamma	89.982105
loop_
_atom_site_label
_atom_site_type_symbol
_atom_site_fract_x
_atom_site_fract_y
_atom_site_fract_z
Zn1	Zn	1.606256	-0.593965	0.418122
Zn2	Zn	1.606150	-0.418285	0.593841
Zn3	Zn	1.430557	-0.418306	0.418185
Zn4	Zn	1.430546	-0.593928	0.593768
O5	O	1.518377	-0.506121	0.505979
O6	O	1.753263	-0.570667	0.441435
O7	O	1.582818	-0.271266	0.570597
O8	O	1.453913	-0.441631	0.271156
O9	O	1.753185	-0.441595	0.570535
O10	O	1.582998	-0.570687	0.271109
O11	O	1.453811	-0.271282	0.441543
O12	O	1.283535	-0.441596	0.441473
O13	O	1.453894	-0.740954	0.570412
O14	O	1.283527	-0.570625	0.570473
O15	O	1.582987	-0.740981	0.441365
O16	O	1.582807	-0.441560	0.740852
O17	O	1.453791	-0.570604	0.740799
C18	C	1.245410	-0.506109	0.505973
C19	C	1.128633	-0.506129	0.505996
C20	C	1.518451	-0.780154	0.505873
C21	C	1.518482	-0.896931	0.505828
C22	C	1.518315	-0.506099	0.778946
C23	C	1.518384	-0.506125	0.895723
C24	C	1.792411	-0.506133	0.505986
C25	C	1.909187	-0.506138	0.505989
C26	C	1.964091	-0.573332	0.438773
C27	C	2.073815	-0.573331	0.438778
C28	C	2.073721	-0.438932	0.573219
C29	C	1.963999	-0.438940	0.573218
C30	C	1.964146	-0.650923	0.361151
C31	C	2.073870	-0.650922	0.361156
C32	C	1.585710	-0.951809	0.438627
C33	C	1.585735	-1.061533	0.438589
C34	C	1.451301	-1.061492	0.572962
C35	C	1.451272	-0.951770	0.572994
C36	C	1.663328	-0.951833	0.361051
C37	C	1.663353	-1.061557	0.361013
C38	C	1.518364	-0.233153	0.506009
C39	C	1.518537	-0.116377	0.505758
C40	C	1.518468	-0.506166	0.231946
C41	C	1.518507	-0.506185	0.115169
C42	C	1.585637	-0.439005	0.950578
C43	C	1.585702	-0.439038	1.060302
C44	C	1.451252	-0.573311	1.060307
C45	C	1.451193	-0.573284	0.950585
C46	C	1.663258	-0.361480	0.950576
C47	C	1.663322	-0.361513	1.060300
H48	H	1.919301	-0.384233	0.627961
Br49	Br	1.360071	-0.664454	1.134768
Br50	Br	2.148116	-0.347741	0.664457
Br51	Br	1.907435	-0.602365	0.232348
Br52	Br	1.627048	-0.902228	0.225445
Br53	Br	1.360089	-1.135922	0.664109
H54	H	1.934394	-0.732293	0.382906
H55	H	2.107920	-0.728214	0.390270
Br56	Br	1.792152	-0.410222	1.116882
Br57	Br	1.360009	-0.877295	0.664178
Br58	Br	1.359938	-0.664398	0.876141
Br59	Br	1.798974	-1.111199	0.397308
Br60	Br	2.123545	-0.614610	0.225557
Br61	Br	1.792116	-0.895092	0.409657
H62	H	1.744601	-0.383331	0.920714
Br63	Br	1.614657	-1.118318	0.232232
Br64	Br	1.614685	-0.232614	0.893986
H65	H	1.641585	-0.280132	1.090163
