data_functionalizedCrystal
_audit_creation_method	'MofGen! by Chris Wilmer'
_symmetry_space_group_name_H-M	'P1'
_symmetry_Int_Tables_number	1
_symmetry_cell_setting	triclinic
loop_
_symmetry_equiv_pos_as_xyz
  x,y,z
_cell_length_a	19.288864
_cell_length_b	14.853567
_cell_length_c	18.366186
_cell_angle_alpha	89.997562
_cell_angle_beta	89.977106
_cell_angle_gamma	83.385589
loop_
_atom_site_label
_atom_site_type_symbol
_atom_site_fract_x
_atom_site_fract_y
_atom_site_fract_z
O1	O	0.921732	0.112464	-0.060777
O2	O	1.255066	0.445798	0.272556
O3	O	1.588399	0.779131	0.605889
O4	O	0.719523	0.127635	-0.060727
O5	O	1.052856	0.460969	0.272607
O6	O	1.386190	0.794302	0.605940
O7	O	0.826029	-0.011211	-0.060755
O8	O	1.159362	0.322123	0.272578
O9	O	1.492696	0.655456	0.605911
O10	O	0.815226	0.251310	-0.060748
O11	O	1.148560	0.584644	0.272585
O12	O	1.481893	0.917977	0.605918
O13	O	0.826011	-0.011217	0.060344
O14	O	1.159344	0.322116	0.393677
O15	O	1.492678	0.655449	0.727011
O16	O	0.719505	0.127629	0.060373
O17	O	1.052838	0.460962	0.393706
O18	O	1.386171	0.794295	0.727039
O19	O	0.921714	0.112457	0.060322
O20	O	1.255048	0.445791	0.393655
O21	O	1.588381	0.779124	0.726989
Zn22	Zn	0.820607	0.120042	0.079575
Zn23	Zn	1.153940	0.453375	0.412908
Zn24	Zn	1.487273	0.786709	0.746241
Zn25	Zn	0.820631	0.120051	-0.079979
Zn26	Zn	1.153964	0.453384	0.253354
Zn27	Zn	1.487297	0.786718	0.586688
O28	O	0.815208	0.251304	0.060351
O29	O	1.148542	0.584637	0.393684
O30	O	1.481875	0.917970	0.727018
C31	C	0.693636	0.127144	-0.000171
C32	C	1.026969	0.460477	0.333163
C33	C	1.360302	0.793811	0.666496
C34	C	0.616527	0.125679	-0.000152
C35	C	0.949861	0.459012	0.333182
C36	C	1.283194	0.792345	0.666515
C37	C	0.572106	0.207147	-0.000161
C38	C	0.905439	0.540480	0.333173
C39	C	1.238773	0.873814	0.666506
C40	C	0.499654	0.205770	-0.000169
C41	C	0.832988	0.539104	0.333164
C42	C	1.166321	0.872437	0.666498
C43	C	0.471627	0.122920	-0.000182
C44	C	0.804960	0.456254	0.333151
C45	C	1.138294	0.789587	0.666484
C46	C	0.516058	0.041441	-0.000169
C47	C	0.849391	0.374775	0.333164
C48	C	1.182725	0.708108	0.666498
C49	C	0.588508	0.042820	-0.000154
C50	C	0.921842	0.376154	0.333180
C51	C	1.255175	0.709487	0.666513
C52	C	0.363152	0.057794	-0.042635
C53	C	0.696485	0.391127	0.290698
C54	C	1.029818	0.724460	0.624032
C55	C	0.290702	0.056418	-0.042655
C56	C	0.624036	0.389751	0.290678
C57	C	0.957369	0.723085	0.624012
C58	C	0.248167	0.118664	-0.000227
C59	C	0.581500	0.451997	0.333107
C60	C	0.914834	0.785330	0.666440
C61	C	0.278088	0.182300	0.042212
C62	C	0.611422	0.515634	0.375546
C63	C	0.944755	0.848967	0.708879
C64	C	0.350538	0.183679	0.042228
C65	C	0.683872	0.517013	0.375561
C66	C	1.017205	0.850346	0.708894
C67	C	0.393068	0.121416	-0.000199
C68	C	0.726401	0.454749	0.333135
C69	C	1.059735	0.788083	0.666468
C70	C	0.125185	0.198645	-0.000243
C71	C	0.458518	0.531978	0.333090
C72	C	0.791851	0.865312	0.666423
C73	C	0.052732	0.197265	-0.000247
C74	C	0.386065	0.530598	0.333086
C75	C	0.719399	0.863932	0.666420
C76	C	0.069138	0.032933	-0.000254
C77	C	0.402471	0.366267	0.333079
C78	C	0.735804	0.699600	0.666412
C79	C	0.141589	0.034316	-0.000244
C80	C	0.474922	0.367649	0.333090
C81	C	0.808255	0.700983	0.666423
C82	C	0.169608	0.117174	-0.000242
C83	C	0.502941	0.450508	0.333092
C84	C	0.836274	0.783841	0.666425
C85	C	0.825530	-0.044800	-0.000208
C86	C	1.158864	0.288533	0.333126
C87	C	1.492197	0.621867	0.666459
C88	C	0.824064	-0.144875	-0.000214
C89	C	1.157397	0.188458	0.333120
C90	C	1.490730	0.521791	0.666453
C91	C	0.754596	-0.557014	-0.000182
C92	C	1.087930	-0.223681	0.333151
C93	C	1.421263	0.109653	0.666484
C94	C	0.881128	-0.579015	-0.000214
C95	C	1.214461	-0.245681	0.333119
C96	C	1.547795	0.087652	0.666452
C97	C	0.882507	-0.484989	-0.000219
C98	C	1.215840	-0.151655	0.333114
C99	C	1.549174	0.181678	0.666448
C100	C	0.819930	-0.426971	-0.000204
C101	C	1.153263	-0.093638	0.333129
C102	C	1.486597	0.239696	0.666462
C103	C	0.755974	-0.462979	-0.000185
C104	C	1.089307	-0.129646	0.333148
C105	C	1.422640	0.203687	0.666482
C106	C	0.946462	-0.448973	-0.000231
C107	C	1.279796	-0.115640	0.333103
C108	C	1.613129	0.217693	0.666436
C109	C	0.947844	-0.354942	-0.000235
C110	C	1.281177	-0.021609	0.333099
C111	C	1.614511	0.311725	0.666432
C112	C	0.885266	-0.296923	-0.000225
C113	C	1.218599	0.036411	0.333108
C114	C	1.551933	0.369744	0.666442
C115	C	0.821307	-0.332936	-0.000207
C116	C	1.154641	0.000397	0.333127
C117	C	1.487974	0.333731	0.666460
C118	C	0.758730	-0.274918	-0.000192
C119	C	1.092063	0.058415	0.333141
C120	C	1.425397	0.391748	0.666475
C121	C	0.694770	-0.310930	-0.000179
C122	C	1.028104	0.022403	0.333155
C123	C	1.361437	0.355737	0.666488
C124	C	0.693396	-0.404960	-0.000176
C125	C	1.026729	-0.071626	0.333158
C126	C	1.360062	0.261707	0.666491
C127	C	0.886641	-0.202893	-0.000228
C128	C	1.219974	0.130440	0.333105
C129	C	1.553307	0.463774	0.666438
C130	C	0.760107	-0.180883	-0.000194
C131	C	1.093441	0.152450	0.333139
C132	C	1.426774	0.485783	0.666472
C133	C	0.947601	0.112949	-0.000236
C134	C	1.280935	0.446282	0.333098
C135	C	1.614268	0.779616	0.666431
C136	C	1.024710	0.114414	-0.000259
C137	C	1.358043	0.447748	0.333074
C138	C	1.691377	0.781081	0.666407
C139	C	0.815707	0.284893	-0.000198
C140	C	1.149040	0.618226	0.333135
C141	C	1.482373	0.951559	0.666468
C142	C	0.817174	0.384968	-0.000197
C143	C	1.150507	0.718302	0.333136
C144	C	1.483840	1.051635	0.666470
N145	N	0.820595	0.120035	0.188466
N146	N	1.153929	0.453369	0.521799
N147	N	1.487262	0.786702	0.855132
N148	N	0.820647	0.120050	-0.188870
N149	N	1.153981	0.453384	0.144463
N150	N	1.487314	0.786717	0.477796
C151	C	0.867772	0.058584	0.226553
C152	C	1.201105	0.391918	0.559887
C153	C	1.534438	0.725251	0.893220
C154	C	0.867776	0.058580	0.302781
C155	C	1.201110	0.391914	0.636115
C156	C	1.534443	0.725247	0.969448
C157	C	0.820611	0.120043	0.340918
C158	C	1.153944	0.453376	0.674252
C159	C	1.487277	0.786709	1.007585
C160	C	0.773426	0.181498	0.302822
C161	C	1.106759	0.514832	0.636155
C162	C	1.440092	0.848165	0.969488
C163	C	0.773418	0.181495	0.226595
C164	C	1.106751	0.514828	0.559929
C165	C	1.440084	0.848161	0.893262
C166	C	0.811590	0.202186	0.461682
C167	C	1.144923	0.535520	0.795016
C168	C	1.478257	0.868853	1.128349
C169	C	0.811602	0.202191	0.537907
C170	C	1.144936	0.535524	0.871241
C171	C	1.478269	0.868858	1.204574
C172	C	0.820631	0.120054	0.576026
C173	C	1.153964	0.453387	0.909359
C174	C	1.487297	0.786721	1.242693
C175	C	0.829661	0.037908	0.537910
C176	C	1.162994	0.371242	0.871244
C177	C	1.496328	0.704575	1.204577
C178	C	0.829653	0.037905	0.461684
C179	C	1.162987	0.371238	0.795017
C180	C	1.496320	0.704571	1.128351
C181	C	0.820614	0.120053	0.423573
C182	C	1.153947	0.453387	0.756907
C183	C	1.487280	0.786720	1.090240
C184	C	0.867814	0.058594	0.696769
C185	C	1.201148	0.391927	1.030102
C186	C	1.534481	0.725260	1.363435
C187	C	0.867814	0.058588	0.772998
C188	C	1.201147	0.391922	1.106331
C189	C	1.534481	0.725255	1.439664
C190	C	0.773467	0.181514	0.773037
C191	C	1.106800	0.514848	1.106370
C192	C	1.440133	0.848181	1.439703
C193	C	0.773464	0.181512	0.696809
C194	C	1.106797	0.514845	1.030142
C195	C	1.440130	0.848178	1.363476
C196	C	0.820641	0.120052	0.658679
C197	C	1.153975	0.453386	0.992013
C198	C	1.487308	0.786719	1.325346
H199	H	0.147999	0.266113	-0.000231
H200	H	0.481332	0.599447	0.333102
H201	H	0.814666	0.932780	0.666436
H202	H	0.643820	-0.263680	-0.000162
H203	H	0.977154	0.069653	0.333172
H204	H	1.310487	0.402987	0.666505
H205	H	0.374897	0.235492	0.076785
H206	H	0.708231	0.568825	0.410119
H207	H	1.041564	0.902158	0.743452
H208	H	0.938716	-0.173576	-0.000234
H209	H	1.272049	0.159757	0.333099
H210	H	1.605382	0.493090	0.666432
H211	H	0.932075	-0.626258	-0.000220
H212	H	1.265409	-0.292924	0.333113
H213	H	1.598742	0.040409	0.666446
F214	F	0.917991	-0.006828	0.343323
F215	F	1.251324	0.326506	0.676657
F216	F	1.584657	0.659839	1.009990
H217	H	0.594914	0.274617	-0.000161
H218	H	0.928247	0.607950	0.333173
H219	H	1.261581	0.941283	0.666506
H220	H	0.709148	-0.133651	-0.000186
H221	H	1.042482	0.199683	0.333148
H222	H	1.375815	0.533016	0.666481
F223	F	0.232825	0.248553	0.087371
F224	F	0.566158	0.581886	0.420704
F225	F	0.899491	0.915220	0.754038
H226	H	0.837012	-0.028975	0.568945
H227	H	1.170345	0.304358	0.902278
H228	H	1.503679	0.637691	1.235611
H229	H	0.702522	-0.586339	-0.000175
H230	H	1.035855	-0.253006	0.333159
H231	H	1.369189	0.080327	0.666492
F232	F	0.625331	-0.443293	-0.000164
F233	F	0.958665	-0.109959	0.333170
F234	F	1.291998	0.223374	0.666503
H235	H	0.997409	-0.496218	-0.000236
H236	H	1.330742	-0.162884	0.333097
H237	H	1.664076	0.170449	0.666431
F238	F	0.005455	0.283980	-0.000253
F239	F	0.338788	0.617313	0.333080
F240	F	0.672121	0.950647	0.666414
H241	H	0.906227	0.008547	0.665722
H242	H	1.239561	0.341880	0.999056
H243	H	1.572894	0.675213	1.332389
F244	F	0.039314	-0.055242	-0.000262
F245	F	0.372647	0.278091	0.333072
F246	F	0.705981	0.611424	0.666405
F247	F	0.723226	0.246908	0.343410
F248	F	1.056560	0.580242	0.676744
F249	F	1.389893	0.913575	1.010077
F250	F	0.486229	-0.046734	-0.000180
F251	F	0.819562	0.286600	0.333153
F252	F	1.152895	0.619933	0.666487
F253	F	0.723204	0.246902	0.186058
F254	F	1.056538	0.580235	0.519391
F255	F	1.389871	0.913569	0.852725
F256	F	0.723265	0.246922	0.813622
F257	F	1.056599	0.580255	1.146955
F258	F	1.389932	0.913588	1.480288
F259	F	0.802031	0.289616	0.421121
F260	F	1.135364	0.622949	0.754454
F261	F	1.468698	0.956282	1.087788
H262	H	0.906185	0.008539	0.195510
H263	H	1.239518	0.341872	0.528844
H264	H	1.572852	0.675205	0.862177
F265	F	0.452369	0.292484	-0.000177
F266	F	0.785702	0.625817	0.333157
F267	F	1.119036	0.959150	0.666490
F268	F	0.723255	0.246920	0.656270
F269	F	1.056588	0.580254	0.989604
F270	F	1.389922	0.913587	1.322937
H271	H	0.804254	0.269079	0.568935
H272	H	1.137587	0.602412	0.902269
H273	H	1.470921	0.935745	1.235602
H274	H	0.397779	0.007104	-0.077190
H275	H	0.731112	0.340437	0.256144
H276	H	1.064445	0.673770	0.589477
F277	F	0.188867	-0.052395	-0.000237
F278	F	0.522201	0.280938	0.333096
F279	F	0.855534	0.614271	0.666429
H280	H	0.837004	-0.028981	0.430653
H281	H	1.170337	0.304353	0.763987
H282	H	1.503671	0.637686	1.097320
F283	F	1.015914	-0.316624	-0.000258
F284	F	1.349248	0.016709	0.333076
F285	F	1.682581	0.350042	0.666409
H286	H	0.266346	0.004605	-0.077214
H287	H	0.599680	0.337938	0.256119
H288	H	0.933013	0.671272	0.589453
H289	H	0.906229	0.008543	0.804009
H290	H	1.239562	0.341876	1.137343
H291	H	1.572895	0.675209	1.470676
H292	H	0.624677	-0.023524	-0.000146
H293	H	0.958010	0.309810	0.333187
H294	H	1.291344	0.643143	0.666520
