data_functionalizedCrystal
_audit_creation_method	'MofGen! by Chris Wilmer'
_symmetry_space_group_name_H-M	'P1'
_symmetry_Int_Tables_number	1
_symmetry_cell_setting	triclinic
loop_
_symmetry_equiv_pos_as_xyz
  x,y,z
_cell_length_a	18.215407
_cell_length_b	17.637651
_cell_length_c	18.215399
_cell_angle_alpha	78.756317
_cell_angle_beta	89.982632
_cell_angle_gamma	101.216706
loop_
_atom_site_label
_atom_site_type_symbol
_atom_site_fract_x
_atom_site_fract_y
_atom_site_fract_z
Zn1	Zn	1.065871	-0.314821	-0.356755
Zn2	Zn	1.040917	-0.447039	-0.208779
Zn3	Zn	0.942800	-0.314840	-0.233704
Zn4	Zn	0.917917	-0.446988	-0.331819
O5	O	0.991876	-0.380922	-0.282764
O6	O	1.165543	-0.332373	-0.337130
O7	O	1.027872	-0.429532	-0.109095
O8	O	0.979984	-0.204199	-0.270894
O9	O	1.147209	-0.429513	-0.228413
O10	O	1.070403	-0.204185	-0.361299
O11	O	0.955786	-0.332406	-0.127408
O12	O	0.836518	-0.332356	-0.246714
O13	O	0.937573	-0.429426	-0.438116
O14	O	0.818236	-0.429445	-0.318799
O15	O	1.046274	-0.332324	-0.456437
O16	O	1.003743	-0.557670	-0.204233
O17	O	0.913375	-0.557633	-0.294630
C18	C	0.800675	-0.380898	-0.282756
C19	C	0.718874	-0.380906	-0.282766
C20	C	0.540206	-0.330430	-0.339430
C21	C	0.463346	-0.330436	-0.339431
C22	C	0.444294	-0.431436	-0.226107
C23	C	0.521154	-0.431425	-0.226103
C24	C	0.569108	-0.380923	-0.282769
C25	C	0.415388	-0.380941	-0.282774
C26	C	0.332053	-0.380949	-0.282774
C27	C	0.652448	-0.380914	-0.282767
C28	C	0.953171	-0.586339	-0.244037
C29	C	0.936680	-0.674217	-0.227494
C30	C	1.117635	-0.962906	-0.408672
C31	C	1.102115	-1.045481	-0.393115
C32	C	1.008024	-1.045603	-0.298885
C33	C	1.023538	-0.963026	-0.314432
C34	C	1.078343	-0.921685	-0.369327
C35	C	0.984247	-0.921805	-0.275087
C36	C	0.999757	-0.839235	-0.290636
C37	C	1.054558	-0.797888	-0.345530
C38	C	1.093853	-0.839115	-0.384876
C39	C	0.929438	-0.963148	-0.220196
C40	C	0.890146	-0.921926	-0.180851
C41	C	0.905660	-0.839355	-0.196396
C42	C	0.960461	-0.798008	-0.251290
C43	C	0.866365	-0.798128	-0.157050
C44	C	0.881875	-0.715559	-0.172599
C45	C	0.975971	-0.715438	-0.266839
C46	C	1.183825	-0.380947	-0.282773
C47	C	1.265621	-0.380957	-0.282776
C48	C	0.991931	-0.380867	-0.474727
C49	C	0.991955	-0.380844	-0.556531
C50	C	1.030753	-0.174703	-0.321659
C51	C	1.047320	-0.086825	-0.338233
C52	C	1.048582	-0.330236	-0.754274
C53	C	1.048595	-0.330213	-0.831137
C54	C	0.935403	-0.431330	-0.812048
C55	C	0.935388	-0.431349	-0.735187
C56	C	0.991981	-0.380803	-0.706302
C57	C	0.992009	-0.380761	-0.860026
C58	C	0.992023	-0.380737	-0.943364
C59	C	0.991967	-0.380826	-0.622959
C60	C	0.991875	-0.380919	-0.091558
C61	C	0.992036	-0.380720	-0.009797
H62	H	0.439819	-0.289318	-0.385569
O63	O	0.880346	-0.480361	-0.688570
C64	C	0.841304	-0.435353	-0.652583
H65	H	0.848498	-0.373079	-0.687494
H66	H	0.779279	-0.463944	-0.646306
H67	H	0.864561	-0.432643	-0.594849
O68	O	1.103493	-0.281017	-0.726271
C69	C	1.102272	-0.202215	-0.759932
H70	H	1.044236	-0.198218	-0.781803
H71	H	1.115964	-0.163165	-0.716757
H72	H	1.145629	-0.181541	-0.808453
O73	O	0.880346	-0.480350	-0.840090
C74	C	0.810249	-0.463084	-0.824543
H75	H	0.818433	-0.399926	-0.815332
H76	H	0.772618	-0.469883	-0.873799
H77	H	0.783016	-0.505480	-0.771928
H78	H	0.544685	-0.472543	-0.179959
O79	O	0.586689	-0.281296	-0.394508
C80	C	0.544692	-0.236746	-0.444528
H81	H	0.490417	-0.233975	-0.414913
H82	H	0.578628	-0.174460	-0.464213
H83	H	0.531071	-0.265775	-0.494905
O84	O	0.813074	-0.838380	-0.103816
C85	C	0.756535	-0.886125	-0.136687
H86	H	0.780145	-0.898438	-0.190164
H87	H	0.735776	-0.944216	-0.095768
H88	H	0.707966	-0.854331	-0.150709
H89	H	0.916804	-1.030381	-0.207545
H90	H	0.845522	-0.955598	-0.136157
O91	O	1.069492	-0.717680	-0.360642
C92	C	1.004130	-0.690126	-0.384687
H93	H	0.952802	-0.737741	-0.363105
H94	H	1.001443	-0.634912	-0.361883
H95	H	1.005293	-0.675445	-0.448515
H96	H	0.405241	-0.472554	-0.179972
H97	H	1.020605	-0.681776	-0.311534
H98	H	1.094684	-0.289034	-0.870194
O99	O	1.170789	-0.922650	-0.462047
C100	C	1.137827	-0.874902	-0.518544
H101	H	1.084380	-0.862595	-0.494857
H102	H	1.178703	-0.816808	-0.539366
H103	H	1.123744	-0.906690	-0.567091
O104	O	1.147095	-0.798827	-0.438152
C105	C	1.152341	-0.717110	-0.443450
H106	H	1.130375	-0.705889	-0.388748
H107	H	1.213364	-0.685686	-0.454403
H108	H	1.117528	-0.693677	-0.491481
O109	O	1.140367	-1.085402	-0.431397
C110	C	1.192041	-1.031203	-0.483202
H111	H	1.205678	-0.972367	-0.464133
H112	H	1.245539	-1.055025	-0.486645
H113	H	1.166692	-1.022391	-0.540718
H114	H	0.963400	-1.079275	-0.254191
H115	H	0.849879	-0.681996	-0.140560
