data_functionalizedCrystal
_audit_creation_method	'MofGen! by Chris Wilmer'
_symmetry_space_group_name_H-M	'P1'
_symmetry_Int_Tables_number	1
_symmetry_cell_setting	triclinic
loop_
_symmetry_equiv_pos_as_xyz
  x,y,z
_cell_length_a	16.992695
_cell_length_b	10.654550
_cell_length_c	9.730223
_cell_angle_alpha	90.000242
_cell_angle_beta	89.996725
_cell_angle_gamma	92.423423
loop_
_atom_site_label
_atom_site_type_symbol
_atom_site_fract_x
_atom_site_fract_y
_atom_site_fract_z
O1	O	0.110188	-1.677362	-0.114188
O2	O	0.120686	-1.312791	-0.114214
O3	O	0.001287	-1.493615	-0.114190
O4	O	0.229588	-1.496538	-0.114212
O5	O	0.001287	-1.493601	0.114390
O6	O	0.120686	-1.312777	0.114366
O7	O	0.110188	-1.677348	0.114391
Zn8	Zn	0.115437	-1.495060	0.150671
Zn9	Zn	0.115437	-1.495078	-0.150493
O10	O	0.229588	-1.496524	0.114368
C11	C	-0.027946	-1.489848	0.000099
C12	C	-0.115051	-1.478628	0.000098
C13	C	0.119916	-1.265919	0.000073
C14	C	0.117609	-1.126277	0.000064
C15	C	0.110959	-1.724220	0.000102
C16	C	0.113265	-1.863862	0.000102
C17	C	-0.164703	-1.586879	0.000107
C18	C	-0.246547	-1.576330	0.000093
C19	C	-0.278738	-1.457529	0.000080
C20	C	-0.229080	-1.349270	0.000067
C21	C	-0.147237	-1.359820	0.000071
C22	C	-0.522573	-1.413802	0.000058
C23	C	-0.604422	-1.403260	0.000059
C24	C	-0.621884	-1.630321	0.000082
C25	C	-0.540039	-1.640861	0.000094
C26	C	-0.490388	-1.532602	0.000074
N27	N	-0.362395	-1.446743	0.000071
N28	N	-0.406733	-1.543389	0.000074
C29	C	0.258821	-1.500291	0.000075
C30	C	0.345926	-1.511510	0.000068
C31	C	0.187910	-1.052866	0.000061
C32	C	0.185738	-0.921658	0.000085
C33	C	0.042959	-0.937282	0.000109
C34	C	0.045132	-1.068488	0.000095
N35	N	0.115437	-1.495057	0.356207
N36	N	0.115432	-1.495091	-0.356029
C37	C	0.163462	-1.576039	0.428129
C38	C	0.163458	-1.576059	0.572012
C39	C	0.067401	-1.414105	0.572039
C40	C	0.067401	-1.414092	0.428158
H41	H	-0.138501	-1.683620	0.000126
Cl42	Cl	-0.644889	-1.253898	0.000051
Cl43	Cl	0.223834	-1.677872	0.662422
H44	H	-0.255296	-1.252539	0.000048
H45	H	0.028293	-1.348185	0.630639
H46	H	0.028289	-1.348146	0.369598
Cl47	Cl	0.279024	-1.125510	0.000031
Cl48	Cl	-0.499578	-1.790217	0.000066
Cl49	Cl	-0.308964	-1.712424	0.000109
H50	H	-0.106811	-1.271671	0.000064
Cl51	Cl	0.274121	-0.829375	0.000083
H52	H	-0.012119	-1.128262	0.000101
H53	H	-0.662318	-1.718458	0.000096
Cl54	Cl	-0.460166	-1.277703	0.000029
Cl55	Cl	-0.048150	-0.864625	0.000139
H56	H	0.202576	-1.641966	0.369551
