data_functionalizedCrystal
_audit_creation_method	'MofGen! by Chris Wilmer'
_symmetry_space_group_name_H-M	'P1'
_symmetry_Int_Tables_number	1
_symmetry_cell_setting	triclinic
loop_
_symmetry_equiv_pos_as_xyz
  x,y,z
_cell_length_a	13.033293
_cell_length_b	29.839131
_cell_length_c	13.032268
_cell_angle_alpha	82.855359
_cell_angle_beta	90.920818
_cell_angle_gamma	97.211142
loop_
_atom_site_label
_atom_site_type_symbol
_atom_site_fract_x
_atom_site_fract_y
_atom_site_fract_z
Zn1	Zn	1.498328	-0.139775	0.781461
Zn2	Zn	1.520009	-0.204339	0.609478
Zn3	Zn	1.348191	-0.137403	0.587637
Zn4	Zn	1.326242	-0.223067	0.759515
O5	O	1.423193	-0.176146	0.684523
O6	O	1.645130	-0.141495	0.776972
O7	O	1.515476	-0.186629	0.462674
O8	O	1.368219	-0.074847	0.613392
O9	O	1.661058	-0.188929	0.650617
O10	O	1.478524	-0.076590	0.755794
O11	O	1.389242	-0.137451	0.446627
O12	O	1.201354	-0.155612	0.592112
O13	O	1.330810	-0.220850	0.906334
O14	O	1.185228	-0.218549	0.718390
O15	O	1.457241	-0.159655	0.922457
O16	O	1.494193	-0.269694	0.629337
O17	O	1.351834	-0.283454	0.739569
C18	C	1.155973	-0.188856	0.650500
C19	C	1.041652	-0.194305	0.635970
C20	C	0.982790	-0.173313	0.692106
C21	C	0.864633	-0.178945	0.677090
C22	C	1.423010	-0.292876	0.684468
C23	C	1.423021	-0.342811	0.684490
C24	C	1.349109	-0.706568	0.741921
C25	C	1.348977	-0.518900	0.741872
O26	O	1.285912	-0.500741	0.790654
N27	N	1.423126	-0.488253	0.684535
C28	C	1.497317	-0.504525	0.627211
O29	O	1.560389	-0.474151	0.578450
C30	C	1.497453	-0.692193	0.627267
C31	C	1.423292	-0.722838	0.684600
C32	C	1.274955	-0.737213	0.799250
C33	C	1.274985	-0.784127	0.799258
C34	C	1.349169	-0.800397	0.741936
C35	C	1.423323	-0.769752	0.684607
C36	C	1.571648	-0.708464	0.569950
C37	C	1.571677	-0.755385	0.569971
C38	C	1.497516	-0.786030	0.627304
C39	C	1.497537	-0.832936	0.627293
N40	N	1.423388	-0.863583	0.684630
C41	C	1.349204	-0.847314	0.741952
C42	C	1.497239	-0.405997	0.627184
C43	C	1.497205	-0.359080	0.627169
C44	C	1.348865	-0.373459	0.741831
C45	C	1.348896	-0.420376	0.741840
C46	C	1.423091	-0.436644	0.684521
C47	C	1.349272	-0.945836	0.741962
C48	C	1.349307	-0.992754	0.741961
C49	C	1.497649	-0.978372	0.627303
C50	C	1.497612	-0.931458	0.627299
C51	C	1.423419	-0.915192	0.684637
O52	O	1.560575	-0.851126	0.578545
O53	O	1.286156	-0.877694	0.790724
C54	C	1.349078	-0.659654	0.741914
C55	C	1.423232	-0.629009	0.684585
C56	C	1.497416	-0.645279	0.627264
C57	C	1.423197	-0.582093	0.684570
C58	C	1.349013	-0.565823	0.741891
C59	C	1.274864	-0.596471	0.799228
C60	C	1.274895	-0.643385	0.799236
C61	C	1.571565	-0.614632	0.569926
C62	C	1.571528	-0.567718	0.569923
C63	C	1.497344	-0.551448	0.627244
C64	C	1.691456	-0.163387	0.718679
C65	C	1.805773	-0.157950	0.733234
C66	C	1.389159	-0.192606	0.952752
C67	C	1.374656	-0.199620	1.067055
C68	C	1.423401	-0.058961	0.684605
C69	C	1.423490	-0.009023	0.684639
C70	C	1.457153	-0.159715	0.417345
C71	C	1.471855	-0.152565	0.303067
C72	C	1.430746	-0.172470	1.125993
C73	C	1.415758	-0.179719	1.244132
H74	H	0.842849	-0.135805	0.792411
F75	F	1.195910	-0.579147	0.860231
F76	F	1.338477	-0.217117	1.292486
H77	H	1.530970	-0.123949	1.266070
F78	F	0.993190	-0.223243	0.558613
H79	H	0.827557	-0.201087	0.617906
H80	H	1.557991	-0.906505	0.580602
H81	H	1.214595	-0.809075	0.845942
F82	F	1.650463	-0.535107	0.508894
H83	H	1.019872	-0.151170	0.751280
F84	F	1.297379	-0.237016	1.115414
F85	F	1.507997	-0.135064	1.077631
H86	H	1.288914	-1.017704	0.788650
H87	H	1.214546	-0.723972	0.845933
F88	F	1.270308	-0.928532	0.802987
H89	H	1.288513	-0.445325	0.788532
H90	H	1.288460	-0.360204	0.788503
F91	F	1.576126	-0.326470	0.566134
F92	F	1.576211	-0.423304	0.566172
F93	F	1.650648	-0.772695	0.508965
F94	F	1.650588	-0.675859	0.508937
F95	F	1.576599	-0.995695	0.566303
F96	F	1.195965	-0.675994	0.860261
H97	H	1.631976	-0.627872	0.523248
