data_functionalizedCrystal
_audit_creation_method	'MofGen! by Chris Wilmer'
_symmetry_space_group_name_H-M	'P1'
_symmetry_Int_Tables_number	1
_symmetry_cell_setting	triclinic
loop_
_symmetry_equiv_pos_as_xyz
  x,y,z
_cell_length_a	21.395362
_cell_length_b	12.594516
_cell_length_c	21.395356
_cell_angle_alpha	89.981492
_cell_angle_beta	89.964230
_cell_angle_gamma	90.031933
loop_
_atom_site_label
_atom_site_type_symbol
_atom_site_fract_x
_atom_site_fract_y
_atom_site_fract_z
Zn1	Zn	0.957873	-0.423340	-0.354617
Zn2	Zn	0.957817	-0.601326	-0.249852
Zn3	Zn	0.853103	-0.423411	-0.249818
Zn4	Zn	0.853084	-0.601326	-0.354557
O5	O	0.905469	-0.512351	-0.302211
O6	O	1.045543	-0.446920	-0.340759
O7	O	0.943911	-0.577755	-0.162170
O8	O	0.867032	-0.274456	-0.263730
O9	O	1.045502	-0.577686	-0.263789
O10	O	0.944006	-0.274403	-0.340725
O11	O	0.866978	-0.447042	-0.162144
O12	O	0.765422	-0.447042	-0.263672
O13	O	0.867000	-0.577686	-0.442243
O14	O	0.765408	-0.577755	-0.340624
O15	O	0.943988	-0.446920	-0.442287
O16	O	0.943893	-0.750272	-0.263731
O17	O	0.866945	-0.750272	-0.340657
C18	C	0.742681	-0.512407	-0.302138
C19	C	0.673040	-0.512457	-0.302122
C20	C	0.640336	-0.580609	-0.342130
C21	C	0.574901	-0.580583	-0.342158
C22	C	0.542172	-0.512416	-0.302167
C23	C	0.574884	-0.444250	-0.262155
C24	C	0.640318	-0.444270	-0.262133
C25	C	0.438454	-0.503853	-0.245761
C26	C	0.373021	-0.503840	-0.245782
C27	C	0.340351	-0.512346	-0.302236
C28	C	0.373122	-0.520888	-0.358670
C29	C	0.438556	-0.520908	-0.358648
C30	C	0.471219	-0.512385	-0.302187
C31	C	0.236695	-0.580474	-0.342278
C32	C	0.171258	-0.580441	-0.342307
C33	C	0.171242	-0.444113	-0.262298
C34	C	0.236677	-0.444141	-0.262275
C35	C	0.269400	-0.512327	-0.302264
C36	C	0.905428	-0.788892	-0.302205
C37	C	0.905468	-0.907197	-0.302223
C38	C	0.863612	-0.976489	-0.344034
C39	C	0.848351	-1.047348	-0.286856
C40	C	0.920786	-1.047137	-0.359410
C41	C	0.890176	-0.976498	-0.245015
C42	C	0.962638	-0.976280	-0.317608
C43	C	0.947398	-1.047108	-0.260391
C44	C	1.068892	-0.512295	-0.302284
C45	C	1.138534	-0.512271	-0.302315
C46	C	0.905498	-0.512295	-0.465634
C47	C	0.905510	-0.512271	-0.535275
C48	C	0.905527	-0.234730	-0.302231
C49	C	0.905552	-0.116424	-0.302239
C50	C	0.945639	-0.580110	-1.037085
C51	C	0.945628	-0.580144	-0.971650
C52	C	0.905570	-0.512102	-0.938914
C53	C	0.865508	-0.444041	-0.971619
C54	C	0.865516	-0.444017	-1.037053
C55	C	0.900630	-0.416247	-0.835250
C56	C	0.900626	-0.416270	-0.769817
C57	C	0.905541	-0.512178	-0.737093
C58	C	0.910474	-0.608066	-0.769810
C59	C	0.910481	-0.608042	-0.835244
C60	C	0.905556	-0.512121	-0.867962
C61	C	0.945585	-0.580277	-0.633444
C62	C	0.945570	-0.580312	-0.568007
C63	C	0.865453	-0.444200	-0.567977
C64	C	0.865465	-0.444173	-0.633412
C65	C	0.905535	-0.512210	-0.666142
C66	C	0.905476	-0.512330	-0.139423
C67	C	0.905586	-0.512054	-0.069782
H68	H	0.263338	-0.635990	-0.374843
H69	H	0.877198	-0.945598	-0.196646
H70	H	0.465048	-0.496922	-0.199786
H71	H	0.982830	-1.077921	-0.224999
H72	H	0.666945	-0.388769	-0.229553
H73	H	0.978183	-0.635742	-0.541386
Cl74	Cl	0.331829	-0.493101	-0.174837
H75	H	0.914477	-0.686164	-0.743168
Cl76	Cl	1.037206	-0.928048	-0.337720
Cl77	Cl	0.815077	-0.358688	-0.526829
H78	H	0.933708	-1.078165	-0.407766
Cl79	Cl	0.996005	-0.665654	-1.078228
Cl80	Cl	0.277793	-0.358461	-0.211973
Cl81	Cl	0.995956	-0.665808	-0.674592
H82	H	0.144632	-0.635937	-0.374890
H83	H	0.832899	-0.388594	-1.063674
H84	H	0.828153	-0.945479	-0.379340
Cl85	Cl	0.130103	-0.358409	-0.212026
H86	H	0.548232	-0.388746	-0.229595
Cl87	Cl	0.995985	-0.665708	-0.930537
Cl88	Cl	0.916677	-0.728582	-0.876372
Cl89	Cl	0.815100	-0.358626	-0.674519
H90	H	0.800042	-1.078587	-0.273857
H91	H	0.896614	-0.338191	-0.743184
H92	H	0.896668	-0.338135	-0.861889
Cl93	Cl	0.815150	-0.358500	-0.930466
H94	H	0.548268	-0.636081	-0.374740
Cl95	Cl	0.681469	-0.666324	-0.392405
H96	H	0.465236	-0.527860	-0.404598
H97	H	0.346524	-0.527813	-0.404640
