data_functionalizedCrystal
_audit_creation_method	'MofGen! by Chris Wilmer'
_symmetry_space_group_name_H-M	'P1'
_symmetry_Int_Tables_number	1
_symmetry_cell_setting	triclinic
loop_
_symmetry_equiv_pos_as_xyz
  x,y,z
_cell_length_a	13.033293
_cell_length_b	12.645330
_cell_length_c	13.033429
_cell_angle_alpha	82.785648
_cell_angle_beta	90.866667
_cell_angle_gamma	97.187788
loop_
_atom_site_label
_atom_site_type_symbol
_atom_site_fract_x
_atom_site_fract_y
_atom_site_fract_z
Zn1	Zn	1.498534	-0.128381	-0.781537
Zn2	Zn	1.520259	-0.325050	-0.609563
Zn3	Zn	1.348376	-0.172742	-0.587703
Zn4	Zn	1.326524	-0.330568	-0.759613
O5	O	1.423423	-0.239185	-0.684604
O6	O	1.645336	-0.133595	-0.777049
O7	O	1.515696	-0.321101	-0.462747
O8	O	1.368347	-0.018500	-0.613443
O9	O	1.661298	-0.278086	-0.650700
O10	O	1.478668	0.014092	-0.755852
O11	O	1.389414	-0.209201	-0.446686
O12	O	1.201556	-0.214552	-0.592183
O13	O	1.331104	-0.287492	-0.906438
O14	O	1.185502	-0.330507	-0.718485
O15	O	1.457479	-0.138946	-0.922546
O16	O	1.494507	-0.474139	-0.629441
O17	O	1.352170	-0.478194	-0.739682
C18	C	1.156212	-0.277943	-0.650583
C19	C	1.041895	-0.294547	-0.636054
C20	C	0.983019	-0.230546	-0.692187
C21	C	0.864866	-0.247705	-0.677171
C22	C	1.423350	-0.514627	-0.684580
C23	C	1.423408	-0.632445	-0.684616
C24	C	1.334161	-0.802529	-0.754256
C25	C	1.333789	-0.680057	-0.753948
C26	C	1.407830	-0.693502	-0.572503
C27	C	1.407286	-0.816116	-0.572925
C28	C	1.528829	-0.780595	-0.726274
C29	C	1.527861	-0.657818	-0.728559
C30	C	1.691677	-0.200277	-0.718758
C31	C	1.805991	-0.183696	-0.733313
C32	C	1.389431	-0.208886	-0.952851
C33	C	1.374945	-0.195974	-1.067162
C34	C	1.423522	0.037339	-0.684654
C35	C	1.423564	0.155178	-0.684676
C36	C	1.416004	-0.232254	-1.244215
C37	C	1.430976	-0.245593	-1.126069
C38	C	1.457343	-0.269281	-0.417408
C39	C	1.472027	-0.281865	-0.303123
H40	H	1.341941	-0.638189	-0.836647
C41	C	1.551800	-0.352589	-1.253098
N42	N	1.611885	-0.405862	-1.215421
H43	H	1.256318	-0.847104	-0.725904
H44	H	1.004829	-0.362041	-0.576877
H45	H	1.255472	-0.664597	-0.725298
H46	H	1.342111	-0.820222	-0.837197
H47	H	1.356960	-0.179900	-1.281249
H48	H	0.843052	-0.116190	-0.792487
H49	H	1.020085	-0.163047	-0.751358
C50	C	1.295167	-0.125247	-1.117180
N51	N	1.235077	-0.071978	-1.154855
C52	C	1.510753	-0.316321	-1.076048
N53	N	1.570838	-0.369593	-1.038371
H54	H	0.827805	-0.315204	-0.617990
H55	H	1.330745	-0.858995	-0.539293
H56	H	1.471491	-0.663097	-0.518637
C57	C	1.305614	-0.671230	-0.526638
N58	N	1.228621	-0.654457	-0.492098
C59	C	1.551657	-0.805190	-0.835831
N60	N	1.568838	-0.823716	-0.918352
C61	C	1.492435	-0.854696	-0.499484
N62	N	1.556563	-0.883752	-0.444163
C63	C	1.544099	-0.601918	-0.840099
N64	N	1.556335	-0.559795	-0.924106
C65	C	1.621099	-0.612410	-0.666563
N66	N	1.691325	-0.578212	-0.619857
C67	C	1.618586	-0.817009	-0.658043
N68	N	1.686183	-0.844445	-0.606649
