data_functionalizedCrystal
_audit_creation_method	'MofGen! by Chris Wilmer'
_symmetry_space_group_name_H-M	'P1'
_symmetry_Int_Tables_number	1
_symmetry_cell_setting	triclinic
loop_
_symmetry_equiv_pos_as_xyz
  x,y,z
_cell_length_a	29.019771
_cell_length_b	29.019011
_cell_length_c	29.015668
_cell_angle_alpha	60.004890
_cell_angle_beta	60.009825
_cell_angle_gamma	59.993818
loop_
_atom_site_label
_atom_site_type_symbol
_atom_site_fract_x
_atom_site_fract_y
_atom_site_fract_z
O1	O	0.063866	-0.673289	0.563007
O2	O	0.563866	-0.173289	1.063007
O3	O	0.024059	-0.524205	0.453633
O4	O	0.524059	-0.024205	0.953633
O5	O	0.118464	-0.618532	0.453552
O6	O	0.618464	-0.118532	0.953552
O7	O	-0.030540	-0.578962	0.563088
O8	O	0.469460	-0.078962	1.063088
O9	O	0.149785	-0.587215	0.484789
O10	O	0.649785	-0.087215	0.984789
O11	O	0.055379	-0.492888	0.484869
O12	O	0.555379	0.007112	0.984869
O13	O	0.095186	-0.641972	0.594244
O14	O	0.595186	-0.141972	1.094244
Cu15	Cu	0.078143	-0.564571	0.542409
Cu16	Cu	0.578143	-0.064571	1.042409
Cu17	Cu	0.041102	-0.601606	0.505468
Cu18	Cu	0.541102	-0.101606	1.005468
O19	O	0.000781	-0.547645	0.594325
O20	O	0.500781	-0.047645	1.094325
N21	N	0.104196	-0.538525	0.568394
N22	N	0.604196	-0.038525	1.068394
N23	N	0.015054	-0.627656	0.479483
N24	N	0.515054	-0.127656	0.979483
C25	C	0.143783	-0.499167	0.850823
C26	C	0.643783	0.000833	1.350823
C27	C	0.386758	-0.499111	0.607645
C28	C	0.886758	0.000889	1.107645
C29	C	0.143618	-0.499136	0.607763
C30	C	0.643618	0.000864	1.107763
C31	C	0.143598	-0.256029	0.607770
C32	C	0.643598	0.243971	1.107770
C33	C	0.182748	-0.373362	0.646852
C34	C	0.682748	0.126638	1.146852
C35	C	0.182758	-0.460025	0.646847
C36	C	0.682758	0.039975	1.146847
C37	C	0.204440	-0.438361	0.668500
C38	C	0.704440	0.061639	1.168500
C39	C	0.298958	-0.422064	0.618723
C40	C	0.798958	0.077936	1.118723
C41	C	0.358043	-0.441753	0.599006
C42	C	0.858043	0.058247	1.099006
C43	C	0.358069	-0.537354	0.635461
C44	C	0.858069	-0.037354	1.135461
C45	C	0.298985	-0.517664	0.655180
C46	C	0.798985	-0.017664	1.155180
C47	C	0.196983	-0.343808	0.588767
C48	C	0.696983	0.156192	1.088767
C49	C	0.177262	-0.284720	0.569090
C50	C	0.677262	0.215280	1.069090
C51	C	0.129075	-0.284743	0.665586
C52	C	0.629075	0.215257	1.165586
C53	C	0.148797	-0.343831	0.685263
C54	C	0.648797	0.156169	1.185263
C55	C	0.124666	-0.445760	0.661149
C56	C	0.624666	0.054240	1.161149
C57	C	0.104961	-0.465454	0.641458
C58	C	0.604961	0.034546	1.141458
C59	C	0.201435	-0.513678	0.593176
C60	C	0.701435	-0.013678	1.093176
C61	C	0.221143	-0.493984	0.612860
C62	C	0.721143	0.006016	1.112860
C63	C	0.124738	-0.445777	0.763064
C64	C	0.624738	0.054223	1.263064
C65	C	0.105085	-0.465488	0.822151
C66	C	0.605085	0.034512	1.322151
C67	C	0.201594	-0.513722	0.822097
C68	C	0.701594	-0.013722	1.322097
C69	C	0.221247	-0.494012	0.763009
C70	C	0.721247	0.005988	1.263009
C71	C	0.182817	-0.460038	0.733494
C72	C	0.682817	0.039962	1.233494
C73	C	0.269432	-0.460018	0.646809
C74	C	0.769432	0.039982	1.146809
C75	C	0.121399	-0.520450	0.915812
C76	C	0.621399	-0.020450	1.415812
C77	C	0.451745	-0.520012	0.585655
C78	C	0.951745	-0.020012	1.085655
C79	C	0.121177	-0.520429	0.586502
C80	C	0.621177	-0.020429	1.086502
C81	C	0.121544	-0.191035	0.586883
C82	C	0.621544	0.308965	1.086883
C83	C	-0.110592	-0.666601	0.440035
C84	C	0.389408	-0.166601	0.940035
C85	C	-0.023978	-0.666709	0.440231
C86	C	0.476022	-0.166709	0.940231
C87	C	-0.045598	-0.688342	0.418486
C88	C	0.454402	-0.188342	0.918486
C89	C	-0.061967	-0.782825	0.468184
C90	C	0.438033	-0.282825	0.968184
C91	C	-0.042323	-0.841914	0.487907
C92	C	0.457677	-0.341914	0.987907
C93	C	0.053280	-0.842025	0.451623
C94	C	0.553280	-0.342025	0.951623
C95	C	0.033634	-0.782937	0.431899
C96	C	0.533634	-0.282937	0.931899
C97	C	-0.140218	-0.680832	0.498102
C98	C	0.359782	-0.180832	0.998102
C99	C	-0.199302	-0.661065	0.517690
C100	C	0.300698	-0.161065	1.017690
C101	C	-0.199129	-0.612843	0.421140
C102	C	0.300871	-0.112843	0.921140
C103	C	-0.140045	-0.632610	0.401552
C104	C	0.359955	-0.132610	0.901552
C105	C	-0.038209	-0.608622	0.425941
C106	C	0.461791	-0.108622	0.925941
C107	C	-0.018555	-0.588961	0.445716
C108	C	0.481445	-0.088961	0.945716
C109	C	0.029562	-0.685470	0.494059
C110	C	0.529562	-0.185470	0.994059
C111	C	0.009908	-0.705133	0.474291
C112	C	0.509908	-0.205133	0.974291
C113	C	-0.038037	-0.608631	0.323917
C114	C	0.461963	-0.108631	0.823917
C115	C	-0.018247	-0.588973	0.264830
C116	C	0.481753	-0.088973	0.764830
C117	C	0.029955	-0.685489	0.264893
C118	C	0.529955	-0.185489	0.764893
C119	C	0.010165	-0.705145	0.323981
C120	C	0.510165	-0.205145	0.823981
C121	C	-0.023833	-0.666715	0.353492
C122	C	0.476167	-0.166715	0.853492
C123	C	-0.023990	-0.753339	0.440182
C124	C	0.476010	-0.253339	0.940182
N125	N	0.504925	-0.538487	0.568205
N126	N	1.004925	-0.038487	1.068205
O127	O	0.685342	-0.543679	0.433426
O128	O	1.185342	-0.043679	0.933426
O129	O	0.685533	-0.653395	0.582361
O130	O	1.185533	-0.153395	1.082361
O131	O	0.685457	-0.653145	0.487904
O132	O	1.185457	-0.153145	0.987904
O133	O	0.685418	-0.543929	0.527882
O134	O	1.185418	-0.043929	1.027882
O135	O	0.591592	-0.621921	0.519268
O136	O	1.091592	-0.121921	1.019268
O137	O	0.591667	-0.622171	0.613725
O138	O	1.091667	-0.122171	1.113725
O139	O	0.591477	-0.512455	0.464790
O140	O	1.091477	-0.012455	0.964790
Cu141	Cu	0.583001	-0.564462	0.542121
Cu142	Cu	1.083001	-0.064462	1.042121
Cu143	Cu	0.694008	-0.601388	0.505029
Cu144	Cu	1.194008	-0.101388	1.005029
O145	O	0.591553	-0.512705	0.559246
O146	O	1.091553	-0.012705	1.059246
N147	N	0.772084	-0.627363	0.478939
N148	N	1.272084	-0.127363	0.978939
N149	N	0.104168	-0.137853	0.568408
N150	N	0.604168	0.362147	1.068408
O151	O	-0.030538	0.042663	0.563097
O152	O	0.469462	0.542663	1.063097
O153	O	0.118403	0.042683	0.453379
O154	O	0.618403	0.542683	0.953379
O155	O	0.023918	0.042657	0.453664
O156	O	0.523918	0.542657	0.953664
O157	O	0.063947	0.042689	0.562813
O158	O	0.563947	0.542689	1.062813
O159	O	0.055242	-0.051215	0.484950
O160	O	0.555242	0.448785	0.984950
O161	O	0.149727	-0.051189	0.484666
O162	O	0.649727	0.448811	0.984666
O163	O	0.000787	-0.051210	0.594384
O164	O	0.500787	0.448790	1.094384
Cu165	Cu	0.078117	-0.059771	0.542381
Cu166	Cu	0.578117	0.440229	1.042381
Cu167	Cu	0.041072	0.051244	0.505382
Cu168	Cu	0.541072	0.551244	1.005382
O169	O	0.095272	-0.051184	0.594099
O170	O	0.595272	0.448816	1.094099
N171	N	0.015015	0.129326	0.479356
N172	N	0.515015	0.629326	0.979356
N173	N	0.104469	-0.538576	0.968995
N174	N	0.604469	-0.038576	1.468995
O175	O	0.099171	-0.673268	1.149499
O176	O	0.599171	-0.173268	1.649499
O177	O	-0.010519	-0.524279	1.149527
O178	O	0.489481	-0.024279	1.649527
O179	O	-0.010265	-0.618748	1.149494
O180	O	0.489735	-0.118748	1.649494
O181	O	0.098916	-0.578799	1.149533
O182	O	0.598916	-0.078799	1.649533
O183	O	0.021008	-0.587443	1.055625
O184	O	0.521008	-0.087443	1.555625
O185	O	0.020753	-0.492974	1.055659
O186	O	0.520753	0.007026	1.555659
O187	O	0.130444	-0.641963	1.055630
O188	O	0.630444	-0.141963	1.555630
Cu189	Cu	0.078454	-0.564610	1.047074
Cu190	Cu	0.578454	-0.064610	1.547074
Cu191	Cu	0.041470	-0.601632	1.158084
Cu192	Cu	0.541470	-0.101632	1.658084
O193	O	0.130189	-0.547494	1.055664
O194	O	0.630189	-0.047494	1.555664
N195	N	0.015455	-0.627672	1.236163
N196	N	0.515455	-0.127672	1.736163
C197	C	0.035988	-0.489761	0.454182
C198	C	0.535988	0.010239	0.954182
C199	C	0.152897	-0.606574	0.454082
C200	C	0.652897	-0.106574	0.954082
C201	C	0.083257	-0.676417	0.593694
C202	C	0.583257	-0.176417	1.093694
C203	C	-0.033653	-0.559604	0.593794
C204	C	0.466347	-0.059604	1.093794
C205	C	0.638623	-0.652892	0.616806
C206	C	1.138623	-0.152892	1.116806
C207	C	0.638531	-0.652583	0.499833
C208	C	1.138531	-0.152583	0.999833
C209	C	0.638384	-0.512957	0.430345
C210	C	1.138384	-0.012957	0.930345
C211	C	0.638480	-0.513267	0.547317
C212	C	1.138480	-0.013267	1.047317
C213	C	0.152789	-0.004135	0.453875
C214	C	0.652789	0.495865	0.953875
C215	C	0.035820	-0.004282	0.454266
C216	C	0.535820	0.495718	0.954266
C217	C	-0.033639	-0.004275	0.593849
C218	C	0.466361	0.495725	1.093849
C219	C	0.083370	-0.004245	0.593498
C220	C	0.583370	0.495755	1.093498
C221	C	-0.009989	-0.489856	1.102597
C222	C	0.490011	0.010144	1.602597
C223	C	-0.009667	-0.606839	1.102536
C224	C	0.490333	-0.106839	1.602536
C225	C	0.129914	-0.676386	1.102561
C226	C	0.629914	-0.176386	1.602561
C227	C	0.129599	-0.559396	1.102601
C228	C	0.629599	-0.059396	1.602601
H229	H	0.057789	-0.453866	0.846219
H230	H	0.557789	0.046134	1.346219
O231	O	0.093650	-0.004344	0.634429
O232	O	0.593650	0.495656	1.134429
C233	C	0.150987	-0.052957	0.693728
C234	C	0.650987	0.447043	1.193728
C235	C	0.139398	-0.052919	0.647379
C236	C	0.639398	0.447081	1.147379
H237	H	0.187981	-0.092220	0.704204
H238	H	0.687981	0.407780	1.204204
H239	H	0.111880	-0.053001	0.733183
H240	H	0.611880	0.446999	1.233183
H241	H	0.161702	-0.013651	0.678078
H242	H	0.661702	0.486349	1.178078
H243	H	0.128697	-0.092219	0.662975
H244	H	0.628697	0.407781	1.162975
H245	H	0.178514	-0.052846	0.607934
H246	H	0.678514	0.447154	1.107934
O247	O	0.170982	-0.727428	1.102474
O248	O	0.670982	-0.227428	1.602474
C249	C	0.230680	-0.795385	1.053801
C250	C	0.730680	-0.295385	1.553801
C251	C	0.184158	-0.737576	1.053836
C252	C	0.684158	-0.237576	1.553836
H253	H	0.241355	-0.803603	1.014475
H254	H	0.741355	-0.303603	1.514475
H255	H	0.215176	-0.829878	1.093048
H256	H	0.715176	-0.329878	1.593048
H257	H	0.269980	-0.795453	1.053836
H258	H	0.769980	-0.295453	1.553836
H259	H	0.144842	-0.737453	1.053781
H260	H	0.644842	-0.237453	1.553781
H261	H	0.199708	-0.703108	1.014593
H262	H	0.699708	-0.203108	1.514593
O263	O	-0.084710	-0.004174	0.634893
O264	O	0.415290	0.495826	1.134893
C265	C	-0.185119	0.044444	0.662153
C266	C	0.314881	0.544444	1.162153
C267	C	-0.127316	0.044401	0.615629
C268	C	0.372684	0.544401	1.115629
H269	H	-0.219582	0.083706	0.646591
H270	H	0.280418	0.583706	1.146591
H271	H	-0.185206	0.044491	0.701464
H272	H	0.314794	0.544491	1.201464
H273	H	-0.193362	0.005137	0.672837
H274	H	0.306638	0.505137	1.172837
H275	H	-0.119036	0.083701	0.604896
H276	H	0.380964	0.583701	1.104896
H277	H	-0.127257	0.044324	0.576348
H278	H	0.372743	0.544324	1.076348
O279	O	-0.084730	-0.549445	0.634779
O280	O	0.415270	-0.049445	1.134779
C281	C	-0.177684	-0.482582	0.660868
C282	C	0.322316	0.017418	1.160868
C283	C	-0.119862	-0.494008	0.614407
C284	C	0.380138	0.005992	1.114407
H285	H	-0.206108	-0.437767	0.644411
H286	H	0.293892	0.062233	1.144411
H287	H	-0.171801	-0.487633	0.699356
H288	H	0.328199	0.012367	1.199356
H289	H	-0.197962	-0.513910	0.673222
H290	H	0.302038	-0.013910	1.173222
H291	H	-0.099552	-0.462690	0.602005
H292	H	0.400448	0.037310	1.102005
H293	H	-0.125781	-0.488977	0.575950
H294	H	0.374219	0.011023	1.075950
O295	O	0.170468	-0.549101	1.102581
O296	O	0.670468	-0.049101	1.602581
C297	C	0.196269	-0.482061	1.102636
C298	C	0.696269	0.017939	1.602636
C299	C	0.149939	-0.493640	1.102644
C300	C	0.649939	0.006360	1.602644
H301	H	0.179685	-0.437226	1.102699
H302	H	0.679685	0.062774	1.602699
H303	H	0.234786	-0.487070	1.063339
H304	H	0.734786	0.012930	1.563339
H305	H	0.208625	-0.513337	1.141907
H306	H	0.708625	-0.013337	1.641907
H307	H	0.137535	-0.462375	1.063400
H308	H	0.637535	0.037625	1.563400
H309	H	0.111453	-0.488651	1.141967
H310	H	0.611453	0.011349	1.641967
O311	O	-0.051022	-0.438787	1.102631
O312	O	0.448978	0.061213	1.602631
C313	C	-0.077251	-0.345795	1.102623
C314	C	0.422749	0.154205	1.602623
C315	C	-0.030737	-0.403609	1.102598
C316	C	0.469263	0.096391	1.602598
H317	H	-0.060864	-0.317334	1.102584
H318	H	0.439136	0.182666	1.602584
H319	H	-0.115741	-0.351689	1.141913
H320	H	0.384259	0.148311	1.641913
H321	H	-0.089573	-0.325548	1.063345
H322	H	0.410427	0.174452	1.563345
H323	H	-0.018367	-0.423888	1.141848
H324	H	0.481633	0.076112	1.641848
H325	H	0.007723	-0.397678	1.063281
H326	H	0.507723	0.102322	1.563281
O327	O	0.025907	-0.438648	0.413213
O328	O	0.525907	0.061352	0.913213
C329	C	0.053172	-0.355686	0.351529
C330	C	0.553172	0.144314	0.851529
C331	C	0.064641	-0.413554	0.397934
C332	C	0.564641	0.086446	0.897934
H333	H	0.084488	-0.335386	0.339154
H334	H	0.584488	0.164614	0.839154
H335	H	0.008351	-0.327281	0.367996
H336	H	0.508351	0.172719	0.867996
H337	H	0.058207	-0.361571	0.313050
H338	H	0.558207	0.138429	0.813050
H339	H	0.059636	-0.407722	0.436428
H340	H	0.559636	0.092278	0.936428
H341	H	0.109457	-0.441938	0.381421
H342	H	0.609457	0.058062	0.881421
O343	O	-0.071028	-0.571221	0.352496
O344	O	0.428972	-0.071221	0.852496
C345	C	-0.116757	-0.473416	0.346196
C346	C	0.383243	0.026584	0.846196
C347	C	-0.079390	-0.515717	0.313761
C348	C	0.420610	-0.015717	0.813761
H349	H	-0.123540	-0.428532	0.314894
H350	H	0.376460	0.071468	0.814894
H351	H	-0.095163	-0.480209	0.373907
H352	H	0.404837	0.019791	0.873907
H353	H	-0.159270	-0.480196	0.373807
H354	H	0.340730	0.019804	0.873807
H355	H	-0.036871	-0.508962	0.286119
H356	H	0.463129	-0.008962	0.786119
H357	H	-0.101028	-0.508913	0.286086
H358	H	0.398972	-0.008913	0.786086
H359	H	0.638322	-0.478510	0.387573
H360	H	1.138322	0.021490	0.887573
H361	H	0.195693	-0.615009	0.419684
H362	H	0.695693	-0.115009	0.919684
O363	O	0.638786	-0.694001	0.667811
O364	O	1.138786	-0.194001	1.167811
C365	C	0.687486	-0.753627	0.735753
C366	C	1.187486	-0.253627	1.235753
C367	C	0.687378	-0.707080	0.677975
C368	C	1.187378	-0.207080	1.177975
H369	H	0.726763	-0.764208	0.743995
H370	H	1.226763	-0.264208	1.243995
H371	H	0.687547	-0.792985	0.735836
H372	H	1.187547	-0.292985	1.235836
H373	H	0.648199	-0.738118	0.770224
H374	H	1.148199	-0.238118	1.270224
H375	H	0.726658	-0.722536	0.643472
H376	H	1.226658	-0.222536	1.143472
H377	H	0.687287	-0.667732	0.677940
H378	H	1.187287	-0.167732	1.177940
O379	O	0.638522	-0.693446	0.489546
O380	O	1.138522	-0.193446	0.989546
C381	C	0.638517	-0.719277	0.422488
C382	C	1.138517	-0.219277	0.922488
C383	C	0.638514	-0.672946	0.434066
C384	C	1.138514	-0.172946	0.934066
H385	H	0.638523	-0.702725	0.377629
H386	H	1.138523	-0.202725	0.877629
H387	H	0.599256	-0.731641	0.453719
H388	H	1.099256	-0.231641	0.953719
H389	H	0.677821	-0.757785	0.427534
H390	H	1.177821	-0.257785	0.927534
H391	H	0.599238	-0.634408	0.429012
H392	H	1.099238	-0.134408	0.929012
H393	H	0.677802	-0.660630	0.402836
H394	H	1.177802	-0.160630	0.902836
H395	H	0.027247	-0.004286	0.419974
H396	H	0.527247	0.495714	0.919974
O397	O	0.203734	-0.003789	0.412730
O398	O	0.703734	0.496211	0.912730
C399	C	0.296568	-0.003340	0.386322
C400	C	0.796568	0.496660	0.886322
C401	C	0.238895	-0.003718	0.432964
C402	C	0.738895	0.496282	0.932964
H403	H	0.325016	-0.003294	0.402668
H404	H	0.825016	0.496706	0.902668
H405	H	0.290429	0.036040	0.347953
H406	H	0.790429	0.536040	0.847953
H407	H	0.316969	-0.042530	0.373825
H408	H	0.816969	0.457470	0.873825
H409	H	0.218463	0.035445	0.445509
H410	H	0.718463	0.535445	0.945509
H411	H	0.245071	-0.043124	0.471302
H412	H	0.745071	0.456876	0.971302
O413	O	0.087329	-0.412800	0.734481
O414	O	0.587329	0.087200	1.234481
C415	C	-0.010470	-0.367008	0.740771
C416	C	0.489530	0.132992	1.240771
C417	C	0.031830	-0.404366	0.773211
C418	C	0.531830	0.095634	1.273211
H419	H	-0.055350	-0.360168	0.772070
H420	H	0.444650	0.139832	1.272070
H421	H	-0.003723	-0.388646	0.713125
H422	H	0.496277	0.111354	1.213125
H423	H	-0.003648	-0.324518	0.713095
H424	H	0.496352	0.175482	1.213095
H425	H	0.025034	-0.446863	0.800918
H426	H	0.525034	0.053137	1.300918
H427	H	0.025072	-0.382684	0.800821
H428	H	0.525072	0.117316	1.300821
O429	O	0.239002	-0.546728	0.850676
O430	O	0.739002	-0.046728	1.350676
C431	C	0.336803	-0.592446	0.844379
C432	C	0.836803	-0.092446	1.344379
C433	C	0.294499	-0.555073	0.811943
C434	C	0.794499	-0.055073	1.311943
H435	H	0.381682	-0.599194	0.813077
H436	H	0.881682	-0.099194	1.313077
H437	H	0.330067	-0.634979	0.872023
H438	H	0.830067	-0.134979	1.372023
H439	H	0.329975	-0.570798	0.872056
H440	H	0.829975	-0.070798	1.372056
H441	H	0.301302	-0.576671	0.784235
H442	H	0.801302	-0.076671	1.284235
H443	H	0.301246	-0.512542	0.784334
H444	H	0.801246	-0.012542	1.284334
O445	O	0.638540	-0.472404	0.557561
O446	O	1.138540	0.027596	1.057561
C447	C	0.687198	-0.445428	0.582337
C448	C	1.187198	0.054572	1.082337
C449	C	0.687192	-0.491757	0.570763
C450	C	1.187192	0.008243	1.070763
H451	H	0.726534	-0.461053	0.593002
H452	H	1.226534	0.038947	1.093002
H453	H	0.647964	-0.434919	0.619329
H454	H	1.147964	0.065081	1.119329
H455	H	0.687114	-0.405993	0.543204
H456	H	1.187114	0.094007	1.043204
H457	H	0.687296	-0.531221	0.609863
H458	H	1.187296	-0.031221	1.109863
H459	H	0.726422	-0.502218	0.533749
H460	H	1.226422	-0.002218	1.033749
O461	O	0.048512	-0.451573	0.655426
O462	O	0.548512	0.048427	1.155426
C463	C	-0.045102	-0.401650	0.705380
C464	C	0.454898	0.098350	1.205380
C465	C	0.018810	-0.417337	0.689613
C466	C	0.518810	0.082663	1.189613
H467	H	-0.069135	-0.373958	0.733012
H468	H	0.430865	0.126042	1.233012
H469	H	-0.056738	-0.441736	0.729467
H470	H	0.443262	0.058264	1.229467
H471	H	-0.056747	-0.377611	0.665292
H472	H	0.443253	0.122389	1.165292
H473	H	0.030500	-0.441362	0.729671
H474	H	0.530500	0.058638	1.229671
H475	H	0.030411	-0.377231	0.665504
H476	H	0.530411	0.122769	1.165504
O477	O	0.238800	-0.546642	0.560152
O478	O	0.738800	-0.046642	1.060152
C479	C	0.336573	-0.592426	0.514373
C480	C	0.836573	-0.092426	1.014373
C481	C	0.294318	-0.555079	0.551768
C482	C	0.794318	-0.055079	1.051768
H483	H	0.381469	-0.599269	0.507592
H484	H	0.881469	-0.099269	1.007592
H485	H	0.329779	-0.570777	0.471858
H486	H	0.829779	-0.070777	0.971858
H487	H	0.329749	-0.634916	0.536019
H488	H	0.829749	-0.134916	1.036019
H489	H	0.301117	-0.512582	0.530172
H490	H	0.801117	-0.012582	1.030172
H491	H	0.301123	-0.576772	0.594281
H492	H	0.801123	-0.076772	1.094281
O493	O	0.093481	-0.727546	0.634607
O494	O	0.593481	-0.227546	1.134607
C495	C	0.160467	-0.820453	0.660578
C496	C	0.660467	-0.320453	1.160578
C497	C	0.148959	-0.762578	0.614190
C498	C	0.648959	-0.262578	1.114190
H499	H	0.205323	-0.848788	0.644092
H500	H	0.705323	-0.348788	1.144092
H501	H	0.129228	-0.840832	0.672923
H502	H	0.629228	-0.340832	1.172923
H503	H	0.155377	-0.814566	0.699079
H504	H	0.655377	-0.314566	1.199079
H505	H	0.154056	-0.768416	0.575658
H506	H	0.654056	-0.268416	1.075658
H507	H	0.180196	-0.742218	0.601893
H508	H	0.680196	-0.242218	1.101893
H509	H	0.268542	-0.505632	0.738936
H510	H	0.768542	-0.005632	1.238936
O511	O	-0.050552	-0.617105	1.102550
O512	O	0.449448	-0.117105	1.602550
C513	C	-0.109914	-0.674336	1.151101
C514	C	0.390086	-0.174336	1.651101
C515	C	-0.063602	-0.662778	1.151150
C516	C	0.436398	-0.162778	1.651150
H517	H	-0.120488	-0.711255	1.190396
H518	H	0.379512	-0.211255	1.690396
H519	H	-0.094257	-0.685113	1.111823
H520	H	0.405743	-0.185113	1.611823
H521	H	-0.149316	-0.635162	1.151065
H522	H	0.350684	-0.135162	1.651065
H523	H	-0.024184	-0.701933	1.151206
H524	H	0.475816	-0.201933	1.651206
H525	H	-0.079305	-0.651978	1.190424
H526	H	0.420695	-0.151978	1.690424
O527	O	0.270390	-0.554607	0.682428
O528	O	0.770390	-0.054607	1.182428
C529	C	0.276653	-0.651513	0.716532
C530	C	0.776653	-0.151513	1.216532
C531	C	0.309107	-0.609735	0.685652
C532	C	0.809107	-0.109735	1.185652
H533	H	0.307942	-0.696095	0.719159
H534	H	0.807942	-0.196095	1.219159
H535	H	0.248984	-0.639695	0.692390
H536	H	0.748984	-0.139695	1.192390
H537	H	0.249000	-0.649680	0.760948
H538	H	0.749000	-0.149680	1.260948
H539	H	0.336791	-0.611547	0.641236
H540	H	0.836791	-0.111547	1.141236
H541	H	0.336740	-0.621567	0.709837
H542	H	0.836740	-0.121567	1.209837
H543	H	0.093408	-0.418110	0.688821
H544	H	0.593408	0.081890	1.188821
H545	H	0.382132	-0.584293	0.642268
H546	H	0.882132	-0.084293	1.142268
O547	O	0.386699	-0.404848	0.571637
O548	O	0.886699	0.095152	1.071637
C549	C	0.404699	-0.322919	0.492017
C550	C	0.904699	0.177081	0.992017
C551	C	0.372221	-0.364683	0.522949
C552	C	0.872221	0.135317	1.022949
H553	H	0.392996	-0.290428	0.452653
H554	H	0.892996	0.209572	0.952653
H555	H	0.452012	-0.346859	0.479316
H556	H	0.952012	0.153141	0.979316
H557	H	0.393104	-0.300528	0.521211
H558	H	0.893104	0.199472	1.021211
H559	H	0.383769	-0.387085	0.493787
H560	H	0.883769	0.112915	0.993787
H561	H	0.324916	-0.340712	0.535659
H562	H	0.824916	0.159288	1.035659
O563	O	0.229934	-0.372409	0.551381
O564	O	0.729934	0.127591	1.051381
C565	C	0.275663	-0.366149	0.453591
C566	C	0.775663	0.133851	0.953591
C567	C	0.238333	-0.333690	0.495871
C568	C	0.738333	0.166310	0.995871
H569	H	0.282475	-0.334859	0.408703
H570	H	0.782475	0.165141	0.908703
H571	H	0.254024	-0.393801	0.460370
H572	H	0.754024	0.106199	0.960370
H573	H	0.318165	-0.393823	0.460407
H574	H	0.818165	0.106177	0.960407
H575	H	0.195824	-0.305985	0.489082
H576	H	0.695824	0.194015	0.989082
H577	H	0.260017	-0.306073	0.489082
H578	H	0.760017	0.193927	0.989082
O579	O	0.270191	-0.366090	0.610691
O580	O	0.770191	0.133910	1.110691
C581	C	0.203526	-0.294594	0.654237
C582	C	0.703526	0.205406	1.154237
C583	C	0.236061	-0.358002	0.663414
C584	C	0.736061	0.141998	1.163414
H585	H	0.175933	-0.288034	0.696856
H586	H	0.675933	0.211966	1.196856
H587	H	0.175803	-0.277939	0.628304
H588	H	0.675803	0.222061	1.128304
H589	H	0.234793	-0.270860	0.630751
H590	H	0.734793	0.229140	1.130751
H591	H	0.204834	-0.381782	0.686915
H592	H	0.704834	0.118218	1.186915
H593	H	0.263792	-0.374614	0.689323
H594	H	0.763792	0.125386	1.189323
H595	H	0.268446	-0.505593	0.601208
H596	H	0.768446	-0.005593	1.101208
O597	O	0.023897	-0.761576	0.352685
O598	O	0.523897	-0.261576	0.852685
C599	C	0.019379	-0.850037	0.370701
C600	C	0.519379	-0.350037	0.870701
C601	C	0.003781	-0.786136	0.338171
C602	C	0.503781	-0.286136	0.838171
H603	H	0.003133	-0.869915	0.358970
H604	H	0.503133	-0.369915	0.858970
H605	H	-0.000619	-0.857520	0.418007
H606	H	0.499381	-0.357520	0.918007
H607	H	0.067213	-0.869990	0.359179
H608	H	0.567213	-0.369990	0.859179
H609	H	-0.044045	-0.766141	0.349645
H610	H	0.455955	-0.266141	0.849645
H611	H	0.023820	-0.778693	0.290873
H612	H	0.523820	-0.278693	0.790873
O613	O	0.190990	-0.255981	0.512669
O614	O	0.690990	0.244019	1.012669
C615	C	0.156976	-0.189230	0.434473
C616	C	0.656976	0.310770	0.934473
C617	C	0.141350	-0.221750	0.498374
C618	C	0.641350	0.278250	0.998374
H619	H	0.116852	-0.161537	0.422898
H620	H	0.616852	0.338463	0.922898
H621	H	0.184603	-0.220460	0.410370
H622	H	0.684603	0.279540	0.910370
H623	H	0.181047	-0.161587	0.422852
H624	H	0.681047	0.338413	0.922852
H625	H	0.117259	-0.249393	0.510048
H626	H	0.617259	0.250607	1.010048
H627	H	0.113750	-0.190489	0.522442
H628	H	0.613750	0.309511	1.022442
H629	H	0.137197	-0.367895	0.732563
H630	H	0.637197	0.132105	1.232563
O631	O	0.096173	-0.256024	0.702870
O632	O	0.596173	0.243976	1.202870
C633	C	0.085630	-0.189275	0.736599
C634	C	0.585630	0.310725	1.236599
C635	C	0.122957	-0.221774	0.694355
C636	C	0.622957	0.278226	1.194355
H637	H	0.107264	-0.161568	0.729721
H638	H	0.607264	0.338432	1.229721
H639	H	0.078857	-0.220518	0.781511
H640	H	0.578857	0.279482	1.281511
H641	H	0.043111	-0.161648	0.729813
H642	H	0.543111	0.338352	1.229813
H643	H	0.165497	-0.249402	0.701089
H644	H	0.665497	0.250598	1.201089
H645	H	0.129683	-0.190500	0.649458
H646	H	0.629683	0.309500	1.149458
O647	O	-0.032395	-0.532516	0.431750
O648	O	0.467605	-0.032516	0.931750
C649	C	-0.082186	-0.438862	0.381706
C650	C	0.417814	0.061138	0.881706
C651	C	-0.066553	-0.502769	0.397476
C652	C	0.433447	-0.002769	0.897476
H653	H	-0.109815	-0.414793	0.354003
H654	H	0.390185	0.085207	0.854003
H655	H	-0.042079	-0.427275	0.357692
H656	H	0.457921	0.072725	0.857692
H657	H	-0.106271	-0.427209	0.421787
H658	H	0.393729	0.072791	0.921787
H659	H	-0.042482	-0.514468	0.357424
H660	H	0.457518	-0.014468	0.857424
H661	H	-0.106681	-0.514322	0.421512
H662	H	0.393319	-0.014322	0.921512
O663	O	0.062455	-0.722873	0.527154
O664	O	0.562455	-0.222873	1.027154
C665	C	0.108137	-0.820677	0.572985
C666	C	0.608137	-0.320677	1.072985
C667	C	0.070871	-0.778378	0.535509
C668	C	0.570871	-0.278378	1.035509
H669	H	0.114963	-0.865562	0.579742
H670	H	0.614963	-0.365562	1.079742
H671	H	0.086436	-0.813888	0.615504
H672	H	0.586436	-0.313888	1.115504
H673	H	0.150637	-0.813891	0.551417
H674	H	0.650637	-0.313891	1.051417
H675	H	0.028365	-0.785139	0.557028
H676	H	0.528365	-0.285139	1.057028
H677	H	0.092616	-0.785178	0.492992
H678	H	0.592616	-0.285178	0.992992
O679	O	0.070600	-0.754381	0.404731
O680	O	0.570600	-0.254381	0.904731
C681	C	0.167504	-0.760730	0.370795
C682	C	0.667504	-0.260730	0.870795
C683	C	0.125700	-0.793139	0.401585
C684	C	0.625700	-0.293139	0.901585
H685	H	0.212062	-0.792052	0.368232
H686	H	0.712062	-0.292052	0.868232
H687	H	0.155658	-0.733076	0.394963
H688	H	0.655658	-0.233076	0.894963
H689	H	0.165740	-0.733062	0.326356
H690	H	0.665740	-0.233062	0.826356
H691	H	0.127442	-0.820837	0.446025
H692	H	0.627442	-0.320837	0.946025
H693	H	0.137559	-0.820758	0.377374
H694	H	0.637559	-0.320758	0.877374
O695	O	0.062889	-0.722799	0.236207
O696	O	0.562889	-0.222799	0.736207
C697	C	0.073524	-0.756551	0.169426
C698	C	0.573524	-0.256551	0.669426
C699	C	0.036164	-0.714272	0.201888
C700	C	0.536164	-0.214272	0.701888
H701	H	0.051937	-0.749664	0.141663
H702	H	0.551937	-0.249664	0.641663
H703	H	0.080260	-0.801453	0.200692
H704	H	0.580260	-0.301453	0.700692
H705	H	0.116057	-0.749808	0.141862
H706	H	0.616057	-0.249808	0.641862
H707	H	-0.006390	-0.720963	0.229453
H708	H	0.493610	-0.220963	0.729453
H709	H	0.029474	-0.669385	0.170591
H710	H	0.529474	-0.169385	0.670591
H711	H	-0.029822	-0.541673	0.240758
H712	H	0.470178	-0.041673	0.740758
H713	H	0.021495	-0.752433	0.485928
H714	H	0.521495	-0.252433	0.985928
O715	O	-0.079289	-0.870468	0.515082
O716	O	0.420711	-0.370468	1.015082
C717	C	-0.148785	-0.888450	0.509777
C718	C	0.351215	-0.388450	1.009777
C719	C	-0.106931	-0.856084	0.478909
C720	C	0.393069	-0.356084	0.978909
H721	H	-0.171136	-0.876842	0.480541
H722	H	0.328864	-0.376842	0.980541
H723	H	-0.181295	-0.876736	0.549127
H724	H	0.318705	-0.376736	1.049127
H725	H	-0.124875	-0.935771	0.522506
H726	H	0.375125	-0.435771	1.022506
H727	H	-0.130793	-0.808756	0.466142
H728	H	0.369207	-0.308756	0.966142
H729	H	-0.074422	-0.867845	0.439584
H730	H	0.425578	-0.367845	0.939584
O731	O	-0.111693	-0.713824	0.535558
O732	O	0.388307	-0.213824	1.035558
C733	C	-0.118101	-0.759589	0.633393
C734	C	0.381899	-0.259589	1.133393
C735	C	-0.150475	-0.722210	0.591034
C736	C	0.349525	-0.222210	1.091034
H737	H	-0.149442	-0.766391	0.678253
H738	H	0.350558	-0.266391	1.178253
H739	H	-0.090451	-0.737991	0.626692
H740	H	0.409549	-0.237991	1.126692
H741	H	-0.090436	-0.802096	0.626586
H742	H	0.409564	-0.302096	1.126586
H743	H	-0.178170	-0.679697	0.597814
H744	H	0.321830	-0.179697	1.097814
H745	H	-0.178089	-0.743853	0.597745
H746	H	0.321911	-0.243853	1.097745
O747	O	-0.117918	-0.754006	0.476122
O748	O	0.382082	-0.254006	0.976122
C749	C	-0.189284	-0.687256	0.432416
C750	C	0.310716	-0.187256	0.932416
C751	C	-0.125903	-0.719854	0.423352
C752	C	0.374097	-0.219854	0.923352
H753	H	-0.195761	-0.659645	0.389759
H754	H	0.304239	-0.159645	0.889759
H755	H	-0.205966	-0.659540	0.458364
H756	H	0.294034	-0.159540	0.958364
H757	H	-0.213051	-0.718486	0.455841
H758	H	0.286949	-0.218486	0.955841
H759	H	-0.102089	-0.688665	0.399912
H760	H	0.397911	-0.188665	0.899912
H761	H	-0.109264	-0.747578	0.397428
H762	H	0.390736	-0.247578	0.897428
O763	O	-0.227773	-0.579905	0.383785
O764	O	0.272227	-0.079905	0.883785
C765	C	-0.294428	-0.569278	0.349883
C766	C	0.205572	-0.069278	0.849883
C767	C	-0.262015	-0.606644	0.392208
C768	C	0.237985	-0.106644	0.892208
H769	H	-0.322130	-0.590876	0.356687
H770	H	0.177870	-0.090876	0.856687
H771	H	-0.263132	-0.562517	0.305000
H772	H	0.236868	-0.062517	0.805000
H773	H	-0.322048	-0.526752	0.356655
H774	H	0.177952	-0.026752	0.856655
H775	H	-0.234395	-0.649191	0.385488
H776	H	0.265605	-0.149191	0.885488
H777	H	-0.293341	-0.613358	0.437076
H778	H	0.206659	-0.113358	0.937076
O779	O	-0.111286	-0.618858	0.345137
O780	O	0.388714	-0.118858	0.845137
C781	C	-0.093089	-0.623358	0.256594
C782	C	0.406911	-0.123358	0.756594
C783	C	-0.125683	-0.638979	0.320476
C784	C	0.374317	-0.138979	0.820476
H785	H	-0.104725	-0.639609	0.236635
H786	H	0.395275	-0.139609	0.736635
H787	H	-0.045794	-0.643342	0.249173
H788	H	0.454206	-0.143342	0.749173
H789	H	-0.104646	-0.575518	0.236674
H790	H	0.395354	-0.075518	0.736674
H791	H	-0.114173	-0.686811	0.340438
H792	H	0.385827	-0.186811	0.840438
H793	H	-0.172969	-0.618955	0.327857
H794	H	0.327031	-0.118955	0.827857
H795	H	-0.065797	-0.577331	0.398207
H796	H	0.434203	-0.077331	0.898207
H797	H	-0.223425	-0.672650	0.564976
H798	H	0.276575	-0.172650	1.064976
H799	H	0.100203	-0.866125	0.444882
H800	H	0.600203	-0.366125	0.944882
