data_functionalizedCrystal
_audit_creation_method	'MofGen! by Chris Wilmer'
_symmetry_space_group_name_H-M	'P1'
_symmetry_Int_Tables_number	1
_symmetry_cell_setting	triclinic
loop_
_symmetry_equiv_pos_as_xyz
  x,y,z
_cell_length_a	14.908993
_cell_length_b	19.077068
_cell_length_c	19.077569
_cell_angle_alpha	89.935763
_cell_angle_beta	91.113091
_cell_angle_gamma	84.510225
loop_
_atom_site_label
_atom_site_type_symbol
_atom_site_fract_x
_atom_site_fract_y
_atom_site_fract_z
Zn1	Zn	1.386330	0.203937	-0.343809
Zn2	Zn	1.636330	0.453937	-0.093809
Zn3	Zn	1.886330	0.703937	0.156191
Zn4	Zn	2.136330	0.953937	0.406191
Zn5	Zn	1.374117	0.326694	-0.231585
Zn6	Zn	1.624117	0.576694	0.018415
Zn7	Zn	1.874117	0.826694	0.268415
Zn8	Zn	2.124117	1.076694	0.518415
Zn9	Zn	1.229209	0.215461	-0.233652
Zn10	Zn	1.479209	0.465461	0.016348
Zn11	Zn	1.729209	0.715461	0.266348
Zn12	Zn	1.979209	0.965461	0.516348
Zn13	Zn	1.229639	0.328178	-0.355799
Zn14	Zn	1.479639	0.578178	-0.105799
Zn15	Zn	1.729639	0.828178	0.144201
Zn16	Zn	1.979639	1.078178	0.394201
O17	O	1.304824	0.268568	-0.291211
O18	O	1.554824	0.518568	-0.041211
O19	O	1.804824	0.768568	0.208789
O20	O	2.054824	1.018568	0.458789
O21	O	1.510931	0.214777	-0.323040
O22	O	1.760931	0.464777	-0.073040
O23	O	2.010931	0.714777	0.176960
O24	O	2.260931	0.964777	0.426960
O25	O	1.349604	0.316141	-0.133774
O26	O	1.599604	0.566141	0.116226
O27	O	1.849604	0.816141	0.366226
O28	O	2.099604	1.066141	0.616226
O29	O	1.254983	0.115386	-0.244111
O30	O	1.504983	0.365386	0.005889
O31	O	1.754983	0.615386	0.255889
O32	O	2.004983	0.865386	0.505889
O33	O	1.501958	0.304966	-0.240589
O34	O	1.751958	0.554966	0.009411
O35	O	2.001958	0.804966	0.259411
O36	O	2.251958	1.054966	0.509411
O37	O	1.370419	0.106919	-0.325044
O38	O	1.620419	0.356919	-0.075044
O39	O	1.870419	0.606919	0.174956
O40	O	2.120419	0.856919	0.424956
O41	O	1.243140	0.234419	-0.135292
O42	O	1.493140	0.484419	0.114708
O43	O	1.743140	0.734419	0.364708
O44	O	1.993140	0.984419	0.614708
O45	O	1.103046	0.235857	-0.255737
O46	O	1.353046	0.485857	-0.005737
O47	O	1.603046	0.735857	0.244263
O48	O	1.853046	0.985857	0.494263
O49	O	1.255716	0.307495	-0.452294
O50	O	1.505716	0.557495	-0.202294
O51	O	1.755716	0.807495	0.047706
O52	O	2.005716	1.057495	0.297706
O53	O	1.103362	0.318669	-0.345478
O54	O	1.353362	0.568669	-0.095478
O55	O	1.603362	0.818669	0.154522
O56	O	1.853362	1.068669	0.404522
O57	O	1.370836	0.216215	-0.443485
O58	O	1.620836	0.466215	-0.193485
O59	O	1.870836	0.716215	0.056515
O60	O	2.120836	0.966215	0.306515
O61	O	1.350020	0.425438	-0.252215
O62	O	1.600020	0.675438	-0.002215
O63	O	1.850020	0.925438	0.247785
O64	O	2.100020	1.175438	0.497785
O65	O	1.243873	0.426528	-0.343474
O66	O	1.493873	0.676528	-0.093474
O67	O	1.743873	0.926528	0.156526
O68	O	1.993873	1.176528	0.406526
C69	C	1.070476	0.278675	-0.302134
C70	C	1.320476	0.528675	-0.052134
C71	C	1.570476	0.778675	0.197866
C72	C	1.820476	1.028675	0.447866
C73	C	0.970221	0.283016	-0.306824
C74	C	1.220221	0.533016	-0.056824
C75	C	1.470221	0.783016	0.193176
C76	C	1.720221	1.033016	0.443176
C77	C	0.781464	0.204799	-0.222309
C78	C	1.031464	0.454799	0.027691
C79	C	1.281464	0.704799	0.277691
C80	C	1.531464	0.954799	0.527691
C81	C	0.687265	0.208875	-0.226713
C82	C	0.937265	0.458875	0.023287
C83	C	1.187265	0.708875	0.273287
C84	C	1.437265	0.958875	0.523287
C85	C	0.687623	0.295247	-0.320033
C86	C	0.937623	0.545247	-0.070033
C87	C	1.187623	0.795247	0.179967
C88	C	1.437623	1.045247	0.429967
C89	C	0.781822	0.291171	-0.315628
C90	C	1.031822	0.541171	-0.065628
C91	C	1.281822	0.791171	0.184372
C92	C	1.531822	1.041171	0.434372
C93	C	0.828739	0.245945	-0.266766
C94	C	1.078739	0.495945	-0.016766
C95	C	1.328739	0.745945	0.233234
C96	C	1.578739	0.995945	0.483234
C97	C	0.922940	0.241865	-0.262365
C98	C	1.172940	0.491865	-0.012365
C99	C	1.422940	0.741865	0.237635
C100	C	1.672940	0.991865	0.487635
C101	C	0.923295	0.328241	-0.355681
C102	C	1.173295	0.578241	-0.105681
C103	C	1.423295	0.828241	0.144319
C104	C	1.673295	1.078241	0.394319
C105	C	0.829097	0.332317	-0.360085
C106	C	1.079097	0.582317	-0.110085
C107	C	1.329097	0.832317	0.139915
C108	C	1.579097	1.082317	0.389915
C109	C	1.295693	0.451533	-0.298936
C110	C	1.545693	0.701533	-0.048936
C111	C	1.795693	0.951533	0.201064
C112	C	2.045693	1.201533	0.451064
C113	C	1.291871	0.529802	-0.302260
C114	C	1.541871	0.779802	-0.052260
C115	C	1.791871	1.029802	0.197740
C116	C	2.041871	1.279802	0.447740
C117	C	1.314686	0.260735	-0.474033
C118	C	1.564686	0.510735	-0.224033
C119	C	1.814686	0.760735	0.025967
C120	C	2.064686	1.010735	0.275967
C121	C	1.318889	0.257397	-0.551940
C122	C	1.568889	0.507397	-0.301940
C123	C	1.818889	0.757397	-0.051940
C124	C	2.068889	1.007397	0.198060
C125	C	1.540087	0.258421	-0.280247
C126	C	1.790087	0.508421	-0.030247
C127	C	2.040087	0.758421	0.219753
C128	C	2.290087	1.008421	0.469753
C129	C	1.640342	0.254097	-0.275574
C130	C	1.890342	0.504097	-0.025574
C131	C	2.140342	0.754097	0.224426
C132	C	2.390342	1.004097	0.474426
C133	C	1.314015	0.084886	-0.283471
C134	C	1.564015	0.334886	-0.033471
C135	C	1.814015	0.584886	0.216529
C136	C	2.064015	0.834886	0.466529
C137	C	1.317932	0.006612	-0.280172
C138	C	1.567932	0.256612	-0.030172
C139	C	1.817932	0.506612	0.219828
C140	C	2.067932	0.756612	0.469828
C141	C	1.345388	0.565978	-0.256343
C142	C	1.595388	0.815978	-0.006343
C143	C	1.845388	1.065978	0.243657
C144	C	2.095388	1.315978	0.493657
C145	C	1.341798	0.639520	-0.259473
C146	C	1.591798	0.889520	-0.009473
C147	C	1.841798	1.139520	0.240527
C148	C	2.091798	1.389520	0.490527
C149	C	1.284687	0.676884	-0.308518
C150	C	1.534687	0.926884	-0.058518
C151	C	1.784687	1.176884	0.191482
C152	C	2.034687	1.426884	0.441482
C153	C	1.231168	0.640702	-0.354440
C154	C	1.481168	0.890702	-0.104440
C155	C	1.731168	1.140702	0.145560
C156	C	1.981168	1.390702	0.395560
C157	C	1.234763	0.567161	-0.351312
C158	C	1.484763	0.817161	-0.101312
C159	C	1.734763	1.067161	0.148688
C160	C	1.984763	1.317161	0.398688
C161	C	1.268009	0.896890	-0.322966
C162	C	1.518009	1.146890	-0.072966
C163	C	1.768009	1.396890	0.177034
C164	C	2.018009	1.646890	0.427034
C165	C	1.264416	0.970435	-0.326089
C166	C	1.514416	1.220435	-0.076089
C167	C	1.764416	1.470435	0.173911
C168	C	2.014416	1.720435	0.423911
C169	C	1.375047	0.969248	-0.231123
C170	C	1.625047	1.219248	0.018877
C171	C	1.875047	1.469248	0.268877
C172	C	2.125047	1.719248	0.518877
C173	C	1.378633	0.895707	-0.227997
C174	C	1.628633	1.145707	0.022003
C175	C	1.878633	1.395707	0.272003
C176	C	2.128633	1.645707	0.522003
C177	C	1.325118	0.859531	-0.273921
C178	C	1.575118	1.109531	-0.023921
C179	C	1.825118	1.359531	0.226079
C180	C	2.075118	1.609531	0.476079
N181	N	1.281014	0.752055	-0.311717
N182	N	1.531014	1.002055	-0.061717
N183	N	1.781014	1.252055	0.188283
N184	N	2.031014	1.502055	0.438283
N185	N	1.328796	0.784361	-0.270725
N186	N	1.578796	1.034361	-0.020725
N187	N	1.828796	1.284361	0.229275
N188	N	2.078796	1.534361	0.479275
C189	C	1.260928	0.303350	-0.593129
C190	C	1.510928	0.553350	-0.343129
C191	C	1.760928	0.803350	-0.093129
C192	C	2.010928	1.053350	0.156871
C193	C	1.264884	0.300213	-0.666331
C194	C	1.514884	0.550213	-0.416331
C195	C	1.764884	0.800213	-0.166331
C196	C	2.014884	1.050213	0.083669
C197	C	1.326798	0.251120	-0.698343
C198	C	1.576798	0.501120	-0.448343
C199	C	1.826798	0.751120	-0.198343
C200	C	2.076798	1.001120	0.051657
C201	C	1.384766	0.205165	-0.657149
C202	C	1.634766	0.455165	-0.407149
C203	C	1.884766	0.705165	-0.157149
C204	C	2.134766	0.955165	0.092851
C205	C	1.380813	0.208306	-0.583949
C206	C	1.630813	0.458306	-0.333949
C207	C	1.880813	0.708306	-0.083949
C208	C	2.130813	0.958306	0.166051
C209	C	1.345051	0.236635	-0.916778
C210	C	1.595051	0.486635	-0.666778
C211	C	1.845051	0.736635	-0.416778
C212	C	2.095051	0.986635	-0.166778
C213	C	1.348997	0.233496	-0.989984
C214	C	1.598997	0.483496	-0.739984
C215	C	1.848997	0.733496	-0.489984
C216	C	2.098997	0.983496	-0.239984
C217	C	1.229117	0.328545	-0.999161
C218	C	1.479117	0.578545	-0.749161
C219	C	1.729117	0.828545	-0.499161
C220	C	1.979117	1.078545	-0.249161
C221	C	1.225166	0.331678	-0.925958
C222	C	1.475166	0.581678	-0.675958
C223	C	1.725166	0.831678	-0.425958
C224	C	1.975166	1.081678	-0.175958
C225	C	1.283136	0.285726	-0.884771
C226	C	1.533136	0.535726	-0.634771
C227	C	1.783136	0.785726	-0.384771
C228	C	2.033136	1.035726	-0.134771
N229	N	1.330842	0.247911	-0.773167
N230	N	1.580842	0.497911	-0.523167
N231	N	1.830842	0.747911	-0.273167
N232	N	2.080842	0.997911	-0.023167
N233	N	1.279096	0.288939	-0.809948
N234	N	1.529096	0.538939	-0.559948
N235	N	1.779096	0.788939	-0.309948
N236	N	2.029096	1.038939	-0.059948
C237	C	1.295054	0.276317	-0.109096
C238	C	1.545054	0.526317	0.140904
C239	C	1.795054	0.776317	0.390904
C240	C	2.045054	1.026317	0.640904
C241	C	1.291036	0.279449	-0.031173
C242	C	1.541036	0.529449	0.218827
C243	C	1.791036	0.779449	0.468827
C244	C	2.041036	1.029449	0.718827
H245	H	0.961138	0.205035	-0.222583
H246	H	1.211138	0.455035	0.027417
H247	H	1.461138	0.705035	0.277417
H248	H	1.711138	0.955035	0.527417
H249	H	1.174763	0.371666	-0.899899
H250	H	1.424763	0.621666	-0.649899
H251	H	1.674763	0.871666	-0.399899
H252	H	1.924763	1.121666	-0.149899
F253	F	0.973617	0.372023	-0.403008
F254	F	1.223617	0.622023	-0.153008
F255	F	1.473617	0.872023	0.096992
F256	F	1.723617	1.122023	0.346992
F257	F	1.432002	1.007754	-0.182254
F258	F	1.682002	1.257754	0.067746
F259	F	1.932002	1.507754	0.317746
F260	F	2.182002	1.757754	0.567746
F261	F	1.406168	0.526220	-0.204138
F262	F	1.656168	0.776220	0.045862
F263	F	1.906168	1.026220	0.295862
F264	F	2.156168	1.276220	0.545862
F265	F	1.398761	0.678018	-0.210604
F266	F	1.648761	0.928018	0.039396
F267	F	1.898761	1.178018	0.289396
F268	F	2.148761	1.428018	0.539396
F269	F	1.439429	0.855946	-0.175804
F270	F	1.689429	1.105946	0.074196
F271	F	1.939429	1.355946	0.324196
F272	F	2.189429	1.605946	0.574196
H273	H	0.649407	0.332075	-0.359808
H274	H	0.899407	0.582075	-0.109808
H275	H	1.149407	0.832075	0.140192
H276	H	1.399407	1.082075	0.390192
F277	F	0.636955	0.165083	-0.179395
F278	F	0.886955	0.415083	0.070605
F279	F	1.136955	0.665083	0.320605
F280	F	1.386955	0.915083	0.570605
H281	H	1.181921	0.365957	-1.032703
H282	H	1.431921	0.615957	-0.782703
H283	H	1.681921	0.865957	-0.532703
H284	H	1.931921	1.115957	-0.282703
F285	F	1.203618	1.010200	-0.378285
F286	F	1.453618	1.260200	-0.128285
F287	F	1.703618	1.510200	0.121715
F288	F	1.953618	1.760200	0.371715
H289	H	0.819665	0.167965	-0.182531
H290	H	1.069665	0.417965	0.067469
H291	H	1.319665	0.667965	0.317469
H292	H	1.569665	0.917965	0.567469
F293	F	1.442506	0.159399	-0.540113
F294	F	1.692506	0.409399	-0.290113
F295	F	1.942506	0.659399	-0.040113
F296	F	2.192506	0.909399	0.209887
H297	H	1.210500	0.343319	-0.567070
H298	H	1.460500	0.593319	-0.317070
H299	H	1.710500	0.843319	-0.067070
H300	H	1.960500	1.093319	0.182930
F301	F	0.779154	0.380455	-0.412078
F302	F	1.029154	0.630455	-0.162078
F303	F	1.279154	0.880455	0.087922
F304	F	1.529154	1.130455	0.337922
H305	H	1.224433	0.867441	-0.360359
H306	H	1.474433	1.117441	-0.110359
H307	H	1.724433	1.367441	0.139641
H308	H	1.974433	1.617441	0.389641
F309	F	1.170391	0.680469	-0.406641
F310	F	1.420391	0.930469	-0.156641
F311	F	1.670391	1.180469	0.093359
F312	F	1.920391	1.430469	0.343359
H313	H	1.392255	0.199217	-0.883252
H314	H	1.642255	0.449217	-0.633252
H315	H	1.892255	0.699217	-0.383252
H316	H	2.142255	0.949217	-0.133252
F317	F	1.177806	0.528660	-0.400185
F318	F	1.427806	0.778660	-0.150185
F319	F	1.677806	1.028660	0.099815
F320	F	1.927806	1.278660	0.349815
F321	F	1.203200	0.349127	-0.710164
F322	F	1.453200	0.599127	-0.460164
F323	F	1.703200	0.849127	-0.210164
F324	F	1.953200	1.099127	0.039836
F325	F	1.414868	0.181219	-1.024053
F326	F	1.664868	0.431219	-0.774053
F327	F	1.914868	0.681219	-0.524053
F328	F	2.164868	0.931219	-0.274053
H329	H	1.435181	0.165196	-0.683220
H330	H	1.685181	0.415196	-0.433220
H331	H	1.935181	0.665196	-0.183220
H332	H	2.185181	0.915196	0.066780
