data_functionalizedCrystal
_audit_creation_method	'MofGen! by Chris Wilmer'
_symmetry_space_group_name_H-M	'P1'
_symmetry_Int_Tables_number	1
_symmetry_cell_setting	triclinic
loop_
_symmetry_equiv_pos_as_xyz
  x,y,z
_cell_length_a	14.044220
_cell_length_b	19.288859
_cell_length_c	17.766277
_cell_angle_alpha	89.989768
_cell_angle_beta	90.004722
_cell_angle_gamma	91.838698
loop_
_atom_site_label
_atom_site_type_symbol
_atom_site_fract_x
_atom_site_fract_y
_atom_site_fract_z
O1	O	-0.118186	0.928949	-0.062608
O2	O	-0.134139	0.727713	-0.062606
O3	O	0.011809	0.825311	-0.062603
O4	O	-0.264135	0.831352	-0.062610
O5	O	0.011816	0.825292	0.062585
O6	O	-0.134132	0.727694	0.062583
O7	O	-0.118179	0.928930	0.062581
Cu8	Cu	-0.126155	0.828310	0.074012
Cu9	Cu	-0.126164	0.828333	-0.074037
O10	O	-0.264127	0.831333	0.062578
C11	C	-0.133623	0.701794	-0.000011
C12	C	-0.132085	0.624592	-0.000011
C13	C	-0.207317	0.065385	-0.000013
C14	C	-0.208771	0.137924	-0.000017
C15	C	-0.123135	0.177129	-0.000014
C16	C	-0.036039	0.143788	-0.000026
C17	C	-0.034588	0.071249	-0.000029
C18	C	-0.059266	0.294289	0.043849
C19	C	-0.060720	0.366826	0.043858
C20	C	-0.127606	0.400862	-0.000006
C21	C	-0.193054	0.362352	-0.043869
C22	C	-0.191603	0.289813	-0.043872
C23	C	-0.124698	0.255785	-0.000011
C24	C	-0.216272	0.512851	-0.000004
C25	C	-0.217722	0.585392	-0.000013
C26	C	-0.044988	0.591254	-0.000014
C27	C	-0.043541	0.518714	-0.000012
C28	C	-0.129186	0.479517	-0.000004
C29	C	-0.299434	0.833987	-0.000017
C30	C	-0.404626	0.841874	-0.000020
C31	C	-0.597225	0.856295	-0.000016
C32	C	-0.655099	0.800352	-0.000015
C33	C	-0.762268	0.808375	-0.000013
C34	C	-0.490046	0.848272	-0.000018
C35	C	0.047115	0.822657	-0.000010
C36	C	0.152307	0.814769	-0.000012
C37	C	-0.118695	0.954849	-0.000015
C38	C	-0.120233	1.032052	-0.000021
N39	N	-0.126148	0.828299	0.178143
N40	N	-0.126163	0.828349	-0.178168
C41	C	-0.061554	0.871533	0.217531
C42	C	-0.061549	0.871537	0.296333
C43	C	-0.126156	0.828315	0.335743
C44	C	-0.190755	0.785073	0.296346
C45	C	-0.190751	0.785065	0.217546
C46	C	-0.212499	0.824563	0.460579
C47	C	-0.212504	0.824576	0.539378
C48	C	-0.126167	0.828334	0.578790
C49	C	-0.039821	0.832094	0.539393
C50	C	-0.039818	0.832086	0.460592
C51	C	-0.126167	0.828318	0.421189
C52	C	-0.061563	0.871574	0.703624
C53	C	-0.061557	0.871572	0.782427
C54	C	-0.190771	0.785112	0.782439
C55	C	-0.190768	0.785109	0.703637
C56	C	-0.126165	0.828344	0.664234
H57	H	-0.247521	0.390062	-0.079585
H58	H	-0.624160	0.746431	-0.000014
O59	O	-0.311660	0.621340	-0.000002
H60	H	-0.316474	0.654251	-0.051029
O61	O	-0.299690	0.023110	-0.000014
H62	H	-0.303158	-0.010085	0.051012
O63	O	-0.638204	0.927715	-0.000014
H64	H	-0.579278	0.967463	-0.000020
O65	O	0.059347	0.035298	-0.000027
H66	H	0.064140	0.002400	-0.051054
H67	H	-0.004794	0.266583	0.079570
H68	H	-0.008948	0.906735	0.185451
O69	O	0.008106	0.918213	0.824916
H70	H	0.053015	0.948280	0.784275
H71	H	-0.244891	0.258461	-0.079588
H72	H	0.024738	0.623174	-0.000017
O73	O	0.008112	0.918176	0.338831
H74	H	0.053029	0.948242	0.298192
O75	O	0.053303	0.836129	0.418096
H76	H	0.113342	0.838738	0.458734
O77	O	-0.302700	0.173890	0.000002
H78	H	-0.362009	0.134447	0.000013
O79	O	0.053311	0.836141	0.581886
H80	H	0.038807	0.835505	0.643300
O81	O	0.056329	0.186066	-0.000014
H82	H	0.040690	0.242108	0.000000
H83	H	-0.008956	0.906776	0.671541
O84	O	-0.260459	0.738493	0.824933
H85	H	-0.249615	0.745764	0.886346
H86	H	-0.243352	0.749858	0.185475
O87	O	-0.260449	0.738488	0.661146
H88	H	-0.305380	0.708437	0.701787
H89	H	-0.282811	0.821519	0.571449
O90	O	-0.305625	0.820515	0.418072
H91	H	-0.365664	0.817915	0.458703
O92	O	-0.260452	0.738460	0.338843
H93	H	-0.220692	0.702245	0.374769
O94	O	-0.308639	0.470565	-0.000008
H95	H	-0.369441	0.505934	-0.000017
O96	O	0.050386	0.482755	-0.000003
H97	H	0.109692	0.522201	0.000008
H98	H	-0.007433	0.398176	0.079577
