data_functionalizedCrystal
_audit_creation_method	'MofGen! by Chris Wilmer'
_symmetry_space_group_name_H-M	'P1'
_symmetry_Int_Tables_number	1
_symmetry_cell_setting	triclinic
loop_
_symmetry_equiv_pos_as_xyz
  x,y,z
_cell_length_a	12.594517
_cell_length_b	25.639240
_cell_length_c	25.639234
_cell_angle_alpha	89.967912
_cell_angle_beta	89.988952
_cell_angle_gamma	90.028646
loop_
_atom_site_label
_atom_site_type_symbol
_atom_site_fract_x
_atom_site_fract_y
_atom_site_fract_z
Zn1	Zn	1.627139	-0.208240	-0.295461
Zn2	Zn	2.127139	0.291760	0.204539
Zn3	Zn	1.626979	-0.295668	-0.208014
Zn4	Zn	2.126979	0.204332	0.291986
Zn5	Zn	1.449144	-0.208242	-0.208053
Zn6	Zn	1.949144	0.291758	0.291947
Zn7	Zn	1.449073	-0.295640	-0.295432
Zn8	Zn	1.949073	0.204360	0.204568
O9	O	1.538084	-0.251948	-0.251740
O10	O	2.038084	0.248052	0.248260
O11	O	1.776063	-0.219848	-0.283857
O12	O	2.276063	0.280152	0.216143
O13	O	1.603352	-0.284084	-0.134854
O14	O	2.103352	0.215916	0.365146
O15	O	1.472852	-0.135077	-0.219676
O16	O	1.972852	0.364923	0.280324
O17	O	1.775946	-0.284082	-0.219610
O18	O	2.275946	0.215918	0.280390
O19	O	1.603624	-0.135075	-0.283894
O20	O	2.103624	0.364925	0.216106
O21	O	1.472697	-0.219852	-0.134882
O22	O	1.972697	0.280148	0.365118
O23	O	1.300189	-0.219825	-0.219648
O24	O	1.800189	0.280175	0.280352
O25	O	1.472731	-0.284033	-0.368601
O26	O	1.972731	0.215967	0.131399
O27	O	1.300137	-0.284036	-0.283845
O28	O	1.800137	0.215964	0.216155
O29	O	1.603555	-0.219821	-0.368622
O30	O	2.103555	0.280179	0.131378
O31	O	1.603283	-0.368830	-0.219582
O32	O	2.103283	0.131170	0.280418
O33	O	1.472576	-0.368809	-0.283808
O34	O	1.972576	0.131191	0.216192
C35	C	1.261543	-0.251928	-0.251748
C36	C	1.761543	0.248072	0.248252
C37	C	1.143237	-0.251932	-0.251764
C38	C	1.643237	0.248068	0.248236
C39	C	1.073987	-0.286925	-0.286613
C40	C	1.573987	0.213075	0.213387
C41	C	1.003206	-0.239256	-0.299483
C42	C	1.503206	0.260744	0.200517
C43	C	1.003219	-0.299640	-0.238882
C44	C	1.503219	0.200360	0.261118
C45	C	1.074015	-0.204238	-0.264659
C46	C	1.574015	0.295762	0.235341
C47	C	1.074034	-0.264654	-0.204035
C48	C	1.574034	0.235346	0.295965
C49	C	1.003285	-0.216953	-0.216887
C50	C	1.503285	0.283047	0.283113
C51	C	1.537933	-0.387790	-0.251699
C52	C	2.037933	0.112210	0.248301
C53	C	1.537966	-0.445904	-0.251699
C54	C	2.037966	0.054096	0.248301
C55	C	1.606210	-0.806228	-0.285239
C56	C	2.106210	-0.306228	0.214761
C57	C	1.606242	-0.860832	-0.285249
C58	C	2.106242	-0.360832	0.214751
O59	O	1.664087	-0.889036	-0.313724
O60	O	2.164087	-0.389036	0.186276
N61	N	1.538231	-0.888187	-0.251790
N62	N	2.038231	-0.388187	0.248210
C63	C	1.470177	-0.860934	-0.218323
C64	C	1.970177	-0.360934	0.281677
O65	O	1.412331	-0.889215	-0.189864
O66	O	1.912331	-0.389215	0.310136
C67	C	1.470141	-0.806331	-0.218315
C68	C	1.970141	-0.306331	0.281685
C69	C	1.538164	-0.778979	-0.251772
C70	C	2.038164	-0.278979	0.248228
C71	C	1.674227	-0.778876	-0.318694
C72	C	2.174227	-0.278876	0.181306
C73	C	1.674196	-0.724276	-0.318682
C74	C	2.174196	-0.224276	0.181318
C75	C	1.606150	-0.697027	-0.285216
C76	C	2.106150	-0.197027	0.214784
C77	C	1.538134	-0.724379	-0.251761
C78	C	2.038134	-0.224379	0.248239
C79	C	1.402083	-0.779079	-0.184850
C80	C	1.902083	-0.279079	0.315150
C81	C	1.402052	-0.724472	-0.184846
C82	C	1.902052	-0.224472	0.315154
C83	C	1.470075	-0.697120	-0.218303
C84	C	1.970075	-0.197120	0.281697
C85	C	1.470057	-0.642529	-0.218283
C86	C	1.970057	-0.142529	0.281717
N87	N	1.538068	-0.615175	-0.251742
N88	N	2.038068	-0.115175	0.248258
C89	C	1.606114	-0.642424	-0.285208
C90	C	2.106114	-0.142424	0.214792
C91	C	1.470257	-0.975605	-0.218342
C92	C	1.970257	-0.475605	0.281658
C93	C	1.470297	-1.030207	-0.218346
C94	C	1.970297	-0.530207	0.281654
C95	C	1.606361	-1.030101	-0.285274
C96	C	2.106361	-0.530101	0.214726
C97	C	1.606325	-0.975498	-0.285266
C98	C	2.106325	-0.475498	0.214734
C99	C	1.538267	-0.948250	-0.251801
C100	C	2.038267	-0.448250	0.248199
C101	C	1.606046	-0.527759	-0.285181
C102	C	2.106046	-0.027759	0.214819
C103	C	1.606013	-0.473153	-0.285165
C104	C	2.106013	0.026847	0.214835
C105	C	1.469946	-0.473263	-0.218240
C106	C	1.969946	0.026737	0.281760
C107	C	1.469983	-0.527864	-0.218254
C108	C	1.969983	-0.027864	0.281746
C109	C	1.538036	-0.555110	-0.251729
C110	C	2.038036	-0.055110	0.248271
O111	O	1.412239	-0.614291	-0.189824
O112	O	1.912239	-0.114291	0.310176
O113	O	1.663940	-0.614136	-0.313666
O114	O	2.163940	-0.114136	0.186334
C115	C	1.815704	-0.251968	-0.251732
C116	C	2.315704	0.248032	0.248268
C117	C	1.934010	-0.251977	-0.251729
C118	C	2.434010	0.248023	0.248271
C119	C	1.538153	-0.251924	-0.388113
C120	C	2.038153	0.248076	0.111887
C121	C	1.538182	-0.251914	-0.446227
C122	C	2.038182	0.248086	0.053773
C123	C	1.538264	-0.115575	-0.251793
C124	C	2.038264	0.384425	0.248207
C125	C	1.538340	-0.057461	-0.251815
C126	C	2.038340	0.442539	0.248185
C127	C	1.470180	-0.218406	-0.806611
C128	C	1.970180	0.281594	-0.306611
C129	C	1.470186	-0.218397	-0.861215
C130	C	1.970186	0.281603	-0.361215
O131	O	1.412315	-0.189965	-0.889469
O132	O	1.912315	0.310035	-0.389469
N133	N	1.538218	-0.251832	-0.888510
N134	N	2.038218	0.248168	-0.388510
C135	C	1.606240	-0.285282	-0.861197
C136	C	2.106240	0.214718	-0.361197
O137	O	1.664106	-0.313721	-0.889428
O138	O	2.164106	0.186279	-0.389428
C139	C	1.606228	-0.285294	-0.806594
C140	C	2.106228	0.214706	-0.306594
C141	C	1.538200	-0.251853	-0.779302
C142	C	2.038200	0.248147	-0.279302
C143	C	1.402157	-0.184968	-0.779318
C144	C	1.902157	0.315032	-0.279318
C145	C	1.402153	-0.184977	-0.724718
C146	C	1.902153	0.315023	-0.224718
C147	C	1.470172	-0.218424	-0.697409
C148	C	1.970172	0.281576	-0.197409
C149	C	1.538196	-0.251862	-0.724702
C150	C	2.038196	0.248138	-0.224702
C151	C	1.674245	-0.318746	-0.779283
C152	C	2.174245	0.181254	-0.279283
C153	C	1.674227	-0.318756	-0.724676
C154	C	2.174227	0.181244	-0.224676
C155	C	1.606198	-0.285315	-0.697384
C156	C	2.106198	0.214685	-0.197384
C157	C	1.606212	-0.285317	-0.642792
C158	C	2.106212	0.214683	-0.142792
N159	N	1.538180	-0.251882	-0.615498
N160	N	2.038180	0.248118	-0.115498
C161	C	1.470160	-0.218436	-0.642806
C162	C	1.970160	0.281564	-0.142806
C163	C	1.606259	-0.285256	-0.975868
C164	C	2.106259	0.214744	-0.475868
C165	C	1.606277	-0.285242	-1.030470
C166	C	2.106277	0.214758	-0.530470
C167	C	1.470221	-0.218357	-1.030484
C168	C	1.970221	0.281643	-0.530484
C169	C	1.470209	-0.218368	-0.975881
C170	C	1.970209	0.281632	-0.475881
C171	C	1.538227	-0.251821	-0.948573
C172	C	2.038227	0.248179	-0.448573
C173	C	1.470158	-0.218457	-0.528141
C174	C	1.970158	0.281543	-0.028141
C175	C	1.470163	-0.218467	-0.473536
C176	C	1.970163	0.281533	0.026464
C177	C	1.606214	-0.285354	-0.473527
C178	C	2.106214	0.214646	0.026473
C179	C	1.606214	-0.285341	-0.528127
C180	C	2.106214	0.214659	-0.028127
C181	C	1.538177	-0.251891	-0.555433
C182	C	2.038177	0.248109	-0.055433
O183	O	1.664050	-0.313736	-0.614504
O184	O	2.164050	0.186264	-0.114504
O185	O	1.412294	-0.190007	-0.614569
O186	O	1.912294	0.309993	-0.114569
C187	C	1.538076	-0.251934	-0.115897
C188	C	2.038076	0.248066	0.384103
C189	C	1.538253	-0.251797	-0.057784
C190	C	2.038253	0.248203	0.442216
H191	H	1.105034	-0.316460	-0.316122
H192	H	1.605034	0.183540	0.183878
Br193	Br	0.951352	-0.221344	-0.366731
Br194	Br	1.451352	0.278656	0.133269
Br195	Br	1.309758	-0.816185	-0.139442
Br196	Br	1.809758	-0.316185	0.360558
H197	H	1.661766	-1.052297	-0.312525
H198	H	2.161766	-0.552297	0.187475
Br199	Br	1.698644	-0.938384	-0.330674
Br200	Br	2.198644	-0.438384	0.169326
H201	H	1.414602	-0.550135	-0.191006
H202	H	1.914602	-0.050135	0.308994
H203	H	1.661661	-0.312493	-0.953638
H204	H	2.161661	0.187507	-0.453638
Br205	Br	1.766568	-0.364137	-0.816308
Br206	Br	2.266568	0.135863	-0.316308
H207	H	1.414918	-1.052472	-0.191096
H208	H	1.914918	-0.552472	0.308904
Br209	Br	1.125621	-0.137001	-0.282870
Br210	Br	1.625621	0.362999	0.217130
H211	H	1.414546	-0.451069	-0.190990
H212	H	1.914546	0.048931	0.309010
H213	H	0.972116	-0.339968	-0.228003
H214	H	1.472116	0.160032	0.271997
H215	H	0.972437	-0.187346	-0.187402
H216	H	1.472437	0.312654	0.312598
Br217	Br	1.698406	-0.564727	-0.330611
Br218	Br	2.198406	-0.064727	0.169389
Br219	Br	1.125887	-0.282576	-0.136793
Br220	Br	1.625887	0.217424	0.363207
Br221	Br	1.698339	-0.436036	-0.330573
Br222	Br	2.198339	0.063964	0.169427
Br223	Br	1.766510	-0.687164	-0.364095
Br224	Br	2.266510	-0.187164	0.135905
Br225	Br	1.377837	-0.173077	-0.436500
Br226	Br	1.877837	0.326923	0.063500
H227	H	1.414756	-0.191218	-0.550367
H228	H	1.914756	0.308782	-0.050367
H229	H	1.729638	-0.801057	-0.345949
H230	H	2.229638	-0.301057	0.154051
Br231	Br	1.377890	-0.938631	-0.172917
Br232	Br	1.877890	-0.438631	0.327083
H233	H	1.346628	-0.702289	-0.157594
H234	H	1.846628	-0.202289	0.342406
Br235	Br	1.309818	-0.139593	-0.687687
Br236	Br	1.809818	0.360407	-0.187687
Br237	Br	1.309815	-0.139578	-0.816370
Br238	Br	1.809815	0.360422	-0.316370
Br239	Br	1.377882	-0.172983	-0.938847
Br240	Br	1.877882	0.327017	-0.438847
Br241	Br	1.698530	-0.330740	-0.436455
Br242	Br	2.198530	0.169260	0.063545
H243	H	1.729623	-0.345994	-0.702445
H244	H	2.229623	0.154006	-0.202445
Br245	Br	1.377908	-0.172964	-1.067556
Br246	Br	1.877908	0.327036	-0.567556
Br247	Br	1.698622	-0.330619	-1.067503
Br248	Br	2.198622	0.169381	-0.567503
H249	H	1.661620	-0.312566	-0.550350
H250	H	2.161620	0.187434	-0.050350
