data_functionalizedCrystal
_audit_creation_method	'MofGen! by Chris Wilmer'
_symmetry_space_group_name_H-M	'P1'
_symmetry_Int_Tables_number	1
_symmetry_cell_setting	triclinic
loop_
_symmetry_equiv_pos_as_xyz
  x,y,z
_cell_length_a	19.188930
_cell_length_b	19.188905
_cell_length_c	18.266242
_cell_angle_alpha	90.016065
_cell_angle_beta	90.010255
_cell_angle_gamma	83.139668
loop_
_atom_site_label
_atom_site_type_symbol
_atom_site_fract_x
_atom_site_fract_y
_atom_site_fract_z
O1	O	0.087084	0.926160	0.061010
O2	O	0.420418	1.259494	0.394343
O3	O	0.753751	1.592827	0.727676
O4	O	0.098837	0.722847	0.060986
O5	O	0.432170	1.056180	0.394319
O6	O	0.765503	1.389513	0.727652
O7	O	-0.008696	0.830371	0.060984
O8	O	0.324638	1.163704	0.394318
O9	O	0.657971	1.497037	0.727651
O10	O	0.194617	0.818636	0.061011
O11	O	0.527950	1.151970	0.394345
O12	O	0.861283	1.485303	0.727678
O13	O	-0.008699	0.830353	-0.060778
O14	O	0.324635	1.163686	0.272556
O15	O	0.657968	1.497019	0.605889
O16	O	0.098834	0.722828	-0.060776
O17	O	0.432167	1.056162	0.272557
O18	O	0.765500	1.389495	0.605891
O19	O	0.087081	0.926142	-0.060752
O20	O	0.420415	1.259476	0.272581
O21	O	0.753748	1.592809	0.605914
Zn22	Zn	0.092957	0.824482	-0.080097
Zn23	Zn	0.426290	1.157816	0.253237
Zn24	Zn	0.759624	1.491149	0.586570
Zn25	Zn	0.092961	0.824506	0.080330
Zn26	Zn	0.426294	1.157840	0.413663
Zn27	Zn	0.759628	1.491173	0.746997
O28	O	0.194614	0.818618	-0.060751
O29	O	0.527947	1.151951	0.272583
O30	O	0.861280	1.485285	0.605916
C31	C	0.098458	0.696826	0.000102
C32	C	0.431791	1.030160	0.333435
C33	C	0.765124	1.363493	0.666768
C34	C	0.097324	0.619321	0.000092
C35	C	0.430657	0.952654	0.333425
C36	C	0.763991	1.285987	0.666758
C37	C	0.096781	0.582939	0.066466
C38	C	0.430114	0.916272	0.399799
C39	C	0.763448	1.249606	0.733133
C40	C	0.095708	0.510115	0.066475
C41	C	0.429041	0.843449	0.399808
C42	C	0.762375	1.176782	0.733142
C43	C	0.095164	0.473678	0.000106
C44	C	0.428497	0.807012	0.333439
C45	C	0.761830	1.140345	0.666773
C46	C	0.095711	0.510068	-0.066277
C47	C	0.429044	0.843402	0.267056
C48	C	0.762377	1.176735	0.600390
C49	C	0.096791	0.582890	-0.066284
C50	C	0.430124	0.916223	0.267049
C51	C	0.763458	1.249556	0.600382
N52	N	0.053734	0.364651	-0.049292
N53	N	0.387067	0.697984	0.284042
N54	N	0.720401	1.031317	0.617375
N55	N	0.052706	0.295474	-0.049280
N56	N	0.386040	0.628807	0.284053
N57	N	0.719373	0.962140	0.617386
C58	C	0.091911	0.254272	0.000123
C59	C	0.425244	0.587605	0.333457
C60	C	0.758578	0.920938	0.666790
N61	N	0.132173	0.284861	0.049526
N62	N	0.465507	0.618194	0.382860
N63	N	0.798840	0.951528	0.716193
N64	N	0.133198	0.354045	0.049517
N65	N	0.466531	0.687378	0.382851
N66	N	0.799865	1.020711	0.716184
C67	C	0.093993	0.394716	0.000106
C68	C	0.427326	0.728049	0.333440
C69	C	0.760660	1.061382	0.666773
C70	C	0.090206	0.138926	0.066512
C71	C	0.423539	0.472259	0.399845
C72	C	0.756872	0.805593	0.733178
C73	C	0.089137	0.066100	0.066518
C74	C	0.422470	0.399434	0.399851
C75	C	0.755804	0.732767	0.733185
C76	C	0.089133	0.066056	-0.066236
C77	C	0.422466	0.399389	0.267097
C78	C	0.755800	0.732722	0.600431
C79	C	0.090209	0.138879	-0.066240
C80	C	0.423542	0.472212	0.267093
C81	C	0.756875	0.805546	0.600426
C82	C	0.090742	0.175310	0.000136
C83	C	0.424075	0.508643	0.333469
C84	C	0.757408	0.841977	0.666802
C85	C	-0.034708	0.829982	0.000101
C86	C	0.298625	1.163315	0.333434
C87	C	0.631959	1.496648	0.666768
C88	C	-0.112213	0.828841	0.000095
C89	C	0.221121	1.162174	0.333428
C90	C	0.554454	1.495508	0.666761
C91	C	-0.157142	0.891933	0.000099
C92	C	0.176191	1.225266	0.333432
C93	C	0.509525	1.558599	0.666765
C94	C	-0.229966	0.890861	0.000110
C95	C	0.103367	1.224194	0.333443
C96	C	0.436701	1.557528	0.666777
C97	C	-0.257857	0.826694	0.000103
C98	C	0.075477	1.160027	0.333436
C99	C	0.408810	1.493361	0.666770
C100	C	-0.212917	0.763594	0.000103
C101	C	0.120416	1.096927	0.333437
C102	C	0.453749	1.430261	0.666770
C103	C	-0.140095	0.764668	0.000099
C104	C	0.193238	1.098001	0.333432
C105	C	0.526572	1.431334	0.666766
N106	N	-0.365858	0.777640	-0.041341
N107	N	-0.032525	1.110973	0.291993
N108	N	0.300808	1.444307	0.625326
N109	N	-0.435037	0.776624	-0.041338
N110	N	-0.101703	1.109958	0.291995
N111	N	0.231630	1.443291	0.625329
C112	C	-0.477265	0.823456	0.000118
C113	C	-0.143932	1.156789	0.333451
C114	C	0.189402	1.490122	0.666784
N115	N	-0.447703	0.871352	0.041561
N116	N	-0.114369	1.204685	0.374895
N117	N	0.218964	1.538018	0.708228
N118	N	-0.378518	0.872369	0.041556
N119	N	-0.045185	1.205703	0.374889
N120	N	0.288148	1.539036	0.708222
C121	C	-0.336819	0.825523	0.000108
C122	C	-0.003486	1.158856	0.333442
C123	C	0.329848	1.492190	0.666775
C124	C	-0.601159	0.885390	0.000135
C125	C	-0.267826	1.218723	0.333468
C126	C	0.065508	1.552056	0.666802
C127	C	-0.673984	0.884315	0.000151
C128	C	-0.340650	1.217649	0.333485
C129	C	-0.007317	1.550982	0.666818
C130	C	-0.656933	0.757047	0.000137
C131	C	-0.323600	1.090380	0.333470
C132	C	0.009733	1.423714	0.666804
C133	C	-0.584110	0.758123	0.000128
C134	C	-0.250777	1.091456	0.333462
C135	C	0.082556	1.424790	0.666795
C136	C	-0.556228	0.822296	0.000124
C137	C	-0.222894	1.155630	0.333457
C138	C	0.110439	1.488963	0.666790
C139	C	0.220626	0.819007	0.000134
C140	C	0.553959	1.152341	0.333468
C141	C	0.887293	1.485674	0.666801
C142	C	0.298131	0.820148	0.000145
C143	C	0.631464	1.153481	0.333479
C144	C	0.964797	1.486815	0.666812
C145	C	0.087460	0.952163	0.000134
C146	C	0.420794	1.285496	0.333467
C147	C	0.754127	1.618829	0.666800
C148	C	0.088594	1.029668	0.000148
C149	C	0.421927	1.363001	0.333482
C150	C	0.755261	1.696335	0.666815
N151	N	0.092954	0.824471	-0.189583
N152	N	0.426287	1.157804	0.143750
N153	N	0.759621	1.491138	0.477083
C154	C	0.135196	0.866681	-0.227875
C155	C	0.468529	1.200014	0.105458
C156	C	0.801862	1.533347	0.438792
C157	C	0.135194	0.866692	-0.304520
C158	C	0.468527	1.200026	0.028813
C159	C	0.801860	1.533359	0.362147
C160	C	0.092958	0.824481	-0.342870
C161	C	0.426291	1.157815	-0.009537
C162	C	0.759625	1.491148	0.323796
C163	C	0.050708	0.782269	-0.304570
C164	C	0.384041	1.115602	0.028764
C165	C	0.717374	1.448936	0.362097
C166	C	0.050706	0.782264	-0.227926
C167	C	0.384039	1.115597	0.105407
C168	C	0.717372	1.448931	0.438740
N169	N	0.091244	0.763333	-0.463231
N170	N	0.424577	1.096666	-0.129897
N171	N	0.757910	1.429999	0.203436
N172	N	0.091250	0.763339	-0.536039
N173	N	0.424583	1.096673	-0.202706
N174	N	0.757916	1.430006	0.130628
C175	C	0.092961	0.824495	-0.573793
C176	C	0.426294	1.157828	-0.240459
C177	C	0.759627	1.491162	0.092874
N178	N	0.094679	0.885645	-0.535988
N179	N	0.428013	1.218978	-0.202655
N180	N	0.761346	1.552311	0.130679
N181	N	0.094677	0.885637	-0.463173
N182	N	0.428010	1.218970	-0.129840
N183	N	0.761344	1.552304	0.203493
C184	C	0.092955	0.824482	-0.425977
C185	C	0.426289	1.157816	-0.092644
C186	C	0.759622	1.491149	0.240689
C187	C	0.135202	0.866721	-0.695191
C188	C	0.468536	1.200054	-0.361858
C189	C	0.801869	1.533388	-0.028525
C190	C	0.135195	0.866734	-0.771838
C191	C	0.468529	1.200067	-0.438504
C192	C	0.801862	1.533401	-0.105171
C193	C	0.050714	0.782304	-0.771886
C194	C	0.384047	1.115637	-0.438553
C195	C	0.717380	1.448971	-0.105219
C196	C	0.050717	0.782298	-0.695241
C197	C	0.384050	1.115631	-0.361908
C198	C	0.717383	1.448964	-0.028575
C199	C	0.092965	0.824505	-0.656898
C200	C	0.426298	1.157838	-0.323565
C201	C	0.759631	1.491171	0.009768
N202	N	0.092959	0.824523	0.189817
N203	N	0.426292	1.157857	0.523150
N204	N	0.759625	1.491190	0.856484
H205	H	0.088699	0.036479	0.120570
H206	H	0.422033	0.369812	0.453903
H207	H	0.755366	0.703146	0.787237
Cl208	Cl	-0.083609	0.685346	0.000094
Cl209	Cl	0.249724	1.018679	0.333427
Cl210	Cl	0.583058	1.352012	0.666760
H211	H	0.169595	0.901052	-0.196661
H212	H	0.502928	1.234385	0.136672
H213	H	0.836261	1.567719	0.470006
H214	H	-0.710565	0.935694	0.000158
H215	H	-0.377232	1.269028	0.333492
H216	H	-0.043899	1.602361	0.666825
Cl217	Cl	0.088456	0.020255	-0.149673
Cl218	Cl	0.421789	0.353588	0.183661
Cl219	Cl	0.755123	0.686922	0.516994
Cl220	Cl	0.090887	0.184619	-0.149687
Cl221	Cl	0.424220	0.517953	0.183646
Cl222	Cl	0.757554	0.851286	0.516979
Cl223	Cl	-0.122094	0.972607	0.000114
Cl224	Cl	0.211240	1.305941	0.333447
Cl225	Cl	0.544573	1.639274	0.666780
H226	H	-0.266555	0.942239	0.000116
H227	H	0.066779	1.275573	0.333450
H228	H	0.400112	1.608906	0.666783
Cl229	Cl	-0.002398	0.729191	-0.179786
Cl230	Cl	0.330935	1.062525	0.153548
Cl231	Cl	0.664268	1.395858	0.486881
H232	H	-0.235631	0.711349	0.000099
H233	H	0.097703	1.044682	0.333433
H234	H	0.431036	1.378016	0.666766
H235	H	-0.578456	0.937644	0.000135
H236	H	-0.245123	1.270977	0.333468
H237	H	0.088211	1.604310	0.666801
H238	H	0.016322	0.747923	-0.664064
H239	H	0.349655	1.081256	-0.330731
H240	H	0.682988	1.414590	0.002603
H241	H	-0.679641	0.704801	0.000135
H242	H	-0.346308	1.038134	0.333468
H243	H	-0.012975	1.371468	0.666802
Cl244	Cl	-0.527624	0.678803	0.000120
Cl245	Cl	-0.194291	1.012136	0.333453
Cl246	Cl	0.139042	1.345470	0.666787
Cl247	Cl	0.188297	0.919796	-0.646986
Cl248	Cl	0.521631	1.253129	-0.313652
Cl249	Cl	0.854964	1.586463	0.019681
H250	H	0.097215	0.612597	0.120515
H251	H	0.430548	0.945930	0.453848
H252	H	0.763882	1.279263	0.787181
H253	H	0.169594	0.901065	-0.335703
H254	H	0.502927	1.234398	-0.002370
H255	H	0.836260	1.567731	0.330964
Cl256	Cl	-0.002391	0.729206	-0.352781
Cl257	Cl	0.330943	1.062539	-0.019447
Cl258	Cl	0.664276	1.395872	0.313886
Cl259	Cl	0.188301	0.919806	-0.819976
Cl260	Cl	0.521634	1.253140	-0.486643
Cl261	Cl	0.854968	1.586473	-0.153310
Cl262	Cl	-0.002391	0.729246	-0.820091
Cl263	Cl	0.330942	1.062580	-0.486758
Cl264	Cl	0.664275	1.395913	-0.153424
H265	H	0.095267	0.480487	0.120527
H266	H	0.428600	0.813821	0.453860
H267	H	0.761934	1.147154	0.787193
H268	H	0.095269	0.480396	-0.120315
H269	H	0.428603	0.813730	0.213018
H270	H	0.761936	1.147063	0.546351
H271	H	0.090647	0.168589	0.120559
H272	H	0.423981	0.501922	0.453892
H273	H	0.757314	0.835255	0.787226
Cl274	Cl	0.097473	0.628629	-0.149733
Cl275	Cl	0.430806	0.961963	0.183600
Cl276	Cl	0.764139	1.295296	0.516933
