data_functionalizedCrystal
_audit_creation_method	'MofGen! by Chris Wilmer'
_symmetry_space_group_name_H-M	'P1'
_symmetry_Int_Tables_number	1
_symmetry_cell_setting	triclinic
loop_
_symmetry_equiv_pos_as_xyz
  x,y,z
_cell_length_a	12.827893
_cell_length_b	12.645330
_cell_length_c	12.827885
_cell_angle_alpha	89.971022
_cell_angle_beta	89.980728
_cell_angle_gamma	90.017662
loop_
_atom_site_label
_atom_site_type_symbol
_atom_site_fract_x
_atom_site_fract_y
_atom_site_fract_z
Zn1	Zn	1.597653	-0.421989	-0.590855
Zn2	Zn	1.930986	-0.088656	-0.257521
Zn3	Zn	2.264320	0.244678	0.075812
Zn4	Zn	1.597540	-0.599290	-0.416117
Zn5	Zn	1.930873	-0.265956	-0.082784
Zn6	Zn	2.264207	0.067377	0.250549
Zn7	Zn	1.422894	-0.422040	-0.416128
Zn8	Zn	1.756228	-0.088707	-0.082795
Zn9	Zn	2.089561	0.244626	0.250539
Zn10	Zn	1.422873	-0.599211	-0.590817
Zn11	Zn	1.756206	-0.265877	-0.257484
Zn12	Zn	2.089539	0.067456	0.075849
O13	O	1.510240	-0.510632	-0.503479
O14	O	1.843573	-0.177299	-0.170146
O15	O	2.176907	0.156034	0.163187
O16	O	1.743874	-0.445520	-0.567686
O17	O	2.077207	-0.112186	-0.234353
O18	O	2.410541	0.221147	0.098980
O19	O	1.574335	-0.575832	-0.269883
O20	O	1.907668	-0.242498	0.063451
O21	O	2.241001	0.090835	0.396784
O22	O	1.446133	-0.273686	-0.439326
O23	O	1.779466	0.059647	-0.105993
O24	O	2.112799	0.392980	0.227341
O25	O	1.743791	-0.575782	-0.439308
O26	O	2.077124	-0.242448	-0.105974
O27	O	2.410458	0.090885	0.227359
O28	O	1.574527	-0.273648	-0.567697
O29	O	1.907860	0.059685	-0.234364
O30	O	2.241194	0.393018	0.098970
O31	O	1.446023	-0.445608	-0.269891
O32	O	1.779357	-0.112274	0.063443
O33	O	2.112690	0.221059	0.396776
O34	O	1.276655	-0.445531	-0.439290
O35	O	1.609989	-0.112198	-0.105957
O36	O	1.943322	0.221136	0.227377
O37	O	1.446096	-0.575647	-0.737058
O38	O	1.779429	-0.242314	-0.403725
O39	O	2.112762	0.091019	-0.070392
O40	O	1.276639	-0.575697	-0.567633
O41	O	1.609973	-0.242364	-0.234300
O42	O	1.943306	0.090969	0.099033
O43	O	1.574506	-0.445443	-0.737086
O44	O	1.907839	-0.112110	-0.403752
O45	O	2.241173	0.221224	-0.070419
O46	O	1.574314	-0.747626	-0.439271
O47	O	1.907647	-0.414293	-0.105938
O48	O	2.240980	-0.080960	0.227395
O49	O	1.445986	-0.747568	-0.567623
O50	O	1.779320	-0.414235	-0.234289
O51	O	2.112653	-0.080902	0.099044
C52	C	1.238730	-0.510612	-0.503459
C53	C	1.572063	-0.177279	-0.170126
C54	C	1.905397	0.156055	0.163207
C55	C	1.122577	-0.510629	-0.503476
C56	C	1.455910	-0.177295	-0.170142
C57	C	1.789244	0.156038	0.163191
C58	C	1.070812	-0.575140	-0.566886
C59	C	1.404145	-0.241806	-0.233553
C60	C	1.737479	0.091527	0.099781
C61	C	0.950762	-0.575159	-0.566904
C62	C	1.284095	-0.241825	-0.233571
C63	C	1.617428	0.091508	0.099762
C64	C	1.510164	-0.786062	-0.503465
C65	C	1.843497	-0.452729	-0.170131
C66	C	2.176830	-0.119395	0.163202
C67	C	1.510227	-0.903892	-0.503493
C68	C	1.843560	-0.570559	-0.170160
C69	C	2.176893	-0.237225	0.163173
C70	C	1.429829	-1.071464	-0.584488
C71	C	1.763162	-0.738130	-0.251155
C72	C	2.096495	-0.404797	0.082179
C73	C	1.429418	-0.948904	-0.584228
C74	C	1.762751	-0.615571	-0.250894
C75	C	2.096084	-0.282238	0.082439
C76	C	1.480414	-0.948494	-0.393362
C77	C	1.813747	-0.615161	-0.060029
C78	C	2.147081	-0.281828	0.273304
C79	C	1.479923	-1.071093	-0.393854
C80	C	1.813257	-0.737759	-0.060521
C81	C	2.146590	-0.404426	0.272813
C82	C	1.620929	-1.070979	-0.531736
C83	C	1.954262	-0.737646	-0.198403
C84	C	2.287596	-0.404313	0.134930
C85	C	1.620251	-0.948372	-0.534144
C86	C	1.953584	-0.615039	-0.200811
C87	C	2.286917	-0.281706	0.132522
C88	C	1.782810	-0.510654	-0.503500
C89	C	2.116143	-0.177320	-0.170167
C90	C	2.449477	0.156013	0.163167
C91	C	1.898963	-0.510663	-0.503509
C92	C	2.232296	-0.177329	-0.170175
C93	C	2.565630	0.156004	0.163158
C94	C	1.510311	-0.510531	-0.776050
C95	C	1.843644	-0.177197	-0.442716
C96	C	2.176978	0.156136	-0.109383
C97	C	1.510341	-0.510487	-0.892203
C98	C	1.843675	-0.177154	-0.558870
C99	C	2.177008	0.156179	-0.225536
C100	C	1.510345	-0.234127	-0.503517
C101	C	1.843678	0.099206	-0.170184
C102	C	2.177012	0.432540	0.163150
C103	C	1.510390	-0.116297	-0.503533
C104	C	1.843723	0.217036	-0.170200
C105	C	2.177056	0.550370	0.163134
C106	C	1.573890	-0.446045	-0.944001
C107	C	1.907223	-0.112712	-0.610668
C108	C	2.240556	0.220621	-0.277334
C109	C	1.573923	-0.445999	-1.064052
C110	C	1.907256	-0.112666	-0.730718
C111	C	2.240589	0.220668	-0.397385
C112	C	1.510229	-0.510657	-0.231969
C113	C	1.843563	-0.177324	0.101364
C114	C	2.176896	0.156009	0.434697
C115	C	1.510401	-0.510402	-0.115817
C116	C	1.843735	-0.177069	0.217517
C117	C	2.177068	0.156265	0.550850
H118	H	1.448070	-0.918744	-0.665889
H119	H	1.781403	-0.585411	-0.332556
H120	H	2.114737	-0.252078	0.000778
O121	O	1.650048	-0.909754	-0.641502
O122	O	1.983381	-0.576420	-0.308169
O123	O	2.316714	-0.243087	0.025165
H124	H	1.723273	-0.863249	-0.636528
H125	H	2.056607	-0.529916	-0.303195
H126	H	2.389940	-0.196582	0.030139
H127	H	0.943473	-0.455433	-0.449214
H128	H	1.276807	-0.122100	-0.115881
H129	H	1.610140	0.211233	0.217453
O130	O	1.438301	-0.583471	-1.056836
O131	O	1.771634	-0.250138	-0.723503
O132	O	2.104968	0.083195	-0.390169
H133	H	1.456164	-0.666691	-1.077705
H134	H	1.789497	-0.333358	-0.744372
H135	H	2.122831	-0.000024	-0.411038
O136	O	1.645996	-0.372919	-1.123052
O137	O	1.979329	-0.039585	-0.789718
O138	O	2.312663	0.293748	-0.456385
H139	H	1.692527	-0.325756	-1.066864
H140	H	2.025860	0.007578	-0.733531
H141	H	2.359194	0.340911	-0.400197
H142	H	1.078018	-0.455408	-0.449206
H143	H	1.411351	-0.122075	-0.115872
H144	H	1.744685	0.211258	0.217461
H145	H	1.448310	-1.100870	-0.666417
H146	H	1.781643	-0.767536	-0.333084
H147	H	2.114977	-0.434203	0.000249
O148	O	1.438293	-0.583522	-0.951174
O149	O	1.771627	-0.250188	-0.617840
O150	O	2.104960	0.083145	-0.284507
H151	H	1.485099	-0.637402	-1.000895
H152	H	1.818432	-0.304069	-0.667562
H153	H	2.151766	0.029264	-0.334229
H154	H	1.628268	-0.390905	-0.899471
H155	H	1.961601	-0.057572	-0.566137
H156	H	2.294935	0.275762	-0.232804
H157	H	1.348392	-1.102366	-0.566042
H158	H	1.681726	-0.769032	-0.232709
H159	H	2.015059	-0.435699	0.100625
O160	O	1.129819	-0.648261	-0.638811
O161	O	1.463153	-0.314927	-0.305478
O162	O	1.796486	0.018406	0.027855
H163	H	1.214852	-0.636762	-0.627519
H164	H	1.548185	-0.303429	-0.294185
H165	H	1.881519	0.029904	0.039148
H166	H	0.906245	-0.630392	-0.621189
H167	H	1.239578	-0.297058	-0.287856
H168	H	1.572911	0.036275	0.045477
H169	H	1.347469	-0.919671	-0.565543
H170	H	1.680802	-0.586338	-0.232210
H171	H	2.014136	-0.253004	0.101124
O172	O	1.372894	-1.109112	-0.362202
O173	O	1.706227	-0.775779	-0.028869
O174	O	2.039560	-0.442446	0.304465
H175	H	1.338977	-1.157256	-0.426081
H176	H	1.672311	-0.823923	-0.092748
H177	H	2.005644	-0.490589	0.240585
H178	H	1.536054	-1.100754	-0.331479
H179	H	1.869388	-0.767421	0.001854
H180	H	2.202721	-0.434088	0.335187
O181	O	1.703946	-0.907828	-0.461702
O182	O	2.037280	-0.574495	-0.128369
O183	O	2.370613	-0.241161	0.204964
H184	H	1.668272	-0.855106	-0.402455
H185	H	2.001606	-0.521773	-0.069122
H186	H	2.334939	-0.188439	0.264211
H187	H	1.537231	-0.919340	-0.331396
H188	H	1.870564	-0.586007	0.001937
H189	H	2.203897	-0.252674	0.335270
O190	O	1.374494	-0.907959	-0.361131
O191	O	1.707827	-0.574626	-0.027798
O192	O	2.041161	-0.241293	0.305535
H193	H	1.315327	-0.933845	-0.418855
H194	H	1.648660	-0.600511	-0.085521
H195	H	1.981994	-0.267178	0.247812
H196	H	1.648124	-1.101818	-0.610678
H197	H	1.981458	-0.768484	-0.277345
H198	H	2.314791	-0.435151	0.055988
O199	O	1.700434	-1.109383	-0.453636
O200	O	2.033767	-0.776049	-0.120303
O201	O	2.367100	-0.442716	0.213031
H202	H	1.778257	-1.077047	-0.474069
H203	H	2.111590	-0.743714	-0.140735
H204	H	2.444924	-0.410381	0.192598
