data_functionalizedCrystal
_audit_creation_method	'MofGen! by Chris Wilmer'
_symmetry_space_group_name_H-M	'P1'
_symmetry_Int_Tables_number	1
_symmetry_cell_setting	triclinic
loop_
_symmetry_equiv_pos_as_xyz
  x,y,z
_cell_length_a	16.625546
_cell_length_b	12.759401
_cell_length_c	12.759393
_cell_angle_alpha	90.019837
_cell_angle_beta	89.963756
_cell_angle_gamma	89.976007
loop_
_atom_site_label
_atom_site_type_symbol
_atom_site_fract_x
_atom_site_fract_y
_atom_site_fract_z
Zn1	Zn	-0.320921	-1.606198	-0.593986
Zn2	Zn	-0.455778	-1.606069	-0.418292
Zn3	Zn	-0.320966	-1.430500	-0.418322
Zn4	Zn	-0.455719	-1.430465	-0.593930
O5	O	-0.388346	-1.518308	-0.506132
O6	O	-0.338816	-1.753202	-0.570692
O7	O	-0.437938	-1.582740	-0.271275
O8	O	-0.208128	-1.453876	-0.441660
O9	O	-0.437894	-1.753107	-0.441610
O10	O	-0.208094	-1.582960	-0.570720
O11	O	-0.338893	-1.453751	-0.271297
O12	O	-0.338836	-1.283475	-0.441605
O13	O	-0.437794	-1.453816	-0.740958
O14	O	-0.437838	-1.283449	-0.570623
O15	O	-0.338758	-1.582926	-0.741000
O16	O	-0.568602	-1.582706	-0.441555
O17	O	-0.568559	-1.453690	-0.570595
C18	C	-0.597837	-1.518209	-0.506088
C19	C	-0.687458	-1.518262	-0.506105
C20	C	-0.388336	-1.245341	-0.506112
C21	C	-0.388351	-1.128564	-0.506128
C22	C	-0.388264	-1.518382	-0.780166
C23	C	-0.388230	-1.518413	-0.896943
C24	C	-1.015633	-1.518446	-0.506214
C25	C	-0.924325	-1.518391	-0.506187
C26	C	-0.851549	-1.518353	-0.506159
C27	C	-0.760234	-1.518300	-0.506132
C28	C	-0.178037	-1.518437	-0.506200
C29	C	-0.088416	-1.518491	-0.506228
C30	C	-0.388356	-1.792341	-0.506154
C31	C	-0.388361	-1.909118	-0.506163
C32	C	-0.439980	-1.073716	-0.573202
C33	C	-0.439983	-0.963992	-0.573223
C34	C	-0.336726	-0.963974	-0.439086
C35	C	-0.336720	-1.073696	-0.439071
C36	C	-0.336647	-1.451272	-0.951815
C37	C	-0.336623	-1.451297	-1.061539
C38	C	-0.439765	-1.585611	-1.061509
C39	C	-0.439793	-1.585581	-0.951786
C40	C	-0.388369	-1.518296	-0.233165
C41	C	-0.388177	-1.518468	-0.116389
H42	H	-0.482023	-0.919340	-0.627843
H43	H	-0.294661	-1.396579	-0.907165
H44	H	-0.294691	-0.919286	-0.384490
O45	O	-0.286651	-1.126935	-0.373759
C46	C	-0.247313	-1.160402	-0.195141
C47	C	-0.304077	-1.100062	-0.268977
H48	H	-0.261370	-1.138681	-0.110411
H49	H	-0.256179	-1.248260	-0.206562
H50	H	-0.182320	-1.138880	-0.213802
H51	H	-0.369091	-1.121496	-0.250362
H52	H	-0.295141	-1.012219	-0.257542
O53	O	-0.286479	-1.386221	-1.114962
C54	C	-0.177562	-1.372182	-1.238846
C55	C	-0.234309	-1.446004	-1.178429
H56	H	-0.135357	-1.420488	-1.290157
H57	H	-0.214525	-1.317254	-1.290261
H58	H	-0.140753	-1.324145	-1.180781
H59	H	-0.271130	-1.494110	-1.236418
H60	H	-0.197299	-1.500863	-1.126998
H61	H	-0.481745	-1.640298	-1.106176
O62	O	-0.490015	-1.650755	-0.898592
C63	C	-0.627183	-1.701608	-0.864914
C64	C	-0.570398	-1.627759	-0.925241
H65	H	-0.692186	-1.683028	-0.886421
H66	H	-0.613091	-1.786358	-0.886515
H67	H	-0.618305	-1.690061	-0.777078
H68	H	-0.579244	-1.639213	-1.013090
H69	H	-0.584504	-1.543036	-0.903553
O70	O	-0.490152	-1.126854	-0.638444
C71	C	-0.592596	-1.115286	-0.771455
C72	C	-0.535806	-1.054982	-0.697634
H73	H	-0.629534	-1.057204	-0.819313
H74	H	-0.555662	-1.166669	-0.826540
H75	H	-0.634678	-1.166642	-0.723100
H76	H	-0.493713	-1.003569	-0.745904
H77	H	-0.572791	-1.003666	-0.642545
