data_functionalizedCrystal
_audit_creation_method	'MofGen! by Chris Wilmer'
_symmetry_space_group_name_H-M	'P1'
_symmetry_Int_Tables_number	1
_symmetry_cell_setting	triclinic
loop_
_symmetry_equiv_pos_as_xyz
  x,y,z
_cell_length_a	19.077236
_cell_length_b	12.645330
_cell_length_c	19.076919
_cell_angle_alpha	87.729818
_cell_angle_beta	89.887323
_cell_angle_gamma	87.689229
loop_
_atom_site_label
_atom_site_type_symbol
_atom_site_fract_x
_atom_site_fract_y
_atom_site_fract_z
Zn1	Zn	1.058320	0.384816	-0.440536
Zn2	Zn	1.062973	0.554703	-0.323026
Zn3	Zn	0.945536	0.384260	-0.318316
Zn4	Zn	0.940793	0.568845	-0.435764
O5	O	1.001906	0.473156	-0.379410
O6	O	1.157271	0.401665	-0.428916
O7	O	1.051327	0.525942	-0.224071
O8	O	0.960534	0.235986	-0.334554
O9	O	1.160689	0.526481	-0.342582
O10	O	1.043397	0.236394	-0.424348
O11	O	0.965046	0.400718	-0.220610
O12	O	0.846573	0.414432	-0.329927
O13	O	0.952452	0.550585	-0.534728
O14	O	0.843089	0.550046	-0.416216
O15	O	1.038798	0.415379	-0.538233
O16	O	1.046728	0.704927	-0.337956
O17	O	0.956963	0.715317	-0.420784
C18	C	0.819334	0.483714	-0.372043
C19	C	0.741229	0.488257	-0.368908
C20	C	1.001854	0.748587	-0.379379
C21	C	1.001896	0.866415	-0.379392
C22	C	1.058424	0.904715	-0.327331
C23	C	1.058299	1.027270	-0.327125
C24	C	0.928634	1.037459	-0.356503
C25	C	0.928937	0.914819	-0.356108
C26	C	1.018032	0.915070	-0.454479
C27	C	1.019709	1.037555	-0.454162
C28	C	0.702753	0.425519	-0.412453
C29	C	0.629365	0.429783	-0.409501
C30	C	0.594454	0.496791	-0.363007
C31	C	0.632935	0.559531	-0.319458
C32	C	0.706322	0.555261	-0.322406
C33	C	0.375162	0.516512	-0.349358
C34	C	0.301770	0.520779	-0.346414
C35	C	0.298205	0.391029	-0.436457
C36	C	0.371593	0.386770	-0.439404
C37	C	0.410068	0.449506	-0.395852
N38	N	0.519440	0.501153	-0.359991
N39	N	0.485081	0.445138	-0.398866
C40	C	1.185189	0.462557	-0.386807
C41	C	1.263294	0.458041	-0.389959
C42	C	0.994577	0.484622	-0.562689
C43	C	0.991454	0.489508	-0.640792
C44	C	1.001960	1.196649	-0.379442
C45	C	1.001942	1.078819	-0.379414
C46	C	1.034940	0.421412	-0.679311
C47	C	1.031997	0.425999	-0.752696
C48	C	0.985571	0.498688	-0.787562
C49	C	0.942080	0.566787	-0.749037
C50	C	0.945019	0.562194	-0.675653
C51	C	0.971954	0.519969	-1.006841
C52	C	0.969019	0.524559	-1.080230
C53	C	1.058936	0.383770	-1.083884
C54	C	1.061875	0.379187	-1.010499
C55	C	1.018381	0.447282	-0.971981
N56	N	0.982563	0.503381	-0.862573
N57	N	1.021386	0.442583	-0.896970
C58	C	1.009246	0.461656	-0.196846
C59	C	1.012505	0.456464	-0.118749
H60	H	1.112747	1.054886	-0.341784
H61	H	1.094345	0.328329	-1.115253
H62	H	0.909601	0.617634	-0.644291
H63	H	0.981330	1.072973	-0.495261
H64	H	1.067410	0.370551	-0.784056
H65	H	0.266871	0.339951	-0.471914
H66	H	0.598041	0.378697	-0.444962
H67	H	1.113036	0.872752	-0.341853
H68	H	1.048108	0.871253	-0.272075
H69	H	0.273348	0.575350	-0.308552
H70	H	0.914939	0.883818	-0.301138
H71	H	0.406480	0.567597	-0.313895
H72	H	0.604505	0.614085	-0.281598
H73	H	0.737649	0.606349	-0.286947
H74	H	1.072748	0.362224	-0.650929
H75	H	1.070408	0.882139	-0.474782
H76	H	0.904276	0.625968	-0.777430
H77	H	0.400012	0.332208	-0.477267
H78	H	0.914344	1.065812	-0.302124
H79	H	1.099682	0.319999	-0.982117
H80	H	0.931211	0.583754	-1.108615
H81	H	0.976828	0.890888	-0.493304
H82	H	1.047853	1.053941	-0.271555
H83	H	0.885536	0.889950	-0.392227
H84	H	0.885510	1.071418	-0.393132
H85	H	1.073643	1.064351	-0.471388
H86	H	0.936549	0.575432	-0.975488
H87	H	0.731172	0.370957	-0.450315
