data_functionalizedCrystal
_audit_creation_method	'MofGen! by Chris Wilmer'
_symmetry_space_group_name_H-M	'P1'
_symmetry_Int_Tables_number	1
_symmetry_cell_setting	triclinic
loop_
_symmetry_equiv_pos_as_xyz
  x,y,z
_cell_length_a	16.959455
_cell_length_b	19.121063
_cell_length_c	16.959447
_cell_angle_alpha	92.406624
_cell_angle_beta	89.985678
_cell_angle_gamma	92.465894
loop_
_atom_site_label
_atom_site_type_symbol
_atom_site_fract_x
_atom_site_fract_y
_atom_site_fract_z
Zn1	Zn	1.194915	-0.279656	-0.460312
Zn2	Zn	1.694915	0.220344	0.039688
Zn3	Zn	1.189180	-0.397117	-0.333763
Zn4	Zn	1.689180	0.102883	0.166237
Zn5	Zn	1.062742	-0.279678	-0.328150
Zn6	Zn	1.562742	0.220322	0.171850
Zn7	Zn	1.057053	-0.397064	-0.465899
Zn8	Zn	1.557053	0.102936	0.034101
O9	O	1.125973	-0.338379	-0.397031
O10	O	1.625973	0.161621	0.102969
O11	O	1.304764	-0.295250	-0.443535
O12	O	1.804764	0.204750	0.056465
O13	O	1.172389	-0.381570	-0.222409
O14	O	1.672389	0.118430	0.277591
O15	O	1.085056	-0.181391	-0.340995
O16	O	1.585056	0.318609	0.159005
O17	O	1.300551	-0.381548	-0.350560
O18	O	1.800551	0.118452	0.149440
O19	O	1.182163	-0.181375	-0.438093
O20	O	1.682163	0.318625	0.061907
O21	O	1.079495	-0.295288	-0.218285
O22	O	1.579495	0.204712	0.281715
O23	O	0.951377	-0.295237	-0.346412
O24	O	1.451377	0.204763	0.153588
O25	O	1.075360	-0.381459	-0.575767
O26	O	1.575360	0.118541	-0.075767
O27	O	0.947198	-0.381480	-0.447615
O28	O	1.447198	0.118520	0.052385
O29	O	1.176646	-0.295199	-0.571662
O30	O	1.676646	0.204801	-0.071662
O31	O	1.166873	-0.495394	-0.355978
O32	O	1.666873	0.004606	0.144022
O33	O	1.069800	-0.495356	-0.453058
O34	O	1.569800	0.004644	0.046942
C35	C	0.920608	-0.338356	-0.397012
C36	C	1.420608	0.161644	0.102988
C37	C	0.832751	-0.338363	-0.397023
C38	C	1.332751	0.161637	0.102977
C39	C	1.117118	-0.520859	-0.405750
C40	C	1.617118	-0.020859	0.094250
C41	C	1.113402	-0.598924	-0.409507
C42	C	1.613402	-0.098924	0.090493
C43	C	0.463428	-0.293435	-0.344438
C44	C	0.963428	0.206565	0.155562
C45	C	0.459118	-0.383380	-0.449672
C46	C	0.959118	0.116620	0.050328
C47	C	0.541664	-0.383370	-0.449666
C48	C	1.041664	0.116630	0.050334
C49	C	0.585096	-0.338393	-0.397045
C50	C	1.085096	0.161607	0.102955
C51	C	0.545982	-0.293425	-0.344430
C52	C	1.045982	0.206575	0.155570
C53	C	0.580784	-0.428342	-0.502276
C54	C	1.080784	0.071658	-0.002276
C55	C	0.663336	-0.428334	-0.502272
C56	C	1.163336	0.071666	-0.002272
C57	C	0.706770	-0.383353	-0.449654
C58	C	1.206770	0.116647	0.050346
C59	C	0.667650	-0.338383	-0.397037
C60	C	1.167650	0.161617	0.102963
C61	C	0.711082	-0.293405	-0.344416
C62	C	1.211082	0.206595	0.155584
C63	C	0.671965	-0.248431	-0.291802
C64	C	1.171965	0.251569	0.208198
C65	C	0.589416	-0.248444	-0.291812
C66	C	1.089416	0.251556	0.208188
C67	C	0.789319	-0.383340	-0.449644
C68	C	1.289319	0.116660	0.050356
C69	C	0.793636	-0.293395	-0.344407
C70	C	1.293636	0.206605	0.155593
C71	C	1.162236	-0.635597	-0.360769
C72	C	1.662236	-0.135597	0.139231
C73	C	1.158746	-0.708948	-0.364307
C74	C	1.658746	-0.208948	0.135693
C75	C	1.106417	-0.745625	-0.416579
C76	C	1.606417	-0.245625	0.083421
C77	C	1.057581	-0.708948	-0.465322
C78	C	1.557581	-0.208948	0.034678
C79	C	1.061076	-0.635598	-0.461787
C80	C	1.561076	-0.135598	0.038213
C81	C	1.093339	-0.967094	-0.429780
C82	C	1.593339	-0.467094	0.070220
C83	C	1.089847	-1.040449	-0.433309
C84	C	1.589847	-0.540449	0.066691
C85	C	1.191013	-1.040443	-0.332295
C86	C	1.691013	-0.540443	0.167705
C87	C	1.194500	-0.967092	-0.328762
C88	C	1.694500	-0.467092	0.171238
C89	C	1.145667	-0.930421	-0.377508
C90	C	1.645667	-0.430421	0.122492
C91	C	1.102847	-0.820602	-0.420195
C92	C	1.602847	-0.320602	0.079805
C93	C	1.149242	-0.855446	-0.373896
C94	C	1.649242	-0.355446	0.126104
C95	C	1.332140	-0.338403	-0.397051
C96	C	1.832140	0.161597	0.102949
C97	C	1.419996	-0.338413	-0.397059
C98	C	1.919996	0.161587	0.102941
C99	C	1.126008	-0.338321	-0.603196
C100	C	1.626008	0.161679	-0.103196
C101	C	1.126024	-0.338296	-0.691052
C102	C	1.626024	0.161704	-0.191052
C103	C	1.134884	-0.155186	-0.388295
C104	C	1.634884	0.344814	0.111705
C105	C	1.138681	-0.077121	-0.384572
C106	C	1.638681	0.422879	0.115428
C107	C	1.073386	-0.383133	-1.064664
C108	C	1.573386	0.116867	-0.564664
C109	C	1.178857	-0.293311	-1.060384
C110	C	1.678857	0.206689	-0.560384
C111	C	1.178835	-0.293326	-0.977839
C112	C	1.678835	0.206674	-0.477839
C113	C	1.126089	-0.338246	-0.938703
C114	C	1.626089	0.161754	-0.438703
C115	C	1.073365	-0.383151	-0.982111
C116	C	1.573365	0.116849	-0.482111
C117	C	1.231564	-0.248426	-0.934425
C118	C	1.731564	0.251574	-0.434425
C119	C	1.231545	-0.248440	-0.851875
C120	C	1.731545	0.251560	-0.351875
C121	C	1.178794	-0.293357	-0.812736
C122	C	1.678794	0.206643	-0.312736
C123	C	1.126067	-0.338263	-0.856150
C124	C	1.626067	0.161737	-0.356150
C125	C	1.073321	-0.383183	-0.817013
C126	C	1.573321	0.116817	-0.317013
C127	C	1.020590	-0.428087	-0.860425
C128	C	1.520590	0.071913	-0.360425
C129	C	1.020614	-0.428068	-0.942973
C130	C	1.520614	0.071932	-0.442973
C131	C	1.178770	-0.293376	-0.730189
C132	C	1.678770	0.206624	-0.230189
C133	C	1.073299	-0.383201	-0.734460
C134	C	1.573299	0.116799	-0.234460
C135	C	1.125985	-0.338386	-0.191665
C136	C	1.625985	0.161614	0.308335
C137	C	1.126133	-0.338213	-0.103800
C138	C	1.626133	0.161787	0.396200
H139	H	0.828993	-0.256764	-0.301561
H140	H	1.328993	0.243236	0.198439
C141	C	1.289569	-0.199010	-0.977474
C142	C	1.789569	0.300990	-0.477474
H143	H	1.282019	-0.205423	-1.032854
H144	H	1.782019	0.294577	-0.532854
H145	H	1.342179	-0.209289	-0.964446
H146	H	1.842179	0.290711	-0.464446
H147	H	1.280279	-0.151822	-0.961693
H148	H	1.780279	0.348178	-0.461693
H149	H	1.021311	-0.605740	-0.501476
H150	H	1.521311	-0.105740	-0.001476
H151	H	0.557559	-0.211829	-0.248975
H152	H	1.057559	0.288171	0.251025
H153	H	1.060239	-0.850473	-0.462753
H154	H	1.560239	-0.350473	0.037247
C155	C	0.719742	-0.198956	-0.233923
C156	C	1.219742	0.301044	0.266077
H157	H	0.684627	-0.172175	-0.202586
H158	H	1.184627	0.327825	0.297414
H159	H	0.753436	-0.168390	-0.262755
H160	H	1.253436	0.331610	0.237245
H161	H	0.750631	-0.225788	-0.200708
H162	H	1.250631	0.274212	0.299292
H163	H	0.431575	-0.256817	-0.301603
H164	H	0.931575	0.243183	0.198397
C165	C	1.236767	-0.243992	-0.682436
C166	C	1.736767	0.256008	-0.182436
H167	H	1.229203	-0.250438	-0.627668
H168	H	1.729203	0.249562	-0.127668
H169	H	1.227505	-0.196797	-0.693719
H170	H	1.727505	0.303203	-0.193719
H171	H	1.289380	-0.254284	-0.696453
H172	H	1.789380	0.245716	-0.196453
C173	C	0.411345	-0.432851	-0.507550
C174	C	0.911345	0.067149	-0.007550
H175	H	0.356580	-0.426414	-0.500022
H176	H	0.856580	0.073586	-0.000022
H177	H	0.422590	-0.480027	-0.498153
H178	H	0.922590	0.019973	0.001847
H179	H	0.425384	-0.422621	-0.560190
H180	H	0.925384	0.077379	-0.060190
H181	H	0.977647	-0.464664	-0.828549
H182	H	1.477647	0.035336	-0.328549
C183	C	0.962622	-0.477460	-0.990726
C184	C	1.462622	0.022540	-0.490726
H185	H	0.970197	-0.471021	-1.045494
H186	H	1.470197	0.028979	-0.545494
H187	H	0.910008	-0.467181	-0.976714
H188	H	1.410008	0.032819	-0.476714
H189	H	0.971897	-0.524657	-0.979443
H190	H	1.471897	-0.024657	-0.479443
C191	C	0.533010	-0.477812	-0.560153
C192	C	1.033010	0.022188	-0.060153
H193	H	0.478245	-0.471369	-0.552628
H194	H	0.978245	0.028631	-0.052628
H195	H	0.544249	-0.524989	-0.550752
H196	H	1.044249	-0.024989	-0.050752
H197	H	0.547053	-0.467586	-0.612793
H198	H	1.047053	0.032414	-0.112793
C199	C	1.000019	-0.749291	-0.522818
C200	C	1.500019	-0.249291	-0.022818
H201	H	1.004924	-0.798228	-0.517937
H202	H	1.504924	-0.298228	-0.017937
H203	H	1.012124	-0.737229	-0.575356
H204	H	1.512124	-0.237229	-0.075356
H205	H	0.947487	-0.737311	-0.510617
H206	H	1.447487	-0.237311	-0.010617
C207	C	0.832345	-0.432804	-0.507512
C208	C	1.332345	0.067196	-0.007512
H209	H	0.794655	-0.459591	-0.538853
H210	H	1.294655	0.040409	-0.038853
H211	H	0.863063	-0.463366	-0.478676
H212	H	1.363063	0.036634	0.021324
H213	H	0.865853	-0.405967	-0.540722
H214	H	1.365853	0.094033	-0.040722
H215	H	1.053576	-0.937242	-0.469470
H216	H	1.553576	-0.437242	0.030530
C217	C	0.706358	-0.477796	-0.560150
C218	C	1.206358	0.022204	-0.060150
H219	H	0.668668	-0.504579	-0.591494
H220	H	1.168668	-0.004579	-0.091494
H221	H	0.737078	-0.508361	-0.531321
H222	H	1.237078	-0.008361	-0.031321
H223	H	0.739864	-0.450954	-0.593358
H224	H	1.239864	0.049046	-0.093358
H225	H	1.047244	-1.070309	-0.475889
H226	H	1.547244	-0.570309	0.024111
C227	C	1.015278	-0.432612	-0.691412
C228	C	1.515278	0.067388	-0.191412
H229	H	1.022812	-0.426191	-0.636032
H230	H	1.522812	0.073809	-0.136032
H231	H	1.024549	-0.479801	-0.707190
H232	H	1.524549	0.020199	-0.207190
H233	H	0.962671	-0.422316	-0.704449
H234	H	1.462671	0.077684	-0.204449
H235	H	1.191851	-0.825581	-0.331339
H236	H	1.691851	-0.325581	0.168661
H237	H	1.237110	-0.937231	-0.286199
H238	H	1.737110	-0.437231	0.213801
H239	H	1.030452	-0.419690	-1.100013
H240	H	1.530452	0.080310	-0.600013
C241	C	1.289538	-0.199045	-0.804125
C242	C	1.789538	0.300955	-0.304125
H243	H	1.281974	-0.205489	-0.749357
H244	H	1.781974	0.294511	-0.249357
H245	H	1.280269	-0.151852	-0.815411
H246	H	1.780269	0.348148	-0.315411
H247	H	1.342154	-0.209331	-0.818140
H248	H	1.842154	0.290669	-0.318140
C249	C	1.244731	-1.080783	-0.278686
C250	C	1.744731	-0.580783	0.221314
H251	H	1.235162	-1.129720	-0.288280
H252	H	1.735162	-0.629720	0.211720
H253	H	1.233771	-1.068805	-0.224990
H254	H	1.733771	-0.568805	0.275010
H255	H	1.298409	-1.068716	-0.289729
H256	H	1.798409	-0.568716	0.210271
H257	H	1.204845	-0.605739	-0.318201
H258	H	1.704845	-0.105739	0.181799
C259	C	1.212460	-0.749284	-0.310692
C260	C	1.712460	-0.249284	0.189308
H261	H	1.244118	-0.716935	-0.279047
H262	H	1.744118	-0.216935	0.220953
H263	H	1.245523	-0.777854	-0.342332
H264	H	1.745523	-0.277854	0.157668
H265	H	1.180874	-0.777941	-0.277605
H266	H	1.680874	-0.277941	0.222395
H267	H	1.221804	-0.256743	-1.092255
H268	H	1.721804	0.243257	-0.592255
