data_functionalizedCrystal
_audit_creation_method	'MofGen! by Chris Wilmer'
_symmetry_space_group_name_H-M	'P1'
_symmetry_Int_Tables_number	1
_symmetry_cell_setting	triclinic
loop_
_symmetry_equiv_pos_as_xyz
  x,y,z
_cell_length_a	16.625548
_cell_length_b	29.839131
_cell_length_c	16.625539
_cell_angle_alpha	89.960252
_cell_angle_beta	89.979432
_cell_angle_gamma	90.036296
loop_
_atom_site_label
_atom_site_type_symbol
_atom_site_fract_x
_atom_site_fract_y
_atom_site_fract_z
Zn1	Zn	1.232609	-0.178840	-0.455845
Zn2	Zn	1.232482	-0.253971	-0.320985
Zn3	Zn	1.097771	-0.178857	-0.321026
Zn4	Zn	1.097711	-0.253945	-0.455775
O5	O	1.165143	-0.216403	-0.388408
O6	O	1.345425	-0.188810	-0.437968
O7	O	1.214584	-0.244025	-0.208158
O8	O	1.115735	-0.115987	-0.338956
O9	O	1.345331	-0.244008	-0.338887
O10	O	1.214800	-0.115975	-0.438007
O11	O	1.115612	-0.188839	-0.208188
O12	O	0.984930	-0.188814	-0.338888
O13	O	1.115634	-0.243964	-0.568617
O14	O	0.984887	-0.243981	-0.437888
O15	O	1.214743	-0.188785	-0.568668
O16	O	1.214526	-0.316834	-0.338820
O17	O	1.115511	-0.316815	-0.437849
C18	C	0.955652	-0.216397	-0.388385
C19	C	0.866031	-0.216405	-0.388395
C20	C	0.537856	-0.216408	-0.388429
C21	C	0.629164	-0.216406	-0.388417
C22	C	0.701941	-0.216406	-0.388411
C23	C	0.793255	-0.216404	-0.388401
C24	C	1.165020	-0.333126	-0.388340
C25	C	1.165041	-0.383060	-0.388338
C26	C	1.216715	-0.692662	-0.440057
C27	C	1.216803	-0.880335	-0.440106
O28	O	1.260617	-0.904565	-0.484029
N29	N	1.165280	-0.903845	-0.388497
C30	C	1.113728	-0.880434	-0.336877
O31	O	1.069901	-0.904737	-0.292988
C32	C	1.113637	-0.692762	-0.336833
C33	C	1.165169	-0.669254	-0.388439
C34	C	1.268242	-0.669154	-0.491660
C35	C	1.268223	-0.622239	-0.491644
C36	C	1.216677	-0.598831	-0.440026
C37	C	1.165150	-0.622339	-0.388423
C38	C	1.062082	-0.669352	-0.285217
C39	C	1.062063	-0.622431	-0.285212
C40	C	1.113594	-0.598923	-0.336818
C41	C	1.113584	-0.552016	-0.336790
N42	N	1.165107	-0.528505	-0.388398
C43	C	1.216653	-0.551913	-0.440016
C44	C	1.113781	-0.978965	-0.336902
C45	C	1.113805	-1.025882	-0.336912
C46	C	1.216878	-1.025780	-0.440142
C47	C	1.216858	-0.978861	-0.440128
C48	C	1.165303	-0.955455	-0.388511
C49	C	1.216609	-0.453387	-0.439979
C50	C	1.216588	-0.406468	-0.439956
C51	C	1.113511	-0.406574	-0.336729
C52	C	1.113536	-0.453490	-0.336749
C53	C	1.165087	-0.476895	-0.388380
O54	O	1.069787	-0.527757	-0.292896
O55	O	1.260461	-0.527602	-0.483911
C56	C	1.216734	-0.739577	-0.440073
C57	C	1.165208	-0.763085	-0.388471
C58	C	1.113662	-0.739677	-0.336852
C59	C	1.165231	-0.810003	-0.388480
C60	C	1.216777	-0.833411	-0.440099
C61	C	1.268300	-0.809901	-0.491707
C62	C	1.268281	-0.762985	-0.491691
C63	C	1.062139	-0.763187	-0.285244
C64	C	1.062163	-0.810103	-0.285263
C65	C	1.113709	-0.833511	-0.336882
C66	C	1.375452	-0.216410	-0.388431
C67	C	1.465073	-0.216413	-0.388441
C68	C	1.165196	-0.216370	-0.598717
C69	C	1.165218	-0.216355	-0.688338
C70	C	1.165289	-0.099225	-0.388494
C71	C	1.165351	-0.049290	-0.388530
C72	C	1.165255	-0.216305	-1.016514
C73	C	1.165243	-0.216320	-0.925205
C74	C	1.165237	-0.216330	-0.852429
C75	C	1.165224	-0.216345	-0.761115
C76	C	1.165137	-0.216404	-0.178917
C77	C	1.165271	-0.216292	-0.089297
H78	H	1.258582	-0.472439	-0.482027
H79	H	1.071798	-0.959910	-0.294868
C80	C	1.272436	-0.380969	-0.496126
C81	C	1.254821	-0.392345	-0.575890
C82	C	1.306241	-0.368862	-0.627656
H83	H	1.326650	-0.388620	-0.484487
H84	H	1.265039	-0.349669	-0.488782
H85	H	1.262225	-0.423638	-0.583231
H86	H	1.200616	-0.384693	-0.587555
H87	H	1.298844	-0.337562	-0.620311
H88	H	1.360452	-0.376514	-0.616009
H89	H	1.294292	-0.376574	-0.681781
H90	H	1.310273	-0.828967	-0.533734
H91	H	1.020163	-0.744132	-0.243211
H92	H	1.310182	-0.603102	-0.533669
C93	C	1.006039	-0.694785	-0.229160
C94	C	0.960880	-0.664234	-0.183979
C95	C	0.909233	-0.687646	-0.132337
H96	H	1.036809	-0.713092	-0.193981
H97	H	0.970853	-0.713079	-0.259960
H98	H	0.996062	-0.645948	-0.153181
H99	H	0.930093	-0.645927	-0.219136
H100	H	0.874047	-0.705940	-0.163137
H101	H	0.940010	-0.705952	-0.097164
H102	H	0.878581	-0.666921	-0.101681
H103	H	1.310217	-0.688208	-0.533699
H104	H	1.020078	-0.603375	-0.243180
H105	H	1.258819	-0.959724	-0.482150
C106	C	1.272751	-1.051281	-0.496160
C107	C	1.261720	-1.097400	-0.485132
C108	C	1.313161	-1.120907	-0.536730
H109	H	1.326966	-1.043627	-0.484470
H110	H	1.260901	-1.043600	-0.550339
H111	H	1.273577	-1.105077	-0.430965
H112	H	1.207516	-1.105066	-0.496827
H113	H	1.301310	-1.113226	-0.590909
H114	H	1.367373	-1.113250	-0.525036
H115	H	1.305678	-1.152201	-0.529259
C116	C	1.057503	-0.478934	-0.280686
C117	C	1.012346	-0.448390	-0.235490
C118	C	0.960707	-0.471809	-0.183850
H119	H	1.088280	-0.497244	-0.245517
H120	H	1.022316	-0.497226	-0.311489
H121	H	1.047529	-0.430106	-0.204689
H122	H	0.981554	-0.430079	-0.270637
H123	H	0.925520	-0.490101	-0.214653
H124	H	0.991490	-0.490118	-0.148687
H125	H	0.930057	-0.451089	-0.153183
C126	C	1.324325	-0.737443	-0.547593
C127	C	1.376040	-0.710511	-0.501988
C128	C	1.427687	-0.686983	-0.553461
H129	H	1.293549	-0.719103	-0.582711
H130	H	1.355069	-0.758094	-0.578320
H131	H	1.345299	-0.689862	-0.471275
H132	H	1.406834	-0.728840	-0.466873
H133	H	1.458431	-0.707635	-0.584188
H134	H	1.396904	-0.668646	-0.588576
H135	H	1.462786	-0.668711	-0.522525
C136	C	1.057774	-1.051321	-0.280845
C137	C	1.012614	-1.020773	-0.235658
C138	C	0.960978	-1.044189	-0.184010
H139	H	1.088552	-1.069626	-0.245671
H140	H	1.022588	-1.069617	-0.311641
H141	H	1.047796	-1.002485	-0.204863
H142	H	0.981820	-1.002467	-0.270810
H143	H	0.925792	-1.062485	-0.214807
H144	H	0.991762	-1.062493	-0.148841
H145	H	0.930326	-1.023466	-0.153350
C146	C	1.057578	-0.381073	-0.280779
C147	C	1.068578	-0.334954	-0.291835
C148	C	1.017054	-0.311448	-0.240320
H149	H	1.069353	-0.388725	-0.226580
H150	H	1.003382	-0.388756	-0.292544
H151	H	1.122762	-0.327274	-0.280064
H152	H	1.056797	-0.327289	-0.346023
H153	H	0.962858	-0.319131	-0.252085
H154	H	1.028833	-0.319103	-0.186125
H155	H	1.024505	-0.280154	-0.247820
H156	H	1.020201	-0.829239	-0.243232
