data_functionalizedCrystal
_audit_creation_method	'MofGen! by Chris Wilmer'
_symmetry_space_group_name_H-M	'P1'
_symmetry_Int_Tables_number	1
_symmetry_cell_setting	triclinic
loop_
_symmetry_equiv_pos_as_xyz
  x,y,z
_cell_length_a	17.699097
_cell_length_b	16.776229
_cell_length_c	10.654543
_cell_angle_alpha	89.996883
_cell_angle_beta	96.114698
_cell_angle_gamma	90.010738
loop_
_atom_site_label
_atom_site_type_symbol
_atom_site_fract_x
_atom_site_fract_y
_atom_site_fract_z
O1	O	1.005080	0.066348	-0.158889
O2	O	0.784834	0.066335	-0.179533
O3	O	0.900023	0.066344	0.013617
O4	O	0.889890	0.066339	-0.352039
O5	O	0.900008	-0.066233	0.013629
O6	O	0.784818	-0.066242	-0.179521
O7	O	1.005064	-0.066228	-0.158877
Zn8	Zn	0.894939	-0.087284	-0.169197
Zn9	Zn	0.894959	0.087391	-0.169212
O10	O	0.889875	-0.066237	-0.352027
C11	C	0.756625	0.000045	-0.178784
C12	C	0.672593	0.000040	-0.176556
C13	C	0.156797	0.072340	-0.162909
C14	C	0.235754	0.072336	-0.164993
C15	C	0.275218	0.000065	-0.166031
C16	C	0.235722	-0.072207	-0.164971
C17	C	0.156766	-0.072202	-0.162878
C18	C	0.554139	-0.072228	-0.173412
C19	C	0.633100	-0.072227	-0.175510
C20	C	0.633127	0.072310	-0.175528
C21	C	0.554172	0.072314	-0.173434
C22	C	0.514683	0.000044	-0.172368
C23	C	0.429068	0.000049	-0.170105
C24	C	0.360830	0.000059	-0.168302
N25	N	0.894931	-0.206496	-0.169185
C26	C	0.945952	-0.248209	-0.083694
C27	C	0.945957	-0.331661	-0.083693
C28	C	0.894942	-0.373399	-0.169190
C29	C	0.843915	-0.331680	-0.254686
C30	C	0.843908	-0.248229	-0.254680
C31	C	0.843942	-0.668227	-0.254711
C32	C	0.843955	-0.751683	-0.254713
C33	C	0.945991	-0.751659	-0.083723
C34	C	0.945984	-0.668208	-0.083717
C35	C	0.894955	-0.626496	-0.169208
C36	C	0.894950	-0.536008	-0.169207
C37	C	0.894950	-0.463885	-0.169199
C38	C	1.033274	0.000064	-0.159625
C39	C	1.117305	0.000074	-0.161853
C40	C	0.899273	0.000057	0.060409
C41	C	0.897050	0.000064	0.199813
N42	N	0.894974	0.206602	-0.169214
C43	C	0.964871	0.000071	0.280481
C44	C	0.962778	0.000085	0.411466
C45	C	0.825037	0.000082	0.381102
C46	C	0.827130	0.000073	0.250120
C47	C	0.890629	0.000060	0.601183
C48	C	0.892863	0.000087	0.461780
H49	H	0.521998	-0.131075	-0.172526
C50	C	0.676568	0.151808	-0.176685
H51	H	0.729244	0.141458	-0.178066
H52	H	0.658247	0.181500	-0.249549
H53	H	0.669020	0.181503	-0.103134
H54	H	1.018005	0.000093	0.477141
H55	H	0.665229	-0.131082	-0.176355
H56	H	0.124613	-0.131048	-0.162031
H57	H	0.987497	-0.214231	-0.014077
C58	C	0.748131	0.000081	0.436445
H59	H	0.756597	0.000079	0.526007
H60	H	0.720180	0.046310	0.408734
H61	H	0.720175	-0.046161	0.408749
C62	C	0.113389	0.151836	-0.161770
H63	H	0.060709	0.141492	-0.160384
H64	H	0.131723	0.181532	-0.088914
H65	H	0.120948	0.181526	-0.235329
C66	C	0.279129	-0.151705	-0.166078
H67	H	0.244301	-0.194743	-0.165128
H68	H	0.304549	-0.154728	-0.240088
H69	H	0.315311	-0.154695	-0.093672
C70	C	1.002097	-0.622301	0.010334
H71	H	1.032481	-0.659097	0.061260
H72	H	1.033833	-0.589732	-0.034772
H73	H	0.974590	-0.589762	0.062560
H74	H	0.987502	-0.365623	-0.014078
H75	H	0.771899	0.000070	0.184437
H76	H	0.267905	0.131182	-0.165845
H77	H	0.522043	0.131165	-0.172595
C78	C	1.002118	-0.797540	0.010331
H79	H	1.032504	-0.760729	0.061240
H80	H	0.974627	-0.830105	0.062556
H81	H	1.033862	-0.830082	-0.034790
C82	C	0.787823	-0.797593	-0.348742
H83	H	0.757422	-0.760800	-0.399644
H84	H	0.815310	-0.830141	-0.400976
H85	H	0.756094	-0.830155	-0.303598
C86	C	0.787819	-0.622354	-0.348757
H87	H	0.757446	-0.659166	-0.399685
H88	H	0.756074	-0.589813	-0.303649
H89	H	0.815317	-0.589790	-0.400983
C90	C	0.787776	-0.377585	-0.348697
H91	H	0.757376	-0.340788	-0.399594
H92	H	0.815251	-0.410140	-0.400939
H93	H	0.756047	-0.410138	-0.303541
C94	C	0.787787	-0.202344	-0.348726
H95	H	0.757410	-0.239152	-0.399655
H96	H	0.756045	-0.169802	-0.303612
H97	H	0.815285	-0.169780	-0.400951
H98	H	1.021804	0.000065	0.239526
