data_functionalizedCrystal
_audit_creation_method	'MofGen! by Chris Wilmer'
_symmetry_space_group_name_H-M	'P1'
_symmetry_Int_Tables_number	1
_symmetry_cell_setting	triclinic
loop_
_symmetry_equiv_pos_as_xyz
  x,y,z
_cell_length_a	16.120530
_cell_length_b	21.395363
_cell_length_c	21.395355
_cell_angle_alpha	90.003952
_cell_angle_beta	92.920957
_cell_angle_gamma	87.098336
loop_
_atom_site_label
_atom_site_type_symbol
_atom_site_fract_x
_atom_site_fract_y
_atom_site_fract_z
Zn1	Zn	1.274740	-0.298164	0.402855
Zn2	Zn	1.774740	0.201836	0.902855
Zn3	Zn	1.274679	-0.402922	0.298101
Zn4	Zn	1.774679	0.097078	0.798101
Zn5	Zn	1.135308	-0.292842	0.292783
Zn6	Zn	1.635308	0.207158	0.792783
Zn7	Zn	1.135336	-0.397587	0.397537
Zn8	Zn	1.635336	0.102413	0.897537
O9	O	1.205016	-0.347879	0.347819
O10	O	1.705016	0.152121	0.847819
O11	O	1.391400	-0.316520	0.393410
O12	O	1.891400	0.183480	0.893410
O13	O	1.256154	-0.388325	0.209717
O14	O	1.756154	0.111675	0.709717
O15	O	1.153817	-0.205871	0.307384
O16	O	1.653817	0.294129	0.807384
O17	O	1.391356	-0.393485	0.316448
O18	O	1.891356	0.106515	0.816448
O19	O	1.256257	-0.209781	0.388253
O20	O	1.756257	0.290219	0.888253
O21	O	1.153758	-0.307450	0.205809
O22	O	1.653758	0.192550	0.705809
O23	O	1.018643	-0.302277	0.302228
O24	O	1.518643	0.197723	0.802228
O25	O	1.153865	-0.384393	0.485922
O26	O	1.653865	0.115607	0.985922
O27	O	1.018664	-0.379233	0.379190
O28	O	1.518664	0.120767	0.879190
O29	O	1.256285	-0.311347	0.489828
O30	O	1.756285	0.188653	0.989828
O31	O	1.256182	-0.489891	0.311292
O32	O	1.756182	0.010109	0.811292
O33	O	1.153807	-0.485972	0.384347
O34	O	1.653807	0.014028	0.884347
C35	C	1.205014	-0.510666	0.347834
C36	C	1.705014	-0.010666	0.847834
C37	C	1.205089	-0.580310	0.347864
C38	C	1.705089	-0.080310	0.847864
C39	C	0.988402	-0.339599	0.339555
C40	C	1.488402	0.160401	0.839555
C41	C	0.895734	-0.336072	0.336034
C42	C	1.395734	0.163928	0.836034
C43	C	1.205085	-0.347869	0.511245
C44	C	1.705085	0.152131	1.011245
C45	C	1.205114	-0.347864	0.580887
C46	C	1.705114	0.152136	1.080887
C47	C	0.726069	-0.329619	0.329612
C48	C	1.226069	0.170381	0.829612
C49	C	0.684803	-0.366185	0.366072
C50	C	1.184803	0.133815	0.866072
C51	C	0.590395	-0.362594	0.362498
C52	C	1.090395	0.137406	0.862498
C53	C	0.820485	-0.333209	0.333185
C54	C	1.320485	0.166791	0.833185
C55	C	1.422475	-0.356191	0.356116
C56	C	1.922475	0.143809	0.856116
C57	C	1.515143	-0.359733	0.359651
C58	C	2.015143	0.140267	0.859651
C59	C	1.205040	-0.184456	0.347819
C60	C	1.705040	0.315544	0.847819
C61	C	1.205051	-0.114816	0.347818
C62	C	1.705051	0.385184	0.847818
C63	C	1.151726	-0.080066	0.305715
C64	C	1.651726	0.419934	0.805715
C65	C	1.151725	-0.014631	0.305723
C66	C	1.651725	0.485369	0.805723
C67	C	1.205064	0.016052	0.347827
C68	C	1.705064	0.516052	0.847827
C69	C	1.258393	-0.018705	0.389938
C70	C	1.758393	0.481295	0.889938
C71	C	1.258387	-0.084139	0.389934
C72	C	1.758387	0.415861	0.889934
C73	C	1.280191	0.116850	0.355645
C74	C	1.780191	0.616850	0.855645
C75	C	1.280199	0.182283	0.355645
C76	C	1.780199	0.682283	0.855645
C77	C	1.205083	0.217872	0.347844
C78	C	1.705083	0.717872	0.847844
C79	C	1.129958	0.188021	0.340030
C80	C	1.629958	0.688021	0.840030
C81	C	1.129952	0.122587	0.340026
C82	C	1.629952	0.622587	0.840026
C83	C	1.205077	0.087004	0.347837
C84	C	1.705077	0.587004	0.847837
C85	C	1.151753	0.323574	0.305747
C86	C	1.651753	0.823574	0.805747
C87	C	1.151750	0.389011	0.305759
C88	C	1.651750	0.889011	0.805759
C89	C	1.258426	0.384935	0.389971
C90	C	1.758426	0.884935	0.889971
C91	C	1.258421	0.319500	0.389962
C92	C	1.758421	0.819500	0.889962
C93	C	1.205085	0.288823	0.347847
C94	C	1.705085	0.788823	0.847847
C95	C	1.204995	-0.347845	0.185031
C96	C	1.704995	0.152155	0.685031
C97	C	1.205127	-0.347679	0.115395
C98	C	1.705127	0.152321	0.615395
C99	C	1.258442	-0.309828	0.615636
C100	C	1.758442	0.190172	1.115636
C101	C	1.258441	-0.309801	0.681071
C102	C	1.758441	0.190199	1.181071
C103	C	1.205121	-0.347822	0.711756
C104	C	1.705121	0.152178	1.211756
C105	C	1.151783	-0.385861	0.676999
C106	C	1.651783	0.114139	1.176999
C107	C	1.151780	-0.385882	0.611565
C108	C	1.651780	0.114118	1.111565
C109	C	1.198537	-0.403986	0.815185
C110	C	1.698537	0.096014	1.315185
C111	C	1.198546	-0.403966	0.880619
C112	C	1.698546	0.096034	1.380619
C113	C	1.205126	-0.347756	0.913577
C114	C	1.705126	0.152244	1.413577
C115	C	1.211714	-0.291565	0.881095
C116	C	1.711714	0.208435	1.381095
C117	C	1.211711	-0.291586	0.815660
C118	C	1.711711	0.208414	1.315660
C119	C	1.205118	-0.347803	0.782708
C120	C	1.705118	0.152197	1.282708
C121	C	1.258455	-0.309687	1.019278
C122	C	1.758455	0.190313	1.519278
C123	C	1.258448	-0.309659	1.084714
C124	C	1.758448	0.190341	1.584714
C125	C	1.151795	-0.385725	1.080641
C126	C	1.651795	0.114275	1.580641
C127	C	1.151797	-0.385747	1.015206
C128	C	1.651797	0.114253	1.515206
C129	C	1.205132	-0.347729	0.984529
C130	C	1.705132	0.152271	1.484529
H131	H	0.720377	-0.400187	0.399970
H132	H	1.220377	0.099813	0.899970
F133	F	0.679575	-0.285178	0.285308
F134	F	1.179575	0.214822	0.785308
F135	F	1.050009	0.225893	0.331722
F136	F	1.550009	0.725893	0.831722
H137	H	1.108367	-0.416816	0.701987
H138	H	1.608367	0.083184	1.201987
F139	F	1.218718	-0.231785	0.781093
F140	F	1.718718	0.268215	1.281093
F141	F	1.094986	0.290924	0.260927
F142	F	1.594986	0.790924	0.760927
H143	H	1.108294	-0.105039	0.271423
H144	H	1.608294	0.394961	0.771423
H145	H	1.301810	-0.112432	0.424221
H146	H	1.801810	0.387568	0.924221
H147	H	1.301864	-0.278823	0.709369
H148	H	1.801864	0.221177	1.209369
F149	F	1.094970	0.022359	0.260907
F150	F	1.594970	0.522359	0.760907
F151	F	1.315202	-0.269363	0.582990
F152	F	1.815202	0.230637	1.082990
F153	F	1.315219	-0.269180	1.121697
F154	F	1.815219	0.230820	1.621697
H155	H	1.108372	-0.416676	1.105624
H156	H	1.608372	0.083324	1.605624
H157	H	1.108322	0.417305	0.271475
H158	H	1.608322	0.917305	0.771475
F159	F	1.050000	0.090820	0.331713
F160	F	1.550000	0.590820	0.831713
F161	F	1.315192	0.417586	0.434784
F162	F	1.815192	0.917586	0.934784
H163	H	1.301849	0.291206	0.424244
H164	H	1.801849	0.791206	0.924244
F165	F	1.315156	0.013951	0.434751
F166	F	1.815156	0.513951	0.934751
F167	F	1.360153	0.214046	0.363960
F168	F	1.860153	0.714046	0.863960
F169	F	1.360144	0.078979	0.363949
F170	F	1.860144	0.578979	0.863949
H171	H	1.217073	-0.245793	0.907928
H172	H	1.717073	0.254207	1.407928
H173	H	1.301878	-0.278727	0.994299
H174	H	1.801878	0.221273	1.494299
F175	F	1.095041	-0.426234	0.978223
F176	F	1.595041	0.073766	1.478223
H177	H	1.193187	-0.449721	0.907061
H178	H	1.693187	0.050279	1.407061
F179	F	1.191553	-0.463819	0.780115
F180	F	1.691553	0.036181	1.280115
F181	F	1.095019	-0.426368	0.574582
F182	F	1.595019	0.073632	1.074582
