data_functionalizedCrystal
_audit_creation_method	'MofGen! by Chris Wilmer'
_symmetry_space_group_name_H-M	'P1'
_symmetry_Int_Tables_number	1
_symmetry_cell_setting	triclinic
loop_
_symmetry_equiv_pos_as_xyz
  x,y,z
_cell_length_a	12.827893
_cell_length_b	12.645330
_cell_length_c	12.827893
_cell_angle_alpha	89.994441
_cell_angle_beta	90.003786
_cell_angle_gamma	89.973843
loop_
_atom_site_label
_atom_site_type_symbol
_atom_site_fract_x
_atom_site_fract_y
_atom_site_fract_z
Zn1	Zn	1.597433	0.422225	0.590855
Zn2	Zn	1.597341	0.599456	0.416121
Zn3	Zn	1.422721	0.422206	0.416130
Zn4	Zn	1.422627	0.599446	0.590821
O5	O	1.510031	0.510833	0.503482
O6	O	1.743657	0.445746	0.567687
O7	O	1.574178	0.575939	0.269886
O8	O	1.445975	0.273862	0.439325
O9	O	1.743589	0.575957	0.439310
O10	O	1.574335	0.273875	0.567695
O11	O	1.445886	0.445715	0.269892
O12	O	1.276473	0.445706	0.439292
O13	O	1.445815	0.575941	0.737062
O14	O	1.276404	0.575924	0.567638
O15	O	1.574244	0.445737	0.737087
O16	O	1.574087	0.747802	0.439277
O17	O	1.445725	0.747795	0.567629
C18	C	1.238521	0.510813	0.503463
C19	C	1.122368	0.510830	0.503479
C20	C	0.950572	0.446530	0.567119
C21	C	1.070622	0.446511	0.567103
C22	C	1.509914	0.786263	0.503471
C23	C	1.509960	0.904093	0.503502
C24	C	1.429516	1.071697	0.584499
C25	C	1.429123	0.949137	0.584237
C26	C	1.480170	0.948651	0.393372
C27	C	1.479662	1.071250	0.393865
C28	C	1.620630	1.071192	0.531747
C29	C	1.619969	0.948585	0.534153
C30	C	1.782601	0.510854	0.503501
C31	C	1.898754	0.510864	0.503510
C32	C	1.510140	1.234328	0.503519
C33	C	1.510092	1.116498	0.503545
C34	C	1.510029	0.510840	0.776052
C35	C	1.510028	0.510843	0.892205
C36	C	1.446552	0.446412	0.943993
C37	C	1.446549	0.446414	1.064043
C38	C	1.510025	0.510850	1.231972
C39	C	1.510025	0.510847	1.115819
H40	H	0.943267	0.565933	0.449046
O41	O	1.374265	0.908099	0.361144
H42	H	1.320777	0.975966	0.348756
O43	O	1.374570	0.373335	0.885002
H44	H	1.292522	0.391492	0.905874
O45	O	0.891623	0.373588	0.639279
H46	H	0.912541	0.290338	0.621513
O47	O	1.700104	1.109809	0.453718
H48	H	1.677820	1.082700	0.374501
H49	H	1.447758	0.919010	0.665898
O50	O	1.555456	0.910005	0.311286
H51	H	1.532683	0.942613	0.234239
H52	H	1.115184	0.391429	0.621557
O53	O	1.453957	1.110691	0.693028
H54	H	1.396078	1.078026	0.748689
O55	O	1.321636	1.112597	0.560068
H56	H	1.325156	1.164694	0.490516
H57	H	1.347183	0.919897	0.565552
O58	O	1.374570	0.373325	1.123023
H59	H	1.385866	0.384793	1.208059
H60	H	1.564377	0.566007	1.071289
O61	O	1.656625	1.112064	0.636320
H62	H	1.596122	1.165132	0.669362
H63	H	1.564370	0.566007	0.936744
O64	O	1.649742	0.909989	0.641503
H65	H	1.591064	0.937625	0.698968
O66	O	1.063361	0.583791	0.431328
H67	H	1.013630	0.637771	0.478059
O68	O	1.372634	1.109262	0.362221
H69	H	1.313951	1.078957	0.418335
O70	O	1.554009	1.110522	0.311233
H71	H	1.590160	1.041944	0.271092
O72	O	1.703690	0.908012	0.461710
H73	H	1.668040	0.855267	0.402463
