data_functionalizedCrystal
_audit_creation_method	'MofGen! by Chris Wilmer'
_symmetry_space_group_name_H-M	'P1'
_symmetry_Int_Tables_number	1
_symmetry_cell_setting	triclinic
loop_
_symmetry_equiv_pos_as_xyz
  x,y,z
_cell_length_a	17.699097
_cell_length_b	17.699083
_cell_length_c	15.500346
_cell_angle_alpha	93.175894
_cell_angle_beta	93.191228
_cell_angle_gamma	83.285707
loop_
_atom_site_label
_atom_site_type_symbol
_atom_site_fract_x
_atom_site_fract_y
_atom_site_fract_z
O1	O	-1.007207	-0.098881	-0.072031
O2	O	-0.507207	0.401119	0.427969
O3	O	-0.786829	-0.111322	-0.072014
O4	O	-0.286829	0.388678	0.427986
O5	O	-0.903244	0.005088	-0.072015
O6	O	-0.403244	0.505088	0.427985
O7	O	-0.890792	-0.215290	-0.072030
O8	O	-0.390792	0.284710	0.427970
O9	O	-0.896967	0.011328	0.071872
O10	O	-0.396967	0.511328	0.571872
O11	O	-0.780552	-0.105082	0.071873
O12	O	-0.280552	0.394918	0.571873
O13	O	-1.000930	-0.092641	0.071856
O14	O	-0.500930	0.407359	0.571856
Cu15	Cu	-0.890168	-0.098292	0.085003
Cu16	Cu	-0.390168	0.401708	0.585003
Cu17	Cu	-0.897591	-0.105671	-0.085160
Cu18	Cu	-0.397591	0.394329	0.414840
O19	O	-0.884515	-0.209051	0.071858
O20	O	-0.384515	0.290949	0.571858
C21	C	-0.755494	-0.107754	-0.000068
C22	C	-0.255494	0.392246	0.499932
C23	C	-0.671476	-0.106412	-0.000061
C24	C	-0.171476	0.393588	0.499939
N25	N	-0.884953	-0.093101	0.204686
N26	N	-0.384953	0.406899	0.704686
C27	C	-0.159180	-0.101585	-0.078522
C28	C	0.340820	0.398415	0.421478
C29	C	-0.238124	-0.102841	-0.078519
C30	C	0.261876	0.397159	0.421481
C31	C	-0.274168	-0.100069	-0.000083
C32	C	0.225832	0.399931	0.499917
C33	C	-0.231266	-0.096033	0.078355
C34	C	0.268734	0.403967	0.578355
C35	C	-0.152324	-0.094771	0.078351
C36	C	0.347676	0.405229	0.578351
C37	C	-0.549629	-0.101119	0.078373
C38	C	-0.049629	0.398881	0.578373
C39	C	-0.628576	-0.102383	0.078371
C40	C	-0.128576	0.397617	0.578371
C41	C	-0.635429	-0.109189	-0.078496
C42	C	-0.135429	0.390811	0.421504
C43	C	-0.556487	-0.107927	-0.078501
C44	C	-0.056487	0.392073	0.421499
C45	C	-0.513592	-0.103887	-0.000063
C46	C	-0.013592	0.396113	0.499937
C47	C	-0.427992	-0.102524	-0.000068
C48	C	0.072008	0.397476	0.499932
C49	C	-0.359766	-0.101438	-0.000077
C50	C	0.140234	0.398562	0.499923
C51	C	-0.899659	0.036405	-0.000071
C52	C	-0.399659	0.536405	0.499929
C53	C	-0.898320	0.120423	-0.000071
C54	C	-0.398320	0.620423	0.499929
C55	C	-0.032265	-0.096208	-0.000088
C56	C	0.467735	0.403792	0.499912
C57	C	-0.116283	-0.097551	-0.000090
C58	C	0.383717	0.402449	0.499910
C59	C	-0.888100	-0.240368	-0.000088
C60	C	-0.388100	0.259632	0.499912
C61	C	-0.889439	-0.324386	-0.000094
C62	C	-0.389439	0.175614	0.499906
C63	C	-0.966654	0.169041	-0.000075
C64	C	-0.466654	0.669041	0.499925
C65	C	-0.965392	0.247984	-0.000083
C66	C	-0.465392	0.747984	0.499917
C67	C	-0.895796	0.278308	-0.000080
C68	C	-0.395796	0.778308	0.499920
C69	C	-0.827457	0.229684	-0.000079
C70	C	-0.327457	0.729684	0.499921
C71	C	-0.828720	0.150742	-0.000077
C72	C	-0.328720	0.650742	0.499923
C73	C	-0.822362	0.548047	-0.000085
C74	C	-0.322362	1.048047	0.499915
C75	C	-0.821104	0.626995	-0.000084
C76	C	-0.321104	1.126995	0.499916
C77	C	-0.959034	0.645288	-0.000091
C78	C	-0.459034	1.145288	0.499909
C79	C	-0.960297	0.566347	-0.000089
C80	C	-0.460297	1.066347	0.499911
C81	C	-0.891959	0.517730	-0.000092
C82	C	-0.391959	1.017730	0.499908
C83	C	-0.893328	0.432131	-0.000086
C84	C	-0.393328	0.932131	0.499914
C85	C	-0.894425	0.363906	-0.000080
C86	C	-0.394425	0.863906	0.499920
N87	N	-0.902812	-0.110856	-0.204844
N88	N	-0.402812	0.389144	0.295156
C89	C	-0.858968	-0.066984	0.749869
C90	C	-0.358968	0.433016	1.249869
C91	C	-0.862908	-0.070939	0.659297
C92	C	-0.362908	0.429061	1.159297
C93	C	-0.910687	-0.118770	0.614014
C94	C	-0.410687	0.381230	1.114014
C95	C	-0.954536	-0.162643	0.659308
C96	C	-0.454536	0.337357	1.159308
C97	C	-0.950600	-0.158684	0.749878
C98	C	-0.450600	0.341316	1.249878
C99	C	-0.924866	-0.133015	0.340550
C100	C	-0.424866	0.366985	0.840550
C101	C	-0.928796	-0.136973	0.249974
C102	C	-0.428796	0.363027	0.749974
C103	C	-0.837169	-0.045267	0.249969
C104	C	-0.337169	0.454733	0.749969
C105	C	-0.833234	-0.041315	0.340541
C106	C	-0.333234	0.458685	0.840541
C107	C	-0.877086	-0.085185	0.385827
C108	C	-0.377086	0.414815	0.885827
C109	C	-0.914713	-0.122815	0.521435
C110	C	-0.414713	0.377185	1.021435
C111	C	-0.873064	-0.081135	0.478404
C112	C	-0.373064	0.418865	0.978404
H113	H	-0.129838	-0.103848	-0.142394
H114	H	0.370162	0.396152	0.357606
H115	H	-0.117397	-0.091494	0.142218
H116	H	0.382603	0.408506	0.642218
Br117	Br	-0.726646	0.668149	-0.000079
Br118	Br	-0.226646	1.168149	0.499921
H119	H	-0.773076	0.111158	-0.000074
H120	H	-0.273076	0.611158	0.499926
H121	H	-0.794328	-0.002364	0.377404
H122	H	-0.294328	0.497636	0.877404
H123	H	-0.986303	-0.194409	0.786750
H124	H	-0.486303	0.305591	1.286750
Br125	Br	-0.984375	-0.192559	0.401999
Br126	Br	-0.484375	0.307441	0.901999
H127	H	-0.967703	-0.175928	0.213107
H128	H	-0.467703	0.324072	0.713107
Br129	Br	-1.058134	0.313963	-0.000088
Br130	Br	-0.558134	0.813963	0.499912
Br131	Br	-1.061110	0.127895	-0.000066
Br132	Br	-0.561110	0.627895	0.499934
Br133	Br	-0.507573	-0.111696	-0.184953
Br134	Br	-0.007573	0.388304	0.315047
H135	H	-0.766717	0.508472	-0.000087
H136	H	-0.266717	1.008472	0.499913
Br137	Br	-1.054752	0.525196	-0.000093
Br138	Br	-0.554752	1.025196	0.499907
Br139	Br	-1.019386	-0.227552	0.597854
Br140	Br	-0.519386	0.272448	1.097854
H141	H	-1.014678	0.684882	-0.000092
H142	H	-0.514678	1.184882	0.499908
Br143	Br	-0.794116	-0.002072	0.811315
Br144	Br	-0.294116	0.497928	1.311315
H145	H	-0.827208	-0.035211	0.622428
H146	H	-0.327208	0.464789	1.122428
H147	H	-0.273048	-0.106121	-0.142386
H148	H	0.226952	0.393879	0.357614
Br149	Br	-0.808226	-0.016220	0.539860
Br150	Br	-0.308226	0.483780	1.039860
H151	H	-0.801468	-0.009549	0.213088
H152	H	-0.301468	0.490451	0.713088
Br153	Br	-0.733005	0.270836	-0.000089
Br154	Br	-0.233005	0.770836	0.499911
H155	H	-0.670365	-0.112476	-0.142364
H156	H	-0.170365	0.387524	0.357636
H157	H	-0.657921	-0.100126	0.142247
H158	H	-0.157921	0.399874	0.642247
H159	H	-0.514714	-0.097818	0.142242
H160	H	-0.014714	0.402182	0.642242
H161	H	-0.953614	-0.161761	0.484556
H162	H	-0.453614	0.338239	0.984556
H163	H	-0.260620	-0.093771	0.142219
H164	H	0.239380	0.406229	0.642219
