data_functionalizedCrystal
_audit_creation_method	'MofGen! by Chris Wilmer'
_symmetry_space_group_name_H-M	'P1'
_symmetry_Int_Tables_number	1
_symmetry_cell_setting	triclinic
loop_
_symmetry_equiv_pos_as_xyz
  x,y,z
_cell_length_a	12.594517
_cell_length_b	12.827892
_cell_length_c	12.827885
_cell_angle_alpha	90.029976
_cell_angle_beta	90.011719
_cell_angle_gamma	90.011278
loop_
_atom_site_label
_atom_site_type_symbol
_atom_site_fract_x
_atom_site_fract_y
_atom_site_fract_z
Zn1	Zn	1.627274	-0.416097	0.590637
Zn2	Zn	1.627166	-0.590875	0.415896
Zn3	Zn	1.449277	-0.416136	0.415933
Zn4	Zn	1.449262	-0.590784	0.590619
O5	O	1.538245	-0.503473	0.503271
O6	O	1.776206	-0.439304	0.567449
O7	O	1.603530	-0.567749	0.269665
O8	O	1.472941	-0.269895	0.439131
O9	O	1.776127	-0.567712	0.439068
O10	O	1.603714	-0.269866	0.567485
O11	O	1.472836	-0.439369	0.269692
O12	O	1.300330	-0.439281	0.439114
O13	O	1.472915	-0.567558	0.736858
O14	O	1.300319	-0.567595	0.567455
O15	O	1.603700	-0.439216	0.736870
O16	O	1.603516	-0.737099	0.439051
O17	O	1.472810	-0.737032	0.567419
C18	C	1.261704	-0.503433	0.503287
C19	C	1.143399	-0.503442	0.503319
C20	C	1.538179	-0.774983	0.503252
C21	C	1.538247	-0.891136	0.503279
C22	C	1.473700	-1.063062	0.439761
C23	C	1.473627	-0.943012	0.439732
C24	C	1.074171	-0.573368	0.572989
C25	C	1.003361	-0.478087	0.598690
C26	C	1.003409	-0.598802	0.477594
C27	C	1.074147	-0.408110	0.529071
C28	C	1.074202	-0.528889	0.407930
C29	C	1.003424	-0.433542	0.433595
C30	C	1.815866	-0.503513	0.503256
C31	C	1.934171	-0.503531	0.503250
C32	C	1.538318	-0.503373	0.775842
C33	C	1.538348	-0.503330	0.891995
C34	C	1.538341	-0.230903	0.503314
C35	C	1.538382	-0.114750	0.503332
C36	C	1.538234	-0.503498	0.231761
C37	C	1.538410	-0.503246	0.115609
C38	C	1.603072	-0.439810	0.943786
C39	C	1.603105	-0.439764	1.063836
H40	H	1.418254	-0.898563	0.385303
H41	H	1.593701	-1.070126	0.557740
N42	N	0.964431	-0.699915	0.450303
N43	N	0.907689	-0.711258	0.371147
H44	H	0.880164	-0.782670	0.351877
H45	H	1.593631	-0.935580	0.557703
H46	H	1.105237	-0.632389	0.631982
H47	H	1.482999	-0.557634	1.071077
N48	N	1.112972	-0.306962	0.556441
N49	N	1.210710	-0.290609	0.560922
H50	H	1.238134	-0.219175	0.580253
H51	H	0.972244	-0.456595	0.679329
N52	N	1.113258	-0.555874	0.306791
N53	N	1.049627	-0.575959	0.234732
H54	H	1.077210	-0.595027	0.163300
H55	H	1.482954	-0.557671	0.936532
N56	N	0.964711	-0.359316	0.359648
N57	N	0.987598	-0.264991	0.369383
H58	H	0.960257	-0.212566	0.317161
H59	H	1.658521	-0.385386	1.108375
N60	N	1.404291	-1.119049	0.371523
N61	N	1.404445	-1.216491	0.371647
H62	H	1.355423	-1.256032	0.323453
N63	N	1.672544	-0.371625	0.887910
N64	N	1.672415	-0.371755	0.790468
H65	H	1.721481	-0.323597	0.751006
