data_functionalizedCrystal
_audit_creation_method	'MofGen! by Chris Wilmer'
_symmetry_space_group_name_H-M	'P1'
_symmetry_Int_Tables_number	1
_symmetry_cell_setting	triclinic
loop_
_symmetry_equiv_pos_as_xyz
  x,y,z
_cell_length_a	15.944545
_cell_length_b	14.421503
_cell_length_c	17.699083
_cell_angle_alpha	90.000692
_cell_angle_beta	96.610406
_cell_angle_gamma	89.990135
loop_
_atom_site_label
_atom_site_type_symbol
_atom_site_fract_x
_atom_site_fract_y
_atom_site_fract_z
O1	O	1.114309	0.077054	-0.097586
O2	O	0.869733	0.077069	-0.109626
O3	O	0.998931	0.077053	0.006572
O4	O	0.985111	0.077070	-0.213783
O5	O	0.998946	-0.077171	0.006564
O6	O	0.869749	-0.077155	-0.109633
O7	O	1.114324	-0.077170	-0.097593
Cu8	Cu	0.992038	-0.091244	-0.103614
Cu9	Cu	0.992020	0.091143	-0.103605
O10	O	0.985127	-0.077154	-0.213791
C11	C	0.838448	-0.000041	-0.109130
C12	C	0.745205	-0.000035	-0.107635
N13	N	0.992057	-0.219525	-0.103620
C14	C	0.474733	-0.000051	-0.031140
C15	C	0.525245	-0.076091	-0.068023
C16	C	0.409572	-0.000052	-0.102300
C17	C	0.525210	0.075961	-0.068035
C18	C	0.574480	-0.000042	-0.104917
C19	C	0.458856	-0.076154	-0.139164
C20	C	0.458817	0.075966	-0.139165
C21	C	0.509296	-0.000092	-0.176101
C22	C	0.314573	-0.000058	-0.100790
C23	C	0.669476	-0.000043	-0.106432
C24	C	1.051811	-0.469162	-0.049878
C25	C	0.975942	-0.530955	-0.035177
C26	C	0.992038	-0.408687	-0.103611
C27	C	1.067889	-0.530987	-0.118268
C28	C	0.992027	-0.591408	-0.103600
C29	C	0.916131	-0.469119	-0.088876
C30	C	1.008129	-0.469146	-0.171996
C31	C	0.932205	-0.530912	-0.157324
C32	C	0.992046	-0.303426	-0.103615
C33	C	0.992011	-0.696667	-0.103596
C34	C	1.145610	-0.000058	-0.098089
C35	C	1.238853	-0.000058	-0.099585
C36	C	0.998443	-0.000059	0.034766
C37	C	0.996958	-0.000060	0.118786
N38	N	0.992007	0.219424	-0.103593
C39	C	0.985614	-0.000040	-0.241985
C40	C	0.987100	-0.000033	-0.326005
C41	C	1.072794	-0.000066	0.167279
C42	C	1.071393	-0.000057	0.246225
C43	C	0.994155	-0.000050	0.276676
C44	C	0.918313	-0.000041	0.228177
C45	C	0.919715	-0.000042	0.149233
C46	C	0.912658	-0.000033	0.546550
C47	C	0.911262	-0.000034	0.625500
C48	C	1.064337	-0.000048	0.643542
C49	C	1.065739	-0.000049	0.564598
C50	C	0.989897	-0.000036	0.516105
C51	C	0.991417	-0.000043	0.430504
C52	C	0.992634	-0.000049	0.362276
H53	H	0.459208	-0.000130	0.030143
O54	O	0.529663	-0.000139	-0.257335
H55	H	0.502841	-0.063318	-0.286690
H56	H	0.554184	0.140243	-0.037967
H57	H	0.850903	-0.000022	0.507076
O58	O	1.152864	-0.566976	-0.134702
H59	H	1.151902	-0.643932	-0.135080
O60	O	1.153192	-0.000062	0.298525
H61	H	1.139244	-0.000046	0.358536
H62	H	0.429801	0.140259	-0.169188
H63	H	0.857961	-0.000037	0.109750
H64	H	1.102306	-0.442048	-0.004413
H65	H	0.851966	-0.442058	-0.076408
H66	H	0.554245	-0.140381	-0.037974
H67	H	0.429990	-0.140509	-0.169197
O68	O	0.827948	-0.000020	0.658341
H69	H	0.823650	-0.062885	0.693868
O70	O	1.149044	-0.000059	0.531752
H71	H	1.153329	0.062797	0.496211
O72	O	0.957901	-0.566940	0.041427
H73	H	1.007606	-0.542220	0.085930
O74	O	0.865176	-0.566626	-0.217505
H75	H	0.802310	-0.541718	-0.205148
H76	H	1.021772	-0.441976	-0.229814
H77	H	1.135690	-0.000078	0.142493
O78	O	1.146143	-0.000055	0.695843
H79	H	1.132198	-0.000043	0.755855
H80	H	0.855424	-0.000029	0.252976
