data_functionalizedCrystal
_audit_creation_method	'MofGen! by Chris Wilmer'
_symmetry_space_group_name_H-M	'P1'
_symmetry_Int_Tables_number	1
_symmetry_cell_setting	triclinic
loop_
_symmetry_equiv_pos_as_xyz
  x,y,z
_cell_length_a	14.908571
_cell_length_b	14.908579
_cell_length_c	14.908694
_cell_angle_alpha	83.252790
_cell_angle_beta	83.592472
_cell_angle_gamma	89.792543
loop_
_atom_site_label
_atom_site_type_symbol
_atom_site_fract_x
_atom_site_fract_y
_atom_site_fract_z
Zn1	Zn	1.387400	0.474949	-0.617420
Zn2	Zn	1.370832	0.616579	-0.473782
Zn3	Zn	1.228310	0.456497	-0.456349
Zn4	Zn	1.228268	0.616509	-0.616377
O5	O	1.303702	0.541134	-0.540982
O6	O	1.511446	0.501488	-0.606099
O7	O	1.345010	0.587651	-0.344385
O8	O	1.256365	0.332706	-0.470856
O9	O	1.499274	0.605544	-0.500569
O10	O	1.373247	0.346263	-0.589194
O11	O	1.240300	0.470039	-0.331576
O12	O	1.102061	0.469971	-0.469844
O13	O	1.256293	0.605424	-0.743601
O14	O	1.102030	0.587532	-0.587416
O15	O	1.373207	0.501420	-0.744367
O16	O	1.344970	0.742809	-0.499557
O17	O	1.240228	0.742757	-0.604321
C18	C	1.069312	0.526742	-0.526626
C19	C	0.969038	0.520608	-0.520507
C20	C	1.290822	0.775518	-0.553739
C21	C	1.285396	0.875796	-0.559232
C22	C	1.316593	0.555473	-0.777857
C23	C	1.322087	0.561583	-0.878799
C24	C	0.780612	0.631668	-0.631290
C25	C	0.686396	0.625908	-0.625544
C26	C	0.686390	0.503324	-0.503274
C27	C	0.780606	0.509084	-0.509020
C28	C	0.827713	0.573259	-0.573029
C29	C	0.921930	0.579023	-0.578770
C30	C	0.921923	0.456436	-0.456505
C31	C	0.827707	0.450676	-0.450759
C32	C	1.539008	0.555582	-0.555395
C33	C	1.639282	0.561739	-0.561537
C34	C	1.384391	1.064234	-0.460564
C35	C	1.379296	1.158453	-0.465723
C36	C	1.270115	1.158457	-0.574711
C37	C	1.275211	1.064238	-0.569553
C38	C	1.332349	1.017129	-0.512476
C39	C	1.337440	0.922907	-0.507314
C40	C	1.228265	0.922913	-0.616307
C41	C	1.223169	1.017133	-0.621465
C42	C	1.316653	1.305837	-0.528208
C43	C	1.322159	1.205568	-0.522793
C44	C	1.223353	0.450597	-1.055143
C45	C	1.228511	0.456335	-1.149986
C46	C	1.337557	0.578802	-1.163331
C47	C	1.332398	0.573063	-1.068488
C48	C	1.275295	0.508958	-1.014396
C49	C	1.270142	0.503216	-0.919551
C50	C	1.379183	0.625686	-0.932898
C51	C	1.384341	0.631424	-1.027742
C52	C	1.290917	0.526788	-0.305028
C53	C	1.285613	0.520434	-0.204084
H54	H	0.818967	0.683926	-0.683404
O55	O	1.435419	1.209263	-0.409727
H56	H	1.475999	1.160672	-0.369169
H57	H	1.176866	0.398393	-1.011100
O58	O	1.399083	0.872100	-0.445771
H59	H	1.393884	0.798668	-0.450902
H60	H	1.223602	1.196830	-0.621186
H61	H	0.648050	0.673469	-0.672988
O62	O	0.635572	0.434139	-0.434210
H63	H	0.562144	0.439963	-0.439993
O64	O	1.446018	1.013409	-0.399016
H65	H	1.425757	1.026265	-0.327772
H66	H	1.186214	0.408812	-1.183157
H67	H	1.185886	0.884550	-0.658574
H68	H	1.223650	0.451015	-0.875511
H69	H	1.384034	0.631004	-1.207388
O70	O	1.161530	1.067942	-0.683011
H71	H	1.166721	1.141372	-0.677870
O72	O	0.972749	0.648220	-0.647821
H73	H	1.010938	0.694227	-0.612229
O74	O	1.435213	0.688628	-0.888940
H75	H	1.507856	0.678586	-0.910639
H76	H	1.430829	0.683620	-1.071796
O77	O	0.776895	0.381484	-0.381698
H78	H	0.703466	0.387301	-0.387478
O79	O	0.972722	0.393428	-0.393662
H80	H	1.046152	0.408209	-0.408412
