data_functionalizedCrystal
_audit_creation_method	'MofGen! by Chris Wilmer'
_symmetry_space_group_name_H-M	'P1'
_symmetry_Int_Tables_number	1
_symmetry_cell_setting	triclinic
loop_
_symmetry_equiv_pos_as_xyz
  x,y,z
_cell_length_a	6.817900
_cell_length_b	17.284796
_cell_length_c	16.015572
_cell_angle_alpha	74.520630
_cell_angle_beta	104.485554
_cell_angle_gamma	103.042616
loop_
_atom_site_label
_atom_site_type_symbol
_atom_site_fract_x
_atom_site_fract_y
_atom_site_fract_z
V1	V	-3.989851	-0.032421	-0.267205
O2	O	-3.984272	0.082635	-0.269842
O3	O	-3.935653	-0.142261	-0.257950
O4	O	-3.928075	0.003653	-0.387131
O5	O	-3.991902	-0.064290	-0.139766
V6	V	-4.475964	-0.022862	-0.252865
O7	O	-4.245429	-0.053388	-0.298662
O8	O	-4.670583	-0.001895	-0.221408
O9	O	-4.306955	0.086979	-0.262120
O10	O	-4.598940	-0.137917	-0.250228
O11	O	-4.591309	0.009007	-0.380304
O12	O	-4.314533	-0.058936	-0.132939
C13	C	-3.779677	-0.170150	-0.251818
C14	C	-3.816561	-0.259717	-0.245050
C15	C	-4.020748	-0.765145	-0.198298
C16	C	-3.986107	-0.680986	-0.204672
C17	C	-3.999359	-0.627252	-0.287771
C18	C	-4.047237	-0.657682	-0.364501
C19	C	-4.081863	-0.741840	-0.358126
C20	C	-3.899065	-0.374305	-0.315405
C21	C	-3.864440	-0.290141	-0.321775
C22	C	-3.803308	-0.313451	-0.161944
C23	C	-3.837950	-0.397610	-0.155577
C24	C	-3.885814	-0.428032	-0.232307
N25	N	-3.963957	-0.541227	-0.294288
N26	N	-3.921200	-0.514056	-0.225789
C27	C	-3.770009	0.015980	-0.416600
C28	C	-3.800745	0.044747	-0.514592
C29	C	-4.075902	-0.210593	-0.874993
C30	C	-4.104789	-0.183536	-0.967068
C31	C	-4.035190	-0.043549	-0.951808
C32	C	-4.006286	-0.070595	-0.859730
C33	C	-4.026648	-0.154118	-0.821329
C34	C	-3.957032	-0.014119	-0.806066
C35	C	-3.928142	-0.041163	-0.713996
C36	C	-3.948505	-0.124683	-0.675589
C37	C	-3.997757	-0.181162	-0.729259
C38	C	-3.936686	0.069404	-0.844469
C39	C	-3.887432	0.125879	-0.790805
C40	C	-3.858526	0.098835	-0.698733
C41	C	-3.878890	0.015316	-0.660326
C42	C	-3.809274	0.155314	-0.645062
C43	C	-3.780383	0.128270	-0.552992
C44	C	-3.849999	-0.011728	-0.568255
C45	C	-4.126274	0.114862	-0.268249
C46	C	-4.068627	0.204430	-0.275022
C47	C	-4.135942	-0.071266	-0.103464
C48	C	-4.084444	-0.100030	-0.005472
H49	H	-3.866552	-0.079741	-0.536987
H50	H	-4.144888	-0.229531	-1.010759
O51	O	-4.133523	-0.774655	-0.440883
H52	H	-4.155358	-0.842202	-0.422490
O53	O	-3.823622	-0.455558	-0.065944
H54	H	-3.937936	-0.447111	-0.031920
O55	O	-3.751643	-0.280638	-0.079188
H56	H	-3.870020	-0.244970	-0.081341
O57	O	-3.878713	-0.232180	-0.411406
H58	H	-3.917791	-0.267472	-0.463691
O59	O	-3.950729	-0.407115	-0.398160
H60	H	-3.954158	-0.355610	-0.457013
O61	O	-4.013200	0.046535	-0.993225
H62	H	-4.160311	0.060178	-1.037960
H63	H	-4.058012	-0.613925	-0.432162
O64	O	-3.865442	0.215963	-0.832222
H65	H	-4.012553	0.229606	-0.876957
O66	O	-3.917323	-0.153860	-0.576283
H67	H	-4.030290	-0.132812	-0.551848
H68	H	-4.014311	-0.249174	-0.697991
H69	H	-4.092455	-0.278606	-0.843725
H70	H	-3.960181	0.091421	-0.919438
O71	O	-3.787302	0.245398	-0.686481
H72	H	-3.934423	0.259033	-0.731213
O73	O	-4.006440	-0.823100	-0.108669
H74	H	-3.967302	-0.787801	-0.056388
O75	O	-3.934417	-0.648166	-0.121919
H76	H	-3.931026	-0.699669	-0.063064
H77	H	-3.740277	0.174259	-0.509298
