data_functionalizedCrystal
_audit_creation_method	'MofGen! by Chris Wilmer'
_symmetry_space_group_name_H-M	'P1'
_symmetry_Int_Tables_number	1
_symmetry_cell_setting	triclinic
loop_
_symmetry_equiv_pos_as_xyz
  x,y,z
_cell_length_a	14.044220
_cell_length_b	14.519709
_cell_length_c	13.596369
_cell_angle_alpha	89.998664
_cell_angle_beta	90.001331
_cell_angle_gamma	91.565489
loop_
_atom_site_label
_atom_site_type_symbol
_atom_site_fract_x
_atom_site_fract_y
_atom_site_fract_z
O1	O	1.258086	-0.222362	0.081691
O2	O	1.508086	0.027638	0.331691
O3	O	1.758086	0.277638	0.581691
O4	O	2.008086	0.527638	0.831691
O5	O	0.982103	-0.214338	0.081716
O6	O	1.232103	0.035662	0.331716
O7	O	1.482103	0.285662	0.581716
O8	O	1.732103	0.535662	0.831716
O9	O	1.127412	-0.084702	0.081694
O10	O	1.377412	0.165298	0.331694
O11	O	1.627412	0.415298	0.581694
O12	O	1.877412	0.665298	0.831694
O13	O	1.112778	-0.351999	0.081713
O14	O	1.362778	-0.101999	0.331713
O15	O	1.612778	0.148001	0.581713
O16	O	1.862778	0.398001	0.831713
O17	O	1.127394	-0.084708	-0.081889
O18	O	1.377394	0.165292	0.168111
O19	O	1.627394	0.415292	0.418111
O20	O	1.877394	0.665292	0.668111
O21	O	0.982086	-0.214345	-0.081867
O22	O	1.232086	0.035655	0.168133
O23	O	1.482086	0.285655	0.418133
O24	O	1.732086	0.535655	0.668133
O25	O	1.258068	-0.222369	-0.081892
O26	O	1.508068	0.027631	0.168108
O27	O	1.758068	0.277631	0.418108
O28	O	2.008068	0.527631	0.668108
Zn29	Zn	1.120074	-0.218358	-0.107852
Zn30	Zn	1.370074	0.031642	0.142148
Zn31	Zn	1.620074	0.281642	0.392148
Zn32	Zn	1.870074	0.531642	0.642148
Zn33	Zn	1.120098	-0.218349	0.107676
Zn34	Zn	1.370098	0.031651	0.357676
Zn35	Zn	1.620098	0.281651	0.607676
Zn36	Zn	1.870098	0.531651	0.857676
O37	O	1.112760	-0.352005	-0.081870
O38	O	1.362760	-0.102005	0.168130
O39	O	1.612760	0.147995	0.418130
O40	O	1.862760	0.397995	0.668130
C41	C	0.946774	-0.210829	-0.000073
C42	C	1.196774	0.039171	0.249927
C43	C	1.446774	0.289171	0.499927
C44	C	1.696774	0.539171	0.749927
C45	C	0.841531	-0.200352	-0.000064
C46	C	1.091531	0.049648	0.249936
C47	C	1.341531	0.299648	0.499936
C48	C	1.591531	0.549648	0.749936
C49	C	1.126721	-0.050290	-0.000098
C50	C	1.376721	0.199710	0.249902
C51	C	1.626721	0.449710	0.499902
C52	C	1.876721	0.699710	0.749902
C53	C	1.124677	0.052256	-0.000098
C54	C	1.374677	0.302256	0.249902
C55	C	1.624677	0.552256	0.499902
C56	C	1.874677	0.802256	0.749902
N57	N	1.120065	-0.218363	-0.254944
N58	N	1.370065	0.031637	-0.004944
N59	N	1.620065	0.281637	0.245056
N60	N	1.870065	0.531637	0.495056
C61	C	0.648837	-0.181197	-0.000084
C62	C	0.898837	0.068803	0.249916
C63	C	1.148837	0.318803	0.499916
C64	C	1.398837	0.568803	0.749916
C65	C	0.591329	-0.255505	-0.000083
C66	C	0.841329	-0.005505	0.249917
C67	C	1.091329	0.244495	0.499917
C68	C	1.341329	0.494495	0.749917
C69	C	0.484108	-0.244848	-0.000095
C70	C	0.734108	0.005152	0.249905
C71	C	0.984108	0.255152	0.499905
C72	C	1.234108	0.505152	0.749905
C73	C	0.756068	-0.191854	-0.000073
C74	C	1.006068	0.058146	0.249927
C75	C	1.256068	0.308146	0.499927
C76	C	1.506068	0.558146	0.749927
C77	C	1.293398	-0.225878	-0.000101
C78	C	1.543398	0.024122	0.249899
C79	C	1.793398	0.274122	0.499899
C80	C	2.043398	0.524122	0.749899
C81	C	1.398641	-0.236355	-0.000104
C82	C	1.648641	0.013645	0.249896
C83	C	1.898641	0.263645	0.499896
C84	C	2.148641	0.513645	0.749896
C85	C	1.113451	-0.386417	-0.000076
C86	C	1.363451	-0.136417	0.249924
C87	C	1.613451	0.113583	0.499924
C88	C	1.863451	0.363583	0.749924
C89	C	1.115494	-0.488963	-0.000070
C90	C	1.365494	-0.238963	0.249930
C91	C	1.615494	0.011037	0.499930
C92	C	1.865494	0.261037	0.749930
C93	C	1.117153	0.427758	-0.000072
C94	C	1.367153	0.677758	0.249928
C95	C	1.617153	0.927758	0.499928
C96	C	1.867153	1.177758	0.749928
C97	C	1.119243	0.323282	-0.000079
C98	C	1.369243	0.573282	0.249921
C99	C	1.619243	0.823282	0.499921
C100	C	1.869243	1.073282	0.749921
C101	C	1.120915	0.240010	-0.000086
C102	C	1.370915	0.490010	0.249914
C103	C	1.620915	0.740010	0.499914
C104	C	1.870915	0.990010	0.749914
C105	C	1.123005	0.135527	-0.000092
C106	C	1.373005	0.385527	0.249908
C107	C	1.623005	0.635527	0.499908
C108	C	1.873005	0.885527	0.749908
C109	C	1.120070	-0.218366	-0.343942
C110	C	1.370070	0.031634	-0.093942
C111	C	1.620070	0.281634	0.156058
C112	C	1.870070	0.531634	0.406058
C113	C	1.120079	-0.218360	-0.455593
C114	C	1.370079	0.031640	-0.205593
C115	C	1.620079	0.281640	0.044407
C116	C	1.870079	0.531640	0.294407
C117	C	1.120091	-0.218351	-0.544583
C118	C	1.370091	0.031649	-0.294583
C119	C	1.620091	0.281649	-0.044583
C120	C	1.870091	0.531649	0.205417
C121	C	1.120102	-0.218346	-0.656242
C122	C	1.370102	0.031654	-0.406242
C123	C	1.620102	0.281654	-0.156242
C124	C	1.870102	0.531654	0.093758
N125	N	1.120114	-0.218337	0.254767
N126	N	1.370114	0.031663	0.504767
N127	N	1.620114	0.281663	0.754767
N128	N	1.870114	0.531663	1.004767
H129	H	0.622622	-0.327127	-0.000073
H130	H	0.872622	-0.077127	0.249927
H131	H	1.122622	0.172873	0.499927
H132	H	1.372622	0.422873	0.749927
F133	F	0.607938	-0.087589	-0.000094
F134	F	0.857938	0.162411	0.249906
F135	F	1.107938	0.412411	0.499906
F136	F	1.357938	0.662411	0.749906
