data_functionalizedCrystal
_audit_creation_method	'MofGen! by Chris Wilmer'
_symmetry_space_group_name_H-M	'P1'
_symmetry_Int_Tables_number	1
_symmetry_cell_setting	triclinic
loop_
_symmetry_equiv_pos_as_xyz
  x,y,z
_cell_length_a	14.519709
_cell_length_b	14.519709
_cell_length_c	13.596369
_cell_angle_alpha	89.999709
_cell_angle_beta	89.993066
_cell_angle_gamma	96.319855
loop_
_atom_site_label
_atom_site_type_symbol
_atom_site_fract_x
_atom_site_fract_y
_atom_site_fract_z
O1	O	0.120893	-1.223868	-0.081665
O2	O	0.454226	-0.890535	0.251668
O3	O	0.787559	-0.557202	0.585001
O4	O	0.135129	-0.955392	-0.081696
O5	O	0.468463	-0.622058	0.251638
O6	O	0.801796	-0.288725	0.584971
O7	O	-0.006227	-1.096748	-0.081671
O8	O	0.327106	-0.763415	0.251662
O9	O	0.660439	-0.430082	0.584996
O10	O	0.262249	-1.082512	-0.081690
O11	O	0.595583	-0.749178	0.251643
O12	O	0.928916	-0.415845	0.584976
O13	O	-0.006235	-1.096734	0.081912
O14	O	0.327098	-0.763401	0.415245
O15	O	0.660432	-0.430067	0.748579
O16	O	0.135122	-0.955377	0.081887
O17	O	0.468455	-0.622044	0.415220
O18	O	0.801788	-0.288711	0.748554
O19	O	0.120885	-1.223854	0.081917
O20	O	0.454219	-0.890521	0.415251
O21	O	0.787552	-0.557188	0.748584
Zn22	Zn	0.128002	-1.089614	0.107875
Zn23	Zn	0.461336	-0.756280	0.441208
Zn24	Zn	0.794669	-0.422947	0.774541
Zn25	Zn	0.128012	-1.089632	-0.107653
Zn26	Zn	0.461346	-0.756299	0.225680
Zn27	Zn	0.794679	-0.422966	0.559014
O28	O	0.262242	-1.082498	0.081893
O29	O	0.595575	-0.749164	0.415226
O30	O	0.928909	-0.415831	0.748559
C31	C	0.134462	-0.921025	0.000092
C32	C	0.467795	-0.587691	0.333425
C33	C	0.801129	-0.254358	0.666759
C34	C	0.132474	-0.818643	0.000081
C35	C	0.465807	-0.485310	0.333414
C36	C	0.799141	-0.151977	0.666747
C37	C	-0.040591	-1.096078	0.000121
C38	C	0.292742	-0.762744	0.333454
C39	C	0.626076	-0.429411	0.666787
C40	C	-0.142972	-1.094090	0.000121
C41	C	0.190361	-0.760756	0.333454
C42	C	0.523694	-0.427423	0.666788
C43	C	-0.517868	-1.086770	0.000095
C44	C	-0.184535	-0.753437	0.333428
C45	C	0.148799	-0.420103	0.666761
C46	C	-0.413560	-1.088803	0.000102
C47	C	-0.080227	-0.755469	0.333436
C48	C	0.253107	-0.422136	0.666769
C49	C	-0.330423	-1.090430	0.000109
C50	C	0.002910	-0.757096	0.333442
C51	C	0.336243	-0.423763	0.666775
C52	C	-0.226109	-1.092463	0.000114
C53	C	0.107224	-0.759129	0.333448
C54	C	0.440558	-0.425796	0.666781
C55	C	0.121553	-1.258221	0.000128
C56	C	0.454886	-0.924888	0.333461
C57	C	0.788219	-0.591554	0.666794
C58	C	0.123541	-1.360602	0.000132
C59	C	0.456874	-1.027269	0.333466
C60	C	0.790207	-0.693936	0.666799
C61	C	0.296605	-1.083168	0.000099
C62	C	0.629939	-0.749835	0.333432
C63	C	0.963272	-0.416501	0.666766
C64	C	0.398987	-1.085156	0.000092
C65	C	0.732320	-0.751823	0.333425
C66	C	1.065653	-0.418490	0.666759
N67	N	0.127995	-1.089608	0.254966
N68	N	0.461328	-0.756274	0.588300
N69	N	0.794662	-0.422941	0.921633
C70	C	0.125154	-0.443748	0.000126
C71	C	0.458488	-0.110414	0.333459
C72	C	0.791821	0.222919	0.666793
C73	C	0.127187	-0.548056	0.000113
C74	C	0.460520	-0.214722	0.333446
C75	C	0.793854	0.118611	0.666780
C76	C	0.128814	-0.631192	0.000102
C77	C	0.462147	-0.297859	0.333436
C78	C	0.795481	0.035474	0.666769
C79	C	0.130847	-0.735507	0.000091
C80	C	0.464180	-0.402173	0.333425
C81	C	0.797514	-0.068840	0.666758
N82	N	0.128012	-1.089645	-0.254745
N83	N	0.461346	-0.756312	0.078589
N84	N	0.794679	-0.422979	0.411922
C85	C	0.128013	-1.089631	0.656257
C86	C	0.461347	-0.756298	0.989591
C87	C	0.794680	-0.422964	1.322924
C88	C	0.128011	-1.089622	0.544606
C89	C	0.461345	-0.756288	0.877939
C90	C	0.794678	-0.422955	1.211273
C91	C	0.128005	-1.089620	0.455615
C92	C	0.461338	-0.756286	0.788949
C93	C	0.794671	-0.422953	1.122282
C94	C	0.128001	-1.089610	0.343957
C95	C	0.461335	-0.756276	0.677290
C96	C	0.794668	-0.422943	1.010624
