data_functionalizedCrystal
_audit_creation_method	'MofGen! by Chris Wilmer'
_symmetry_space_group_name_H-M	'P1'
_symmetry_Int_Tables_number	1
_symmetry_cell_setting	triclinic
loop_
_symmetry_equiv_pos_as_xyz
  x,y,z
_cell_length_a	11.026607
_cell_length_b	16.776229
_cell_length_c	17.699083
_cell_angle_alpha	89.992455
_cell_angle_beta	95.934516
_cell_angle_gamma	89.994019
loop_
_atom_site_label
_atom_site_type_symbol
_atom_site_fract_x
_atom_site_fract_y
_atom_site_fract_z
O1	O	1.609234	-0.066299	0.316812
O2	O	1.256034	-0.066298	0.280737
O3	O	1.442612	-0.066291	0.189956
O4	O	1.422655	-0.066306	0.407592
O5	O	1.442588	0.066285	0.189945
O6	O	1.256009	0.066278	0.280726
O7	O	1.609209	0.066278	0.316801
Zn8	Zn	1.432605	0.087327	0.298762
Zn9	Zn	1.432638	-0.087348	0.298776
O10	O	1.422630	0.066271	0.407582
C11	C	1.210830	-0.000010	0.274076
C12	C	1.076175	-0.000010	0.254237
N13	N	1.432592	0.206539	0.298753
C14	C	1.441885	-0.000003	0.161655
C15	C	1.439740	-0.000003	0.077343
C16	C	1.002207	-0.000014	0.309017
C17	C	0.863034	-0.000014	0.288513
C18	C	1.654412	-0.000012	0.323461
C19	C	1.789068	-0.000018	0.343301
N20	N	1.432661	-0.206559	0.298780
C21	C	1.515234	0.248259	0.258580
C22	C	1.515240	0.331711	0.258580
C23	C	1.432610	0.373441	0.298759
C24	C	1.349959	0.331715	0.338933
C25	C	1.349947	0.248265	0.338928
C26	C	1.350003	0.668263	0.338954
C27	C	1.350023	0.751719	0.338958
C28	C	1.515296	0.751709	0.258606
C29	C	1.515284	0.668258	0.258601
C30	C	1.432630	0.626539	0.298772
C31	C	1.432622	0.536051	0.298770
C32	C	1.432623	0.463928	0.298765
C33	C	1.549257	-0.000002	0.043769
C34	C	1.547234	-0.000009	-0.035453
C35	C	1.435692	-0.000011	-0.081099
C36	C	1.326166	-0.000015	-0.047520
C37	C	1.328190	-0.000013	0.031700
C38	C	1.318000	-0.000021	-0.367005
C39	C	1.315984	-0.000020	-0.446230
C40	C	1.537044	-0.000017	-0.434158
C41	C	1.539068	-0.000015	-0.354938
C42	C	1.429543	-0.000023	-0.321366
C43	C	1.431738	-0.000017	-0.235465
C44	C	1.433496	-0.000012	-0.166998
C45	C	1.423358	-0.000019	0.435882
C46	C	1.425503	-0.000025	0.520195
H47	H	1.041916	-0.000013	0.371095
H48	H	1.239010	-0.000014	0.059035
H49	H	1.282674	0.365697	0.371644
H50	H	0.823331	-0.000030	0.226431
H51	H	1.582594	0.785685	0.225894
H52	H	1.036466	-0.000026	0.192158
O53	O	1.595326	0.627599	0.219502
C54	C	1.577475	0.544997	0.228023
H55	H	1.532212	0.533552	0.282066
H56	H	1.669288	0.513201	0.231939
H57	H	1.516495	0.521443	0.176955
H58	H	1.629897	-0.000009	-0.317776
H59	H	1.282731	0.785695	0.371677
H60	H	1.626225	-0.000014	-0.461501
O61	O	0.836469	-0.000173	0.417357
C62	C	0.908826	-0.068831	0.432084
H63	H	0.878947	-0.116810	0.388484
H64	H	0.897408	-0.091894	0.491524
H65	H	1.008633	-0.053308	0.428154
O66	O	1.269894	0.627661	0.378041
C67	C	1.334710	0.579390	0.433601
H68	H	1.429707	0.566869	0.416427
H69	H	1.284030	0.520717	0.438663
H70	H	1.342804	0.611548	0.490640
H71	H	1.582526	0.214287	0.225866
H72	H	1.282650	0.214297	0.371640
O73	O	1.657717	-0.000037	0.087995
C74	C	1.753945	-0.000020	0.041369
H75	H	1.720099	-0.025118	-0.016867
H76	H	1.831840	-0.038513	0.068482
H77	H	1.787709	0.063583	0.034791
H78	H	1.582533	0.365679	0.225868
H79	H	1.636415	-0.000006	-0.062784
H80	H	1.225148	-0.000020	-0.483393
H81	H	1.228817	-0.000027	-0.339680
H82	H	1.235346	-0.000022	-0.084691
