data_functionalizedCrystal
_audit_creation_method	'MofGen! by Chris Wilmer'
_symmetry_space_group_name_H-M	'P1'
_symmetry_Int_Tables_number	1
_symmetry_cell_setting	triclinic
loop_
_symmetry_equiv_pos_as_xyz
  x,y,z
_cell_length_a	16.109302
_cell_length_b	12.837942
_cell_length_c	11.892083
_cell_angle_alpha	85.700043
_cell_angle_beta	93.903332
_cell_angle_gamma	89.145360
loop_
_atom_site_label
_atom_site_type_symbol
_atom_site_fract_x
_atom_site_fract_y
_atom_site_fract_z
O1	O	1.118514	0.126617	0.094054
O2	O	1.618514	0.626617	0.594054
O3	O	0.877769	0.143198	0.094046
O4	O	1.377769	0.643198	0.594046
O5	O	0.992803	-0.015993	0.094043
O6	O	1.492803	0.484007	0.594043
O7	O	1.003480	0.285808	0.094057
O8	O	1.503480	0.785808	0.594057
O9	O	0.983202	-0.002748	-0.093965
O10	O	1.483202	0.497252	0.406035
O11	O	0.868168	0.156443	-0.093962
O12	O	1.368168	0.656443	0.406038
O13	O	1.108913	0.139862	-0.093953
O14	O	1.608913	0.639862	0.406047
Zn15	Zn	0.987016	0.150255	-0.123808
Zn16	Zn	1.487016	0.650255	0.376192
Zn17	Zn	0.999666	0.132805	0.123900
Zn18	Zn	1.499666	0.632805	0.623900
O19	O	0.993879	0.299053	-0.093950
O20	O	1.493879	0.799053	0.406050
C21	C	0.841940	0.149149	0.000041
C22	C	1.341940	0.649149	0.500041
C23	C	0.749485	0.147135	0.000037
C24	C	1.249485	0.647135	0.500037
C25	C	0.531541	0.149697	-0.102435
C26	C	1.031541	0.649697	0.397565
C27	C	0.444670	0.147793	-0.102431
C28	C	0.944670	0.647793	0.397569
C29	C	0.455148	0.133358	0.102545
C30	C	0.955148	0.633358	0.602545
C31	C	0.542018	0.135255	0.102540
C32	C	1.042018	0.635255	0.602540
C33	C	0.580212	0.143430	0.000047
C34	C	1.080212	0.643430	0.500047
C35	C	0.406471	0.139629	0.000056
C36	C	0.906471	0.639629	0.500056
C37	C	0.312282	0.137565	0.000061
C38	C	0.812282	0.637565	0.500061
C39	C	0.674407	0.145492	0.000041
C40	C	1.174407	0.645492	0.500041
C41	C	0.984396	-0.047990	0.000040
C42	C	1.484396	0.452010	0.500040
C43	C	0.973639	-0.163064	0.000041
C44	C	1.473639	0.336936	0.500041
C45	C	1.102957	-0.404067	0.000069
C46	C	1.602957	0.095933	0.500069
C47	C	1.092854	-0.512190	0.000071
C48	C	1.592854	-0.012190	0.500071
C49	C	0.943331	-0.487434	0.000054
C50	C	1.443331	0.012566	0.500054
C51	C	0.953434	-0.379311	0.000052
C52	C	1.453434	0.120689	0.500052
C53	C	1.033250	-0.337632	0.000058
C54	C	1.533250	0.162368	0.500058
C55	C	1.043352	-0.229507	0.000049
C56	C	1.543352	0.270493	0.500049
C57	C	0.893829	-0.204754	0.000040
C58	C	1.393829	0.295246	0.500040
C59	C	0.883726	-0.312876	0.000041
C60	C	1.383726	0.187124	0.500041
C61	C	1.144742	0.133911	0.000054
C62	C	1.644742	0.633911	0.500054
C63	C	1.237198	0.135924	0.000065
C64	C	1.737198	0.635924	0.500065
C65	C	1.002286	0.331050	0.000055
C66	C	1.502286	0.831050	0.500055
C67	C	1.013044	0.446123	0.000061
C68	C	1.513044	0.946123	0.500061
N69	N	0.978389	0.162164	-0.292862
N70	N	1.478389	0.662164	0.207138
C71	C	0.918414	0.245140	-0.470399
C72	C	1.418414	0.745140	0.029601
C73	C	0.924428	0.236800	-0.352057
C74	C	1.424428	0.736800	0.147943
C75	C	1.026337	0.095862	-0.352018
C76	C	1.526337	0.595862	0.147982
C77	C	1.020323	0.104202	-0.470360
C78	C	1.520323	0.604202	0.029640
C79	C	0.966361	0.178845	-0.529546
C80	C	1.466361	0.678845	-0.029546
C81	C	0.960351	0.187190	-0.647890
C82	C	1.460351	0.687190	-0.147890
C83	C	1.062255	0.046247	-0.647849
C84	C	1.562255	0.546247	-0.147849
C85	C	1.068269	0.037907	-0.529507
C86	C	1.568269	0.537907	-0.029507
N87	N	1.008299	0.120887	0.292954
N88	N	1.508299	0.620887	0.792954
H89	H	1.108341	-0.195574	0.000050
H90	H	1.608341	0.304426	0.500050
H91	H	1.149618	-0.566279	0.000083
H92	H	1.649618	-0.066279	0.500083
C93	C	0.413127	0.124375	0.215282
C94	C	0.913127	0.624375	0.715282
N95	N	0.381477	0.117612	0.300198
N96	N	0.881477	0.617612	0.800198
C97	C	1.114999	-0.026682	-0.712920
C98	C	1.614999	0.473318	-0.212920
N99	N	1.154727	-0.081610	-0.761933
N100	N	1.654727	0.418390	-0.261933
H101	H	0.581648	0.130148	0.185998
H102	H	1.081648	0.630148	0.685998
C103	C	0.900990	0.269295	-0.712993
C104	C	1.400990	0.769295	-0.212993
N105	N	0.856275	0.331135	-0.762026
N106	N	1.356275	0.831135	-0.262026
H107	H	0.562635	0.156354	-0.185892
H108	H	1.062635	0.656354	0.314108
H109	H	1.167946	-0.370131	0.000063
H110	H	1.667946	0.129869	0.500063
H111	H	0.878349	-0.521390	0.000061
H112	H	1.378349	-0.021390	0.500061
H113	H	0.818743	-0.346827	0.000040
H114	H	1.318743	0.153173	0.500040
C115	C	0.391135	0.154700	-0.215169
C116	C	0.891135	0.654700	0.284831
N117	N	0.350813	0.159906	-0.300089
N118	N	0.850813	0.659906	0.199911
H119	H	0.837068	-0.150649	0.000022
H120	H	1.337068	0.349351	0.500022
C121	C	0.859060	0.327251	-0.535506
C122	C	1.359060	0.827251	-0.035506
N123	N	0.814353	0.389098	-0.584544
N124	N	1.314353	0.889098	-0.084544
C125	C	0.871710	0.309760	-0.286999
C126	C	1.371710	0.809760	0.213001
N127	N	0.832009	0.364728	-0.237998
N128	N	1.332009	0.864728	0.262002
C129	C	1.085656	0.013722	-0.286892
C130	C	1.585656	0.513722	0.213108
N131	N	1.130325	-0.048158	-0.237838
N132	N	1.630325	0.451842	0.262162
C133	C	1.127611	-0.044210	-0.464388
C134	C	1.627611	0.455790	0.035612
N135	N	1.172307	-0.106066	-0.415342
N136	N	1.672307	0.393934	0.084658
