data_functionalizedCrystal
_audit_creation_method	'MofGen! by Chris Wilmer'
_symmetry_space_group_name_H-M	'P1'
_symmetry_Int_Tables_number	1
_symmetry_cell_setting	triclinic
loop_
_symmetry_equiv_pos_as_xyz
  x,y,z
_cell_length_a	14.519710
_cell_length_b	17.699083
_cell_length_c	16.176319
_cell_angle_alpha	90.007696
_cell_angle_beta	89.993531
_cell_angle_gamma	96.518420
loop_
_atom_site_label
_atom_site_type_symbol
_atom_site_fract_x
_atom_site_fract_y
_atom_site_fract_z
O1	O	1.223449	-0.099216	-0.068730
O2	O	1.723449	0.400784	0.431270
O3	O	0.954923	-0.110899	-0.068736
O4	O	1.454923	0.389101	0.431264
O5	O	1.096773	0.005110	-0.068726
O6	O	1.596773	0.505110	0.431274
O7	O	1.081600	-0.215225	-0.068741
O8	O	1.581600	0.284775	0.431259
O9	O	1.096753	0.005118	0.068768
O10	O	1.596753	0.505118	0.568768
O11	O	0.954903	-0.110892	0.068757
O12	O	1.454903	0.389108	0.568757
O13	O	1.223430	-0.099208	0.068763
O14	O	1.723430	0.400792	0.568763
Cu15	Cu	1.089165	-0.105049	0.081314
Cu16	Cu	1.589165	0.394951	0.581314
Cu17	Cu	1.089188	-0.105058	-0.081287
Cu18	Cu	1.589188	0.394942	0.418713
O19	O	1.081580	-0.215217	0.068753
O20	O	1.581580	0.284783	0.568753
C21	C	1.096219	0.033312	0.000021
C22	C	1.596219	0.533312	0.500021
C23	C	1.094588	0.117335	0.000021
C24	C	1.594588	0.617335	0.500021
C25	C	0.920556	-0.110351	0.000010
C26	C	1.420556	0.389649	0.500010
C27	C	0.818181	-0.108719	0.000008
C28	C	1.318181	0.391281	0.500008
C29	C	1.257797	-0.099756	0.000015
C30	C	1.757797	0.400244	0.500015
C31	C	1.360171	-0.101388	0.000012
C32	C	1.860171	0.398612	0.500012
C33	C	1.735042	-0.107395	0.000011
C34	C	2.235042	0.392605	0.500011
C35	C	1.630741	-0.105727	0.000011
C36	C	2.130741	0.394273	0.500011
C37	C	1.547610	-0.104392	0.000011
C38	C	2.047610	0.395608	0.500011
C39	C	1.443302	-0.102723	0.000012
C40	C	1.943302	0.397277	0.500012
C41	C	1.082134	-0.243420	0.000004
C42	C	1.582134	0.256580	0.500004
C43	C	1.083765	-0.327442	-0.000002
C44	C	1.583765	0.172558	0.499998
N45	N	1.089155	-0.105043	0.195680
N46	N	1.589155	0.394957	0.695680
C47	C	1.177851	0.165718	0.000024
C48	C	1.677851	0.665718	0.500024
C49	C	1.176313	0.244665	0.000017
C50	C	1.676313	0.744665	0.500017
C51	C	1.091511	0.275229	0.000013
C52	C	1.591511	0.775229	0.500013
C53	C	1.008242	0.226840	0.000007
C54	C	1.508242	0.726840	0.500007
C55	C	1.009781	0.147894	0.000009
C56	C	1.509781	0.647894	0.500009
C57	C	1.002033	0.545221	0.000000
C58	C	1.502033	1.045221	0.500000
C59	C	1.000501	0.624173	0.000001
C60	C	1.500501	1.124173	0.500001
C61	C	1.168566	0.641992	0.000009
C62	C	1.668566	1.141992	0.500009
C63	C	1.170105	0.563046	0.000010
C64	C	1.670105	1.063046	0.500010
C65	C	1.086836	0.514664	0.000000
C66	C	1.586836	1.014664	0.500000
C67	C	1.088505	0.429060	0.000007
C68	C	1.588505	0.929060	0.500007
C69	C	1.089841	0.360831	0.000012
C70	C	1.589841	0.860831	0.500012
N71	N	1.089205	-0.105059	-0.195653
N72	N	1.589205	0.394941	0.304347
C73	C	1.151985	-0.053695	0.238948
C74	C	1.651985	0.446305	0.738948
C75	C	1.151990	-0.053694	0.325495
C76	C	1.651990	0.446306	0.825495
C77	C	1.089168	-0.105045	0.368772
C78	C	1.589168	0.394955	0.868772
C79	C	1.026332	-0.156396	0.325497
C80	C	1.526332	0.343604	0.825497
C81	C	1.026323	-0.156392	0.238952
C82	C	1.526323	0.343608	0.738952
C83	C	1.026363	-0.156410	0.674526
C84	C	1.526363	0.343590	1.174526
C85	C	1.026378	-0.156411	0.761077
C86	C	1.526378	0.343589	1.261077
C87	C	1.152030	-0.053712	0.761069
C88	C	1.652030	0.446288	1.261069
C89	C	1.152022	-0.053708	0.674524
C90	C	1.652022	0.446292	1.174524
C91	C	1.089182	-0.105055	0.631256
C92	C	1.589182	0.394945	1.131256
C93	C	1.089177	-0.105055	0.537412
C94	C	1.589177	0.394945	1.037412
C95	C	1.089178	-0.105050	0.462615
C96	C	1.589178	0.394950	0.962615
H97	H	1.246907	0.140840	0.000033
H98	H	1.746907	0.640840	0.500033
O99	O	1.261572	0.530085	0.000003
O100	O	1.761572	1.030085	0.500003
H101	H	1.301576	0.549521	0.056036
H102	H	1.801576	1.049521	0.556036
H103	H	0.931441	0.649055	-0.000001
H104	H	1.431441	1.149055	0.499999
H105	H	0.975177	-0.198204	0.360738
H106	H	1.475177	0.301796	0.860738
O107	O	0.916779	0.259808	0.000007
O108	O	1.416779	0.759808	0.500007
H109	H	0.876787	0.240385	-0.056038
H110	H	1.376787	0.740385	0.443962
H111	H	0.941980	0.108501	0.000006
H112	H	1.441980	0.608501	0.500006
H113	H	1.203146	-0.011882	0.203718
H114	H	1.703146	0.488118	0.703718
H115	H	0.934231	0.505837	-0.000007
H116	H	1.434231	1.005837	0.499993
O117	O	1.219769	0.001684	0.627843
O118	O	1.719769	0.501684	1.127843
H119	H	1.291642	-0.008081	0.644437
H120	H	1.791642	0.491919	1.144437
O121	O	1.219773	0.001674	0.372167
O122	O	1.719773	0.501674	0.872167
H123	H	1.263468	0.037371	0.327534
H124	H	1.763468	0.537371	0.827534
O125	O	1.258383	0.694175	0.000017
O126	O	1.758383	1.194175	0.500017
H127	H	1.261724	0.730559	-0.056027
H128	H	1.761724	1.230559	0.443973
H129	H	1.203195	-0.011899	0.796307
H130	H	1.703195	0.488101	1.296307
O131	O	0.958613	-0.211800	0.807753
O132	O	1.458613	0.288200	1.307753
H133	H	0.969187	-0.203180	0.875202
H134	H	1.469187	0.296820	1.375202
O135	O	0.958595	-0.211798	0.627870
O136	O	1.458595	0.288202	1.127870
H137	H	0.969132	-0.203168	0.560418
H138	H	1.469132	0.296832	1.060418
O139	O	0.958559	-0.211768	0.192269
O140	O	1.458559	0.288232	0.692269
H141	H	0.970172	-0.270797	0.208851
H142	H	1.470172	0.229203	0.708851
O143	O	1.266117	0.296853	0.000034
O144	O	1.766117	0.796853	0.500034
H145	H	1.325343	0.262337	0.000052
H146	H	1.825343	0.762337	0.500052
