data_functionalizedCrystal
_audit_creation_method	'MofGen! by Chris Wilmer'
_symmetry_space_group_name_H-M	'P1'
_symmetry_Int_Tables_number	1
_symmetry_cell_setting	triclinic
loop_
_symmetry_equiv_pos_as_xyz
  x,y,z
_cell_length_a	16.109301
_cell_length_b	15.944493
_cell_length_c	14.586319
_cell_angle_alpha	90.002083
_cell_angle_beta	89.999213
_cell_angle_gamma	83.468262
loop_
_atom_site_label
_atom_site_type_symbol
_atom_site_fract_x
_atom_site_fract_y
_atom_site_fract_z
O1	O	1.103144	0.107969	-0.076170
O2	O	0.861083	0.121406	-0.076183
O3	O	0.988749	-0.007593	-0.076184
O4	O	0.975478	0.236968	-0.076170
O5	O	0.988740	-0.007595	0.076297
O6	O	0.861074	0.121404	0.076297
O7	O	1.103135	0.107967	0.076311
Cu8	Cu	0.982104	0.114685	0.090227
Cu9	Cu	0.982114	0.114688	-0.090100
O10	O	0.975469	0.236966	0.076311
C11	C	0.830104	0.120861	0.000055
C12	C	0.737808	0.119229	0.000050
C13	C	0.515544	0.191980	0.000065
C14	C	0.428824	0.190440	0.000070
C15	C	0.448680	0.037388	0.000057
C16	C	0.535399	0.038928	0.000058
C17	C	0.568829	0.116227	0.000057
C18	C	0.395389	0.113146	0.000062
C19	C	0.301363	0.111476	0.000068
C20	C	0.662861	0.117897	0.000053
C21	C	0.988202	-0.038888	0.000052
C22	C	0.986576	-0.132136	0.000041
C23	C	1.061722	-0.367921	0.000062
C24	C	1.021203	-0.418475	-0.075121
C25	C	0.983563	-0.302856	0.000052
C26	C	1.021176	-0.418453	0.075213
C27	C	0.980658	-0.467765	0.000066
C28	C	0.943064	-0.352182	-0.075193
C29	C	0.943049	-0.352157	0.075209
C30	C	0.902472	-0.402677	0.000008
C31	C	0.985238	-0.207857	0.000042
C32	C	0.978976	-0.562762	0.000069
C33	C	1.134114	0.108513	0.000070
C34	C	1.226410	0.110144	0.000070
C35	C	0.976016	0.268262	0.000073
C36	C	0.977642	0.361510	0.000079
N37	N	0.982102	0.114683	0.217058
N38	N	0.982122	0.114683	-0.216931
C39	C	1.038651	0.057582	0.452065
C40	C	1.038654	0.057580	0.548046
C41	C	0.925567	0.171787	0.548056
C42	C	0.925561	0.171785	0.452076
C43	C	0.982108	0.114683	0.404083
C44	C	0.982116	0.114684	0.596044
C45	C	0.982118	0.114682	0.700111
C46	C	0.982105	0.114683	0.300009
H47	H	0.385443	0.252126	0.000078
C48	C	1.065801	-0.457601	-0.160981
N49	N	1.099399	-0.487072	-0.225646
H50	H	0.910065	-0.323186	0.138769
H51	H	0.542760	0.254921	0.000071
C52	C	0.594016	-0.044410	0.000050
N53	N	0.638166	-0.107178	0.000047
C54	C	1.065782	-0.457544	0.161082
N55	N	1.099384	-0.486984	0.225756
C56	C	0.411899	-0.047637	0.000050
N57	N	0.384196	-0.111679	0.000041
H58	H	1.084694	0.011085	0.412991
C59	C	1.152673	-0.346834	-0.000034
N60	N	1.221176	-0.330949	-0.000111
C61	C	1.100849	-0.005243	0.600821
N62	N	1.147694	-0.052567	0.640571
C63	C	0.863367	0.234594	0.600857
N64	N	0.816517	0.281902	0.640627
H65	H	0.910079	-0.323351	-0.138822
H66	H	0.835095	-0.418121	-0.000037
H67	H	0.879513	0.218284	0.413007
