data_functionalizedCrystal
_audit_creation_method	'MofGen! by Chris Wilmer'
_symmetry_space_group_name_H-M	'P1'
_symmetry_Int_Tables_number	1
_symmetry_cell_setting	triclinic
loop_
_symmetry_equiv_pos_as_xyz
  x,y,z
_cell_length_a	19.188930
_cell_length_b	16.109302
_cell_length_c	15.186229
_cell_angle_alpha	89.994701
_cell_angle_beta	89.991143
_cell_angle_gamma	83.303281
loop_
_atom_site_label
_atom_site_type_symbol
_atom_site_fract_x
_atom_site_fract_y
_atom_site_fract_z
O1	O	0.089746	1.102833	-0.073278
O2	O	0.100914	0.860734	-0.073273
O3	O	-0.006309	0.988770	-0.073258
O4	O	0.196970	0.974797	-0.073292
O5	O	-0.006310	0.988761	0.073199
O6	O	0.100913	0.860725	0.073185
O7	O	0.089745	1.102824	0.073179
Zn8	Zn	0.095329	0.981774	0.096435
Zn9	Zn	0.095331	0.981785	-0.096529
O10	O	0.196968	0.974788	0.073165
C11	C	0.100461	0.829756	-0.000043
C12	C	0.099105	0.737466	-0.000040
C13	C	-0.032322	0.988313	-0.000027
C14	C	-0.109829	0.986955	-0.000020
C15	C	0.095967	0.525130	0.079786
C16	C	0.094685	0.438415	0.079783
C17	C	0.094690	0.438434	-0.079893
C18	C	0.095967	0.525149	-0.079889
C19	C	0.096609	0.568495	-0.000047
C20	C	0.094050	0.395064	-0.000054
C21	C	0.092660	0.301043	-0.000058
C22	C	0.097998	0.662522	-0.000043
C23	C	-0.154578	1.062082	-0.000017
C24	C	-0.227404	1.060806	-0.000031
C25	C	-0.255480	0.984398	-0.000030
C26	C	-0.210722	0.909261	-0.000037
C27	C	-0.137897	0.910539	-0.000032
N28	N	-0.363622	0.925991	0.049814
N29	N	-0.432803	0.924782	0.049810
C30	C	-0.474897	0.980542	-0.000048
N31	N	-0.445198	1.037571	-0.049892
N32	N	-0.376011	1.038782	-0.049885
C33	C	-0.334446	0.983004	-0.000036
C34	C	-0.598613	1.054291	-0.000062
C35	C	-0.671441	1.053012	-0.000081
C36	C	-0.654757	0.901465	-0.000079
C37	C	-0.581931	0.902746	-0.000068
C38	C	-0.553864	0.979162	-0.000055
C39	C	0.222981	0.975245	-0.000068
C40	C	0.300489	0.976604	-0.000082
C41	C	0.090198	1.133802	-0.000052
C42	C	0.091555	1.226093	-0.000061
N43	N	0.095327	0.981772	0.228128
N44	N	0.095327	0.981793	-0.228221
C45	C	0.047864	1.038485	0.453857
C46	C	0.047863	1.038488	0.546047
C47	C	0.142792	0.925073	0.546043
C48	C	0.142789	0.925068	0.453855
C49	C	0.095327	0.981778	0.407764
C50	C	0.095327	0.981787	0.592142
C51	C	0.095326	0.981789	0.692098
C52	C	0.095327	0.981775	0.307802
H53	H	0.094162	0.403111	0.144791
O54	O	0.188802	0.869959	0.590917
C55	C	0.151399	0.818798	0.644246
H56	H	0.096772	0.852110	0.658062
H57	H	0.180540	0.805547	0.709069
H58	H	0.146641	0.757368	0.608732
H59	H	0.181439	0.878886	0.416324
H60	H	0.094168	0.403132	-0.144897
O61	O	0.096621	0.567145	-0.157523
C62	C	0.095769	0.510297	-0.227994
H63	H	0.116951	0.444957	-0.204599
H64	H	0.130017	0.529960	-0.283833
H65	H	0.039654	0.510005	-0.252535
O66	O	0.001647	1.093484	0.409143
C67	C	-0.067461	1.080212	0.431735
H68	H	-0.067796	1.013646	0.457075
H69	H	-0.102521	1.089903	0.371134
H70	H	-0.087948	1.126354	0.485263
H71	H	0.096490	0.560420	0.144798
O72	O	0.001786	1.093495	0.590957
C73	C	0.011972	1.081356	0.682209
H74	H	0.038050	1.015163	0.694806
H75	H	-0.040901	1.090803	0.717253
H76	H	0.047003	1.128283	0.708356
H77	H	-0.263845	1.121986	-0.000033
O78	O	-0.127350	1.136332	-0.000168
C79	C	-0.150226	1.182129	-0.076008
H80	H	-0.165355	1.137447	-0.129026
H81	H	-0.106116	1.217347	-0.101466
H82	H	-0.197704	1.228627	-0.058860
O83	O	-0.238074	0.835091	-0.000152
C84	C	-0.279676	0.829815	-0.076016
H85	H	-0.297823	0.895413	-0.101303
H86	H	-0.327359	0.796847	-0.058959
H87	H	-0.247487	0.792920	-0.129130
O88	O	-0.571227	1.128444	-0.000021
C89	C	-0.497354	1.113463	-0.000032
H90	H	-0.480245	1.048519	0.027701
H91	H	-0.475012	1.162339	0.042490
H92	H	-0.477068	1.117420	-0.070292
O93	O	-0.094524	0.837481	0.000009
C94	C	-0.134916	0.769764	-0.000020
H95	H	-0.189279	0.791062	0.027700
H96	H	-0.108048	0.717137	0.042503
H97	H	-0.140081	0.746336	-0.070285
O98	O	-0.714813	1.126072	-0.000041
C99	C	-0.674419	1.193786	-0.000049
H100	H	-0.620067	1.172480	0.027684
H101	H	-0.701303	1.246404	0.042474
H102	H	-0.669225	1.217231	-0.070309
H103	H	-0.677615	0.839252	-0.000082
H104	H	-0.545495	0.841569	-0.000065
