data_functionalizedCrystal
_audit_creation_method	'MofGen! by Chris Wilmer'
_symmetry_space_group_name_H-M	'P1'
_symmetry_Int_Tables_number	1
_symmetry_cell_setting	triclinic
loop_
_symmetry_equiv_pos_as_xyz
  x,y,z
_cell_length_a	21.295420
_cell_length_b	21.295417
_cell_length_c	17.637464
_cell_angle_alpha	101.172195
_cell_angle_beta	101.197421
_cell_angle_gamma	90.026289
loop_
_atom_site_label
_atom_site_type_symbol
_atom_site_fract_x
_atom_site_fract_y
_atom_site_fract_z
Zn1	Zn	0.890297	-0.322632	-0.446878
Zn2	Zn	1.390297	0.177368	0.053122
Zn3	Zn	0.911513	-0.406623	-0.314697
Zn4	Zn	1.411513	0.093377	0.185303
Zn5	Zn	0.806330	-0.301368	-0.314721
Zn6	Zn	1.306330	0.198632	0.185279
Zn7	Zn	0.784998	-0.427851	-0.446824
Zn8	Zn	1.284998	0.072149	0.053176
O9	O	0.848284	-0.364619	-0.380780
O10	O	1.348284	0.135381	0.119220
O11	O	0.981198	-0.333789	-0.429356
O12	O	1.481198	0.166211	0.070644
O13	O	0.915367	-0.374877	-0.204096
O14	O	1.415367	0.125123	0.295904
O15	O	0.817517	-0.216104	-0.332285
O16	O	1.317517	0.283896	0.167715
O17	O	0.996786	-0.395497	-0.332243
O18	O	1.496786	0.104503	0.167757
O19	O	0.879207	-0.231728	-0.429380
O20	O	1.379207	0.268272	0.070620
O21	O	0.838089	-0.297546	-0.204114
O22	O	1.338089	0.202454	0.295886
O23	O	0.715413	-0.318131	-0.332233
O24	O	1.215413	0.181869	0.167767
O25	O	0.781159	-0.431677	-0.557435
O26	O	1.281159	0.068323	-0.057435
O27	O	0.699740	-0.411058	-0.429288
O28	O	1.199740	0.088942	0.070712
O29	O	0.858522	-0.354374	-0.557474
O30	O	1.358522	0.145626	-0.057474
O31	O	0.894682	-0.497523	-0.332191
O32	O	1.394682	0.002477	0.167809
O33	O	0.801732	-0.513119	-0.429264
O34	O	1.301732	-0.013119	0.070736
C35	C	0.684736	-0.364591	-0.380757
C36	C	1.184736	0.135409	0.119243
C37	C	0.614767	-0.364597	-0.380767
C38	C	1.114767	0.135403	0.119233
C39	C	0.107174	-0.332598	-0.431441
C40	C	0.607174	0.167402	0.068559
C41	C	0.172917	-0.332593	-0.431441
C42	C	0.672917	0.167407	0.068559
C43	C	0.213922	-0.364641	-0.380798
C44	C	0.713922	0.135359	0.119202
C45	C	0.189178	-0.396709	-0.330167
C46	C	0.689178	0.103291	0.169833
C47	C	0.123436	-0.396718	-0.330174
C48	C	0.623436	0.103282	0.169826
N49	N	0.328272	-0.358244	-0.311591
N50	N	0.828272	0.141756	0.188409
N51	N	0.390724	-0.358232	-0.311586
N52	N	0.890724	0.141768	0.188414
C53	C	0.412001	-0.364616	-0.380775
C54	C	0.912001	0.135384	0.119225
N55	N	0.368466	-0.371001	-0.449970
N56	N	0.868466	0.128999	0.050030
N57	N	0.306008	-0.371009	-0.449974
N58	N	0.806008	0.128991	0.050026
C59	C	0.285210	-0.364635	-0.380785
C60	C	0.785210	0.135365	0.119215
C61	C	0.508022	-0.332548	-0.431407
C62	C	1.008022	0.167452	0.068593
C63	C	0.573766	-0.332548	-0.431409
C64	C	1.073766	0.167452	0.068591
C65	C	0.590027	-0.396660	-0.330128
C66	C	1.090027	0.103340	0.169872
C67	C	0.524284	-0.396665	-0.330133
C68	C	1.024284	0.103335	0.169867
C69	C	0.483285	-0.364605	-0.380772
C70	C	0.983285	0.135395	0.119228
C71	C	0.848209	-0.528163	-0.380736
C72	C	1.348209	-0.028163	0.119264
C73	C	0.848230	-0.598133	-0.380744
C74	C	1.348230	-0.098133	0.119256
C75	C	0.896657	-0.622865	-0.330249
C76	C	1.396657	-0.122865	0.169751
C77	C	0.896683	-0.688611	-0.330267
C78	C	1.396683	-0.188611	0.169733
C79	C	0.848273	-0.729619	-0.380771
C80	C	1.348273	-0.229619	0.119229
C81	C	0.799842	-0.704880	-0.431275
C82	C	1.299842	-0.204880	0.068725
C83	C	0.799821	-0.639137	-0.431262
C84	C	1.299821	-0.139137	0.068738
N85	N	0.792236	-0.833850	-0.386789
N86	N	1.292236	-0.333850	0.113211
N87	N	0.792259	-0.896303	-0.386797
N88	N	1.292259	-0.396303	0.113203
C89	C	0.848336	-0.927701	-0.380816
C90	C	1.348336	-0.427701	0.119184
N91	N	0.904394	-0.894285	-0.374811
N92	N	1.404394	-0.394285	0.125189
N93	N	0.904370	-0.831826	-0.374799
N94	N	1.404370	-0.331826	0.125201
C95	C	0.848292	-0.800908	-0.380792
C96	C	1.348292	-0.300908	0.119208
C97	C	0.896796	-1.023723	-0.330339
C98	C	1.396796	-0.523723	0.169661
C99	C	0.896823	-1.089470	-0.330362
C100	C	1.396823	-0.589470	0.169638
C101	C	0.799977	-1.105737	-0.431366
C102	C	1.299977	-0.605737	0.068634
C103	C	0.799955	-1.039992	-0.431347
C104	C	1.299955	-0.539992	0.068653
C105	C	0.848364	-0.998988	-0.380829
C106	C	1.348364	-0.498988	0.119171
C107	C	1.012471	-0.364647	-0.380803
C108	C	1.512471	0.135353	0.119197
C109	C	1.082437	-0.364659	-0.380812
C110	C	1.582437	0.135341	0.119188
C111	C	0.815094	-0.397766	-0.586935
C112	C	1.315094	0.102234	-0.086935
C113	C	0.800951	-0.411891	-0.674786
C114	C	1.300951	0.088109	-0.174786
C115	C	0.848374	-0.200438	-0.380841
C116	C	1.348374	0.299562	0.119159
C117	C	0.848413	-0.130474	-0.380867
C118	C	1.348413	0.369526	0.119133
C119	C	0.740741	-0.472044	-0.798588
C120	C	1.240741	0.027956	-0.298588
C121	C	0.754036	-0.458767	-0.716039
C122	C	1.254036	0.041233	-0.216039
C123	C	0.834592	-0.378276	-0.716072
C124	C	1.334592	0.121724	-0.216072
C125	C	0.821306	-0.391549	-0.798623
C126	C	1.321306	0.108451	-0.298623
C127	C	0.774380	-0.438434	-0.839875
C128	C	1.274380	0.061566	-0.339875
C129	C	0.854944	-0.357938	-0.839910
C130	C	1.354944	0.142062	-0.339910
C131	C	0.841657	-0.371208	-0.922454
C132	C	1.341657	0.128792	-0.422454
C133	C	0.794732	-0.418089	-0.963711
C134	C	1.294732	0.081911	-0.463711
C135	C	0.761093	-0.451703	-0.922419
C136	C	1.261093	0.048297	-0.422419
C137	C	0.901867	-0.311051	-0.798657
C138	C	1.401867	0.188949	-0.298657
C139	C	0.935505	-0.277440	-0.839943
C140	C	1.435505	0.222560	-0.339943
C141	C	0.922221	-0.290713	-0.922489
C142	C	1.422221	0.209287	-0.422489
C143	C	0.875296	-0.337594	-0.963746
C144	C	1.375296	0.162406	-0.463746
C145	C	0.955861	-0.257098	-0.963781
C146	C	1.455861	0.242902	-0.463781
C147	C	0.942573	-0.270368	-1.046325
C148	C	1.442573	0.229632	-0.546325
C149	C	0.862009	-0.350864	-1.046290
C150	C	1.362009	0.149136	-0.546290
C151	C	0.881382	-0.331555	-0.175427
C152	C	1.381382	0.168445	0.324573
C153	C	0.895647	-0.317253	-0.087576
C154	C	1.395647	0.182747	0.412424
H155	H	0.504144	-0.422769	-0.288903
H156	H	1.004144	0.077231	0.211097
H157	H	0.936075	-0.589482	-0.289117
H158	H	1.436075	-0.089482	0.210883
H159	H	0.936120	-0.708753	-0.289149
H160	H	1.436120	-0.208753	0.210851
H161	H	0.973711	-0.239265	-0.806345
H162	H	1.473711	0.260735	-0.306345
C163	C	0.950095	-1.116681	-0.274816
C164	C	1.450095	-0.616681	0.225184
C165	C	0.993991	-1.167336	-0.309130
C166	C	1.493991	-0.667336	0.190870
C167	C	1.047264	-1.194549	-0.253584
C168	C	1.547264	-0.694549	0.246416
C169	C	1.056642	-1.171106	-0.163724
C170	C	1.556642	-0.671106	0.336276
C171	C	1.012745	-1.120447	-0.129405
C172	C	1.512745	-0.620447	0.370595
C173	C	0.959472	-1.093235	-0.184952
C174	C	1.459472	-0.593235	0.315048
H175	H	0.987050	-1.184693	-0.375654
H176	H	1.487050	-0.684693	0.124346
H177	H	1.079759	-1.232050	-0.278989
H178	H	1.579759	-0.732050	0.221011
H179	H	1.096078	-1.191250	-0.122605
H180	H	1.596078	-0.691250	0.377395
H181	H	1.019686	-1.103091	-0.062882
H182	H	1.519686	-0.603091	0.437118
H183	H	0.926977	-1.055734	-0.159546
H184	H	1.426977	-0.555734	0.340454
H185	H	0.994063	-0.218921	-0.930182
H186	H	1.494063	0.281079	-0.430182
C187	C	0.916486	-0.296458	-0.707857
C188	C	1.416486	0.203542	-0.207857
C189	C	0.984276	-0.305377	-0.662464
C190	C	1.484276	0.194623	-0.162464
C191	C	0.998895	-0.290786	-0.571665
C192	C	1.498895	0.209214	-0.071665
C193	C	0.945724	-0.267276	-0.526259
C194	C	1.445724	0.232724	-0.026259
C195	C	0.877930	-0.258356	-0.571653
C196	C	1.377930	0.241644	-0.071653
C197	C	0.863311	-0.272947	-0.662452
C198	C	1.363311	0.227053	-0.162452
H199	H	1.023640	-0.322781	-0.696075
H200	H	1.523640	0.177219	-0.196075
H201	H	1.049081	-0.297390	-0.538062
H202	H	1.549081	0.202610	-0.038062
H203	H	0.956546	-0.256476	-0.459045
H204	H	1.456546	0.243524	0.040955
H205	H	0.838566	-0.240952	-0.538042
H206	H	1.338566	0.259048	-0.038042
H207	H	0.813125	-0.266343	-0.696055
H208	H	1.313125	0.233657	-0.196055
H209	H	0.760519	-1.019853	-0.472460
H210	H	1.260519	-0.519853	0.027540
C211	C	0.689138	-0.523631	-0.843984
C212	C	1.189138	-0.023631	-0.343984
C213	C	0.696081	-0.593365	-0.832616
C214	C	1.196081	-0.093365	-0.332616
C215	C	0.644486	-0.644953	-0.878017
C216	C	1.144486	-0.144953	-0.378017
C217	C	0.585949	-0.626807	-0.934786
C218	C	1.085949	-0.126807	-0.434786
C219	C	0.579004	-0.557070	-0.946156
C220	C	1.079004	-0.057070	-0.446156
C221	C	0.630599	-0.505482	-0.900755
C222	C	1.130599	-0.005482	-0.400755
H223	H	0.739415	-0.606800	-0.790590
H224	H	1.239415	-0.106800	-0.290590
H225	H	0.649628	-0.696577	-0.869600
H226	H	1.149628	-0.196577	-0.369600
H227	H	0.547756	-0.664996	-0.968395
H228	H	1.047756	-0.164996	-0.468395
H229	H	0.535670	-0.543635	-0.988182
H230	H	1.035670	-0.043635	-0.488182
H231	H	0.625457	-0.453858	-0.909173
H232	H	1.125457	0.046142	-0.409173
H233	H	0.760428	-0.738274	-0.472397
H234	H	1.260428	-0.238274	0.027603
H235	H	0.760385	-0.619000	-0.472381
H236	H	1.260385	-0.119000	0.027619
H237	H	0.936215	-0.990336	-0.289206
H238	H	1.436215	-0.490336	0.210794
C239	C	0.746723	-1.150838	-0.486920
C240	C	1.246723	-0.650838	0.013080
C241	C	0.746743	-1.223154	-0.486937
C242	C	1.246743	-0.723154	0.013063
C243	C	0.693488	-1.268259	-0.542494
C244	C	1.193488	-0.768259	-0.042494
C245	C	0.640214	-1.241048	-0.598034
C246	C	1.140214	-0.741048	-0.098034
C247	C	0.640192	-1.168729	-0.598019
C248	C	1.140192	-0.668729	-0.098019
C249	C	0.693447	-1.123624	-0.542461
C250	C	1.193447	-0.623624	-0.042461
H251	H	0.786181	-1.243300	-0.445821
H252	H	1.286181	-0.743300	0.054179
H253	H	0.693504	-1.321795	-0.542505
H254	H	1.193504	-0.821795	-0.042505
H255	H	0.600792	-1.274438	-0.639160
H256	H	1.100792	-0.774438	-0.139160
H257	H	0.600753	-1.148583	-0.639134
H258	H	1.100753	-0.648583	-0.139134
H259	H	0.693430	-1.070088	-0.542450
H260	H	1.193430	-0.570088	-0.042450
C261	C	0.810406	-0.402450	-1.091686
C262	C	1.310406	0.097550	-0.591686
C263	C	0.817348	-0.472184	-1.080318
C264	C	1.317348	0.027816	-0.580318
C265	C	0.765754	-0.523772	-1.125719
C266	C	1.265754	-0.023772	-0.625719
C267	C	0.707217	-0.505627	-1.182488
C268	C	1.207217	-0.005627	-0.682488
C269	C	0.700272	-0.435889	-1.193858
C270	C	1.200272	0.064111	-0.693858
C271	C	0.751866	-0.384301	-1.148457
C272	C	1.251866	0.115699	-0.648457
H273	H	0.860683	-0.485620	-1.038292
H274	H	1.360683	0.014380	-0.538292
H275	H	0.770895	-0.575396	-1.117301
H276	H	1.270895	-0.075396	-0.617301
H277	H	0.669024	-0.543815	-1.216096
H278	H	1.169024	-0.043815	-0.716096
H279	H	0.656937	-0.422454	-1.235884
H280	H	1.156937	0.077546	-0.735884
H281	H	0.746725	-0.332677	-1.156874
H282	H	1.246725	0.167323	-0.656874
H283	H	0.783910	-0.428888	-1.030924
H284	H	1.283910	0.071112	-0.530924
C285	C	0.200142	-0.297319	-0.487127
C286	C	0.700142	0.202681	0.012873
C287	C	0.176660	-0.316996	-0.576971
C288	C	0.676660	0.183004	-0.076971
C289	C	0.203885	-0.281721	-0.632654
C290	C	0.703885	0.218279	-0.132654
C291	C	0.254591	-0.226769	-0.598494
C292	C	0.754591	0.273231	-0.098494
C293	C	0.278075	-0.207089	-0.508646
C294	C	0.778075	0.292911	-0.008646
C295	C	0.250851	-0.242364	-0.452962
C296	C	0.750851	0.257636	0.047038
H297	H	0.139122	-0.357678	-0.602262
H298	H	0.639122	0.142322	-0.102262
H299	H	0.186500	-0.296290	-0.699166
H300	H	0.686500	0.203710	-0.199166
H301	H	0.274744	-0.200656	-0.639714
H302	H	0.774744	0.299344	-0.139714
H303	H	0.315613	-0.166407	-0.483354
H304	H	0.815613	0.333593	0.016646
H305	H	0.268236	-0.227795	-0.386450
H306	H	0.768236	0.272205	0.113550
H307	H	0.969962	-0.242996	-1.079941
H308	H	1.469962	0.257004	-0.579941
H309	H	0.726628	-0.486128	-0.682427
H310	H	1.226628	0.013872	-0.182427
C311	C	0.709489	-0.503290	-0.967814
C312	C	1.209489	-0.003290	-0.467814
C313	C	0.716432	-0.573024	-0.956447
C314	C	1.216432	-0.073024	-0.456447
C315	C	0.664837	-0.624612	-1.001848
C316	C	1.164837	-0.124612	-0.501848
C317	C	0.606301	-0.606466	-1.058616
C318	C	1.106301	-0.106466	-0.558616
C319	C	0.599356	-0.536729	-1.069987
C320	C	1.099356	-0.036729	-0.569987
C321	C	0.650950	-0.485141	-1.024586
C322	C	1.150950	0.014859	-0.524586
H323	H	0.759766	-0.586459	-0.914421
H324	H	1.259766	-0.086459	-0.414421
H325	H	0.669979	-0.676236	-0.993430
H326	H	1.169979	-0.176236	-0.493430
H327	H	0.568107	-0.644655	-1.092225
H328	H	1.068107	-0.144655	-0.592225
H329	H	0.556021	-0.523294	-1.112013
H330	H	1.056021	-0.023294	-0.612013
H331	H	0.645808	-0.433517	-1.033003
H332	H	1.145808	0.066483	-0.533003
H333	H	0.073797	-0.306495	-0.472678
H334	H	0.573797	0.193505	0.027322
H335	H	0.222568	-0.422805	-0.288935
H336	H	0.722568	0.077195	0.211065
C337	C	0.096223	-0.431984	-0.274475
C338	C	0.596223	0.068016	0.225525
C339	C	0.061008	-0.394669	-0.212488
C340	C	0.561008	0.105331	0.287512
C341	C	0.033794	-0.429933	-0.156786
C342	C	0.533794	0.070067	0.343214
C343	C	0.041795	-0.502512	-0.163072
C344	C	0.541795	-0.002512	0.336928
C345	C	0.077011	-0.539831	-0.225061
C346	C	0.577011	-0.039831	0.274939
C347	C	0.104224	-0.504567	-0.280763
C348	C	0.604224	-0.004567	0.219237
H349	H	0.055085	-0.340938	-0.207832
H350	H	0.555085	0.159062	0.292168
H351	H	0.007725	-0.402306	-0.110898
H352	H	0.507725	0.097694	0.389102
H353	H	0.021649	-0.528617	-0.121838
H354	H	0.521649	-0.028617	0.378162
H355	H	0.082934	-0.593563	-0.229716
H356	H	0.582934	-0.093563	0.270284
H357	H	0.130294	-0.532194	-0.326651
H358	H	0.630294	-0.032194	0.173349
H359	H	0.474640	-0.306444	-0.472640
H360	H	0.974640	0.193556	0.027360
H361	H	0.593904	-0.306443	-0.472642
H362	H	1.093904	0.193557	0.027358
H363	H	0.623412	-0.422760	-0.288900
H364	H	1.123412	0.077240	0.211100
H365	H	0.872797	-0.340101	-0.682474
H366	H	1.372797	0.159899	-0.182474
