data_functionalizedCrystal
_audit_creation_method	'MofGen! by Chris Wilmer'
_symmetry_space_group_name_H-M	'P1'
_symmetry_Int_Tables_number	1
_symmetry_cell_setting	triclinic
loop_
_symmetry_equiv_pos_as_xyz
  x,y,z
_cell_length_a	19.077105
_cell_length_b	14.908520
_cell_length_c	19.077271
_cell_angle_alpha	84.556616
_cell_angle_beta	89.912562
_cell_angle_gamma	91.150228
loop_
_atom_site_label
_atom_site_type_symbol
_atom_site_fract_x
_atom_site_fract_y
_atom_site_fract_z
Zn1	Zn	1.037788	-0.436514	0.459236
Zn2	Zn	1.035674	-0.581504	0.347983
Zn3	Zn	0.925595	-0.424391	0.336508
Zn4	Zn	0.913498	-0.580997	0.460712
O5	O	0.978139	-0.505852	0.401110
O6	O	1.135592	-0.461033	0.448663
O7	O	1.025250	-0.555802	0.247920
O8	O	0.946425	-0.299780	0.347369
O9	O	1.134038	-0.567557	0.366925
O10	O	1.028853	-0.308687	0.437537
O11	O	0.944375	-0.440371	0.239490
O12	O	0.825907	-0.439879	0.348800
O13	O	0.925808	-0.566693	0.559057
O14	O	0.817019	-0.554937	0.440052
O15	O	1.017123	-0.460542	0.557972
O16	O	1.013520	-0.707657	0.368356
O17	O	0.923758	-0.707284	0.451178
C18	C	0.796031	-0.496038	0.393341
C19	C	0.718122	-0.491863	0.390035
C20	C	0.967115	-0.740199	0.411189
C21	C	0.962462	-0.840459	0.415527
C22	C	0.676911	-0.549889	0.435926
C23	C	0.603708	-0.545954	0.432822
C24	C	0.571718	-0.483996	0.383825
C25	C	0.612935	-0.425964	0.337933
C26	C	0.686136	-0.429895	0.341040
C27	C	0.353284	-0.465801	0.369448
C28	C	0.280076	-0.461876	0.366343
C29	C	0.270855	-0.581866	0.461233
C30	C	0.344058	-0.585795	0.464333
C31	C	0.385268	-0.527760	0.418444
N32	N	0.496893	-0.479974	0.380650
N33	N	0.460092	-0.531778	0.421622
C34	C	1.047277	-1.029192	0.337512
C35	C	1.042907	-1.123395	0.341586
C36	C	0.949357	-1.123069	0.427751
C37	C	0.953727	-1.028866	0.423677
C38	C	1.002687	-0.981931	0.378556
C39	C	1.007053	-0.887726	0.374479
C40	C	0.913507	-0.887402	0.460647
C41	C	0.909138	-0.981605	0.464721
C42	C	1.160958	-0.515704	0.408909
C43	C	1.238865	-0.519902	0.412233
C44	C	0.970352	-0.514913	0.584779
C45	C	0.967034	-0.518774	0.663048
C46	C	0.989225	-0.270591	0.391008
C47	C	0.993948	-0.170337	0.386703
C48	C	1.013015	-0.465324	0.699256
C49	C	1.009889	-0.468948	0.772797
C50	C	0.960784	-0.526028	0.810130
C51	C	0.914798	-0.579481	0.773917
C52	C	0.917921	-0.575851	0.700377
C53	C	0.946341	-0.542805	1.030133
C54	C	0.943223	-0.546433	1.103679
C55	C	1.038314	-0.435898	1.102553
C56	C	1.041435	-0.432278	1.029012
C57	C	0.995447	-0.485727	0.992805
N58	N	0.957589	-0.529736	0.885302
N59	N	0.998639	-0.482014	0.917635
C60	C	0.985889	-0.496845	1.218155
C61	C	0.989204	-0.492982	1.139886
H62	H	0.702951	-0.600345	0.475822
C63	C	1.060474	-0.410149	0.812622
N64	N	1.098577	-0.365859	0.842618
H65	H	0.570156	-0.593206	0.470190
H66	H	0.370099	-0.636250	0.504231
H67	H	0.874813	-0.625954	0.804320
C68	C	0.895504	-1.174714	0.477380
N69	N	0.854940	-1.213614	0.514759
C70	C	0.864456	-0.835408	0.505798
N71	N	0.827510	-0.796244	0.539803
H72	H	0.237293	-0.629114	0.498595
C73	C	1.060910	-0.836099	0.324844
N74	N	1.101478	-0.797216	0.287459
H75	H	0.719690	-0.382639	0.303675
H76	H	1.081424	-0.385800	0.998620
H77	H	1.053004	-0.418846	0.668865
C78	C	0.244890	-0.393714	0.312440
N79	N	0.218386	-0.342377	0.271843
H80	H	1.087137	-0.990977	0.300767
C81	C	0.398606	-0.401965	0.318963
N82	N	0.432745	-0.353882	0.280935
C83	C	0.889199	-0.609226	1.144743
N84	N	0.848510	-0.656519	1.175673
H85	H	1.079217	-1.161872	0.308165
C86	C	0.855280	-1.033244	0.514348
N87	N	0.814711	-1.072137	0.551725
H88	H	0.586883	-0.375513	0.298041
H89	H	1.075754	-0.392382	1.132041
C90	C	0.895750	-0.601599	0.990315
N91	N	0.857640	-0.645883	0.960322
C92	C	0.867339	-0.634653	0.660549
N93	N	0.829237	-0.678943	0.630552
