data_functionalizedCrystal
_audit_creation_method	'MofGen! by Chris Wilmer'
_symmetry_space_group_name_H-M	'P1'
_symmetry_Int_Tables_number	1
_symmetry_cell_setting	triclinic
loop_
_symmetry_equiv_pos_as_xyz
  x,y,z
_cell_length_a	17.917603
_cell_length_b	14.628931
_cell_length_c	14.628931
_cell_angle_alpha	60.000000
_cell_angle_beta	90.000192
_cell_angle_gamma	57.011537
loop_
_atom_site_label
_atom_site_type_symbol
_atom_site_fract_x
_atom_site_fract_y
_atom_site_fract_z
Zr1	Zr	0.754908	0.916420	-0.077880
O2	O	0.629784	1.121074	-0.230816
O3	O	0.793265	0.721438	-0.030997
O4	O	0.793265	0.912143	-0.221702
O5	O	0.629783	0.930370	0.110321
O6	O	0.922222	0.897767	-0.214514
O7	O	0.629783	0.930369	-0.040110
O8	O	0.922221	0.556631	0.126624
O9	O	0.629784	1.271506	-0.230816
O10	O	0.905863	0.787326	-0.005637
O11	O	0.809623	0.798055	0.101264
O12	O	0.809624	1.022586	-0.123268
O13	O	0.713385	1.033315	-0.016367
Zr14	Zr	0.960579	0.893492	0.173506
Zr15	Zr	0.960579	0.893491	-0.066415
Zr16	Zr	0.754907	0.916421	0.162041
Zr17	Zr	0.754908	1.156342	-0.077880
Zr18	Zr	0.960579	0.653571	0.173507
O19	O	0.922222	1.088474	0.126623
O20	O	0.922222	1.088473	-0.214514
O21	O	0.629783	1.121075	0.110321
O22	O	1.085703	0.688838	0.326442
O23	O	1.085703	0.688837	-0.014695
O24	O	0.793264	0.721439	0.310140
O25	O	1.085704	0.879543	-0.014695
O26	O	0.922222	0.897769	0.317329
O27	O	0.793264	0.912145	0.310140
O28	O	1.085703	0.879543	0.135737
O29	O	0.793265	1.253281	-0.221703
O30	O	0.922221	0.556631	0.317329
O31	O	1.085703	0.538406	0.326442
O32	O	1.085703	0.538406	0.135737
O33	O	0.629784	1.271507	-0.040111
O34	O	0.793265	1.253281	-0.030997
O35	O	0.905863	0.787327	0.218894
O36	O	1.002102	0.776597	0.111993
O37	O	0.905863	1.011857	-0.005637
O38	O	0.809624	1.022586	0.101263
C39	C	0.857743	0.604851	0.047814
C40	C	0.857743	0.502998	0.047814
C41	C	0.600479	0.933636	0.033472
C42	C	0.513166	0.943370	0.028605
C43	C	0.905484	0.452266	-0.005216
C44	C	0.905485	0.346996	-0.005217
C45	C	0.353322	0.961150	0.019716
C46	C	0.362157	0.848768	0.075908
C47	C	0.273215	0.858661	0.070962
C48	C	0.442271	0.951260	0.024660
C49	C	1.115007	0.876276	0.062154
C50	C	1.202320	0.866542	0.067022
C51	C	0.857744	0.904955	-0.252292
C52	C	0.857744	0.904955	-0.354144
C53	C	0.857744	1.205061	0.047813
C54	C	0.857744	1.306914	0.047813
C55	C	0.810003	1.021660	-0.457906
C56	C	0.810002	1.021662	-0.563178
C57	C	0.857743	0.904957	0.347918
C58	C	0.857743	0.904957	0.449771
C59	C	1.115007	0.576171	0.062155
C60	C	1.202320	0.464584	0.067022
C61	C	0.857743	0.604852	0.347918
C62	C	0.857742	0.502999	0.449771
C63	C	1.115007	0.576172	0.362260
C64	C	1.202319	0.464585	0.468980
C65	C	0.600480	1.233741	-0.266633
C66	C	0.513167	1.345327	-0.373353
C67	C	0.600480	1.233741	0.033472
C68	C	0.513167	1.345328	0.028604
C69	C	0.857744	1.205060	-0.252292
C70	C	0.857744	1.306913	-0.354145
C71	C	1.193087	0.417782	0.007896
C72	C	1.275119	0.312948	0.012447
C73	C	1.366383	0.254912	0.076130
C74	C	1.375614	0.301724	0.135258
C75	C	1.293583	0.406562	0.130700
C76	C	1.293567	0.406582	0.463296
C77	C	1.375615	0.301747	0.563562
C78	C	1.366412	0.254911	0.669511
C79	C	1.275155	0.312925	0.675192
C80	C	1.193110	0.417765	0.574927
C81	C	0.421920	1.403342	-0.367670
C82	C	0.339872	1.508207	-0.467936
C83	C	0.349074	1.555048	-0.573885
C84	C	0.440331	1.497027	-0.579565
C85	C	0.522377	1.392171	-0.479300
C86	C	0.522399	1.392140	0.087720
C87	C	0.440367	1.497000	0.083143
C88	C	0.349104	1.555040	0.019456
C89	C	0.339873	1.508223	-0.039667
C90	C	0.421904	1.403372	-0.035096
C91	C	0.905483	0.452268	0.553533
C92	C	0.905484	0.346998	0.658805
H93	H	0.946354	0.303395	-0.050624
O94	O	0.906365	0.785843	-0.444000
C95	C	0.841820	0.786112	-0.388795
H96	H	0.775690	0.895275	-0.429128
H97	H	0.819370	0.730717	-0.397934
C98	C	0.972196	0.579701	-0.212124
C99	C	0.890977	0.713777	-0.261656
H100	H	1.002517	0.535076	-0.133698
H101	H	1.015681	0.579516	-0.249317
H102	H	0.953475	0.533556	-0.219751
H103	H	0.909699	0.759924	-0.254042
H104	H	0.847495	0.713968	-0.224459
H105	H	0.282317	1.640416	0.015744
H106	H	0.265555	1.555495	-0.091520
H107	H	1.267677	0.274776	0.761469
H108	H	1.449932	0.254456	0.187108
H109	H	0.898619	0.805041	-0.343245
O110	O	1.266310	0.267355	-0.044953
C111	C	1.358276	0.162356	-0.027264
H112	H	1.412664	0.172005	-0.002674
H113	H	1.379183	0.059926	0.044069
C114	C	1.290221	0.161143	-0.167721
C115	C	1.357021	0.173000	-0.137529
H116	H	1.289447	0.167703	-0.235735
H117	H	1.228262	0.231879	-0.179636
H118	H	1.307651	0.075784	-0.108268
H119	H	1.339583	0.258364	-0.196975
H120	H	1.418977	0.102278	-0.125626
O121	O	0.809118	0.358888	0.539626
C122	C	0.873659	0.328282	0.484416
H123	H	0.939793	0.308903	0.524752
H124	H	0.896105	0.233812	0.493546
C125	C	0.743279	0.472447	0.307745
C126	C	0.824502	0.448655	0.357280
H127	H	0.712956	0.546694	0.229320
H128	H	0.699795	0.493063	0.344941
H129	H	0.761995	0.393712	0.315364
H130	H	0.805783	0.527383	0.349673
H131	H	0.867981	0.428055	0.320079
O132	O	0.449091	1.542649	-0.682581
C133	C	0.357102	1.647654	-0.769846
H134	H	0.302736	1.637992	-0.735556
H135	H	0.336205	1.750081	-0.800948
C136	C	0.425063	1.648913	-0.911592
C137	C	0.358290	1.637039	-0.869479
H138	H	0.425795	1.642370	-0.973054
H139	H	0.487038	1.578173	-0.852801
H140	H	0.407640	1.734269	-0.937502
H141	H	0.375720	1.551677	-0.843557
H142	H	0.296317	1.707764	-0.928268
H143	H	0.769123	1.121578	-0.652187
O144	O	0.264546	1.084682	-0.042098
C145	C	0.194233	1.067169	-0.033320
H146	H	0.226320	0.962827	-0.009924
H147	H	0.168585	1.075533	0.035437
C148	C	0.069317	1.305845	-0.176949
C149	C	0.108725	1.177694	-0.148223
H150	H	0.016570	1.374024	-0.247824
H151	H	0.116688	1.317646	-0.182860
H152	H	0.047952	1.312795	-0.119643
H153	H	0.130101	1.170739	-0.205521
H154	H	0.061356	1.165895	-0.142324
H155	H	0.816866	0.468503	0.438873
O156	O	0.610941	1.335919	-0.485034
C157	C	0.601457	1.399777	-0.600050
H158	H	0.528237	1.447386	-0.655152
H159	H	0.608187	1.482137	-0.627871
C160	C	0.770842	1.235487	-0.545997
C161	C	0.680916	1.293953	-0.613673
H162	H	0.819858	1.170213	-0.554400
H163	H	0.777234	1.192467	-0.468507
H164	H	0.776437	1.304133	-0.569188
H165	H	0.675317	1.225310	-0.590471
H166	H	0.674525	1.336959	-0.691159
O167	O	0.954231	0.493522	0.566347
C168	C	0.943364	0.589463	0.458385
H169	H	0.924853	0.575722	0.393997
H170	H	0.883196	0.696272	0.430623
C171	C	1.060512	0.585420	0.544013
C172	C	1.037784	0.568535	0.464933
H173	H	1.118752	0.572516	0.548052
H174	H	1.067831	0.520786	0.616750
H175	H	1.010365	0.674427	0.520869
H176	H	1.087924	0.479524	0.488086
H177	H	1.030475	0.633154	0.392200
O178	O	0.808824	0.359064	0.101826
C179	C	0.710747	0.425385	0.053310
H180	H	0.692943	0.456034	-0.036983
H181	H	0.694642	0.353893	0.106807
C182	C	0.671287	0.515361	0.160919
C183	C	0.649418	0.553015	0.050015
H184	H	0.633455	0.594085	0.158891
H185	H	0.737363	0.470675	0.193609
H186	H	0.657866	0.455782	0.205488
H187	H	0.662851	0.612578	0.005453
H188	H	0.583342	0.597714	0.017317
O189	O	0.809132	0.461584	0.102071
C190	C	0.873694	0.320289	0.187875
H191	H	0.939825	0.272452	0.166906
H192	H	0.896138	0.299471	0.273221
C193	C	0.743341	0.317443	0.220392
C194	C	0.824561	0.258687	0.194633
H195	H	0.713034	0.279443	0.224566
H196	H	0.699844	0.412637	0.162588
H197	H	0.762056	0.300091	0.291512
H198	H	0.805843	0.276054	0.123508
H199	H	0.868054	0.163494	0.252425
O200	O	0.412796	1.358067	-0.264853
C201	C	0.314657	1.431762	-0.281360
H202	H	0.270912	1.533634	-0.369204
H203	H	0.290474	1.371704	-0.274857
C204	C	0.352944	1.330659	-0.081626
C205	C	0.299216	1.455785	-0.189513
H206	H	0.343418	1.345473	-0.024968
H207	H	0.419062	1.281005	-0.070503
H208	H	0.332785	1.280624	-0.076223
H209	H	0.319384	1.505811	-0.194920
H210	H	0.233101	1.505448	-0.200635
H211	H	0.946361	0.486760	-0.050612
O212	O	0.954163	0.294892	0.765066
C213	C	0.943340	0.201369	0.846518
H214	H	0.875481	0.224734	0.805340
H215	H	1.008229	0.094034	0.880053
C216	C	1.018872	0.183943	0.996395
C217	C	0.935523	0.212648	0.945821
H218	H	1.014055	0.190895	1.057653
H219	H	1.026168	0.246947	0.941521
H220	H	1.072938	0.094498	1.024331
H221	H	0.881461	0.302097	0.917874
H222	H	0.928218	0.149659	1.000694
O223	O	1.302730	0.451808	0.188258
C224	C	1.400874	0.378113	0.245419
H225	H	1.444610	0.276250	0.259432
H226	H	1.425047	0.438181	0.191852
C227	C	1.362631	0.479179	0.344078
C228	C	1.416347	0.354065	0.361298
H229	H	1.372176	0.464350	0.415555
H230	H	1.296508	0.528833	0.305565
H231	H	1.382781	0.529223	0.299435
H232	H	1.396188	0.304030	0.405927
H233	H	1.482467	0.304402	0.399821
H234	H	0.414373	1.365262	-0.083233
H235	H	0.769135	1.121572	-0.468805
H236	H	1.118783	0.465034	-0.043976
O237	O	0.251212	1.564751	-0.462460
C238	C	0.200737	1.704477	-0.517119
H239	H	0.253964	1.724747	-0.518573
H240	H	0.152042	1.764653	-0.608103
C241	C	0.074106	1.723539	-0.450168
C242	C	0.139481	1.748434	-0.451946
H243	H	0.036317	1.750657	-0.409971
H244	H	0.108110	1.629405	-0.413347
H245	H	0.033536	1.773688	-0.525992
H246	H	0.180057	1.698273	-0.376123
H247	H	0.105482	1.842561	-0.488753
H248	H	1.301078	0.444699	0.377037
H249	H	1.118815	0.464979	0.579570
H250	H	0.282260	1.640429	-0.655518
O251	O	1.464309	0.245174	0.558184
C252	C	1.514781	0.105452	0.612831
H253	H	1.483467	0.068339	0.676315
H254	H	1.507962	0.087944	0.546656
C255	C	1.659888	0.072192	0.598187
C256	C	1.621433	0.026607	0.676167
H257	H	1.725677	0.023556	0.637252
H258	H	1.625884	0.166327	0.561367
H259	H	1.654196	0.057600	0.543047
H260	H	1.627114	0.041215	0.731296
H261	H	1.655441	-0.067527	0.712998
H262	H	0.436520	0.745125	0.127729
H263	H	1.433170	0.169546	0.079833
H264	H	1.433227	0.169543	0.751145
H265	H	0.596704	1.344892	0.139589
H266	H	0.447902	1.535100	0.131294
