data_functionalizedCrystal
_audit_creation_method	'MofGen! by Chris Wilmer'
_symmetry_space_group_name_H-M	'P1'
_symmetry_Int_Tables_number	1
_symmetry_cell_setting	triclinic
loop_
_symmetry_equiv_pos_as_xyz
  x,y,z
_cell_length_a	17.699077
_cell_length_b	15.021413
_cell_length_c	17.699083
_cell_angle_alpha	89.996880
_cell_angle_beta	83.281795
_cell_angle_gamma	90.006741
loop_
_atom_site_label
_atom_site_type_symbol
_atom_site_fract_x
_atom_site_fract_y
_atom_site_fract_z
O1	O	1.004083	0.074022	0.095680
O2	O	1.337416	0.407355	0.429013
O3	O	1.670750	0.740689	0.762346
O4	O	0.783704	0.074027	0.108137
O5	O	1.117037	0.407360	0.441470
O6	O	1.450371	0.740693	0.774803
O7	O	0.900120	0.074016	-0.008281
O8	O	1.233453	0.407350	0.325052
O9	O	1.566786	0.740683	0.658386
O10	O	0.887667	0.074032	0.212098
O11	O	1.221000	0.407366	0.545431
O12	O	1.554334	0.740699	0.878764
O13	O	0.900101	-0.074048	-0.008265
O14	O	1.233434	0.259285	0.325069
O15	O	1.566768	0.592619	0.658402
O16	O	0.783685	-0.074038	0.108153
O17	O	1.117019	0.259296	0.441487
O18	O	1.450352	0.592629	0.774820
O19	O	1.004064	-0.074042	0.095696
O20	O	1.337398	0.259291	0.429030
O21	O	1.670731	0.592624	0.762363
Zn22	Zn	0.893872	-0.097548	0.101927
Zn23	Zn	1.227205	0.235785	0.435261
Zn24	Zn	1.560539	0.569118	0.768594
Zn25	Zn	0.893896	0.097533	0.101906
Zn26	Zn	1.227230	0.430866	0.435239
Zn27	Zn	1.560563	0.764199	0.768572
O28	O	0.887649	-0.074032	0.212114
O29	O	1.220982	0.259301	0.545447
O30	O	1.554315	0.592635	0.878781
C31	C	0.755498	-0.000005	0.107700
C32	C	1.088831	0.333328	0.441033
C33	C	1.422164	0.666662	0.774366
C34	C	0.671479	-0.000003	0.106363
C35	C	1.004813	0.333330	0.439696
C36	C	1.338146	0.666663	0.773029
N37	N	0.893861	-0.230686	0.101942
N38	N	1.227194	0.102647	0.435275
N39	N	1.560527	0.435981	0.768609
C40	C	0.632002	-0.080714	0.105742
C41	C	0.965335	0.252619	0.439075
C42	C	1.298668	0.585952	0.772409
C43	C	0.553059	-0.080715	0.104474
C44	C	0.886393	0.252618	0.437807
C45	C	1.219726	0.585951	0.771140
C46	C	0.513595	-0.000005	0.103832
C47	C	0.846928	0.333329	0.437165
C48	C	1.180262	0.666662	0.770498
C49	C	0.553078	0.080712	0.104450
C50	C	0.886412	0.414046	0.437784
C51	C	1.219745	0.747379	0.771117
C52	C	0.632020	0.080713	0.105713
C53	C	0.965353	0.414046	0.439047
C54	C	1.298687	0.747379	0.772380
C55	C	0.234715	0.080714	0.099357
C56	C	0.568048	0.414047	0.432690
C57	C	0.901382	0.747380	0.766024
C58	C	0.155767	0.080707	0.098097
C59	C	0.489101	0.414041	0.431430
C60	C	0.822434	0.747374	0.764763
C61	C	0.155754	-0.080714	0.098118
C62	C	0.489087	0.252619	0.431451
C63	C	0.822421	0.585953	0.764784
C64	C	0.234696	-0.080714	0.099380
C65	C	0.568029	0.252619	0.432714
C66	C	0.901363	0.585953	0.766047
C67	C	0.274173	0.000002	0.099995
C68	C	0.607506	0.333336	0.433328
C69	C	0.940840	0.666669	0.766662
C70	C	0.359772	0.000003	0.101369
C71	C	0.693105	0.333336	0.434702
C72	C	1.026438	0.666669	0.768035
C73	C	0.427997	-0.000004	0.102464
C74	C	0.761330	0.333329	0.435797
C75	C	1.094664	0.666663	0.769130
C76	C	0.840022	-0.470364	0.155748
C77	C	1.173355	-0.137031	0.489082
C78	C	1.506689	0.196302	0.822415
C79	C	0.908386	-0.529699	0.170311
C80	C	1.241719	-0.196366	0.503644
C81	C	1.575052	0.136968	0.836978
C82	C	0.893880	-0.412293	0.101923
C83	C	1.227214	-0.078959	0.435256
C84	C	1.560547	0.254374	0.768590
C85	C	0.825535	-0.529700	0.087377
C86	C	1.158868	-0.196367	0.420711
C87	C	1.492202	0.136967	0.754044
C88	C	0.893893	-0.587717	0.101906
C89	C	1.227226	-0.254384	0.435240
C90	C	1.560559	0.078950	0.768573
C91	C	0.962278	-0.470321	0.116520
C92	C	1.295612	-0.136988	0.449853
C93	C	1.628945	0.196346	0.783186
C94	C	0.879383	-0.470317	0.033556
C95	C	1.212716	-0.136983	0.366890
C96	C	1.546049	0.196350	0.700223
C97	C	0.947796	-0.529625	0.048090
C98	C	1.281129	-0.196291	0.381423
C99	C	1.614463	0.137042	0.714756
C100	C	0.893872	-0.311236	0.101934
C101	C	1.227205	0.022098	0.435268
C102	C	1.560539	0.355431	0.768601
C103	C	0.893909	-0.688772	0.101894
C104	C	1.227242	-0.355439	0.435228
C105	C	1.560576	-0.022105	0.768561
C106	C	1.032271	-0.000009	0.096133
C107	C	1.365604	0.333325	0.429467
C108	C	1.698937	0.666658	0.762800
C109	C	1.116289	-0.000004	0.097470
C110	C	1.449622	0.333329	0.430804
C111	C	1.782956	0.666662	0.764137
C112	C	0.899664	-0.000016	-0.036470
C113	C	1.232998	0.333317	0.296864
C114	C	1.566331	0.666651	0.630197
C115	C	0.898326	-0.000016	-0.120488
C116	C	1.231659	0.333317	0.212845
C117	C	1.564992	0.666650	0.546179
N118	N	0.893913	0.230670	0.101885
N119	N	1.227247	0.564004	0.435218
N120	N	1.560580	0.897337	0.768552
C121	C	0.966659	-0.000019	-0.169110
C122	C	1.299993	0.333314	0.164223
C123	C	1.633326	0.666648	0.497556
C124	C	0.965397	-0.000011	-0.248054
C125	C	1.298730	0.333322	0.085280
C126	C	1.632064	0.666656	0.418613
C127	C	0.895800	-0.000007	-0.278373
C128	C	1.229134	0.333327	0.054960
C129	C	1.562467	0.666660	0.388294
C130	C	0.827461	-0.000001	-0.229744
C131	C	1.160795	0.333332	0.103589
C132	C	1.494128	0.666665	0.436922
C133	C	0.828724	-0.000003	-0.150803
C134	C	1.162058	0.333330	0.182531
C135	C	1.495391	0.666664	0.515864
C136	C	0.822366	0.000006	-0.548107
C137	C	1.155699	0.333339	-0.214774
C138	C	1.489033	0.666673	0.118559
C139	C	0.821108	0.000005	-0.627055
C140	C	1.154442	0.333338	-0.293722
C141	C	1.487775	0.666671	0.039612
C142	C	0.959039	-0.000002	-0.645358
C143	C	1.292372	0.333331	-0.312025
C144	C	1.625705	0.666664	0.021308
C145	C	0.960302	-0.000004	-0.566417
C146	C	1.293635	0.333330	-0.233083
C147	C	1.626968	0.666663	0.100250
C148	C	0.891963	0.000006	-0.517795
C149	C	1.225297	0.333340	-0.184461
C150	C	1.558630	0.666673	0.148872
C151	C	0.893333	-0.000001	-0.432196
C152	C	1.226666	0.333333	-0.098862
C153	C	1.559999	0.666666	0.234471
C154	C	0.894430	-0.000006	-0.363971
C155	C	1.227763	0.333327	-0.030637
C156	C	1.561097	0.666660	0.302696
C157	C	0.888104	0.000002	0.240303
C158	C	1.221437	0.333336	0.573636
C159	C	1.554771	0.666669	0.906969
C160	C	0.889443	0.000008	0.324321
C161	C	1.222776	0.333342	0.657654
C162	C	1.556109	0.666675	0.990988
H163	H	0.664127	-0.146438	0.106271
H164	H	0.997460	0.186895	0.439604
H165	H	1.330794	0.520228	0.772937
H166	H	1.023333	-0.000028	-0.144431
H167	H	1.356666	0.333306	0.188902
H168	H	1.690000	0.666639	0.522236
Br169	Br	1.058140	-0.000014	-0.314039
Br170	Br	1.391473	0.333319	0.019294
Br171	Br	1.724806	0.666652	0.352628
H172	H	1.016974	-0.000012	-0.541735
H173	H	1.350308	0.333322	-0.208402
H174	H	1.683641	0.666655	0.124931
Br175	Br	0.102208	0.190251	0.097227
Br176	Br	0.435542	0.523584	0.430560
Br177	Br	0.768875	0.856918	0.763893
H178	H	0.920659	-0.555782	0.228120
H179	H	1.253992	-0.222449	0.561453
H180	H	1.587326	0.110884	0.894787
H181	H	0.520922	-0.146438	0.103956
H182	H	0.854255	0.186895	0.437289
H183	H	1.187588	0.520228	0.770622
H184	H	0.266848	0.146438	0.099855
H185	H	0.600181	0.479771	0.433188
H186	H	0.933515	0.813105	0.766522
Br187	Br	0.733007	0.000019	-0.270891
Br188	Br	1.066341	0.333353	0.062443
Br189	Br	1.399674	0.666686	0.395776
Br190	Br	0.499525	0.190250	0.103546
Br191	Br	0.832858	0.523583	0.436879
Br192	Br	1.166191	0.856917	0.770213
Br193	Br	0.729194	-0.573178	0.066882
Br194	Br	1.062527	-0.239845	0.400216
Br195	Br	1.395861	0.093489	0.733549
H196	H	1.014683	-0.000006	-0.684956
H197	H	1.348016	0.333328	-0.351623
H198	H	1.681350	0.666661	-0.018289
Br199	Br	0.726649	0.000009	-0.668202
Br200	Br	1.059983	0.333343	-0.334869
Br201	Br	1.393316	0.666676	-0.001535
H202	H	0.993397	-0.555481	0.002561
H203	H	1.326730	-0.222148	0.335895
H204	H	1.660064	0.111186	0.669228
H205	H	0.664161	0.146436	0.106220
H206	H	0.997495	0.479769	0.439553
H207	H	1.330828	0.813102	0.772887
Br208	Br	0.729621	0.000025	-0.482130
Br209	Br	1.062954	0.333359	-0.148797
Br210	Br	1.396288	0.666692	0.184536
Br211	Br	0.735982	0.000008	-0.084813
Br212	Br	1.069316	0.333341	0.248520
Br213	Br	1.402649	0.666674	0.581853
Br214	Br	1.058645	-0.427038	0.137124
Br215	Br	1.391979	-0.093705	0.470458
Br216	Br	1.725312	0.239628	0.803791
Br217	Br	0.288250	-0.190254	0.100258
Br218	Br	0.621583	0.143080	0.433592
Br219	Br	0.954917	0.476413	0.766925
Br220	Br	0.102174	-0.190260	0.097282
Br221	Br	0.435508	0.143073	0.430616
Br222	Br	0.768841	0.476406	0.763949
Br223	Br	0.764185	-0.426991	0.231672
Br224	Br	1.097518	-0.093657	0.565005
Br225	Br	1.430851	0.239676	0.898338
Br226	Br	0.858892	-0.426805	-0.062767
Br227	Br	1.192225	-0.093472	0.270566
Br228	Br	1.525559	0.239862	0.603899
