data_functionalizedCrystal
_audit_creation_method	'MofGen! by Chris Wilmer'
_symmetry_space_group_name_H-M	'P1'
_symmetry_Int_Tables_number	1
_symmetry_cell_setting	triclinic
loop_
_symmetry_equiv_pos_as_xyz
  x,y,z
_cell_length_a	17.000383
_cell_length_b	17.019294
_cell_length_c	15.500227
_cell_angle_alpha	88.951630
_cell_angle_beta	87.377684
_cell_angle_gamma	79.506204
loop_
_atom_site_label
_atom_site_type_symbol
_atom_site_fract_x
_atom_site_fract_y
_atom_site_fract_z
O1	O	1.059871	0.024415	-0.073822
O2	O	0.828216	0.052930	-0.075935
O3	O	0.950068	-0.076142	-0.066321
O4	O	0.938019	0.153488	-0.083436
O5	O	0.942674	-0.068338	0.076986
O6	O	0.820821	0.060734	0.067373
O7	O	1.052477	0.032219	0.069485
Cu8	Cu	0.935974	0.047189	0.081514
Cu9	Cu	0.944719	0.037960	-0.087964
O10	O	0.930625	0.161292	0.059872
C11	C	0.794869	0.058364	-0.004394
C12	C	0.706523	0.062918	-0.004728
C13	C	0.945768	-0.101477	0.007510
C14	C	0.943963	-0.188592	0.013998
C15	C	0.206387	0.092320	-0.006952
C16	C	0.289398	0.088035	-0.006632
C17	C	0.340192	0.013661	-0.001082
C18	C	0.307970	-0.056433	0.004139
C19	C	0.224961	-0.052147	0.003813
C20	C	0.591292	-0.002891	0.000167
C21	C	0.674306	-0.007171	0.000495
C22	C	0.655728	0.137298	-0.010278
C23	C	0.572718	0.141576	-0.010598
C24	C	0.540504	0.071482	-0.005382
C25	C	0.425043	0.009280	-0.000752
C26	C	0.455655	0.075864	-0.005718
C27	C	0.947147	-0.233768	-0.061071
C28	C	0.945446	-0.315621	-0.054972
C29	C	0.940566	-0.352297	0.026196
C30	C	0.937379	-0.307114	0.101269
C31	C	0.939075	-0.225262	0.095170
C32	C	0.935239	-0.599224	0.048520
C33	C	0.933546	-0.681083	0.054614
C34	C	0.941611	-0.689584	-0.101629
C35	C	0.943312	-0.607730	-0.107721
C36	C	0.940120	-0.562554	-0.032647
C37	C	0.938829	-0.435964	0.032431
C38	C	0.941851	-0.478887	-0.038884
C39	C	1.085824	0.026786	-0.002058
C40	C	1.174171	0.022231	-0.001729
C41	C	0.934925	0.186626	-0.013961
C42	C	0.936730	0.273741	-0.020455
N43	N	0.929829	0.053679	0.200716
N44	N	0.950870	0.031464	-0.207165
C45	C	0.981480	-0.000996	0.250065
C46	C	0.976841	0.003920	0.340271
C47	C	0.920553	0.063514	0.381127
C48	C	0.868896	0.118191	0.331772
C49	C	0.873533	0.113272	0.241567
C50	C	0.903850	0.081222	0.653275
C51	C	0.899219	0.086139	0.743486
C52	C	1.007163	-0.028135	0.751980
C53	C	1.011797	-0.033046	0.661773
C54	C	0.960138	0.021629	0.612425
C55	C	0.915810	0.068541	0.473333
C56	C	0.964877	0.016598	0.520222
H57	H	0.165035	0.152884	-0.011465
H58	H	0.929567	-0.710941	0.120713
C59	C	0.730179	-0.088992	0.006593
N60	N	0.772262	-0.150617	0.011186
C61	C	0.837293	0.151697	0.788426
N62	N	0.790653	0.201074	0.822274
H63	H	0.933400	-0.336981	0.167358
C64	C	0.480923	-0.072529	0.005368
N65	N	0.523014	-0.134147	0.009980
H66	H	0.861788	0.125742	0.613103
H67	H	0.414295	0.136419	-0.010240
C68	C	0.691171	0.214396	-0.016023
N69	N	0.717866	0.272469	-0.020355
C70	C	0.363846	-0.138245	0.010249
N71	N	0.405931	-0.199867	0.014857
H72	H	0.936470	-0.188478	0.156299
H73	H	0.947287	-0.577875	-0.173816
C74	C	0.816719	0.173425	0.187283
N75	N	0.773925	0.218734	0.146397
C76	C	0.189524	-0.129251	0.009562
N77	N	0.162835	-0.187327	0.013891
H78	H	0.565074	-0.059967	0.004417
H79	H	0.948042	-0.352401	-0.116101
C80	C	0.931732	-0.549541	0.131104
N81	N	0.929091	-0.512117	0.193311
H82	H	0.951126	-0.203914	-0.127166
C83	C	0.853890	0.134089	0.518283
N84	N	0.807248	0.183456	0.552144
C85	C	0.945113	-0.739282	-0.184205
N86	N	0.947746	-0.776715	-0.246404
H87	H	0.315624	0.145109	-0.010894
H88	H	0.945819	-0.449021	-0.104970
C89	C	1.043401	-0.066555	0.205132
N90	N	1.090040	-0.115938	0.171291
H91	H	0.934858	-0.465835	0.098518
H92	H	1.049220	-0.072649	0.792167
H93	H	0.823061	0.166712	0.365042
H94	H	1.018898	-0.040602	0.380451
C95	C	1.073714	-0.098608	0.616839
N96	N	1.120351	-0.147990	0.582994
H97	H	0.531366	0.202140	-0.015120
C98	C	1.026785	-0.048960	0.475278
N99	N	1.073415	-0.098339	0.441418
