data_functionalizedCrystal
_audit_creation_method	'MofGen! by Chris Wilmer'
_symmetry_space_group_name_H-M	'P1'
_symmetry_Int_Tables_number	1
_symmetry_cell_setting	triclinic
loop_
_symmetry_equiv_pos_as_xyz
  x,y,z
_cell_length_a	13.897449
_cell_length_b	18.101395
_cell_length_c	13.897441
_cell_angle_alpha	89.970274
_cell_angle_beta	89.981404
_cell_angle_gamma	90.032384
loop_
_atom_site_label
_atom_site_type_symbol
_atom_site_fract_x
_atom_site_fract_y
_atom_site_fract_z
Zn1	Zn	1.474592	-0.294788	-0.545380
Zn2	Zn	1.974592	0.205212	-0.045380
Zn3	Zn	1.474455	-0.418641	-0.384082
Zn4	Zn	1.974455	0.081359	0.115918
Zn5	Zn	1.313288	-0.294821	-0.384099
Zn6	Zn	1.813288	0.205179	0.115901
Zn7	Zn	1.313225	-0.418595	-0.545334
Zn8	Zn	1.813225	0.081405	-0.045334
O9	O	1.393890	-0.356711	-0.464724
O10	O	1.893890	0.143289	0.035276
O11	O	1.609556	-0.311223	-0.523996
O12	O	2.109556	0.188777	-0.023996
O13	O	1.453044	-0.402250	-0.249102
O14	O	1.953044	0.097750	0.250898
O15	O	1.334769	-0.191184	-0.405520
O16	O	1.834769	0.308816	0.094480
O17	O	1.609455	-0.402218	-0.405490
O18	O	2.109455	0.097782	0.094510
O19	O	1.453279	-0.191159	-0.524013
O20	O	1.953279	0.308841	-0.024013
O21	O	1.334635	-0.311279	-0.249115
O22	O	1.834635	0.188721	0.250885
O23	O	1.178298	-0.311234	-0.405475
O24	O	1.678298	0.188766	0.094525
O25	O	1.334663	-0.402138	-0.680322
O26	O	1.834663	0.097862	-0.180322
O27	O	1.178252	-0.402170	-0.523934
O28	O	1.678252	0.097830	-0.023934
O29	O	1.453218	-0.311178	-0.680356
O30	O	1.953218	0.188822	-0.180356
O31	O	1.452984	-0.522268	-0.405445
O32	O	1.952984	-0.022268	0.094555
O33	O	1.334529	-0.522234	-0.523917
O34	O	1.834529	-0.022234	-0.023917
C35	C	1.143276	-0.356701	-0.464702
C36	C	1.643276	0.143299	0.035298
C37	C	1.036062	-0.356715	-0.464715
C38	C	1.536062	0.143285	0.035285
C39	C	0.839767	-0.356718	-0.464741
C40	C	1.339767	0.143282	0.035259
C41	C	0.948999	-0.356714	-0.464724
C42	C	1.448999	0.143286	0.035276
C43	C	1.393761	-0.549122	-0.464695
C44	C	1.893761	-0.049122	0.035305
C45	C	1.393794	-0.631436	-0.464716
C46	C	1.893794	-0.131436	0.035284
C47	C	1.394006	-0.930527	-0.464767
C48	C	1.894006	-0.430527	0.035233
C49	C	1.319650	-0.899211	-0.539492
C50	C	1.819650	-0.399211	-0.039492
C51	C	1.319297	-0.813593	-0.539258
C52	C	1.819297	-0.313593	-0.039258
C53	C	1.393901	-0.782144	-0.464743
C54	C	1.893901	-0.282144	0.035257
C55	C	1.366379	-0.813299	-0.363084
C56	C	1.866379	-0.313299	0.136916
C57	C	1.365899	-0.898945	-0.363531
C58	C	1.865899	-0.398945	0.136469
C59	C	1.496046	-0.898868	-0.490807
C60	C	1.996046	-0.398868	0.009193
C61	C	1.495446	-0.813217	-0.493037
C62	C	1.995446	-0.313217	0.006963
C63	C	1.393843	-0.698285	-0.464722
C64	C	1.893843	-0.198285	0.035278
C65	C	1.394061	-1.014386	-0.464781
C66	C	1.894061	-0.514386	0.035219
C67	C	1.645483	-0.356722	-0.464746
C68	C	2.145483	0.143278	0.035254
C69	C	1.752697	-0.356726	-0.464756
C70	C	2.252697	0.143274	0.035244
C71	C	1.393949	-0.356649	-0.716317
C72	C	1.893949	0.143351	-0.216317
C73	C	1.393974	-0.356623	-0.823531
C74	C	1.893974	0.143377	-0.323531
C75	C	1.394046	-0.163549	-0.464773
C76	C	1.894046	0.336451	0.035227
C77	C	1.394112	-0.081235	-0.464795
C78	C	1.894112	0.418765	0.035205
C79	C	1.393994	-0.356602	-0.910601
C80	C	1.893994	0.143398	-0.410601
C81	C	1.394022	-0.356568	-1.019833
C82	C	1.894022	0.143432	-0.519833
C83	C	1.393887	-0.356720	-0.214109
C84	C	1.893887	0.143280	0.285891
C85	C	1.394048	-0.356538	-0.106896
C86	C	1.894048	0.143462	0.393104
H87	H	1.336516	-0.792526	-0.614637
H88	H	1.836516	-0.292526	-0.114637
H89	H	1.243662	-0.793172	-0.522009
H90	H	1.743662	-0.293172	-0.022009
F91	F	1.571691	-0.785226	-0.427090
F92	F	2.071691	-0.285226	0.072910
H93	H	1.521138	-0.920413	-0.563673
H94	H	2.021138	-0.420413	-0.063673
H95	H	1.417707	-0.919663	-0.305957
H96	H	1.917707	-0.419663	0.194043
F97	F	1.341929	-0.926066	-0.638339
F98	F	1.841929	-0.426066	-0.138339
F99	F	1.221393	-0.927441	-0.517247
F100	F	1.721393	-0.427441	-0.017247
F101	F	1.268404	-0.925147	-0.334699
F102	F	1.768404	-0.425147	0.165301
H103	H	1.418832	-0.792930	-0.305891
H104	H	1.918832	-0.292930	0.194109
H105	H	1.292578	-0.791917	-0.340630
H106	H	1.792578	-0.291917	0.159370
H107	H	1.516200	-0.792851	-0.567852
H108	H	2.016200	-0.292851	-0.067852
H109	H	1.551443	-0.919119	-0.436383
H110	H	2.051443	-0.419119	0.063617
