data_functionalizedCrystal
_audit_creation_method	'MofGen! by Chris Wilmer'
_symmetry_space_group_name_H-M	'P1'
_symmetry_Int_Tables_number	1
_symmetry_cell_setting	triclinic
loop_
_symmetry_equiv_pos_as_xyz
  x,y,z
_cell_length_a	12.759401
_cell_length_b	16.625546
_cell_length_c	12.759393
_cell_angle_alpha	89.963494
_cell_angle_beta	89.982961
_cell_angle_gamma	90.022629
loop_
_atom_site_label
_atom_site_type_symbol
_atom_site_fract_x
_atom_site_fract_y
_atom_site_fract_z
Zn1	Zn	1.606184	-0.320948	-0.593948
Zn2	Zn	1.606059	-0.455806	-0.418253
Zn3	Zn	1.430490	-0.320991	-0.418287
Zn4	Zn	1.430450	-0.455743	-0.593895
O5	O	1.518296	-0.388372	-0.506096
O6	O	1.753188	-0.338846	-0.570649
O7	O	1.582733	-0.437966	-0.271237
O8	O	1.453865	-0.208153	-0.441625
O9	O	1.753096	-0.437925	-0.441568
O10	O	1.582946	-0.208121	-0.570682
O11	O	1.453744	-0.338919	-0.271261
O12	O	1.283464	-0.338858	-0.441574
O13	O	1.453797	-0.437818	-0.740923
O14	O	1.283435	-0.437859	-0.570592
O15	O	1.582908	-0.338785	-0.740962
O16	O	1.582695	-0.568630	-0.441517
O17	O	1.453676	-0.568584	-0.570560
C18	C	1.245328	-0.388357	-0.506081
C19	C	1.128552	-0.388370	-0.506100
C20	C	1.518196	-0.597863	-0.506052
C21	C	1.518250	-0.687484	-0.506068
C22	C	1.073702	-0.440003	-0.573169
C23	C	0.963978	-0.440013	-0.573180
C24	C	0.963963	-0.336756	-0.439045
C25	C	1.073685	-0.336742	-0.439040
C26	C	1.073710	-0.499620	-0.650608
C27	C	0.963986	-0.499630	-0.650619
C28	C	1.518433	-1.015659	-0.506177
C29	C	1.518379	-0.924351	-0.506150
C30	C	1.518341	-0.851575	-0.506122
C31	C	1.518288	-0.760260	-0.506096
C32	C	1.792329	-0.388387	-0.506111
C33	C	1.909105	-0.388394	-0.506117
C34	C	1.518362	-0.388289	-0.780129
C35	C	1.518391	-0.388254	-0.896906
C36	C	1.518424	-0.178063	-0.506163
C37	C	1.518479	-0.088442	-0.506191
C38	C	1.451228	-0.439779	-1.061474
C39	C	1.451188	-0.439802	-0.951750
C40	C	1.585630	-0.336674	-0.951791
C41	C	1.585664	-0.336647	-1.061514
C42	C	1.373613	-0.499322	-1.061450
C43	C	1.373572	-0.499345	-0.951726
C44	C	1.518290	-0.388396	-0.233128
C45	C	1.518465	-0.388204	-0.116352
H46	H	1.118339	-0.294692	-0.384433
H47	H	1.103519	-0.482966	-0.732016
F48	F	0.919545	-0.470495	-0.751724
F49	F	0.905561	-0.281812	-0.367680
F50	F	1.118161	-0.577135	-0.612402
F51	F	0.925022	-0.581226	-0.621916
F52	F	1.411676	-0.576846	-1.105906
H53	H	1.640407	-0.294643	-1.106191
F54	F	1.401994	-0.580979	-0.912762
F55	F	1.657138	-0.281801	-0.893419
F56	F	1.267282	-0.477452	-1.100385
F57	F	1.272545	-0.470116	-0.907255
