data_functionalizedCrystal
_audit_creation_method	'MofGen! by Chris Wilmer'
_symmetry_space_group_name_H-M	'P1'
_symmetry_Int_Tables_number	1
_symmetry_cell_setting	triclinic
loop_
_symmetry_equiv_pos_as_xyz
  x,y,z
_cell_length_a	18.215407
_cell_length_b	21.295417
_cell_length_c	18.215399
_cell_angle_alpha	90.031105
_cell_angle_beta	90.019833
_cell_angle_gamma	90.030150
loop_
_atom_site_label
_atom_site_type_symbol
_atom_site_fract_x
_atom_site_fract_y
_atom_site_fract_z
Zn1	Zn	1.125047	-0.250608	0.416100
Zn2	Zn	1.124945	-0.355879	0.293027
Zn3	Zn	1.001980	-0.250629	0.293047
Zn4	Zn	1.001935	-0.355844	0.416052
O5	O	1.063477	-0.303240	0.354556
O6	O	1.228018	-0.264579	0.399785
O7	O	1.108610	-0.341941	0.190045
O8	O	1.018366	-0.162537	0.309399
O9	O	1.227943	-0.341921	0.309364
O10	O	1.108783	-0.162521	0.399805
O11	O	1.018267	-0.264614	0.190060
O12	O	0.898990	-0.264580	0.309352
O13	O	1.018291	-0.341861	0.519042
O14	O	0.898957	-0.341881	0.399723
O15	O	1.108740	-0.264545	0.519078
O16	O	1.108567	-0.443964	0.309317
O17	O	1.018192	-0.443938	0.399703
C18	C	0.872271	-0.303229	0.354535
C19	C	0.790472	-0.303240	0.354544
C20	C	0.602280	-0.343554	0.401541
C21	C	0.525421	-0.343556	0.401550
C22	C	0.525426	-0.262938	0.307588
C23	C	0.602283	-0.262933	0.307583
C24	C	0.640708	-0.303245	0.354558
C25	C	0.486992	-0.303251	0.354572
C26	C	0.403659	-0.303253	0.354582
C27	C	0.724047	-0.303242	0.354550
C28	C	1.063383	-0.466792	0.354519
C29	C	1.063410	-0.536760	0.354528
C30	C	1.110464	-0.569561	0.401636
C31	C	1.110490	-0.635304	0.401654
C32	C	1.063470	-0.668242	0.354551
C33	C	1.016408	-0.635433	0.307439
C34	C	1.016378	-0.569692	0.307428
N35	N	1.057911	-0.771505	0.290145
N36	N	1.057944	-0.833956	0.290158
C37	C	1.063556	-0.866317	0.354584
N38	N	1.069149	-0.833867	0.418998
N39	N	1.069120	-0.771410	0.418984
C40	C	1.063497	-0.739528	0.354559
C41	C	1.110640	-0.970404	0.401716
C42	C	1.110661	-1.036148	0.401735
C43	C	1.016583	-1.036275	0.307514
C44	C	1.016558	-0.970533	0.307501
C45	C	1.063591	-0.937601	0.354601
C46	C	1.255430	-0.303251	0.354578
C47	C	1.337229	-0.303256	0.354587
C48	C	1.063522	-0.303197	0.546509
C49	C	1.063541	-0.303178	0.628308
C50	C	1.063591	-0.139050	0.354610
C51	C	1.063640	-0.069082	0.354633
C52	C	1.063475	-0.303238	0.163350
C53	C	1.063598	-0.303079	0.081552
C54	C	1.110655	-0.262882	0.816522
C55	C	1.110664	-0.262863	0.893381
C56	C	1.016479	-0.343377	0.893333
C57	C	1.016467	-0.343392	0.816475
C58	C	1.063559	-0.303145	0.778072
C59	C	1.063580	-0.303112	0.931788
C60	C	1.063589	-0.303093	1.015122
C61	C	1.063549	-0.303164	0.694733
H62	H	0.494137	-0.376379	0.439809
H63	H	1.149013	-0.230076	0.924683
O64	O	1.156266	-1.068040	0.447578
C65	C	1.114363	-1.106081	0.495074
H66	H	1.056391	-1.086312	0.499568
H67	H	1.140955	-1.106770	0.551731
H68	H	1.111861	-1.155922	0.472330
H69	H	0.494131	-0.230118	0.269341
O70	O	1.156170	-0.537670	0.447459
C71	C	1.197721	-0.580725	0.489029
H72	H	1.167596	-0.627609	0.491558
H73	H	1.205534	-0.561691	0.547016
H74	H	1.253630	-0.587689	0.462127
H75	H	0.978294	-1.063093	0.269166
O76	O	0.970593	-0.537797	0.261767
C77	C	0.923034	-0.499766	0.303614
H78	H	0.918463	-0.519546	0.361576
H79	H	0.866413	-0.499078	0.276945
H80	H	0.945768	-0.449924	0.306160
H81	H	1.148800	-0.662016	0.440024
O82	O	1.156214	-0.938338	0.447508
C83	C	1.114266	-0.900325	0.495001
H84	H	1.058507	-0.890537	0.468988
H85	H	1.144214	-0.854065	0.504881
H86	H	1.106157	-0.925632	0.549537
H87	H	1.148999	-0.230109	0.785256
H88	H	0.978140	-0.376146	0.924610
O89	O	0.639640	-0.382773	0.447071
C90	C	0.684073	-0.423376	0.405089
H91	H	0.660887	-0.427207	0.347120
H92	H	0.684928	-0.471847	0.431608
H93	H	0.742331	-0.403907	0.402591
O94	O	0.970697	-0.667495	0.261785
C95	C	0.923148	-0.705525	0.303648
H96	H	0.949078	-0.715321	0.359444
H97	H	0.913324	-0.751779	0.273670
H98	H	0.868594	-0.680227	0.311681
O99	O	0.970834	-0.938763	0.261663
C100	C	0.929324	-0.981930	0.220104
H101	H	0.959489	-1.028771	0.217594
H102	H	0.921502	-0.962976	0.162109
H103	H	0.873418	-0.988948	0.247001
H104	H	0.633572	-0.230104	0.269324
O105	O	0.970693	-0.382567	0.779234
C106	C	0.929123	-0.418080	0.829608
H107	H	0.959271	-0.420252	0.884401
H108	H	0.921237	-0.467680	0.807378
H109	H	0.873246	-0.395025	0.837779
