data_functionalizedCrystal
_audit_creation_method	'MofGen! by Chris Wilmer'
_symmetry_space_group_name_H-M	'P1'
_symmetry_Int_Tables_number	1
_symmetry_cell_setting	triclinic
loop_
_symmetry_equiv_pos_as_xyz
  x,y,z
_cell_length_a	10.654550
_cell_length_b	14.044220
_cell_length_c	9.730223
_cell_angle_alpha	89.994583
_cell_angle_beta	89.999957
_cell_angle_gamma	88.836904
loop_
_atom_site_label
_atom_site_type_symbol
_atom_site_fract_x
_atom_site_fract_y
_atom_site_fract_z
O1	O	1.681228	0.133232	-0.114191
O2	O	1.317025	0.145925	-0.114216
O3	O	1.493659	0.001558	-0.114190
O4	O	1.504593	0.277599	-0.114217
O5	O	1.493647	0.001554	0.114390
O6	O	1.317012	0.145921	0.114364
O7	O	1.681215	0.133228	0.114389
Zn8	Zn	1.499111	0.139574	0.150668
Zn9	Zn	1.499128	0.139579	-0.150496
O10	O	1.504580	0.277595	0.114363
C11	C	1.270127	0.144991	0.000070
C12	C	1.130403	0.142202	0.000061
C13	C	1.059459	0.227204	0.000057
C14	C	0.928175	0.224578	0.000081
C15	C	0.938790	0.051942	0.000108
C16	C	1.070072	0.054569	0.000094
C17	C	1.488867	-0.033790	0.000100
C18	C	1.474592	-0.139110	0.000101
C19	C	1.448493	-0.331943	0.000079
C20	C	1.549741	-0.388910	0.000082
C21	C	1.535219	-0.496209	0.000070
C22	C	1.463013	-0.224634	0.000091
C23	C	1.728113	0.134162	0.000099
C24	C	1.867836	0.136950	0.000100
C25	C	1.509372	0.312943	0.000070
C26	C	1.523648	0.418262	0.000060
N27	N	1.499109	0.139570	0.356205
N28	N	1.499140	0.139576	-0.356032
C29	C	1.577355	0.075671	0.428142
C30	C	1.577367	0.075671	0.572025
C31	C	1.420885	0.203477	0.572021
C32	C	1.420867	0.203471	0.428140
H33	H	0.870417	0.293795	0.000080
C34	C	1.670561	-0.246447	0.000129
C35	C	1.681484	-0.345972	0.000112
H36	H	1.751892	-0.219938	0.000159
H37	H	1.626220	-0.225941	-0.079584
H38	H	1.626181	-0.225965	0.079838
H39	H	1.725857	-0.366454	-0.079603
H40	H	1.725844	-0.366486	0.079833
H41	H	0.889652	-0.019406	0.000143
C42	C	1.067389	-0.116345	0.000106
C43	C	1.148064	-0.038872	0.000092
H44	H	1.115540	-0.174027	0.000100
H45	H	1.015973	-0.113782	0.079817
H46	H	1.015953	-0.113774	-0.079606
H47	H	1.199493	-0.041439	0.079810
H48	H	1.199501	-0.041436	-0.079627
H49	H	1.350913	-0.363754	0.000069
H50	H	1.641062	0.023637	0.369576
C51	C	1.732051	-0.050649	0.557568
C52	C	1.663383	0.005436	0.651099
H53	H	1.785160	-0.094007	0.606387
H54	H	1.675916	-0.085140	0.501467
H55	H	1.781664	-0.010832	0.501433
H56	H	1.613763	-0.034380	0.707227
H57	H	1.719525	0.039930	0.707224
C58	C	1.252183	0.222864	0.733863
C59	C	1.334896	0.273721	0.651104
H60	H	1.199105	0.266234	0.782690
H61	H	1.202551	0.183069	0.677752
H62	H	1.298804	0.184812	0.797292
H63	H	1.288276	0.311768	0.587668
H64	H	1.384534	0.313532	0.707220
C65	C	1.266196	0.329815	0.442576
C66	C	1.334856	0.273717	0.349056
H67	H	1.213104	0.373181	0.393749
H68	H	1.216578	0.290016	0.498709
H69	H	1.322346	0.364307	0.498681
H70	H	1.278705	0.239220	0.292957
H71	H	1.384477	0.313522	0.292899
H72	H	1.108577	0.298560	0.000041
