data_functionalizedCrystal
_audit_creation_method	'MofGen! by Chris Wilmer'
_symmetry_space_group_name_H-M	'P1'
_symmetry_Int_Tables_number	1
_symmetry_cell_setting	triclinic
loop_
_symmetry_equiv_pos_as_xyz
  x,y,z
_cell_length_a	11.792254
_cell_length_b	10.489716
_cell_length_c	8.965430
_cell_angle_alpha	89.996700
_cell_angle_beta	89.997053
_cell_angle_gamma	84.363867
loop_
_atom_site_label
_atom_site_type_symbol
_atom_site_fract_x
_atom_site_fract_y
_atom_site_fract_z
O1	O	1.507347	0.174904	0.124024
O2	O	1.177055	0.192906	0.124026
O3	O	1.349731	-0.001720	0.124030
O4	O	1.334671	0.369530	0.124019
O5	O	1.349739	-0.001714	-0.124049
O6	O	1.177063	0.192912	-0.124053
O7	O	1.507355	0.174911	-0.124055
Cu8	Cu	1.342210	0.183912	-0.146706
Cu9	Cu	1.342200	0.183905	0.146676
O10	O	1.334679	0.369536	-0.124059
C11	C	1.134765	0.191775	-0.000013
C12	C	1.008743	0.188381	-0.000012
C13	C	0.906399	0.185623	-0.000006
C14	C	0.778004	0.182175	-0.000005
C15	C	1.348603	-0.049245	-0.000005
C16	C	1.345218	-0.190865	0.000009
C17	C	1.451108	-0.288894	-0.000005
C18	C	1.395149	-0.366070	0.122307
C19	C	1.395133	-0.366028	-0.122279
C20	C	1.289303	-0.266175	0.122422
C21	C	1.289302	-0.266128	-0.122274
C22	C	1.233266	-0.343255	0.000068
C23	C	1.549645	0.176041	-0.000013
C24	C	1.675666	0.179436	-0.000004
C25	C	1.335806	0.417062	-0.000021
C26	C	1.339192	0.558681	-0.000025
N27	N	1.342225	0.183916	-0.353055
C28	C	1.422108	0.093914	-0.450319
C29	C	1.319342	0.068424	-0.549722
C30	C	1.444950	0.209324	-0.549779
C31	C	1.239407	0.158369	-0.450269
C32	C	1.365083	0.299319	-0.450318
C33	C	1.262243	0.273877	-0.549676
N34	N	1.342194	0.183890	0.353025
H35	H	1.543215	-0.264527	0.000118
H36	H	1.152499	0.136757	-0.406742
F37	F	1.453570	-0.423124	0.257467
H38	H	1.299986	-0.029180	-0.593387
H39	H	1.384471	0.396893	-0.406621
F40	F	1.173834	0.373354	-0.606341
F41	F	1.558515	0.237426	-0.606920
F42	F	1.230949	-0.209021	-0.257442
H43	H	1.244624	-0.222724	0.225942
H44	H	1.141090	-0.367376	0.000134
H45	H	1.439859	-0.409648	-0.225682
H46	H	1.489596	0.017763	-0.406692
