data_functionalizedCrystal
_audit_creation_method	'MofGen! by Chris Wilmer'
_symmetry_space_group_name_H-M	'P1'
_symmetry_Int_Tables_number	1
_symmetry_cell_setting	triclinic
loop_
_symmetry_equiv_pos_as_xyz
  x,y,z
_cell_length_a	31.640172
_cell_length_b	31.640171
_cell_length_c	19.902436
_cell_angle_alpha	59.989460
_cell_angle_beta	89.993476
_cell_angle_gamma	59.974735
loop_
_atom_site_label
_atom_site_type_symbol
_atom_site_fract_x
_atom_site_fract_y
_atom_site_fract_z
Zr1	Zr	0.406957	0.462758	-0.088409
O2	O	0.339424	0.550980	-0.195736
O3	O	0.427688	0.374548	-0.055481
O4	O	0.427643	0.462764	-0.195703
O5	O	0.339471	0.462755	0.055064
O6	O	0.497200	0.462757	-0.195707
O7	O	0.339469	0.462763	-0.055514
O8	O	0.497280	0.304953	0.055124
O9	O	0.339391	0.620558	-0.195767
O10	O	0.488404	0.410821	-0.041474
O11	O	0.436497	0.410820	0.041054
O12	O	0.436444	0.514684	-0.124040
O13	O	0.384537	0.514683	-0.041513
Zr14	Zr	0.517895	0.462734	0.087944
Zr15	Zr	0.517891	0.462747	-0.088417
Zr16	Zr	0.406961	0.462745	0.087951
Zr17	Zr	0.406905	0.573728	-0.088458
Zr18	Zr	0.517947	0.351764	0.087993
O19	O	0.497164	0.550945	0.055016
O20	O	0.497158	0.550963	-0.195746
O21	O	0.339430	0.550961	0.055026
O22	O	0.585428	0.374513	0.195270
O23	O	0.585422	0.374531	-0.055491
O24	O	0.427694	0.374529	0.195281
O25	O	0.585381	0.462738	-0.055530
O26	O	0.497209	0.462728	0.195237
O27	O	0.427652	0.462735	0.195242
O28	O	0.585383	0.462729	0.055049
O29	O	0.427569	0.620549	-0.195772
O30	O	0.497283	0.304943	0.195307
O31	O	0.585461	0.304934	0.195301
O32	O	0.585458	0.304944	0.055118
O33	O	0.339394	0.620548	-0.055584
O34	O	0.427572	0.620539	-0.055589
O35	O	0.488408	0.410809	0.123574
O36	O	0.540315	0.410809	0.041047
O37	O	0.488355	0.514672	-0.041519
O38	O	0.436448	0.514672	0.041008
C39	C	0.462491	0.323940	-0.000172
C40	C	0.462514	0.276830	-0.000151
C41	C	0.500769	-0.097745	0.060695
C42	C	0.500815	0.079208	0.060741
O43	O	0.533438	0.069469	0.112549
N44	N	0.462481	0.139692	-0.000188
C45	C	0.424135	0.155937	-0.061136
O46	O	0.391533	0.211443	-0.112964
C47	C	0.424091	-0.021015	-0.061184
C48	C	0.462425	-0.081499	-0.000246
C49	C	0.539100	-0.158225	0.121628
C50	C	0.539086	-0.202461	0.121618
C51	C	0.500742	-0.186215	0.060677
C52	C	0.462411	-0.125734	-0.000256
C53	C	0.385748	-0.004770	-0.122135
C54	C	0.385741	-0.049014	-0.122143
C55	C	0.424075	-0.109498	-0.061205
C56	C	0.424054	-0.153724	-0.061207
N57	N	0.462388	-0.214208	-0.000278
C58	C	0.500732	-0.230453	0.060664
C59	C	0.424159	0.248837	-0.061106
C60	C	0.424170	0.293075	-0.061093
C61	C	0.500850	0.216343	0.060783
C62	C	0.500838	0.172105	0.060773
C63	C	0.462493	0.188354	-0.000177
C64	C	0.500701	-0.323347	0.060640
C65	C	0.500682	-0.367583	0.060627
C66	C	0.424003	-0.290847	-0.061251
C67	C	0.424020	-0.246615	-0.061236
C68	C	0.462373	-0.262870	-0.000287
O69	O	0.391451	-0.144029	-0.112993
O70	O	0.533335	-0.285961	0.112473
C71	C	0.500782	-0.053509	0.060705
C72	C	0.462452	0.006971	-0.000228
C73	C	0.424108	0.023217	-0.061169
C74	C	0.462462	0.051209	-0.000215
C75	C	0.500806	0.034964	0.060727
C76	C	0.539140	-0.025520	0.121656
C77	C	0.539127	-0.069755	0.121646
C78	C	0.385774	0.083700	-0.122098
C79	C	0.385790	0.127933	-0.122083
C80	C	0.424134	0.111687	-0.061142
C81	C	0.323664	0.462760	-0.000224
C82	C	0.276570	0.462765	-0.000221
C83	C	-0.015437	0.462740	-0.061150
C84	C	-0.192424	0.462732	-0.061156
O85	O	-0.215297	0.462710	-0.112945
N86	N	-0.214553	0.462729	-0.000238
C87	C	-0.192431	0.462724	0.060689
O88	O	-0.215311	0.462715	0.112508
C89	C	-0.015443	0.462727	0.060698
C90	C	0.006681	0.462736	-0.000229
C91	C	0.006687	0.462749	-0.122071
C92	C	0.050930	0.462754	-0.122072
C93	C	0.073048	0.462750	-0.061151
C94	C	0.050923	0.462741	-0.000230
C95	C	0.006680	0.462717	0.121627
C96	C	0.050931	0.462717	0.121625
C97	C	0.073055	0.462726	0.060698
C98	C	0.117284	0.462743	0.060691
N99	N	0.139413	0.462746	-0.000227
C100	C	0.117295	0.462750	-0.061148
C101	C	-0.285353	0.462723	0.060679
C102	C	-0.329600	0.462723	0.060676
C103	C	-0.329589	0.462731	-0.061168
C104	C	-0.285343	0.462735	-0.061168
C105	C	-0.263223	0.462727	-0.000239
C106	C	0.210207	0.462761	-0.061145
C107	C	0.254452	0.462769	-0.061142
C108	C	0.254439	0.462758	0.060705
C109	C	0.210196	0.462754	0.060699
C110	C	0.188082	0.462753	-0.000229
O111	O	0.140188	0.462759	0.112458
O112	O	0.140189	0.462746	-0.112949
C113	C	-0.059679	0.462735	-0.061149
C114	C	-0.081804	0.462726	-0.000228
C115	C	-0.059686	0.462722	0.060693
C116	C	-0.126051	0.462726	-0.000231
C117	C	-0.148169	0.462730	-0.061152
C118	C	-0.126040	0.462733	-0.122070
C119	C	-0.081797	0.462738	-0.122070
C120	C	-0.081815	0.462719	0.121611
C121	C	-0.126058	0.462715	0.121605
C122	C	-0.148176	0.462718	0.060685
C123	C	0.601188	0.462732	-0.000242
C124	C	0.648282	0.462727	-0.000245
C125	C	0.462421	0.462763	-0.220833
C126	C	0.462419	0.462768	-0.295702
C127	C	0.462361	0.601553	-0.000294
C128	C	0.462338	0.648662	-0.000314
C129	C	0.462429	0.462739	-0.567704
C130	C	0.429494	0.528257	-0.591298
C131	C	0.429634	0.528299	-0.513460
C132	C	0.462423	0.462754	-0.432761
C133	C	0.518844	0.430212	-0.435162
C134	C	0.518666	0.430630	-0.513390
C135	C	0.439397	0.429293	-0.512397
C136	C	0.438252	0.430524	-0.435476
C137	C	0.462424	0.462759	-0.356495
C138	C	0.462432	0.462732	-0.643970
C139	C	0.462431	0.462730	0.220367
C140	C	0.462433	0.462724	0.295237
C141	C	0.601253	0.323925	-0.000181
C142	C	0.648370	0.276811	-0.000163
C143	C	0.462497	0.323923	0.220428
C144	C	0.462521	0.276808	0.295318
C145	C	0.601258	0.323909	0.220419
C146	C	0.648377	0.276789	0.295307
C147	C	0.323594	0.601583	-0.220885
C148	C	0.276475	0.648703	-0.295772
C149	C	0.323599	0.601567	-0.000285
C150	C	0.276482	0.648681	-0.000303
C151	C	0.462355	0.601569	-0.220894
C152	C	0.462331	0.648684	-0.295784
C153	C	0.643399	0.254691	-0.043237
C154	C	0.687666	0.210428	-0.043237
C155	C	0.736903	0.188283	-0.000157
C156	C	0.741873	0.210407	0.042918
C157	C	0.697606	0.254672	0.042912
C158	C	0.489629	0.254676	0.373570
C159	C	0.489649	0.210413	0.443944
C160	C	0.462564	0.188279	0.436065
C161	C	0.435453	0.210415	0.357805
C162	C	0.435430	0.254681	0.287433
C163	C	0.697604	0.254661	0.287396
C164	C	0.741881	0.210393	0.357754
C165	C	0.736930	0.188250	0.436022
C166	C	0.687697	0.210383	0.443930
C167	C	0.643422	0.254653	0.373573
C168	C	0.227248	0.670836	-0.287862
C169	C	0.182971	0.715118	-0.358220
C170	C	0.187922	0.737263	-0.436487
C171	C	0.237155	0.715128	-0.444396
C172	C	0.281430	0.670850	-0.374039
C173	C	0.281453	0.670806	0.042764
C174	C	0.237186	0.715081	0.042744
C175	C	0.187949	0.737228	-0.000337
C176	C	0.182979	0.715102	-0.043409
C177	C	0.227246	0.670831	-0.043394
C178	C	0.489422	0.670804	-0.287879
C179	C	0.489409	0.715068	-0.358239
C180	C	0.462303	0.737214	-0.436505
C181	C	0.435212	0.715090	-0.444409
C182	C	0.435228	0.670824	-0.374049
H183	H	0.532052	0.122858	0.110394
H184	H	0.772943	0.152239	-0.000159
H185	H	0.511729	0.192395	0.507660
H186	H	0.781964	0.192378	0.351300
H187	H	0.462587	0.152235	0.493373
H188	H	0.142889	0.733133	-0.351764
Cl189	Cl	0.581538	0.282461	0.383532
H190	H	0.603312	0.272722	-0.078327
H191	H	0.151866	0.773317	-0.493770
Cl192	Cl	0.375801	-0.270435	-0.137857
Cl193	Cl	0.523503	0.642972	-0.189496
H194	H	0.413166	0.652819	-0.380497
Cl195	Cl	0.243370	0.742972	-0.542796
H196	H	0.683610	0.192421	-0.078314
H197	H	0.462295	0.773259	-0.493790
H198	H	0.511469	0.733077	-0.351788
H199	H	0.223207	0.652808	-0.224139
H200	H	0.321512	0.652830	-0.380489
Cl201	Cl	0.401407	0.182581	0.347914
H202	H	0.413143	0.733128	-0.508142
H203	H	-0.144057	0.462739	-0.171677
H204	H	0.241242	0.733088	0.077822
Cl205	Cl	0.121077	0.742948	-0.097561
H206	H	0.321540	0.652777	0.077852
H207	H	0.413356	0.272695	0.223720
Cl208	Cl	0.703842	0.282493	0.189011
Cl209	Cl	0.132304	0.792883	-0.000346
H210	H	0.354569	0.177182	-0.171706
H211	H	0.223191	0.652818	-0.078462
Cl212	Cl	0.803775	0.182557	0.097075
H213	H	0.772986	0.152203	0.493304
H214	H	0.531899	-0.416833	0.110254
H215	H	0.531931	-0.336591	0.110271
Cl216	Cl	0.523684	0.282491	0.383497
Cl217	Cl	0.587281	-0.278494	0.198228
Cl218	Cl	0.337535	-0.028581	-0.198772
H219	H	0.570342	-0.119001	0.171268
H220	H	0.387840	0.553976	-0.630470
Cl221	Cl	0.587310	-0.178663	0.198252
H222	H	0.683674	0.192347	0.507665
H223	H	0.392949	0.342322	-0.110705
Cl224	Cl	0.375947	0.269276	-0.137732
Cl225	Cl	0.549055	0.195929	0.137394
Cl226	Cl	0.375825	-0.170577	-0.137839
Cl227	Cl	0.337553	0.071260	-0.198747
H228	H	0.570359	-0.038740	0.171280
H229	H	0.272463	0.462778	-0.110758
Cl230	Cl	0.182413	0.462762	-0.137743
Cl231	Cl	0.337563	0.104135	-0.198717
H232	H	0.068942	0.462759	-0.171681
H233	H	-0.267332	0.462742	-0.110779
Cl234	Cl	-0.021111	0.462753	-0.198668
Cl235	Cl	-0.357414	0.462724	0.137263
Cl236	Cl	-0.257551	0.462716	0.137280
Cl237	Cl	-0.357403	0.462734	-0.137752
Cl238	Cl	-0.021123	0.462703	0.198226
H239	H	0.192178	0.462755	0.110305
Cl240	Cl	0.078736	0.462704	0.198228
H241	H	0.463271	0.381027	-0.492453
Cl242	Cl	-0.053990	0.462749	-0.198667
Cl243	Cl	0.282251	0.462754	0.137287
Cl244	Cl	0.547133	0.466328	-0.569832
Cl245	Cl	-0.153868	0.462706	0.198204
H246	H	-0.063809	0.462715	0.171221
Cl247	Cl	0.365492	0.567670	-0.515245
H248	H	0.445609	0.553985	-0.515252
Cl249	Cl	0.558612	0.356416	-0.483494
Cl250	Cl	0.453924	0.567764	-0.652937
H251	H	0.544445	0.382018	-0.378329
H252	H	0.537414	0.452804	-0.433618
H253	H	0.398481	0.450263	-0.548715
H254	H	0.396686	0.454252	-0.435861
H255	H	0.701661	0.272676	0.077993
Cl256	Cl	0.471441	0.356694	-0.346732
