data_functionalizedCrystal
_audit_creation_method	'MofGen! by Chris Wilmer'
_symmetry_space_group_name_H-M	'P1'
_symmetry_Int_Tables_number	1
_symmetry_cell_setting	triclinic
loop_
_symmetry_equiv_pos_as_xyz
  x,y,z
_cell_length_a	19.805407
_cell_length_b	18.101397
_cell_length_c	19.805399
_cell_angle_alpha	89.969268
_cell_angle_beta	89.978486
_cell_angle_gamma	90.019712
loop_
_atom_site_label
_atom_site_type_symbol
_atom_site_fract_x
_atom_site_fract_y
_atom_site_fract_z
Zn1	Zn	1.034746	-0.294851	-0.382795
Zn2	Zn	1.034678	-0.418698	-0.269603
Zn3	Zn	0.921566	-0.294873	-0.269610
Zn4	Zn	0.921536	-0.418654	-0.382741
O5	O	0.978131	-0.356769	-0.326187
O6	O	1.129453	-0.311289	-0.367800
O7	O	1.019657	-0.402300	-0.174888
O8	O	0.936620	-0.191237	-0.284650
O9	O	1.129403	-0.402279	-0.284638
O10	O	1.019773	-0.191221	-0.367806
O11	O	0.936554	-0.311326	-0.174893
O12	O	0.826845	-0.311284	-0.284598
O13	O	0.936569	-0.402204	-0.477465
O14	O	0.826823	-0.402225	-0.367714
O15	O	1.019744	-0.311246	-0.477504
O16	O	1.019628	-0.522325	-0.284586
O17	O	0.936503	-0.522293	-0.367707
C18	C	0.802275	-0.356752	-0.326151
C19	C	0.727043	-0.356763	-0.326152
C20	C	0.978073	-0.549180	-0.326155
C21	C	0.978110	-0.631494	-0.326163
C22	C	0.265258	-0.404211	-0.369442
C23	C	0.335947	-0.404210	-0.369427
C24	C	0.371281	-0.356787	-0.326214
C25	C	0.335924	-0.309367	-0.283007
C26	C	0.265237	-0.309373	-0.283019
C27	C	0.620997	-0.309345	-0.282960
C28	C	0.691689	-0.309341	-0.282953
C29	C	0.691707	-0.404182	-0.369368
C30	C	0.621020	-0.404187	-0.369380
C31	C	0.585669	-0.356771	-0.326171
C32	C	0.509020	-0.356774	-0.326186
C33	C	0.447929	-0.356780	-0.326202
C34	C	0.978197	-0.930585	-0.326225
C35	C	1.030351	-0.899249	-0.273787
C36	C	1.030532	-0.813630	-0.273923
C37	C	0.978154	-0.782202	-0.326194
C38	C	0.997486	-0.813209	-0.397540
C39	C	0.997889	-0.898854	-0.397255
C40	C	0.906572	-0.899093	-0.307934
C41	C	0.906925	-0.813443	-0.306342
C42	C	0.978129	-0.698343	-0.326180
C43	C	0.978224	-1.014444	-0.326243
C44	C	1.154674	-0.356786	-0.326224
C45	C	1.229906	-0.356794	-0.326240
C46	C	0.978161	-0.356718	-0.502730
C47	C	0.978173	-0.356696	-0.577962
C48	C	0.978208	-0.163607	-0.326235
C49	C	0.978240	-0.081293	-0.326256
C50	C	0.934914	-0.309321	-0.613309
C51	C	0.934923	-0.309307	-0.683997
C52	C	0.978196	-0.356664	-0.719338
C53	C	1.021457	-0.404043	-0.683987
C54	C	1.021444	-0.404061	-0.613299
C55	C	1.021511	-0.403974	-0.969060
C56	C	1.021522	-0.403951	-1.039752
C57	C	0.934990	-0.309220	-1.039758
C58	C	0.934977	-0.309238	-0.969071
C59	C	0.978236	-0.356620	-0.933725
C60	C	0.978224	-0.356636	-0.857077
C61	C	0.978211	-0.356645	-0.795985
C62	C	0.978141	-0.356767	-0.150331
C63	C	0.978259	-0.356580	-0.075100
H64	H	0.236494	-0.442825	-0.404635
H65	H	0.720457	-0.270721	-0.247762
H66	H	0.592223	-0.270738	-0.247774
H67	H	0.592254	-0.442801	-0.404571
C68	C	0.851603	-0.784551	-0.354159
N69	N	0.809936	-0.762790	-0.390180
H70	H	1.056675	-0.442633	-0.584521
H71	H	1.056687	-0.442606	-0.712767
C72	C	0.948807	-0.926856	-0.451844
N73	N	0.911843	-0.947944	-0.492965
C74	C	0.374795	-0.257196	-0.235477
N75	N	0.404071	-0.217895	-0.199680
C76	C	0.730600	-0.456349	-0.416893
N77	N	0.759893	-0.495640	-0.452687
C78	C	1.069134	-0.456054	-0.930190
N79	N	1.105020	-0.495269	-0.900910
C80	C	0.882814	-0.928348	-0.238864
N81	N	0.864928	-0.950383	-0.186838
C82	C	0.887310	-0.257224	-0.574440
N83	N	0.851451	-0.217986	-0.545167
H84	H	0.236454	-0.270759	-0.247841
C85	C	0.374831	-0.456375	-0.416951
N86	N	0.404119	-0.495670	-0.452746
H87	H	1.018437	-0.792669	-0.221021
C88	C	1.068621	-0.925767	-0.418176
N89	N	1.121898	-0.946034	-0.433932
H90	H	1.018403	-0.919892	-0.220726
H91	H	1.083117	-0.920718	-0.285750
H92	H	1.083588	-0.793088	-0.286025
H93	H	0.960661	-0.792850	-0.437662
H94	H	0.892349	-0.793185	-0.253836
H95	H	1.049254	-0.791703	-0.413295
H96	H	0.867713	-0.919358	-0.346127
C97	C	0.887342	-0.257184	-0.722875
N98	N	0.851503	-0.217920	-0.752157
H99	H	0.899743	-0.270672	-0.940300
C100	C	0.887400	-0.257104	-1.078644
N101	N	0.851556	-0.217850	-1.107932
H102	H	1.056762	-0.442518	-1.068525
