data_functionalizedCrystal
_audit_creation_method	'MofGen! by Chris Wilmer'
_symmetry_space_group_name_H-M	'P1'
_symmetry_Int_Tables_number	1
_symmetry_cell_setting	triclinic
loop_
_symmetry_equiv_pos_as_xyz
  x,y,z
_cell_length_a	14.519709
_cell_length_b	11.792241
_cell_length_c	10.868271
_cell_angle_alpha	89.996558
_cell_angle_beta	89.993918
_cell_angle_gamma	83.936780
loop_
_atom_site_label
_atom_site_type_symbol
_atom_site_fract_x
_atom_site_fract_y
_atom_site_fract_z
O1	O	0.126404	1.506208	-0.102301
O2	O	0.459738	1.839541	0.231033
O3	O	0.793071	2.172874	0.564366
O4	O	0.139432	1.175794	-0.102309
O5	O	0.472765	1.509128	0.231024
O6	O	0.806098	1.842461	0.564358
O7	O	-0.001288	1.349761	-0.102294
O8	O	0.332045	1.683095	0.231040
O9	O	0.665378	2.016428	0.564373
O10	O	0.267124	1.332241	-0.102316
O11	O	0.600458	1.665574	0.231017
O12	O	0.933791	1.998907	0.564351
O13	O	-0.001294	1.349747	0.102351
O14	O	0.332039	1.683080	0.435684
O15	O	0.665373	2.016414	0.769018
O16	O	0.139426	1.175780	0.102336
O17	O	0.472759	1.509113	0.435669
O18	O	0.806093	1.842447	0.769002
O19	O	0.126399	1.506193	0.102344
O20	O	0.459732	1.839527	0.435677
O21	O	0.793066	2.172860	0.769011
Zn22	Zn	0.132912	1.340984	0.134832
Zn23	Zn	0.466245	1.674318	0.468165
Zn24	Zn	0.799578	2.007651	0.801498
Zn25	Zn	0.132919	1.341003	-0.134797
Zn26	Zn	0.466252	1.674337	0.198537
Zn27	Zn	0.799586	2.007670	0.531870
O28	O	0.267119	1.332226	0.102329
O29	O	0.600452	1.665560	0.435662
O30	O	0.933786	1.998893	0.768995
C31	C	-0.035654	1.348938	0.000029
C32	C	0.297679	1.682271	0.333362
C33	C	0.631013	2.015604	0.666696
C34	C	-0.138044	1.346491	0.000030
C35	C	0.195289	1.679824	0.333363
C36	C	0.528623	2.013158	0.666696
C37	C	0.127220	1.548487	0.000020
C38	C	0.460553	1.881820	0.333353
C39	C	0.793887	2.215154	0.666686
C40	C	0.129669	1.674487	0.000014
C41	C	0.463003	2.007820	0.333348
C42	C	0.796336	2.341154	0.666681
C43	C	0.138611	1.133501	0.000013
C44	C	0.471944	1.466834	0.333346
C45	C	0.805277	1.800167	0.666679
C46	C	0.136161	1.007501	0.000010
C47	C	0.469495	1.340834	0.333343
C48	C	0.802828	1.674167	0.666676
C49	C	-0.512973	1.337483	-0.000003
C50	C	-0.179640	1.670816	0.333331
C51	C	0.153694	2.004149	0.666664
C52	C	-0.408656	1.339984	0.000007
C53	C	-0.075322	1.673318	0.333340
C54	C	0.258011	2.006651	0.666673
C55	C	-0.325512	1.341987	0.000015
C56	C	0.007822	1.675320	0.333348
C57	C	0.341155	2.008653	0.666681
C58	C	-0.221188	1.344489	0.000022
C59	C	0.112145	1.677822	0.333355
C60	C	0.445479	2.011155	0.666688
C61	C	0.301484	1.333050	0.000003
C62	C	0.634818	1.666383	0.333337
C63	C	0.968151	1.999717	0.666670
C64	C	0.403875	1.335497	-0.000005
C65	C	0.737208	1.668830	0.333328
C66	C	1.070541	2.002164	0.666661
N67	N	0.132906	1.340980	0.318846
N68	N	0.466239	1.674313	0.652179
N69	N	0.799573	2.007647	0.985512
C70	C	0.134173	1.905174	0.000015
C71	C	0.467506	2.238508	0.333348
C72	C	0.800840	2.571841	0.666681
C73	C	0.131671	1.776803	0.000015
C74	C	0.465004	2.110136	0.333348
C75	C	0.798337	2.443470	0.666681
N76	N	0.132917	1.341017	-0.318811
N77	N	0.466251	1.674350	0.014523
N78	N	0.799584	2.007683	0.347856
C79	C	0.132917	1.340997	0.569852
C80	C	0.466250	1.674331	0.903185
C81	C	0.799584	2.007664	1.236518
C82	C	0.132914	1.340984	0.430174
C83	C	0.466247	1.674317	0.763508
C84	C	0.799580	2.007651	1.096841
