data_functionalizedCrystal
_audit_creation_method	'MofGen! by Chris Wilmer'
_symmetry_space_group_name_H-M	'P1'
_symmetry_Int_Tables_number	1
_symmetry_cell_setting	triclinic
loop_
_symmetry_equiv_pos_as_xyz
  x,y,z
_cell_length_a	19.188930
_cell_length_b	19.288865
_cell_length_c	17.766277
_cell_angle_alpha	90.011603
_cell_angle_beta	90.023242
_cell_angle_gamma	83.140512
loop_
_atom_site_label
_atom_site_type_symbol
_atom_site_fract_x
_atom_site_fract_y
_atom_site_fract_z
O1	O	-0.926143	-0.086718	-0.062845
O2	O	-0.426143	0.413282	0.437155
O3	O	-0.722831	-0.098391	-0.062794
O4	O	-0.222831	0.401609	0.437206
O5	O	-0.830362	0.008575	-0.062806
O6	O	-0.330362	0.508575	0.437194
O7	O	-0.818612	-0.193685	-0.062833
O8	O	-0.318612	0.306315	0.437167
O9	O	-0.830343	0.008581	0.062382
O10	O	-0.330343	0.508581	0.562382
O11	O	-0.722812	-0.098386	0.062394
O12	O	-0.222812	0.401614	0.562394
O13	O	-0.926124	-0.086712	0.062344
O14	O	-0.426124	0.413288	0.562344
Cu15	Cu	-0.824466	-0.092549	0.073800
Cu16	Cu	-0.324466	0.407451	0.573800
Cu17	Cu	-0.824489	-0.092555	-0.074250
Cu18	Cu	-0.324489	0.407445	0.425750
O19	O	-0.818593	-0.193679	0.062356
O20	O	-0.318593	0.306321	0.562356
C21	C	-0.696811	-0.098011	-0.000193
C22	C	-0.196811	0.401989	0.499807
C23	C	-0.619306	-0.096876	-0.000173
C24	C	-0.119306	0.403124	0.499827
C25	C	-0.829974	0.034454	-0.000209
C26	C	-0.329974	0.534454	0.499791
C27	C	-0.828839	0.111558	-0.000203
C28	C	-0.328839	0.611558	0.499797
C29	C	-0.952145	-0.087093	-0.000259
C30	C	-0.452145	0.412907	0.499741
C31	C	-1.029649	-0.088228	-0.000284
C32	C	-0.529649	0.411772	0.499716
C33	C	-0.574377	-0.159640	-0.000194
C34	C	-0.074377	0.340360	0.499806
C35	C	-0.501554	-0.158574	-0.000202
C36	C	-0.001554	0.341426	0.499798
C37	C	-0.473662	-0.094740	-0.000205
C38	C	0.026338	0.405260	0.499795
C39	C	-0.518600	-0.031967	-0.000180
C40	C	-0.018600	0.468033	0.499820
C41	C	-0.591423	-0.033035	-0.000165
C42	C	-0.091423	0.466965	0.499835
N43	N	-0.365692	-0.045949	-0.042836
N44	N	0.134308	0.454051	0.457164
N45	N	-0.296513	-0.044938	-0.042852
N46	N	0.203487	0.455062	0.457148
C47	C	-0.254254	-0.091519	-0.000250
C48	C	0.245746	0.408481	0.499750
N49	N	-0.283784	-0.139158	0.042359
N50	N	0.216216	0.360842	0.542359
N51	N	-0.352969	-0.140170	0.042372
N52	N	0.147031	0.359830	0.542372
C53	C	-0.394700	-0.093575	-0.000221
C54	C	0.105300	0.406425	0.499779
C55	C	-0.130361	-0.153132	-0.000278
C56	C	0.369639	0.346868	0.499722
C57	C	-0.057536	-0.152063	-0.000282
C58	C	0.442464	0.347937	0.499718
C59	C	-0.074584	-0.025454	-0.000268
C60	C	0.425416	0.474546	0.499732
C61	C	-0.147407	-0.026525	-0.000257
C62	C	0.352593	0.473475	0.499743
C63	C	-0.175291	-0.090365	-0.000266
C64	C	0.324709	0.409635	0.499734
C65	C	-0.818981	-0.219558	-0.000243
C66	C	-0.318981	0.280442	0.499757
C67	C	-0.820116	-0.296662	-0.000255
C68	C	-0.320116	0.203338	0.499745
N69	N	-0.824456	-0.092544	0.177930
N70	N	-0.324456	0.407456	0.677930
C71	C	-0.891934	0.156250	-0.000215
C72	C	-0.391934	0.656250	0.499785
C73	C	-0.890867	0.228697	-0.000226
C74	C	-0.390867	0.728697	0.499774
C75	C	-0.826703	0.256449	-0.000211
C76	C	-0.326703	0.756449	0.499789
C77	C	-0.763601	0.211748	-0.000203
C78	C	-0.263601	0.711748	0.499797
C79	C	-0.764669	0.139302	-0.000199
C80	C	-0.264669	0.639302	0.499801
C81	C	-0.776256	0.364742	0.043653
C82	C	-0.276256	0.864742	0.543653
C83	C	-0.775191	0.437187	0.043653
C84	C	-0.275191	0.937187	0.543653
C85	C	-0.823407	0.479895	-0.000227
C86	C	-0.323407	0.979895	0.499773
C87	C	-0.872700	0.450151	-0.044098
C88	C	-0.372700	0.950151	0.455902
C89	C	-0.873768	0.377706	-0.044093
C90	C	-0.373768	0.877706	0.455907
C91	C	-0.825538	0.335003	-0.000216
C92	C	-0.325538	0.835003	0.499784
C93	C	-0.885349	0.603143	-0.000252
C94	C	-0.385349	1.103143	0.499748
C95	C	-0.884280	0.675591	-0.000269
C96	C	-0.384280	1.175591	0.499731
C97	C	-0.757012	0.658640	-0.000238
C98	C	-0.257012	1.158640	0.499762
C99	C	-0.758083	0.586194	-0.000229
C100	C	-0.258083	1.086194	0.499771
C101	C	-0.822253	0.558449	-0.000233
C102	C	-0.322253	1.058449	0.499767
N103	N	-0.824505	-0.092555	-0.178381
N104	N	-0.324505	0.407445	0.321619
C105	C	-0.872086	-0.045202	0.217312
C106	C	-0.372086	0.454798	0.717312
C107	C	-0.872090	-0.045199	0.296114
C108	C	-0.372090	0.454801	0.796114
C109	C	-0.824471	-0.092549	0.335531
C110	C	-0.324471	0.407451	0.835531
C111	C	-0.776832	-0.139895	0.296139
C112	C	-0.276832	0.360105	0.796139
C113	C	-0.776824	-0.139892	0.217339
C114	C	-0.276824	0.360108	0.717339
C115	C	-0.815123	-0.155836	0.460362
C116	C	-0.315123	0.344164	0.960362
C117	C	-0.815136	-0.155840	0.539160
C118	C	-0.315136	0.344160	1.039160
C119	C	-0.824489	-0.092558	0.578577
C120	C	-0.324489	0.407442	1.078577
C121	C	-0.833845	-0.029269	0.539185
C122	C	-0.333845	0.470731	1.039185
C123	C	-0.833838	-0.029266	0.460385
C124	C	-0.333838	0.470734	0.960385
C125	C	-0.824473	-0.092557	0.420976
C126	C	-0.324473	0.407443	0.920976
C127	C	-0.872126	-0.045209	0.703405
C128	C	-0.372126	0.454791	1.203405
C129	C	-0.872125	-0.045204	0.782208
C130	C	-0.372125	0.454796	1.282208
C131	C	-0.776871	-0.139906	0.782232
C132	C	-0.276871	0.360094	1.282232
C133	C	-0.776868	-0.139904	0.703430
C134	C	-0.276868	0.360096	1.203430
C135	C	-0.824500	-0.092556	0.664021
C136	C	-0.324500	0.407444	1.164021
H137	H	-0.597075	-0.211624	-0.000202
H138	H	-0.097075	0.288376	0.499798
H139	H	-0.495886	0.020007	-0.000193
H140	H	0.004114	0.520007	0.499807
H141	H	-0.937601	0.580552	-0.000259
H142	H	-0.437601	1.080552	0.499741
H143	H	-0.051876	0.026521	-0.000317
H144	H	0.448124	0.526521	0.499683
H145	H	-0.628004	0.018077	-0.000149
H146	H	-0.128004	0.518077	0.499851
Cl147	Cl	-0.445061	-0.237484	-0.000225
Cl148	Cl	0.054939	0.262516	0.499775
H149	H	-0.713288	0.102913	-0.000189
H150	H	-0.213288	0.602913	0.499811
Cl151	Cl	-0.165418	-0.233387	-0.000282
Cl152	Cl	0.334582	0.266613	0.499718
H153	H	-0.910877	-0.006646	0.328184
H154	H	-0.410877	0.493354	0.828184
Cl155	Cl	-0.716964	-0.199418	0.345690
Cl156	Cl	-0.216964	0.300582	0.845690
H157	H	-0.020955	-0.203175	-0.000294
H158	H	0.479045	0.296825	0.499706
Cl159	Cl	-0.715638	0.311059	0.098824
Cl160	Cl	-0.215638	0.811059	0.598824
H161	H	-0.738037	-0.178444	0.185274
H162	H	-0.238037	0.321556	0.685274
Cl163	Cl	-0.932004	0.014320	0.831719
Cl164	Cl	-0.432004	0.514320	1.331719
H165	H	-0.183989	0.024585	-0.000245
H166	H	0.316011	0.524585	0.499755
Cl167	Cl	-0.972605	0.121375	-0.000240
Cl168	Cl	-0.472605	0.621375	0.499760
Cl169	Cl	-0.970192	0.284891	-0.000242
Cl170	Cl	-0.470192	0.784891	0.499758
H171	H	-0.911961	0.484923	-0.079829
H172	H	-0.411961	0.984923	0.420171
H173	H	-0.913902	0.353491	-0.079816
H174	H	-0.413902	0.853491	0.420184
Cl175	Cl	-0.845591	0.050293	0.410866
Cl176	Cl	-0.345591	0.550293	0.910866
H177	H	-0.935661	0.711979	-0.000283
H178	H	-0.435661	1.211979	0.499717
Cl179	Cl	-0.676348	0.693522	-0.000223
Cl180	Cl	-0.176348	1.193522	0.499777
H181	H	-0.735051	0.461398	0.079371
H182	H	-0.235051	0.961398	0.579371
Cl183	Cl	-0.678759	0.530007	-0.000211
Cl184	Cl	-0.178759	1.030007	0.499789
Cl185	Cl	-0.682937	0.246635	-0.000190
Cl186	Cl	-0.182937	0.746635	0.499810
Cl187	Cl	-0.931960	0.014323	0.167769
Cl188	Cl	-0.431960	0.514323	0.667769
Cl189	Cl	-0.845610	0.050292	0.588728
Cl190	Cl	-0.345610	0.550292	1.088728
H191	H	-0.910909	-0.006653	0.671316
H192	H	-0.410909	0.493347	1.171316
Cl193	Cl	-0.717001	-0.199427	0.831779
Cl194	Cl	-0.217001	0.300573	1.331779
H195	H	-0.738086	-0.178457	0.671364
H196	H	-0.238086	0.321543	1.171364
H197	H	-0.807522	-0.207373	0.571227
H198	H	-0.307522	0.292627	1.071227
H199	H	-0.807495	-0.207372	0.428275
H200	H	-0.307495	0.292628	0.928275
