data_functionalizedCrystal
_audit_creation_method	'MofGen! by Chris Wilmer'
_symmetry_space_group_name_H-M	'P1'
_symmetry_Int_Tables_number	1
_symmetry_cell_setting	triclinic
loop_
_symmetry_equiv_pos_as_xyz
  x,y,z
_cell_length_a	15.995350
_cell_length_b	14.519709
_cell_length_c	13.596369
_cell_angle_alpha	90.006934
_cell_angle_beta	90.001679
_cell_angle_gamma	83.586260
loop_
_atom_site_label
_atom_site_type_symbol
_atom_site_fract_x
_atom_site_fract_y
_atom_site_fract_z
O1	O	-1.111164	-0.118875	-0.081710
O2	O	-0.861164	0.131125	0.168290
O3	O	-0.611164	0.381125	0.418290
O4	O	-0.361164	0.631125	0.668290
O5	O	-0.867411	-0.133554	-0.081731
O6	O	-0.617411	0.116446	0.168269
O7	O	-0.367411	0.366446	0.418269
O8	O	-0.117411	0.616446	0.668269
O9	O	-0.995750	0.008036	-0.081711
O10	O	-0.745750	0.258036	0.168289
O11	O	-0.495750	0.508036	0.418289
O12	O	-0.245750	0.758036	0.668289
O13	O	-0.982825	-0.260464	-0.081730
O14	O	-0.732825	-0.010464	0.168270
O15	O	-0.482825	0.239536	0.418270
O16	O	-0.232825	0.489536	0.668270
O17	O	-0.995738	0.008043	0.081872
O18	O	-0.745738	0.258043	0.331872
O19	O	-0.495738	0.508043	0.581872
O20	O	-0.245738	0.758043	0.831872
O21	O	-0.867398	-0.133546	0.081852
O22	O	-0.617398	0.116454	0.331852
O23	O	-0.367398	0.366454	0.581852
O24	O	-0.117398	0.616454	0.831852
O25	O	-1.111152	-0.118867	0.081873
O26	O	-0.861152	0.131133	0.331873
O27	O	-0.611152	0.381133	0.581873
O28	O	-0.361152	0.631133	0.831873
Zn29	Zn	-0.989273	-0.126206	0.107835
Zn30	Zn	-0.739273	0.123794	0.357835
Zn31	Zn	-0.489273	0.373794	0.607835
Zn32	Zn	-0.239273	0.623794	0.857835
Zn33	Zn	-0.989290	-0.126215	-0.107693
Zn34	Zn	-0.739290	0.123785	0.142307
Zn35	Zn	-0.489290	0.373785	0.392307
Zn36	Zn	-0.239290	0.623785	0.642307
O37	O	-0.982812	-0.260457	0.081853
O38	O	-0.732812	-0.010457	0.331853
O39	O	-0.482812	0.239543	0.581853
O40	O	-0.232812	0.489543	0.831853
C41	C	-0.836209	-0.132943	0.000058
C42	C	-0.586209	0.117057	0.250058
C43	C	-0.336209	0.367057	0.500058
C44	C	-0.086209	0.617057	0.750058
C45	C	-0.743256	-0.131124	0.000051
C46	C	-0.493256	0.118876	0.250051
C47	C	-0.243256	0.368876	0.500051
C48	C	0.006744	0.618876	0.750051
C49	C	-0.995142	0.042398	0.000081
C50	C	-0.745142	0.292398	0.250081
C51	C	-0.495142	0.542398	0.500081
C52	C	-0.245142	0.792398	0.750081
C53	C	-0.993337	0.144776	0.000081
C54	C	-0.743337	0.394776	0.250081
C55	C	-0.493337	0.644776	0.500081
C56	C	-0.243337	0.894776	0.750081
C57	C	-1.142354	-0.119478	0.000082
C58	C	-0.892354	0.130522	0.250082
C59	C	-0.642354	0.380522	0.500082
C60	C	-0.392354	0.630522	0.750082
C61	C	-1.235307	-0.121297	0.000083
C62	C	-0.985307	0.128703	0.250083
C63	C	-0.735307	0.378703	0.500083
C64	C	-0.485307	0.628703	0.750083
C65	C	-0.405499	-0.124590	0.000072
C66	C	-0.155499	0.125410	0.250072
C67	C	0.094501	0.375410	0.500072
C68	C	0.344501	0.625410	0.750072
C69	C	-0.452782	-0.023752	0.000444
C70	C	-0.202782	0.226248	0.250444
C71	C	0.047218	0.476248	0.500444
C72	C	0.297218	0.726248	0.750444
C73	C	-0.549475	-0.025572	0.000068
C74	C	-0.299475	0.224428	0.250068
C75	C	-0.049475	0.474428	0.500068
C76	C	0.200525	0.724428	0.750068
C77	C	-0.573064	-0.127831	0.000062
C78	C	-0.323064	0.122169	0.250062
C79	C	-0.073064	0.372169	0.500062
C80	C	0.176936	0.622169	0.750062
C81	C	-0.532059	-0.177572	-0.093352
C82	C	-0.282059	0.072428	0.156648
C83	C	-0.032059	0.322428	0.406648
C84	C	0.217941	0.572428	0.656648
C85	C	-0.435419	-0.175039	-0.093423
C86	C	-0.185419	0.074961	0.156577
C87	C	0.064581	0.324961	0.406577
C88	C	0.314581	0.574961	0.656577
C89	C	-0.435069	-0.177114	0.092601
C90	C	-0.185069	0.072886	0.342601
C91	C	0.064931	0.322886	0.592601
C92	C	0.314931	0.572886	0.842601
C93	C	-0.532014	-0.177090	0.093829
C94	C	-0.282014	0.072910	0.343829
C95	C	-0.032014	0.322910	0.593829
C96	C	0.217986	0.572910	0.843829
C97	C	-0.667764	-0.129668	0.000053
C98	C	-0.417764	0.120332	0.250053
C99	C	-0.167764	0.370332	0.500053
C100	C	0.082236	0.620332	0.750053
C101	C	-0.310798	-0.122756	0.000074
C102	C	-0.060798	0.127244	0.250074
C103	C	0.189202	0.377244	0.500074
C104	C	0.439202	0.627244	0.750074
C105	C	-0.983421	-0.294819	0.000059
C106	C	-0.733421	-0.044819	0.250059
C107	C	-0.483421	0.205181	0.500059
C108	C	-0.233421	0.455181	0.750059
C109	C	-0.985226	-0.397197	0.000052
C110	C	-0.735226	-0.147197	0.250052
C111	C	-0.485226	0.102803	0.500052
C112	C	-0.235226	0.352803	0.750052
N113	N	-0.989267	-0.126198	0.254927
N114	N	-0.739267	0.123802	0.504927
N115	N	-0.489267	0.373802	0.754927
N116	N	-0.239267	0.623802	1.004927
C117	C	-0.986691	0.519660	0.000055
C118	C	-0.736691	0.769660	0.250055
C119	C	-0.486691	1.019660	0.500055
C120	C	-0.236691	1.269660	0.750055
C121	C	-0.988537	0.415355	0.000062
C122	C	-0.738537	0.665355	0.250062
C123	C	-0.488537	0.915355	0.500062
C124	C	-0.238537	1.165355	0.750062
C125	C	-0.990014	0.332221	0.000069
C126	C	-0.740014	0.582221	0.250069
C127	C	-0.490014	0.832221	0.500069
C128	C	-0.240014	1.082221	0.750069
C129	C	-0.991859	0.227910	0.000075
C130	C	-0.741859	0.477910	0.250075
C131	C	-0.491859	0.727910	0.500075
C132	C	-0.241859	0.977910	0.750075
N133	N	-0.989302	-0.126215	-0.254785
N134	N	-0.739302	0.123785	-0.004785
N135	N	-0.489302	0.373785	0.245215
N136	N	-0.239302	0.623785	0.495215
C137	C	-0.989289	-0.126216	0.656218
C138	C	-0.739289	0.123784	0.906218
C139	C	-0.489289	0.373784	1.156218
C140	C	-0.239289	0.623784	1.406218
C141	C	-0.989280	-0.126215	0.544566
C142	C	-0.739280	0.123785	0.794566
C143	C	-0.489280	0.373785	1.044566
C144	C	-0.239280	0.623785	1.294566
C145	C	-0.989278	-0.126208	0.455576
C146	C	-0.739278	0.123792	0.705576
C147	C	-0.489278	0.373792	0.955576
C148	C	-0.239278	0.623792	1.205576
C149	C	-0.989269	-0.126205	0.343917
C150	C	-0.739269	0.123795	0.593917
C151	C	-0.489269	0.373795	0.843917
C152	C	-0.239269	0.623795	1.093917
H153	H	-0.577840	0.013526	0.067031
H154	H	-0.327840	0.263526	0.317031
H155	H	-0.077840	0.513526	0.567031
H156	H	0.172160	0.763526	0.817031
F157	F	-0.408160	-0.134018	0.185150
F158	F	-0.158160	0.115982	0.435150
F159	F	0.091840	0.365982	0.685150
F160	F	0.341840	0.615982	0.935150
F161	F	-0.567557	-0.129555	0.184156
F162	F	-0.317557	0.120445	0.434156
F163	F	-0.067557	0.370445	0.684156
F164	F	0.182443	0.620445	0.934156
F165	F	-0.393411	-0.271804	-0.098970
F166	F	-0.143411	-0.021804	0.151030
F167	F	0.106589	0.228196	0.401030
F168	F	0.356589	0.478196	0.651030
F169	F	-0.428482	0.028936	0.088006
F170	F	-0.178482	0.278936	0.338006
F171	F	0.071518	0.528936	0.588006
F172	F	0.321518	0.778936	0.838006
F173	F	-0.550687	-0.275761	-0.097916
F174	F	-0.300687	-0.025761	0.152084
F175	F	-0.050687	0.224239	0.402084
F176	F	0.199313	0.474239	0.652084
F177	F	-0.427096	0.028691	-0.086622
F178	F	-0.177096	0.278691	0.163378
F179	F	0.072904	0.528691	0.413378
F180	F	0.322904	0.778691	0.663378
H181	H	-0.577279	0.013785	-0.067006
H182	H	-0.327279	0.263785	0.182994
H183	H	-0.077279	0.513785	0.432994
H184	H	0.172721	0.763785	0.682994
F185	F	-0.569083	-0.132425	-0.184216
F186	F	-0.319083	0.117575	0.065784
F187	F	-0.069083	0.367575	0.315784
F188	F	0.180917	0.617575	0.565784
F189	F	-0.411422	-0.127635	-0.184687
F190	F	-0.161422	0.122365	0.065313
F191	F	0.088578	0.372365	0.315313
F192	F	0.338578	0.622365	0.565313
H193	H	-0.547490	-0.251660	0.099467
H194	H	-0.297490	-0.001660	0.349467
H195	H	-0.047490	0.248340	0.599467
H196	H	0.202510	0.498340	0.849467
H197	H	-0.403419	-0.251460	0.093229
H198	H	-0.153419	-0.001460	0.343229
H199	H	0.096581	0.248540	0.593229
H200	H	0.346581	0.498540	0.843229
