data_functionalizedCrystal
_audit_creation_method	'MofGen! by Chris Wilmer'
_symmetry_space_group_name_H-M	'P1'
_symmetry_Int_Tables_number	1
_symmetry_cell_setting	triclinic
loop_
_symmetry_equiv_pos_as_xyz
  x,y,z
_cell_length_a	12.759401
_cell_length_b	12.759399
_cell_length_c	12.759393
_cell_angle_alpha	90.029334
_cell_angle_beta	90.019596
_cell_angle_gamma	90.016023
loop_
_atom_site_label
_atom_site_type_symbol
_atom_site_fract_x
_atom_site_fract_y
_atom_site_fract_z
Zn1	Zn	1.606259	-0.418208	0.593991
Zn2	Zn	1.606147	-0.593923	0.418315
Zn3	Zn	1.430557	-0.418260	0.418330
Zn4	Zn	1.430546	-0.593846	0.593956
O5	O	1.518377	-0.506059	0.506148
O6	O	1.753265	-0.441527	0.570695
O7	O	1.582812	-0.570675	0.271296
O8	O	1.453916	-0.271232	0.441653
O9	O	1.753182	-0.570625	0.441627
O10	O	1.583003	-0.271194	0.570710
O11	O	1.453808	-0.441616	0.271307
O12	O	1.283535	-0.441541	0.441619
O13	O	1.453897	-0.570493	0.740982
O14	O	1.283527	-0.570544	0.570651
O15	O	1.582992	-0.441452	0.741007
O16	O	1.582801	-0.740934	0.441593
O17	O	1.453788	-0.740877	0.570636
C18	C	1.245410	-0.506040	0.506134
C19	C	1.128633	-0.506058	0.506152
C20	C	0.964063	-0.573347	0.573240
C21	C	1.073787	-0.573336	0.573229
C22	C	1.073749	-0.438795	0.439074
C23	C	0.964027	-0.438812	0.439080
C24	C	1.518310	-0.779027	0.506132
C25	C	1.518377	-0.895803	0.506160
C26	C	1.451190	-0.950674	0.573304
C27	C	1.451256	-1.060398	0.573324
C28	C	1.585705	-1.060371	0.439053
C29	C	1.585633	-0.950649	0.439028
C30	C	1.327429	-1.210436	0.610790
C31	C	1.260251	-1.265310	0.677950
C32	C	1.244045	-1.229639	0.780443
C33	C	1.295033	-1.139096	0.815796
C34	C	1.362218	-1.084227	0.748641
C35	C	1.378404	-1.119896	0.646134
C36	C	1.709461	-0.800609	0.401573
C37	C	1.776653	-0.745738	0.334423
C38	C	1.792869	-0.781407	0.231929
C39	C	1.741901	-0.871954	0.196579
C40	C	1.674709	-0.926825	0.263729
C41	C	1.658490	-0.891148	0.366223
C42	C	1.792410	-0.506079	0.506163
C43	C	1.909187	-0.506087	0.506170
C44	C	1.518456	-0.505958	0.780181
C45	C	1.518489	-0.505915	0.896958
C46	C	1.518474	-0.232026	0.506187
C47	C	1.518515	-0.115249	0.506204
C48	C	1.518359	-0.506084	0.233181
C49	C	1.518529	-0.505831	0.116404
C50	C	1.585714	-0.438713	0.951835
C51	C	1.585732	-0.438668	1.061559
C52	C	1.451297	-0.573036	1.061520
C53	C	1.451275	-0.573075	0.951798
H54	H	1.118463	-0.628107	0.627844
H55	H	1.118414	-0.384020	0.384454
H56	H	1.403732	-1.010509	0.777425
O57	O	1.650933	-0.373419	1.115029
C58	C	1.636558	-0.387794	1.223633
H59	H	1.555469	-0.422192	1.238601
H60	H	1.643716	-0.309080	1.265340
H61	H	1.698862	-0.443732	1.254778
H62	H	1.281841	-1.110066	0.899260
O63	O	1.343055	-1.244932	0.511152
C64	C	1.311456	-1.166783	0.439743
H65	H	1.252541	-1.112447	0.479215
H66	H	1.273532	-1.205129	0.368472
H67	H	1.382740	-1.119580	0.413798
H68	H	1.218737	-1.339032	0.649156
O69	O	1.650884	-0.373318	0.898612
C70	C	1.627978	-0.268598	0.925461
H71	H	1.544053	-0.263281	0.955609
H72	H	1.637033	-0.216715	0.853315
H73	H	1.684325	-0.241118	0.989165
O74	O	1.178718	-1.283039	0.845532
C75	C	1.137218	-1.370616	0.792363
H76	H	1.140705	-1.356389	0.704236
H77	H	1.052290	-1.383035	0.817155
H78	H	1.185097	-1.443240	0.812705
H79	H	1.396576	-0.627718	1.106183
H80	H	1.396425	-0.906021	0.627964
O81	O	0.910953	-0.638796	0.638439
C82	C	0.982923	-0.698138	0.697655
H83	H	1.061116	-0.701716	0.654607
H84	H	0.951214	-0.780933	0.708729
H85	H	0.994634	-0.659754	0.777510
O86	O	0.910876	-0.373372	0.373891
C87	C	0.982805	-0.314002	0.314663
H88	H	1.061037	-0.310396	0.357695
H89	H	0.951102	-0.231218	0.303597
H90	H	0.994438	-0.352380	0.234805
H91	H	1.640463	-1.105040	0.384398
O92	O	1.625238	-1.014736	0.229210
C93	C	1.653978	-1.034474	0.124354
H94	H	1.681586	-0.958523	0.086287
H95	H	1.583485	-1.066343	0.079601
H96	H	1.720099	-1.094517	0.122383
H97	H	1.755110	-0.901001	0.113122
H98	H	1.847586	-0.736722	0.177257
H99	H	1.818156	-0.672011	0.363215
H100	H	1.696245	-0.771546	0.485027
O101	O	1.385937	-0.638461	0.898645
C102	C	1.326605	-0.697718	0.970574
H103	H	1.369649	-0.701336	1.048794
H104	H	1.315361	-0.780504	0.938852
H105	H	1.246829	-0.659233	0.982237
