data_functionalizedCrystal
_audit_creation_method	'MofGen! by Chris Wilmer'
_symmetry_space_group_name_H-M	'P1'
_symmetry_Int_Tables_number	1
_symmetry_cell_setting	triclinic
loop_
_symmetry_equiv_pos_as_xyz
  x,y,z
_cell_length_a	8.559649
_cell_length_b	9.065218
_cell_length_c	7.540329
_cell_angle_alpha	90.003038
_cell_angle_beta	89.998238
_cell_angle_gamma	102.602725
loop_
_atom_site_label
_atom_site_type_symbol
_atom_site_fract_x
_atom_site_fract_y
_atom_site_fract_z
O1	O	0.233903	-1.931006	-0.147477
O2	O	0.253089	-1.499311	-0.147479
O3	O	0.011444	-1.753191	-0.147476
O4	O	0.475547	-1.677126	-0.147480
O5	O	0.011441	-1.753178	0.147489
O6	O	0.253085	-1.499298	0.147486
O7	O	0.233900	-1.930993	0.147488
Cu8	Cu	0.243492	-1.715144	0.174419
Cu9	Cu	0.243496	-1.715160	-0.174411
O10	O	0.475544	-1.677113	0.147485
C11	C	0.251243	-1.444549	0.000003
C12	C	0.245730	-1.281399	0.000002
C13	C	-0.048004	-1.758949	0.000003
C14	C	-0.225136	-1.776108	-0.000007
N15	N	0.243489	-1.715144	0.419768
C16	C	0.534992	-1.671355	0.000002
C17	C	0.712124	-1.654196	-0.000000
C18	C	0.235745	-1.985755	0.000002
C19	C	0.241258	-2.148905	-0.000009
N20	N	0.243487	-1.715173	-0.419759
H21	H	-0.206080	-1.536695	0.000005
F22	F	-0.332055	-1.929702	0.000015
