data_functionalizedCrystal
_audit_creation_method	'MofGen! by Chris Wilmer'
_symmetry_space_group_name_H-M	'P1'
_symmetry_Int_Tables_number	1
_symmetry_cell_setting	triclinic
loop_
_symmetry_equiv_pos_as_xyz
  x,y,z
_cell_length_a	16.625548
_cell_length_b	12.645330
_cell_length_c	16.625539
_cell_angle_alpha	89.975749
_cell_angle_beta	89.979432
_cell_angle_gamma	90.018760
loop_
_atom_site_label
_atom_site_type_symbol
_atom_site_fract_x
_atom_site_fract_y
_atom_site_fract_z
Zn1	Zn	1.232707	-0.422007	-0.455932
Zn2	Zn	1.732707	0.077993	0.044068
Zn3	Zn	1.232622	-0.599293	-0.321109
Zn4	Zn	1.732622	-0.099293	0.178891
Zn5	Zn	1.097869	-0.422048	-0.321113
Zn6	Zn	1.597869	0.077952	0.178887
Zn7	Zn	1.097851	-0.599232	-0.455899
Zn8	Zn	1.597851	-0.099232	0.044101
O9	O	1.165262	-0.510645	-0.388513
O10	O	1.665262	-0.010645	0.111487
O11	O	1.345528	-0.445533	-0.438060
O12	O	1.845528	0.054467	0.061940
O13	O	1.214718	-0.575824	-0.208277
O14	O	1.714718	-0.075824	0.291723
O15	O	1.115799	-0.273695	-0.339012
O16	O	1.615799	0.226305	0.160988
O17	O	1.345465	-0.575784	-0.339006
O18	O	1.845465	-0.075784	0.160994
O19	O	1.214864	-0.273665	-0.438064
O20	O	1.714864	0.226335	0.061936
O21	O	1.115716	-0.445602	-0.208280
O22	O	1.615716	0.054398	0.291720
O23	O	0.985034	-0.445543	-0.338980
O24	O	1.485034	0.054457	0.161020
O25	O	1.115768	-0.575681	-0.568736
O26	O	1.615768	-0.075681	-0.068736
O27	O	0.985021	-0.575720	-0.438007
O28	O	1.485021	-0.075720	0.061993
O29	O	1.214846	-0.445474	-0.568760
O30	O	1.714846	0.054526	-0.068760
O31	O	1.214701	-0.747632	-0.338973
O32	O	1.714701	-0.247632	0.161027
O33	O	1.115685	-0.747588	-0.438003
O34	O	1.615685	-0.247588	0.061997
C35	C	0.955771	-0.510630	-0.388491
C36	C	1.455771	-0.010630	0.111509
C37	C	0.866150	-0.510649	-0.388500
C38	C	1.366150	-0.010649	0.111500
C39	C	0.537975	-0.510656	-0.388534
C40	C	1.037975	-0.010656	0.111466
C41	C	0.629283	-0.510651	-0.388522
C42	C	1.129283	-0.010651	0.111478
C43	C	0.702059	-0.510653	-0.388517
C44	C	1.202059	-0.010653	0.111483
C45	C	0.793374	-0.510647	-0.388506
C46	C	1.293374	-0.010647	0.111494
C47	C	1.165203	-0.786075	-0.388502
C48	C	1.665203	-0.286075	0.111498
C49	C	1.165252	-0.903905	-0.388524
C50	C	1.665252	-0.403905	0.111476
C51	C	1.103218	-1.071485	-0.451015
C52	C	1.603218	-0.571485	0.048985
C53	C	1.102901	-0.948925	-0.450815
C54	C	1.602901	-0.448925	0.049185
C55	C	1.142250	-0.948498	-0.303549
C56	C	1.642250	-0.448498	0.196451
C57	C	1.141872	-1.071097	-0.303928
C58	C	1.641872	-0.571097	0.196072
C59	C	1.250667	-1.070992	-0.410318
C60	C	1.750667	-0.570992	0.089682
C61	C	1.250144	-0.948386	-0.412177
C62	C	1.750144	-0.448386	0.087823
C63	C	1.375571	-0.510661	-0.388536
C64	C	1.875571	-0.010661	0.111464
C65	C	1.465192	-0.510668	-0.388546
C66	C	1.965192	-0.010668	0.111454
C67	C	1.165315	-0.510566	-0.598822
C68	C	1.665315	-0.010566	-0.098822
C69	C	1.165337	-0.510533	-0.688443
C70	C	1.665337	-0.010533	-0.188443
C71	C	1.165343	-0.234140	-0.388542
C72	C	1.665343	0.265860	0.111458
C73	C	1.165378	-0.116310	-0.388554
C74	C	1.665378	0.383690	0.111446
C75	C	1.165374	-0.510414	-1.016619
C76	C	1.665374	-0.010414	-0.516619
C77	C	1.165362	-0.510450	-0.925311
C78	C	1.665362	-0.010450	-0.425311
C79	C	1.165356	-0.510474	-0.852534
C80	C	1.665356	-0.010474	-0.352534
C81	C	1.165343	-0.510509	-0.761220
C82	C	1.665343	-0.010509	-0.261220
C83	C	1.165256	-0.510647	-0.179022
C84	C	1.665256	-0.010647	0.320978
C85	C	1.165390	-0.510382	-0.089402
C86	C	1.665390	-0.010382	0.410598
H87	H	1.117292	-0.918772	-0.513823
H88	H	1.617292	-0.418772	-0.013823
H89	H	1.267490	-0.919236	-0.474714
H90	H	1.767490	-0.419236	0.025286
C91	C	1.158218	-1.172641	-0.182968
C92	C	1.658218	-0.672641	0.317032
C93	C	1.200346	-1.111166	-0.238981
C94	C	1.700346	-0.611166	0.261019
H95	H	1.194321	-1.197386	-0.142882
H96	H	1.694321	-0.697386	0.357118
H97	H	1.117458	-1.130977	-0.158524
H98	H	1.617458	-0.630977	0.341476
H99	H	1.134314	-1.231264	-0.209510
H100	H	1.634314	-0.731264	0.290490
H101	H	1.224244	-1.052539	-0.212439
H102	H	1.724244	-0.552539	0.287561
H103	H	1.241120	-1.152832	-0.263427
H104	H	1.741120	-0.652832	0.236573
H105	H	1.079525	-1.099789	-0.285491
H106	H	1.579525	-0.599789	0.214509
C107	C	1.372831	-1.168157	-0.388747
C108	C	1.872831	-0.668157	0.111253
C109	C	1.313193	-1.110122	-0.348914
C110	C	1.813193	-0.610122	0.151086
H111	H	1.411430	-1.192310	-0.350838
H112	H	1.911430	-0.692310	0.149162
H113	H	1.349017	-1.227110	-0.414928
H114	H	1.849017	-0.727110	0.085072
H115	H	1.398502	-1.124399	-0.427483
H116	H	1.898502	-0.624399	0.072517
H117	H	1.287518	-1.153882	-0.310183
H118	H	1.787518	-0.653882	0.189817
H119	H	1.337010	-1.051160	-0.322721
H120	H	1.837010	-0.551160	0.177279
H121	H	1.117477	-1.100897	-0.514231
H122	H	1.617477	-0.600897	-0.014231
H123	H	1.039671	-0.919692	-0.436396
H124	H	1.539671	-0.419692	0.063604
H125	H	1.298894	-0.917733	-0.369996
H126	H	1.798894	-0.417733	0.130004
H127	H	1.080553	-0.917888	-0.284778
H128	H	1.580553	-0.417888	0.215222
C129	C	0.989230	-1.170687	-0.497590
C130	C	1.489230	-0.670687	0.002410
C131	C	1.018393	-1.113200	-0.431802
C132	C	1.518393	-0.613200	0.068198
H133	H	0.936865	-1.196448	-0.485722
H134	H	1.436865	-0.696448	0.014278
H135	H	0.986953	-1.126062	-0.543501
H136	H	1.486953	-0.626062	-0.043501
H137	H	1.024087	-1.228550	-0.508154
H138	H	1.524087	-0.728550	-0.008154
H139	H	0.983538	-1.055332	-0.421242
H140	H	1.483538	-0.555332	0.078758
H141	H	1.020664	-1.157828	-0.385877
H142	H	1.520664	-0.657828	0.114123
C143	C	1.179321	-0.950329	-0.163988
C144	C	1.679321	-0.450329	0.336012
C145	C	1.201451	-0.909184	-0.239007
C146	C	1.701451	-0.409184	0.260993
H147	H	1.215881	-0.926075	-0.124148
H148	H	1.715881	-0.426075	0.375852
H149	H	1.126507	-0.927435	-0.150909
H150	H	1.626507	-0.427435	0.349091
H151	H	1.180579	-1.025383	-0.166027
H152	H	1.680579	-0.525383	0.333973
H153	H	1.200187	-0.834129	-0.236969
H154	H	1.700187	-0.334129	0.263031
H155	H	1.254279	-0.932072	-0.252089
H156	H	1.754279	-0.432072	0.247911
C157	C	1.224258	-1.081664	-0.552052
C158	C	1.724258	-0.581664	-0.052052
C159	C	1.278997	-1.112617	-0.492548
C160	C	1.778997	-0.612617	0.007452
H161	H	1.241747	-1.107357	-0.602819
H162	H	1.741747	-0.607357	-0.102819
H163	H	1.172701	-1.109961	-0.540059
H164	H	1.672701	-0.609961	-0.040059
H165	H	1.221216	-1.006678	-0.553640
H166	H	1.721216	-0.506678	-0.053640
H167	H	1.282036	-1.187604	-0.490956
H168	H	1.782036	-0.687604	0.009044
H169	H	1.330569	-1.084325	-0.504544
H170	H	1.830569	-0.584325	-0.004544
