data_functionalizedCrystal
_audit_creation_method	'MofGen! by Chris Wilmer'
_symmetry_space_group_name_H-M	'P1'
_symmetry_Int_Tables_number	1
_symmetry_cell_setting	triclinic
loop_
_symmetry_equiv_pos_as_xyz
  x,y,z
_cell_length_a	14.971482
_cell_length_b	14.519731
_cell_length_c	14.048226
_cell_angle_alpha	89.992586
_cell_angle_beta	89.994098
_cell_angle_gamma	83.650731
loop_
_atom_site_label
_atom_site_type_symbol
_atom_site_fract_x
_atom_site_fract_y
_atom_site_fract_z
O1	O	1.187026	0.120166	-0.079150
O2	O	0.926634	0.134562	-0.079155
O3	O	1.063724	-0.006877	-0.079144
O4	O	1.049936	0.261605	-0.079162
O5	O	1.063707	-0.006886	0.079177
O6	O	0.926618	0.134553	0.079166
O7	O	1.187009	0.120158	0.079171
Zn8	Zn	1.056811	0.127354	0.104305
Zn9	Zn	1.056832	0.127365	-0.104290
O10	O	1.049919	0.261597	0.079160
C11	C	0.893301	0.133915	0.000005
C12	C	0.794002	0.131987	0.000003
C13	C	0.747348	0.131075	0.086305
C14	C	0.654048	0.129249	0.086306
C15	C	0.607404	0.128342	0.000005
C16	C	0.654065	0.129252	-0.086304
C17	C	0.747364	0.131071	-0.086304
C18	C	0.459601	0.125462	-0.086298
C19	C	0.366295	0.123645	-0.086298
C20	C	0.366285	0.123640	0.086313
C21	C	0.459584	0.125460	0.086313
C22	C	0.506238	0.126371	0.000004
C23	C	1.063069	-0.041241	0.000017
C24	C	1.061134	-0.143620	0.000017
C25	C	1.059560	-0.226763	0.000015
C26	C	1.057595	-0.331070	0.000008
C27	C	1.056035	-0.414208	0.000002
C28	C	1.054070	-0.518523	-0.000004
C29	C	1.220342	0.120805	0.000009
C30	C	1.319641	0.122733	0.000004
C31	C	1.050574	0.295960	-0.000003
C32	C	1.052510	0.398339	-0.000010
N33	N	1.056802	0.127346	0.246666
N34	N	1.056848	0.127366	-0.246650
C35	C	1.117525	0.064743	0.296489
C36	C	1.117531	0.064742	0.396147
C37	C	1.056818	0.127350	0.445980
C38	C	0.996089	0.189957	0.396150
C39	C	0.996079	0.189952	0.296494
C40	C	0.996115	0.189963	0.603864
C41	C	0.996125	0.189970	0.703527
C42	C	1.117566	0.064754	0.703517
C43	C	1.117557	0.064749	0.603861
C44	C	1.056829	0.127357	0.554038
H45	H	0.328320	0.122907	-0.156573
H46	H	0.616080	0.128507	-0.156573
Br47	Br	0.913692	0.274929	0.536250
H48	H	1.166998	0.013774	0.563287
Br49	Br	1.199932	-0.020224	0.228869
H50	H	0.328295	0.122899	0.156589
H51	H	1.166975	0.013765	0.436712
H52	H	0.497584	0.126205	-0.156580
Br53	Br	0.810683	0.132301	-0.203433
Br54	Br	1.199985	-0.020208	0.771137
Br55	Br	0.913684	0.274921	0.463776
H56	H	0.946686	0.240950	0.744095
H57	H	0.785318	0.131821	0.156582
Br58	Br	0.590733	0.128026	0.203436
Br59	Br	0.913661	0.274912	0.228877
Br60	Br	0.522886	0.126704	0.203438
