data_functionalizedCrystal
_audit_creation_method	'MofGen! by Chris Wilmer'
_symmetry_space_group_name_H-M	'P1'
_symmetry_Int_Tables_number	1
_symmetry_cell_setting	triclinic
loop_
_symmetry_equiv_pos_as_xyz
  x,y,z
_cell_length_a	16.109301
_cell_length_b	17.699083
_cell_length_c	14.586319
_cell_angle_alpha	89.995320
_cell_angle_beta	89.999213
_cell_angle_gamma	83.372248
loop_
_atom_site_label
_atom_site_type_symbol
_atom_site_fract_x
_atom_site_fract_y
_atom_site_fract_z
O1	O	1.102963	0.097285	-0.076184
O2	O	1.602963	0.597285	0.423816
O3	O	0.860880	0.109391	-0.076199
O4	O	1.360880	0.609391	0.423801
O5	O	0.988761	-0.006841	-0.076183
O6	O	1.488761	0.493159	0.423817
O7	O	0.975082	0.213517	-0.076200
O8	O	1.475082	0.713517	0.423800
O9	O	0.988752	-0.006843	0.076298
O10	O	1.488752	0.493157	0.576298
O11	O	0.860872	0.109390	0.076282
O12	O	1.360872	0.609390	0.576282
O13	O	1.102954	0.097283	0.076297
O14	O	1.602954	0.597283	0.576297
Cu15	Cu	0.981912	0.103336	0.090212
Cu16	Cu	1.481912	0.603336	0.590212
Cu17	Cu	0.981923	0.103338	-0.090114
Cu18	Cu	1.481923	0.603338	0.409886
O19	O	0.975074	0.213516	0.076281
O20	O	1.475074	0.713516	0.576281
C21	C	0.829902	0.108900	0.000040
C22	C	1.329902	0.608900	0.500040
C23	C	0.737609	0.107430	0.000034
C24	C	1.237609	0.607430	0.500034
C25	C	0.515224	0.172981	0.000040
C26	C	1.015224	0.672981	0.500040
C27	C	0.428506	0.171594	0.000046
C28	C	0.928506	0.671594	0.500046
C29	C	0.448618	0.033688	0.000053
C30	C	0.948618	0.533688	0.500053
C31	C	0.535334	0.035076	0.000053
C32	C	1.035334	0.535076	0.500053
C33	C	0.568635	0.104725	0.000042
C34	C	1.068635	0.604725	0.500042
C35	C	0.395200	0.101949	0.000047
C36	C	0.895200	0.601949	0.500047
C37	C	0.301177	0.100445	0.000054
C38	C	0.801177	0.600445	0.500054
C39	C	0.662664	0.106230	0.000037
C40	C	1.162664	0.606230	0.500037
C41	C	0.988267	-0.035040	0.000057
C42	C	1.488267	0.464960	0.500057
C43	C	0.986796	-0.119060	0.000058
C44	C	1.486796	0.380940	0.500058
C45	C	1.061860	-0.167574	0.000064
C46	C	1.561860	0.332426	0.500064
C47	C	1.060473	-0.246519	0.000055
C48	C	1.560473	0.253481	0.500055
C49	C	0.984022	-0.276949	0.000048
C50	C	1.484022	0.223051	0.500048
C51	C	0.908953	-0.228429	0.000039
C52	C	1.408953	0.271571	0.500039
C53	C	0.910341	-0.149485	0.000041
C54	C	1.410341	0.350515	0.500041
C55	C	0.903356	-0.546800	0.000031
C56	C	1.403356	-0.046800	0.500031
C57	C	0.901974	-0.625750	0.000033
C58	C	1.401974	-0.125750	0.500033
C59	C	1.053488	-0.643834	0.000046
C60	C	1.553488	-0.143834	0.500046
C61	C	1.054876	-0.564890	0.000048
C62	C	1.554876	-0.064890	0.500048
C63	C	0.979807	-0.516377	0.000034
C64	C	1.479807	-0.016377	0.500034
C65	C	0.981312	-0.430776	0.000041
C66	C	1.481312	0.069224	0.500041
C67	C	0.982517	-0.362549	0.000047
C68	C	1.482517	0.137451	0.500047
C69	C	1.133933	0.097774	0.000056
C70	C	1.633933	0.597774	0.500056
C71	C	1.226226	0.099244	0.000055
C72	C	1.726226	0.599244	0.500055
C73	C	0.975568	0.241714	0.000038
C74	C	1.475568	0.741714	0.500038
C75	C	0.977039	0.325734	0.000032
C76	C	1.477039	0.825734	0.500032
N77	N	0.981911	0.103334	0.217044
N78	N	1.481911	0.603334	0.717044
N79	N	0.981931	0.103334	-0.216946
N80	N	1.481931	0.603334	0.283054
C81	C	1.038555	0.051884	0.452057
C82	C	1.538555	0.551884	0.952057
C83	C	1.038558	0.051882	0.548038
C84	C	1.538558	0.551882	1.048038
C85	C	0.925280	0.154787	0.548034
C86	C	1.425280	0.654787	1.048034
C87	C	0.925274	0.154785	0.452054
C88	C	1.425274	0.654785	0.952054
C89	C	0.981917	0.103334	0.404068
C90	C	1.481917	0.603334	0.904068
C91	C	0.981925	0.103334	0.596029
C92	C	1.481925	0.603334	1.096029
C93	C	0.981927	0.103333	0.700096
C94	C	1.481927	0.603333	1.200096
C95	C	0.981914	0.103334	0.299995
C96	C	1.481914	0.603334	0.799995
H97	H	0.578824	-0.020510	0.000058
H98	H	1.078824	0.479490	0.500058
H99	H	0.542334	0.229694	0.000038
H100	H	1.042334	0.729694	0.500038
H101	H	0.846705	-0.253211	0.000027
H102	H	1.346705	0.246789	0.500027
C103	C	0.439067	-0.084279	-0.078329
C104	C	0.939067	0.415721	0.421671
C105	C	0.412012	-0.042869	0.000053
C106	C	0.912012	0.457131	0.500053
H107	H	0.416472	-0.131544	-0.078327
H108	H	0.916472	0.368456	0.421673
H109	H	0.420722	-0.056172	-0.131493
H110	H	0.920722	0.443828	0.368507
H111	H	0.498357	-0.093215	-0.078316
H112	H	0.998357	0.406785	0.421684
H113	H	0.352722	-0.033928	0.000036
H114	H	0.852722	0.466072	0.500036
H115	H	0.430352	-0.070982	0.053230
H116	H	0.930352	0.429018	0.553230
C117	C	1.211490	-0.193387	0.000062
C118	C	1.711490	0.306613	0.500062
C119	C	1.145898	-0.134130	0.000065
C120	C	1.645898	0.365870	0.500065
H121	H	1.263372	-0.172740	0.000054
H122	H	1.763372	0.327260	0.500054
H123	H	1.207798	-0.223803	0.053233
H124	H	1.707798	0.276197	0.553233
H125	H	1.207789	-0.223800	-0.053115
H126	H	1.707789	0.276200	0.446885
H127	H	1.149595	-0.103720	0.053246
H128	H	1.649595	0.396280	0.553246
H129	H	1.149592	-0.103701	-0.053111
H130	H	1.649592	0.396299	0.446889
H131	H	0.849216	-0.109986	0.000036
H132	H	1.349216	0.390014	0.500036
H133	H	1.084675	0.009988	0.412989
H134	H	1.584675	0.509988	0.912989
C135	C	0.417343	0.308046	0.000025
C136	C	0.917343	0.808046	0.500025
C137	C	0.369797	0.246624	0.000037
C138	C	0.869797	0.746624	0.500037
H139	H	0.381096	0.354367	0.000014
H140	H	0.881096	0.854367	0.500014
H141	H	0.451581	0.305719	0.053194
H142	H	0.951581	0.805719	0.553194
H143	H	0.451586	0.305712	-0.053153
H144	H	0.951586	0.805712	0.446847
H145	H	0.335558	0.248955	0.053218
H146	H	0.835558	0.748955	0.553218
H147	H	0.335543	0.248952	-0.053138
H148	H	0.835543	0.748952	0.446862
H149	H	1.084677	0.009985	0.587108
H150	H	1.584677	0.509985	1.087108
C151	C	1.204508	-0.590698	0.000049
C152	C	1.704508	-0.090698	0.500049
C153	C	1.138913	-0.531443	0.000051
C154	C	1.638913	-0.031443	0.500051
H155	H	1.256389	-0.570048	0.000043
H156	H	1.756389	-0.070048	0.500043
H157	H	1.200816	-0.621114	0.053220
H158	H	1.700816	-0.121114	0.553220
H159	H	1.200810	-0.621110	-0.053127
H160	H	1.700810	-0.121110	0.446873
H161	H	1.142607	-0.501033	0.053232
H162	H	1.642607	-0.001033	0.553232
H163	H	1.142606	-0.501014	-0.053125
H164	H	1.642606	-0.001014	0.446875
C165	C	0.874998	0.200490	0.695162
C166	C	1.374998	0.700490	1.195162
C167	C	0.863029	0.211347	0.600783
C168	C	1.363029	0.711347	1.100783
H169	H	0.836570	0.235414	0.727724
H170	H	1.336570	0.735414	1.227724
H171	H	0.866068	0.149982	0.710897
H172	H	1.366068	0.649982	1.210897
H173	H	0.930471	0.208724	0.710874
H174	H	1.430471	0.708724	1.210874
H175	H	0.807558	0.203108	0.585071
H176	H	1.307558	0.703108	1.085071
H177	H	0.871952	0.261868	0.585042
H178	H	1.371952	0.761868	1.085042
H179	H	0.879149	0.196682	0.412979
H180	H	1.379149	0.696682	0.912979
H181	H	1.114613	-0.683343	0.000052
H182	H	1.614613	-0.183343	0.500052
C183	C	1.146829	-0.345772	-0.078333
C184	C	1.646829	0.154228	0.421667
C185	C	1.142988	-0.299842	0.000059
C186	C	1.642988	0.200158	0.500059
H187	H	1.197777	-0.378686	-0.078334
H188	H	1.697777	0.121314	0.421666
H189	H	1.101109	-0.375194	-0.078333
H190	H	1.601109	0.124806	0.421667
H191	H	1.144220	-0.314583	-0.131496
H192	H	1.644220	0.185417	0.368504
H193	H	1.145591	-0.331031	0.053222
H194	H	1.645591	0.168969	0.553222
H195	H	1.188721	-0.270417	0.000067
H196	H	1.688721	0.229583	0.500067
C197	C	0.752335	-0.599948	-0.000006
C198	C	1.252335	-0.099948	0.499994
C199	C	0.817933	-0.659200	0.000012
C200	C	1.317933	-0.159200	0.500012
H201	H	0.700456	-0.620601	-0.000024
H202	H	1.200456	-0.120601	0.499976
H203	H	0.756013	-0.569537	0.053165
H204	H	1.256013	-0.069537	0.553165
H205	H	0.756041	-0.569530	-0.053182
H206	H	1.256041	-0.069530	0.446818
H207	H	0.814230	-0.689615	0.053192
H208	H	1.314230	-0.189615	0.553192
H209	H	0.814253	-0.689624	-0.053164
H210	H	1.314253	-0.189624	0.446836
H211	H	0.842230	-0.507310	0.000021
H212	H	1.342230	-0.007310	0.500021
