data_functionalizedCrystal
_audit_creation_method	'MofGen! by Chris Wilmer'
_symmetry_space_group_name_H-M	'P1'
_symmetry_Int_Tables_number	1
_symmetry_cell_setting	triclinic
loop_
_symmetry_equiv_pos_as_xyz
  x,y,z
_cell_length_a	10.908878
_cell_length_b	10.654550
_cell_length_c	9.730223
_cell_angle_alpha	89.998384
_cell_angle_beta	90.000359
_cell_angle_gamma	72.284847
loop_
_atom_site_label
_atom_site_type_symbol
_atom_site_fract_x
_atom_site_fract_y
_atom_site_fract_z
O1	O	1.702123	-0.193608	-0.114261
O2	O	2.202123	0.306392	0.385739
O3	O	1.329130	-0.095722	-0.114271
O4	O	1.829130	0.404278	0.385729
O5	O	1.524202	-0.329269	-0.114256
O6	O	2.024202	0.170731	0.385744
O7	O	1.507051	0.039938	-0.114276
O8	O	2.007051	0.539938	0.385724
O9	O	1.524200	-0.329263	0.114324
O10	O	2.024200	0.170737	0.614324
O11	O	1.329128	-0.095717	0.114309
O12	O	1.829128	0.404283	0.614309
O13	O	1.702120	-0.193603	0.114319
O14	O	2.202120	0.306397	0.614319
Zn15	Zn	1.515624	-0.144659	0.150606
Zn16	Zn	2.015624	0.355341	0.650606
Zn17	Zn	1.515627	-0.144666	-0.150558
Zn18	Zn	2.015627	0.355334	0.349442
O19	O	1.507048	0.039944	0.114304
O20	O	2.007048	0.539944	0.614304
C21	C	1.281369	-0.086572	0.000018
C22	C	1.781369	0.413428	0.500018
C23	C	1.139059	-0.059329	0.000015
C24	C	1.639059	0.440671	0.500015
C25	C	1.089165	-0.158733	0.000020
C26	C	1.589165	0.341267	0.500020
C27	C	0.942081	-0.130578	0.000016
C28	C	1.442081	0.369422	0.500016
C29	C	1.522942	-0.375790	0.000034
C30	C	2.022942	0.124210	0.500034
C31	C	1.519174	-0.514414	0.000033
C32	C	2.019174	-0.014414	0.500033
C33	C	1.749882	-0.202753	0.000027
C34	C	2.249882	0.297247	0.500027
C35	C	1.892192	-0.229996	0.000021
C36	C	2.392192	0.270004	0.500021
C37	C	1.508309	0.086465	0.000011
C38	C	2.008309	0.586465	0.500011
C39	C	1.512077	0.225089	0.000003
C40	C	2.012077	0.725089	0.500003
N41	N	1.515631	-0.144657	0.356142
N42	N	2.015631	0.355343	0.856142
C43	C	1.397221	0.329542	0.000014
C44	C	1.897221	0.829542	0.500014
C45	C	1.400769	0.459791	0.000023
C46	C	1.900769	0.959791	0.500023
C47	C	1.634038	0.381121	0.000019
C48	C	2.134038	0.881121	0.500019
C49	C	1.630489	0.250874	-0.000001
C50	C	2.130489	0.750874	0.499999
C51	C	1.262545	0.374963	0.000022
C52	C	1.762545	0.874963	0.500022
C53	C	1.266094	0.505212	0.000032
C54	C	1.766094	1.005212	0.500032
N55	N	1.515630	-0.144680	-0.356094
N56	N	2.015630	0.355320	0.143906
C57	C	1.602031	-0.248047	0.428075
C58	C	2.102031	0.251953	0.928075
C59	C	1.602028	-0.248062	0.571958
C60	C	2.102028	0.251938	1.071958
C61	C	1.429220	-0.041284	0.571963
C62	C	1.929220	0.458716	1.071963
C63	C	1.429218	-0.041275	0.428083
C64	C	1.929218	0.458725	0.928083
C65	C	1.701805	-0.367426	0.428073
C66	C	2.201805	0.132574	0.928073
C67	C	1.701801	-0.367441	0.571956
C68	C	2.201801	0.132559	1.071956
H69	H	1.724015	0.165830	-0.000025
H70	H	2.224015	0.665830	0.499975
Cl71	Cl	1.187765	0.586696	0.147730
Cl72	Cl	1.687765	1.086696	0.647730
Cl73	Cl	1.181223	0.347328	-0.147666
Cl74	Cl	1.681223	0.847328	0.352334
H75	H	1.730445	0.402132	-0.000009
H76	H	2.230445	0.902132	0.499991
H77	H	1.358864	0.042886	0.630552
H78	H	1.858864	0.542886	1.130552
Cl79	Cl	1.845469	-0.351414	0.359163
Cl80	Cl	2.345469	0.148586	0.859163
H81	H	1.219648	0.348645	0.098706
H82	H	1.719648	0.848645	0.598706
Cl83	Cl	1.203271	0.589373	-0.152337
Cl84	Cl	1.703271	1.089373	0.347663
Cl85	Cl	1.320581	0.088691	0.337652
Cl86	Cl	1.820581	0.588691	0.837652
Cl87	Cl	1.668017	-0.509115	0.367773
Cl88	Cl	2.168017	-0.009115	0.867773
H89	H	1.670661	-0.451894	0.616576
H90	H	2.170661	0.048106	1.116576
Cl91	Cl	1.036900	0.104251	-0.000006
Cl92	Cl	1.536900	0.604251	0.499994
Cl93	Cl	1.191324	-0.322313	0.000026
Cl94	Cl	1.691324	0.177687	0.500026
Cl95	Cl	0.839926	0.033009	-0.000005
Cl96	Cl	1.339926	0.533009	0.499995
Cl97	Cl	1.853868	-0.367285	0.632260
Cl98	Cl	2.353868	0.132715	1.132260
H99	H	0.958361	-0.335951	0.000018
H100	H	1.458361	0.164049	0.500018
