data_functionalizedCrystal
_audit_creation_method	'MofGen! by Chris Wilmer'
_symmetry_space_group_name_H-M	'P1'
_symmetry_Int_Tables_number	1
_symmetry_cell_setting	triclinic
loop_
_symmetry_equiv_pos_as_xyz
  x,y,z
_cell_length_a	19.077115
_cell_length_b	29.839131
_cell_length_c	19.076919
_cell_angle_alpha	87.728385
_cell_angle_beta	89.923103
_cell_angle_gamma	87.738067
loop_
_atom_site_label
_atom_site_type_symbol
_atom_site_fract_x
_atom_site_fract_y
_atom_site_fract_z
Zn1	Zn	1.058167	-0.217337	0.440404
Zn2	Zn	1.391501	0.115996	0.773738
Zn3	Zn	1.724834	0.449329	1.107071
Zn4	Zn	1.062773	-0.289570	0.322897
Zn5	Zn	1.396107	0.043763	0.656231
Zn6	Zn	1.729440	0.377097	0.989564
Zn7	Zn	0.945388	-0.211319	0.318199
Zn8	Zn	1.278721	0.122014	0.651532
Zn9	Zn	1.612055	0.455348	0.984866
Zn10	Zn	0.940595	-0.289299	0.435651
Zn11	Zn	1.273928	0.044034	0.768985
Zn12	Zn	1.607262	0.377368	1.102318
O13	O	1.001731	-0.251881	0.379288
O14	O	1.335064	0.081452	0.712621
O15	O	1.668398	0.414785	1.045955
O16	O	1.157109	-0.229551	0.428772
O17	O	1.490442	0.103782	0.762105
O18	O	1.823775	0.437116	1.095439
O19	O	1.051135	-0.276785	0.223943
O20	O	1.384469	0.056549	0.557276
O21	O	1.717802	0.389882	0.890609
O22	O	0.960427	-0.149253	0.334433
O23	O	1.293760	0.184080	0.667766
O24	O	1.627093	0.517414	1.001100
O25	O	1.160493	-0.282620	0.342440
O26	O	1.493826	0.050713	0.675773
O27	O	1.827159	0.384047	1.009107
O28	O	1.043285	-0.153674	0.424217
O29	O	1.376619	0.179659	0.757550
O30	O	1.709952	0.512992	1.090883
O31	O	0.964893	-0.219294	0.220491
O32	O	1.298226	0.114039	0.553824
O33	O	1.631560	0.447373	0.887158
O34	O	0.846422	-0.219031	0.329824
O35	O	1.179755	0.114302	0.663157
O36	O	1.513088	0.447635	0.996491
O37	O	0.952258	-0.282158	0.534613
O38	O	1.285591	0.051175	0.867946
O39	O	1.618925	0.384508	1.201280
O40	O	0.842900	-0.276323	0.416116
O41	O	1.176234	0.057010	0.749449
O42	O	1.509567	0.390344	1.082782
O43	O	1.038638	-0.229288	0.538105
O44	O	1.371971	0.104045	0.871438
O45	O	1.705304	0.437378	1.204772
O46	O	1.046488	-0.352399	0.337831
O47	O	1.379821	-0.019065	0.671165
O48	O	1.713154	0.314268	1.004498
O49	O	0.956724	-0.352200	0.420671
O50	O	1.290057	-0.018866	0.754004
O51	O	1.623391	0.314467	1.087338
C52	C	0.819165	-0.246995	0.371945
C53	C	1.152498	0.086338	0.705278
C54	C	1.485832	0.419672	1.038611
C55	C	0.741062	-0.244916	0.368820
C56	C	1.074395	0.088418	0.702153
C57	C	1.407729	0.421751	1.035486
C58	C	0.301618	-0.229984	0.346415
C59	C	0.634952	0.103349	0.679748
C60	C	0.968285	0.436682	1.013081
C61	C	0.375004	-0.231940	0.349354
C62	C	0.708338	0.101393	0.682688
C63	C	1.041671	0.434726	1.016021
C64	C	0.409883	-0.262793	0.395679
C65	C	0.743216	0.070541	0.729012
C66	C	1.076550	0.403874	1.062345
C67	C	0.371371	-0.291687	0.439071
C68	C	0.704705	0.041646	0.772404
C69	C	1.038038	0.374979	1.105738
C70	C	0.297987	-0.289729	0.436134
C71	C	0.631320	0.043605	0.769468
C72	C	0.964653	0.376938	1.102801
C73	C	0.629166	-0.271852	0.409275
C74	C	0.962499	0.061481	0.742609
C75	C	1.295832	0.394815	1.075942
C76	C	0.702556	-0.273809	0.412207
C77	C	1.035889	0.059524	0.745541
C78	C	1.369222	0.392857	1.078874
C79	C	0.706184	-0.214062	0.322491
C80	C	1.039517	0.119272	0.655824
C81	C	1.372850	0.452605	0.989158
C82	C	0.632797	-0.212107	0.319555
C83	C	0.966131	0.121226	0.652889
C84	C	1.299464	0.454559	0.986222
C85	C	0.594292	-0.241001	0.362950
C86	C	0.927625	0.092333	0.696284
C87	C	1.260959	0.425666	1.029617
N88	N	0.484895	-0.264794	0.398683
N89	N	0.818229	0.068540	0.732017
N90	N	1.151562	0.401873	1.065350
N91	N	0.519281	-0.238997	0.359949
N92	N	0.852614	0.094337	0.693282
N93	N	1.185948	0.427670	1.026616
C94	C	1.001604	-0.368600	0.379261
C95	C	1.334937	-0.035267	0.712595
C96	C	1.668271	0.298067	1.045928
C97	C	1.001613	-0.418535	0.379276
C98	C	1.334946	-0.085202	0.712609
C99	C	1.668280	0.248132	1.045943
C100	C	0.955020	-0.775038	0.422421
C101	C	1.288353	-0.441705	0.755754
C102	C	1.621687	-0.108372	1.089088
C103	C	0.954928	-0.587362	0.422395
C104	C	1.288261	-0.254029	0.755728
C105	C	1.621595	0.079305	1.089062
O106	O	0.915160	-0.563022	0.459059
O107	O	1.248494	-0.229688	0.792392
O108	O	1.581827	0.103645	1.125726
N109	N	1.001686	-0.563983	0.379300
N110	N	1.335020	-0.230649	0.712633
N111	N	1.668353	0.102684	1.045967
C112	C	1.048474	-0.587525	0.336211
C113	C	1.381808	-0.254192	0.669545
C114	C	1.715141	0.079141	1.002878
O115	O	1.088248	-0.563333	0.299561
O116	O	1.421581	-0.230000	0.632894
O117	O	1.754915	0.103333	0.966228
C118	C	1.048569	-0.775201	0.336241
C119	C	1.381903	-0.441867	0.669575
C120	C	1.715236	-0.108534	1.002908
C121	C	1.001803	-0.798577	0.379334
C122	C	1.335136	-0.465244	0.712667
C123	C	1.668470	-0.131911	1.046001
C124	C	0.908258	-0.798415	0.465511
C125	C	1.241591	-0.465082	0.798844
C126	C	1.574925	-0.131748	1.132177
C127	C	0.908279	-0.845331	0.465514
C128	C	1.241612	-0.511998	0.798847
C129	C	1.574946	-0.178664	1.132181
C130	C	0.955062	-0.868870	0.422427
C131	C	1.288395	-0.535537	0.755761
C132	C	1.621728	-0.202204	1.089094
C133	C	1.001824	-0.845493	0.379337
C134	C	1.335157	-0.512160	0.712671
C135	C	1.668490	-0.178827	1.046004
C136	C	1.095360	-0.798742	0.293157
C137	C	1.428693	-0.465409	0.626490
C138	C	1.762027	-0.132076	0.959824
C139	C	1.095381	-0.845664	0.293170
C140	C	1.428714	-0.512331	0.626503
C141	C	1.762047	-0.178998	0.959836
C142	C	1.048614	-0.869041	0.336262
C143	C	1.381948	-0.535708	0.669596
C144	C	1.715281	-0.202374	1.002929
C145	C	1.048628	-0.915949	0.336254
C146	C	1.381961	-0.582615	0.669587
C147	C	1.715294	-0.249282	1.002920
N148	N	1.001869	-0.939328	0.379349
N149	N	1.335202	-0.605995	0.712682
N150	N	1.668536	-0.272662	1.046016
C151	C	0.955086	-0.915789	0.422436
C152	C	1.288419	-0.582456	0.755769
C153	C	1.621753	-0.249122	1.089102
C154	C	1.048420	-0.488993	0.336198
C155	C	1.381754	-0.155660	0.669531
C156	C	1.715087	0.177674	1.002864
C157	C	1.048396	-0.442074	0.336189
C158	C	1.381729	-0.108741	0.669523
C159	C	1.715063	0.224592	1.002856
C160	C	0.954850	-0.441914	0.422374
C161	C	1.288184	-0.108581	0.755707
C162	C	1.621517	0.224752	1.089041
C163	C	0.954872	-0.488834	0.422378
C164	C	1.288205	-0.155500	0.755712
C165	C	1.621538	0.177833	1.089045
C166	C	1.001662	-0.512372	0.379293
C167	C	1.334995	-0.179039	0.712626
C168	C	1.668329	0.154294	1.045960
C169	C	0.955133	-1.014316	0.422439
C170	C	1.288466	-0.680983	0.755772
C171	C	1.621800	-0.347649	1.089105
C172	C	0.955156	-1.061236	0.422436
C173	C	1.288490	-0.727903	0.755769
C174	C	1.621823	-0.394570	1.089103
C175	C	1.048704	-1.061392	0.336254
C176	C	1.382037	-0.728059	0.669587
C177	C	1.715371	-0.394725	1.002921
C178	C	1.048679	-1.014476	0.336254
C179	C	1.382012	-0.681143	0.669587
C180	C	1.715345	-0.347809	1.002920
C181	C	1.001891	-0.990939	0.379352
C182	C	1.335224	-0.657606	0.712685
C183	C	1.668557	-0.324272	1.046018
O184	O	1.088380	-0.940318	0.299615
O185	O	1.421713	-0.606985	0.632948
O186	O	1.755046	-0.273652	0.966282
O187	O	0.915329	-0.939989	0.459092
O188	O	1.248662	-0.606656	0.792425
O189	O	1.581996	-0.273323	1.125759
C190	C	0.954999	-0.728122	0.422418
C191	C	1.288332	-0.394789	0.755751
C192	C	1.621666	-0.061455	1.089084
C193	C	1.001761	-0.704745	0.379328
C194	C	1.335094	-0.371412	0.712661
C195	C	1.668428	-0.038079	1.045994
C196	C	1.048544	-0.728284	0.336241
C197	C	1.381877	-0.394951	0.669574
C198	C	1.715211	-0.061618	1.002908
C199	C	1.001737	-0.657827	0.379319
C200	C	1.335070	-0.324493	0.712653
C201	C	1.668403	0.008840	1.045986
C202	C	0.954954	-0.634287	0.422406
C203	C	1.288287	-0.300954	0.755739
C204	C	1.621620	0.032379	1.089073
C205	C	0.908195	-0.657667	0.465501
C206	C	1.241529	-0.324334	0.798835
C207	C	1.574862	0.009000	1.132168
C208	C	0.908216	-0.704583	0.465504
C209	C	1.241550	-0.371250	0.798838
C210	C	1.574883	-0.037916	1.132171
C211	C	1.095302	-0.704905	0.293146
C212	C	1.428636	-0.371572	0.626479
C213	C	1.761969	-0.038238	0.959812
C214	C	1.095277	-0.657989	0.293146
C215	C	1.428611	-0.324655	0.626479
C216	C	1.761944	0.008678	0.959812
C217	C	1.048494	-0.634450	0.336232
C218	C	1.381828	-0.301116	0.669566
C219	C	1.715161	0.032217	1.002899
C220	C	1.185010	-0.256787	0.386660
C221	C	1.518343	0.076546	0.719994
C222	C	1.851676	0.409880	1.053327
C223	C	1.263112	-0.258878	0.389802
C224	C	1.596445	0.074456	0.723135
C225	C	1.929779	0.407789	1.056469
C226	C	0.994399	-0.256364	0.562568
C227	C	1.327733	0.076969	0.895902
C228	C	1.661066	0.410302	1.229235
C229	C	0.991275	-0.258275	0.640671
C230	C	1.324608	0.075058	0.974005
C231	C	1.657942	0.408392	1.307338
C232	C	1.001877	-0.134708	0.379331
C233	C	1.335210	0.198626	0.712664
C234	C	1.668544	0.531959	1.045998
C235	C	1.001939	-0.084775	0.379349
C236	C	1.335272	0.248558	0.712683
C237	C	1.668606	0.581891	1.046016
C238	C	1.009074	-0.247384	0.196722
C239	C	1.342408	0.085949	0.530056
C240	C	1.675741	0.419282	0.863389
C241	C	1.012335	-0.245351	0.118625
C242	C	1.345668	0.087982	0.451958
C243	C	1.679002	0.421316	0.785292
C244	C	1.034778	-0.231647	0.679184
C245	C	1.368112	0.101686	1.012517
C246	C	1.701445	0.435020	1.345850
C247	C	1.031834	-0.233440	0.752569
C248	C	1.365168	0.099893	1.085903
C249	C	1.698501	0.433226	1.419236
C250	C	0.985390	-0.261864	0.787442
C251	C	1.318723	0.071470	1.120775
C252	C	1.652057	0.404803	1.454108
C253	C	0.941882	-0.288493	0.748924
C254	C	1.275215	0.044841	1.082258
C255	C	1.608549	0.378174	1.415591
C256	C	0.944823	-0.286697	0.675540
C257	C	1.278156	0.046636	1.008873
C258	C	1.611490	0.379970	1.342206
C259	C	0.971768	-0.270184	1.006723
C260	C	1.305101	0.063149	1.340056
C261	C	1.638435	0.396483	1.673390
C262	C	0.968832	-0.271979	1.080113
C263	C	1.302165	0.061355	1.413446
C264	C	1.635498	0.394688	1.746780
C265	C	1.058783	-0.216925	1.083753
C266	C	1.392117	0.116408	1.417086
C267	C	1.725450	0.449741	1.750420
C268	C	1.061723	-0.215134	1.010367
C269	C	1.395057	0.118199	1.343700
C270	C	1.728390	0.451532	1.677034
C271	C	1.018213	-0.241761	0.971856
C272	C	1.351546	0.091572	1.305189
C273	C	1.684879	0.424905	1.638522
N274	N	0.982381	-0.263698	0.862454
N275	N	1.315714	0.069635	1.195787
N276	N	1.649048	0.402968	1.529121
N277	N	1.021219	-0.239924	0.896845
N278	N	1.354552	0.093409	1.230178
N279	N	1.687885	0.426743	1.563511
H280	H	0.597823	-0.295380	0.444608
H281	H	0.931157	0.037953	0.777941
H282	H	1.264490	0.371286	1.111275
O283	O	1.145860	-0.871045	0.246699
O284	O	1.479193	-0.537712	0.580033
O285	O	1.812526	-0.204379	0.913366
H286	H	1.180338	-0.894111	0.279626
H287	H	1.513671	-0.560777	0.612959
H288	H	1.847005	-0.227444	0.946293
O289	O	1.145766	-0.730286	0.246667
O290	O	1.479099	-0.396952	0.580000
O291	O	1.812432	-0.063619	0.913333
H292	H	1.180250	-0.753355	0.279581
H293	H	1.513583	-0.420021	0.612914
H294	H	1.846917	-0.086688	0.946247
H295	H	0.916757	-0.422741	0.457456
H296	H	1.250090	-0.089408	0.790789
H297	H	1.583423	0.243926	1.124123
H298	H	0.406353	-0.208414	0.314020
H299	H	0.739687	0.124919	0.647354
H300	H	1.073020	0.458253	0.980687
H301	H	0.904063	-0.311634	0.777323
H302	H	1.237397	0.021699	1.110656
H303	H	1.570730	0.355033	1.443990
O304	O	1.145726	-0.632780	0.246664
O305	O	1.479059	-0.299447	0.579998
O306	O	1.812392	0.033887	0.913331
H307	H	1.180176	-0.613102	0.279587
H308	H	1.513510	-0.279769	0.612920
H309	H	1.846843	0.053565	0.946253
H310	H	0.931009	-0.295126	1.108504
H311	H	1.264342	0.038208	1.441837
H312	H	1.597676	0.371541	1.775170
H313	H	1.067261	-0.211758	0.783923
H314	H	1.400594	0.121575	1.117256
H315	H	1.733928	0.454909	1.450590
H316	H	0.917035	-0.995158	0.457534
H317	H	1.250368	-0.661824	0.790867
H318	H	1.583702	-0.328491	1.124201
H319	H	0.737542	-0.190538	0.287162
H320	H	1.070876	0.142795	0.620496
H321	H	1.404209	0.476129	0.953829
O322	O	0.904714	-1.086452	0.468915
O323	O	1.238047	-0.753119	0.802248
O324	O	1.571381	-0.419785	1.135581
H325	H	0.914512	-1.079104	0.524557
H326	H	1.247845	-0.745771	0.857890
H327	H	1.581179	-0.412437	1.191224
H328	H	1.086524	-0.508154	0.301110
H329	H	1.419857	-0.174820	0.634443
H330	H	1.753191	0.158513	0.967776
H331	H	1.099545	-0.191990	0.981979
H332	H	1.432879	0.141343	1.315312
H333	H	1.766212	0.474677	1.648646
O334	O	0.924844	-0.298894	0.965173
O335	O	1.258177	0.034439	1.298506
O336	O	1.591511	0.367772	1.631840
H337	H	0.890467	-0.276999	0.930318
H338	H	1.223800	0.056334	1.263652
H339	H	1.557133	0.389667	1.596985
O340	O	1.099116	-0.989258	0.289775
O341	O	1.432449	-0.655924	0.623109
O342	O	1.765782	-0.322591	0.956442
H343	H	1.131652	-1.013511	0.259818
H344	H	1.464985	-0.680177	0.593151
H345	H	1.798319	-0.346844	0.926484
H346	H	1.133442	-0.779716	0.258067
H347	H	1.466775	-0.446382	0.591401
H348	H	1.800108	-0.113049	0.924734
O349	O	1.099182	-1.086785	0.289804
O350	O	1.432515	-0.753452	0.623137
O351	O	1.765849	-0.420119	0.956471
H352	H	1.091348	-1.123338	0.297064
H353	H	1.424681	-0.790005	0.630397
H354	H	1.758014	-0.456671	0.963731
O355	O	0.263993	-0.196712	0.296449
O356	O	0.597326	0.136621	0.629782
O357	O	0.930659	0.469955	0.963115
H358	H	0.277621	-0.162138	0.309166
H359	H	0.610955	0.171196	0.642500
H360	H	0.944288	0.504529	0.975833
O361	O	0.857777	-0.729796	0.511984
O362	O	1.191111	-0.396462	0.845317
O363	O	1.524444	-0.063129	1.178650
H364	H	0.867577	-0.722443	0.567624
H365	H	1.200910	-0.389110	0.900958
H366	H	1.534243	-0.055777	1.234291
H367	H	0.870100	-0.638493	0.500582
H368	H	1.203434	-0.305160	0.833915
H369	H	1.536767	0.028173	1.167248
O370	O	0.897893	-0.315410	0.633995
O371	O	1.231226	0.017923	0.967329
O372	O	1.564560	0.351257	1.300662
H373	H	0.865103	-0.335477	0.670572
H374	H	1.198437	-0.002144	1.003905
H375	H	1.531770	0.331190	1.337238
H376	H	0.604404	-0.186987	0.281828
H377	H	0.937738	0.146346	0.615162
H378	H	1.271071	0.479679	0.948495
O379	O	1.084876	-0.200989	0.641578
O380	O	1.418209	0.132344	0.974912
O381	O	1.751542	0.465677	1.308245
H382	H	1.121946	-0.221236	0.609584
H383	H	1.455279	0.112098	0.942917
H384	H	1.788612	0.445431	1.276251
O385	O	1.105691	-0.188193	1.125287
O386	O	1.439024	0.145140	1.458620
O387	O	1.772357	0.478473	1.791954
H388	H	1.095836	-0.194209	1.182174
H389	H	1.429169	0.139124	1.515508
H390	H	1.762502	0.472457	1.848841
H391	H	0.399775	-0.316806	0.476792
H392	H	0.733109	0.016527	0.810126
H393	H	1.066442	0.349861	1.143459
O394	O	0.740179	-0.307084	0.462178
O395	O	1.073513	0.026249	0.795512
O396	O	1.406846	0.359583	1.128845
H397	H	0.701076	-0.326843	0.491866
H398	H	1.034409	0.006490	0.825200
H399	H	1.367742	0.339824	1.158533
H400	H	0.266635	-0.313256	0.471467
H401	H	0.599969	0.020078	0.804800
H402	H	0.933302	0.353411	1.138134
H403	H	0.870196	-0.864360	0.500603
H404	H	1.203529	-0.531027	0.833937
H405	H	1.536862	-0.197694	1.167270
H406	H	0.870162	-0.779254	0.500600
H407	H	1.203495	-0.445920	0.833934
H408	H	1.536828	-0.112587	1.167267
H409	H	0.916794	-0.507864	0.457472
H410	H	1.250127	-0.174531	0.790806
H411	H	1.583461	0.158802	1.124139
H412	H	1.086470	-0.423044	0.301091
H413	H	1.419803	-0.089710	0.634424
H414	H	1.753137	0.243623	0.967758
