data_functionalizedCrystal
_audit_creation_method	'MofGen! by Chris Wilmer'
_symmetry_space_group_name_H-M	'P1'
_symmetry_Int_Tables_number	1
_symmetry_cell_setting	triclinic
loop_
_symmetry_equiv_pos_as_xyz
  x,y,z
_cell_length_a	21.395364
_cell_length_b	19.077114
_cell_length_c	21.395355
_cell_angle_alpha	92.281097
_cell_angle_beta	90.024727
_cell_angle_gamma	87.673269
loop_
_atom_site_label
_atom_site_type_symbol
_atom_site_fract_x
_atom_site_fract_y
_atom_site_fract_z
Zn1	Zn	0.947843	0.280316	0.364289
Zn2	Zn	0.943540	0.397997	0.263720
Zn3	Zn	0.843058	0.280313	0.259525
Zn4	Zn	0.838823	0.397975	0.368459
O5	O	0.893316	0.339150	0.313998
O6	O	1.034949	0.295937	0.350959
O7	O	0.930183	0.382393	0.175486
O8	O	0.860531	0.181821	0.269922
O9	O	1.031788	0.382396	0.277071
O10	O	0.937516	0.181824	0.346891
O11	O	0.856359	0.295931	0.172404
O12	O	0.754818	0.295911	0.273965
O13	O	0.853313	0.382360	0.455583
O14	O	0.751707	0.382356	0.353998
O15	O	0.933409	0.295916	0.452520
O16	O	0.926076	0.496485	0.281114
O17	O	0.849141	0.496470	0.358066
C18	C	0.730529	0.339131	0.313979
C19	C	0.660887	0.339140	0.313987
C20	C	0.157484	0.384245	0.355636
C21	C	0.222919	0.384245	0.355629
C22	C	0.257248	0.339165	0.314019
C23	C	0.226136	0.294095	0.272401
C24	C	0.160701	0.294101	0.272404
C25	C	0.363203	0.275736	0.306899
C26	C	0.428637	0.275729	0.306900
C27	C	0.459069	0.339147	0.314004
C28	C	0.424061	0.402574	0.321121
C29	C	0.358627	0.402581	0.321124
C30	C	0.328201	0.339154	0.314010
C31	C	0.561127	0.384218	0.355609
C32	C	0.626563	0.384219	0.355599
C33	C	0.629778	0.294063	0.272373
C34	C	0.564343	0.294068	0.272381
C35	C	0.530021	0.339145	0.314002
C36	C	0.886699	0.522015	0.320511
C37	C	0.883925	0.600246	0.323319
C38	C	0.922710	0.636984	0.284606
C39	C	0.920105	0.710489	0.287251
C40	C	0.878712	0.747256	0.328604
C41	C	0.839926	0.710513	0.367321
C42	C	0.842535	0.637009	0.364679
C43	C	0.866615	0.967093	0.340800
C44	C	0.864008	1.040603	0.343437
C45	C	0.944188	1.040574	0.263367
C46	C	0.946790	0.967068	0.260727
C47	C	0.908007	0.930331	0.299446
N48	N	0.876047	0.822391	0.331307
N49	N	0.910675	0.855198	0.296746
C50	C	1.056738	0.339169	0.314017
C51	C	1.126379	0.339178	0.314026
C52	C	0.899970	1.155571	0.307481
C53	C	0.902793	1.077340	0.304725
C54	C	0.893368	0.339136	0.477421
C55	C	0.893391	0.339130	0.547062
C56	C	0.893301	0.339114	0.151209
C57	C	0.893407	0.338921	0.081562
C58	C	0.935095	0.294117	0.578181
C59	C	0.935096	0.294086	0.643615
C60	C	0.893397	0.339082	0.677929
C61	C	0.851685	0.384098	0.646802
C62	C	0.851681	0.384122	0.581369
C63	C	0.886157	0.402455	0.783861
C64	C	0.886165	0.402432	0.849293
C65	C	0.893404	0.339007	0.879747
C66	C	0.900649	0.275604	0.844761
C67	C	0.900645	0.275628	0.779328
C68	C	0.893396	0.339061	0.748880
C69	C	0.935111	0.293958	0.981817
C70	C	0.935107	0.293926	1.047253
C71	C	0.851699	0.383944	1.050439
C72	C	0.851700	0.383969	0.985004
C73	C	0.893409	0.338977	0.950697
H74	H	0.539017	0.257367	0.238500
H75	H	0.135376	0.257400	0.238520
H76	H	0.448838	0.454215	0.326911
F77	F	0.807314	0.431882	0.951884
F78	F	0.985464	1.079676	0.222166
H79	H	0.806226	0.740455	0.400995
H80	H	0.880269	0.454060	0.877774
H81	H	0.533180	0.420923	0.389499
F82	F	0.819944	1.079731	0.387447
F83	F	0.659667	0.432193	0.399885
H84	H	0.835035	0.937188	0.372325
F85	F	0.990853	0.927943	0.216719
H86	H	0.338431	0.224091	0.301103
F87	F	0.878466	0.469966	0.751456
H88	H	0.969070	0.257319	0.953883
F89	F	0.666309	0.246091	0.228083
H90	H	0.810953	0.607098	0.396204
H91	H	0.951687	0.740398	0.255726
F92	F	0.979484	0.246229	0.541673
H93	H	0.969055	0.257428	0.668957
H94	H	0.969067	0.257267	1.072588
H95	H	0.906543	0.224002	0.750844
F96	F	0.465889	0.208224	0.299334
F97	F	0.262671	0.246120	0.228114
F98	F	0.908356	0.208097	0.877167
H99	H	0.817741	0.420573	1.078376
H100	H	0.817732	0.420731	0.674744
F101	F	0.966762	0.597860	0.240588
H102	H	0.129543	0.420952	0.389525
F103	F	0.321371	0.470083	0.328696
F104	F	0.256030	0.432213	0.399918
F105	F	0.807292	0.432033	0.548249
