data_functionalizedCrystal
_audit_creation_method	'MofGen! by Chris Wilmer'
_symmetry_space_group_name_H-M	'P1'
_symmetry_Int_Tables_number	1
_symmetry_cell_setting	triclinic
loop_
_symmetry_equiv_pos_as_xyz
  x,y,z
_cell_length_a	25.639239
_cell_length_b	18.050591
_cell_length_c	18.050582
_cell_angle_alpha	90.011999
_cell_angle_beta	89.974655
_cell_angle_gamma	89.961418
loop_
_atom_site_label
_atom_site_type_symbol
_atom_site_fract_x
_atom_site_fract_y
_atom_site_fract_z
Zn1	Zn	-0.208182	-1.135245	-0.419826
Zn2	Zn	-0.295611	-1.135131	-0.295632
Zn3	Zn	-0.208191	-1.011062	-0.295659
Zn4	Zn	-0.295588	-1.010990	-0.419788
O5	O	-0.251893	-1.073107	-0.357726
O6	O	-0.219785	-1.239154	-0.403356
O7	O	-0.284028	-1.118656	-0.191711
O8	O	-0.135025	-1.027614	-0.312157
O9	O	-0.284019	-1.239071	-0.312111
O10	O	-0.135018	-1.118850	-0.403382
O11	O	-0.219801	-1.027503	-0.191730
O12	O	-0.219779	-0.907128	-0.312120
O13	O	-0.283980	-1.027490	-0.523718
O14	O	-0.283989	-0.907075	-0.403318
O15	O	-0.219763	-1.118779	-0.523746
O16	O	-0.368773	-1.118585	-0.312074
O17	O	-0.368756	-1.027379	-0.403292
C18	C	-0.251883	-0.880155	-0.357718
C19	C	-0.251891	-0.797609	-0.357732
C20	C	-0.286884	-0.548776	-0.407256
C21	C	-0.299606	-0.598142	-0.339470
C22	C	-0.251911	-0.500489	-0.357728
C23	C	-0.239203	-0.598205	-0.425512
C24	C	-0.251902	-0.646474	-0.357734
C25	C	-0.264658	-0.548767	-0.289906
C26	C	-0.204233	-0.548826	-0.375995
C27	C	-0.216937	-0.598169	-0.308162
C28	C	-0.251917	-0.416390	-0.357726
C29	C	-0.251896	-0.730570	-0.357729
C30	C	-0.387735	-1.072982	-0.357692
C31	C	-0.445849	-1.072997	-0.357703
C32	C	-0.806209	-1.120722	-0.310310
C33	C	-0.860813	-1.120751	-0.310320
O34	O	-0.889046	-1.161199	-0.269988
N35	N	-0.888132	-1.073238	-0.357775
C36	C	-0.860844	-1.025698	-0.405229
O37	O	-0.889095	-0.985287	-0.445595
C38	C	-0.806240	-1.025673	-0.405222
C39	C	-0.778924	-1.073184	-0.357759
C40	C	-0.778892	-1.168230	-0.262851
C41	C	-0.724292	-1.168200	-0.262840
C42	C	-0.697008	-1.120662	-0.310289
C43	C	-0.724324	-1.073154	-0.357748
C44	C	-0.778953	-0.978138	-0.452679
C45	C	-0.724346	-0.978118	-0.452669
C46	C	-0.697030	-1.025629	-0.405205
C47	C	-0.642439	-1.025587	-0.405186
N48	N	-0.615120	-1.073100	-0.357731
C49	C	-0.642404	-1.120638	-0.310282
C50	C	-0.975514	-1.025754	-0.405241
C51	C	-1.030117	-1.025774	-0.405244
C52	C	-1.030082	-1.120828	-0.310336
C53	C	-0.975479	-1.120804	-0.310329
C54	C	-0.948195	-1.073267	-0.357785
C55	C	-0.527739	-1.120571	-0.310263
C56	C	-0.473134	-1.120534	-0.310254
C57	C	-0.473173	-1.025483	-0.405165
C58	C	-0.527774	-1.025516	-0.405171
C59	C	-0.555055	-1.073066	-0.357717
O60	O	-0.614171	-0.985161	-0.445499
O61	O	-0.614147	-1.161048	-0.269930
C62	C	-0.115520	-1.073253	-0.357777
C63	C	-0.057406	-1.073315	-0.357798
C64	C	-0.251868	-1.073139	-0.551432
C65	C	-0.251857	-1.073153	-0.633978
C66	C	-0.251907	-0.266813	-0.357732
C67	C	-0.251921	-0.349358	-0.357729
C68	C	-0.286722	-1.023556	-0.882788
C69	C	-0.239033	-1.005428	-0.833404
C70	C	-0.251781	-1.073216	-0.931098
C71	C	-0.299504	-1.091277	-0.833401
C72	C	-0.251821	-1.073183	-0.785113
C73	C	-0.204066	-1.055053	-0.882801
C74	C	-0.264570	-1.140934	-0.882802
C75	C	-0.216848	-1.122832	-0.833440
C76	C	-0.251758	-1.073233	-1.015197
C77	C	-0.251838	-1.073166	-0.701017
C78	C	-0.251880	-1.073118	-0.164774
C79	C	-0.251743	-1.073248	-0.082229
H80	H	-0.163928	-0.527146	-0.391467
H81	H	-0.339847	-1.106569	-0.811702
O82	O	-0.226232	-0.937049	-0.807541
C83	C	-0.263140	-0.884873	-0.832691
H84	H	-0.301206	-0.914372	-0.846554
H85	H	-0.270484	-0.841991	-0.787494
H86	H	-0.247574	-0.856065	-0.884361
H87	H	-0.275451	-0.527143	-0.232569
H88	H	-0.450895	-1.159223	-0.271601
O89	O	-0.347697	-0.624079	-0.321135
C90	C	-0.367122	-0.668113	-0.379436
H91	H	-0.333210	-0.689806	-0.414090
H92	H	-0.389880	-0.716802	-0.355536
H93	H	-0.393983	-0.633340	-0.415824
O94	O	-0.322234	-0.523021	-0.457166
C95	C	-0.347312	-0.583320	-0.491709
H96	H	-0.344594	-0.634184	-0.454483
H97	H	-0.390059	-0.569008	-0.501594
H98	H	-0.327563	-0.595526	-0.546983
H99	H	-0.187358	-0.619719	-0.266232
O100	O	-0.277382	-1.209270	-0.908752
C101	C	-0.235921	-1.237407	-0.951720
H102	H	-0.198044	-1.209006	-0.934845
H103	H	-0.232271	-1.299628	-0.942212
H104	H	-0.243921	-1.226338	-1.012848
H105	H	-0.549946	-1.159292	-0.271623
O106	O	-0.226443	-0.624024	-0.493951
C107	C	-0.263432	-0.598872	-0.545980
H108	H	-0.283329	-0.546849	-0.523924
H109	H	-0.242987	-0.585591	-0.600473
H110	H	-0.293889	-0.643836	-0.555615
H111	H	-0.450950	-0.986776	-0.443795
O112	O	-0.805504	-0.931913	-0.498685
C113	C	-0.837153	-0.883990	-0.456387
H114	H	-0.820732	-0.879421	-0.397886
H115	H	-0.837798	-0.826826	-0.483211
H116	H	-0.878522	-0.906970	-0.453861
O117	O	-0.697925	-0.931871	-0.498795
C118	C	-0.733748	-0.889963	-0.540700
H119	H	-0.772684	-0.887429	-0.510282
H120	H	-0.718013	-0.831437	-0.548579
H121	H	-0.739516	-0.917133	-0.597123
H122	H	-0.702054	-1.206889	-0.224194
H123	H	-0.801102	-1.206945	-0.224212
O124	O	-0.155920	-1.036623	-0.908483
C125	C	-0.142466	-0.965415	-0.882715
H126	H	-0.165800	-0.952272	-0.830564
H127	H	-0.099017	-0.963737	-0.869440
H128	H	-0.151701	-0.922657	-0.927302
H129	H	-1.052353	-0.987079	-0.443887
H130	H	-0.953241	-1.159492	-0.271681
H131	H	-0.316216	-0.981542	-0.904457
H132	H	-1.052307	-1.159539	-0.271703
H133	H	-0.953303	-0.987037	-0.443883
H134	H	-0.550016	-0.986831	-0.443822
O135	O	-0.181509	-1.172832	-0.807782
C136	C	-0.131301	-1.153507	-0.833106
H137	H	-0.130301	-1.091896	-0.846896
H138	H	-0.101425	-1.165992	-0.788042
H139	H	-0.121578	-1.187005	-0.884856
