data_functionalizedCrystal
_audit_creation_method	'MofGen! by Chris Wilmer'
_symmetry_space_group_name_H-M	'P1'
_symmetry_Int_Tables_number	1
_symmetry_cell_setting	triclinic
loop_
_symmetry_equiv_pos_as_xyz
  x,y,z
_cell_length_a	15.944551
_cell_length_b	19.188930
_cell_length_c	15.021413
_cell_angle_alpha	90.003688
_cell_angle_beta	89.988701
_cell_angle_gamma	83.321760
loop_
_atom_site_label
_atom_site_type_symbol
_atom_site_fract_x
_atom_site_fract_y
_atom_site_fract_z
O1	O	1.114174	0.090043	0.073949
O2	O	0.869583	0.101145	0.073973
O3	O	0.998937	-0.006044	0.073943
O4	O	0.984820	0.197231	0.073979
O5	O	0.998952	-0.006037	-0.074121
O6	O	0.869598	0.101152	-0.074091
O7	O	1.114189	0.090050	-0.074115
Zn8	Zn	0.991896	0.095602	-0.097611
Zn9	Zn	0.991876	0.095593	0.097470
O10	O	0.984835	0.197238	-0.074085
C11	C	0.838298	0.100687	-0.000056
C12	C	0.745057	0.099306	-0.000048
C13	C	0.998487	-0.032052	-0.000091
C14	C	0.997115	-0.109560	-0.000099
C15	C	0.530462	0.029563	-0.000078
C16	C	0.469313	0.061946	0.072931
C17	C	0.574341	0.096806	-0.000059
C18	C	0.469350	0.061968	-0.073048
C19	C	0.409437	0.094386	-0.000074
C20	C	0.514420	0.129207	0.073010
C21	C	0.514464	0.129220	-0.073035
C22	C	0.453332	0.161652	-0.000008
C23	C	0.669338	0.098198	-0.000050
C24	C	0.314441	0.093000	-0.000076
C25	C	1.073016	-0.154288	-0.000111
C26	C	1.071726	-0.227115	-0.000096
C27	C	0.994532	-0.255211	-0.000088
C28	C	0.918622	-0.210474	-0.000072
C29	C	0.919913	-0.137648	-0.000077
N30	N	0.935532	-0.363367	-0.050472
N31	N	0.934310	-0.432548	-0.050468
C32	C	0.990637	-0.474630	-0.000070
N33	N	1.048244	-0.444918	0.050314
N34	N	1.049468	-0.375730	0.050307
C35	C	0.993123	-0.334178	-0.000082
C36	C	1.065145	-0.598326	-0.000064
C37	C	1.063852	-0.671154	-0.000044
C38	C	0.910745	-0.654511	-0.000029
C39	C	0.912040	-0.581685	-0.000040
C40	C	0.989242	-0.553597	-0.000062
C41	C	1.145474	0.090507	-0.000083
C42	C	1.238715	0.091889	-0.000086
C43	C	0.985285	0.223247	-0.000048
C44	C	0.986657	0.300755	-0.000035
N45	N	0.991916	0.095607	-0.230749
C46	C	1.051741	0.046032	-0.470422
C47	C	0.975892	0.032469	-0.529747
C48	C	0.991896	0.095598	-0.412356
C49	C	1.067727	0.109121	-0.529773
C50	C	0.991884	0.095588	-0.587780
C51	C	0.916009	0.082004	-0.470374
C52	C	1.007894	0.158683	-0.470395
C53	C	0.931990	0.145147	-0.529693
C54	C	0.991904	0.095602	-0.311299
C55	C	0.991867	0.095585	-0.688835
N56	N	0.991863	0.095582	0.230607
H57	H	0.449303	0.033502	0.134646
H58	H	1.133536	-0.263540	-0.000102
O59	O	0.538272	0.163059	0.146704
C60	C	0.626566	0.163941	0.145828
H61	H	0.656937	0.119123	0.102556
H62	H	0.642128	0.216074	0.117614
C63	C	0.623666	0.210068	0.294589
C64	C	0.660968	0.155018	0.241446
H65	H	0.644887	0.204567	0.353570
H66	H	0.564180	0.209477	0.295178
H67	H	0.636637	0.253507	0.271066
H68	H	0.647987	0.111582	0.264963
H69	H	0.720452	0.155602	0.240864
H70	H	0.881321	0.187062	-0.555553
O71	O	0.538488	0.163032	-0.146683
C72	C	0.595765	0.117111	-0.196721
H73	H	0.627177	0.074046	-0.151477
H74	H	0.560401	0.092513	-0.252296
C75	C	0.625089	0.211243	-0.292994
C76	C	0.663675	0.158354	-0.237422
H77	H	0.666977	0.236683	-0.318104
H78	H	0.586498	0.242181	-0.259285
H79	H	0.595620	0.190736	-0.339299
H80	H	0.693134	0.178861	-0.191112
H81	H	0.702272	0.127421	-0.271124
O82	O	0.445634	0.027937	-0.146658
C83	C	0.485287	-0.041681	-0.146376
H84	H	0.544695	-0.045030	-0.103641
H85	H	0.440168	-0.077892	-0.117884
C86	C	0.436333	-0.060178	-0.294771
C87	C	0.509304	-0.064290	-0.242289
H88	H	0.451145	-0.074126	-0.353935
H89	H	0.409615	-0.013276	-0.294960
H90	H	0.398741	-0.090354	-0.271018
H91	H	0.546890	-0.034108	-0.266036
H92	H	0.536028	-0.111187	-0.242106
O93	O	0.413422	0.228262	0.000166
C94	C	0.361998	0.238498	0.076504
H95	H	0.345831	0.185614	0.101632
H96	H	0.397225	0.264892	0.130643
C97	C	0.299931	0.350415	0.021950
C98	C	0.280069	0.285462	0.052808
H99	H	0.249395	0.379387	0.007336
H100	H	0.334578	0.343521	-0.029478
H101	H	0.329289	0.372401	0.067072
H102	H	0.250722	0.263473	0.007683
H103	H	0.245415	0.292353	0.104229
O104	O	1.148081	-0.127121	-0.000087
C105	C	1.214797	-0.182222	-0.000117
H106	H	1.191431	-0.231692	0.027922
H107	H	1.238200	-0.192532	-0.071155
C108	C	1.316321	-0.100897	0.023496
C109	C	1.287625	-0.161656	0.057941
H110	H	1.361247	-0.088211	0.059306
H111	H	1.271374	-0.063774	0.023513
H112	H	1.335818	-0.109497	-0.035701
H113	H	1.268120	-0.153052	0.117133
H114	H	1.332571	-0.198777	0.057935
O115	O	0.843688	-0.237846	0.000053
C116	C	0.838346	-0.279454	0.076750
H117	H	0.904615	-0.297585	0.102307
H118	H	0.801062	-0.247278	0.130451
C119	C	0.711963	-0.321607	0.022075
C120	C	0.793357	-0.343881	0.053460
H121	H	0.684209	-0.361347	0.007711
H122	H	0.715560	-0.293573	-0.029596
H123	H	0.680905	-0.294793	0.066831
H124	H	0.824417	-0.370687	0.008700
H125	H	0.789764	-0.371921	0.105123
H126	H	1.131860	0.120562	-0.555864
O127	O	0.846102	-0.094296	-0.000110
C128	C	0.777688	-0.134706	-0.000072
H129	H	0.799210	-0.189062	-0.028099
H130	H	0.754008	-0.139882	0.070966
C131	C	0.679441	-0.031668	-0.023709
C132	C	0.705873	-0.098428	-0.058140
H133	H	0.635140	-0.009290	-0.059524
H134	H	0.725532	-0.004442	-0.023732
H135	H	0.659713	-0.035991	0.035488
H136	H	0.725610	-0.094104	-0.117332
H137	H	0.659783	-0.125653	-0.058129
H138	H	1.102297	0.004092	-0.444396
H139	H	0.847892	-0.677386	-0.000018
H140	H	1.021460	0.212020	-0.444305
H141	H	1.128007	-0.575456	-0.000078
O142	O	0.838231	-0.538332	-0.000080
C143	C	0.769819	-0.578743	-0.000047
H144	H	0.791343	-0.633098	-0.028075
H145	H	0.746135	-0.583921	0.070990
C146	C	0.671571	-0.475707	-0.023685
C147	C	0.698005	-0.542465	-0.058117
H148	H	0.627270	-0.453328	-0.059501
H149	H	0.717660	-0.448480	-0.023703
H150	H	0.651840	-0.480031	0.035512
H151	H	0.717745	-0.538139	-0.117308
H152	H	0.651916	-0.569690	-0.058109
O153	O	0.959762	-0.031229	-0.560707
C154	C	0.949172	-0.076090	-0.488253
H155	H	0.982232	-0.057034	-0.427129
H156	H	0.878980	-0.075819	-0.473587
C157	C	0.947162	-0.174605	-0.586562
C158	C	0.987773	-0.151204	-0.511490
H159	H	0.970969	-0.220940	-0.600896
H160	H	0.954293	-0.144382	-0.635377
H161	H	0.888671	-0.174374	-0.574330
H162	H	1.046261	-0.151428	-0.523727
H163	H	0.980652	-0.181430	-0.462678
O164	O	0.839537	0.068265	-0.439237
C165	C	0.840469	0.068431	-0.345381
H166	H	0.908368	0.057451	-0.320831
H167	H	0.811601	0.121883	-0.319970
C168	C	0.705368	0.024724	-0.340500
C169	C	0.788763	0.011232	-0.310347
H170	H	0.673471	-0.010556	-0.318888
H171	H	0.704738	0.024615	-0.403732
H172	H	0.681323	0.069269	-0.319321
H173	H	0.812810	-0.033308	-0.331535
H174	H	0.789396	0.011333	-0.247117
H175	H	0.564003	-0.026244	0.000002
H176	H	1.125662	-0.707571	-0.000049
