data_functionalizedCrystal
_audit_creation_method	'MofGen! by Chris Wilmer'
_symmetry_space_group_name_H-M	'P1'
_symmetry_Int_Tables_number	1
_symmetry_cell_setting	triclinic
loop_
_symmetry_equiv_pos_as_xyz
  x,y,z
_cell_length_a	14.044220
_cell_length_b	14.971475
_cell_length_c	13.448316
_cell_angle_alpha	89.994121
_cell_angle_beta	90.007340
_cell_angle_gamma	91.600722
loop_
_atom_site_label
_atom_site_type_symbol
_atom_site_fract_x
_atom_site_fract_y
_atom_site_fract_z
O1	O	0.123488	-1.196682	0.082674
O2	O	0.138293	-0.937446	0.082681
O3	O	-0.007098	-1.063173	0.082668
O4	O	0.268880	-1.070955	0.082687
O5	O	-0.007107	-1.063155	-0.082716
O6	O	0.138284	-0.937428	-0.082703
O7	O	0.123480	-1.196664	-0.082710
Cu8	Cu	0.130881	-1.067044	-0.097807
Cu9	Cu	0.130892	-1.067066	0.097778
O10	O	0.268871	-1.070937	-0.082696
C11	C	0.137628	-0.904061	-0.000010
C12	C	0.135650	-0.804607	-0.000008
C13	C	0.134713	-0.757879	-0.090159
C14	C	0.132839	-0.664433	-0.090160
C15	C	0.131908	-0.617716	-0.000008
C16	C	0.132842	-0.664450	0.090150
C17	C	0.134710	-0.757895	0.090150
C18	C	0.128952	-0.469681	0.090145
C19	C	0.127087	-0.376230	0.090146
C20	C	0.127082	-0.376219	-0.090165
C21	C	0.128949	-0.469664	-0.090165
C22	C	0.129885	-0.516392	-0.000007
C23	C	-0.042421	-1.059757	-0.000024
C24	C	-0.147658	-1.049596	-0.000025
C25	C	-0.340339	-1.031020	-0.000010
C26	C	-0.397894	-1.103087	-0.000009
C27	C	-0.505108	-1.092750	-0.000001
C28	C	-0.233115	-1.041355	-0.000019
C29	C	0.304193	-1.074353	-0.000002
C30	C	0.409430	-1.084514	0.000005
C31	C	0.124151	-0.230049	-0.000015
C32	C	0.126150	-0.329502	-0.000006
N33	N	0.130873	-1.067036	-0.235371
C34	C	0.066520	-1.122729	-0.287418
C35	C	0.066519	-1.122734	-0.391521
C36	C	0.130877	-1.067051	-0.443576
C37	C	0.195232	-1.011352	-0.391522
C38	C	0.195228	-1.011343	-0.287421
C39	C	0.195239	-1.011377	-0.608503
C40	C	0.195245	-1.011388	-0.712611
C41	C	0.066530	-1.122769	-0.712602
C42	C	0.066526	-1.122760	-0.608501
C43	C	0.130883	-1.067062	-0.556455
N44	N	0.130892	-1.067081	0.235343
H45	H	0.129713	-0.507698	-0.163575
C46	C	-0.382179	-0.938481	-0.000064
C47	C	-0.481745	-0.946499	-0.000086
C48	C	-0.520332	-0.861273	-0.000153
H49	H	-0.361519	-0.906824	0.057589
H50	H	-0.361485	-0.906889	-0.057765
H51	H	-0.502430	-0.978077	0.057609
H52	H	-0.502431	-0.978140	-0.057734
H53	H	-0.499638	-0.829681	-0.057853
H54	H	-0.499666	-0.829623	0.057501
H55	H	-0.587891	-0.866702	-0.000177
C56	C	-0.003462	-1.183218	-0.231085
C57	C	-0.059836	-1.231973	-0.298952
C58	C	-0.124326	-1.287696	-0.247099
H59	H	0.030589	-1.223248	-0.190456
H60	H	-0.043033	-1.147907	-0.190512
H61	H	-0.020270	-1.267282	-0.339508
H62	H	-0.093908	-1.191966	-0.339583
H63	H	-0.163898	-1.252384	-0.206526
H64	H	-0.090268	-1.327720	-0.206471
H65	H	-0.162590	-1.320777	-0.293138
C66	C	0.130123	-0.520527	0.187956
C67	C	0.212678	-0.570624	0.193210
C68	C	0.213789	-0.617484	0.283289
H69	H	0.129356	-0.479425	0.241734
H70	H	0.075644	-0.559450	0.191710
H71	H	0.267143	-0.531705	0.189466
H72	H	0.213463	-0.611741	0.139453
H73	H	0.159311	-0.656407	0.287042
H74	H	0.213020	-0.576376	0.337060
H75	H	0.269797	-0.651487	0.286861
H76	H	-0.366647	-1.172548	0.000056
H77	H	0.132060	-0.626392	-0.163570
H78	H	0.014118	-1.168083	-0.433896
H79	H	0.132078	-0.626406	0.163554
C80	C	-0.003498	-1.183188	-0.768973
C81	C	-0.096680	-1.161277	-0.743648
C82	C	-0.161207	-1.216927	-0.795550
H83	H	0.005582	-1.175275	-0.838443
H84	H	0.006851	-1.243720	-0.751873
H85	H	-0.107025	-1.100760	-0.760756
H86	H	-0.105790	-1.169195	-0.674187
H87	H	-0.150858	-1.277459	-0.778450
H88	H	-0.152119	-1.209009	-0.865018
H89	H	-0.224438	-1.202073	-0.778368
C90	C	0.265144	-0.950820	-0.768951
C91	C	0.321477	-0.902011	-0.701093
C92	C	0.385865	-0.846193	-0.752957
H93	H	0.304761	-0.986039	-0.809555
H94	H	0.230985	-0.910830	-0.809551
H95	H	0.355633	-0.941996	-0.660511
H96	H	0.281887	-0.866775	-0.660487
H97	H	0.351706	-0.806204	-0.793556
H98	H	0.425475	-0.881419	-0.793559
H99	H	0.424089	-0.813064	-0.706923
H100	H	0.014126	-1.168105	-0.566118
H101	H	0.135474	-0.795940	0.163561
H102	H	0.247642	-0.966019	-0.566130
H103	H	0.247630	-0.966009	-0.433912
H104	H	0.126320	-0.338168	-0.163576
C105	C	0.265253	-0.950993	-0.230962
C106	C	0.358435	-0.972944	-0.256240
C107	C	0.422965	-0.917373	-0.204241
H108	H	0.254983	-0.890444	-0.247996
H109	H	0.256096	-0.958970	-0.161499
H110	H	0.367588	-0.964960	-0.325688
H111	H	0.368734	-1.033483	-0.239203
H112	H	0.413808	-0.925349	-0.134778
H113	H	0.412687	-0.856827	-0.221280
H114	H	0.486196	-0.932264	-0.221378
C115	C	0.135524	-0.808558	-0.188072
C116	C	0.053560	-0.789406	-0.242453
C117	C	0.054264	-0.836082	-0.332651
H118	H	0.190389	-0.790864	-0.225232
H119	H	0.136720	-0.870915	-0.175205
H120	H	0.052373	-0.727063	-0.255323
H121	H	-0.001318	-0.807103	-0.205323
H122	H	0.055460	-0.898438	-0.319784
H123	H	0.109132	-0.818384	-0.369802
H124	H	-0.001351	-0.823100	-0.369555
C125	C	0.126036	-0.325669	0.188128
C126	C	0.127227	-0.386591	0.267086
C127	C	0.126253	-0.340047	0.357361
H128	H	0.180535	-0.286802	0.192016
H129	H	0.070053	-0.291648	0.191924
H130	H	0.183205	-0.420597	0.263292
H131	H	0.072732	-0.425460	0.263230
H132	H	0.070269	-0.306026	0.361157
H133	H	0.180753	-0.301181	0.361240
H134	H	0.127052	-0.381376	0.410945
