data_functionalizedCrystal
_audit_creation_method	'MofGen! by Chris Wilmer'
_symmetry_space_group_name_H-M	'P1'
_symmetry_Int_Tables_number	1
_symmetry_cell_setting	triclinic
loop_
_symmetry_equiv_pos_as_xyz
  x,y,z
_cell_length_a	30.570277
_cell_length_b	30.570279
_cell_length_c	30.570330
_cell_angle_alpha	59.997668
_cell_angle_beta	89.998668
_cell_angle_gamma	60.000192
loop_
_atom_site_label
_atom_site_type_symbol
_atom_site_fract_x
_atom_site_fract_y
_atom_site_fract_z
O1	O	-0.372836	-0.313095	0.013011
O2	O	-0.309225	-0.223519	-0.012953
O3	O	-0.309223	-0.313094	0.076622
O4	O	-0.372839	-0.223520	-0.076564
O5	O	-0.236468	-0.385848	0.076622
O6	O	-0.236471	-0.296273	-0.012953
O7	O	-0.300082	-0.385850	0.013011
Zn8	Zn	-0.256725	-0.352613	0.000029
Zn9	Zn	-0.352582	-0.256756	0.000029
O10	O	-0.300084	-0.296275	-0.076564
C11	C	-0.188654	-0.082303	-0.027139
C12	C	-0.215647	-0.028318	-0.023422
C13	C	-0.136009	-0.108501	-0.027507
C14	C	-0.188656	-0.161512	-0.027144
C15	C	-0.215651	-0.192218	-0.023433
C16	C	-0.136010	-0.187591	-0.027512
C17	C	-0.109441	-0.161515	-0.027139
C18	C	-0.051740	-0.192225	-0.023422
C19	C	-0.215103	-0.108498	-0.027512
C20	C	-0.005122	-0.217036	-0.020418
C21	C	-0.237454	0.015296	-0.020418
C22	C	-0.237459	-0.217026	-0.020433
C23	C	0.053362	-0.248162	-0.016650
C24	C	-0.264813	0.070012	-0.016651
C25	C	-0.264819	-0.248149	-0.016672
C26	C	-0.528835	-0.481158	0.031534
C27	C	-0.502268	-0.534173	0.031905
C28	C	-0.449624	-0.481155	0.031530
C29	C	-0.423176	-0.534171	0.031901
C30	C	-0.449623	-0.560370	0.031533
C31	C	-0.502268	-0.455079	0.031901
C32	C	-0.614448	-0.395339	0.025106
C33	C	-0.668545	-0.366177	0.021050
C34	C	-0.695677	-0.391210	0.019017
C35	C	-0.754333	-0.359592	0.014617
C36	C	-0.668716	-0.445410	0.021045
C37	C	-0.614621	-0.474572	0.025103
C38	C	-0.587489	-0.449534	0.027131
C39	C	-0.449828	-0.639557	0.025109
C40	C	-0.424894	-0.689598	0.021053
C41	C	-0.372730	-0.714694	0.019016
C42	C	-0.345693	-0.768949	0.014615
C43	C	-0.345492	-0.689758	0.021040
C44	C	-0.370425	-0.639721	0.025098
C45	C	-0.422593	-0.614621	0.027130
C46	C	-0.449831	-0.395334	0.025098
C47	C	-0.424899	-0.366164	0.021031
C48	C	-0.372736	-0.391195	0.018994
C49	C	-0.345699	-0.359574	0.014590
C50	C	-0.345499	-0.445391	0.021019
C51	C	-0.370429	-0.474560	0.025084
C52	C	-0.422594	-0.449529	0.027123
C53	C	-0.449629	-0.128223	-0.400622
C54	C	-0.502274	-0.075208	-0.427071
C55	C	-0.449630	-0.128223	-0.321410
C56	C	-0.502275	-0.075207	-0.347979
C57	C	-0.528843	-0.049010	-0.400624
C58	C	-0.423182	-0.154300	-0.347977
C59	C	-0.370237	-0.214043	-0.400414
C60	C	-0.345131	-0.243207	-0.425348
C61	C	-0.372198	-0.218175	-0.477512
C62	C	-0.344980	-0.249795	-0.504549
C63	C	-0.424371	-0.163975	-0.504752
C64	C	-0.449476	-0.134812	-0.479820
C65	C	-0.422408	-0.159848	-0.427652
C66	C	-0.614455	0.030175	-0.480016
C67	C	-0.668553	0.080216	-0.505123
C68	C	-0.695686	0.105313	-0.478056
C69	C	-0.754343	0.159568	-0.505274
C70	C	-0.668725	0.080378	-0.425883
C71	C	-0.614630	0.030342	-0.400778
C72	C	-0.587497	0.005241	-0.427845
C73	C	-0.370239	-0.214042	-0.235795
C74	C	-0.345135	-0.243209	-0.181695
C75	C	-0.372203	-0.218177	-0.154563
C76	C	-0.344985	-0.249796	-0.095906
C77	C	-0.424374	-0.163982	-0.181523
C78	C	-0.449480	-0.134814	-0.235621
C79	C	-0.422410	-0.159847	-0.262755
O80	O	0.226322	-0.385862	0.013031
O81	O	0.073137	-0.296286	-0.012932
O82	O	0.162706	-0.385864	0.076642
O83	O	0.136754	-0.296283	-0.076544
O84	O	0.162707	-0.313113	0.076647
O85	O	0.073139	-0.223534	-0.012927
O86	O	0.226324	-0.313110	0.013035
Zn87	Zn	0.149732	-0.256772	0.000055
Zn88	Zn	0.149729	-0.352625	0.000048
O89	O	0.136756	-0.223532	-0.076539
O90	O	-0.300077	0.213289	0.013034
O91	O	-0.236463	0.086067	-0.012928
O92	O	-0.236466	0.086060	0.076646
O93	O	-0.300074	0.213297	-0.076541
O94	O	-0.309222	0.086062	0.076641
O95	O	-0.309219	0.086070	-0.012933
O96	O	-0.372833	0.213292	0.013029
Zn97	Zn	-0.352577	0.149681	0.000047
Zn98	Zn	-0.256718	0.149678	0.000053
O99	O	-0.372830	0.213300	-0.076546
O100	O	-0.926872	0.304555	-0.541036
O101	O	-0.773688	0.177328	-0.477419
O102	O	-0.863257	0.177325	-0.477417
O103	O	-0.837303	0.304558	-0.541038
O104	O	-0.863255	0.177323	-0.550170
O105	O	-0.773686	0.177326	-0.550173
O106	O	-0.926870	0.304553	-0.613790
Zn107	Zn	-0.850278	0.240939	-0.593533
Zn108	Zn	-0.850280	0.240942	-0.497676
O109	O	-0.837301	0.304556	-0.613792
O110	O	-0.309222	-0.313094	-0.613776
O111	O	-0.372836	-0.223523	-0.550164
O112	O	-0.372834	-0.313097	-0.550160
O113	O	-0.309224	-0.223521	-0.613781
O114	O	-0.300079	-0.385852	-0.477404
O115	O	-0.300081	-0.296279	-0.477409
O116	O	-0.236467	-0.385850	-0.541021
Zn117	Zn	-0.256722	-0.352616	-0.497663
Zn118	Zn	-0.352581	-0.256757	-0.593522
O119	O	-0.236469	-0.296276	-0.541025
C120	C	-0.109443	-0.527076	0.338416
C121	C	-0.051741	-0.581062	0.365410
C122	C	-0.136011	-0.500878	0.364863
C123	C	-0.188656	-0.447863	0.259202
C124	C	-0.215650	-0.417154	0.201500
C125	C	-0.215104	-0.421785	0.285770
C126	C	-0.188656	-0.447863	0.338415
C127	C	-0.215649	-0.417155	0.365408
C128	C	-0.136011	-0.500878	0.285771
C129	C	-0.237457	-0.392345	0.387215
C130	C	-0.005124	-0.624677	0.387218
C131	C	-0.237457	-0.392344	0.154883
C132	C	-0.264816	-0.361220	0.414573
C133	C	0.053360	-0.679395	0.414577
C134	C	-0.264817	-0.361219	0.096399
C135	C	0.176900	-0.447894	0.338441
C136	C	0.173185	-0.417189	0.365437
C137	C	0.177268	-0.500910	0.364887
C138	C	0.176902	-0.447889	0.259226
C139	C	0.173189	-0.417178	0.201523
C140	C	0.177270	-0.500904	0.285792
C141	C	0.176898	-0.527104	0.338437
C142	C	0.173181	-0.581091	0.365429
C143	C	0.177272	-0.421814	0.285795
C144	C	0.170177	-0.624706	0.387234
C145	C	0.170183	-0.392382	0.387246
C146	C	0.170189	-0.392365	0.154906
C147	C	0.166409	-0.679423	0.414591
C148	C	0.166417	-0.361260	0.414607
C149	C	0.166425	-0.361238	0.096422
C150	C	-0.188656	-0.161565	0.338427
C151	C	-0.215650	-0.192274	0.365416
C152	C	-0.136010	-0.187647	0.364876
C153	C	-0.188655	-0.082342	0.259219
C154	C	-0.215648	-0.028347	0.201519
C155	C	-0.136009	-0.108545	0.285789
C156	C	-0.109441	-0.161568	0.338432
C157	C	-0.051739	-0.192281	0.365427
C158	C	-0.215103	-0.108542	0.285783
C159	C	-0.005121	-0.217095	0.387236
C160	C	-0.237458	-0.217086	0.387220
C161	C	-0.237456	0.015274	0.154902
C162	C	0.053363	-0.248225	0.414596
C163	C	-0.264818	-0.248212	0.414575
C164	C	-0.264815	0.070001	0.096420
C165	C	0.118261	-0.049006	-0.400600
C166	C	0.117891	-0.075201	-0.427049
C167	C	0.118257	-0.128221	-0.321388
C168	C	0.117887	-0.154296	-0.347958
C169	C	0.118259	-0.128216	-0.400603
C170	C	0.117889	-0.075206	-0.347955
C171	C	0.124691	0.030176	-0.400391
C172	C	0.128750	0.080217	-0.425324
C173	C	0.130788	0.105316	-0.477489
C174	C	0.135192	0.159570	-0.504524
C175	C	0.128762	0.080383	-0.504729
C176	C	0.124700	0.030348	-0.479798
C177	C	0.122667	0.005244	-0.427629
C178	C	0.124689	-0.134434	-0.479996
C179	C	0.128747	-0.163423	-0.505104
C180	C	0.130780	-0.217623	-0.478038
C181	C	0.135182	-0.249059	-0.505257
C182	C	0.128752	-0.242837	-0.425864
C183	C	0.124692	-0.213848	-0.400759
C184	C	0.122664	-0.159648	-0.427825
C185	C	0.124683	-0.134448	-0.235773
C186	C	0.128745	-0.163447	-0.181672
C187	C	0.130779	-0.217647	-0.154541
C188	C	0.135178	-0.249089	-0.095884
C189	C	0.128755	-0.242857	-0.181502
C190	C	0.124695	-0.213862	-0.235600
C191	C	0.122659	-0.159658	-0.262733
O192	O	0.136720	-0.296316	0.522623
O193	O	0.162693	-0.385890	0.459012
O194	O	0.073116	-0.296315	0.459000
O195	O	0.226297	-0.385891	0.522635
O196	O	0.073125	-0.223561	0.386249
O197	O	0.162702	-0.313136	0.386260
O198	O	0.136728	-0.223562	0.449871
Zn199	Zn	0.149716	-0.256798	0.406515
Zn200	Zn	0.149705	-0.352654	0.502368
O201	O	0.226306	-0.313137	0.449883
C202	C	-0.528835	0.518896	-0.400596
C203	C	-0.502267	0.544976	-0.427040
C204	C	-0.449621	0.439671	-0.321383
C205	C	-0.423173	0.465871	-0.347947
C206	C	-0.449621	0.518894	-0.400591
C207	C	-0.502267	0.465874	-0.347953
C208	C	-0.614449	0.525120	-0.400395
C209	C	-0.668547	0.554117	-0.425332
C210	C	-0.695679	0.608323	-0.477494
C211	C	-0.754336	0.639767	-0.504533
C212	C	-0.668718	0.633538	-0.504729
C213	C	-0.614622	0.604542	-0.479795
C214	C	-0.587490	0.550335	-0.427628
C215	C	-0.449826	0.604722	-0.479976
C216	C	-0.424890	0.633887	-0.505078
C217	C	-0.372726	0.608850	-0.478008
C218	C	-0.345687	0.640471	-0.505221
C219	C	-0.345487	0.554643	-0.425836
C220	C	-0.370420	0.525478	-0.400737
C221	C	-0.422590	0.550520	-0.427807
C222	C	-0.449827	0.360475	-0.235774
C223	C	-0.424895	0.310431	-0.181675
C224	C	-0.372730	0.285329	-0.154541
C225	C	-0.345693	0.231066	-0.095885
C226	C	-0.345493	0.310267	-0.181496
C227	C	-0.370424	0.360310	-0.235593
C228	C	-0.422591	0.385412	-0.262730
H229	H	-0.379922	-0.556092	0.032492
H230	H	-0.592359	0.480981	-0.357920
H231	H	-0.491953	-0.090678	-0.502003
H232	H	-0.492305	-0.374951	0.026761
H233	H	-0.114679	-0.522807	0.408119
C234	C	-0.287748	-0.302821	-0.152047
C235	C	-0.242628	-0.304589	-0.127100
C236	C	-0.185240	-0.364207	-0.097451
C237	C	-0.172973	-0.422057	-0.092748
C238	C	-0.218095	-0.420291	-0.117695
C239	C	-0.275482	-0.360674	-0.147345
H240	H	-0.251708	-0.261763	-0.130581
H241	H	-0.151839	-0.365513	-0.078984
H242	H	-0.130492	-0.466189	-0.070800
H243	H	-0.209015	-0.463117	-0.114215
H244	H	-0.308884	-0.359367	-0.165812
C245	C	-0.584601	-0.367802	0.027345
C246	C	-0.579736	-0.360303	0.072942
C247	C	-0.549891	-0.332763	0.075177
C248	C	-0.524911	-0.312720	0.031813
C249	C	-0.529776	-0.320218	-0.013788
C250	C	-0.559621	-0.347759	-0.016022
H251	H	-0.598228	-0.375140	0.105046
H252	H	-0.546289	-0.327212	0.108934
H253	H	-0.502818	-0.292333	0.033467
H254	H	-0.511284	-0.305381	-0.045891
H255	H	-0.563222	-0.353309	-0.049779
H256	H	-0.258359	-0.086568	-0.028112
H257	H	0.177873	-0.522830	0.264460
C258	C	-0.107189	-0.245285	0.423310
C259	C	-0.098879	-0.305515	0.437667
C260	C	-0.070058	-0.363151	0.496098
C261	C	-0.049546	-0.360557	0.540171
C262	C	-0.057856	-0.300325	0.525815
C263	C	-0.086677	-0.242689	0.467384
H264	H	-0.114064	-0.307437	0.405040
H265	H	-0.063906	-0.407738	0.506725
H266	H	-0.028211	-0.403223	0.583425
H267	H	-0.042671	-0.298403	0.558441
H268	H	-0.092829	-0.198102	0.456757
H269	H	-0.523597	0.587640	-0.470296
H270	H	0.130396	-0.142886	-0.547584
H271	H	-0.690498	0.100513	-0.547603
C272	C	-0.531094	-0.045582	-0.485506
C273	C	-0.583024	-0.039513	-0.499866
C274	C	-0.611845	-0.009886	-0.558299
C275	C	-0.588735	0.013672	-0.602372
C276	C	-0.536802	0.007603	-0.588013
C277	C	-0.507981	-0.022024	-0.529580
H278	H	-0.600134	-0.056952	-0.467240
H279	H	-0.650289	-0.005394	-0.568929
H280	H	-0.610069	0.035603	-0.645628
H281	H	-0.519692	0.025042	-0.620640
H282	H	-0.469537	-0.026516	-0.518951
H283	H	-0.114683	-0.230250	-0.028108
H284	H	0.117290	-0.196956	-0.326627
C285	C	0.178065	-0.530535	0.423320
C286	C	0.224731	-0.597719	0.467391
C287	C	0.225526	-0.627344	0.525822
C288	C	0.179654	-0.589785	0.540181
C289	C	0.132984	-0.522597	0.496108
C290	C	0.132190	-0.492972	0.437678
H291	H	0.258691	-0.625525	0.456763
H292	H	0.260074	-0.677081	0.558447
H293	H	0.180242	-0.611715	0.583434
H294	H	0.099024	-0.494791	0.506737
H295	H	0.097642	-0.443235	0.405053
C296	C	0.122448	-0.074808	-0.509772
C297	C	0.165807	-0.073148	-0.486448
C298	C	0.163569	-0.013524	-0.516222
C299	C	0.117971	0.044441	-0.569320
C300	C	0.074608	0.042783	-0.592646
C301	C	0.076846	-0.016841	-0.562872
H302	H	0.199564	-0.116059	-0.447140
H303	H	0.195669	-0.012297	-0.498954
H304	H	0.116314	0.088578	-0.591360
H305	H	0.040851	0.085694	-0.631955
H306	H	0.044746	-0.018067	-0.580140
H307	H	0.117336	-0.053308	-0.326611
H308	H	-0.447080	-0.322039	0.019384
C309	C	0.178047	-0.364163	0.256969
C310	C	0.178419	-0.335328	0.286174
C311	C	0.179178	-0.277668	0.257342
C312	C	0.179565	-0.248843	0.199305
C313	C	0.179193	-0.277678	0.170096
C314	C	0.178434	-0.335338	0.198928
H315	H	0.178133	-0.356666	0.329140
H316	H	0.179454	-0.256323	0.278965
H317	H	0.180127	-0.206160	0.177961
H318	H	0.179479	-0.256341	0.127130
H319	H	0.178158	-0.356684	0.177306
C320	C	0.130974	-0.135721	-0.152013
C321	C	0.087623	-0.115559	-0.127061
C322	C	0.089858	-0.087839	-0.097396
C323	C	0.135443	-0.080281	-0.092684
C324	C	0.178797	-0.100445	-0.117637
C325	C	0.176563	-0.128165	-0.147302
H326	H	0.053875	-0.121152	-0.130549
H327	H	0.057764	-0.072913	-0.078924
H328	H	0.137098	-0.059761	-0.070724
H329	H	0.212546	-0.094851	-0.114149
H330	H	0.208656	-0.143091	-0.165774
C331	C	0.130991	-0.302463	-0.396089
C332	C	0.179933	-0.362505	-0.385482
C333	C	0.182171	-0.422129	-0.355705
C334	C	0.135465	-0.421710	-0.336536
C335	C	0.086519	-0.361665	-0.347142
C336	C	0.084282	-0.302041	-0.376919
H337	H	0.214511	-0.362818	-0.399673
H338	H	0.218404	-0.466578	-0.347854
H339	H	0.137121	-0.465847	-0.314493
H340	H	0.051941	-0.361353	-0.332951
H341	H	0.048048	-0.257592	-0.384770
C342	C	-0.107196	-0.530490	0.256951
C343	C	-0.049161	-0.588915	0.286160
C344	C	-0.020347	-0.618522	0.257339
C345	C	-0.049568	-0.589703	0.199308
C346	C	-0.107607	-0.531275	0.170095
C347	C	-0.136421	-0.501668	0.198916
H348	H	-0.027526	-0.610252	0.329121
H349	H	0.022617	-0.661775	0.278965
H350	H	-0.028239	-0.611620	0.177973
H351	H	-0.129242	-0.509938	0.127134
H352	H	-0.179385	-0.458415	0.177291
C353	C	-0.273535	-0.078916	0.256954
C354	C	-0.287891	-0.116471	0.248632
C355	C	-0.346319	-0.086845	0.219798
C356	C	-0.390390	-0.019664	0.199286
C357	C	-0.376035	0.017895	0.207607
C358	C	-0.317607	-0.011731	0.236441
H359	H	-0.255266	-0.166206	0.263817
H360	H	-0.356945	-0.114650	0.213638
H361	H	-0.433642	0.002266	0.177941
H362	H	-0.408660	0.067630	0.192422
H363	H	-0.306981	0.016073	0.242601
H364	H	-0.114681	-0.086573	-0.028104
C365	C	-0.698201	-0.306560	0.018818
C366	C	-0.678462	-0.307072	0.065525
C367	C	-0.708120	-0.247455	0.063297
C368	C	-0.757516	-0.187328	0.014361
C369	C	-0.777257	-0.186814	-0.032350
C370	C	-0.747600	-0.246430	-0.030121
H371	H	-0.641894	-0.351584	0.101754
H372	H	-0.693506	-0.247836	0.097875
H373	H	-0.779471	-0.143196	0.012711
H374	H	-0.813826	-0.142302	-0.068578
H375	H	-0.762214	-0.246050	-0.064699
C376	C	-0.107191	-0.078925	0.256981
C377	C	-0.136402	-0.020487	0.198950
C378	C	-0.107585	0.009131	0.170145
C379	C	-0.049555	-0.019689	0.199371
C380	C	-0.020341	-0.078130	0.257405
C381	C	-0.049158	-0.107748	0.286210
H382	H	-0.179362	0.000850	0.177312
H383	H	-0.129212	0.052393	0.127184
H384	H	-0.028223	0.002236	0.178048
H385	H	0.022619	-0.099467	0.279043
H386	H	-0.027531	-0.151011	0.329171
H387	H	0.123038	-0.234377	-0.358280
H388	H	-0.523599	-0.556098	0.032502
H389	H	0.123049	-0.234393	-0.257550
C390	C	0.122451	-0.074829	-0.265615
C391	C	0.076864	-0.016866	-0.270474
C392	C	0.074640	0.042749	-0.300313
C393	C	0.118004	0.044401	-0.325293
C394	C	0.163595	-0.013564	-0.320434
C395	C	0.165819	-0.073179	-0.290596
H396	H	0.044760	-0.018088	-0.251981
H397	H	0.040890	0.085658	-0.303909
H398	H	0.116358	0.088531	-0.347381
H399	H	0.195699	-0.012342	-0.338927
H400	H	0.199568	-0.116088	-0.286999
C401	C	0.130992	-0.302481	-0.151658
C402	C	0.179931	-0.362525	-0.102218
C403	C	0.182166	-0.422148	-0.072374
C404	C	0.135462	-0.421725	-0.091970
C405	C	0.086519	-0.361679	-0.141413
C406	C	0.084284	-0.302057	-0.171257
H407	H	0.214507	-0.362840	-0.087709
H408	H	0.218396	-0.466598	-0.035773
H409	H	0.137116	-0.465861	-0.069877
H410	H	0.051943	-0.361364	-0.155921
H411	H	0.048054	-0.257606	-0.207858
C412	C	0.130983	0.107638	-0.395362
C413	C	0.176574	0.066765	-0.342223
C414	C	0.178805	0.094191	-0.312262
C415	C	0.135444	0.162489	-0.335441
C416	C	0.089850	0.203366	-0.388582
C417	C	0.087619	0.175940	-0.418543
H418	H	0.208676	0.016203	-0.325063
H419	H	0.212557	0.063931	-0.272923
H420	H	0.137095	0.182791	-0.313262
H421	H	0.057748	0.253928	-0.405742
H422	H	0.053867	0.206200	-0.457882
C423	C	-0.288115	-0.472930	0.018779
C424	C	-0.241830	-0.538808	0.065484
C425	C	-0.184445	-0.566346	0.063246
C426	C	-0.173345	-0.528005	0.014304
C427	C	-0.219632	-0.462123	-0.032405
C428	C	-0.277016	-0.434585	-0.030167
H429	H	-0.250045	-0.567193	0.101718
H430	H	-0.150181	-0.615116	0.097824
H431	H	-0.130866	-0.548391	0.012647
H432	H	-0.211416	-0.433738	-0.068638
H433	H	-0.311281	-0.385815	-0.064744
C434	C	0.131006	0.107993	-0.562113
C435	C	0.087655	0.176340	-0.607137
C436	C	0.089899	0.203946	-0.664520
C437	C	0.135494	0.163206	-0.676881
C438	C	0.178849	0.094855	-0.631856
C439	C	0.176605	0.067248	-0.574473
H440	H	0.053900	0.206502	-0.597988
H441	H	0.057805	0.254544	-0.697850
H442	H	0.137155	0.183642	-0.719359
H443	H	0.212604	0.064693	-0.641005
H444	H	0.208699	0.016650	-0.541143
C445	C	-0.698565	-0.472946	0.018805
C446	C	-0.723555	-0.492979	0.062160
C447	C	-0.753400	-0.520518	0.059921
C448	C	-0.758255	-0.528024	0.014327
C449	C	-0.733264	-0.507991	-0.029032
C450	C	-0.703419	-0.480452	-0.026793
H451	H	-0.719961	-0.487423	0.095915
H452	H	-0.771900	-0.535348	0.092018
H453	H	-0.780348	-0.548410	0.012669
H454	H	-0.736857	-0.513547	-0.062787
H455	H	-0.684919	-0.465622	-0.058890
H456	H	-0.592670	-0.518703	0.026754
H457	H	-0.523602	-0.412416	0.032492
H458	H	0.117296	-0.053271	-0.470306
C459	C	-0.364737	0.436250	-0.319136
C460	C	-0.320669	0.369070	-0.298629
C461	C	-0.262235	0.339451	-0.269822
C462	C	-0.247869	0.377012	-0.261522
C463	C	-0.291938	0.444196	-0.282030
C464	C	-0.350372	0.473815	-0.310837
H465	H	-0.331302	0.341261	-0.304773
H466	H	-0.229612	0.289717	-0.254641
H467	H	-0.204612	0.355087	-0.240198
H468	H	-0.281305	0.472005	-0.275887
H469	H	-0.382995	0.523549	-0.326018
C470	C	-0.698575	0.107987	-0.396107
C471	C	-0.703429	0.067246	-0.343003
C472	C	-0.733275	0.094852	-0.313225
C473	C	-0.758267	0.163199	-0.336552
C474	C	-0.753413	0.203943	-0.389658
C475	C	-0.723567	0.176337	-0.419436
H476	H	-0.684928	0.016649	-0.325733
H477	H	-0.736867	0.064690	-0.273912
H478	H	-0.780360	0.183634	-0.314508
H479	H	-0.771914	0.254541	-0.406929
H480	H	-0.719975	0.206499	-0.458749
C481	C	-0.531077	0.436246	-0.319135
C482	C	-0.551595	0.412698	-0.342252
C483	C	-0.580401	0.383068	-0.313432
C484	C	-0.588689	0.376988	-0.261497
C485	C	-0.568170	0.400537	-0.238378
C486	C	-0.539364	0.430166	-0.267197
H487	H	-0.545461	0.417198	-0.380700
H488	H	-0.595591	0.365636	-0.330547
H489	H	-0.610012	0.355054	-0.240163
H490	H	-0.574304	0.396036	-0.199930
H491	H	-0.524174	0.447598	-0.250083
C492	C	-0.454855	0.283000	-0.152029
C493	C	-0.474068	0.256022	-0.171768
C494	C	-0.504029	0.228590	-0.142119
C495	C	-0.514778	0.228136	-0.092730
C496	C	-0.495565	0.255115	-0.072987
C497	C	-0.465603	0.282547	-0.102637
H498	H	-0.466111	0.256357	-0.208332
H499	H	-0.518251	0.208619	-0.156734
H500	H	-0.536957	0.207830	-0.070782
H501	H	-0.503521	0.254780	-0.036424
H502	H	-0.451381	0.302518	-0.088022
H503	H	-0.491961	-0.090687	-0.257571
C504	C	-0.698203	0.526384	-0.395375
C505	C	-0.723139	0.506208	-0.418562
C506	C	-0.752797	0.478475	-0.388608
C507	C	-0.757520	0.470917	-0.335467
C508	C	-0.732584	0.491094	-0.312276
C509	C	-0.702925	0.518827	-0.342231
H510	H	-0.719643	0.511802	-0.457904
H511	H	-0.771257	0.463539	-0.405775
H512	H	-0.779475	0.450387	-0.313293
H513	H	-0.736079	0.485499	-0.272935
H514	H	-0.684466	0.533763	-0.325064
H515	H	-0.492305	-0.619125	0.026767
C516	C	-0.454856	-0.717024	0.018826
C517	C	-0.431676	-0.785323	0.062191
C518	C	-0.461634	-0.812754	0.059965
C519	C	-0.514772	-0.771885	0.014374
C520	C	-0.537955	-0.703582	-0.028993
C521	C	-0.507997	-0.676151	-0.026767
H522	H	-0.392337	-0.815581	0.095942
H523	H	-0.444472	-0.863317	0.092068
H524	H	-0.536949	-0.792191	0.012726
H525	H	-0.577294	-0.673325	-0.062745
H526	H	-0.525159	-0.625588	-0.058871
H527	H	-0.523604	-0.053284	-0.326647
H528	H	0.123031	0.009743	-0.357914
C529	C	-0.288102	0.527102	-0.396058
C530	C	-0.241818	0.461228	-0.376892
C531	C	-0.184433	0.433683	-0.347111
C532	C	-0.173332	0.472013	-0.336496
C533	C	-0.219617	0.537891	-0.355662
C534	C	-0.277002	0.565436	-0.385443
H535	H	-0.250034	0.432850	-0.384750
H536	H	-0.150169	0.384915	-0.332923
H537	H	-0.130852	0.451623	-0.314451
H538	H	-0.211401	0.566269	-0.347805
H539	H	-0.311266	0.614204	-0.399631
C540	C	-0.698567	0.693172	-0.562111
C541	C	-0.748001	0.753210	-0.573202
C542	C	-0.777846	0.812843	-0.630583
C543	C	-0.758259	0.812437	-0.676874
C544	C	-0.708823	0.752397	-0.665785
C545	C	-0.678977	0.692765	-0.608404
H546	H	-0.762503	0.753513	-0.538933
H547	H	-0.814442	0.857289	-0.638792
H548	H	-0.780352	0.856581	-0.719351
H549	H	-0.694321	0.752095	-0.700054
H550	H	-0.642381	0.648319	-0.600195
C551	C	-0.584960	0.632270	-0.509746
C552	C	-0.604685	0.698197	-0.528955
C553	C	-0.575021	0.725924	-0.558905
C554	C	-0.525632	0.687726	-0.569646
C555	C	-0.505904	0.621795	-0.550437
C556	C	-0.535568	0.594068	-0.520487
H557	H	-0.641248	0.726477	-0.521005
H558	H	-0.589625	0.774730	-0.573125
H559	H	-0.503673	0.708251	-0.591817
H560	H	-0.469341	0.593515	-0.558387
H561	H	-0.520964	0.545262	-0.506267
C562	C	-0.454853	0.693510	-0.562463
C563	C	-0.507990	0.751369	-0.574727
C564	C	-0.537948	0.810992	-0.632114
C565	C	-0.514771	0.812758	-0.677235
C566	C	-0.461631	0.754898	-0.664972
C567	C	-0.431672	0.695274	-0.607586
H568	H	-0.525150	0.750063	-0.541325
H569	H	-0.577286	0.853824	-0.641191
H570	H	-0.536948	0.856895	-0.719716
H571	H	-0.444471	0.756203	-0.698375
H572	H	-0.392335	0.652442	-0.598508
C573	C	-0.288107	0.282655	-0.151649
C574	C	-0.243089	0.214312	-0.126669
C575	C	-0.185703	0.186697	-0.096821
C576	C	-0.173335	0.227426	-0.091953
C577	C	-0.218355	0.295773	-0.116933
C578	C	-0.275741	0.323388	-0.146781
H579	H	-0.252243	0.184158	-0.130272
H580	H	-0.152377	0.136102	-0.078329
H581	H	-0.130855	0.206984	-0.069858
H582	H	-0.209201	0.325926	-0.113330
H583	H	-0.309067	0.373983	-0.165273
C584	C	-0.288108	-0.717365	0.018797
C585	C	-0.277011	-0.717856	-0.030147
C586	C	-0.219628	-0.745461	-0.032388
C587	C	-0.173342	-0.772575	0.014316
C588	C	-0.184438	-0.772085	0.063263
C589	C	-0.241821	-0.744480	0.065504
H590	H	-0.311276	-0.697784	-0.064723
H591	H	-0.211414	-0.745824	-0.068622
H592	H	-0.130863	-0.793010	0.012657
H593	H	-0.150173	-0.792157	0.097839
H594	H	-0.250035	-0.744118	0.101739
H595	H	-0.348248	-0.619417	0.026742
H596	H	-0.492302	0.625111	-0.502024
H597	H	-0.348250	-0.518687	0.026730
H598	H	-0.492303	0.380909	-0.257867
H599	H	-0.592678	0.010046	-0.358301
H600	H	-0.348244	0.380614	-0.257539
H601	H	-0.379925	-0.196959	-0.326649
H602	H	-0.348242	0.481343	-0.358259
H603	H	-0.446407	-0.143596	-0.547231
H604	H	-0.258357	-0.379120	0.264434
C605	C	-0.454155	-0.136442	-0.151679
C606	C	-0.464756	-0.174782	-0.102238
C607	C	-0.494534	-0.147242	-0.072394
C608	C	-0.513710	-0.081363	-0.091989
C609	C	-0.503108	-0.043019	-0.141432
C610	C	-0.473331	-0.070558	-0.171277
H611	H	-0.450561	-0.223553	-0.087730
H612	H	-0.502382	-0.175628	-0.035792
H613	H	-0.535753	-0.060977	-0.069896
H614	H	-0.517304	0.005752	-0.155940
H615	H	-0.465483	-0.042173	-0.207878
C616	C	-0.340462	-0.241580	-0.265641
C617	C	-0.287361	-0.249090	-0.270501
C618	C	-0.257586	-0.276633	-0.300345
C619	C	-0.280913	-0.296667	-0.325327
C620	C	-0.334017	-0.289157	-0.320468
C621	C	-0.363792	-0.261614	-0.290624
H622	H	-0.270091	-0.234259	-0.252007
H623	H	-0.218275	-0.282192	-0.303942
H624	H	-0.258871	-0.317056	-0.347419
H625	H	-0.351287	-0.303988	-0.338962
H626	H	-0.403103	-0.256056	-0.287027
H627	H	-0.348193	-0.234430	-0.357937
H628	H	-0.592365	0.009742	-0.502060
C629	C	-0.287747	-0.302825	-0.395386
C630	C	-0.242628	-0.304582	-0.418565
C631	C	-0.185241	-0.364201	-0.388606
C632	C	-0.172974	-0.422063	-0.335467
C633	C	-0.218094	-0.420308	-0.312286
C634	C	-0.275481	-0.360688	-0.342245
H635	H	-0.251707	-0.261747	-0.457904
H636	H	-0.151840	-0.365500	-0.405766
H637	H	-0.130492	-0.466197	-0.313289
H638	H	-0.209014	-0.463142	-0.272947
H639	H	-0.308882	-0.359389	-0.325084
H640	H	0.123059	0.010043	-0.501975
