data_functionalizedCrystal
_audit_creation_method	'MofGen! by Chris Wilmer'
_symmetry_space_group_name_H-M	'P1'
_symmetry_Int_Tables_number	1
_symmetry_cell_setting	triclinic
loop_
_symmetry_equiv_pos_as_xyz
  x,y,z
_cell_length_a	12.645330
_cell_length_b	15.297475
_cell_length_c	15.303935
_cell_angle_alpha	88.486596
_cell_angle_beta	99.668222
_cell_angle_gamma	99.678956
loop_
_atom_site_label
_atom_site_type_symbol
_atom_site_fract_x
_atom_site_fract_y
_atom_site_fract_z
Zn1	Zn	-0.825644	-1.254842	-0.726347
Zn2	Zn	-0.325644	-0.754842	-0.226347
Zn3	Zn	-0.978179	-1.279833	-0.579932
Zn4	Zn	-0.478179	-0.779833	-0.079932
Zn5	Zn	-0.765952	-1.133387	-0.554655
Zn6	Zn	-0.265952	-0.633387	-0.054655
Zn7	Zn	-0.967855	-1.108291	-0.701010
Zn8	Zn	-0.467855	-0.608291	-0.201010
O9	O	-0.884407	-1.194088	-0.640486
O10	O	-0.384407	-0.694088	-0.140486
O11	O	-0.875180	-1.380778	-0.728107
O12	O	-0.375180	-0.880778	-0.228107
O13	O	-0.929366	-1.281368	-0.454054
O14	O	-0.429366	-0.781368	0.045946
O15	O	-0.625537	-1.149543	-0.577456
O16	O	-0.125537	-0.649543	-0.077456
O17	O	-0.987247	-1.399138	-0.620537
O18	O	-0.487247	-0.899138	-0.120537
O19	O	-0.669393	-1.238775	-0.703597
O20	O	-0.169393	-0.738775	-0.203597
O21	O	-0.773444	-1.173775	-0.435483
O22	O	-0.273444	-0.673775	0.064517
O23	O	-0.763433	-1.007438	-0.552887
O24	O	-0.263433	-0.507438	-0.052887
O25	O	-0.969651	-1.106770	-0.826896
O26	O	-0.469651	-0.606770	-0.326896
O27	O	-0.911770	-0.989000	-0.660414
O28	O	-0.411770	-0.489000	-0.160414
O29	O	-0.865169	-1.214440	-0.845511
O30	O	-0.365169	-0.714440	-0.345511
O31	O	-1.125143	-1.257033	-0.595969
O32	O	-0.625143	-0.757033	-0.095969
O33	O	-1.117557	-1.131002	-0.684924
O34	O	-0.617557	-0.631002	-0.184924
C35	C	-0.830004	-0.966424	-0.601159
C36	C	-0.330004	-0.466424	-0.101159
C37	C	-0.806760	-0.869025	-0.584355
C38	C	-0.306760	-0.369025	-0.084355
C39	C	-1.159820	-1.194026	-0.640463
C40	C	-0.659820	-0.694026	-0.140463
C41	C	-1.277667	-1.194075	-0.640496
C42	C	-0.777667	-0.694075	-0.140496
C43	C	-0.922917	-1.155018	-0.868861
C44	C	-0.422917	-0.655018	-0.368861
C45	C	-0.939327	-1.138369	-0.966181
C46	C	-0.439327	-0.638369	-0.466181
C47	C	-1.440605	-1.115032	-0.696715
C48	C	-0.940605	-0.615032	-0.196715
C49	C	-1.317926	-1.114725	-0.696437
C50	C	-0.817926	-0.614725	-0.196437
C51	C	-1.300703	-1.184887	-0.543910
C52	C	-0.800703	-0.684887	-0.043910
C53	C	-1.423272	-1.184405	-0.544251
C54	C	-0.923272	-0.684405	-0.044251
C55	C	-1.470925	-1.282847	-0.680187
C56	C	-0.970925	-0.782847	-0.180187
C57	C	-1.348523	-1.281932	-0.682106
C58	C	-0.848523	-0.781932	-0.182106
C59	C	-0.607929	-1.194171	-0.640533
C60	C	-0.107929	-0.694171	-0.140533
C61	C	-0.490110	-1.194206	-0.640553
C62	C	0.009890	-0.694206	-0.140553
C63	C	-0.939024	-1.422641	-0.679968
C64	C	-0.439024	-0.922641	-0.179968
C65	C	-0.962298	-1.520037	-0.696792
C66	C	-0.462298	-1.020037	-0.196792
C67	C	-1.050550	-0.556231	-0.760587
C68	C	-0.550550	-0.056231	-0.260587
C69	C	-1.072397	-0.647743	-0.776372
C70	C	-0.572397	-0.147743	-0.276372
C71	C	-1.005989	-0.703068	-0.728370
C72	C	-0.505989	-0.203068	-0.228370
C73	C	-0.917731	-0.666873	-0.664578
C74	C	-0.417731	-0.166873	-0.164578
C75	C	-0.895887	-0.575353	-0.648786
C76	C	-0.395887	-0.075353	-0.148786
C77	C	-0.851327	-0.722189	-0.616569
C78	C	-0.351327	-0.222189	-0.116569
C79	C	-0.763068	-0.685994	-0.552778
C80	C	-0.263068	-0.185994	-0.052778
C81	C	-0.741228	-0.594483	-0.536989
C82	C	-0.241228	-0.094483	-0.036989
C83	C	-0.807635	-0.539158	-0.584992
C84	C	-0.307635	-0.039158	-0.084992
C85	C	-0.873171	-0.813709	-0.632361
C86	C	-0.373171	-0.313709	-0.132361
C87	C	-0.718508	-0.832830	-0.520561
C88	C	-0.218508	-0.332830	-0.020561
C89	C	-0.696661	-0.741319	-0.504775
C90	C	-0.196661	-0.241319	-0.004775
C91	C	-0.845984	-1.233057	-0.413008
C92	C	-0.345984	-0.733057	0.086992
C93	C	-0.829315	-1.249876	-0.315718
C94	C	-0.329315	-0.749876	0.184282
C95	C	-1.002108	-1.074858	-0.002023
C96	C	-0.502108	-0.574858	0.497977
C97	C	-1.017780	-1.059057	-0.093432
C98	C	-0.517780	-0.559057	0.406568
C99	C	-0.970665	-1.106760	-0.149008
C100	C	-0.470665	-0.606760	0.350992
C101	C	-0.907876	-1.170268	-0.113166
C102	C	-0.407876	-0.670268	0.386834
C103	C	-0.892210	-1.186075	-0.021749
C104	C	-0.392210	-0.686075	0.478251
C105	C	-0.860766	-1.217977	-0.168734
C106	C	-0.360766	-0.717977	0.331266
C107	C	-0.797978	-1.281484	-0.132892
C108	C	-0.297978	-0.781484	0.367108
C109	C	-0.782314	-1.297288	-0.041483
C110	C	-0.282314	-0.797288	0.458517
C111	C	-0.829429	-1.249585	0.014093
C112	C	-0.329429	-0.749585	0.514093
C113	C	-0.876432	-1.202170	-0.260151
C114	C	-0.376432	-0.702170	0.239849
C115	C	-0.766534	-1.313386	-0.279877
C116	C	-0.266534	-0.813386	0.220123
C117	C	-0.750863	-1.329187	-0.188468
C118	C	-0.250863	-0.829187	0.311532
H119	H	-1.303065	-1.118642	-0.767555
H120	H	-0.803065	-0.618642	-0.267555
H121	H	-1.455344	-1.240426	-0.500119
H122	H	-0.955344	-0.740426	-0.000119
H123	H	-0.731198	-1.349008	-0.012306
H124	H	-0.231198	-0.849008	0.487694
H125	H	-0.669371	-0.565017	-0.485037
H126	H	-0.169371	-0.065017	0.014963
Br127	Br	-1.550034	-1.301968	-0.796986
Br128	Br	-1.050034	-0.801968	-0.296986
Br129	Br	-0.961644	-1.115985	-0.308783
Br130	Br	-0.461644	-0.615985	0.191217
Br131	Br	-1.326568	-1.293964	-0.800715
Br132	Br	-0.826568	-0.793964	-0.300715
H133	H	-0.728171	-1.352231	-0.325127
H134	H	-0.228171	-0.852231	0.174873
Br135	Br	-0.992947	-0.862821	-0.718931
Br136	Br	-0.492947	-0.362821	-0.218931
Br137	Br	-1.192174	-0.696861	-0.862939
Br138	Br	-0.692174	-0.196861	-0.362939
Br139	Br	-1.103001	-0.972882	-0.142070
Br140	Br	-0.603001	-0.472882	0.357930
H141	H	-1.104615	-0.511180	-0.799658
H142	H	-0.604615	-0.011180	-0.299658
H143	H	-0.624800	-0.711835	-0.452835
H144	H	-0.124800	-0.211835	0.047165
H145	H	-0.983428	-1.093891	-0.223436
H146	H	-0.483428	-0.593891	0.276564
H147	H	-1.269634	-1.048692	-0.668918
H148	H	-0.769634	-0.548692	-0.168918
H149	H	-0.789850	-0.464640	-0.572145
H150	H	-0.289850	0.035360	-0.072145
Br151	Br	-1.066051	-1.010133	0.073402
Br152	Br	-0.566051	-0.510133	0.573402
H153	H	-1.274154	-1.241425	-0.500220
H154	H	-0.774154	-0.741425	-0.000220
Br155	Br	-0.628385	-0.907908	-0.455403
Br156	Br	-0.128385	-0.407908	0.044597
H157	H	-1.023782	-0.777581	-0.741226
H158	H	-0.523782	-0.277581	-0.241226
Br159	Br	-1.460602	-1.005629	-0.651329
Br160	Br	-0.960602	-0.505629	-0.151329
Br161	Br	-1.305627	-1.383323	-0.621020
Br162	Br	-0.805627	-0.883323	-0.121020
Br163	Br	-0.808139	-1.271011	0.138157
Br164	Br	-0.308139	-0.771011	0.638157
H165	H	-1.432398	-1.120078	-0.512534
H166	H	-0.932398	-0.620078	-0.012534
H167	H	-1.503590	-1.341639	-0.639476
H168	H	-1.003590	-0.841639	-0.139476
H169	H	-0.699740	-1.380896	-0.159272
H170	H	-0.199740	-0.880896	0.340728
H171	H	-1.485314	-1.118767	-0.768033
H172	H	-0.985314	-0.618767	-0.268033
H173	H	-1.250633	-1.121329	-0.511953
H174	H	-0.750633	-0.621329	-0.011953
