data_functionalizedCrystal
_audit_creation_method	'MofGen! by Chris Wilmer'
_symmetry_space_group_name_H-M	'P1'
_symmetry_Int_Tables_number	1
_symmetry_cell_setting	triclinic
loop_
_symmetry_equiv_pos_as_xyz
  x,y,z
_cell_length_a	10.723024
_cell_length_b	10.723024
_cell_length_c	8.140239
_cell_angle_alpha	89.997644
_cell_angle_beta	89.997577
_cell_angle_gamma	84.467869
loop_
_atom_site_label
_atom_site_type_symbol
_atom_site_fract_x
_atom_site_fract_y
_atom_site_fract_z
O1	O	1.657185	0.175025	-0.136598
O2	O	1.990519	0.508359	0.196735
O3	O	2.323852	0.841692	0.530068
O4	O	1.294033	0.191779	-0.136603
O5	O	1.627366	0.525112	0.196730
O6	O	1.960700	0.858445	0.530063
O7	O	1.483986	0.001826	-0.136595
O8	O	1.817319	0.335159	0.196739
O9	O	2.150653	0.668492	0.530072
O10	O	1.467233	0.364978	-0.136607
O11	O	1.800566	0.698311	0.196726
O12	O	2.133899	1.031645	0.530060
O13	O	1.483975	0.001824	0.136632
O14	O	1.817309	0.335157	0.469966
O15	O	2.150642	0.668490	0.803299
O16	O	1.294023	0.191776	0.136624
O17	O	1.627356	0.525110	0.469957
O18	O	1.960689	0.858443	0.803290
O19	O	1.657175	0.175023	0.136629
O20	O	1.990508	0.508356	0.469962
O21	O	2.323842	0.841690	0.803295
Zn22	Zn	1.475597	0.183399	0.180007
Zn23	Zn	1.808930	0.516733	0.513340
Zn24	Zn	2.142264	0.850066	0.846674
Zn25	Zn	1.475611	0.183402	-0.179982
Zn26	Zn	1.808944	0.516736	0.153352
Zn27	Zn	2.142278	0.850069	0.486685
O28	O	1.467222	0.364976	0.136620
O29	O	1.800555	0.698309	0.469953
O30	O	2.133889	1.031643	0.803287
C31	C	1.247528	0.190558	0.000009
C32	C	1.580862	0.523892	0.333343
C33	C	1.914195	0.857225	0.666676
C34	C	1.108974	0.186911	0.000007
C35	C	1.442307	0.520244	0.333341
C36	C	1.775641	0.853577	0.666674
C37	C	0.917217	0.073603	0.000008
C38	C	1.250550	0.406937	0.333342
C39	C	1.583883	0.740270	0.666675
C40	C	1.060420	0.077371	0.000010
C41	C	1.393753	0.410704	0.333344
C42	C	1.727087	0.744038	0.666677
C43	C	1.482762	-0.044675	0.000017
C44	C	1.816095	0.288658	0.333350
C45	C	2.149428	0.621992	0.666684
C46	C	1.479114	-0.183229	0.000011
C47	C	1.812447	0.150104	0.333344
C48	C	2.145780	0.483437	0.666678
C49	C	1.585401	-0.258212	0.000010
C50	C	1.918735	0.075122	0.333344
C51	C	2.252068	0.408455	0.666677
C52	C	1.581634	-0.401415	0.000004
C53	C	1.914967	-0.068082	0.333338
C54	C	2.248301	0.265251	0.666671
C55	C	1.703680	0.176243	0.000012
C56	C	2.037013	0.509577	0.333346
C57	C	2.370346	0.842910	0.666679
C58	C	1.842234	0.179891	0.000004
C59	C	2.175567	0.513224	0.333337
C60	C	2.508901	0.846558	0.666670
C61	C	1.468447	0.411477	0.000005
C62	C	1.801780	0.744810	0.333338
C63	C	2.135113	1.078143	0.666671
C64	C	1.472094	0.550031	-0.000000
C65	C	1.805428	0.883364	0.333333
C66	C	2.138761	1.216698	0.666667
N67	N	1.475597	0.183397	0.425689
N68	N	1.808930	0.516730	0.759023
N69	N	2.142263	0.850063	1.092356
N70	N	1.475621	0.183395	-0.425664
N71	N	1.808955	0.516729	-0.092331
N72	N	2.142288	0.850062	0.241003
H73	H	0.884056	0.273677	0.000010
H74	H	1.217390	0.607010	0.333344
H75	H	1.550723	0.940344	0.666677
H76	H	1.679187	-0.216390	0.000022
H77	H	2.012521	0.116944	0.333355
H78	H	2.345854	0.450277	0.666688
H79	H	1.381099	-0.385544	0.000012
H80	H	1.714432	-0.052211	0.333345
H81	H	2.047765	0.281123	0.666678
H82	H	1.124853	-0.013619	0.000004
H83	H	1.458186	0.319714	0.333337
H84	H	1.791519	0.653047	0.666671
H85	H	1.672624	-0.465848	0.000011
H86	H	2.005958	-0.132514	0.333344
H87	H	2.339291	0.200819	0.666678
H88	H	1.044549	0.277906	-0.000003
H89	H	1.377882	0.611239	0.333330
H90	H	1.711216	0.944573	0.666663
O91	O	1.354876	-0.238614	0.000024
O92	O	1.688210	0.094719	0.333357
O93	O	2.021543	0.428053	0.666690
H94	H	1.347962	-0.297281	-0.111333
H95	H	1.681295	0.036052	0.222001
H96	H	2.014629	0.369385	0.555334
H97	H	0.875395	-0.020182	0.000036
H98	H	1.208728	0.313151	0.333369
H99	H	1.542061	0.646484	0.666703
