data_functionalizedCrystal
_audit_creation_method	'MofGen! by Chris Wilmer'
_symmetry_space_group_name_H-M	'P1'
_symmetry_Int_Tables_number	1
_symmetry_cell_setting	triclinic
loop_
_symmetry_equiv_pos_as_xyz
  x,y,z
_cell_length_a	6.817900
_cell_length_b	14.125469
_cell_length_c	10.943624
_cell_angle_alpha	94.577781
_cell_angle_beta	108.838799
_cell_angle_gamma	100.398878
loop_
_atom_site_label
_atom_site_type_symbol
_atom_site_fract_x
_atom_site_fract_y
_atom_site_fract_z
V1	V	-4.072455	-0.133089	-0.402053
O2	O	-4.075281	0.006421	-0.394912
O3	O	-4.008096	-0.263918	-0.398809
O4	O	-4.051083	-0.131030	-0.577627
O5	O	-4.031996	-0.127386	-0.214857
V6	V	-4.554648	-0.116403	-0.379722
O7	O	-4.336629	-0.169690	-0.451036
O8	O	-4.740671	-0.079802	-0.330739
O9	O	-4.395801	0.014426	-0.382966
O10	O	-4.669219	-0.255913	-0.386863
O11	O	-4.712504	-0.122106	-0.566918
O12	O	-4.352814	-0.118462	-0.204148
C13	C	-3.848340	-0.295811	-0.392339
C14	C	-3.877185	-0.402765	-0.390858
C15	C	-3.903173	-0.126299	-0.620437
C16	C	-3.966877	-0.125481	-0.763967
C17	C	-3.930069	-0.598591	-0.388165
C18	C	-4.116402	-0.650913	-0.393615
C19	C	-4.145829	-0.759877	-0.392116
C20	C	-3.900634	-0.489617	-0.389663
C21	C	-3.813488	-0.119977	-0.841135
C22	C	-3.976422	-0.201683	-0.946819
C23	C	-3.917476	-0.042328	-0.914029
C24	C	-4.128998	-0.207264	-0.867774
C25	C	-4.069995	-0.047837	-0.834961
C26	C	-4.233059	-0.129567	-0.940615
C27	C	-4.218898	0.046314	-0.389432
C28	C	-4.169292	0.153268	-0.390922
C29	C	-4.164064	-0.123196	-0.161331
C30	C	-4.079599	-0.124009	-0.017800
H31	H	-4.253825	-0.613872	-0.399404
N32	N	-3.577814	-0.114753	-0.783579
H33	H	-3.508149	-0.054231	-0.716797
H34	H	-3.514644	-0.112477	-0.855306
N35	N	-3.748024	-0.647642	-0.380463
H36	H	-3.795181	-0.719655	-0.380454
H37	H	-3.625036	-0.618652	-0.297510
N38	N	-4.246643	-0.299701	-0.840220
H39	H	-4.211651	-0.357756	-0.882039
H40	H	-4.404528	-0.303479	-0.877357
H41	H	-3.937527	-0.266723	-0.995524
N42	N	-4.468828	-0.134951	-0.997878
H43	H	-4.548923	-0.197239	-0.981424
H44	H	-4.510481	-0.133748	-1.094986
N45	N	-4.121420	0.038314	-0.770395
H46	H	-4.040819	0.100562	-0.786616
H47	H	-4.078957	0.036650	-0.673356
N48	N	-3.799851	0.050008	-0.941827
H49	H	-3.641988	0.053541	-0.905470
H50	H	-3.833814	0.108105	-0.899386
