data_functionalizedCrystal
_audit_creation_method	'MofGen! by Chris Wilmer'
_symmetry_space_group_name_H-M	'P1'
_symmetry_Int_Tables_number	1
_symmetry_cell_setting	triclinic
loop_
_symmetry_equiv_pos_as_xyz
  x,y,z
_cell_length_a	19.288864
_cell_length_b	27.732048
_cell_length_c	18.366186
_cell_angle_alpha	89.988789
_cell_angle_beta	89.977106
_cell_angle_gamma	82.889449
loop_
_atom_site_label
_atom_site_type_symbol
_atom_site_fract_x
_atom_site_fract_y
_atom_site_fract_z
O1	O	0.920977	0.060300	-0.060791
O2	O	0.718665	0.068434	-0.060742
O3	O	0.826104	-0.006011	-0.060754
O4	O	0.813538	0.134745	-0.060779
O5	O	0.826086	-0.006014	0.060345
O6	O	0.718647	0.068430	0.060357
O7	O	0.920959	0.060296	0.060309
Zn8	Zn	0.819800	0.064363	0.079560
Zn9	Zn	0.819824	0.064368	-0.079994
O10	O	0.813520	0.134741	0.060321
C11	C	0.692781	0.068171	-0.000186
C12	C	0.615683	0.067385	-0.000167
C13	C	0.570714	0.111066	-0.000186
C14	C	0.498271	0.110328	-0.000194
C15	C	0.470801	0.065906	-0.000197
C16	C	0.515780	0.022219	-0.000174
C17	C	0.588220	0.022959	-0.000159
C18	C	0.362763	0.030987	-0.042642
C19	C	0.290323	0.030250	-0.042662
C20	C	0.247370	0.063624	-0.000241
C21	C	0.276863	0.097744	0.042190
C22	C	0.349304	0.098483	0.042206
C23	C	0.392252	0.065099	-0.000213
C24	C	0.123850	0.106507	-0.000268
C25	C	0.051406	0.105767	-0.000271
C26	C	0.068916	0.017658	-0.000258
C27	C	0.141358	0.018399	-0.000248
C28	C	0.168820	0.062825	-0.000256
C29	C	0.825831	-0.024020	-0.000202
C30	C	0.825037	-0.077678	-0.000196
C31	C	0.883526	-0.416316	-0.000248
C32	C	0.880579	-0.617985	-0.000257
O33	O	0.934063	-0.649079	-0.000302
N34	N	0.816872	-0.637301	-0.000241
C35	C	0.753897	-0.606196	-0.000227
O36	O	0.699643	-0.627253	-0.000222
C37	C	0.756845	-0.404529	-0.000223
C38	C	0.820556	-0.385216	-0.000232
C39	C	0.947232	-0.397002	-0.000257
C40	C	0.947968	-0.346588	-0.000251
C41	C	0.884998	-0.315488	-0.000235
C42	C	0.821292	-0.334801	-0.000226
C43	C	0.693871	-0.373425	-0.000215
C44	C	0.694614	-0.323006	-0.000216
C45	C	0.758325	-0.303693	-0.000224
C46	C	0.759059	-0.253287	-0.000203
N47	N	0.822766	-0.233971	-0.000219
C48	C	0.885735	-0.265071	-0.000235
C49	C	0.752354	-0.712075	-0.000228
C50	C	0.751617	-0.762492	-0.000228
C51	C	0.878299	-0.774276	-0.000259
C52	C	0.879035	-0.723859	-0.000254
C53	C	0.816061	-0.692759	-0.000244
C54	C	0.887276	-0.159197	-0.000221
C55	C	0.888007	-0.108778	-0.000212
C56	C	0.761325	-0.096998	-0.000185
C57	C	0.760595	-0.147412	-0.000190
C58	C	0.823576	-0.178511	-0.000211
O59	O	0.705603	-0.222164	-0.000167
O60	O	0.939982	-0.244005	-0.000257
C61	C	0.882790	-0.466730	-0.000254
C62	C	0.819084	-0.486044	-0.000245
C63	C	0.756114	-0.454943	-0.000229
C64	C	0.818347	-0.536461	-0.000244
C65	C	0.881317	-0.567561	-0.000260
C66	C	0.945023	-0.548245	-0.000276
C67	C	0.945760	-0.497831	-0.000270
C68	C	0.692407	-0.474260	-0.000213
C69	C	0.691676	-0.524674	-0.000218
C70	C	0.754646	-0.555775	-0.000234
C71	C	0.946842	0.060560	-0.000249
C72	C	1.023941	0.061345	-0.000273
C73	C	0.813792	0.152751	-0.000233
C74	C	0.814587	0.206408	-0.000244
N75	N	0.819789	0.064359	0.188451
N76	N	0.819841	0.064367	-0.188885
C77	C	0.867378	0.031411	0.226546
C78	C	0.867383	0.031409	0.302774
C79	C	0.819804	0.064363	0.340904
C80	C	0.772206	0.097314	0.302800
C81	C	0.772198	0.097312	0.226573
C82	C	0.810231	0.108406	0.461658
C83	C	0.810244	0.108409	0.537883
C84	C	0.819824	0.064369	0.576011
C85	C	0.829406	0.020325	0.537906
C86	C	0.829398	0.020323	0.461679
C87	C	0.819807	0.064369	0.423559
C88	C	0.867421	0.031416	0.696761
C89	C	0.867420	0.031413	0.772991
C90	C	0.772247	0.097322	0.773015
C91	C	0.772244	0.097321	0.696787
C92	C	0.819835	0.064368	0.658665
H93	H	0.461651	0.145899	-0.000207
H94	H	0.014793	0.141339	-0.000282
O95	O	0.489214	-0.020974	-0.000149
C96	C	0.514225	-0.108287	-0.000179
C97	C	0.544402	-0.059403	-0.000194
H98	H	0.558829	-0.139369	-0.000231
H99	H	0.480742	-0.110871	0.050504
H100	H	0.480755	-0.110807	-0.050856
H101	H	0.577903	-0.056850	0.050449
H102	H	0.577845	-0.056840	-0.050910
O103	O	0.725961	0.129260	0.339917
C104	C	0.630977	0.139717	0.425996
C105	C	0.683326	0.103487	0.384020
H106	H	0.596483	0.118894	0.461652
H107	H	0.660669	0.163807	0.461706
H108	H	0.596991	0.163277	0.385658
H109	H	0.717325	0.079895	0.424305
H110	H	0.653590	0.079430	0.348299
H111	H	0.996296	-0.573576	-0.000286
H112	H	0.046551	-0.018511	-0.000306
O113	O	0.838678	-0.022501	0.424776
C114	C	0.857717	-0.109867	0.432833
C115	C	0.847204	-0.061404	0.474716
H116	H	0.864628	-0.141332	0.473191
H117	H	0.810116	-0.113037	0.397194
H118	H	0.906245	-0.111106	0.397098
H119	H	0.798702	-0.060132	0.510491
H120	H	0.894841	-0.058254	0.510309
H121	H	0.641991	-0.389141	-0.000212
H122	H	0.624835	-0.012613	-0.000144
O123	O	0.838589	-0.022450	0.574961
C124	C	0.790229	-0.074725	0.661087
C125	C	0.779729	-0.026273	0.619155
H126	H	0.742656	-0.077827	0.696839
H127	H	0.797036	-0.106219	0.620787
H128	H	0.838802	-0.075984	0.696719
H129	H	0.731155	-0.024967	0.583522
H130	H	0.772964	0.005199	0.659494
H131	H	0.643331	-0.297686	-0.000209
H132	H	0.906127	0.004578	0.195509
H133	H	0.177973	-0.017171	-0.000236
O134	O	0.949960	-0.090099	-0.000256
C135	C	1.075533	-0.107118	-0.000245
C136	C	1.005424	-0.128334	-0.000210
H137	H	1.120393	-0.138021	-0.000193
H138	H	1.079101	-0.083818	-0.050935
H139	H	1.079002	-0.083801	0.050425
H140	H	1.001907	-0.151673	-0.050846
H141	H	1.001885	-0.151606	0.050513
O142	O	0.689710	-0.781226	-0.000341
C143	C	0.581201	-0.786535	-0.063036
C144	C	0.651295	-0.765298	-0.063002
H145	H	0.550117	-0.773657	-0.113684
H146	H	0.591441	-0.827913	-0.063086
H147	H	0.550133	-0.773728	-0.012327
H148	H	0.682399	-0.778068	-0.113703
H149	H	0.641006	-0.723922	-0.062914
O150	O	0.404447	-0.001387	-0.083967
C151	C	0.432770	-0.031942	-0.204553
C152	C	0.385526	0.004751	-0.157843
H153	H	0.417480	-0.026999	-0.264289
H154	H	0.489619	-0.025553	-0.197315
H155	H	0.426155	-0.070465	-0.186620
H156	H	0.392080	0.043288	-0.175745
H157	H	0.328696	-0.001681	-0.165084
O158	O	0.235222	0.130270	0.083308
C159	C	0.196460	0.214682	0.107707
C160	C	0.243606	0.177874	0.061089
H161	H	0.203234	0.253177	0.089771
H162	H	0.139573	0.208394	0.100455
H163	H	0.211709	0.209720	0.167452
H164	H	0.228420	0.182814	0.001328
H165	H	0.300482	0.184171	0.068403
H166	H	0.906171	0.004580	0.804008
O167	O	0.261634	-0.002828	-0.083966
C168	C	0.182315	-0.015925	-0.181270
C169	C	0.214760	0.021587	-0.134555
H170	H	0.144399	0.003799	-0.222172
H171	H	0.225427	-0.039650	-0.211633
H172	H	0.153063	-0.039701	-0.144548
H173	H	0.244006	0.045396	-0.171225
H174	H	0.171617	0.045277	-0.104185
O175	O	0.698752	-0.166235	-0.000272
C176	C	0.624393	-0.216279	-0.063031
C177	C	0.694461	-0.195008	-0.063011
H178	H	0.620895	-0.239537	-0.113758
H179	H	0.620863	-0.239631	-0.012391
H180	H	0.579524	-0.185381	-0.062980
H181	H	0.739370	-0.225874	-0.063088
H182	H	0.697930	-0.171642	-0.113647
O183	O	0.948437	-0.189422	-0.000367
C184	C	1.021136	-0.253189	-0.063097
C185	C	0.951856	-0.218980	-0.063038
H186	H	1.023916	-0.277102	-0.113753
H187	H	1.066816	-0.230741	-0.063148
H188	H	1.023943	-0.277072	-0.012396
H189	H	0.948980	-0.195089	-0.113730
H190	H	0.906208	-0.241456	-0.062949
H191	H	0.710057	-0.071667	-0.000169
O192	O	1.009919	-0.327911	-0.000298
C193	C	1.135490	-0.344940	-0.000289
C194	C	1.065377	-0.366151	-0.000250
H195	H	1.180346	-0.375847	-0.000235
H196	H	1.139061	-0.321643	-0.050981
H197	H	1.138964	-0.321622	0.050379
H198	H	1.061855	-0.389491	-0.050884
H199	H	1.061835	-0.389420	0.050475
H200	H	0.593069	0.147241	-0.000194
H201	H	0.998512	-0.422320	-0.000273
H202	H	0.733505	0.124152	0.804060
H203	H	0.373315	0.126263	0.076757
H204	H	0.802446	0.144272	0.568903
H205	H	0.641128	-0.448942	-0.000201
H206	H	0.733444	0.124142	0.195556
H207	H	0.906137	0.004578	0.333797
O208	O	1.007710	-0.479154	-0.000316
C209	C	1.133282	-0.496183	-0.000305
C210	C	1.063168	-0.517394	-0.000268
H211	H	1.178138	-0.527089	-0.000250
H212	H	1.136854	-0.472885	-0.050996
H213	H	1.136755	-0.472864	0.050364
H214	H	1.059648	-0.540734	-0.050901
H215	H	1.059626	-0.540663	0.050458
H216	H	0.930914	-0.708138	-0.000262
H217	H	0.639791	-0.540394	-0.000205
O218	O	0.725994	0.129378	0.659890
C219	C	0.631570	0.194730	0.667961
C220	C	0.683926	0.158459	0.709836
H221	H	0.597534	0.218245	0.708324
H222	H	0.661257	0.218858	0.632269
H223	H	0.597127	0.173912	0.632279
H224	H	0.718383	0.179238	0.745558
H225	H	0.654195	0.134332	0.745482
O226	O	0.939515	-0.804443	-0.000376
C227	C	1.047540	-0.829963	-0.063182
C228	C	0.978252	-0.795763	-0.063123
H229	H	1.078872	-0.822965	-0.113915
H230	H	1.078971	-0.822964	-0.012548
H231	H	1.036047	-0.869310	-0.063145
H232	H	0.989682	-0.756405	-0.063185
H233	H	0.946842	-0.802805	-0.113752
H234	H	0.701070	-0.686757	-0.000220
O235	O	0.913669	-0.000643	0.659837
C236	C	1.008092	-0.065996	0.667857
C237	C	0.955744	-0.029724	0.709761
H238	H	1.042133	-0.089511	0.708201
H239	H	0.978398	-0.090124	0.632211
H240	H	1.042531	-0.045179	0.632126
H241	H	0.921291	-0.050501	0.745531
H242	H	0.985480	-0.005596	0.745360
O243	O	0.800954	0.151233	0.424737
C244	C	0.781934	0.238600	0.432759
C245	C	0.792444	0.190136	0.474661
H246	H	0.775035	0.270065	0.473105
H247	H	0.829531	0.241765	0.397070
H248	H	0.733400	0.239843	0.397072
H249	H	0.840952	0.188859	0.510387
H250	H	0.744810	0.186990	0.510304
H251	H	0.146211	0.142682	-0.000263
