data_functionalizedCrystal
_audit_creation_method	'MofGen! by Chris Wilmer'
_symmetry_space_group_name_H-M	'P1'
_symmetry_Int_Tables_number	1
_symmetry_cell_setting	triclinic
loop_
_symmetry_equiv_pos_as_xyz
  x,y,z
_cell_length_a	11.169417
_cell_length_b	18.101395
_cell_length_c	11.169409
_cell_angle_alpha	89.964326
_cell_angle_beta	89.980176
_cell_angle_gamma	90.031983
loop_
_atom_site_label
_atom_site_type_symbol
_atom_site_fract_x
_atom_site_fract_y
_atom_site_fract_z
Zn1	Zn	1.834789	-0.294752	-0.678515
Zn2	Zn	1.834606	-0.418619	-0.477820
Zn3	Zn	1.634075	-0.294797	-0.477849
Zn4	Zn	1.634010	-0.418558	-0.678465
O5	O	1.734370	-0.356682	-0.578162
O6	O	2.002715	-0.311190	-0.651901
O7	O	1.807956	-0.402238	-0.309874
O8	O	1.660804	-0.191159	-0.504501
O9	O	2.002580	-0.402194	-0.504451
O10	O	1.808268	-0.191125	-0.651929
O11	O	1.660626	-0.311267	-0.309896
O12	O	1.466117	-0.311208	-0.504453
O13	O	1.660693	-0.402091	-0.846421
O14	O	1.466069	-0.402135	-0.651844
O15	O	1.808205	-0.311131	-0.846458
O16	O	1.807892	-0.522244	-0.504403
O17	O	1.660515	-0.522199	-0.651816
C18	C	1.422545	-0.356670	-0.578147
C19	C	1.289145	-0.356684	-0.578169
C20	C	1.734209	-0.549092	-0.578127
C21	C	1.734250	-0.631406	-0.578152
C22	C	1.734514	-0.930497	-0.578217
C23	C	1.642003	-0.899175	-0.671195
C24	C	1.641564	-0.813557	-0.670904
C25	C	1.734383	-0.782115	-0.578186
C26	C	1.700132	-0.813278	-0.451699
C27	C	1.699535	-0.898923	-0.452255
C28	C	1.861478	-0.898837	-0.610612
C29	C	1.860732	-0.813186	-0.613386
C30	C	1.734311	-0.698255	-0.578160
C31	C	1.734583	-1.014357	-0.578234
C32	C	2.047412	-0.356694	-0.578178
C33	C	2.180812	-0.356699	-0.578185
C34	C	1.734462	-0.356599	-0.891205
C35	C	1.734501	-0.356564	-1.024605
C36	C	1.734564	-0.163520	-0.578224
C37	C	1.734647	-0.081206	-0.578250
C38	C	1.734347	-0.356710	-0.266338
C39	C	1.734541	-0.356537	-0.132938
H40	H	1.662994	-0.792484	-0.764693
H41	H	1.930402	-0.919092	-0.542892
H42	H	1.548466	-0.920764	-0.650008
N43	N	1.516912	-0.786499	-0.642473
H44	H	1.462037	-0.830208	-0.630073
H45	H	1.519063	-0.755651	-0.567190
N46	N	1.784873	-0.926392	-0.357341
H47	H	1.849425	-0.957347	-0.395924
H48	H	1.822636	-0.882827	-0.315346
N49	N	1.576600	-0.925488	-0.415919
H50	H	1.583087	-0.956600	-0.341110
H51	H	1.523368	-0.881525	-0.399753
N52	N	1.956877	-0.784846	-0.530221
H53	H	2.018434	-0.756342	-0.577774
H54	H	1.919636	-0.751344	-0.468282
N55	N	1.786568	-0.786308	-0.357424
H56	H	1.848910	-0.753551	-0.395892
H57	H	1.741458	-0.757330	-0.294721
N58	N	1.578496	-0.784957	-0.414696
H59	H	1.516570	-0.801370	-0.474960
H60	H	1.557357	-0.805322	-0.333178
N61	N	1.902868	-0.927366	-0.730694
H62	H	1.844154	-0.911788	-0.794645
H63	H	1.984505	-0.906354	-0.749585
N64	N	1.670091	-0.926383	-0.795836
H65	H	1.743054	-0.959278	-0.793246
H66	H	1.599617	-0.955273	-0.827736
H67	H	1.886561	-0.792814	-0.706473
