data_functionalizedCrystal
_audit_creation_method	'MofGen! by Chris Wilmer'
_symmetry_space_group_name_H-M	'P1'
_symmetry_Int_Tables_number	1
_symmetry_cell_setting	triclinic
loop_
_symmetry_equiv_pos_as_xyz
  x,y,z
_cell_length_a	19.121102
_cell_length_b	19.120786
_cell_length_c	12.645324
_cell_angle_alpha	87.521211
_cell_angle_beta	87.538151
_cell_angle_gamma	89.915559
loop_
_atom_site_label
_atom_site_type_symbol
_atom_site_fract_x
_atom_site_fract_y
_atom_site_fract_z
Zn1	Zn	1.059889	-0.324863	-0.646627
Zn2	Zn	1.054792	-0.442125	-0.461466
Zn3	Zn	0.942644	-0.319893	-0.462152
Zn4	Zn	0.937618	-0.437061	-0.631473
O5	O	0.998736	-0.380986	-0.550429
O6	O	1.157319	-0.344617	-0.628120
O7	O	1.039885	-0.425951	-0.313205
O8	O	0.962433	-0.222443	-0.493252
O9	O	1.153573	-0.430769	-0.492083
O10	O	1.048573	-0.226094	-0.628785
O11	O	0.957490	-0.336147	-0.313709
O12	O	0.843871	-0.331237	-0.478558
O13	O	0.953867	-0.422138	-0.781835
O14	O	0.840179	-0.417320	-0.602957
O15	O	1.043700	-0.339706	-0.792968
O16	O	1.035012	-0.539564	-0.477388
O17	O	0.948924	-0.535843	-0.602291
C18	C	0.816588	-0.373190	-0.539188
C19	C	0.738663	-0.369872	-0.534403
C20	C	0.700147	-0.413199	-0.596812
C21	C	0.626929	-0.410072	-0.592322
C22	C	0.592228	-0.363621	-0.525416
C23	C	0.630750	-0.320289	-0.463005
C24	C	0.703967	-0.323413	-0.467502
C25	C	0.371257	-0.351939	-0.508610
C26	C	0.298035	-0.348820	-0.504115
C27	C	0.294219	-0.438603	-0.633434
C28	C	0.367437	-0.441726	-0.637920
C29	C	0.405952	-0.398391	-0.575513
C30	C	0.517388	-0.360425	-0.520822
C31	C	0.480792	-0.401584	-0.580113
C32	C	0.990889	-0.563143	-0.538145
C33	C	0.987596	-0.641073	-0.532929
C34	C	1.030864	-0.679524	-0.601096
C35	C	1.027767	-0.752748	-0.596197
C36	C	0.981405	-0.787519	-0.523125
C37	C	0.938132	-0.749063	-0.454955
C38	C	0.941226	-0.675841	-0.459860
C39	C	0.969819	-1.008512	-0.504786
C40	C	0.966730	-1.081740	-0.499884
C41	C	1.056364	-1.085419	-0.641129
C42	C	1.059456	-1.012195	-0.646023
C43	C	1.016181	-0.973745	-0.577857
C44	C	0.978240	-0.862366	-0.518113
C45	C	1.019343	-0.898900	-0.582874
C46	C	1.181595	-0.388812	-0.561715
C47	C	1.259519	-0.392148	-0.566524
C48	C	0.998791	-0.380912	-0.826943
C49	C	0.998815	-0.380880	-0.944777
C50	C	1.006632	-0.198118	-0.562786
C51	C	1.009998	-0.120191	-0.568052
C52	C	1.055533	-0.329188	-1.119348
C53	C	1.055367	-0.328986	-0.996790
C54	C	0.925816	-0.357647	-0.986061
C55	C	0.926164	-0.357251	-1.108707
C56	C	1.014493	-0.455859	-1.108140
C57	C	1.016126	-0.455555	-0.985660
C58	C	0.998723	-0.381010	-0.274997
C59	C	0.998843	-0.380850	-0.157186
H60	H	1.068619	-0.651218	-0.660595
C61	C	0.907768	-0.283044	-1.150969
N62	N	0.893923	-0.227147	-1.182797
C63	C	0.887176	-0.787316	-0.374512
N64	N	0.848813	-0.816129	-0.313896
H65	H	1.091595	-1.116733	-0.696627
H66	H	0.882658	-0.393071	-1.133243
H67	H	0.395685	-0.479553	-0.692399
C68	C	0.259866	-0.297717	-0.430512
N69	N	0.231117	-0.259229	-0.375076
H70	H	0.728395	-0.451027	-0.651290
H71	H	0.595572	-0.445355	-0.643140
C72	C	0.867383	-0.406726	-0.939721
N73	N	0.823371	-0.443692	-0.904814
H74	H	1.109596	-0.343899	-0.969244
H75	H	0.402607	-0.316659	-0.457785
H76	H	0.489126	-0.322605	-0.466345
C77	C	0.958663	-0.507914	-1.140350
N78	N	0.916610	-0.547117	-1.164618
C79	C	1.070341	-0.860649	-0.663250
N80	N	1.108756	-0.831832	-0.723784
H81	H	0.509048	-0.439402	-0.634592
C82	C	0.927306	-0.900625	-0.437644
N83	N	0.888963	-0.929445	-0.377005
H84	H	1.063006	-0.784052	-0.651698
H85	H	0.928973	-1.110049	-0.440379
H86	H	0.934583	-0.977212	-0.449281
H87	H	1.097208	-0.983886	-0.705524
C88	C	0.964051	-0.510699	-0.937350
N89	N	0.924821	-0.552232	-0.900965
H90	H	1.045568	-0.273998	-1.153095
H91	H	0.905992	-0.644534	-0.404352
H92	H	0.911861	-0.303316	-0.957977
C93	C	0.592577	-0.269190	-0.389411
N94	N	0.563825	-0.230702	-0.333976
C95	C	1.129052	-0.349136	-1.162622
N96	N	1.184428	-0.364164	-1.195219
C97	C	1.041699	-0.254006	-0.961148
N98	N	1.031401	-0.197529	-0.934304
C99	C	1.088677	-0.479149	-0.949522
N100	N	1.143322	-0.496919	-0.922295
C101	C	0.251847	-0.486263	-0.702085
N102	N	0.219932	-0.522160	-0.753800
C103	C	0.746334	-0.275750	-0.398844
N104	N	0.778244	-0.239848	-0.347131
H105	H	1.066627	-0.476398	-1.141152
