data_functionalizedCrystal
_audit_creation_method	'MofGen! by Chris Wilmer'
_symmetry_space_group_name_H-M	'P1'
_symmetry_Int_Tables_number	1
_symmetry_cell_setting	triclinic
loop_
_symmetry_equiv_pos_as_xyz
  x,y,z
_cell_length_a	17.699083
_cell_length_b	14.421503
_cell_length_c	17.699083
_cell_angle_alpha	90.000692
_cell_angle_beta	96.716985
_cell_angle_gamma	89.986880
loop_
_atom_site_label
_atom_site_type_symbol
_atom_site_fract_x
_atom_site_fract_y
_atom_site_fract_z
O1	O	1.004064	0.076983	-0.095706
O2	O	0.783685	0.077014	-0.108158
O3	O	0.900101	0.076990	0.008257
O4	O	0.887648	0.077008	-0.212121
O5	O	0.900115	-0.077234	0.008250
O6	O	0.783699	-0.077209	-0.108166
O7	O	1.004078	-0.077240	-0.095713
Cu8	Cu	0.893890	-0.091306	-0.101940
Cu9	Cu	0.893873	0.091081	-0.101931
O10	O	0.887662	-0.077216	-0.212129
C11	C	0.755495	-0.000094	-0.107716
C12	C	0.671477	-0.000082	-0.106377
N13	N	0.893907	-0.219588	-0.101946
C14	C	0.622856	-0.000077	-0.174710
C15	C	0.543913	-0.000089	-0.173448
C16	C	0.513592	-0.000100	-0.103852
C17	C	0.562219	-0.000108	-0.035513
C18	C	0.641161	-0.000103	-0.036776
C19	C	0.243856	-0.000131	-0.030418
C20	C	0.164908	-0.000134	-0.029160
C21	C	0.146608	-0.000118	-0.167090
C22	C	0.225550	-0.000112	-0.168353
C23	C	0.274170	-0.000125	-0.100015
C24	C	0.359769	-0.000114	-0.101384
C25	C	0.427995	-0.000105	-0.102481
C26	C	0.947749	-0.469228	-0.048104
C27	C	0.879387	-0.531017	-0.033530
C28	C	0.893890	-0.408749	-0.101937
C29	C	0.962237	-0.531054	-0.116466
C30	C	0.893880	-0.591471	-0.101926
C31	C	0.825493	-0.469177	-0.087330
C32	C	0.908389	-0.469209	-0.170295
C33	C	0.839976	-0.530970	-0.155751
C34	C	0.893897	-0.303488	-0.101941
C35	C	0.893865	-0.696729	-0.101923
C36	C	1.032268	-0.000130	-0.096156
C37	C	1.116286	-0.000135	-0.097494
C38	C	0.899662	-0.000122	0.036451
C39	C	0.898323	-0.000122	0.120469
N40	N	0.893862	0.219362	-0.101919
C41	C	0.888102	-0.000102	-0.240322
C42	C	0.889440	-0.000095	-0.324340
C43	C	0.966656	-0.000133	0.169090
C44	C	0.965394	-0.000125	0.248033
C45	C	0.895798	-0.000112	0.278354
C46	C	0.827459	-0.000098	0.229727
C47	C	0.828722	-0.000100	0.150785
C48	C	0.822364	-0.000090	0.548090
C49	C	0.821106	-0.000091	0.627038
C50	C	0.959036	-0.000115	0.645338
C51	C	0.960299	-0.000116	0.566396
C52	C	0.891961	-0.000098	0.517776
C53	C	0.893330	-0.000105	0.432177
C54	C	0.894427	-0.000111	0.363951
H55	H	0.647537	-0.000068	-0.231384
H56	H	0.794376	-0.557909	-0.201274
C57	C	0.490433	-0.000080	-0.248615
H58	H	0.519797	-0.000061	-0.290244
H59	H	0.459270	-0.053864	-0.250996
H60	H	0.459245	0.053705	-0.250984
H61	H	0.920683	-0.442040	-0.228090
H62	H	1.023330	-0.000149	0.144409
C63	C	0.862801	-0.567697	0.044565
H64	H	0.817668	-0.603914	0.038489
H65	H	0.904167	-0.604883	0.065998
H66	H	0.856324	-0.516913	0.077386
H67	H	0.993248	-0.442117	-0.002553
H68	H	0.250232	-0.000099	-0.225025
C69	C	0.747197	-0.000069	0.494614
H70	H	0.757912	-0.000059	0.443256
H71	H	0.718653	-0.053843	0.503789
H72	H	0.718655	0.053726	0.503798
C73	C	1.034210	-0.000124	0.698819
H74	H	1.075838	-0.000143	0.669453
H75	H	1.036585	0.053657	0.729994
H76	H	1.036588	-0.053912	0.729994
C77	C	1.036854	-0.000126	0.533047
H78	H	1.077372	-0.000122	0.573311
H79	H	1.040222	-0.053906	0.502631
H80	H	1.040205	0.053663	0.502634
C81	C	1.040561	-0.000146	0.301513
H82	H	1.082190	-0.000167	0.272149
H83	H	1.042938	0.053634	0.332689
H84	H	1.042934	-0.053935	0.332687
C85	C	0.747384	-0.432622	-0.070642
H86	H	0.747871	-0.366749	-0.070726
H87	H	0.709117	-0.454261	-0.108660
H88	H	0.736983	-0.454293	-0.022236
H89	H	0.140225	-0.000144	0.027517
H90	H	1.020041	-0.558234	-0.128760
H91	H	0.764429	-0.000083	0.651721
H92	H	0.107012	-0.000112	-0.222734
C93	C	0.297328	-0.000139	0.044751
H94	H	0.267962	-0.000137	0.086379
H95	H	0.328515	-0.053920	0.047125
H96	H	0.328493	0.053649	0.047130
C97	C	0.750904	-0.000087	0.263077
H98	H	0.759938	-0.000098	0.317056
H99	H	0.722767	0.053697	0.246381
H100	H	0.722783	-0.053872	0.246378
C101	C	0.753558	-0.000088	0.097298
H102	H	0.764277	-0.000081	0.045941
H103	H	0.725014	-0.053862	0.106473
H104	H	0.725014	0.053707	0.106477
C105	C	0.528869	-0.000118	0.041041
H106	H	0.474890	-0.000111	0.032008
H107	H	0.545577	-0.053900	0.069171
H108	H	0.545556	0.053669	0.069171
C109	C	0.694644	-0.000099	0.038390
H110	H	0.665282	-0.000096	0.080021
H111	H	0.725834	-0.053877	0.040765
H112	H	0.725805	0.053692	0.040764
