data_functionalizedCrystal
_audit_creation_method	'MofGen! by Chris Wilmer'
_symmetry_space_group_name_H-M	'P1'
_symmetry_Int_Tables_number	1
_symmetry_cell_setting	triclinic
loop_
_symmetry_equiv_pos_as_xyz
  x,y,z
_cell_length_a	8.965430
_cell_length_b	19.288864
_cell_length_c	19.288865
_cell_angle_alpha	83.136245
_cell_angle_beta	89.995194
_cell_angle_gamma	89.982363
loop_
_atom_site_label
_atom_site_type_symbol
_atom_site_fract_x
_atom_site_fract_y
_atom_site_fract_z
O1	O	0.124535	-0.921348	-0.086642
O2	O	0.624535	-0.421348	0.413358
O3	O	0.124435	-0.719088	-0.098331
O4	O	0.624435	-0.219088	0.401669
O5	O	0.124458	-0.826062	0.008643
O6	O	0.624458	-0.326062	0.508643
O7	O	0.124511	-0.814374	-0.193617
O8	O	0.624511	-0.314374	0.306383
O9	O	-0.123621	-0.826053	0.008636
O10	O	0.376379	-0.326053	0.508636
O11	O	-0.123644	-0.719079	-0.098338
O12	O	0.376356	-0.219079	0.401662
O13	O	-0.123544	-0.921339	-0.086650
O14	O	0.376456	-0.421339	0.413350
Cu15	Cu	-0.146246	-0.820208	-0.092495
Cu16	Cu	0.353754	-0.320208	0.407505
Cu17	Cu	0.147136	-0.820219	-0.092486
Cu18	Cu	0.647136	-0.320219	0.407514
O19	O	-0.123567	-0.814364	-0.193624
O20	O	0.376433	-0.314364	0.306376
C21	C	0.000382	-0.693207	-0.097959
C22	C	0.500382	-0.193207	0.402041
C23	C	0.000343	-0.616103	-0.096830
C24	C	0.500343	-0.116103	0.403170
N25	N	-0.352595	-0.820206	-0.092500
N26	N	0.147405	-0.320206	0.407500
C27	C	0.000414	-0.825682	0.034516
C28	C	0.500414	-0.325682	0.534516
C29	C	0.000400	-0.824553	0.111620
C30	C	0.500400	-0.324553	0.611620
C31	C	-0.449911	-0.770718	-0.141956
C32	C	0.050089	-0.270718	0.358044
C33	C	-0.549289	-0.833443	-0.155238
C34	C	-0.049289	-0.333443	0.344762
C35	C	-0.549344	-0.757508	-0.079224
C36	C	-0.049344	-0.257508	0.420776
C37	C	-0.449784	-0.882962	-0.105813
C38	C	0.050216	-0.382962	0.394187
C39	C	-0.449830	-0.806985	-0.029772
C40	C	0.050170	-0.306985	0.470228
C41	C	-0.549163	-0.869755	-0.043027
C42	C	-0.049163	-0.369755	0.456973
N43	N	0.353485	-0.820227	-0.092475
N44	N	0.853485	-0.320227	0.407525
C45	C	0.000512	-0.947220	-0.087022
C46	C	0.500512	-0.447220	0.412978
C47	C	0.000561	-1.024324	-0.088151
C48	C	0.500561	-0.524324	0.411849
C49	C	0.000383	-0.571407	-0.159598
C50	C	0.500383	-0.071407	0.340402
C51	C	0.000399	-0.498960	-0.158537
C52	C	0.500399	0.001040	0.341463
C53	C	0.000405	-0.471212	-0.094705
C54	C	0.500405	0.028788	0.405295
C55	C	0.000357	-0.515918	-0.031929
C56	C	0.500357	-0.015918	0.468071
C57	C	0.000326	-0.588364	-0.032991
C58	C	0.500326	-0.088364	0.467009
C59	C	0.087355	-0.362953	-0.044523
C60	C	0.587355	0.137047	0.455477
C61	C	0.087396	-0.290509	-0.043463
C62	C	0.587396	0.209491	0.456537
C63	C	0.000495	-0.247767	-0.091425
C64	C	0.500495	0.252233	0.408575
C65	C	-0.086427	-0.277476	-0.140459
C66	C	0.413573	0.222524	0.359541
C67	C	-0.086458	-0.349922	-0.141521
C68	C	0.413542	0.150078	0.358479
C69	C	0.000438	-0.392658	-0.093546
C70	C	0.500438	0.107342	0.406454
C71	C	0.000550	-0.124514	-0.153047
C72	C	0.500550	0.375486	0.346953
C73	C	0.000557	-0.052066	-0.151984
C74	C	0.500557	0.447934	0.348016
C75	C	0.000530	-0.069026	-0.025374
C76	C	0.500530	0.430974	0.474626
C77	C	0.000508	-0.141473	-0.026439
C78	C	0.500508	0.358527	0.473561
C79	C	0.000525	-0.169212	-0.090278
C80	C	0.500525	0.330788	0.409722
C81	C	0.000480	-0.814745	-0.219497
C82	C	0.500480	-0.314745	0.280503
C83	C	0.000503	-0.815874	-0.296601
C84	C	0.500503	-0.315874	0.203399
C85	C	0.000424	-0.887321	0.156316
C86	C	0.500424	-0.387321	0.656316
C87	C	0.000447	-0.886260	0.228763
C88	C	0.500447	-0.386260	0.728763
C89	C	0.000417	-0.822428	0.256511
C90	C	0.500417	-0.322428	0.756511
C91	C	0.000401	-0.759652	0.211805
C92	C	0.500401	-0.259652	0.711805
C93	C	0.000393	-0.760714	0.139359
C94	C	0.500393	-0.260714	0.639359
C95	C	-0.086505	-0.772245	0.364796
C96	C	0.413495	-0.272245	0.864796
C97	C	-0.086506	-0.771185	0.437240
C98	C	0.413494	-0.271185	0.937240
C99	C	0.000448	-0.819148	0.479956
C100	C	0.500448	-0.319148	0.979956
C101	C	0.087384	-0.868183	0.450221
C102	C	0.587384	-0.368183	0.950221
C103	C	0.087376	-0.869245	0.377775
C104	C	0.587376	-0.369245	0.877775
C105	C	0.000426	-0.821269	0.335065
C106	C	0.500426	-0.321269	0.835065
C107	C	0.000499	-0.880770	0.603209
C108	C	0.500499	-0.380770	1.103209
C109	C	0.000531	-0.879707	0.675657
C110	C	0.500531	-0.379707	1.175657
C111	C	0.000471	-0.753097	0.658697
C112	C	0.500471	-0.253097	1.158697
C113	C	0.000453	-0.754162	0.586250
C114	C	0.500453	-0.254162	1.086250
C115	C	0.000461	-0.818000	0.558511
C116	C	0.500461	-0.318000	1.058511
H117	H	-0.406332	-0.728907	-0.183817
H118	H	0.093668	-0.228907	0.316183
H119	H	-0.593079	-0.704476	-0.068006
H120	H	-0.093079	-0.204476	0.431994
Cl121	Cl	0.000446	-0.442760	-0.237451
Cl122	Cl	0.500446	0.057240	0.262549
Cl123	Cl	-0.616743	-0.850731	-0.237121
Cl124	Cl	-0.116743	-0.350731	0.262879
Cl125	Cl	0.000600	0.004125	-0.230900
Cl126	Cl	0.500600	0.504125	0.269100
Cl127	Cl	0.000478	-0.965174	0.284963
Cl128	Cl	0.500478	-0.465174	0.784963
H129	H	0.000627	-0.046435	0.026600
H130	H	0.500627	0.453565	0.526600
Cl131	Cl	0.000398	-0.606275	-0.239852
Cl132	Cl	0.500398	-0.106275	0.260148
H133	H	0.158179	-0.266325	-0.003540
H134	H	0.658179	0.233675	0.496460
H135	H	-0.406108	-0.795769	0.023248
H136	H	0.093892	-0.295769	0.523248
H137	H	0.000380	-0.707679	0.234401
H138	H	0.500380	-0.207679	0.734401
Cl139	Cl	0.000467	-0.197666	0.052474
Cl140	Cl	0.500467	0.302334	0.552474
Cl141	Cl	-0.382559	-0.964857	-0.123229
Cl142	Cl	0.117441	-0.464857	0.376771
H143	H	-0.592469	-0.911659	-0.001190
H144	H	-0.092469	-0.411659	0.498810
H145	H	0.000382	-0.493322	0.020044
H146	H	0.500382	0.006678	0.520044
H147	H	-0.157238	-0.374108	-0.181444
H148	H	0.342762	0.125892	0.318556
H149	H	-0.157192	-0.242676	-0.179513
H150	H	0.342808	0.257324	0.320487
H151	H	0.000542	-0.147101	-0.205028
H152	H	0.500542	0.352899	0.294972
H153	H	-0.157286	-0.731255	0.461445
H154	H	0.342714	-0.231255	0.961445
H155	H	0.000426	-0.703049	0.549857
H156	H	0.500426	-0.203049	1.049857
H157	H	0.158129	-0.397749	-0.005465
H158	H	0.658129	0.102251	0.494535
H159	H	0.000294	-0.624756	0.018124
H160	H	0.500294	-0.124756	0.518124
H161	H	0.000512	-0.932751	0.580622
H162	H	0.500512	-0.432751	1.080622
H163	H	0.000435	-0.939303	0.133736
H164	H	0.500435	-0.439303	0.633736
Cl165	Cl	0.196672	-0.930881	0.340395
Cl166	Cl	0.696672	-0.430881	0.840395
H167	H	0.158192	-0.907238	0.484999
H168	H	0.658192	-0.407238	0.984999
Cl169	Cl	-0.195834	-0.711944	0.311102
Cl170	Cl	0.304166	-0.211944	0.811102
Cl171	Cl	0.000441	-0.672850	0.693572
Cl172	Cl	0.500441	-0.172850	1.193572
Cl173	Cl	0.000363	-0.681799	0.083166
Cl174	Cl	0.500363	-0.181799	0.583166
H175	H	0.000559	-0.930822	0.712049
H176	H	0.500559	-0.430822	1.212049
