data_functionalizedCrystal
_audit_creation_method	'MofGen! by Chris Wilmer'
_symmetry_space_group_name_H-M	'P1'
_symmetry_Int_Tables_number	1
_symmetry_cell_setting	triclinic
loop_
_symmetry_equiv_pos_as_xyz
  x,y,z
_cell_length_a	12.759401
_cell_length_b	15.297327
_cell_length_c	12.759393
_cell_angle_alpha	99.642973
_cell_angle_beta	89.979062
_cell_angle_gamma	99.708126
loop_
_atom_site_label
_atom_site_type_symbol
_atom_site_fract_x
_atom_site_fract_y
_atom_site_fract_z
Zn1	Zn	1.533815	-0.359082	-0.666329
Zn2	Zn	1.503263	-0.509967	-0.521034
Zn3	Zn	1.358104	-0.359130	-0.490674
Zn4	Zn	1.327675	-0.509904	-0.696658
O5	O	1.430714	-0.434521	-0.593674
O6	O	1.676782	-0.379103	-0.647069
O7	O	1.483956	-0.490005	-0.369995
O8	O	1.406934	-0.232878	-0.488577
O9	O	1.654335	-0.489958	-0.540320
O10	O	1.536028	-0.232842	-0.617630
O11	O	1.377308	-0.379185	-0.347690
O12	O	1.207048	-0.379124	-0.517986
O13	O	1.355072	-0.489851	-0.839647
O14	O	1.184692	-0.489898	-0.669321
O15	O	1.506522	-0.379042	-0.817364
O16	O	1.454449	-0.636205	-0.569729
O17	O	1.325446	-0.636159	-0.698760
C18	C	1.157749	-0.434510	-0.593651
C19	C	1.040969	-0.434527	-0.593670
C20	C	0.974476	-0.492294	-0.672383
C21	C	0.864751	-0.492298	-0.672404
C22	C	0.888023	-0.376764	-0.514991
C23	C	0.997747	-0.376756	-0.514975
C24	C	0.708324	-0.524669	-0.802783
C25	C	0.641824	-0.582451	-0.881489
C26	C	0.659658	-0.670493	-0.915167
C27	C	0.743986	-0.700772	-0.870126
C28	C	0.810479	-0.642995	-0.791413
C29	C	0.792649	-0.554940	-0.757754
C30	C	1.154174	-0.344394	-0.384596
C31	C	1.220668	-0.286621	-0.305878
C32	C	1.202837	-0.198577	-0.272190
C33	C	1.118505	-0.168302	-0.317213
C34	C	1.052011	-0.226075	-0.395931
C35	C	1.069850	-0.314118	-0.429621
C36	C	1.383359	-0.668916	-0.640853
C37	C	1.363196	-0.769191	-0.661071
C38	C	1.575254	-1.051821	-0.449528
C39	C	1.594198	-0.957608	-0.430526
C40	C	1.536449	-0.910499	-0.488161
C41	C	1.459753	-0.957613	-0.564800
C42	C	1.440802	-1.051836	-0.583798
C43	C	1.401997	-0.910513	-0.622431
C44	C	1.325301	-0.957627	-0.699071
C45	C	1.306354	-1.051841	-0.718065
C46	C	1.364103	-1.098950	-0.660430
C47	C	1.420948	-0.816291	-0.603434
C48	C	1.286496	-0.816305	-0.737704
C49	C	1.267553	-0.910519	-0.756705
C50	C	1.704745	-0.434533	-0.593698
C51	C	1.821521	-0.434538	-0.593708
C52	C	1.430810	-0.434434	-0.867690
C53	C	1.430851	-0.434397	-0.984459
C54	C	1.478284	-0.199211	-0.546334
C55	C	1.498555	-0.098935	-0.526160
C56	C	1.509719	-0.376690	-1.027719
C57	C	1.509744	-0.376651	-1.137435
C58	C	1.352031	-0.492035	-1.160625
C59	C	1.352002	-0.492068	-1.050909
C60	C	1.568832	-0.270211	-1.265979
C61	C	1.647714	-0.212511	-1.309243
C62	C	1.753018	-0.198677	-1.270866
C63	C	1.779459	-0.242556	-1.189229
C64	C	1.700581	-0.300262	-1.145971
C65	C	1.595266	-0.314079	-1.184343
C66	C	1.292924	-0.598510	-0.922364
C67	C	1.214050	-0.656221	-0.879105
C68	C	1.108742	-0.670065	-0.917482
C69	C	1.082303	-0.626202	-0.999126
C70	C	1.161177	-0.568491	-1.042385
C71	C	1.266484	-0.554646	-1.004000
C72	C	1.430692	-0.434542	-0.320711
C73	C	1.430906	-0.434325	-0.203891
H74	H	0.879136	-0.667648	-0.754742
H75	H	1.348686	-1.175666	-0.675900
F76	F	0.762948	-0.794485	-0.905962
H77	H	0.605506	-0.717539	-0.979252
H78	H	1.289334	-0.311280	-0.269219
H79	H	1.483394	-0.777939	-0.541033
F80	F	0.552082	-0.550222	-0.929425
H81	H	1.235588	-0.691945	-0.812635
H82	H	0.693804	-0.452975	-0.775378
H83	H	1.168707	-0.416085	-0.412031
H84	H	1.287837	-0.538990	-1.214741
F85	F	1.405000	-0.583757	-0.881489
F86	F	0.962252	-0.193852	-0.443843
F87	F	1.224723	-1.101981	-0.799627
H88	H	1.239470	-0.777950	-0.784633
F89	F	1.891543	-0.227840	-1.148402
F90	F	0.970223	-0.640937	-1.039976
F91	F	0.842012	-0.315285	-0.431242
F92	F	1.099519	-0.074597	-0.281353
H93	H	1.009664	-0.539333	-0.736464
H94	H	1.205106	-0.948892	-0.819105
F95	F	1.556838	-0.810228	-0.468161
F96	F	1.675827	-0.907472	-0.348972
H97	H	1.044525	-0.717066	-0.882259
H98	H	1.256981	-0.151542	-0.208084
H99	H	1.573921	-0.329728	-0.973617
H100	H	1.622258	-1.090186	-0.402604
H101	H	1.722109	-0.335990	-1.079507
H102	H	1.817245	-0.151696	-1.306100
F103	F	1.456753	-0.284919	-1.306818
F104	F	1.619571	-0.165815	-1.396126
H105	H	1.139641	-0.532776	-1.108864
