data_functionalizedCrystal
_audit_creation_method	'MofGen! by Chris Wilmer'
_symmetry_space_group_name_H-M	'P1'
_symmetry_Int_Tables_number	1
_symmetry_cell_setting	triclinic
loop_
_symmetry_equiv_pos_as_xyz
  x,y,z
_cell_length_a	17.699083
_cell_length_b	10.654541
_cell_length_c	16.776229
_cell_angle_alpha	89.993604
_cell_angle_beta	89.998886
_cell_angle_gamma	83.883472
loop_
_atom_site_label
_atom_site_type_symbol
_atom_site_fract_x
_atom_site_fract_y
_atom_site_fract_z
O1	O	1.005087	0.158809	-0.066176
O2	O	0.784840	0.179470	-0.066202
O3	O	0.900029	-0.013689	-0.066184
O4	O	0.889899	0.351968	-0.066194
O5	O	0.900013	-0.013700	0.066393
O6	O	0.784825	0.179458	0.066374
O7	O	1.005072	0.158797	0.066400
Zn8	Zn	0.894946	0.169126	0.087437
Zn9	Zn	0.894966	0.169142	-0.087238
O10	O	0.889883	0.351956	0.066382
C11	C	0.756631	0.178724	0.000083
C12	C	0.672599	0.176503	0.000073
C13	C	0.624698	0.289883	0.000070
C14	C	0.545741	0.287789	0.000080
C15	C	0.514687	0.172313	0.000088
C16	C	0.562594	0.058924	0.000094
C17	C	0.641549	0.061020	0.000089
C18	C	0.244177	0.050470	0.000114
C19	C	0.165216	0.048383	0.000116
C20	C	0.148369	0.277239	0.000105
C21	C	0.227324	0.279335	0.000100
C22	C	0.275224	0.165946	0.000110
C23	C	0.360838	0.168219	0.000100
C24	C	0.429075	0.170039	0.000092
C25	C	0.899277	-0.060480	0.000104
C26	C	0.897053	-0.199884	0.000103
C27	C	1.034792	-0.230266	0.000129
C28	C	1.102614	-0.310947	0.000144
C29	C	1.100519	-0.441929	0.000141
C30	C	1.030596	-0.492230	0.000121
C31	C	0.962775	-0.411549	0.000106
C32	C	0.964876	-0.280566	0.000111
C33	C	0.825037	-0.381167	0.000074
C34	C	0.827130	-0.250185	0.000083
C35	C	0.755114	-0.431468	0.000054
C36	C	0.687291	-0.350786	0.000045
C37	C	0.689388	-0.219798	0.000049
C38	C	0.759308	-0.169504	0.000068
C39	C	1.033281	0.159543	0.000114
C40	C	1.117313	0.161764	0.000118
C41	C	0.890634	0.398747	0.000093
C42	C	0.892859	0.538151	0.000089
N43	N	0.894937	0.169115	0.206648
N44	N	0.894981	0.169143	-0.206450
C45	C	0.945959	0.083619	0.248373
C46	C	0.945963	0.083618	0.331826
C47	C	0.894949	0.169119	0.373551
C48	C	0.843922	0.254619	0.331820
C49	C	0.843915	0.254613	0.248369
C50	C	0.843950	0.254644	0.668367
C51	C	0.843962	0.254646	0.751824
C52	C	0.945998	0.083648	0.751823
C53	C	0.945990	0.083642	0.668373
C54	C	0.894961	0.169137	0.626649
C55	C	0.894956	0.169136	0.536161
C56	C	0.894957	0.169128	0.464038
H57	H	0.680549	-0.031306	0.000091
F58	F	0.789663	0.345652	0.796229
H59	H	1.036505	-0.123616	0.000142
H60	H	0.634159	-0.154113	0.000034
H61	H	0.753413	-0.538121	0.000047
H62	H	1.159544	-0.269977	0.000167
H63	H	0.761023	-0.062854	0.000076
H64	H	0.987508	0.014000	0.365798
F65	F	1.000260	-0.007380	0.203974
F66	F	0.789625	0.345612	0.376228
H67	H	0.987533	0.014023	0.634402
F68	F	1.000306	-0.007348	0.796235
H69	H	0.802401	0.324259	0.634402
H70	H	0.802367	0.324231	0.214397
F71	F	0.260370	0.402239	0.000087
H72	H	0.537303	-0.035099	0.000111
F73	F	0.494765	0.408464	0.000073
F74	F	0.657740	0.412791	0.000056
H75	H	1.028897	-0.598883	0.000109
F76	F	0.097384	0.397918	0.000098
H77	H	0.630364	-0.391753	0.000024
H78	H	0.139935	-0.045657	0.000123
H79	H	1.155746	-0.507621	0.000147
F80	F	0.295146	-0.070208	0.000124
