data_functionalizedCrystal
_audit_creation_method	'MofGen! by Chris Wilmer'
_symmetry_space_group_name_H-M	'P1'
_symmetry_Int_Tables_number	1
_symmetry_cell_setting	triclinic
loop_
_symmetry_equiv_pos_as_xyz
  x,y,z
_cell_length_a	42.784839
_cell_length_b	42.784841
_cell_length_c	42.784893
_cell_angle_alpha	90.002418
_cell_angle_beta	59.997780
_cell_angle_gamma	119.999863
loop_
_atom_site_label
_atom_site_type_symbol
_atom_site_fract_x
_atom_site_fract_y
_atom_site_fract_z
O1	O	0.275695	-0.214412	-0.009300
O2	O	0.211692	-0.168961	0.009253
O3	O	0.275692	-0.168961	-0.054750
O4	O	0.211694	-0.214412	0.054702
O5	O	0.223708	-0.220945	-0.054749
O6	O	0.159708	-0.220945	0.009253
O7	O	0.223710	-0.266397	-0.009300
Cu8	Cu	0.186962	-0.248417	-0.000023
Cu9	Cu	0.248440	-0.186940	-0.000024
O10	O	0.159710	-0.266396	0.054703
C11	C	0.051021	-0.022778	0.028112
C12	C	0.013142	-0.041761	0.028375
C13	C	0.051018	-0.079378	0.028116
C14	C	0.013139	-0.098275	0.028379
C15	C	-0.005578	-0.079377	0.028112
C16	C	0.069652	-0.041762	0.028379
C17	C	0.152948	0.113708	0.017863
C18	C	0.173786	0.152360	0.014965
C19	C	0.155902	0.171750	0.013509
C20	C	0.178499	0.213661	0.010359
C21	C	0.117177	0.152485	0.014953
C22	C	0.096339	0.113835	0.017857
C23	C	0.114226	0.094447	0.019312
C24	C	-0.131813	-0.113936	0.017859
C25	C	-0.167567	-0.131750	0.014961
C26	C	-0.185502	-0.169024	0.013506
C27	C	-0.224264	-0.188340	0.010358
C28	C	-0.167685	-0.188485	0.014954
C29	C	-0.131938	-0.170675	0.017859
C30	C	-0.114002	-0.133396	0.019309
C31	C	0.152939	-0.113943	0.017877
C32	C	0.173778	-0.131757	0.014977
C33	C	0.155892	-0.169032	0.013523
C34	C	0.178486	-0.188349	0.010377
C35	C	0.117170	-0.188491	0.014967
C36	C	0.096334	-0.170675	0.017865
C37	C	0.114220	-0.133401	0.019323
C38	C	0.091629	0.052537	0.022456
C39	C	0.073617	0.019131	0.024964
C40	C	0.073613	-0.098693	0.024971
C41	C	0.091623	-0.114089	0.022466
C42	C	-0.044339	-0.098690	0.024964
C43	C	-0.075237	-0.114084	0.022456
O44	O	-0.327856	-0.266388	-0.009322
O45	O	-0.236954	-0.220935	0.009228
O46	O	-0.236950	-0.220939	-0.054773
O47	O	-0.327860	-0.266385	0.054680
O48	O	-0.236948	-0.168954	-0.054776
O49	O	-0.236952	-0.168950	0.009225
O50	O	-0.327854	-0.214403	-0.009325
Cu51	Cu	-0.282403	-0.186930	-0.000050
Cu52	Cu	-0.282405	-0.248408	-0.000046
O53	O	-0.327858	-0.214400	0.054676
C54	C	0.384390	-0.079141	-0.361606
C55	C	0.422270	-0.041526	-0.380503
C56	C	0.384390	-0.079141	-0.305008
C57	C	0.422270	-0.041526	-0.323990
C58	C	0.440988	-0.022543	-0.361606
C59	C	0.365758	-0.098038	-0.323991
C60	C	0.282465	-0.170819	-0.396168
C61	C	0.261627	-0.188759	-0.413983
C62	C	0.279513	-0.169420	-0.451257
C63	C	0.256917	-0.188867	-0.470572
C64	C	0.318239	-0.132140	-0.470717
C65	C	0.339076	-0.114205	-0.452905
C66	C	0.321187	-0.133546	-0.415628
C67	C	0.567227	0.113942	-0.453282
C68	C	0.602981	0.152594	-0.471222
C69	C	0.620916	0.171985	-0.451883
C70	C	0.659678	0.213894	-0.471328
C71	C	0.603097	0.152719	-0.414603
C72	C	0.567349	0.114068	-0.396667
C73	C	0.549414	0.094682	-0.416011
C74	C	0.282465	-0.170819	-0.168522
C75	C	0.261624	-0.188757	-0.129868
C76	C	0.279510	-0.169418	-0.110479
C77	C	0.256914	-0.188865	-0.068568
C78	C	0.318233	-0.132140	-0.129742
C79	C	0.339070	-0.114203	-0.168394
C80	C	0.321184	-0.133548	-0.187782
C81	C	0.343783	-0.114094	-0.396315
C82	C	0.361794	-0.098590	-0.380920
C83	C	0.361794	-0.098590	-0.263099
C84	C	0.343783	-0.114094	-0.229693
C85	C	0.479750	0.019366	-0.381054
C86	C	0.510649	0.052771	-0.396557
C87	C	0.440758	-0.356212	-0.028193
C88	C	0.422041	-0.393827	-0.028459
C89	C	0.384158	-0.356213	-0.028190
C90	C	0.365526	-0.393828	-0.028456
C91	C	0.384160	-0.412810	-0.028193
C92	C	0.422038	-0.337315	-0.028456
C93	C	0.567000	-0.264532	-0.017949
C94	C	0.602755	-0.246591	-0.015053
C95	C	0.620692	-0.265931	-0.013601
C96	C	0.659455	-0.246483	-0.010453
C97	C	0.602873	-0.303210	-0.015048
C98	C	0.567125	-0.321146	-0.017949
C99	C	0.549188	-0.301805	-0.019399
C100	C	0.339356	-0.549295	-0.017951
C101	C	0.318645	-0.587947	-0.015055
C102	C	0.279915	-0.607338	-0.013597
C103	C	0.257452	-0.649247	-0.010452
C104	C	0.261899	-0.588073	-0.015042
C105	C	0.282613	-0.549422	-0.017945
C106	C	0.321343	-0.530035	-0.019397
C107	C	0.339344	-0.264537	-0.017936
C108	C	0.318628	-0.246599	-0.015032
C109	C	0.279898	-0.265939	-0.013577
C110	C	0.257433	-0.246493	-0.010426
C111	C	0.261884	-0.303217	-0.015022
C112	C	0.282601	-0.321153	-0.017924
C113	C	0.321334	-0.301808	-0.019385
C114	C	0.510421	-0.321258	-0.022542
C115	C	0.479522	-0.336762	-0.025048
C116	C	0.361696	-0.336765	-0.025041
C117	C	0.343793	-0.321261	-0.022532
C118	C	0.361701	-0.454719	-0.025047
C119	C	0.343799	-0.488125	-0.022541
O120	O	0.223728	0.336934	-0.009323
O121	O	0.159726	0.227482	0.009227
O122	O	0.223729	0.291478	-0.054775
O123	O	0.159725	0.272938	0.054678
O124	O	0.275711	0.291477	-0.054771
O125	O	0.211707	0.227481	0.009230
O126	O	0.275710	0.336932	-0.009320
Cu127	Cu	0.248455	0.282206	-0.000045
Cu128	Cu	0.186981	0.282208	-0.000049
O129	O	0.211707	0.272936	0.054681
O130	O	0.763271	0.337164	-0.496871
O131	O	0.672367	0.227713	-0.451422
O132	O	0.672365	0.291711	-0.451418
O133	O	0.763273	0.273165	-0.496876
O134	O	0.672366	0.291712	-0.503402
O135	O	0.672368	0.227714	-0.503407
O136	O	0.763272	0.337165	-0.548856
Cu137	Cu	0.717820	0.282440	-0.530878
Cu138	Cu	0.717819	0.282438	-0.469400
O139	O	0.763275	0.273167	-0.548860
O140	O	0.211690	-0.214417	-0.548617
O141	O	0.275691	-0.168962	-0.503167
O142	O	0.211689	-0.168964	-0.503163
O143	O	0.275692	-0.214415	-0.548621
O144	O	0.159706	-0.220947	-0.451179
O145	O	0.223708	-0.220945	-0.451183
O146	O	0.159707	-0.266400	-0.496633
Cu147	Cu	0.186961	-0.248419	-0.469161
Cu148	Cu	0.248437	-0.186943	-0.530639
O149	O	0.223709	-0.266398	-0.496637
C150	C	-0.005343	-0.412572	0.361558
C151	C	0.013375	-0.393590	0.380456
C152	C	0.051255	-0.355974	0.304961
C153	C	0.069887	-0.337077	0.323944
C154	C	0.051254	-0.355974	0.361560
C155	C	0.013375	-0.393589	0.323943
C156	C	-0.131582	-0.549057	0.396116
C157	C	-0.167336	-0.587709	0.413930
C158	C	-0.185271	-0.607098	0.451205
C159	C	-0.224034	-0.649009	0.470519
C160	C	-0.167452	-0.587833	0.470666
C161	C	-0.131705	-0.549184	0.452854
C162	C	-0.113770	-0.529796	0.415578
C163	C	0.096061	-0.321414	0.453239
C164	C	0.116773	-0.303600	0.471179
C165	C	0.155502	-0.266327	0.451842
C166	C	0.177965	-0.247011	0.471288
C167	C	0.173517	-0.246866	0.414562
C168	C	0.152802	-0.264677	0.396625
C169	C	0.114073	-0.301955	0.415968
C170	C	0.096064	-0.321412	0.168474
C171	C	0.116779	-0.303599	0.129820
C172	C	0.155508	-0.266324	0.110432
C173	C	0.177972	-0.247009	0.068521
C174	C	0.173522	-0.246865	0.129696
C175	C	0.152807	-0.264680	0.168348
C176	C	0.114075	-0.301953	0.187735
C177	C	-0.075004	-0.487887	0.396265
C178	C	-0.044106	-0.454481	0.380871
C179	C	0.073715	-0.336660	0.263052
C180	C	0.091618	-0.321265	0.229646
C181	C	0.073714	-0.336661	0.381009
C182	C	0.091616	-0.321267	0.396513
C183	C	0.051046	-0.022794	-0.361634
C184	C	0.069679	-0.041778	-0.380530
C185	C	-0.005555	-0.079390	-0.305034
C186	C	0.013163	-0.098288	-0.324016
C187	C	0.051045	-0.079393	-0.361631
C188	C	0.013164	-0.041775	-0.324018
C189	C	0.095858	0.113693	-0.396200
C190	C	0.116571	0.152344	-0.414015
C191	C	0.155302	0.171732	-0.451290
C192	C	0.177767	0.213642	-0.470607
C193	C	0.173317	0.152465	-0.470750
C194	C	0.152600	0.113815	-0.452936
C195	C	0.113869	0.094429	-0.415659
C196	C	0.152973	-0.113959	-0.453306
C197	C	0.173810	-0.131775	-0.471245
C198	C	0.155926	-0.169048	-0.451906
C199	C	0.178519	-0.188366	-0.471350
C200	C	0.117198	-0.188507	-0.414626
C201	C	0.096358	-0.170694	-0.396690
C202	C	0.114251	-0.133416	-0.416035
C203	C	-0.131801	-0.113944	-0.168548
C204	C	-0.167554	-0.131755	-0.129895
C205	C	-0.185491	-0.169029	-0.110504
C206	C	-0.224255	-0.188343	-0.068593
C207	C	-0.167671	-0.188490	-0.129767
C208	C	-0.131918	-0.170677	-0.168418
C209	C	-0.113988	-0.133404	-0.187808
C210	C	0.091411	0.052521	-0.396344
C211	C	0.073508	0.019115	-0.380949
C212	C	-0.044320	-0.098701	-0.263125
C213	C	-0.075220	-0.114094	-0.229719
C214	C	0.073641	-0.098707	-0.381079
C215	C	0.091652	-0.114103	-0.396582
C216	C	-0.615853	-0.356193	0.361535
C217	C	-0.634487	-0.393808	0.380433
C218	C	-0.559253	-0.356195	0.304938
C219	C	-0.577972	-0.393810	0.323921
C220	C	-0.615854	-0.412792	0.361537
C221	C	-0.577972	-0.337297	0.323920
C222	C	-0.660661	-0.264512	0.396093
C223	C	-0.681373	-0.246571	0.413906
C224	C	-0.720104	-0.265909	0.451181
C225	C	-0.742568	-0.246461	0.470495
C226	C	-0.738120	-0.303189	0.470643
C227	C	-0.717405	-0.321125	0.452831
C228	C	-0.678674	-0.301785	0.415554
C229	C	-0.717784	-0.549275	0.453218
C230	C	-0.738622	-0.587926	0.471159
C231	C	-0.720740	-0.607319	0.451822
C232	C	-0.743333	-0.649227	0.471268
C233	C	-0.682012	-0.588055	0.414542
C234	C	-0.661170	-0.549403	0.396604
C235	C	-0.679063	-0.530016	0.415946
C236	C	-0.433006	-0.264522	0.168449
C237	C	-0.397253	-0.246585	0.129796
C238	C	-0.379317	-0.265926	0.110407
C239	C	-0.340553	-0.246480	0.068496
C240	C	-0.397138	-0.303204	0.129672
C241	C	-0.432891	-0.321139	0.168324
C242	C	-0.450820	-0.301793	0.187711
C243	C	-0.656216	-0.321238	0.396242
C244	C	-0.638314	-0.336743	0.380848
C245	C	-0.520488	-0.336748	0.263028
C246	C	-0.489588	-0.321245	0.229622
C247	C	-0.638451	-0.454700	0.380987
C248	C	-0.656463	-0.488106	0.396492
C249	C	0.440756	0.310302	-0.361620
C250	C	0.422038	0.310564	-0.380518
C251	C	0.384160	0.310312	-0.305026
C252	C	0.365528	0.310574	-0.324010
C253	C	0.384159	0.310303	-0.361624
C254	C	0.422038	0.310573	-0.324006
C255	C	0.566989	0.300046	-0.396172
C256	C	0.602741	0.297145	-0.413984
C257	C	0.620675	0.295684	-0.451257
C258	C	0.659436	0.292531	-0.470569
C259	C	0.602857	0.297127	-0.470719
C260	C	0.567111	0.300033	-0.452909
C261	C	0.549177	0.301493	-0.415634
C262	C	0.339351	0.300042	-0.453303
C263	C	0.318640	0.297142	-0.471244
C264	C	0.279912	0.295690	-0.451908
C265	C	0.257449	0.292541	-0.471354
C266	C	0.261899	0.297143	-0.414629
C267	C	0.282613	0.300049	-0.396692
C268	C	0.321341	0.301496	-0.416033
C269	C	0.339354	0.300088	-0.168540
C270	C	0.318640	0.297192	-0.129888
C271	C	0.279912	0.295742	-0.110501
C272	C	0.257450	0.292601	-0.068591
C273	C	0.261898	0.297184	-0.129766
C274	C	0.282612	0.300078	-0.168417
C275	C	0.321344	0.301533	-0.187802
C276	C	0.510413	0.304640	-0.396323
C277	C	0.479516	0.307151	-0.380931
C278	C	0.361701	0.307173	-0.263117
C279	C	0.343799	0.304671	-0.229712
C280	C	0.361700	0.307154	-0.381073
C281	C	0.343798	0.304644	-0.396578
O282	O	0.275503	0.336913	-0.548651
O283	O	0.211494	0.227461	-0.503201
O284	O	0.275490	0.291455	-0.503192
O285	O	0.211507	0.272919	-0.548659
O286	O	0.223502	0.291457	-0.451211
O287	O	0.159506	0.227463	-0.451219
O288	O	0.223515	0.336915	-0.496669
Cu289	Cu	0.186764	0.282189	-0.469197
Cu290	Cu	0.248246	0.282187	-0.530672
O291	O	0.159519	0.272921	-0.496677
C292	C	0.051032	0.254111	0.361530
C293	C	0.013154	0.253851	0.380425
C294	C	0.051031	0.254102	0.304932
C295	C	0.013153	0.253842	0.323913
C296	C	-0.005564	0.254113	0.361527
C297	C	0.069663	0.253840	0.323916
C298	C	0.152954	0.264360	0.396096
C299	C	0.173791	0.267260	0.413911
C300	C	0.155906	0.268721	0.451185
C301	C	0.178502	0.271871	0.470501
C302	C	0.117182	0.267279	0.470643
C303	C	0.096345	0.264374	0.452830
C304	C	0.114233	0.262915	0.415555
C305	C	-0.131796	0.264379	0.453195
C306	C	-0.167548	0.267281	0.471133
C307	C	-0.185483	0.268734	0.451793
C308	C	-0.224243	0.271886	0.471236
C309	C	-0.167664	0.267282	0.414515
C310	C	-0.131919	0.264374	0.396581
C311	C	-0.113984	0.262925	0.415925
C312	C	0.152952	0.264325	0.168451
C313	C	0.173792	0.267221	0.129798
C314	C	0.155907	0.268673	0.110407
C315	C	0.178502	0.271814	0.068498
C316	C	0.117186	0.267232	0.129669
C317	C	0.096350	0.264339	0.168320
C318	C	0.114234	0.262881	0.187709
C319	C	0.091638	0.259769	0.396240
C320	C	0.073627	0.257260	0.380845
C321	C	0.073626	0.257242	0.263024
C322	C	0.091636	0.259743	0.229619
C323	C	-0.044324	0.257264	0.380973
C324	C	-0.075221	0.259775	0.396474
H325	H	0.064808	0.098152	0.019035
H326	H	0.437704	0.310998	-0.308766
C327	C	0.289268	-0.168465	-0.343668
C328	C	0.262803	-0.192081	-0.355196
H329	H	0.277129	-0.181590	-0.318373
H330	H	0.318314	-0.162034	-0.360542
H331	H	0.290302	-0.145757	-0.344264
H332	H	0.261772	-0.214788	-0.354602
H333	H	0.233749	-0.198517	-0.338317
C334	C	0.019199	-0.362347	0.477922
C335	C	0.053481	-0.362381	0.474511
H336	H	-0.007089	-0.387638	0.491054
H337	H	0.014470	-0.346072	0.491873
H338	H	0.026965	-0.353314	0.453152
H339	H	0.045716	-0.371411	0.499281
H340	H	0.058210	-0.378662	0.460561
H341	H	0.167543	-0.083608	-0.469060
C342	C	-0.076948	-0.061449	-0.227855
C343	C	-0.112089	-0.072972	-0.189861
H344	H	-0.064779	-0.036156	-0.241013
H345	H	-0.054839	-0.062047	-0.228295
H346	H	-0.087396	-0.078328	-0.240025
H347	H	-0.101639	-0.056096	-0.177690
H348	H	-0.134202	-0.072372	-0.189419
C349	C	-0.051440	-0.041499	-0.292893
C350	C	-0.007985	-0.021201	-0.303445
H351	H	-0.064497	-0.028799	-0.280191
H352	H	-0.051277	-0.042798	-0.315131
H353	H	-0.068019	-0.066665	-0.276196
H354	H	0.008594	0.003965	-0.320144
H355	H	-0.008146	-0.019897	-0.281204
C356	C	-0.051230	-0.424681	0.445329
C357	C	-0.007778	-0.414140	0.422187
H358	H	-0.064289	-0.437363	0.471093
H359	H	-0.051061	-0.402442	0.443842
H360	H	-0.067810	-0.441395	0.436750
H361	H	0.008803	-0.397425	0.430764
H362	H	-0.007944	-0.436383	0.423675
C363	C	-0.556592	-0.293433	0.270566
C364	C	-0.556823	-0.295576	0.303345
H365	H	-0.543539	-0.267677	0.257867
H366	H	-0.540009	-0.302016	0.253872
H367	H	-0.586075	-0.309148	0.277731
H368	H	-0.527340	-0.279863	0.296181
H369	H	-0.573406	-0.286988	0.320043
C370	C	-0.067804	-0.171555	-0.011528
C371	C	-0.112352	-0.192064	0.019449
H372	H	-0.055711	-0.184759	-0.010546
H373	H	-0.065475	-0.169191	-0.034798
H374	H	-0.052011	-0.146808	-0.010242
H375	H	-0.128145	-0.216810	0.018162
H376	H	-0.114684	-0.194432	0.042725
C377	C	0.226338	0.326574	-0.094889
C378	C	0.219330	0.295593	-0.108460
H379	H	0.200060	0.325593	-0.081739
H380	H	0.234096	0.325297	-0.077883
H381	H	0.249609	0.349844	-0.115843
H382	H	0.196062	0.272323	-0.087506
H383	H	0.211567	0.296867	-0.125467
H384	H	0.064321	0.097912	-0.365848
H385	H	-0.002525	-0.129181	0.028805
C386	C	0.227534	-0.192579	0.133456
C387	C	0.216098	-0.205893	0.108385
H388	H	0.253820	-0.167287	0.120299
H389	H	0.204272	-0.192566	0.154399
H390	H	0.232274	-0.208852	0.142669
H391	H	0.211355	-0.189622	0.099175
H392	H	0.239365	-0.205904	0.087435
C393	C	0.016450	0.253091	0.266244
C394	C	-0.007995	0.253267	0.303339
H395	H	0.003392	0.252734	0.253545
H396	H	0.045928	0.275408	0.252478
H397	H	0.016601	0.231007	0.267552
H398	H	-0.008143	0.275352	0.302030
H399	H	-0.037480	0.230948	0.317108
H400	H	0.102633	-0.218858	-0.398880
C401	C	-0.222314	-0.133866	0.010511
C402	C	-0.187147	-0.110358	0.013365
H403	H	-0.234402	-0.120659	0.009528
H404	H	-0.211917	-0.140302	-0.012107
H405	H	-0.244475	-0.156576	0.032182
H406	H	-0.164985	-0.087649	-0.008307
H407	H	-0.197544	-0.103916	0.035985
H408	H	0.101900	0.168027	-0.398169
C409	C	0.373458	-0.545940	0.013786
C410	C	0.381929	-0.527986	-0.019553
H411	H	0.399741	-0.532785	0.012795
H412	H	0.351194	-0.545495	0.035454
H413	H	0.363699	-0.571715	0.015714
H414	H	0.391685	-0.502212	-0.021480
H415	H	0.404200	-0.528427	-0.041227
H416	H	0.230365	-0.603862	-0.013858
C417	C	0.249103	0.300742	0.109357
C418	C	0.216354	0.268804	0.108627
H419	H	0.275378	0.301717	0.096289
H420	H	0.254896	0.323360	0.097127
H421	H	0.239248	0.298806	0.135153
H422	H	0.226208	0.270742	0.082831
H423	H	0.210561	0.246181	0.120856
H424	H	-0.117415	0.263190	0.366230
C425	C	-0.135293	-0.059646	0.017580
C426	C	-0.112104	-0.072964	0.019460
H427	H	-0.123125	-0.034353	0.018570
H428	H	-0.132961	-0.059636	-0.005694
H429	H	-0.165520	-0.075916	0.038594
H430	H	-0.081878	-0.056696	-0.001556
H431	H	-0.114432	-0.072972	0.042737
H432	H	0.267897	-0.186572	-0.184305
C433	C	0.380718	-0.101399	-0.536559
C434	C	0.337897	-0.110879	-0.511686
H435	H	0.392852	-0.088273	-0.561851
H436	H	0.398664	-0.085385	-0.528733
H437	H	0.379674	-0.124111	-0.535964
H438	H	0.338940	-0.088167	-0.512279
H439	H	0.319945	-0.126894	-0.519515
C440	C	0.042467	-0.228546	0.017571
C441	C	0.053768	-0.192066	0.019456
H442	H	0.016187	-0.241752	0.018556
H443	H	0.065774	-0.226178	-0.005702
H444	H	0.037768	-0.242449	0.038587
H445	H	0.058470	-0.178161	-0.001560
H446	H	0.030456	-0.194432	0.042733
C447	C	0.293631	-0.362168	-0.053830
C448	C	0.262804	-0.362127	-0.019518
H449	H	0.281410	-0.387464	-0.054811
H450	H	0.300730	-0.345858	-0.074837
H451	H	0.319659	-0.353216	-0.055107
H452	H	0.236777	-0.371077	-0.018242
H453	H	0.255699	-0.378443	0.001495
H454	H	0.204850	0.168253	-0.501099
C455	C	0.416216	0.335992	-0.220726
C456	C	0.381925	0.301684	-0.189850
H457	H	0.442496	0.336977	-0.233881
H458	H	0.408452	0.337265	-0.237728
H459	H	0.420960	0.357003	-0.211509
H460	H	0.377179	0.280673	-0.199067
H461	H	0.389690	0.300408	-0.172845
C462	C	0.416209	-0.239855	-0.053850
C463	C	0.381917	-0.243273	-0.019537
H464	H	0.442491	-0.226727	-0.054837
H465	H	0.408448	-0.264619	-0.055126
H466	H	0.420950	-0.225894	-0.074858
H467	H	0.377174	-0.257236	0.001472
H468	H	0.389680	-0.218505	-0.018257
H469	H	0.617482	-0.318952	-0.013867
H470	H	-0.002509	-0.129196	-0.308775
H471	H	-0.382532	-0.318952	0.113884
C472	C	0.183072	-0.263794	0.203098
C473	C	0.172602	-0.243290	0.189526
H474	H	0.195294	-0.250586	0.216171
H475	H	0.157045	-0.288539	0.220173
H476	H	0.203985	-0.266156	0.182153
H477	H	0.151687	-0.240930	0.210472
H478	H	0.198633	-0.218538	0.172450
H479	H	0.552621	-0.351498	-0.019128
C480	C	0.589660	-0.204817	0.018488
C481	C	0.622335	-0.205619	-0.013456
H482	H	0.601749	-0.179523	0.019475
H483	H	0.565807	-0.212729	0.016549
H484	H	0.579270	-0.221652	0.041104
H485	H	0.632724	-0.188786	-0.036073
H486	H	0.646196	-0.197702	-0.011521
H487	H	0.205316	0.168042	0.013788
C488	C	-0.774266	-0.622671	0.536180
C489	C	-0.781192	-0.609098	0.512132
H490	H	-0.800547	-0.635739	0.561475
H491	H	-0.766600	-0.639750	0.527232
H492	H	-0.750958	-0.601727	0.536145
H493	H	-0.804498	-0.630043	0.512164
H494	H	-0.788864	-0.592018	0.521082
H495	H	0.552845	0.098385	-0.366316
C496	C	0.039273	-0.168577	-0.344062
C497	C	0.053786	-0.192084	-0.355718
H498	H	0.012988	-0.181784	-0.318769
H499	H	0.061487	-0.145869	-0.344609
H500	H	0.033493	-0.162139	-0.360902
H501	H	0.059569	-0.198519	-0.338880
H502	H	0.031567	-0.214799	-0.355169
C503	C	0.016386	0.015882	0.029198
C504	C	-0.008044	-0.021207	0.029004
H505	H	0.003297	0.028564	0.029600
H506	H	0.016570	0.014565	0.051260
H507	H	0.045858	0.029670	0.006860
H508	H	-0.037515	-0.034996	0.051343
H509	H	-0.008233	-0.019892	0.006939
C510	C	-0.487646	-0.373771	0.227520
C511	C	-0.452476	-0.362113	0.189500
H512	H	-0.499738	-0.399068	0.240591
H513	H	-0.477251	-0.356941	0.239743
H514	H	-0.509803	-0.373217	0.228008
H515	H	-0.430317	-0.362664	0.189012
H516	H	-0.462871	-0.378948	0.177274
H517	H	-0.182293	-0.218837	0.013775
C518	C	0.123968	-0.240996	0.010523
C519	C	0.097506	-0.229465	0.013370
H520	H	0.111826	-0.266292	0.009539
H521	H	0.153014	-0.224125	-0.012093
H522	H	0.125003	-0.240397	0.032196
H523	H	0.096473	-0.230062	-0.008305
H524	H	0.068452	-0.246341	0.035988
C525	C	-0.154785	-0.230333	-0.109106
C526	C	-0.187385	-0.229462	-0.108452
H527	H	-0.166956	-0.255627	-0.095945
H528	H	-0.130947	-0.222513	-0.134879
H529	H	-0.144347	-0.213456	-0.096930
H530	H	-0.197821	-0.246338	-0.120630
H531	H	-0.211231	-0.237288	-0.082674
C532	C	0.381277	-0.591095	-0.046811
C533	C	0.338445	-0.609122	-0.013465
H534	H	0.393501	-0.604167	-0.045828
H535	H	0.380228	-0.591591	-0.068474
H536	H	0.399153	-0.565302	-0.048742
H537	H	0.320568	-0.634914	-0.011536
H538	H	0.339492	-0.608629	0.008204
H539	H	0.267943	-0.533739	-0.019121
C540	C	0.334134	0.344053	-0.323750
C541	C	0.324382	0.311153	-0.303443
H542	H	0.308732	0.344409	-0.311055
H543	H	0.357669	0.366130	-0.325048
H544	H	0.342607	0.343930	-0.348917
H545	H	0.315912	0.311277	-0.278277
H546	H	0.300839	0.289070	-0.302140
H547	H	0.437930	-0.026285	-0.308746
C548	C	0.095999	0.300775	0.109008
C549	C	0.097523	0.268828	0.108357
H550	H	0.083863	0.301761	0.095850
H551	H	0.078050	0.298843	0.134781
H552	H	0.125053	0.323389	0.096828
H553	H	0.068469	0.246214	0.120540
H554	H	0.115472	0.270757	0.082579
H555	H	-0.002512	0.253428	0.411332
C556	C	0.619370	0.204905	-0.389931
C557	C	0.622810	0.174033	-0.393345
H558	H	0.631537	0.218063	-0.376805
H559	H	0.635096	0.221904	-0.414697
H560	H	0.589140	0.195684	-0.375969
H561	H	0.653041	0.183254	-0.407310
H562	H	0.607085	0.157031	-0.368575
H563	H	0.437935	-0.026287	-0.411409
H564	H	-0.667447	-0.603843	0.398798
C565	C	0.204937	-0.300862	-0.010581
C566	C	0.219315	-0.324477	-0.013429
H567	H	0.178660	-0.313986	-0.009602
H568	H	0.199187	-0.294436	0.012038
H569	H	0.227210	-0.278152	-0.032251
H570	H	0.197043	-0.347186	0.008243
H571	H	0.225063	-0.330909	-0.036050
C572	C	-0.814980	-0.327862	0.511586
C573	C	-0.780693	-0.324447	0.511612
H574	H	-0.841265	-0.340991	0.536879
H575	H	-0.807217	-0.303097	0.502549
H576	H	-0.819717	-0.341821	0.495315
H577	H	-0.775954	-0.310486	0.527881
H578	H	-0.788458	-0.349217	0.520654
C579	C	0.570469	0.299774	-0.341882
C580	C	0.547279	0.301652	-0.355201
H581	H	0.558300	0.300767	-0.316589
H582	H	0.568137	0.276500	-0.341869
H583	H	0.600695	0.320787	-0.358153
H584	H	0.517053	0.280637	-0.338931
H585	H	0.549607	0.324929	-0.355211
C586	C	0.183016	0.293728	0.331147
C587	C	0.172616	0.262754	0.355125
H588	H	0.195156	0.292738	0.305853
H589	H	0.156976	0.292453	0.340184
H590	H	0.203975	0.317002	0.331138
H591	H	0.151654	0.239480	0.355137
H592	H	0.198660	0.264026	0.346086
C593	C	0.123514	-0.282703	0.266277
C594	C	0.111033	-0.295355	0.303374
H595	H	0.148913	-0.256946	0.253581
H596	H	0.130124	-0.298414	0.252511
H597	H	0.099971	-0.284165	0.267584
H598	H	0.134576	-0.293896	0.302067
H599	H	0.104426	-0.279640	0.317143
C600	C	-0.775577	-0.375288	0.510698
C601	C	-0.737207	-0.362100	0.474221
H602	H	-0.787804	-0.400585	0.523902
H603	H	-0.768473	-0.358978	0.524606
H604	H	-0.796480	-0.375249	0.508325
H605	H	-0.716303	-0.362135	0.476594
H606	H	-0.744310	-0.378414	0.460310
H607	H	-0.732353	-0.533492	0.468971
C608	C	0.227657	0.266960	0.356043
C609	C	0.216357	0.268851	0.392522
H610	H	0.253939	0.267945	0.342837
H611	H	0.204351	0.243685	0.358414
H612	H	0.232354	0.287972	0.342137
H613	H	0.211657	0.247837	0.406429
H614	H	0.239669	0.292129	0.390152
C615	C	-0.045039	-0.451256	0.327983
C616	C	-0.007772	-0.414160	0.303368
H617	H	-0.058094	-0.463953	0.315280
H618	H	-0.036484	-0.465021	0.335138
H619	H	-0.065816	-0.449951	0.350221
H620	H	0.013006	-0.415465	0.281130
H621	H	-0.016326	-0.400392	0.296207
H622	H	0.100149	0.253421	0.308676
H623	H	0.335043	-0.409068	-0.028878
H624	H	0.370598	-0.083850	-0.184076
C625	C	0.373090	-0.048429	-0.483774
C626	C	0.381638	-0.073229	-0.474293
H627	H	0.399365	-0.023131	-0.496976
H628	H	0.363243	-0.056344	-0.499717
H629	H	0.350867	-0.048988	-0.461055
H630	H	0.403859	-0.072673	-0.497012
H631	H	0.391491	-0.065311	-0.458350
H632	H	0.100131	-0.026521	0.028807
C633	C	0.058607	-0.361463	0.133827
C634	C	0.096977	-0.324987	0.108646
H635	H	0.046380	-0.374666	0.120755
H636	H	0.065711	-0.375372	0.143031
H637	H	0.037704	-0.359089	0.154768
H638	H	0.117881	-0.327362	0.087706
H639	H	0.089874	-0.311076	0.099436
C640	C	-0.400951	-0.192418	0.133802
C641	C	-0.377663	-0.205609	0.108622
H642	H	-0.388853	-0.167119	0.120731
H643	H	-0.431168	-0.208726	0.143006
H644	H	-0.398617	-0.192458	0.154744
H645	H	-0.379999	-0.205572	0.087681
H646	H	-0.347438	-0.189297	0.099412
H647	H	0.167518	0.263140	0.184235
C648	C	0.227811	0.328898	-0.383904
C649	C	0.219332	0.295552	-0.393374
H650	H	0.201532	0.327915	-0.370784
H651	H	0.237567	0.330832	-0.367887
H652	H	0.250082	0.350562	-0.406620
H653	H	0.197064	0.273888	-0.370658
H654	H	0.209571	0.293614	-0.409392
C655	C	0.480451	0.311302	-0.434889
C656	C	0.443185	0.311134	-0.422240
H657	H	0.493503	0.311653	-0.460645
H658	H	0.501226	0.333381	-0.433431
H659	H	0.471892	0.288981	-0.419173
H660	H	0.451744	0.333456	-0.437955
H661	H	0.422405	0.289052	-0.423701
H662	H	0.437709	-0.409066	-0.028885
C663	C	0.289904	-0.141875	-0.301470
C664	C	0.324593	-0.139752	-0.303396
H665	H	0.264488	-0.167624	-0.288751
H666	H	0.283331	-0.126142	-0.287717
H667	H	0.298366	-0.133303	-0.326637
H668	H	0.316132	-0.148321	-0.278228
H669	H	0.331167	-0.155489	-0.317148
C670	C	-0.449281	-0.239843	0.220634
C671	C	-0.452718	-0.243260	0.189760
H672	H	-0.461450	-0.226716	0.233789
H673	H	-0.465008	-0.264607	0.237636
H674	H	-0.419052	-0.225881	0.211414
H675	H	-0.482947	-0.257224	0.198980
H676	H	-0.436991	-0.218491	0.172755
H677	H	-0.666703	-0.216219	0.398058
C678	C	0.227634	-0.073893	0.015287
C679	C	0.216339	-0.110369	0.013394
H680	H	0.253907	-0.060691	0.014314
H681	H	0.232341	-0.059984	-0.005727
H682	H	0.204317	-0.076266	0.038562
H683	H	0.239654	-0.107996	-0.009883
H684	H	0.211634	-0.124281	0.034409
H685	H	0.552400	-0.248780	-0.019131
C686	C	-0.607306	-0.553410	0.342440
C687	C	-0.618605	-0.528230	0.355629
H688	H	-0.581030	-0.540339	0.317142
H689	H	-0.602604	-0.562614	0.358751
H690	H	-0.630619	-0.574352	0.342478
H691	H	-0.595293	-0.507290	0.355594
H692	H	-0.623304	-0.519021	0.339313
H693	H	0.102618	0.168275	0.013770
H694	H	0.102623	0.268466	0.500992
C695	C	0.182862	0.079066	-0.453808
C696	C	0.172399	0.092637	-0.474321
H697	H	0.195083	0.065990	-0.467010
H698	H	0.203768	0.100009	-0.451444
H699	H	0.156828	0.061991	-0.429060
H700	H	0.198434	0.109714	-0.499069
H701	H	0.151492	0.071692	-0.476690
H702	H	0.370885	0.301223	-0.469054
H703	H	-0.117201	-0.533500	0.468702
H704	H	0.167506	-0.083593	0.019063
H705	H	0.167516	0.097925	0.019049
H706	H	0.064523	-0.351759	0.184259
H707	H	0.230091	-0.219108	-0.114185
H708	H	-0.182272	0.268459	0.398770
C709	C	0.123318	0.015893	-0.434901
C710	C	0.110834	-0.021205	-0.422249
H711	H	0.148728	0.028593	-0.460654
H712	H	0.099785	0.014591	-0.433450
H713	H	0.129917	0.029655	-0.419180
H714	H	0.104232	-0.034968	-0.437968
H715	H	0.134372	-0.019905	-0.423703
H716	H	-0.182052	0.268464	0.501484
C717	C	0.248904	-0.205019	0.359827
C718	C	0.216085	-0.205894	0.393304
H719	H	0.275183	-0.179724	0.346702
H720	H	0.254647	-0.221890	0.366259
H721	H	0.239140	-0.212844	0.343813
H722	H	0.225848	-0.198072	0.409319
H723	H	0.210342	-0.189017	0.386873
C724	C	0.599384	0.297407	-0.525010
C725	C	0.622570	0.295524	-0.511689
H726	H	0.611556	0.296419	-0.550304
H727	H	0.569161	0.276397	-0.508743
H728	H	0.601718	0.320685	-0.525021
H729	H	0.620233	0.272244	-0.511675
H730	H	0.652801	0.316535	-0.527960
C731	C	0.376811	0.297498	-0.133892
C732	C	0.338442	0.295609	-0.108713
H733	H	0.389038	0.296525	-0.120820
H734	H	0.369705	0.276484	-0.143094
H735	H	0.397714	0.320772	-0.154835
H736	H	0.317538	0.272334	-0.087771
H737	H	0.345546	0.316625	-0.099505
H738	H	0.617241	0.295963	-0.398133
C739	C	0.293645	0.335970	-0.355689
C740	C	0.262816	0.301655	-0.355722
H741	H	0.281420	0.336963	-0.330396
H742	H	0.319666	0.337244	-0.364631
H743	H	0.300751	0.356976	-0.372013
H744	H	0.255712	0.280649	-0.339400
H745	H	0.236787	0.300378	-0.346774
C746	C	0.250728	-0.106905	-0.512254
C747	C	0.216380	-0.110387	-0.512218
H748	H	0.277008	-0.093702	-0.537550
H749	H	0.255422	-0.092996	-0.495942
H750	H	0.243050	-0.131656	-0.503301
H751	H	0.224056	-0.085635	-0.521169
H752	H	0.211686	-0.124294	-0.528536
H753	H	0.437704	-0.306410	-0.028878
H754	H	0.230097	-0.219111	-0.398135
C755	C	-0.135064	-0.552815	0.341828
C756	C	-0.111873	-0.527747	0.355145
H757	H	-0.122897	-0.539657	0.316535
H758	H	-0.132733	-0.573758	0.341814
H759	H	-0.165291	-0.562027	0.358100
H760	H	-0.081647	-0.518537	0.338875
H761	H	-0.114201	-0.506797	0.355156
C762	C	0.376799	0.297423	-0.525400
C763	C	0.338436	0.295541	-0.512215
H764	H	0.389018	0.296432	-0.550693
H765	H	0.397707	0.320699	-0.525371
H766	H	0.369688	0.276412	-0.509079
H767	H	0.345548	0.316554	-0.528534
H768	H	0.317524	0.272263	-0.512246
H769	H	0.332793	-0.116391	-0.113952
H770	H	0.552607	0.301210	-0.468757
H771	H	0.064821	0.263164	0.184001
C772	C	-0.076944	0.259929	0.450845
C773	C	-0.112086	0.262782	0.474459
H774	H	-0.064774	0.258946	0.463971
H775	H	-0.087389	0.237311	0.444418
H776	H	-0.054833	0.281599	0.428135
H777	H	-0.134199	0.241111	0.497168
H778	H	-0.101642	0.285402	0.480891
C779	C	-0.231472	-0.622459	0.413054
C780	C	-0.186924	-0.608887	0.392543
H781	H	-0.243564	-0.635532	0.399849
H782	H	-0.247262	-0.639532	0.437799
H783	H	-0.233800	-0.601513	0.415418
H784	H	-0.184596	-0.629833	0.390181
H785	H	-0.171129	-0.591812	0.367791
H786	H	-0.182059	-0.115906	-0.114213
H787	H	0.552629	0.098160	-0.469035
C788	C	0.599268	0.148591	-0.525381
C789	C	0.622561	0.173770	-0.512194
H790	H	0.611355	0.161666	-0.550674
H791	H	0.601607	0.127655	-0.525352
H792	H	0.569046	0.139383	-0.509061
H793	H	0.652783	0.182976	-0.528512
H794	H	0.620227	0.194713	-0.512226
C795	C	0.224452	0.299788	-0.164417
C796	C	0.262815	0.301669	-0.189594
H797	H	0.212232	0.300773	-0.177492
H798	H	0.203545	0.276516	-0.143477
H799	H	0.231564	0.320804	-0.155212
H800	H	0.255703	0.280651	-0.198796
H801	H	0.283727	0.324943	-0.210540
C802	C	-0.067787	-0.171564	-0.203161
C803	C	-0.112334	-0.192069	-0.189591
H804	H	-0.055699	-0.184773	-0.216229
H805	H	-0.051992	-0.146821	-0.220239
H806	H	-0.065461	-0.169198	-0.182215
H807	H	-0.114660	-0.194433	-0.210538
H808	H	-0.128134	-0.216820	-0.172512
H809	H	0.333296	-0.216247	-0.013853
H810	H	-0.562304	-0.409050	0.308680
H811	H	-0.629125	-0.248761	0.365741
C812	C	-0.222304	-0.647140	0.523161
C813	C	-0.187165	-0.609146	0.511635
H814	H	-0.234470	-0.660297	0.548453
H815	H	-0.244415	-0.647581	0.522567
H816	H	-0.211855	-0.659310	0.506281
H817	H	-0.197614	-0.596976	0.528514
H818	H	-0.165049	-0.608703	0.512232
C819	C	0.058614	-0.361474	0.525336
C820	C	0.096978	-0.324994	0.512151
H821	H	0.046397	-0.374682	0.550629
H822	H	0.037705	-0.359106	0.525309
H823	H	0.065725	-0.375375	0.509014
H824	H	0.089866	-0.311091	0.528471
H825	H	0.117891	-0.327360	0.512180
C826	C	0.174138	-0.209809	0.354845
C827	C	0.172600	-0.243288	0.355651
H828	H	0.186363	-0.196604	0.329549
H829	H	0.145082	-0.216249	0.371676
H830	H	0.192020	-0.193868	0.362759
H831	H	0.154716	-0.259231	0.347740
H832	H	0.201661	-0.236849	0.338815
H833	H	-0.664969	-0.409045	0.411340
H834	H	0.064816	0.263199	0.468675
