data_functionalizedCrystal
_audit_creation_method	'MofGen! by Chris Wilmer'
_symmetry_space_group_name_H-M	'P1'
_symmetry_Int_Tables_number	1
_symmetry_cell_setting	triclinic
loop_
_symmetry_equiv_pos_as_xyz
  x,y,z
_cell_length_a	6.817900
_cell_length_b	19.551823
_cell_length_c	10.943624
_cell_angle_alpha	94.462887
_cell_angle_beta	108.838799
_cell_angle_gamma	101.663376
loop_
_atom_site_label
_atom_site_type_symbol
_atom_site_fract_x
_atom_site_fract_y
_atom_site_fract_z
V1	V	-4.079292	-0.096657	-0.403155
O2	O	-4.074951	0.004664	-0.394859
O3	O	-4.021653	-0.191672	-0.400995
O4	O	-4.057814	-0.095161	-0.578712
O5	O	-4.038540	-0.092515	-0.215912
V6	V	-4.560628	-0.084538	-0.380686
O7	O	-4.345346	-0.123239	-0.452441
O8	O	-4.744771	-0.057956	-0.331400
O9	O	-4.395060	0.010477	-0.382846
O10	O	-4.682366	-0.185859	-0.388982
O11	O	-4.718777	-0.088680	-0.567929
O12	O	-4.358899	-0.086034	-0.205129
C13	C	-3.863535	-0.214835	-0.394789
C14	C	-3.897876	-0.292511	-0.394193
C15	C	-4.096764	-0.332556	-0.400370
C16	C	-4.129037	-0.405542	-0.399823
C17	C	-3.962397	-0.438478	-0.393074
C18	C	-3.763484	-0.398424	-0.386904
C19	C	-3.731223	-0.325440	-0.387464
C20	C	-3.836613	-0.544970	-0.311204
C21	C	-3.868877	-0.617951	-0.310636
C22	C	-4.061895	-0.663584	-0.391353
C23	C	-4.222671	-0.636225	-0.472621
C24	C	-4.190411	-0.563242	-0.473181
C25	C	-3.997358	-0.517616	-0.392467
C26	C	-4.295791	-0.782770	-0.396939
C27	C	-4.328061	-0.855758	-0.396400
C28	C	-3.962496	-0.848637	-0.383467
C29	C	-3.930238	-0.775651	-0.384019
C30	C	-4.096891	-0.742722	-0.390749
C31	C	-3.909661	-0.091725	-0.621483
C32	C	-3.973323	-0.091132	-0.765006
C33	C	-3.819651	-0.087134	-0.842128
C34	C	-3.986783	-0.146473	-0.948489
C35	C	-3.919650	-0.030741	-0.914380
C36	C	-4.139646	-0.150527	-0.869490
C37	C	-4.072452	-0.034742	-0.835357
C38	C	-4.239715	-0.094098	-0.941688
C39	C	-4.216519	0.033636	-0.389048
C40	C	-4.161418	0.111311	-0.389653
C41	C	-4.170393	-0.089472	-0.162351
C42	C	-4.085969	-0.090062	-0.018827
H43	H	-4.431489	-0.755957	-0.402416
O44	O	-4.119487	0.027822	-0.770089
H45	H	-4.072849	0.026496	-0.663455
H46	H	-3.641523	-0.084269	-0.798662
O47	O	-4.542584	-0.898955	-0.403053
H48	H	-4.653028	-0.863791	-0.407810
O49	O	-4.363778	-0.533730	-0.560848
H50	H	-4.503414	-0.577718	-0.616896
O51	O	-4.475769	-0.098043	-0.999119
H52	H	-4.567100	-0.147791	-0.981584
H53	H	-3.827259	0.019872	-0.934826
H54	H	-4.232045	-0.201207	-0.849262
O55	O	-4.276529	-0.297043	-0.407689
H56	H	-4.420268	-0.337158	-0.411921
O57	O	-3.695464	-0.647451	-0.222983
H58	H	-3.756652	-0.676254	-0.154181
O59	O	-3.715715	-0.732452	-0.377350
H60	H	-3.591364	-0.737290	-0.285685
H61	H	-3.826817	-0.875453	-0.377980
O62	O	-3.939689	-0.209034	-1.013743
H63	H	-3.867146	-0.240370	-0.938762
O64	O	-4.343552	-0.448747	-0.406460
H65	H	-4.467937	-0.443906	-0.498107
O66	O	-4.430865	-0.685432	-0.559700
H67	H	-4.426285	-0.740779	-0.545676
O68	O	-3.628426	-0.495751	-0.224132
H69	H	-3.522068	-0.527034	-0.167512
O70	O	-3.583749	-0.433943	-0.379635
H71	H	-3.546781	-0.459563	-0.290613
O72	O	-3.516698	-0.282241	-0.380801
H73	H	-3.392346	-0.287080	-0.289138
