data_functionalizedCrystal
_audit_creation_method	'MofGen! by Chris Wilmer'
_symmetry_space_group_name_H-M	'P1'
_symmetry_Int_Tables_number	1
_symmetry_cell_setting	triclinic
loop_
_symmetry_equiv_pos_as_xyz
  x,y,z
_cell_length_a	18.215407
_cell_length_b	25.639239
_cell_length_c	18.215399
_cell_angle_alpha	89.967555
_cell_angle_beta	89.983176
_cell_angle_gamma	90.039134
loop_
_atom_site_label
_atom_site_type_symbol
_atom_site_fract_x
_atom_site_fract_y
_atom_site_fract_z
Zn1	Zn	1.124980	-0.208137	-0.416105
Zn2	Zn	1.124865	-0.295577	-0.293034
Zn3	Zn	1.001919	-0.208158	-0.293053
Zn4	Zn	1.001848	-0.295544	-0.416059
O5	O	1.063403	-0.251854	-0.354563
O6	O	1.227949	-0.219742	-0.399791
O7	O	1.108537	-0.284003	-0.190052
O8	O	1.018320	-0.134990	-0.309403
O9	O	1.227864	-0.283983	-0.309372
O10	O	1.108733	-0.134975	-0.399809
O11	O	1.018209	-0.219777	-0.190066
O12	O	0.898925	-0.219745	-0.309358
O13	O	1.018201	-0.283927	-0.519050
O14	O	0.898873	-0.283947	-0.399731
O15	O	1.108665	-0.219710	-0.519083
O16	O	1.108469	-0.368738	-0.309327
O17	O	1.018089	-0.368714	-0.399713
C18	C	0.872197	-0.251845	-0.354542
C19	C	0.790398	-0.251854	-0.354550
C20	C	0.602196	-0.285337	-0.401548
C21	C	0.525337	-0.285338	-0.401557
C22	C	0.525362	-0.218381	-0.307594
C23	C	0.602219	-0.218377	-0.307589
C24	C	0.640634	-0.251858	-0.354565
C25	C	0.486918	-0.251864	-0.354579
C26	C	0.403584	-0.251865	-0.354589
C27	C	0.723973	-0.251856	-0.354556
C28	C	1.063279	-0.387697	-0.354529
C29	C	1.063293	-0.445811	-0.354539
C30	C	1.110586	-0.806174	-0.307579
C31	C	1.110615	-0.860778	-0.307589
O32	O	1.150696	-0.889015	-0.267625
N33	N	1.063532	-0.888093	-0.354612
C34	C	1.016423	-0.860801	-0.401633
O35	O	0.976379	-0.889049	-0.441631
C36	C	1.016399	-0.806198	-0.401626
C37	C	1.063479	-0.778886	-0.354595
C38	C	1.157663	-0.778862	-0.260553
C39	C	1.157634	-0.724261	-0.260542
C40	C	1.110527	-0.696973	-0.307558
C41	C	1.063450	-0.724285	-0.354584
C42	C	0.969294	-0.778907	-0.448650
C43	C	0.969274	-0.724300	-0.448640
C44	C	1.016355	-0.696988	-0.401609
C45	C	1.016313	-0.642396	-0.401590
N46	N	1.063396	-0.615081	-0.354567
C47	C	1.110503	-0.642370	-0.307551
C48	C	1.016479	-0.975472	-0.401644
C49	C	1.016499	-1.030074	-0.401648
C50	C	1.110691	-1.030047	-0.307605
C51	C	1.110667	-0.975444	-0.307598
C52	C	1.063561	-0.948157	-0.354621
C53	C	1.110436	-0.527704	-0.307532
C54	C	1.110400	-0.473099	-0.307523
C55	C	1.016211	-0.473131	-0.401569
C56	C	1.016244	-0.527731	-0.401575
C57	C	1.063362	-0.555017	-0.354554
O58	O	0.976254	-0.614125	-0.441536
O59	O	1.150547	-0.614115	-0.267567
C60	C	1.255356	-0.251864	-0.354584
C61	C	1.337155	-0.251868	-0.354594
C62	C	1.063438	-0.251813	-0.546516
C63	C	1.063452	-0.251795	-0.628315
C64	C	1.063547	-0.115481	-0.354613
C65	C	1.063609	-0.057367	-0.354634
C66	C	1.016458	-0.218330	-0.816517
C67	C	1.016471	-0.218319	-0.893375
C68	C	1.110534	-0.285198	-0.893351
C69	C	1.110517	-0.285210	-0.816493
C70	C	1.063480	-0.251773	-0.778078
C71	C	1.063510	-0.251750	-0.931795
C72	C	1.063525	-0.251739	-1.015128
C73	C	1.063465	-0.251785	-0.694739
C74	C	1.063411	-0.251858	-0.163357
C75	C	1.063538	-0.251729	-0.081558
H76	H	0.633472	-0.312598	-0.439801
Br77	Br	1.174368	-0.330574	-0.945490
H78	H	0.930953	-0.801135	-0.486945
Br79	Br	0.952590	-1.067134	-0.465467
H80	H	1.148810	-0.312446	-0.785196
Br81	Br	0.952538	-0.938445	-0.465463
Br82	Br	0.473174	-0.330773	-0.465327
H83	H	0.633516	-0.191112	-0.269329
H84	H	1.148739	-0.450863	-0.269223
Br85	Br	0.473222	-0.172946	-0.243843
Br86	Br	0.952640	-0.172938	-0.945539
H87	H	1.195973	-0.702027	-0.222248
H88	H	1.148807	-0.549914	-0.269245
H89	H	1.196028	-0.801074	-0.222266
H90	H	1.149004	-0.953210	-0.269302
H91	H	1.149051	-1.052275	-0.269324
H92	H	0.930916	-0.702085	-0.486935
H93	H	0.977854	-0.450904	-0.439847
Br94	Br	0.952331	-0.564799	-0.465385
H95	H	0.978158	-0.191103	-0.785241
