data_functionalizedCrystal
_audit_creation_method	'MofGen! by Chris Wilmer'
_symmetry_space_group_name_H-M	'P1'
_symmetry_Int_Tables_number	1
_symmetry_cell_setting	triclinic
loop_
_symmetry_equiv_pos_as_xyz
  x,y,z
_cell_length_a	18.215405
_cell_length_b	11.169417
_cell_length_c	11.169409
_cell_angle_alpha	90.019513
_cell_angle_beta	90.039798
_cell_angle_gamma	90.026135
loop_
_atom_site_label
_atom_site_type_symbol
_atom_site_fract_x
_atom_site_fract_y
_atom_site_fract_z
Zn1	Zn	-0.292900	1.834841	0.678471
Zn2	Zn	-0.415991	1.834679	0.477761
Zn3	Zn	-0.292946	1.634127	0.477806
Zn4	Zn	-0.415932	1.634083	0.678407
O5	O	-0.354442	1.734433	0.578111
O6	O	-0.309234	2.002769	0.651854
O7	O	-0.399713	1.808026	0.309817
O8	O	-0.189955	1.660838	0.504470
O9	O	-0.399669	2.002651	0.504394
O10	O	-0.189922	1.808302	0.651897
O11	O	-0.309312	1.660681	0.309850
O12	O	-0.309255	1.466171	0.504408
O13	O	-0.399568	1.660764	0.846365
O14	O	-0.399612	1.466140	0.651789
O15	O	-0.309177	1.808260	0.846412
O16	O	-0.518968	1.807984	0.504332
O17	O	-0.518924	1.660607	0.651746
C18	C	-0.354432	1.422608	0.578098
C19	C	-0.354446	1.289208	0.578120
C20	C	-0.545649	1.734306	0.578054
C21	C	-0.627448	1.734362	0.578069
C22	C	-0.815640	1.811281	0.501452
C23	C	-0.892498	1.811335	0.501481
C24	C	-0.892493	1.657738	0.654857
C25	C	-0.815636	1.657691	0.654833
C26	C	-0.777211	1.734461	0.578124
C27	C	-0.930927	1.734561	0.578177
C28	C	-1.014261	1.734619	0.578209
C29	C	-0.693872	1.734405	0.578093
C30	C	-0.162489	1.734593	0.578195
C31	C	-0.080690	1.734661	0.578231
C32	C	-0.354361	1.734525	0.891154
C33	C	-0.354326	1.734564	1.024554
C34	C	-0.354453	2.047475	0.578126
C35	C	-0.354457	2.180875	0.578132
C36	C	-0.354471	1.734410	0.266287
C37	C	-0.354298	1.734603	0.132887
H38	H	-0.923783	1.873891	0.439049
O39	O	-0.929934	1.583198	0.729247
C40	C	-1.048334	1.515240	0.797303
C41	C	-1.006027	1.599702	0.712978
H42	H	-1.109862	1.528572	0.784197
H43	H	-1.033336	1.418442	0.776131
H44	H	-1.033117	1.536237	0.894081
H45	H	-1.021221	1.578813	0.616172
H46	H	-1.021028	1.696476	0.734253
H47	H	-0.784345	1.595135	0.717274
H48	H	-0.784356	1.873793	0.438992
