data_functionalizedCrystal
_audit_creation_method	'MofGen! by Chris Wilmer'
_symmetry_space_group_name_H-M	'P1'
_symmetry_Int_Tables_number	1
_symmetry_cell_setting	triclinic
loop_
_symmetry_equiv_pos_as_xyz
  x,y,z
_cell_length_a	9.016244
_cell_length_b	14.044220
_cell_length_c	10.540491
_cell_angle_alpha	88.847272
_cell_angle_beta	89.999075
_cell_angle_gamma	89.997403
loop_
_atom_site_label
_atom_site_type_symbol
_atom_site_fract_x
_atom_site_fract_y
_atom_site_fract_z
O1	O	0.123175	-1.259744	-0.306259
O2	O	0.123213	-0.983702	-0.295207
O3	O	0.123188	-1.128045	-0.116662
O4	O	0.123200	-1.115401	-0.484805
O5	O	-0.123493	-1.128024	-0.116664
O6	O	-0.123468	-0.983681	-0.295210
O7	O	-0.123506	-1.259723	-0.306261
Cu8	Cu	-0.146011	-1.121700	-0.300736
Cu9	Cu	0.145718	-1.121725	-0.300733
O10	O	-0.123481	-1.115380	-0.484807
C11	C	-0.000123	-0.948345	-0.290371
C12	C	-0.000108	-0.843023	-0.275941
N13	N	-0.351197	-1.121689	-0.300737
C14	C	-0.000151	-1.127096	-0.069264
C15	C	-0.000145	-1.124288	0.071971
C16	C	-0.586216	-1.044238	-0.395877
C17	C	-0.414325	-1.044410	-0.396280
C18	C	-0.413548	-1.220861	-0.340898
C19	C	-0.585493	-1.220438	-0.341584
C20	C	-0.585741	-1.100953	-0.165200
C21	C	-0.413787	-1.098677	-0.165834
N22	N	0.350904	-1.121743	-0.300722
C23	C	-0.000167	-1.295080	-0.311098
C24	C	-0.000172	-1.400402	-0.325528
C25	C	-0.000139	-0.650187	-0.249560
C26	C	-0.000142	-0.593233	-0.351903
C27	C	-0.000158	-0.485932	-0.337224
C28	C	-0.000122	-0.757497	-0.264237
C29	C	-0.000729	-1.224567	0.279290
C30	C	-0.000162	-1.227562	0.132390
C31	C	0.140725	-1.071438	0.122075
C32	C	0.140832	-1.069174	0.269066
C33	C	-0.139690	-1.067000	0.269090
C34	C	-0.141541	-1.071890	0.122253
C35	C	-0.000146	-1.116342	0.467796
C36	C	-0.000160	-1.119187	0.326564
H37	H	-0.372172	-0.970722	-0.370698
O38	O	-0.134542	-1.277871	0.329461
H39	H	-0.202226	-1.302802	0.248684
H40	H	-0.000150	-0.618362	-0.150925
O41	O	0.149347	-0.966871	0.309888
H42	H	0.153382	-0.919232	0.224650
O43	O	0.279437	-1.120368	0.076522
H44	H	0.281224	-1.119364	-0.028788
H45	H	-0.101141	-1.268915	0.098864
O46	O	-0.000121	-0.635373	-0.482576
H47	H	0.100439	-0.679957	-0.494133
H48	H	-0.373178	-1.057772	-0.496617
O49	O	0.147684	-0.970729	0.069491
H50	H	0.248178	-0.934969	0.106341
H51	H	-0.629180	-1.030165	-0.129363
H52	H	0.099714	-1.264579	0.318752
O53	O	0.133827	-1.282663	0.089173
H54	H	0.198479	-1.307265	0.173237
O55	O	-0.356916	-1.168509	-0.066489
H56	H	-0.282826	-1.220945	-0.111918
H57	H	0.246124	-1.105313	0.305630
H58	H	-0.246470	-1.099811	0.307953
H59	H	-0.245755	-1.110346	0.089751
H60	H	-0.150036	-0.996492	0.080809
O61	O	-0.140963	-0.964299	0.308824
H62	H	-0.042760	-0.950446	0.369210
H63	H	-0.373036	-1.025721	-0.135617
H64	H	-0.627600	-0.970320	-0.370551
O65	O	-0.640594	-1.299191	-0.254055
H66	H	-0.763698	-1.299476	-0.253886
H67	H	-0.370470	-1.239454	-0.439017
H68	H	-0.629409	-1.057427	-0.495636
H69	H	-0.625582	-1.238624	-0.440762
H70	H	-0.626403	-1.157463	-0.094257
O71	O	-0.359393	-1.299131	-0.252166
H72	H	-0.236390	-1.301740	-0.254629
