data_functionalizedCrystal
_audit_creation_method	'MofGen! by Chris Wilmer'
_symmetry_space_group_name_H-M	'P1'
_symmetry_Int_Tables_number	1
_symmetry_cell_setting	triclinic
loop_
_symmetry_equiv_pos_as_xyz
  x,y,z
_cell_length_a	27.732048
_cell_length_b	14.044220
_cell_length_c	13.101039
_cell_angle_alpha	86.332523
_cell_angle_beta	93.324104
_cell_angle_gamma	87.915766
loop_
_atom_site_label
_atom_site_type_symbol
_atom_site_fract_x
_atom_site_fract_y
_atom_site_fract_z
O1	O	-0.648645	-0.107455	-0.085084
O2	O	-0.315312	0.225879	0.248249
O3	O	0.018022	0.559212	0.581583
O4	O	-0.508657	-0.124591	-0.085115
O5	O	-0.175323	0.208742	0.248218
O6	O	0.158010	0.542076	0.581551
O7	O	-0.576549	0.021930	-0.085090
O8	O	-0.243216	0.355264	0.248243
O9	O	0.090117	0.688597	0.581577
O10	O	-0.580752	-0.253976	-0.085109
O11	O	-0.247419	0.079357	0.248224
O12	O	0.085914	0.412691	0.581557
O13	O	-0.571679	0.011400	0.085338
O14	O	-0.238345	0.344734	0.418671
O15	O	0.094988	0.678067	0.752005
O16	O	-0.503786	-0.135121	0.085313
O17	O	-0.170453	0.198212	0.418646
O18	O	0.162881	0.531546	0.751980
O19	O	-0.643774	-0.117985	0.085344
O20	O	-0.310441	0.215349	0.418677
O21	O	0.022892	0.548682	0.752011
Zn22	Zn	-0.573007	-0.128225	0.112388
Zn23	Zn	-0.239674	0.205109	0.445721
Zn24	Zn	0.093660	0.538442	0.779054
Zn25	Zn	-0.579424	-0.114351	-0.112159
Zn26	Zn	-0.246091	0.218982	0.221175
Zn27	Zn	0.087243	0.552316	0.554508
O28	O	-0.575882	-0.264506	0.085319
O29	O	-0.242548	0.068827	0.418652
O30	O	0.090785	0.402161	0.751985
C31	C	-0.488198	-0.129496	0.000095
C32	C	-0.154864	0.203837	0.333428
C33	C	0.178469	0.537171	0.666762
C34	C	-0.434492	-0.128412	0.000083
C35	C	-0.101159	0.204921	0.333417
C36	C	0.232174	0.538255	0.666750
C37	C	-0.572274	0.051953	0.000124
C38	C	-0.238941	0.385286	0.333457
C39	C	0.094392	0.718620	0.666791
C40	C	-0.566787	0.157098	0.000124
C41	C	-0.233454	0.490432	0.333457
C42	C	0.099879	0.823765	0.666791
C43	C	-0.664233	-0.113080	0.000132
C44	C	-0.330900	0.220254	0.333465
C45	C	0.002433	0.553587	0.666798
C46	C	-0.717939	-0.114163	0.000137
C47	C	-0.384606	0.219170	0.333470
C48	C	-0.051272	0.552504	0.666803
C49	C	-0.099419	-0.208180	0.000122
C50	C	0.233914	0.125153	0.333455
C51	C	0.567247	0.458487	0.666789
C52	C	0.102429	-0.204161	0.000132
C53	C	0.435762	0.129172	0.333465
C54	C	0.769096	0.462505	0.666798
O55	O	0.130263	-0.277104	0.000171
O56	O	0.463596	0.056230	0.333504
O57	O	0.796930	0.389563	0.666837
N58	N	0.125630	-0.117280	0.000136
N59	N	0.458964	0.216054	0.333469
N60	N	0.792297	0.549387	0.666802
C61	C	0.098366	-0.031397	0.000144
C62	C	0.431700	0.301937	0.333478
C63	C	0.765033	0.635270	0.666811
O64	O	0.122732	0.042593	0.000159
O65	O	0.456065	0.375926	0.333492
O66	O	0.789399	0.709260	0.666825
C67	C	-0.103481	-0.035417	0.000142
C68	C	0.229852	0.297916	0.333476
C69	C	0.563186	0.631250	0.666809
C70	C	-0.126680	-0.122304	0.000128
C71	C	0.206654	0.211030	0.333461
C72	C	0.539987	0.544363	0.666794
C73	C	-0.122618	-0.295060	0.000109
C74	C	0.210715	0.038274	0.333442
C75	C	0.544048	0.371607	0.666775
C76	C	-0.173077	-0.296063	0.000101
C77	C	0.160256	0.037270	0.333434
C78	C	0.493589	0.370603	0.666767
C79	C	-0.200338	-0.210187	0.000106
C80	C	0.132995	0.123147	0.333440
C81	C	0.466329	0.456480	0.666773
C82	C	-0.177139	-0.123307	0.000120
C83	C	0.156194	0.210026	0.333453
C84	C	0.489528	0.543360	0.666786
C85	C	-0.130744	0.050464	0.000158
C86	C	0.202589	0.383798	0.333492
C87	C	0.535923	0.717131	0.666825
C88	C	-0.181209	0.049452	0.000160
C89	C	0.152125	0.382785	0.333494
C90	C	0.485458	0.716118	0.666827
C91	C	-0.204407	-0.037435	0.000146
C92	C	0.128926	0.295898	0.333479
C93	C	0.462259	0.629231	0.666812
C94	C	-0.254859	-0.038434	0.000117
C95	C	0.078475	0.294899	0.333451
C96	C	0.411808	0.628233	0.666784
N97	N	-0.278060	-0.125316	0.000113
N98	N	0.055273	0.208017	0.333446
N99	N	0.388607	0.541351	0.666780
C100	C	-0.250799	-0.211192	0.000108
C101	C	0.082534	0.122141	0.333441
C102	C	0.415867	0.455474	0.666774
C103	C	0.204339	-0.029292	0.000143
C104	C	0.537672	0.304041	0.333477
C105	C	0.871006	0.637375	0.666810
C106	C	0.254801	-0.028287	0.000142
C107	C	0.588134	0.305047	0.333476
C108	C	0.921467	0.638380	0.666809
C109	C	0.258860	-0.201052	0.000131
C110	C	0.592193	0.132281	0.333465
C111	C	0.925527	0.465615	0.666798
C112	C	0.208397	-0.202056	0.000125
C113	C	0.541731	0.131278	0.333459
C114	C	0.875064	0.464611	0.666792
C115	C	0.181138	-0.116174	0.000139
C116	C	0.514471	0.217159	0.333473
C117	C	0.847805	0.550493	0.666806
C118	C	-0.356768	-0.213293	0.000090
C119	C	-0.023434	0.120040	0.333423
C120	C	0.309899	0.453374	0.666757
C121	C	-0.407232	-0.214288	0.000078
C122	C	-0.073898	0.119045	0.333411
C123	C	0.259435	0.452378	0.666744
C124	C	-0.411287	-0.041524	0.000094
C125	C	-0.077953	0.291809	0.333427
C126	C	0.255380	0.625143	0.666761
C127	C	-0.360827	-0.040528	0.000101
C128	C	-0.027494	0.292806	0.333434
C129	C	0.305839	0.626139	0.666768
C130	C	-0.333569	-0.126420	0.000102
C131	C	-0.000235	0.206913	0.333436
C132	C	0.333098	0.540247	0.666769
O133	O	-0.282722	0.034469	0.000090
O134	O	0.050611	0.367802	0.333423
O135	O	0.383944	0.701135	0.666756
O136	O	-0.275174	-0.285173	0.000116
O137	O	0.058160	0.048161	0.333449
O138	O	0.391493	0.381494	0.666783
C139	C	-0.048960	-0.207177	0.000130
C140	C	0.284373	0.126157	0.333463
C141	C	0.617707	0.459490	0.666797
C142	C	-0.025761	-0.120297	0.000144
C143	C	0.307572	0.213036	0.333477
C144	C	0.640905	0.546370	0.666810
C145	C	-0.053022	-0.034420	0.000149
C146	C	0.280312	0.298913	0.333482
C147	C	0.613645	0.632246	0.666816
C148	C	0.024700	-0.119291	0.000142
C149	C	0.358034	0.214042	0.333476
C150	C	0.691367	0.547375	0.666809
C151	C	0.051961	-0.205168	0.000137
C152	C	0.385294	0.128165	0.333470
C153	C	0.718627	0.461499	0.666803
C154	C	0.028760	-0.292050	0.000132
C155	C	0.362093	0.041284	0.333466
C156	C	0.695426	0.374617	0.666799
C157	C	-0.021700	-0.293053	0.000124
C158	C	0.311634	0.040280	0.333458
C159	C	0.644967	0.373614	0.666791
C160	C	-0.029821	0.052461	0.000153
C161	C	0.303513	0.385795	0.333487
C162	C	0.636846	0.719128	0.666820
C163	C	0.020639	0.053458	0.000160
C164	C	0.353972	0.386791	0.333493
C165	C	0.687306	0.720124	0.666827
C166	C	0.047899	-0.032419	0.000155
C167	C	0.381233	0.300915	0.333488
C168	C	0.714566	0.634248	0.666821
C169	C	-0.580157	-0.294528	0.000103
C170	C	-0.246823	0.038805	0.333436
C171	C	0.086510	0.372138	0.666769
C172	C	-0.585644	-0.399673	0.000096
C173	C	-0.252311	-0.066340	0.333429
C174	C	0.081023	0.266993	0.666762
N175	N	-0.568631	-0.137693	0.265634
N176	N	-0.235298	0.195641	0.598968
N177	N	0.098036	0.528974	0.932301
C178	C	-0.556756	0.349614	0.000107
C179	C	-0.223423	0.682947	0.333441
C180	C	0.109910	1.016280	0.666774
C181	C	-0.595673	0.407817	0.000113
C182	C	-0.262340	0.741150	0.333446
C183	C	0.070994	1.074483	0.666779
C184	C	-0.590091	0.514939	0.000103
C185	C	-0.256758	0.848272	0.333437
C186	C	0.076575	1.181606	0.666770
C187	C	-0.562337	0.242481	0.000117
C188	C	-0.229004	0.575815	0.333450
C189	C	0.104330	0.909148	0.666783
N190	N	-0.583803	-0.104876	-0.265406
N191	N	-0.250470	0.228458	0.067928
N192	N	0.082863	0.561791	0.401261
C193	C	-0.562678	-0.150583	0.474675
C194	C	-0.229344	0.182751	0.808008
C195	C	0.103989	0.516084	1.141342
C196	C	-0.589755	-0.091989	0.525561
C197	C	-0.256422	0.241345	0.858894
C198	C	0.076911	0.574678	1.192227
C199	C	-0.586443	-0.099161	0.641878
C200	C	-0.253110	0.234172	0.975211
C201	C	0.080224	0.567506	1.308545
C202	C	-0.565990	-0.143412	0.358347
C203	C	-0.232656	0.189922	0.691680
C204	C	0.100677	0.523255	1.025014
H205	H	-0.426118	-0.285045	0.000065
H206	H	-0.092784	0.048288	0.333399
H207	H	0.240549	0.381622	0.666732
F208	F	-0.623465	-0.019662	0.468324
F209	F	-0.290131	0.313671	0.801658
F210	F	0.043202	0.647005	1.134991
F211	F	-0.507732	0.389637	0.000091
F212	F	-0.174398	0.722970	0.333424
F213	F	0.158935	1.056304	0.666758
F214	F	-0.327764	-0.304709	0.000092
F215	F	0.005569	0.028624	0.333425
F216	F	0.338902	0.361957	0.666759
F217	F	-0.197761	-0.388541	0.000090
F218	F	0.135573	-0.055208	0.333423
F219	F	0.468906	0.278126	0.666757
F220	F	-0.644701	0.367794	0.000132
F221	F	-0.311367	0.701127	0.333465
F222	F	0.021966	1.034460	0.666798
F223	F	-0.529128	-0.223188	0.531909
F224	F	-0.195795	0.110145	0.865243
F225	F	0.137538	0.443478	1.198576
F226	F	-0.106066	0.142944	0.000159
F227	F	0.227268	0.476277	0.333493
F228	F	0.560601	0.809610	0.666826
H229	H	-0.100428	-0.364995	0.000108
H230	H	0.232906	-0.031662	0.333441
H231	H	0.566239	0.301672	0.666774
F232	F	0.057781	-0.383445	0.000121
F233	F	0.391114	-0.050112	0.333455
F234	F	0.724448	0.283221	0.666788
H235	H	0.189513	-0.272807	0.000119
H236	H	0.522846	0.060526	0.333452
H237	H	0.856179	0.393860	0.666786
H238	H	0.273684	0.042466	0.000138
H239	H	0.607017	0.375799	0.333471
H240	H	0.940351	0.709133	0.666805
F241	F	0.287881	-0.292448	0.000126
F242	F	0.621215	0.040885	0.333460
F243	F	0.954548	0.374218	0.666793
H244	H	0.182149	0.040647	0.000155
H245	H	0.515482	0.373981	0.333488
H246	H	0.848815	0.707314	0.666822
H247	H	-0.203401	0.119389	0.000173
H248	H	0.129932	0.452722	0.333506
H249	H	0.463266	0.786055	0.666839
F250	F	0.045323	0.145942	0.000163
F251	F	0.378656	0.479275	0.333496
F252	F	0.711989	0.812609	0.666829
F253	F	-0.336137	0.051946	0.000117
F254	F	-0.002803	0.385279	0.333450
F255	F	0.330530	0.718613	0.666784
F256	F	-0.058827	0.143868	0.000161
F257	F	0.274507	0.477201	0.333495
F258	F	0.607840	0.810535	0.666828
F259	F	-0.440308	0.049867	0.000102
F260	F	-0.106975	0.383200	0.333435
F261	F	0.226359	0.716533	0.666768
F262	F	-0.046383	-0.385531	0.000109
F263	F	0.286950	-0.052197	0.333442
F264	F	0.620284	0.281136	0.666776
