data_functionalizedCrystal
_audit_creation_method	'MofGen! by Chris Wilmer'
_symmetry_space_group_name_H-M	'P1'
_symmetry_Int_Tables_number	1
_symmetry_cell_setting	triclinic
loop_
_symmetry_equiv_pos_as_xyz
  x,y,z
_cell_length_a	15.298114
_cell_length_b	18.215405
_cell_length_c	18.215399
_cell_angle_alpha	90.030551
_cell_angle_beta	99.672562
_cell_angle_gamma	99.636644
loop_
_atom_site_label
_atom_site_type_symbol
_atom_site_fract_x
_atom_site_fract_y
_atom_site_fract_z
Zn1	Zn	1.378987	0.487456	-0.221023
Zn2	Zn	1.878987	0.987456	0.278977
Zn3	Zn	1.378875	0.610511	-0.097967
Zn4	Zn	1.878875	1.110511	0.402033
Zn5	Zn	1.228145	0.466207	-0.119309
Zn6	Zn	1.728145	0.966207	0.380691
Zn7	Zn	1.228103	0.589207	-0.242321
Zn8	Zn	1.728103	1.089207	0.257679
O9	O	1.303527	0.538345	-0.170155
O10	O	1.803527	1.038345	0.329845
O11	O	1.505199	0.521587	-0.186854
O12	O	2.005199	1.021587	0.313146
O13	O	1.358851	0.591392	0.002182
O14	O	1.858851	1.091392	0.502182
O15	O	1.248219	0.366050	-0.132820
O16	O	1.748219	0.866050	0.367180
O17	O	1.505116	0.611996	-0.096445
O18	O	2.005116	1.111996	0.403555
O19	O	1.359042	0.381662	-0.207549
O20	O	1.859042	0.881662	0.292451
O21	O	1.248110	0.485372	-0.013498
O22	O	1.748110	0.985372	0.486502
O23	O	1.101913	0.464715	-0.153472
O24	O	1.601913	0.964715	0.346528
O25	O	1.248147	0.575687	-0.342476
O26	O	1.748147	1.075687	0.157524
O27	O	1.101882	0.555083	-0.243848
O28	O	1.601882	1.055083	0.256152
O29	O	1.359001	0.500930	-0.326828
O30	O	1.859001	1.000930	0.173172
O31	O	1.358810	0.710660	-0.117097
O32	O	1.858810	1.210660	0.382903
O33	O	1.248039	0.695008	-0.223153
O34	O	1.748039	1.195008	0.276847
C35	C	1.069168	0.505282	-0.203287
C36	C	1.569168	1.005282	0.296713
C37	C	0.968908	0.491155	-0.217479
C38	C	1.468908	0.991155	0.282521
C39	C	0.686117	0.639318	-0.068905
C40	C	1.186117	1.139318	0.431095
C41	C	0.780316	0.652590	-0.055565
C42	C	1.280316	1.152590	0.444435
C43	C	0.827469	0.612232	-0.096043
C44	C	1.327469	1.112232	0.403957
C45	C	0.780413	0.558600	-0.149862
C46	C	1.280413	1.058600	0.350138
C47	C	0.686205	0.545323	-0.163198
C48	C	1.186205	1.045323	0.336802
C49	C	0.827557	0.518238	-0.190336
C50	C	1.327557	1.018238	0.309664
C51	C	0.780501	0.464606	-0.244155
C52	C	1.280501	0.964606	0.255845
C53	C	0.686302	0.451331	-0.257490
C54	C	1.186302	0.951331	0.242510
C55	C	0.639149	0.491688	-0.217012
C56	C	1.139149	0.991688	0.282988
C57	C	0.921765	0.531515	-0.177000
C58	C	1.421765	1.031515	0.323000
C59	C	0.921852	0.437520	-0.271293
C60	C	1.421852	0.937520	0.228707
C61	C	0.827653	0.424248	-0.284633
C62	C	1.327653	0.924248	0.215367
C63	C	1.303432	0.729538	-0.170133
C64	C	1.803432	1.229538	0.329867
C65	C	1.303474	0.811343	-0.170136
C66	C	1.803474	1.311343	0.329864
C67	C	1.303582	0.538302	-0.362100
C68	C	1.803582	1.038302	0.137900
C69	C	1.303606	0.538284	-0.443896
C70	C	1.803606	1.038284	0.056104
C71	C	1.538802	0.571538	-0.136893
C72	C	2.038802	1.071538	0.363107
C73	C	1.639062	0.585683	-0.122719
C74	C	2.139062	1.085683	0.377281
C75	C	1.303648	0.346409	-0.170189
C76	C	1.803648	0.846409	0.329811
C77	C	1.303699	0.264618	-0.170204
C78	C	1.803699	0.764618	0.329796
C79	C	1.361288	1.007681	-0.114980
C80	C	1.861288	1.507681	0.385020
C81	C	1.361328	1.084546	-0.114992
C82	C	1.861328	1.584546	0.385008
C83	C	1.245882	1.068273	-0.225366
C84	C	1.745882	1.568273	0.274634
C85	C	1.245847	0.991411	-0.225356
C86	C	1.745847	1.491411	0.274644
C87	C	1.303549	0.961117	-0.170159
C88	C	1.803549	1.461117	0.329841
C89	C	1.303624	1.114844	-0.170181
C90	C	1.803624	1.614844	0.329819
C91	C	1.303667	1.198183	-0.170195
C92	C	1.803667	1.698183	0.329805
C93	C	1.303507	0.877772	-0.170146
C94	C	1.803507	1.377772	0.329854
C95	C	1.361348	0.499317	-0.623940
C96	C	1.861348	0.999317	-0.123940
C97	C	1.361359	0.499297	-0.700797
C98	C	1.861359	0.999297	-0.200797
C99	C	1.245927	0.577146	-0.717080
C100	C	1.745927	1.077146	-0.217080
C101	C	1.245912	0.577161	-0.640225
C102	C	1.745912	1.077161	-0.140225
C103	C	1.303628	0.538248	-0.593656
C104	C	1.803628	1.038248	-0.093656
C105	C	1.303653	0.538213	-0.747369
C106	C	1.803653	1.038213	-0.247369
C107	C	1.303665	0.538192	-0.830701
C108	C	1.803665	1.038192	-0.330701
C109	C	1.303616	0.538268	-0.510319
C110	C	1.803616	1.038268	-0.010319
C111	C	1.303524	0.538342	0.021051
C112	C	1.803524	1.038342	0.521051
C113	C	1.303676	0.538178	0.102871
C114	C	1.803676	1.038178	0.602871
H115	H	0.647717	0.672166	-0.035949
H116	H	1.147717	1.172166	0.464051
C117	C	1.182410	0.619988	-0.606911
C118	C	1.682410	1.119988	-0.106911
N119	N	1.134579	0.652242	-0.581819
N120	N	1.634579	1.152242	-0.081819
H121	H	0.960069	0.575183	-0.133180
H122	H	1.460069	1.075183	0.366820
C123	C	1.182344	0.940189	-0.286073
C124	C	1.682344	1.440189	0.213927
N125	N	1.134524	0.901610	-0.331808
N126	N	1.634524	1.401610	0.168192
C127	C	1.424858	0.456471	-0.734106
C128	C	1.924858	0.956471	-0.234106
N129	N	1.472688	0.424213	-0.759192
N130	N	1.972688	0.924213	-0.259192
H131	H	0.904170	0.623042	-0.085179
H132	H	1.404170	1.123042	0.414821
C133	C	0.832071	0.711584	0.003633
C134	C	1.332071	1.211584	0.503633
N135	N	0.871053	0.756023	0.048223
N136	N	1.371053	1.256023	0.548223
H137	H	0.647991	0.407655	-0.301308
H138	H	1.147991	0.907655	0.198692
H139	H	0.562444	0.480887	-0.227873
H140	H	1.062444	0.980887	0.272127
H141	H	0.789327	0.380580	-0.328452
H142	H	1.289327	0.880580	0.171548
H143	H	0.960244	0.404656	-0.304251
H144	H	1.460244	0.904656	0.195749
H145	H	1.408341	0.467630	-0.586026
H146	H	1.908341	0.967630	-0.086026
C147	C	1.182404	1.101603	-0.286072
C148	C	1.682404	1.601603	0.213928
N149	N	1.134586	1.126706	-0.331795
N150	N	1.634586	1.626706	0.168205
H151	H	1.408273	0.983018	-0.070037
H152	H	1.908273	1.483018	0.429963
H153	H	1.408347	1.122456	-0.070061
H154	H	1.908347	1.622456	0.429939
H155	H	1.198939	0.608829	-0.755005
H156	H	1.698939	1.108829	-0.255005
