data_functionalizedCrystal
_audit_creation_method	'MofGen! by Chris Wilmer'
_symmetry_space_group_name_H-M	'P1'
_symmetry_Int_Tables_number	1
_symmetry_cell_setting	triclinic
loop_
_symmetry_equiv_pos_as_xyz
  x,y,z
_cell_length_a	10.723022
_cell_length_b	19.188930
_cell_length_c	17.666332
_cell_angle_alpha	89.989658
_cell_angle_beta	89.991053
_cell_angle_gamma	83.806004
loop_
_atom_site_label
_atom_site_type_symbol
_atom_site_fract_x
_atom_site_fract_y
_atom_site_fract_z
O1	O	1.655166	0.097918	-0.062953
O2	O	1.291818	0.107292	-0.062956
O3	O	1.483977	0.001018	-0.062940
O4	O	1.463007	0.204193	-0.062970
O5	O	1.483944	0.001015	0.062957
O6	O	1.291785	0.107289	0.062940
O7	O	1.655132	0.097915	0.062944
Cu8	Cu	1.473455	0.102602	0.074437
Cu9	Cu	1.473495	0.102606	-0.074450
O10	O	1.462973	0.204190	0.062927
C11	C	1.245316	0.106609	-0.000008
C12	C	1.106804	0.104569	-0.000009
C13	C	1.483281	-0.024999	0.000011
C14	C	1.481243	-0.102517	0.000017
C15	C	0.887435	0.161924	-0.000019
C16	C	1.030594	0.164034	-0.000018
C17	C	1.593996	-0.146709	0.000022
C18	C	1.592080	-0.219545	0.000010
C19	C	1.477406	-0.248186	0.000008
C20	C	1.364639	-0.203985	-0.000001
C21	C	1.366557	-0.131150	0.000004
N22	N	1.389740	-0.356762	0.042852
N23	N	1.387925	-0.425952	0.042850
C24	C	1.471619	-0.467632	-0.000007
N25	N	1.557215	-0.437510	-0.042852
N26	N	1.559034	-0.368313	-0.042846
C27	C	1.475313	-0.327162	0.000003
C28	C	1.582303	-0.590802	-0.000017
C29	C	1.580383	-0.663639	-0.000034
C30	C	1.352938	-0.648078	-0.000037
C31	C	1.354861	-0.575242	-0.000027
C32	C	1.469547	-0.546609	-0.000014
C33	C	1.701634	0.098599	-0.000006
C34	C	1.840146	0.100639	-0.000010
C35	C	1.463669	0.230207	-0.000025
C36	C	1.465707	0.307724	-0.000037
N37	N	1.473436	0.102599	0.179157
N38	N	1.473524	0.102603	-0.179169
C39	C	1.548870	0.145334	0.218754
C40	C	1.548890	0.145332	0.298002
C41	C	1.473453	0.102603	0.337649
C42	C	1.398015	0.059859	0.298042
C43	C	1.398006	0.059857	0.218796
N44	N	1.364172	0.100173	0.462088
N45	N	1.364183	0.100179	0.537369
C46	C	1.473476	0.102605	0.576413
N47	N	1.582758	0.105039	0.537333
N48	N	1.582745	0.105037	0.462046
C49	C	1.473454	0.102600	0.423578
C50	C	1.548937	0.145341	0.701940
C51	C	1.548960	0.145334	0.781189
C52	C	1.398073	0.059865	0.781227
C53	C	1.398062	0.059868	0.701980
C54	C	1.473492	0.102609	0.662341
H55	H	0.821936	0.212830	-0.000031
Br56	Br	1.651354	0.203332	0.834931
H57	H	1.610358	0.180143	0.669664
Br58	Br	1.038949	0.017104	0.000012
Br59	Br	1.098458	0.251496	-0.000021
Br60	Br	1.749639	-0.107852	0.000019
H61	H	1.259568	-0.671397	-0.000042
Br62	Br	1.745112	-0.279531	0.000013
Br63	Br	1.209008	-0.242853	-0.000013
Br64	Br	1.213523	-0.071171	-0.000005
Br65	Br	1.737943	-0.551938	0.000009
Br66	Br	1.295712	0.001863	0.835025
H67	H	1.610318	0.180134	0.330249
H68	H	1.610296	0.180135	0.186485
H69	H	1.336631	0.025071	0.669739
Br70	Br	1.295643	0.001864	0.351846
H71	H	1.336577	0.025056	0.186556
Br72	Br	1.201831	-0.515263	-0.000033
H73	H	0.905645	0.049733	-0.000007
Br74	Br	1.733418	-0.723616	-0.000035
