data_functionalizedCrystal
_audit_creation_method	'MofGen! by Chris Wilmer'
_symmetry_space_group_name_H-M	'P1'
_symmetry_Int_Tables_number	1
_symmetry_cell_setting	triclinic
loop_
_symmetry_equiv_pos_as_xyz
  x,y,z
_cell_length_a	16.109301
_cell_length_b	23.532407
_cell_length_c	15.186229
_cell_angle_alpha	89.991614
_cell_angle_beta	89.999362
_cell_angle_gamma	83.155079
loop_
_atom_site_label
_atom_site_type_symbol
_atom_site_fract_x
_atom_site_fract_y
_atom_site_fract_z
O1	O	1.102555	0.073202	-0.073182
O2	O	0.860421	0.082312	-0.073197
O3	O	0.988790	-0.005148	-0.073173
O4	O	0.974187	0.160662	-0.073206
O5	O	0.988781	-0.005149	0.073284
O6	O	0.860413	0.082311	0.073260
O7	O	1.102547	0.073201	0.073275
Zn8	Zn	0.981478	0.077755	0.096521
Zn9	Zn	0.981490	0.077757	-0.096443
O10	O	0.974178	0.160660	0.073251
C11	C	0.829445	0.081942	0.000030
C12	C	0.737159	0.080836	0.000025
C13	C	0.514498	0.130160	0.000025
C14	C	0.427786	0.129116	0.000031
C15	C	0.448476	0.025348	0.000048
C16	C	0.535187	0.026393	0.000048
C17	C	0.568195	0.078801	0.000032
C18	C	0.394773	0.076712	0.000038
C19	C	0.300755	0.075580	0.000044
C20	C	0.662218	0.079933	0.000028
C21	C	0.988414	-0.026366	0.000058
C22	C	0.987296	-0.089587	0.000064
C23	C	1.056249	-0.488436	0.000021
C24	C	1.055210	-0.547840	0.000014
O25	O	1.119130	-0.584349	-0.000015
N26	N	0.978895	-0.570748	0.000010
C27	C	0.903614	-0.534248	0.000003
O28	O	0.838607	-0.559187	-0.000002
C29	C	0.904654	-0.474845	0.000004
C30	C	0.980973	-0.451941	0.000017
C31	C	1.132562	-0.465531	0.000033
C32	C	1.133601	-0.406131	0.000041
C33	C	1.058325	-0.369636	0.000037
C34	C	0.982012	-0.392541	0.000025
C35	C	0.829373	-0.438346	-0.000009
C36	C	0.830419	-0.378940	-0.000009
C37	C	0.906739	-0.356036	0.000004
C38	C	0.907774	-0.296645	0.000030
N39	N	0.984089	-0.273738	0.000034
C40	C	1.059365	-0.310233	0.000038
C41	C	0.901437	-0.658998	0.000001
C42	C	0.900396	-0.718400	0.000007
C43	C	1.051993	-0.731988	0.000016
C44	C	1.053032	-0.672585	0.000016
C45	C	0.977752	-0.636091	0.000005
C46	C	1.061539	-0.185488	0.000056
C47	C	1.062571	-0.126082	0.000068
C48	C	0.910975	-0.112499	0.000055
C49	C	0.909943	-0.171900	0.000047
C50	C	0.985232	-0.208394	0.000045
O51	O	0.843888	-0.260102	0.000055
O52	O	1.124361	-0.285285	0.000031
C53	C	1.133523	0.073570	0.000046
C54	C	1.225809	0.074677	0.000046
C55	C	0.974554	0.181878	0.000018
C56	C	0.975672	0.245100	0.000006
N57	N	0.981477	0.077754	0.228214
N58	N	0.981498	0.077754	-0.228136
C59	C	1.038337	0.039040	0.453947
C60	C	1.038340	0.039039	0.546137
C61	C	0.924631	0.116470	0.546124
C62	C	0.924625	0.116468	0.453936
C63	C	0.981483	0.077754	0.407850
C64	C	0.981492	0.077754	0.592228
C65	C	0.981494	0.077753	0.692184
C66	C	0.981480	0.077754	0.307888
H67	H	0.421590	-0.017320	0.000066
O68	O	0.869429	0.154025	0.409016
C69	C	0.881631	0.145729	0.317766
H70	H	0.913075	0.100456	0.305189
H71	H	0.923063	0.177970	0.291594
C72	C	0.757895	0.209880	0.285883
C73	C	0.796509	0.154272	0.270435
H74	H	0.705388	0.215152	0.256685
H75	H	0.749675	0.215471	0.347359
H76	H	0.792430	0.236740	0.264072
H77	H	0.761978	0.127413	0.292256
H78	H	0.804720	0.148677	0.208961
H79	H	1.124722	-0.107437	0.000081
H80	H	0.840130	-0.629287	-0.000001
H81	H	1.115179	-0.653941	0.000026
O82	O	1.207761	-0.383915	-0.000111
C83	C	1.253622	-0.402575	-0.075952
H84	H	1.208981	-0.414916	-0.128968
H85	H	1.300269	-0.441301	-0.058803
C86	C	1.355835	-0.338817	-0.045229
C87	C	1.301006	-0.353970	-0.110347
H88	H	1.385068	-0.308837	-0.066445
H89	H	1.324940	-0.326247	0.005868
H90	H	1.394700	-0.371093	-0.030945
H91	H	1.262136	-0.321697	-0.124623
H92	H	1.331896	-0.366535	-0.161448
H93	H	0.578910	-0.015433	0.000057
H94	H	1.084635	0.007514	0.583666
O95	O	0.546464	0.181102	-0.000100
C96	C	0.518997	0.212408	-0.075966
H97	H	0.458982	0.196896	-0.101252
H98	H	0.569233	0.205808	-0.129079
C99	C	0.575913	0.295525	-0.021873
C100	C	0.502198	0.276477	-0.052926
H101	H	0.565554	0.335046	-0.007664
H102	H	0.594421	0.274434	0.029237
H103	H	0.617769	0.290020	-0.066140
H104	H	0.460347	0.281975	-0.008656
H105	H	0.483682	0.297571	-0.104029
H106	H	0.384069	0.170939	0.000027
H107	H	0.838249	-0.737043	0.000011
O108	O	1.134750	-0.220851	0.000096
C109	C	1.202321	-0.187886	0.000087
H110	H	1.180826	-0.143554	0.027816
H111	H	1.225744	-0.183646	-0.070172
C112	C	1.299927	-0.271938	0.023474
C113	C	1.273528	-0.217490	0.057537
H114	H	1.343853	-0.290199	0.058908
H115	H	1.254404	-0.294147	0.023477
H116	H	1.319440	-0.268397	-0.035075
H117	H	1.254005	-0.221032	0.116080
H118	H	1.319049	-0.195281	0.057546
H119	H	1.193864	-0.495240	0.000032
O120	O	0.755213	-0.460557	-0.000184
C121	C	0.709367	-0.441877	-0.076032
H122	H	0.754019	-0.429525	-0.129036
H123	H	0.662719	-0.403154	-0.058889
C124	C	0.607143	-0.505639	-0.045344
C125	C	0.661986	-0.490472	-0.110447
H126	H	0.577913	-0.535613	-0.066571
H127	H	0.638028	-0.518223	0.005759
H128	H	0.568277	-0.473366	-0.031064
H129	H	0.700857	-0.522743	-0.124718
H130	H	0.631107	-0.477896	-0.161553
O131	O	1.125042	-0.767527	-0.000031
C132	C	1.107750	-0.824867	-0.000017
H133	H	1.042464	-0.827129	-0.027742
H134	H	1.111049	-0.842058	0.070243
C135	C	1.252782	-0.858445	-0.023408
C136	C	1.172600	-0.861224	-0.057468
H137	H	1.292786	-0.880873	-0.058843
H138	H	1.264433	-0.819815	-0.023414
H139	H	1.255519	-0.872770	0.035141
H140	H	1.169861	-0.846893	-0.116012
H141	H	1.160950	-0.899854	-0.057473
H142	H	0.769115	-0.349228	-0.000019
H143	H	0.847797	-0.190549	0.000061
O144	O	0.837932	-0.076961	0.000011
C145	C	0.855224	-0.019621	0.000038
H146	H	0.920513	-0.017352	-0.027677
H147	H	0.851918	-0.002449	0.070302
C148	C	0.710194	0.013963	-0.023367
C149	C	0.790381	0.016751	-0.057414
H150	H	0.670195	0.036401	-0.058803
H151	H	0.698543	-0.024667	-0.023382
H152	H	0.707451	0.028273	0.035185
H153	H	0.793125	0.002435	-0.115961
H154	H	0.802031	0.055381	-0.057410
H155	H	1.084633	0.007515	0.416426
O156	O	0.869488	0.154057	0.591031
C157	C	0.881671	0.145750	0.682284
H158	H	0.947945	0.124477	0.694875
H159	H	0.834853	0.117179	0.708460
C160	C	0.787301	0.230137	0.714132
C161	C	0.868702	0.204013	0.729597
H162	H	0.779297	0.266075	0.743319
H163	H	0.779090	0.235732	0.652654
H164	H	0.748295	0.206322	0.735946
H165	H	0.907706	0.227824	0.707774
H166	H	0.876919	0.198422	0.791073
