data_functionalizedCrystal
_audit_creation_method	'MofGen! by Chris Wilmer'
_symmetry_space_group_name_H-M	'P1'
_symmetry_Int_Tables_number	1
_symmetry_cell_setting	triclinic
loop_
_symmetry_equiv_pos_as_xyz
  x,y,z
_cell_length_a	12.759395
_cell_length_b	25.639240
_cell_length_c	12.759387
_cell_angle_alpha	90.043601
_cell_angle_beta	90.020509
_cell_angle_gamma	90.034295
loop_
_atom_site_label
_atom_site_type_symbol
_atom_site_fract_x
_atom_site_fract_y
_atom_site_fract_z
Zn1	Zn	1.606137	-0.208102	0.593912
Zn2	Zn	1.605972	-0.295548	0.418193
Zn3	Zn	1.430435	-0.208130	0.418248
Zn4	Zn	1.430372	-0.295510	0.593832
O5	O	1.518229	-0.251823	0.506046
O6	O	1.753136	-0.219705	0.570612
O7	O	1.582644	-0.283979	0.271179
O8	O	1.453838	-0.134961	0.441607
O9	O	1.753015	-0.283951	0.441512
O10	O	1.582925	-0.134940	0.570666
O11	O	1.453678	-0.219754	0.271220
O12	O	1.283406	-0.219718	0.441530
O13	O	1.453730	-0.283888	0.740864
O14	O	1.283359	-0.283916	0.570530
O15	O	1.582864	-0.219669	0.740922
O16	O	1.582583	-0.368708	0.441435
O17	O	1.453570	-0.368681	0.570476
C18	C	1.245262	-0.251816	0.506028
C19	C	1.128485	-0.251826	0.506045
C20	C	1.518081	-0.387665	0.505964
C21	C	1.518113	-0.445779	0.505964
C22	C	1.128475	-0.318783	0.640156
C23	C	1.073609	-0.352266	0.707214
C24	C	0.963888	-0.352272	0.707227
C25	C	0.909029	-0.318791	0.640177
C26	C	0.963895	-0.285309	0.573118
C27	C	1.073619	-0.285307	0.573111
C28	C	0.963905	-0.218349	0.439015
C29	C	1.073626	-0.218345	0.438995
C30	C	0.909046	-0.184868	0.371964
C31	C	0.963912	-0.151387	0.304899
C32	C	1.073640	-0.151383	0.304888
C33	C	1.128492	-0.184862	0.371936
C34	C	1.585478	-0.806093	0.573368
C35	C	1.585509	-0.860697	0.573390
O36	O	1.642609	-0.888892	0.630615
N37	N	1.518375	-0.888062	0.506148
C38	C	1.451197	-0.860819	0.438887
O39	O	1.394097	-0.889108	0.381696
C40	C	1.451162	-0.806216	0.438872
C41	C	1.518308	-0.778854	0.506111
C42	C	1.652618	-0.778731	0.640603
C43	C	1.652588	-0.724131	0.640580
C44	C	1.585418	-0.696892	0.573322
C45	C	1.518278	-0.724253	0.506088
C46	C	1.383980	-0.778974	0.371618
C47	C	1.383950	-0.724367	0.371609
C48	C	1.451096	-0.697005	0.438848
C49	C	1.451079	-0.642414	0.438808
N50	N	1.518213	-0.615050	0.506050
C51	C	1.585383	-0.642288	0.573307
C52	C	1.451276	-0.975489	0.438926
C53	C	1.451316	-1.030092	0.438935
C54	C	1.585626	-1.029966	0.573439
C55	C	1.585591	-0.975363	0.573424
C56	C	1.518410	-0.948125	0.506168
C57	C	1.585316	-0.527623	0.573253
C58	C	1.585283	-0.473018	0.573221
C59	C	1.450969	-0.473148	0.438722
C60	C	1.451005	-0.527749	0.438749
C61	C	1.518182	-0.554985	0.506024
O62	O	1.394005	-0.614185	0.381615
O63	O	1.642464	-0.613992	0.630499
C64	C	1.792262	-0.251829	0.506065
C65	C	1.909039	-0.251832	0.506073
C66	C	1.518308	-0.251771	0.780080
C67	C	1.518342	-0.251749	0.896857
C68	C	1.518407	-0.115449	0.506152
C69	C	1.518482	-0.057335	0.506197
C70	C	1.518210	-0.251836	0.233079
C71	C	1.518380	-0.251710	0.116303
C72	C	1.652818	-0.184883	0.896937
C73	C	1.720071	-0.151442	0.951839
C74	C	1.720096	-0.151423	1.061560
C75	C	1.652860	-0.184847	1.116383
C76	C	1.585607	-0.218288	1.061482
C77	C	1.585591	-0.218305	0.951758
C78	C	1.451128	-0.285151	1.061401
C79	C	1.451106	-0.285174	0.951680
C80	C	1.383891	-0.318576	1.116224
C81	C	1.316642	-0.352021	1.061323
C82	C	1.316620	-0.352039	0.951595
C83	C	1.383853	-0.318615	0.896778
H84	H	1.217816	-0.318785	0.640145
H85	H	1.639965	-0.450742	0.627975
F86	F	1.791660	-0.115824	1.119992
H87	H	1.774812	-0.124227	0.907190
F88	F	1.379863	-1.059206	0.367357
F89	F	1.724049	-0.695017	0.712152
F90	F	0.905494	-0.387905	0.778603
F91	F	1.132024	-0.115743	0.233519
H92	H	1.261843	-0.379265	0.906901
H93	H	0.819688	-0.318795	0.640202
H94	H	1.396338	-0.550028	0.383989
H95	H	0.919237	-0.124127	0.250317
H96	H	1.217833	-0.184863	0.371931
H97	H	1.640010	-0.549793	0.628041
H98	H	1.707316	-0.800903	0.695378
H99	H	1.640267	-0.953088	0.628176
H100	H	1.118287	-0.379525	0.761807
F101	F	1.245087	-0.387586	1.119675
F102	F	1.657114	-1.058965	0.645022
H103	H	0.819705	-0.184874	0.371984
F104	F	1.312510	-0.808082	0.300055
F105	F	1.652882	-0.184821	1.233159
H106	H	1.396572	-0.953315	0.384149
F107	F	1.312444	-0.695382	0.300025
H108	H	1.396283	-0.450962	0.383958
H109	H	1.383913	-0.318556	1.205566
H110	H	1.652814	-0.184900	0.807596
F111	F	1.383840	-0.318634	0.780002
