data_functionalizedCrystal
_audit_creation_method	'MofGen! by Chris Wilmer'
_symmetry_space_group_name_H-M	'P1'
_symmetry_Int_Tables_number	1
_symmetry_cell_setting	triclinic
loop_
_symmetry_equiv_pos_as_xyz
  x,y,z
_cell_length_a	17.699077
_cell_length_b	11.792254
_cell_length_c	16.776229
_cell_angle_alpha	89.993192
_cell_angle_beta	89.993415
_cell_angle_gamma	83.739587
loop_
_atom_site_label
_atom_site_type_symbol
_atom_site_fract_x
_atom_site_fract_y
_atom_site_fract_z
O1	O	1.004851	0.143494	-0.066278
O2	O	0.784572	0.162174	-0.066282
O3	O	0.900052	-0.012400	-0.066274
O4	O	0.889370	0.318067	-0.066286
O5	O	0.900036	-0.012411	0.066302
O6	O	0.784556	0.162163	0.066295
O7	O	1.004835	0.143483	0.066299
Zn8	Zn	0.894693	0.152821	0.087346
Zn9	Zn	0.894714	0.152835	-0.087329
O10	O	0.889355	0.318057	0.066291
C11	C	0.756363	0.161500	0.000006
C12	C	0.672334	0.159496	0.000004
C13	C	0.632853	0.158545	0.072273
C14	C	0.553901	0.156644	0.072274
C15	C	0.514429	0.155700	0.000005
C16	C	0.553916	0.156648	-0.072268
C17	C	0.632868	0.158541	-0.072269
C18	C	0.235512	0.149010	-0.072270
C19	C	0.156554	0.147120	-0.072264
C20	C	0.156544	0.147112	0.072273
C21	C	0.235496	0.149006	0.072272
C22	C	0.274977	0.149947	-0.000001
C23	C	0.360586	0.152007	-0.000001
C24	C	0.428821	0.153649	0.000005
C25	C	0.899371	-0.054688	0.000014
C26	C	0.897357	-0.180677	0.000013
C27	C	0.895721	-0.282994	0.000010
C28	C	0.893675	-0.411356	0.000003
C29	C	1.033043	0.144156	0.000009
C30	C	1.117072	0.146161	0.000005
C31	C	0.890036	0.360345	0.000001
C32	C	0.892050	0.486333	-0.000003
N33	N	0.894685	0.152811	0.206557
N34	N	0.894728	0.152837	-0.206541
C35	C	0.945835	0.075541	0.248278
C36	C	0.945839	0.075540	0.331730
C37	C	0.894696	0.152815	0.373460
C38	C	0.843540	0.230089	0.331734
C39	C	0.843533	0.230083	0.248283
C40	C	0.843568	0.230111	0.668281
C41	C	0.843581	0.230113	0.751737
C42	C	0.945874	0.075568	0.751728
C43	C	0.945867	0.075563	0.668277
C44	C	0.894709	0.152831	0.626558
C45	C	0.894704	0.152830	0.536070
C46	C	0.894704	0.152823	0.463947
H47	H	0.665012	0.159317	-0.131117
H48	H	0.987485	0.012620	0.214306
O49	O	0.788365	0.313415	0.203271
H50	H	0.798370	0.401881	0.219260
O51	O	1.001022	-0.007779	0.376732
H52	H	1.036594	-0.061497	0.333694
O53	O	0.511358	0.155596	0.150245
H54	H	0.532983	0.078629	0.184878
H55	H	0.267648	0.149772	-0.131119
O56	O	0.113990	0.146068	-0.150219
H57	H	0.122721	0.223741	-0.184896
O58	O	0.278069	0.150049	0.150218
H59	H	0.237350	0.149068	0.200472
O60	O	1.001023	-0.007789	0.623266
H61	H	1.036587	-0.061530	0.666297
H62	H	0.664984	0.159322	0.131122
H63	H	0.987528	0.012648	0.785704
H64	H	0.801931	0.293041	0.785713
H65	H	0.801914	0.293028	0.634320
H66	H	0.801895	0.293004	0.365715
O67	O	0.114081	0.146220	0.150307
H68	H	0.122919	0.223968	0.184835
O69	O	0.511349	0.155635	-0.150219
H70	H	0.449814	0.154172	-0.138079
