data_functionalizedCrystal
_audit_creation_method	'MofGen! by Chris Wilmer'
_symmetry_space_group_name_H-M	'P1'
_symmetry_Int_Tables_number	1
_symmetry_cell_setting	triclinic
loop_
_symmetry_equiv_pos_as_xyz
  x,y,z
_cell_length_a	12.759401
_cell_length_b	16.959454
_cell_length_c	12.759393
_cell_angle_alpha	89.969236
_cell_angle_beta	89.980163
_cell_angle_gamma	90.021600
loop_
_atom_site_label
_atom_site_type_symbol
_atom_site_fract_x
_atom_site_fract_y
_atom_site_fract_z
Zn1	Zn	1.606216	-0.314602	-0.594026
Zn2	Zn	2.106216	0.185398	-0.094026
Zn3	Zn	1.606094	-0.446804	-0.418349
Zn4	Zn	2.106094	0.053196	0.081651
Zn5	Zn	1.430518	-0.314647	-0.418362
Zn6	Zn	1.930518	0.185353	0.081638
Zn7	Zn	1.430490	-0.446746	-0.593986
Zn8	Zn	1.930490	0.053254	-0.093986
O9	O	1.518329	-0.380700	-0.506181
O10	O	2.018329	0.119300	-0.006181
O11	O	1.753221	-0.332145	-0.570734
O12	O	2.253221	0.167855	-0.070734
O13	O	1.582764	-0.429316	-0.271330
O14	O	2.082764	0.070684	0.228670
O15	O	1.453887	-0.204030	-0.441686
O16	O	1.953887	0.295970	0.058314
O17	O	1.753131	-0.429273	-0.441665
O18	O	2.253131	0.070727	0.058335
O19	O	1.582972	-0.203997	-0.570746
O20	O	2.082972	0.296003	-0.070746
O21	O	1.453769	-0.332221	-0.271339
O22	O	1.953769	0.167779	0.228661
O23	O	1.283493	-0.332165	-0.441647
O24	O	1.783493	0.167835	0.058353
O25	O	1.453840	-0.429174	-0.741013
O26	O	1.953840	0.070826	-0.241013
O27	O	1.283473	-0.429218	-0.570678
O28	O	1.783473	0.070782	-0.070678
O29	O	1.582945	-0.332089	-0.741042
O30	O	2.082945	0.167911	-0.241042
O31	O	1.582737	-0.557407	-0.441626
O32	O	2.082737	-0.057407	0.058374
O33	O	1.453721	-0.557365	-0.570666
O34	O	1.953721	-0.057365	-0.070666
C35	C	1.245362	-0.380690	-0.506160
C36	C	1.745362	0.119310	-0.006160
C37	C	1.128585	-0.380705	-0.506176
C38	C	1.628585	0.119295	-0.006176
C39	C	1.073740	-0.431317	-0.573257
C40	C	1.573740	0.068683	-0.073257
C41	C	0.964016	-0.431320	-0.573277
C42	C	1.464016	0.068680	-0.073277
C43	C	0.963992	-0.330097	-0.439128
C44	C	1.463992	0.169903	0.060872
C45	C	1.073714	-0.330090	-0.439113
C46	C	1.573714	0.169910	0.060887
C47	C	1.518241	-0.586066	-0.506163
C48	C	2.018241	-0.086066	-0.006163
C49	C	1.518300	-0.673923	-0.506190
C50	C	2.018300	-0.173923	-0.006190
C51	C	1.451248	-1.045406	-0.573365
C52	C	1.951248	-0.545406	-0.073365
C53	C	1.585703	-1.045390	-0.439104
C54	C	2.085703	-0.545390	0.060896
C55	C	1.585666	-0.962845	-0.439094
C56	C	2.085666	-0.462845	0.060906
C57	C	1.518418	-0.921576	-0.506220
C58	C	2.018418	-0.421576	-0.006220
C59	C	1.451207	-0.962853	-0.573355
C60	C	1.951207	-0.462853	-0.073355
C61	C	1.652868	-0.921561	-0.371953
C62	C	2.152868	-0.421561	0.128047
C63	C	1.652833	-0.839011	-0.371940
C64	C	2.152833	-0.339011	0.128060
C65	C	1.585590	-0.797740	-0.439071
C66	C	2.085590	-0.297740	0.060929
C67	C	1.518377	-0.839022	-0.506210
C68	C	2.018377	-0.339022	-0.006210
C69	C	1.451130	-0.797753	-0.573335
C70	C	1.951130	-0.297753	-0.073335
C71	C	1.383921	-0.839034	-0.640480
C72	C	1.883921	-0.339034	-0.140480
C73	C	1.383964	-0.921582	-0.640486
C74	C	1.883964	-0.421582	-0.140486
C75	C	1.585547	-0.715192	-0.439065
C76	C	2.085547	-0.215192	0.060935
C77	C	1.451089	-0.715200	-0.573326
C78	C	1.951089	-0.215200	-0.073326
C79	C	1.792363	-0.380710	-0.506202
C80	C	2.292363	0.119290	-0.006202
C81	C	1.909139	-0.380715	-0.506212
C82	C	2.409139	0.119285	-0.006212
C83	C	1.518403	-0.380620	-0.780214
C84	C	2.018403	0.119380	-0.280214
C85	C	1.518434	-0.380586	-0.896991
C86	C	2.018434	0.119414	-0.396991
C87	C	1.518446	-0.174532	-0.506222
C88	C	2.018446	0.325468	-0.006222
C89	C	1.518496	-0.086675	-0.506239
C90	C	2.018496	0.413325	-0.006239
C91	C	1.451290	-0.330019	-0.951857
C92	C	1.951290	0.169981	-0.451857
C93	C	1.451315	-0.329995	-1.061581
C94	C	1.951315	0.170005	-0.561581
C95	C	1.585635	-0.431106	-1.061563
C96	C	2.085635	0.068894	-0.561563
C97	C	1.585605	-0.431134	-0.951841
C98	C	2.085605	0.068866	-0.451841
C99	C	1.518317	-0.380723	-0.233213
C100	C	2.018317	0.119277	0.266787
C101	C	1.518489	-0.380534	-0.116437
C102	C	2.018489	0.119466	0.383563
H103	H	1.118413	-0.472529	-0.627866
H104	H	1.618413	0.027471	-0.127866
H105	H	1.640262	-0.681585	-0.384392
H106	H	2.140262	-0.181585	0.115608
H107	H	1.707610	-0.955169	-0.317295
H108	H	2.207610	-0.455169	0.182705
F109	F	1.657068	-0.484960	-0.893445
F110	F	2.157068	0.015040	-0.393445
H111	H	1.329246	-0.955200	-0.695151
H112	H	1.829246	-0.455200	-0.195151
F113	F	1.379729	-1.089339	-0.644826
F114	F	1.879729	-0.589339	-0.144826
F115	F	0.905651	-0.485188	-0.644676
F116	F	1.405651	0.014812	-0.144676
F117	F	1.379518	-0.671285	-0.644777
F118	F	1.879518	-0.171285	-0.144777
F119	F	0.905585	-0.276233	-0.367758
F120	F	1.405585	0.223767	0.132242
H121	H	1.118370	-0.288871	-0.384488
H122	H	1.618370	0.211129	0.115512
F123	F	1.312349	-0.795103	-0.711913
F124	F	1.812349	-0.295103	-0.211913
H125	H	1.640446	-1.078997	-0.384447
H126	H	2.140446	-0.578997	0.115553
H127	H	1.707558	-0.805405	-0.317268
H128	H	2.207558	-0.305405	0.182732
H129	H	1.396595	-0.288860	-0.907201
H130	H	1.896595	0.211140	-0.407201
H131	H	1.396639	-0.288819	-1.106249
H132	H	1.896639	0.211181	-0.606249
H133	H	1.640324	-0.472260	-1.106236
H134	H	2.140324	0.027740	-0.606236
