data_functionalizedCrystal
_audit_creation_method	'MofGen! by Chris Wilmer'
_symmetry_space_group_name_H-M	'P1'
_symmetry_Int_Tables_number	1
_symmetry_cell_setting	triclinic
loop_
_symmetry_equiv_pos_as_xyz
  x,y,z
_cell_length_a	12.759401
_cell_length_b	21.295417
_cell_length_c	12.759393
_cell_angle_alpha	89.963203
_cell_angle_beta	89.981195
_cell_angle_gamma	90.028746
loop_
_atom_site_label
_atom_site_type_symbol
_atom_site_fract_x
_atom_site_fract_y
_atom_site_fract_z
Zn1	Zn	1.606148	-0.250596	-0.593935
Zn2	Zn	1.605996	-0.355878	-0.418235
Zn3	Zn	1.430450	-0.250625	-0.418275
Zn4	Zn	1.430393	-0.355830	-0.593877
O5	O	1.518247	-0.303232	-0.506081
O6	O	1.753149	-0.264570	-0.570637
O7	O	1.582669	-0.341948	-0.271219
O8	O	1.453844	-0.162532	-0.441617
O9	O	1.753037	-0.341920	-0.441551
O10	O	1.582929	-0.162511	-0.570675
O11	O	1.453696	-0.264619	-0.271248
O12	O	1.283421	-0.264572	-0.441560
O13	O	1.453747	-0.341838	-0.740906
O14	O	1.283379	-0.341866	-0.570574
O15	O	1.582874	-0.264524	-0.740949
O16	O	1.582614	-0.443961	-0.441494
O17	O	1.453600	-0.443926	-0.570536
C18	C	1.245279	-0.303218	-0.506066
C19	C	1.128503	-0.303226	-0.506085
C20	C	1.073692	-0.263026	-0.573404
C21	C	0.963968	-0.263038	-0.573410
C22	C	0.963875	-0.343456	-0.438776
C23	C	1.073597	-0.343440	-0.438765
C24	C	1.128598	-0.222812	-0.640724
C25	C	1.073787	-0.182609	-0.708049
C26	C	0.964063	-0.182621	-0.708056
C27	C	0.909150	-0.222836	-0.640737
C28	C	1.518113	-0.466784	-0.506027
C29	C	1.518152	-0.536752	-0.506040
C30	C	1.585328	-0.569551	-0.573288
C31	C	1.585365	-0.635293	-0.573314
C32	C	1.518237	-0.668234	-0.506073
C33	C	1.451048	-0.635428	-0.438820
C34	C	1.451005	-0.569687	-0.438803
N35	N	1.510297	-0.771502	-0.414126
N36	N	1.510344	-0.833954	-0.414145
C37	C	1.518360	-0.866309	-0.506120
N38	N	1.526347	-0.833854	-0.598078
N39	N	1.526306	-0.771397	-0.598058
C40	C	1.518275	-0.739520	-0.506084
C41	C	1.585579	-0.970393	-0.573402
C42	C	1.585609	-1.036137	-0.573430
C43	C	1.451297	-1.036271	-0.438927
C44	C	1.451262	-0.970528	-0.438908
C45	C	1.518409	-0.937593	-0.506145
C46	C	1.792280	-0.303248	-0.506096
C47	C	1.909057	-0.303254	-0.506102
C48	C	1.518321	-0.303173	-0.780114
C49	C	1.518353	-0.303147	-0.896891
C50	C	1.518410	-0.139042	-0.506157
C51	C	1.518479	-0.069074	-0.506189
C52	C	1.585618	-0.262853	-1.061502
C53	C	1.585595	-0.262881	-0.951778
C54	C	1.451137	-0.343393	-0.951734
C55	C	1.451165	-0.343368	-1.061456
C56	C	1.652857	-0.222580	-1.116383
C57	C	1.720075	-0.182335	-1.061548
C58	C	1.720053	-0.182362	-0.951824
C59	C	1.652812	-0.222635	-0.896935
C60	C	1.518233	-0.303246	-0.233113
C61	C	1.518404	-0.303094	-0.116337
H62	H	0.919156	-0.376198	-0.383970
C63	C	1.134193	-0.138372	-0.782091
N64	N	1.179690	-0.105052	-0.837860
C65	C	1.377247	-0.671665	-0.364814
N66	N	1.321671	-0.698958	-0.309058
H67	H	1.652880	-0.222551	-1.205726
C68	C	1.659271	-0.671379	-0.647290
N69	N	1.714940	-0.698557	-0.703008
H70	H	1.774826	-0.149550	-1.106246
C71	C	1.659197	-0.533326	-0.647244
N72	N	1.714839	-0.506041	-0.702946
H73	H	1.396435	-0.376136	-1.106104
C74	C	1.659427	-0.934163	-0.647377
N75	N	1.715047	-0.906876	-0.703099
C76	C	1.377441	-1.072502	-0.364975
N77	N	1.321804	-1.099795	-0.309279
H78	H	1.217940	-0.222798	-0.640726
H79	H	0.919439	-0.149882	-0.762868
C80	C	1.377099	-0.533607	-0.364826
N81	N	1.321430	-0.506431	-0.309106
C82	C	1.659517	-1.072215	-0.647407
N83	N	1.715190	-1.099390	-0.703125
C84	C	0.788449	-0.222846	-0.640746
N85	N	0.697539	-0.222854	-0.640757
H86	H	1.118225	-0.376175	-0.383947
H87	H	1.652807	-0.222659	-0.807590
C88	C	1.377168	-0.387684	-0.891351
N89	N	1.321450	-0.421043	-0.845872
H90	H	1.396565	-0.943822	-0.384144
C91	C	1.793994	-0.138093	-0.891508
N92	N	1.849684	-0.104745	-0.846081
