data_functionalizedCrystal
_audit_creation_method	'MofGen! by Chris Wilmer'
_symmetry_space_group_name_H-M	'P1'
_symmetry_Int_Tables_number	1
_symmetry_cell_setting	triclinic
loop_
_symmetry_equiv_pos_as_xyz
  x,y,z
_cell_length_a	17.077404
_cell_length_b	17.077402
_cell_length_c	18.215407
_cell_angle_alpha	89.989341
_cell_angle_beta	89.989808
_cell_angle_gamma	90.021402
loop_
_atom_site_label
_atom_site_type_symbol
_atom_site_fract_x
_atom_site_fract_y
_atom_site_fract_z
Zn1	Zn	-1.199973	0.312700	0.416123
Zn2	Zn	-0.866640	0.646033	0.749456
Zn3	Zn	-0.533306	0.979366	1.082789
Zn4	Zn	-1.199899	0.443936	0.293060
Zn5	Zn	-0.866565	0.777269	0.626393
Zn6	Zn	-0.533232	1.110603	0.959727
Zn7	Zn	-1.068727	0.312681	0.293070
Zn8	Zn	-0.735393	0.646015	0.626404
Zn9	Zn	-0.402060	0.979348	0.959737
Zn10	Zn	-1.068670	0.443921	0.416085
Zn11	Zn	-0.735336	0.777254	0.749418
Zn12	Zn	-0.402003	1.110587	1.082751
O13	O	-1.134317	0.378309	0.354584
O14	O	-0.800984	0.711643	0.687918
O15	O	-0.467650	1.044976	1.021251
O16	O	-1.309810	0.330122	0.399810
O17	O	-0.976477	0.663456	0.733143
O18	O	-0.643143	0.996789	1.066476
O19	O	-1.182491	0.426524	0.190077
O20	O	-0.849158	0.759857	0.523410
O21	O	-0.515824	1.093190	0.856744
O22	O	-1.086192	0.202837	0.309414
O23	O	-0.752858	0.536170	0.642747
O24	O	-0.419525	0.869504	0.976080
O25	O	-1.309755	0.426541	0.309396
O26	O	-0.976422	0.759874	0.642729
O27	O	-0.643089	1.093208	0.976063
O28	O	-1.182618	0.202850	0.399820
O29	O	-0.849285	0.536184	0.733153
O30	O	-0.515951	0.869517	1.066486
O31	O	-1.086120	0.330091	0.190085
O32	O	-0.752786	0.663425	0.523418
O33	O	-0.419453	0.996758	0.856751
O34	O	-0.958872	0.330077	0.309377
O35	O	-0.625539	0.663410	0.642710
O36	O	-0.292205	0.996743	0.976044
O37	O	-1.086094	0.426515	0.519074
O38	O	-0.752761	0.759848	0.852407
O39	O	-0.419428	1.093182	1.185741
O40	O	-0.958830	0.426497	0.399755
O41	O	-0.625497	0.759831	0.733088
O42	O	-0.292164	1.093164	1.066422
O43	O	-1.182563	0.330107	0.519102
O44	O	-0.849229	0.663441	0.852435
O45	O	-0.515896	0.996774	1.185769
O46	O	-1.182436	0.553781	0.309359
O47	O	-0.849102	0.887114	0.642692
O48	O	-0.515769	1.220447	0.976026
O49	O	-1.086022	0.553769	0.399745
O50	O	-0.752689	0.887103	0.733078
O51	O	-0.419356	1.220436	1.066412
C52	C	-0.930369	0.378284	0.354563
C53	C	-0.597036	0.711617	0.687897
C54	C	-0.263702	1.044951	1.021230
C55	C	-0.843119	0.378292	0.354572
C56	C	-0.509786	0.711625	0.687905
C57	C	-0.176453	1.044959	1.021239
C58	C	-0.802158	0.328175	0.401721
C59	C	-0.468825	0.661509	0.735055
C60	C	-0.135492	0.994842	1.068388
C61	C	-0.720178	0.328179	0.401723
C62	C	-0.386845	0.661512	0.735056
C63	C	-0.053511	0.994846	1.068390
C64	C	-0.679160	0.378304	0.354578
C65	C	-0.345827	0.711637	0.687912
C66	C	-0.012493	1.044971	1.021245
C67	C	-0.720127	0.428423	0.307424
C68	C	-0.386793	0.761756	0.640757
C69	C	-0.053460	1.095089	0.974090
C70	C	-0.802106	0.428414	0.307419
C71	C	-0.468772	0.761748	0.640752
C72	C	-0.135439	1.095081	0.974086
C73	C	-0.549257	0.428438	0.307438
C74	C	-0.215923	0.761771	0.640772
C75	C	0.117410	1.095105	0.974105
C76	C	-0.467272	0.428447	0.307444
C77	C	-0.133939	0.761781	0.640777
C78	C	0.199395	1.095114	0.974110
C79	C	-0.467329	0.328202	0.401742
C80	C	-0.133996	0.661536	0.735076
C81	C	0.199338	0.994869	1.068409
C82	C	-0.549308	0.328194	0.401737
C83	C	-0.215975	0.661527	0.735071
C84	C	0.117359	0.994861	1.068404
C85	C	-0.590269	0.378314	0.354584
C86	C	-0.256936	0.711648	0.687917
C87	C	0.076398	1.044981	1.021250
C88	C	-1.134236	0.582257	0.354563
C89	C	-0.800903	0.915591	0.687896
C90	C	-0.467569	1.248924	1.021230
C91	C	-1.134273	0.669507	0.354578
C92	C	-0.800940	1.002840	0.687912
C93	C	-0.467607	1.336174	1.021245
C94	C	-1.134330	0.378311	0.546537
C95	C	-0.800997	0.711645	0.879871
C96	C	-0.467664	1.044978	1.213204
C97	C	-1.134336	0.378312	0.628336
C98	C	-0.801003	0.711646	0.961670
C99	C	-0.467670	1.044979	1.295003
C100	C	-0.339061	0.378332	0.354600
C101	C	-0.005728	0.711665	0.687934
C102	C	0.327606	1.044998	1.021267
C103	C	-0.426311	0.378331	0.354593
C104	C	-0.092978	0.711664	0.687926
C105	C	0.240356	1.044998	1.021260
C106	C	-1.184526	0.710477	0.307566
C107	C	-0.851193	1.043810	0.640900
C108	C	-0.517859	1.377144	0.974233
C109	C	-1.184562	0.792457	0.307588
C110	C	-0.851229	1.125791	0.640922
C111	C	-0.517896	1.459124	0.974255
C112	C	-1.134341	0.833466	0.354619
C113	C	-0.801008	1.166800	0.687952
C114	C	-0.467675	1.500133	1.021286
C115	C	-1.084086	0.792491	0.401636
C116	C	-0.750753	1.125824	0.734969
C117	C	-0.417420	1.459157	1.068303
C118	C	-1.084055	0.710512	0.401617
C119	C	-0.750721	1.043845	0.734951
C120	C	-0.417388	1.377178	1.068284
C121	C	-1.084155	0.963361	0.401670
C122	C	-0.750821	1.296694	0.735004
C123	C	-0.417488	1.630027	1.068337
C124	C	-1.084185	1.045345	0.401688
C125	C	-0.750852	1.378679	0.735022
C126	C	-0.417519	1.712012	1.068355
C127	C	-1.184662	1.045306	0.307642
C128	C	-0.851329	1.378640	0.640975
C129	C	-0.517996	1.711973	0.974308
C130	C	-1.184631	0.963327	0.307623
C131	C	-0.851297	1.296661	0.640956
C132	C	-0.517964	1.629994	0.974290
C133	C	-1.134374	0.922357	0.354639
C134	C	-0.801041	1.255691	0.687972
C135	C	-0.467708	1.589024	1.021306
C136	C	-1.134413	1.173565	0.354632
C137	C	-0.801080	1.506898	0.687965
C138	C	-0.467747	1.840232	1.021298
C139	C	-1.134438	1.086315	0.354677
C140	C	-0.801105	1.419649	0.688010
C141	C	-0.467771	1.752982	1.021343
C142	C	-1.184552	0.328121	0.816546
C143	C	-0.851218	0.661454	1.149879
C144	C	-0.517885	0.994788	1.483212
C145	C	-1.184547	0.328121	0.893405
C146	C	-0.851214	0.661454	1.226738
C147	C	-0.517881	0.994787	1.560071
C148	C	-1.084095	0.428515	0.893364
C149	C	-0.750762	0.761848	1.226698
C150	C	-0.417429	1.095182	1.560031
C151	C	-1.084096	0.428511	0.816507
C152	C	-0.750763	0.761844	1.149840
C153	C	-0.417430	1.095177	1.483174
C154	C	-1.134329	0.378315	0.778100
C155	C	-0.800996	0.711648	1.111433
C156	C	-0.467662	1.044982	1.444766
C157	C	-1.134324	0.378319	0.931816
C158	C	-0.800990	0.711652	1.265149
C159	C	-0.467657	1.044986	1.598482
C160	C	-1.134318	0.378319	1.015149
C161	C	-0.800985	0.711652	1.348483
C162	C	-0.467652	1.044986	1.681816
C163	C	-1.134333	0.378314	0.694761
C164	C	-0.801000	0.711647	1.028094
C165	C	-0.467667	1.044980	1.361427
C166	C	-1.134304	0.378324	1.163378
C167	C	-0.800970	0.711658	1.496711
C168	C	-0.467637	1.044991	1.830045
C169	C	-1.134316	0.378322	1.081579
C170	C	-0.800983	0.711655	1.414913
C171	C	-0.467650	1.044988	1.748246
H172	H	-0.835549	0.287360	0.440114
H173	H	-0.502216	0.620693	0.773447
H174	H	-0.168883	0.954026	1.106781
C175	C	-1.028863	0.918296	0.453385
C176	C	-0.695530	1.251629	0.786718
C177	C	-0.362197	1.584962	1.120052
N178	N	-0.987213	0.884352	0.492330
N179	N	-0.653880	1.217686	0.825664
N180	N	-0.320547	1.551019	1.158997
C181	C	-0.675125	0.273049	0.453593
C182	C	-0.341791	0.606382	0.786927
C183	C	-0.008458	0.939716	1.120260
N184	N	-0.641191	0.231523	0.492665
N185	N	-0.307858	0.564856	0.825998
N186	N	0.025476	0.898190	1.159331
C187	C	-0.422270	0.273072	0.453615
C188	C	-0.088937	0.606406	0.786948
C189	C	0.244396	0.939739	1.120281
N190	N	-0.388328	0.231554	0.492687
N191	N	-0.054995	0.564887	0.826020
N192	N	0.278338	0.898220	1.159353
H193	H	-1.043199	0.825887	0.439932
H194	H	-0.709866	1.159220	0.773266
H195	H	-0.376532	1.492553	1.106599
C196	C	-1.028948	1.090454	0.453432
C197	C	-0.695615	1.423787	0.786766
C198	C	-0.362281	1.757120	1.120099
N199	N	-0.987345	1.124429	0.492409
N200	N	-0.654011	1.457762	0.825742
N201	N	-0.320678	1.791096	1.159075
H202	H	-1.043135	0.677155	0.439900
H203	H	-0.709801	1.010488	0.773233
H204	H	-0.376468	1.343821	1.106567
H205	H	-1.043193	0.469384	0.785203
H206	H	-0.709860	0.802717	1.118537
H207	H	-0.376527	1.136051	1.451870
C208	C	-1.239802	0.272898	0.774301
C209	C	-0.906468	0.606231	1.107634
C210	C	-0.573135	0.939564	1.440967
N211	N	-1.281415	0.231299	0.742483
N212	N	-0.948082	0.564632	1.075817
N213	N	-0.614749	0.897965	1.409150
H214	H	-0.686723	0.469232	0.269034
H215	H	-0.353390	0.802565	0.602367
H216	H	-0.020057	1.135898	0.935701
H217	H	-0.582703	0.287383	0.440131
H218	H	-0.249369	0.620716	0.773464
H219	H	0.083964	0.954049	1.106798
C220	C	-1.028841	0.483726	0.935619
C221	C	-0.695508	0.817059	1.268953
C222	C	-0.362174	1.150392	1.602286
N223	N	-0.987222	0.525312	0.967445
N224	N	-0.653889	0.858645	1.300779
N225	N	-0.320555	1.191978	1.634112
C226	C	-0.594312	0.483575	0.255568
C227	C	-0.260978	0.816908	0.588902
C228	C	0.072355	1.150242	0.922235
N229	N	-0.628247	0.525107	0.216504
N230	N	-0.294914	0.858441	0.549837
N231	N	0.038419	1.191774	0.883171
C232	C	-0.422154	0.483586	0.255581
C233	C	-0.088820	0.816919	0.588914
C234	C	0.244513	1.150253	0.922248
N235	N	-0.388171	0.525117	0.216517
N236	N	-0.054837	0.858451	0.549850
N237	N	0.278496	1.191784	0.883184
H238	H	-0.835455	0.469224	0.269025
H239	H	-0.502122	0.802557	0.602358
H240	H	-0.168788	1.135891	0.935691
H241	H	-1.225442	0.287247	0.924704
H242	H	-0.892109	0.620580	1.258037
H243	H	-0.558776	0.953913	1.591371
H244	H	-1.225418	0.677093	0.269266
H245	H	-0.892085	1.010426	0.602599
H246	H	-0.558751	1.343760	0.935932
H247	H	-1.225482	0.825812	0.269306
H248	H	-0.892149	1.159145	0.602639
H249	H	-0.558816	1.492478	0.935973
H250	H	-1.225520	0.929938	0.269324
H251	H	-0.892187	1.263271	0.602657
H252	H	-0.558853	1.596605	0.935990
C253	C	-1.239951	1.090375	0.255929
C254	C	-0.906618	1.423708	0.589263
C255	C	-0.573285	1.757042	0.922596
N256	N	-1.281593	1.124324	0.216981
N257	N	-0.948260	1.457658	0.550314
N258	N	-0.614927	1.790991	0.883648
