data_functionalizedCrystal
_audit_creation_method	'MofGen! by Chris Wilmer'
_symmetry_space_group_name_H-M	'P1'
_symmetry_Int_Tables_number	1
_symmetry_cell_setting	triclinic
loop_
_symmetry_equiv_pos_as_xyz
  x,y,z
_cell_length_a	25.639242
_cell_length_b	18.101395
_cell_length_c	18.101389
_cell_angle_alpha	89.980315
_cell_angle_beta	89.972230
_cell_angle_gamma	90.027478
loop_
_atom_site_label
_atom_site_type_symbol
_atom_site_fract_x
_atom_site_fract_y
_atom_site_fract_z
Zn1	Zn	0.799278	-0.294996	-0.418900
Zn2	Zn	0.799204	-0.418821	-0.295056
Zn3	Zn	0.711846	-0.294988	-0.295054
Zn4	Zn	0.711810	-0.418790	-0.418837
O5	O	0.755535	-0.356899	-0.356962
O6	O	0.872434	-0.311437	-0.402499
O7	O	0.787599	-0.402405	-0.191423
O8	O	0.723491	-0.191357	-0.311508
O9	O	0.872379	-0.402412	-0.311511
O10	O	0.787727	-0.191362	-0.402497
O11	O	0.723418	-0.311425	-0.191421
O12	O	0.638676	-0.311395	-0.311447
O13	O	0.723429	-0.402359	-0.522478
O14	O	0.638650	-0.402352	-0.402390
O15	O	0.787692	-0.311407	-0.522525
O16	O	0.787564	-0.522450	-0.311450
O17	O	0.723357	-0.522427	-0.402392
C18	C	0.755463	-0.549309	-0.356930
C19	C	0.755480	-0.631624	-0.356942
C20	C	0.619692	-0.356870	-0.356912
C21	C	0.561578	-0.356875	-0.356908
C22	C	0.755540	-0.782332	-0.356971
C23	C	0.715121	-0.813702	-0.414145
C24	C	0.715274	-0.899320	-0.414386
C25	C	0.755598	-0.930714	-0.357000
C26	C	0.810719	-0.899541	-0.378008
C27	C	0.810452	-0.813896	-0.378406
C28	C	0.741331	-0.813954	-0.278653
C29	C	0.740149	-0.899606	-0.279086
C30	C	0.755634	-1.014574	-0.357015
C31	C	0.755507	-0.698473	-0.356958
C32	C	0.201210	-0.404339	-0.404271
C33	C	0.146606	-0.404344	-0.404283
O34	O	0.118365	-0.444663	-0.444510
N35	N	0.119296	-0.356919	-0.357010
C36	C	0.146593	-0.309482	-0.309728
O37	O	0.118349	-0.269144	-0.269521
C38	C	0.201196	-0.309474	-0.309721
C39	C	0.228503	-0.356907	-0.356991
C40	C	0.228517	-0.451767	-0.451538
C41	C	0.283118	-0.451764	-0.451525
C42	C	0.310411	-0.404332	-0.404245
C43	C	0.283104	-0.356903	-0.356978
C44	C	0.228492	-0.262034	-0.262443
C45	C	0.283099	-0.262030	-0.262440
C46	C	0.310406	-0.309463	-0.309710
C47	C	0.364997	-0.309467	-0.309685
N48	N	0.392308	-0.356892	-0.356958
C49	C	0.365014	-0.404324	-0.404238
C50	C	0.031922	-0.309501	-0.309748
C51	C	-0.022680	-0.309512	-0.309751
C52	C	-0.022663	-0.404373	-0.404307
C53	C	0.031940	-0.404365	-0.404300
C54	C	0.059232	-0.356925	-0.357021
C55	C	0.479680	-0.404313	-0.404207
C56	C	0.534285	-0.404307	-0.404188
C57	C	0.534263	-0.309444	-0.309635
C58	C	0.479663	-0.309452	-0.309651
C59	C	0.452372	-0.356889	-0.356943
O60	O	0.393273	-0.269167	-0.269481
O61	O	0.393265	-0.444648	-0.444445
C62	C	0.891908	-0.356929	-0.357013
C63	C	0.950022	-0.356941	-0.357034
C64	C	0.755565	-0.356880	-0.550124
C65	C	0.755578	-0.356872	-0.632438
C66	C	0.755621	-0.163737	-0.357009
C67	C	0.755658	-0.081423	-0.357030
C68	C	0.755608	-0.356733	-0.931529
C69	C	0.715037	-0.413775	-0.900175
C70	C	0.715146	-0.414040	-0.814556
C71	C	0.755593	-0.356802	-0.783146
C72	C	0.810679	-0.377992	-0.814256
C73	C	0.810453	-0.378367	-0.899901
C74	C	0.741573	-0.278374	-0.899954
C75	C	0.740347	-0.278827	-0.814303
C76	C	0.755587	-0.356840	-0.699287
C77	C	0.755617	-0.356698	-1.015389
C78	C	0.755535	-0.356864	-0.164551
C79	C	0.755623	-0.356663	-0.082238
H80	H	0.674405	-0.920402	-0.401254
H81	H	0.674107	-0.793175	-0.401160
N82	N	0.563706	-0.258288	-0.258641
H83	H	0.602440	-0.265485	-0.265812
H84	H	0.554184	-0.205416	-0.270268
N85	N	0.563734	-0.455473	-0.455174
H86	H	0.554258	-0.444048	-0.508109
H87	H	0.602458	-0.448256	-0.447932
H88	H	0.771123	-0.235875	-0.920233
H89	H	0.701805	-0.792415	-0.259488
H90	H	0.206267	-0.223411	-0.223949
H91	H	0.305347	-0.490387	-0.490019
N92	N	0.061350	-0.258336	-0.258739
H93	H	0.083982	-0.288376	-0.224359
H94	H	0.083997	-0.224060	-0.288937
H95	H	0.699584	-0.919990	-0.263240
H96	H	0.841602	-0.793138	-0.338565
H97	H	0.822351	-0.435648	-0.919884
H98	H	0.724423	-0.792144	-0.471847
N99	N	0.851859	-0.325739	-0.927384
H100	H	0.852035	-0.325574	-0.983180
H101	H	0.844140	-0.274335	-0.908673
H102	H	0.841719	-0.337751	-0.793914
H103	H	0.724724	-0.919769	-0.472420
N104	N	0.826381	-0.787371	-0.454232
H105	H	0.833509	-0.831313	-0.487084
H106	H	0.797332	-0.756775	-0.476194
H107	H	0.457428	-0.270830	-0.271158
N108	N	0.661045	-0.396443	-0.786684
H109	H	0.636910	-0.388448	-0.830034
H110	H	0.647793	-0.438944	-0.755755
N111	N	0.851725	-0.926461	-0.324558
H112	H	0.834925	-0.959203	-0.286121
H113	H	0.879088	-0.955444	-0.352313
N114	N	0.826718	-0.453060	-0.785857
H115	H	0.798386	-0.473449	-0.752848
H116	H	0.832350	-0.487570	-0.828956
H117	H	0.305317	-0.223393	-0.223944
H118	H	0.457466	-0.442939	-0.442718
H119	H	0.822971	-0.920948	-0.434633
H120	H	0.767442	-0.920986	-0.234229
N121	N	0.689290	-0.252798	-0.928538
H122	H	0.674172	-0.291752	-0.962250
H123	H	0.664875	-0.244336	-0.885567
N124	N	0.780323	-0.787082	-0.222225
H125	H	0.807063	-0.754584	-0.247230
H126	H	0.761619	-0.757854	-0.182774
H127	H	0.206301	-0.490393	-0.490043
H128	H	0.674065	-0.400650	-0.920757
N129	N	0.061391	-0.455524	-0.455282
H130	H	0.035810	-0.485572	-0.485231
H131	H	0.084067	-0.425429	-0.489609
N132	N	-0.052106	-0.455534	-0.455304
H133	H	-0.090840	-0.448335	-0.448134
H134	H	-0.042538	-0.444082	-0.508214
H135	H	-0.044910	-0.270895	-0.271252
H136	H	0.724211	-0.471503	-0.921700
N137	N	0.727426	-0.490979	-0.787436
H138	H	0.762848	-0.506455	-0.806315
H139	H	0.727514	-0.491436	-0.731643
N140	N	0.686651	-0.257650	-0.787367
H141	H	0.672257	-0.298391	-0.755116
H142	H	0.688948	-0.210414	-0.757866
H143	H	0.767741	-0.234071	-0.792922
