data_functionalizedCrystal
_audit_creation_method	'MofGen! by Chris Wilmer'
_symmetry_space_group_name_H-M	'P1'
_symmetry_Int_Tables_number	1
_symmetry_cell_setting	triclinic
loop_
_symmetry_equiv_pos_as_xyz
  x,y,z
_cell_length_a	15.944551
_cell_length_b	13.339070
_cell_length_c	12.376457
_cell_angle_alpha	104.398083
_cell_angle_beta	78.710444
_cell_angle_gamma	99.564016
loop_
_atom_site_label
_atom_site_type_symbol
_atom_site_fract_x
_atom_site_fract_y
_atom_site_fract_z
O1	O	1.156500	0.111110	-0.093879
O2	O	0.915702	0.127190	-0.093907
O3	O	1.008465	-0.028116	-0.093893
O4	O	1.063737	0.266415	-0.093893
O5	O	0.985273	0.010658	0.094116
O6	O	0.892510	0.165963	0.094102
O7	O	1.133308	0.149883	0.094129
Zn8	Zn	1.009227	0.164079	0.123966
Zn9	Zn	1.039783	0.112994	-0.123743
O10	O	1.040546	0.305189	0.094115
C11	C	0.987533	-0.046419	0.000109
C12	C	0.959703	-0.158724	0.000101
C13	C	0.872657	0.145908	0.000094
C14	C	0.778946	0.143904	0.000083
C15	C	1.176093	-0.523498	0.000126
C16	C	1.202242	-0.417980	0.000140
C17	C	1.141609	-0.353161	0.000130
C18	C	1.054824	-0.393870	0.000107
C19	C	1.028671	-0.499395	0.000102
C20	C	0.994188	-0.329059	0.000106
C21	C	0.907402	-0.369768	0.000083
C22	C	0.881254	-0.475283	0.000077
C23	C	0.941886	-0.540102	0.000087
C24	C	1.020340	-0.223533	0.000111
C25	C	0.872918	-0.199431	0.000086
C26	C	0.846770	-0.304949	0.000073
C27	C	0.540540	0.042856	0.000106
C28	C	0.501889	0.070664	-0.092593
C29	C	0.607374	0.140285	0.000097
C30	C	0.479051	0.108915	0.092769
C31	C	0.441643	0.136783	0.000115
C32	C	0.569967	0.168104	-0.092678
C33	C	0.547122	0.206358	0.092767
C34	C	0.508508	0.234232	0.000046
C35	C	0.702848	0.142299	0.000086
C36	C	0.346173	0.134774	0.000118
C37	C	1.176354	0.131164	0.000126
C38	C	1.270066	0.133167	0.000129
C39	C	1.061478	0.323492	0.000111
C40	C	1.089308	0.435796	0.000112
N41	N	0.988380	0.198943	0.293021
N42	N	1.060635	0.078122	-0.292799
C43	C	1.109025	-0.002829	0.648024
C44	C	1.123611	-0.027230	0.529687
C45	C	1.089804	0.029311	0.470515
C46	C	1.041409	0.110258	0.529692
C47	C	1.026827	0.134667	0.648041
C48	C	1.007606	0.166807	0.470531
C49	C	0.959211	0.247754	0.529708
C50	C	0.944630	0.272159	0.648046
C51	C	0.978437	0.215618	0.707218
C52	C	1.022188	0.142398	0.352182
C53	C	0.939990	0.279894	0.352198
C54	C	0.925404	0.304296	0.470536
H55	H	1.091001	-0.190399	0.000130
C56	C	0.710839	0.203358	-0.197671
C57	C	0.622959	0.201841	-0.198598
H58	H	0.743552	0.224177	-0.263065
H59	H	0.726631	0.251292	-0.131934
H60	H	0.721933	0.135626	-0.197405
H61	H	0.611864	0.269575	-0.198856
H62	H	0.607161	0.153905	-0.264352
C63	C	0.724565	-0.186203	0.000069
C64	C	0.806262	-0.128193	0.000075
H65	H	0.683418	-0.142215	0.000072
H66	H	0.725518	-0.241377	-0.065491
H67	H	0.709347	-0.214343	0.065635
H68	H	0.821483	-0.100059	-0.065495
H69	H	0.805311	-0.073001	0.065642
H70	H	1.163015	-0.093136	0.481509
C71	C	0.789317	0.371096	0.507010
C72	C	0.872210	0.393272	0.535596
H73	H	0.756476	0.426024	0.547182
H74	H	0.793166	0.364667	0.428073
H75	H	0.762086	0.307565	0.526406
H76	H	0.899443	0.456800	0.516192
H77	H	0.868364	0.399714	0.614549
C78	C	0.935953	0.447478	0.315764
C79	C	0.902826	0.342053	0.287169
H80	H	0.913016	0.485847	0.275606
H81	H	0.920340	0.473591	0.394703
H82	H	0.996970	0.454491	0.296355
H83	H	0.841809	0.335039	0.306586
H84	H	0.918433	0.315932	0.208212
C85	C	1.150854	-0.215371	-0.096507
C86	C	1.170344	-0.237173	0.000145
H87	H	1.168590	-0.143760	-0.096493
H88	H	1.180258	-0.257202	-0.162053
H89	H	1.090489	-0.230349	-0.096512
H90	H	1.230709	-0.222202	0.000145
H91	H	1.140941	-0.195329	0.065708
C92	C	0.754395	-0.560036	0.096706
C93	C	0.785858	-0.520032	0.000060
H94	H	0.695501	-0.587655	0.096695
H95	H	0.786761	-0.613732	0.096703
H96	H	0.759573	-0.505844	0.162263
H97	H	0.780687	-0.574226	-0.065498
H98	H	0.753482	-0.466331	0.000052
C99	C	0.535883	0.374210	-0.097159
C100	C	0.489203	0.343483	-0.000020
H101	H	0.523958	0.441652	-0.097205
H102	H	0.595765	0.375936	-0.097775
H103	H	0.519570	0.325887	-0.162377
H104	H	0.505520	0.391803	0.065198
H105	H	0.429307	0.341765	0.000606
H106	H	0.776107	-0.338108	0.000055
C107	C	1.155440	-0.080511	0.300989
C108	C	1.105828	0.002482	0.340436
H109	H	1.165326	-0.097082	0.220680
H110	H	1.209056	-0.061093	0.327744
H111	H	1.125576	-0.139650	0.327777
H112	H	1.135696	0.061624	0.313654
H113	H	1.052203	-0.016932	0.313669
C114	C	0.885783	0.370627	0.829464
C115	C	0.891440	0.361142	0.713097
H116	H	0.852949	0.425565	0.869620
H117	H	0.858541	0.307109	0.848854
H118	H	0.942025	0.385658	0.848838
H119	H	0.835198	0.346103	0.693722
H120	H	0.918680	0.424675	0.693699
C121	C	0.527710	0.252591	0.295548
C122	C	0.574214	0.283758	0.198565
H123	H	0.544441	0.300367	0.360868
H124	H	0.467822	0.251428	0.296688
H125	H	0.539341	0.184844	0.294869
H126	H	0.562579	0.351502	0.199240
H127	H	0.634116	0.284932	0.197426
H128	H	0.439692	0.083849	0.171135
C129	C	0.522480	0.023278	-0.295404
C130	C	0.474832	-0.006784	-0.198391
H131	H	0.505783	-0.024545	-0.360716
H132	H	0.511823	0.091225	-0.295503
H133	H	0.582150	0.023523	-0.295794
H134	H	0.415162	-0.007022	-0.197998
H135	H	0.485483	-0.074749	-0.198293
H136	H	1.061592	0.076490	0.304010
C137	C	1.078768	-0.113029	0.781124
C138	C	1.146178	-0.064971	0.713072
H139	H	1.101708	-0.151399	0.821278
H140	H	1.047872	-0.061322	0.833290
H141	H	1.041017	-0.158972	0.734952
H142	H	1.183927	-0.019021	0.759245
H143	H	1.177089	-0.116684	0.660900
C144	C	0.537517	-0.137159	-0.097221
C145	C	0.560099	-0.066336	-0.000021
H146	H	0.549602	-0.204564	-0.097306
H147	H	0.477772	-0.139323	-0.097881
H148	H	0.569876	-0.115626	-0.162397
H149	H	0.527735	-0.087864	0.065155
H150	H	0.619855	-0.064175	0.000649
C151	C	1.002302	0.175721	0.876734
C152	C	0.962410	0.242447	0.837301
H153	H	0.992413	0.192289	0.957042
H154	H	0.979033	0.105543	0.849970
H155	H	1.062519	0.184091	0.849944
H156	H	0.902192	0.234071	0.864084
H157	H	0.985675	0.312641	0.864077
H158	H	1.272902	-0.384843	0.000160
H159	H	1.225449	-0.576280	0.000144
H160	H	0.920601	-0.626025	0.000072
