data_functionalizedCrystal
_audit_creation_method	'MofGen! by Chris Wilmer'
_symmetry_space_group_name_H-M	'P1'
_symmetry_Int_Tables_number	1
_symmetry_cell_setting	triclinic
loop_
_symmetry_equiv_pos_as_xyz
  x,y,z
_cell_length_a	13.897449
_cell_length_b	11.169416
_cell_length_c	11.169409
_cell_angle_alpha	89.971992
_cell_angle_beta	89.977985
_cell_angle_gamma	90.006344
loop_
_atom_site_label
_atom_site_type_symbol
_atom_site_fract_x
_atom_site_fract_y
_atom_site_fract_z
Zn1	Zn	1.474799	-0.477669	-0.678649
Zn2	Zn	1.808133	-0.144336	-0.345316
Zn3	Zn	2.141466	0.188998	-0.011982
Zn4	Zn	1.474725	-0.678409	-0.477981
Zn5	Zn	1.808059	-0.345076	-0.144648
Zn6	Zn	2.141392	-0.011743	0.188686
Zn7	Zn	1.313485	-0.477743	-0.477976
Zn8	Zn	1.646818	-0.144410	-0.144642
Zn9	Zn	1.980152	0.188923	0.188691
Zn10	Zn	1.313506	-0.678313	-0.678618
Zn11	Zn	1.646839	-0.344980	-0.345285
Zn12	Zn	1.980173	-0.011646	-0.011952
O13	O	1.394129	-0.578034	-0.578306
O14	O	1.727462	-0.244700	-0.244973
O15	O	2.060796	0.088633	0.088361
O16	O	1.609771	-0.504307	-0.652045
O17	O	1.943105	-0.170973	-0.318712
O18	O	2.276438	0.162360	0.014622
O19	O	1.453297	-0.651862	-0.310031
O20	O	1.786630	-0.318529	0.023303
O21	O	2.119963	0.014805	0.356636
O22	O	1.334906	-0.309784	-0.504606
O23	O	1.668239	0.023549	-0.171273
O24	O	2.001573	0.356883	0.162061
O25	O	1.609717	-0.651790	-0.504615
O26	O	1.943050	-0.318456	-0.171282
O27	O	2.276384	0.014877	0.162051
O28	O	1.453423	-0.309729	-0.652040
O29	O	1.786756	0.023604	-0.318707
O30	O	2.120090	0.356938	0.014627
O31	O	1.334834	-0.504434	-0.310027
O32	O	1.668167	-0.171100	0.023307
O33	O	2.001501	0.162233	0.356640
O34	O	1.178506	-0.504340	-0.504576
O35	O	1.511839	-0.171007	-0.171243
O36	O	1.845173	0.162326	0.162090
O37	O	1.334942	-0.651626	-0.846572
O38	O	1.668275	-0.318292	-0.513239
O39	O	2.001608	0.015041	-0.179906
O40	O	1.178521	-0.651698	-0.651988
O41	O	1.511855	-0.318365	-0.318654
O42	O	1.845188	0.014969	0.014679
O43	O	1.453443	-0.504213	-0.846595
O44	O	1.786777	-0.170880	-0.513261
O45	O	2.120110	0.162453	-0.179928
O46	O	1.453317	-0.846346	-0.504585
O47	O	1.786650	-0.513013	-0.171252
O48	O	2.119984	-0.179680	0.162081
O49	O	1.334870	-0.846276	-0.651993
O50	O	1.668203	-0.512942	-0.318659
O51	O	2.001536	-0.179609	0.014674
C52	C	1.143515	-0.578018	-0.578279
C53	C	1.476848	-0.244684	-0.244945
C54	C	1.810181	0.088649	0.088388
C55	C	1.036301	-0.578040	-0.578295
C56	C	1.369634	-0.244706	-0.244962
C57	C	1.702967	0.088627	0.088371
C58	C	1.394114	-0.889858	-0.578313
C59	C	1.727447	-0.556525	-0.244979
C60	C	2.060780	-0.223192	0.088354
C61	C	1.394196	-1.023258	-0.578355
C62	C	1.727529	-0.689925	-0.245022
C63	C	2.060862	-0.356592	0.088311
C64	C	1.394203	-0.577900	-0.891349
C65	C	1.727536	-0.244567	-0.558015
C66	C	2.060870	0.088766	-0.224682
C67	C	1.394235	-0.577844	-1.024749
C68	C	1.727568	-0.244510	-0.691415
C69	C	2.060901	0.088823	-0.358082
C70	C	0.840006	-0.578044	-0.578327
C71	C	1.173339	-0.244711	-0.244994
C72	C	1.506672	0.088623	0.088340
C73	C	0.949238	-0.578038	-0.578306
C74	C	1.282571	-0.244705	-0.244973
C75	C	1.615905	0.088629	0.088361
C76	C	1.645722	-0.578051	-0.578334
C77	C	1.979055	-0.244717	-0.245001
C78	C	2.312389	0.088616	0.088332
C79	C	1.752936	-0.578058	-0.578346
C80	C	2.086269	-0.244725	-0.245013
C81	C	2.419602	0.088609	0.088320
C82	C	1.394170	-0.264991	-0.578326
C83	C	1.727504	0.068342	-0.244992
C84	C	2.060837	0.401675	0.088341
C85	C	1.394188	-0.131591	-0.578334
C86	C	1.727521	0.201742	-0.245001
C87	C	2.060855	0.535075	0.088332
C88	C	1.394111	-0.578080	-0.266481
C89	C	1.727444	-0.244747	0.066852
C90	C	2.060777	0.088587	0.400185
C91	C	1.394266	-0.577799	-0.133082
C92	C	1.727599	-0.244465	0.200251
C93	C	2.060933	0.088868	0.533585
