data_functionalizedCrystal
_audit_creation_method	'MofGen! by Chris Wilmer'
_symmetry_space_group_name_H-M	'P1'
_symmetry_Int_Tables_number	1
_symmetry_cell_setting	triclinic
loop_
_symmetry_equiv_pos_as_xyz
  x,y,z
_cell_length_a	9.065215
_cell_length_b	27.732048
_cell_length_c	8.140239
_cell_angle_alpha	90.008445
_cell_angle_beta	90.002190
_cell_angle_gamma	83.828676
loop_
_atom_site_label
_atom_site_type_symbol
_atom_site_fract_x
_atom_site_fract_y
_atom_site_fract_z
O1	O	1.955894	0.070860	0.136615
O2	O	1.526239	0.076674	0.136624
O3	O	1.754411	0.003461	0.136588
O4	O	1.727723	0.144073	0.136651
O5	O	1.754398	0.003460	-0.136639
O6	O	1.526227	0.076673	-0.136603
O7	O	1.955882	0.070859	-0.136612
Zn8	Zn	1.741052	0.073766	-0.179988
Zn9	Zn	1.741069	0.073767	0.180001
O10	O	1.727710	0.144072	-0.136576
C11	C	1.471282	0.076115	0.000012
C12	C	1.307545	0.074445	0.000014
C13	C	1.753844	-0.014550	-0.000030
C14	C	1.752157	-0.068216	-0.000043
C15	C	1.876372	-0.406184	0.000038
C16	C	1.870113	-0.607886	0.000062
O17	O	1.983698	-0.638367	0.000131
N18	N	1.734817	-0.627933	0.000063
C19	C	1.601075	-0.597551	0.000069
O20	O	1.485854	-0.619230	0.000088
C21	C	1.607336	-0.395849	0.000058
C22	C	1.742641	-0.375806	0.000040
C23	C	2.011666	-0.386140	0.000022
C24	C	2.013229	-0.335717	0.000008
C25	C	1.879499	-0.305339	0.000009
C26	C	1.744204	-0.325383	0.000025
C27	C	1.473596	-0.365468	0.000076
C28	C	1.475173	-0.315040	0.000077
C29	C	1.610479	-0.294996	0.000059
C30	C	1.612037	-0.244582	0.000012
N31	N	1.747333	-0.224535	0.000011
C32	C	1.881064	-0.254914	0.000009
C33	C	1.597798	-0.703447	0.000072
C34	C	1.596233	-0.753872	0.000072
C35	C	1.865271	-0.764204	0.000067
C36	C	1.866835	-0.713778	0.000056
C37	C	1.733094	-0.683401	0.000071
C38	C	1.884337	-0.149022	-0.000023
C39	C	1.885888	-0.098595	-0.000045
C40	C	1.616851	-0.088267	-0.000031
C41	C	1.615299	-0.138690	-0.000019
C42	C	1.749054	-0.169067	-0.000009
O43	O	1.498512	-0.214073	-0.000039
O44	O	1.996269	-0.233225	0.000027
C45	C	1.874809	-0.456607	0.000053
C46	C	1.739514	-0.476651	0.000069
C47	C	1.605784	-0.446273	0.000071
C48	C	1.737949	-0.527076	0.000069
C49	C	1.871680	-0.557454	0.000068
C50	C	2.006976	-0.537408	0.000066
C51	C	2.008539	-0.486985	0.000052
C52	C	1.470487	-0.466319	0.000072
C53	C	1.468935	-0.516742	0.000085
C54	C	1.602666	-0.547121	0.000084
C55	C	2.010839	0.071418	0.000005
C56	C	2.174576	0.073088	0.000013
C57	C	1.728276	0.162083	0.000046
C58	C	1.729963	0.215749	0.000070
N59	N	1.741052	0.073765	-0.425670
N60	N	1.741081	0.073764	0.425683
H61	H	1.996075	-0.082278	-0.000064
H62	H	1.488884	-0.678717	0.000084
C63	C	2.278995	-0.351010	0.000021
C64	C	2.161963	-0.313690	0.000010
H65	H	2.370820	-0.337413	0.000036
H66	H	2.272781	-0.370465	-0.095254
H67	H	2.272765	-0.370459	0.095308
H68	H	2.168186	-0.294243	-0.095284
H69	H	2.168180	-0.294227	0.095294
C70	C	1.349524	-0.123410	0.000002
C71	C	1.466572	-0.160725	0.000003
H72	H	1.257707	-0.137012	0.000041
H73	H	1.355716	-0.103968	-0.095289
H74	H	1.355757	-0.103947	0.095273
H75	H	1.460344	-0.180186	-0.095274
H76	H	1.460376	-0.180175	0.095304
H77	H	1.507971	-0.063524	-0.000036
C78	C	1.982307	-0.846093	0.000103
C79	C	2.012272	-0.797603	0.000089
H80	H	2.073055	-0.866713	0.000139
H81	H	1.926802	-0.852236	-0.095181
H82	H	1.926760	-0.852219	0.095381
H83	H	2.067809	-0.791476	-0.095195
H84	H	2.067800	-0.791458	0.095383
C85	C	2.274305	-0.502278	0.000061
C86	C	2.157273	-0.464957	0.000051
H87	H	2.366130	-0.488681	0.000074
H88	H	2.268090	-0.521733	-0.095213
H89	H	2.268077	-0.521726	0.095349
H90	H	2.163495	-0.445511	-0.095243
H91	H	2.163491	-0.445494	0.095335
C92	C	2.132603	-0.729068	0.000062
C93	C	2.015565	-0.691749	0.000061
H94	H	2.224425	-0.715468	0.000081
H95	H	2.126392	-0.748520	-0.095218
H96	H	2.126378	-0.748518	0.095344
H97	H	2.021784	-0.672300	-0.095227
H98	H	2.021779	-0.672288	0.095351
C99	C	2.124009	-0.619297	0.000098
C100	C	2.153976	-0.570806	0.000077
H101	H	2.214757	-0.639916	0.000122
H102	H	2.068494	-0.625439	-0.095178
H103	H	2.068473	-0.625422	0.095384
H104	H	2.209504	-0.564680	-0.095216
H105	H	2.209516	-0.564662	0.095362
H106	H	1.486054	-0.770187	0.000058
H107	H	1.993253	-0.173749	-0.000009
H108	H	2.120572	-0.410869	0.000027
H109	H	1.363416	-0.381779	0.000101
H110	H	1.366263	-0.290308	0.000092
H111	H	1.358745	-0.533057	0.000085
H112	H	1.361585	-0.441590	0.000077
