data_functionalizedCrystal
_audit_creation_method	'MofGen! by Chris Wilmer'
_symmetry_space_group_name_H-M	'P1'
_symmetry_Int_Tables_number	1
_symmetry_cell_setting	triclinic
loop_
_symmetry_equiv_pos_as_xyz
  x,y,z
_cell_length_a	17.000371
_cell_length_b	17.038272
_cell_length_c	15.072220
_cell_angle_alpha	89.999202
_cell_angle_beta	89.987368
_cell_angle_gamma	83.355402
loop_
_atom_site_label
_atom_site_type_symbol
_atom_site_fract_x
_atom_site_fract_y
_atom_site_fract_z
O1	O	1.058011	0.028037	-0.073786
O2	O	1.558011	0.528037	0.426214
O3	O	0.828191	0.056282	-0.073788
O4	O	1.328191	0.556282	0.426212
O5	O	0.941735	-0.071563	-0.073780
O6	O	1.441735	0.428437	0.426220
O7	O	0.944467	0.155881	-0.073794
O8	O	1.444467	0.655881	0.426206
O9	O	0.941705	-0.071554	0.073785
O10	O	1.441705	0.428446	0.573785
O11	O	0.828161	0.056290	0.073777
O12	O	1.328161	0.556290	0.573777
O13	O	1.057981	0.028045	0.073779
O14	O	1.557981	0.528045	0.573779
Zn15	Zn	0.943066	0.042169	0.097207
Zn16	Zn	1.443066	0.542169	0.597207
Zn17	Zn	0.943105	0.042158	-0.097216
Zn18	Zn	1.443105	0.542158	0.402784
O19	O	0.944437	0.155890	0.073771
O20	O	1.444437	0.655890	0.573771
C21	C	0.798625	0.057803	-0.000005
C22	C	1.298625	0.557803	0.499995
C23	C	0.710572	0.062314	-0.000006
C24	C	1.210572	0.562314	0.499994
C25	C	0.673845	-0.007108	0.000000
C26	C	1.173845	0.492892	0.500000
C27	C	0.591110	-0.002864	-0.000006
C28	C	1.091110	0.497136	0.499994
C29	C	0.545102	0.070802	-0.000013
C30	C	1.045102	0.570802	0.499987
C31	C	0.581834	0.140229	-0.000021
C32	C	1.081834	0.640229	0.499979
C33	C	0.664568	0.135985	-0.000021
C34	C	1.164568	0.635985	0.499979
C35	C	0.295066	0.087196	-0.000020
C36	C	0.795066	0.587196	0.499980
C37	C	0.212327	0.091434	-0.000017
C38	C	0.712327	0.591434	0.499983
C39	C	0.221608	-0.051659	-0.000004
C40	C	0.721608	0.448341	0.499996
C41	C	0.304344	-0.055897	0.000001
C42	C	0.804344	0.444103	0.500001
C43	C	0.341068	0.013530	-0.000012
C44	C	0.841068	0.513530	0.499988
C45	C	0.460533	0.075141	-0.000017
C46	C	0.960533	0.575141	0.499983
C47	C	0.425636	0.009190	-0.000014
C48	C	0.925636	0.509190	0.499986
C49	C	0.939235	-0.100516	0.000002
C50	C	1.439235	0.399484	0.500002
C51	C	0.931823	-0.186802	0.000002
C52	C	1.431823	0.313198	0.500002
C53	C	0.999881	-0.241577	0.000003
C54	C	1.499881	0.258423	0.500003
C55	C	0.992911	-0.322650	-0.000005
C56	C	1.492911	0.177350	0.499995
C57	C	0.917882	-0.348946	-0.000009
C58	C	1.417882	0.151054	0.499991
C59	C	0.849819	-0.294164	-0.000012
C60	C	1.349819	0.205836	0.499988
C61	C	0.856789	-0.213093	-0.000010
C62	C	1.356789	0.286907	0.499990
C63	C	0.893256	-0.593018	-0.000021
C64	C	1.393256	-0.093018	0.499979
C65	C	0.886291	-0.674096	-0.000020
C66	C	1.386291	-0.174096	0.499980
C67	C	1.029384	-0.702577	-0.000015
C68	C	1.529384	-0.202577	0.499985
C69	C	1.036348	-0.621502	-0.000007
C70	C	1.536348	-0.121502	0.499993
C71	C	0.968285	-0.566727	-0.000016
C72	C	1.468285	-0.066727	0.499984
C73	C	0.910756	-0.431816	-0.000014
C74	C	1.410756	0.068184	0.499986
C75	C	0.975411	-0.483859	-0.000016
C76	C	1.475411	0.016141	0.499984
C77	C	1.087547	0.026524	-0.000006
C78	C	1.587547	0.526524	0.499994
C79	C	1.175600	0.022013	-0.000011
C80	C	1.675600	0.522013	0.499989
C81	C	0.946936	0.184843	-0.000013
C82	C	1.446936	0.684843	0.499987
C83	C	0.954349	0.271129	-0.000019
C84	C	1.454349	0.771129	0.499981
N85	N	0.943046	0.042176	0.229896
N86	N	1.443046	0.542176	0.729896
N87	N	0.943132	0.042144	-0.229905
N88	N	1.443132	0.542144	0.270095
C89	C	0.943104	0.042155	0.589097
C90	C	1.443104	0.542155	1.089097
C91	C	0.882115	0.110362	0.551486
C92	C	1.382115	0.610362	1.051486
C93	C	0.882281	0.110585	0.448661
C94	C	1.382281	0.610585	0.948661
C95	C	0.943074	0.042166	0.410893
C96	C	1.443074	0.542166	0.910893
C97	C	1.026939	0.054218	0.448184
C98	C	1.526939	0.554218	0.948184
C99	C	1.026604	0.054696	0.551042
C100	C	1.526604	0.554696	1.051042
C101	C	0.920951	-0.038345	0.551203
C102	C	1.420951	0.461655	1.051203
C103	C	0.919091	-0.037670	0.448339
C104	C	1.419091	0.462330	0.948339
C105	C	0.943063	0.042170	0.310180
C106	C	1.443063	0.542170	0.810180
C107	C	0.943121	0.042152	0.689811
C108	C	1.443121	0.542152	1.189811
H109	H	0.324957	0.143728	-0.000036
H110	H	0.824957	0.643728	0.499964
H111	H	1.073635	0.005623	0.423718
H112	H	1.573635	0.505623	0.923718
Cl113	Cl	1.078475	-0.391509	-0.000001
Cl114	Cl	1.578475	0.108491	0.499999
Cl115	Cl	0.175435	-0.138933	0.000007
Cl116	Cl	0.675435	0.361067	0.500007
H117	H	0.544368	0.200209	-0.000032
H118	H	1.044368	0.700209	0.499968
H119	H	1.097445	-0.600099	-0.000004
H120	H	1.597445	-0.100099	0.499996
Cl121	Cl	1.055444	0.145068	0.588066
Cl122	Cl	1.555444	0.645068	1.088066
Cl123	Cl	1.099138	-0.019614	0.589456
Cl124	Cl	1.599138	0.480386	1.089456
Cl125	Cl	0.710738	0.223261	-0.000032
Cl126	Cl	1.210738	0.723261	0.499968
H127	H	1.084797	-0.747183	-0.000009
H128	H	1.584797	-0.247183	0.499991
Cl129	Cl	1.056254	0.143505	0.408396
Cl130	Cl	1.556254	0.643505	0.908396
H131	H	0.825190	-0.695502	-0.000009
H132	H	1.325190	-0.195502	0.499991
H133	H	0.801369	-0.168494	-0.000012
H134	H	1.301369	0.331506	0.499988
H135	H	1.060978	-0.220174	0.000012
H136	H	1.560978	0.279826	0.500012
Cl137	Cl	0.786297	0.100845	0.409734
Cl138	Cl	1.286297	0.600845	0.909734
Cl139	Cl	0.755496	-0.327222	-0.000028
Cl140	Cl	1.255496	0.172778	0.499972
Cl141	Cl	0.828108	-0.058400	0.591300
Cl142	Cl	1.328108	0.441600	1.091300
H143	H	0.965363	-0.089036	0.575524
H144	H	1.465363	0.410964	1.075524
Cl145	Cl	0.823800	-0.051999	0.410713
Cl146	Cl	1.323800	0.448001	0.910713
Cl147	Cl	0.982574	-0.119030	0.408667
Cl148	Cl	1.482574	0.380970	0.908667
H149	H	0.711300	-0.067095	0.000009
H150	H	1.211300	0.432905	0.500009
Cl151	Cl	0.402688	0.167747	-0.000025
Cl152	Cl	0.902688	0.667747	0.499975
Cl153	Cl	0.904586	0.202268	0.591352
Cl154	Cl	1.404586	0.702268	1.091352
H155	H	0.463099	-0.050788	-0.000014
H156	H	0.963099	0.449212	0.499986
Cl157	Cl	0.807689	-0.524168	-0.000034
Cl158	Cl	1.307689	-0.024168	0.499966
H159	H	0.849667	-0.453235	-0.000015
H160	H	1.349667	0.046765	0.499985
Cl161	Cl	0.544943	-0.090142	-0.000024
Cl162	Cl	1.044943	0.409858	0.499976
H163	H	1.036500	-0.462446	-0.000033
H164	H	1.536500	0.037554	0.499967
H165	H	0.341798	-0.115883	0.000010
H166	H	0.841798	0.384117	0.500010
H167	H	0.819767	0.104207	0.576248
H168	H	1.319767	0.604207	1.076248
H169	H	0.174868	0.151425	-0.000018
H170	H	0.674868	0.651425	0.499982
Cl171	Cl	0.904973	0.203008	0.410646
Cl172	Cl	1.404973	0.703008	0.910646
