data_functionalizedCrystal
_audit_creation_method	'MofGen! by Chris Wilmer'
_symmetry_space_group_name_H-M	'P1'
_symmetry_Int_Tables_number	1
_symmetry_cell_setting	triclinic
loop_
_symmetry_equiv_pos_as_xyz
  x,y,z
_cell_length_a	13.897449
_cell_length_b	13.897448
_cell_length_c	13.897431
_cell_angle_alpha	90.075904
_cell_angle_beta	90.049745
_cell_angle_gamma	90.018972
loop_
_atom_site_label
_atom_site_type_symbol
_atom_site_fract_x
_atom_site_fract_y
_atom_site_fract_z
Zn1	Zn	-1.474979	0.383520	-0.545382
Zn2	Zn	-1.141646	0.716853	-0.212049
Zn3	Zn	-0.808312	1.050187	0.121284
Zn4	Zn	-1.474791	0.544969	-0.384083
Zn5	Zn	-1.141458	0.878302	-0.050750
Zn6	Zn	-0.808125	1.211636	0.282583
Zn7	Zn	-1.313586	0.383693	-0.384100
Zn8	Zn	-0.980253	0.717027	-0.050767
Zn9	Zn	-0.646920	1.050360	0.282566
Zn10	Zn	-1.313650	0.544778	-0.545336
Zn11	Zn	-0.980316	0.878112	-0.212003
Zn12	Zn	-0.646983	1.211445	0.121331
O13	O	-1.394252	0.464240	-0.464725
O14	O	-1.060918	0.797573	-0.131392
O15	O	-0.727585	1.130907	0.201941
O16	O	-1.609936	0.404944	-0.523998
O17	O	-1.276602	0.738277	-0.190664
O18	O	-0.943269	1.071610	0.142669
O19	O	-1.453302	0.523728	-0.249104
O20	O	-1.119969	0.857061	0.084230
O21	O	-0.786635	1.190395	0.417563
O22	O	-1.335047	0.248689	-0.405521
O23	O	-1.001714	0.582022	-0.072188
O24	O	-0.668381	0.915355	0.261146
O25	O	-1.609798	0.523560	-0.405492
O26	O	-1.276464	0.856893	-0.072159
O27	O	-0.943131	1.190226	0.261175
O28	O	-1.453622	0.248561	-0.524014
O29	O	-1.120289	0.581895	-0.190681
O30	O	-0.786955	0.915228	0.142653
O31	O	-1.334865	0.405239	-0.249116
O32	O	-1.001532	0.738573	0.084217
O33	O	-0.668199	1.071906	0.417551
O34	O	-1.178613	0.405054	-0.405476
O35	O	-0.845280	0.738388	-0.072143
O36	O	-0.511946	1.071721	0.261190
O37	O	-1.335155	0.523234	-0.680324
O38	O	-1.001822	0.856568	-0.346991
O39	O	-0.668489	1.189901	-0.013658
O40	O	-1.178660	0.523403	-0.523936
O41	O	-0.845326	0.856736	-0.190602
O42	O	-0.511993	1.190069	0.142731
O43	O	-1.453683	0.404759	-0.680358
O44	O	-1.120350	0.738092	-0.347025
O45	O	-0.787017	1.071425	-0.013691
O46	O	-1.453363	0.679925	-0.405447
O47	O	-1.120030	1.013259	-0.072114
O48	O	-0.786697	1.346592	0.261219
O49	O	-1.334973	0.679785	-0.523919
O50	O	-1.001640	1.013119	-0.190586
O51	O	-0.668307	1.346452	0.142747
C52	C	-1.143637	0.464227	-0.464703
C53	C	-0.810304	0.797561	-0.131370
C54	C	-0.476971	1.130894	0.201963
C55	C	-1.036423	0.464245	-0.464717
C56	C	-0.703090	0.797578	-0.131384
C57	C	-0.369757	1.130912	0.201950
C58	C	-1.394181	0.714855	-0.464698
C59	C	-1.060848	1.048188	-0.131364
C60	C	-0.727514	1.381521	0.201969
C61	C	-1.394239	0.822068	-0.464718
C62	C	-1.060906	1.155402	-0.131385
C63	C	-0.727573	1.488735	0.201949
C64	C	-1.394447	0.463956	-0.716319
C65	C	-1.061114	0.797289	-0.382986
C66	C	-0.727781	1.130623	-0.049652
C67	C	-1.394531	0.463835	-0.823533
C68	C	-1.061198	0.797168	-0.490200
C69	C	-0.727864	1.130501	-0.156867
C70	C	-1.645844	0.464254	-0.464748
C71	C	-1.312511	0.797587	-0.131415
C72	C	-0.979178	1.130920	0.201919
C73	C	-1.753058	0.464260	-0.464758
C74	C	-1.419725	0.797593	-0.131424
C75	C	-1.086392	1.130926	0.201909
C76	C	-0.840128	0.464248	-0.464742
C77	C	-0.506795	0.797582	-0.131409
C78	C	-0.173462	1.130915	0.201924
C79	C	-0.949361	0.464244	-0.464725
C80	C	-0.616027	0.797577	-0.131392
C81	C	-0.282694	1.130910	0.201941
C82	C	-1.394349	0.212647	-0.464775
C83	C	-1.061015	0.545980	-0.131441
C84	C	-0.727682	0.879314	0.201892
C85	C	-1.394390	0.105433	-0.464796
C86	C	-1.061057	0.438766	-0.131462
C87	C	-0.727723	0.772100	0.201871
C88	C	-1.394341	1.018363	-0.464778
C89	C	-1.061007	1.351697	-0.131445
C90	C	-0.727674	1.685030	0.201888
C91	C	-1.394282	0.909131	-0.464748
C92	C	-1.060948	1.242464	-0.131414
C93	C	-0.727615	1.575798	0.201919
C94	C	-1.394112	0.464454	-0.214111
C95	C	-1.060779	0.797787	0.119223
C96	C	-0.727445	1.131120	0.452556
C97	C	-1.394215	0.464303	-0.106897
C98	C	-1.060882	0.797636	0.226436
C99	C	-0.727549	1.130970	0.559770
C100	C	-1.394315	0.464166	-0.019828
C101	C	-1.060982	0.797499	0.313506
C102	C	-0.727649	1.130833	0.646839
C103	C	-1.394438	0.463985	0.089404
C104	C	-1.061105	0.797318	0.422738
C105	C	-0.727771	1.130651	0.756071
