data_functionalizedCrystal
_audit_creation_method	'MofGen! by Chris Wilmer'
_symmetry_space_group_name_H-M	'P1'
_symmetry_Int_Tables_number	1
_symmetry_cell_setting	triclinic
loop_
_symmetry_equiv_pos_as_xyz
  x,y,z
_cell_length_a	26.374263
_cell_length_b	26.373608
_cell_length_c	26.370205
_cell_angle_alpha	60.005297
_cell_angle_beta	60.010839
_cell_angle_gamma	59.993700
loop_
_atom_site_label
_atom_site_type_symbol
_atom_site_fract_x
_atom_site_fract_y
_atom_site_fract_z
O1	O	0.070152	-0.740800	0.619517
O2	O	0.570152	-0.240800	1.119517
O3	O	0.026377	-0.576764	0.499159
O4	O	0.526377	-0.076764	0.999159
O5	O	0.130245	-0.680560	0.499088
O6	O	0.630245	-0.180560	0.999088
O7	O	-0.033715	-0.637003	0.619589
O8	O	0.466285	-0.137003	1.119589
O9	O	0.164701	-0.646107	0.533470
O10	O	0.664701	-0.146107	1.033470
O11	O	0.060833	-0.542310	0.533541
O12	O	0.560833	-0.042310	1.033541
O13	O	0.104608	-0.706346	0.653899
O14	O	0.604608	-0.206346	1.153899
Cu15	Cu	0.085867	-0.621182	0.596859
Cu16	Cu	0.585867	-0.121182	1.096859
Cu17	Cu	0.045119	-0.661927	0.556199
Cu18	Cu	0.545119	-0.161927	1.056199
O19	O	0.000741	-0.602549	0.653971
O20	O	0.500741	-0.102549	1.153971
N21	N	0.114528	-0.592529	0.625461
N22	N	0.614528	-0.092529	1.125461
N23	N	0.016463	-0.690587	0.527598
N24	N	0.516463	-0.190587	1.027598
C25	C	0.181428	-0.355400	0.692330
C26	C	0.681428	0.144600	1.192330
C27	C	0.181530	-0.525690	0.862573
C28	C	0.681530	-0.025690	1.362573
C29	C	0.181440	-0.525667	0.692313
C30	C	0.681440	-0.025667	1.192313
C31	C	0.351736	-0.525673	0.692271
C32	C	0.851736	-0.025673	1.192271
C33	C	0.200174	-0.411588	0.711047
C34	C	0.700174	0.088412	1.211047
C35	C	0.200232	-0.506954	0.806384
C36	C	0.700232	-0.006954	1.306384
C37	C	0.295546	-0.506943	0.711016
C38	C	0.795546	-0.006943	1.211016
C39	C	0.200182	-0.506940	0.711037
C40	C	0.700182	-0.006940	1.211037
C41	C	0.157567	-0.283881	0.668507
C42	C	0.657567	0.216119	1.168507
C43	C	0.157587	-0.549500	0.668479
C44	C	0.657587	-0.049500	1.168479
C45	C	0.224035	-0.483107	0.734871
C46	C	0.724035	0.016893	1.234871
C47	C	0.455739	-0.507754	0.637520
C48	C	0.955739	-0.007754	1.137520
C49	C	0.520749	-0.529425	0.615835
C50	C	1.020749	-0.029425	1.115835
C51	C	0.520768	-0.634611	0.655947
C52	C	1.020768	-0.134611	1.155947
C53	C	0.455759	-0.612939	0.677633
C54	C	0.955759	-0.112939	1.177633
C55	C	0.173240	-0.251367	0.604595
C56	C	0.673240	0.248633	1.104595
C57	C	0.151546	-0.186351	0.582941
C58	C	0.651546	0.313649	1.082941
C59	C	0.098512	-0.186369	0.689113
C60	C	0.598512	0.313631	1.189113
C61	C	0.120206	-0.251385	0.710768
C62	C	0.620206	0.248615	1.210768
C63	C	0.093669	-0.533798	0.684205
C64	C	0.593669	-0.033798	1.184205
C65	C	0.071992	-0.555464	0.662532
C66	C	0.571992	-0.055464	1.162532
C67	C	0.178144	-0.608536	0.609422
C68	C	0.678144	-0.108536	1.109422
C69	C	0.199825	-0.586869	0.631088
C70	C	0.699825	-0.086869	1.131088
C71	C	0.093821	-0.533842	0.966616
C72	C	0.593821	-0.033842	1.466616
C73	C	0.072187	-0.555526	1.031630
C74	C	0.572187	-0.055526	1.531630
C75	C	0.178370	-0.608608	1.031591
C76	C	0.678370	-0.108608	1.531591
C77	C	0.200004	-0.586926	0.966576
C78	C	0.700004	-0.086926	1.466576
C79	C	0.157728	-0.549541	0.934090
C80	C	0.657728	-0.049541	1.434090
C81	C	0.423247	-0.549509	0.668416
C82	C	0.923247	-0.049509	1.168416
C83	C	-0.097522	-0.709158	0.508557
C84	C	0.402478	-0.209158	1.008557
C85	C	-0.002050	-0.709295	0.413344
C86	C	0.497950	-0.209295	0.913344
C87	C	-0.002241	-0.804604	0.508735
C88	C	0.497759	-0.304604	1.008735
C89	C	-0.002225	-0.709288	0.508793
C90	C	0.497775	-0.209288	1.008793
C91	C	-0.026009	-0.733087	0.484858
C92	C	0.473991	-0.233087	0.984858
N93	N	0.552340	-0.592538	0.625346
N94	N	1.052340	-0.092538	1.125346
O95	O	0.750867	-0.598274	0.477076
O96	O	1.250867	-0.098274	0.977076
O97	O	0.751048	-0.718989	0.640960
O98	O	1.251048	-0.218989	1.140960
O99	O	0.750981	-0.718715	0.537020
O100	O	1.250981	-0.218715	1.037020
O101	O	0.750934	-0.598547	0.581017
O102	O	1.250934	-0.098547	1.081017
O103	O	0.647701	-0.684348	0.571512
O104	O	1.147701	-0.184348	1.071512
O105	O	0.647768	-0.684622	0.675452
O106	O	1.147768	-0.184622	1.175452
O107	O	0.647587	-0.563907	0.511569
O108	O	1.147587	-0.063907	1.011569
Cu109	Cu	0.638247	-0.621127	0.596660
Cu110	Cu	1.138247	-0.121127	1.096660
Cu111	Cu	0.760388	-0.661769	0.555869
Cu112	Cu	1.260388	-0.161769	1.055869
O113	O	0.647654	-0.564181	0.615509
O114	O	1.147654	-0.064181	1.115509
N115	N	0.846295	-0.690358	0.527176
N116	N	1.346295	-0.190358	1.027176
N117	N	0.114503	-0.154778	0.625499
N118	N	0.614503	0.345222	1.125499
O119	O	-0.033701	0.043855	0.619632
O120	O	0.466299	0.543855	1.119632
O121	O	0.130190	0.043858	0.498933
O122	O	0.630190	0.543858	0.998933
O123	O	0.026233	0.043841	0.499224
O124	O	0.526233	0.543841	0.999224
O125	O	0.070257	0.043872	0.619341
O126	O	0.570257	0.543872	1.119341
O127	O	0.060690	-0.059448	0.533654
O128	O	0.560690	0.440552	1.033654
O129	O	0.164647	-0.059431	0.533363
O130	O	0.664647	0.440569	1.033363
O131	O	0.000756	-0.059434	0.654062
O132	O	0.500756	0.440566	1.154062
Cu133	Cu	0.085848	-0.068863	0.596857
Cu134	Cu	0.585848	0.431137	1.096857
Cu135	Cu	0.045099	0.053287	0.556138
Cu136	Cu	0.545099	0.553287	1.056138
O137	O	0.104714	-0.059417	0.653771
O138	O	0.604714	0.440583	1.153771
N139	N	0.016435	0.139202	0.527497
N140	N	0.516435	0.639202	1.027497
N141	N	0.114760	-0.592585	1.063190
N142	N	0.614760	-0.092585	1.563190
O143	O	0.108896	-0.740779	1.261808
O144	O	0.608896	-0.240779	1.761808
O145	O	-0.011787	-0.576838	1.261822
O146	O	0.488213	-0.076838	1.761822
O147	O	-0.011509	-0.680779	1.261780
O148	O	0.488491	-0.180779	1.761780
O149	O	0.108618	-0.636838	1.261850
O150	O	0.608618	-0.136838	1.761850
O151	O	0.022916	-0.646341	1.158496
O152	O	0.522916	-0.146341	1.658496
O153	O	0.022638	-0.542399	1.158538
O154	O	0.522638	-0.042399	1.658538
O155	O	0.143321	-0.706341	1.158524
O156	O	0.643321	-0.206341	1.658524
Cu157	Cu	0.086123	-0.621225	1.149100
Cu158	Cu	0.586123	-0.121225	1.649100
Cu159	Cu	0.045411	-0.661953	1.271246
Cu160	Cu	0.545411	-0.161953	1.771246
O161	O	0.143044	-0.602399	1.158566
O162	O	0.643044	-0.102399	1.658566
N163	N	0.016774	-0.690600	1.357156
N164	N	0.516774	-0.190600	1.857156
C165	C	0.039504	-0.538867	0.499769
C166	C	0.539504	-0.038867	0.999769
C167	C	0.168130	-0.667407	0.499680
C168	C	0.668130	-0.167407	0.999680
C169	C	0.091482	-0.744243	0.653289
C170	C	0.591482	-0.244243	1.153289
C171	C	-0.037145	-0.615703	0.653378
C172	C	0.462855	-0.115703	1.153378
C173	C	0.699429	-0.718429	0.678853
C174	C	1.199429	-0.218429	1.178853
C175	C	0.699348	-0.718091	0.550135
C176	C	1.199348	-0.218091	1.050135
C177	C	0.699202	-0.564465	0.473677
C178	C	1.199202	-0.064465	0.973677
C179	C	0.699287	-0.564805	0.602393
C180	C	1.199287	-0.064805	1.102393
C181	C	0.168023	-0.007659	0.499484
C182	C	0.668023	0.492341	0.999484
C183	C	0.039327	-0.007807	0.499887
C184	C	0.539327	0.492193	0.999887
C185	C	-0.037119	-0.007789	0.653468
C186	C	0.462881	0.492211	1.153468
C187	C	0.091620	-0.007770	0.653109
C188	C	0.591620	0.492230	1.153109
C189	C	-0.011194	-0.538964	1.210181
C190	C	0.488806	-0.038964	1.710181
C191	C	-0.010843	-0.667676	1.210109
C192	C	0.489157	-0.167676	1.710109
C193	C	0.142729	-0.744214	1.210165
C194	C	0.642729	-0.244214	1.710165
C195	C	0.142386	-0.615494	1.210214
C196	C	0.642386	-0.115494	1.710214
H197	H	0.059391	-0.503396	0.940172
H198	H	0.559391	-0.003396	1.440172
O199	O	0.424086	-0.446162	0.628679
O200	O	0.924086	0.053838	1.128679
C201	C	0.350730	-0.367489	0.676584
C202	C	0.850730	0.132511	1.176584
C203	C	0.386522	-0.437259	0.686687
C204	C	0.886522	0.062741	1.186687
H205	H	0.320361	-0.360267	0.723476
H206	H	0.820361	0.139733	1.223476
H207	H	0.320234	-0.349160	0.648040
H208	H	0.820234	0.150840	1.148040
H209	H	0.385136	-0.341380	0.650751
H210	H	0.885136	0.158620	1.150751
H211	H	0.352161	-0.463418	0.712537
H212	H	0.852161	0.036582	1.212537
H213	H	0.417027	-0.455540	0.715206
H214	H	0.917027	0.044460	1.215206
O215	O	0.699243	-0.519827	0.613733
O216	O	1.199243	-0.019827	1.113733
C217	C	0.699317	-0.491432	0.687498
C218	C	1.199317	0.008568	1.187498
C219	C	0.699353	-0.542419	0.674745
C220	C	1.199353	-0.042419	1.174745
H221	H	0.699419	-0.509682	0.736821
H222	H	1.199419	-0.009682	1.236821
H223	H	0.656055	-0.449058	0.682018
H224	H	1.156055	0.050942	1.182018
H225	H	0.742500	-0.477819	0.653073
H226	H	1.242500	0.022181	1.153073
H227	H	0.656200	-0.556084	0.709158
H228	H	1.156200	-0.056084	1.209158
H229	H	0.742644	-0.584759	0.680203
H230	H	1.242644	-0.084759	1.180203
H231	H	0.215222	-0.676694	0.461838
H232	H	0.715222	-0.176694	0.961838
O233	O	0.102528	-0.800460	0.698409
O234	O	0.602528	-0.300460	1.198409
C235	C	0.072563	-0.891768	0.766214
C236	C	0.572563	-0.391768	1.266214
C237	C	0.059977	-0.828109	0.715129
C238	C	0.559977	-0.328109	1.215129
H239	H	0.038176	-0.914147	0.779738
H240	H	0.538176	-0.414147	1.279738
H241	H	0.066959	-0.885341	0.808610
H242	H	0.566959	-0.385341	1.308610
H243	H	0.121908	-0.922965	0.748080
H244	H	0.621908	-0.422965	1.248080
H245	H	0.010634	-0.796879	0.733205
H246	H	0.510634	-0.296879	1.233205
H247	H	0.065622	-0.834584	0.672743
H248	H	0.565622	-0.334584	1.172743
O249	O	0.187353	-0.604172	1.210203
O250	O	0.687353	-0.104172	1.710203
C251	C	0.215742	-0.530413	1.210271
C252	C	0.715742	-0.030413	1.710271
C253	C	0.164767	-0.543148	1.210270
C254	C	0.664767	-0.043148	1.710270
H255	H	0.197497	-0.481080	1.210339
H256	H	0.697497	0.018920	1.710339
H257	H	0.258127	-0.535929	1.167039
H258	H	0.758127	-0.035929	1.667039
H259	H	0.229329	-0.564826	1.253487
H260	H	0.729329	-0.064826	1.753487
H261	H	0.151128	-0.508746	1.167084
H262	H	0.651128	-0.008746	1.667084
H263	H	0.122416	-0.537653	1.253532
H264	H	0.622416	-0.037653	1.753532
O265	O	0.028198	-0.007904	0.454841
O266	O	0.528198	0.492096	0.954841
C267	C	0.058044	-0.061458	0.387137
C268	C	0.558044	0.438542	0.887137
C269	C	0.070717	-0.061415	0.438140
C270	C	0.570717	0.438585	0.938140
H271	H	0.092403	-0.104724	0.373628
H272	H	0.592403	0.395276	0.873628
H273	H	0.063620	-0.018266	0.344714
H274	H	0.563620	0.481734	0.844714
H275	H	0.008688	-0.061433	0.405344
H276	H	0.508688	0.438567	0.905344
H277	H	0.120069	-0.061462	0.419991
H278	H	0.620069	0.438538	0.919991
H279	H	0.065099	-0.104604	0.480553
H280	H	0.565099	0.395396	0.980553
O281	O	0.699573	-0.763719	0.734950
O282	O	1.199573	-0.263719	1.234950
C283	C	0.753198	-0.867268	0.790364
C284	C	1.253198	-0.367268	1.290364
C285	C	0.753103	-0.816036	0.726794
C286	C	1.253103	-0.316036	1.226794
H287	H	0.796479	-0.909574	0.783793
H288	H	1.296479	-0.409574	1.283793
H289	H	0.710028	-0.880893	0.812690
H290	H	1.210028	-0.380893	1.312690
H291	H	0.753176	-0.849243	0.821679
H292	H	1.253176	-0.349243	1.321679
H293	H	0.753147	-0.834018	0.695431
H294	H	1.253147	-0.334018	1.195431
H295	H	0.796270	-0.802419	0.704517
H296	H	1.296270	-0.302419	1.204517
O297	O	-0.055927	-0.678772	1.210059
O298	O	0.444073	-0.178772	1.710059
C299	C	-0.160517	-0.638079	1.209913
C300	C	0.339483	-0.138079	1.709913
C301	C	-0.109521	-0.625434	1.209983
C302	C	0.390479	-0.125434	1.709983
H303	H	-0.203856	-0.594960	1.209839
H304	H	0.296144	-0.094960	1.709839
H305	H	-0.172186	-0.678705	1.253124
H306	H	0.327814	-0.178705	1.753124
H307	H	-0.143243	-0.649923	1.166676
H308	H	0.356757	-0.149923	1.666676
H309	H	-0.126753	-0.613563	1.253192
H310	H	0.373247	-0.113563	1.753192
H311	H	-0.097859	-0.584826	1.166744
H312	H	0.402141	-0.084826	1.666744
O313	O	-0.056339	-0.482769	1.210211
O314	O	0.443661	0.017231	1.710211
C315	C	-0.085195	-0.380450	1.210200
C316	C	0.414805	0.119550	1.710200
C317	C	-0.034019	-0.444067	1.210181
C318	C	0.465981	0.055933	1.710181
H319	H	-0.067164	-0.349138	1.210162
H320	H	0.432836	0.150862	1.710162
H321	H	-0.127551	-0.386930	1.253426
H322	H	0.372449	0.113070	1.753426
H323	H	-0.098745	-0.358172	1.166977
H324	H	0.401255	0.141828	1.666977
H325	H	-0.020417	-0.466380	1.253374
H326	H	0.479583	0.033620	1.753374
H327	H	0.008303	-0.437547	1.166926
H328	H	0.508303	0.062453	1.666926
H329	H	-0.084239	-0.606419	0.691217
H330	H	0.415761	-0.106419	1.191217
H331	H	0.699366	-0.755841	0.540718
H332	H	1.199366	-0.255841	1.040718
H333	H	0.020147	-0.542732	1.058106
H334	H	0.520147	-0.042732	1.558106
O335	O	0.699159	-0.519325	0.417487
O336	O	1.199159	-0.019325	0.917487
C337	C	0.699025	-0.490433	0.315213
C338	C	1.199025	0.009567	0.815213
C339	C	0.699090	-0.541615	0.378813
C340	C	1.199090	-0.041615	0.878813
H341	H	0.698956	-0.508432	0.283932
H342	H	1.198956	-0.008432	0.783932
H343	H	0.742234	-0.476860	0.292848
H344	H	1.242234	0.023140	0.792848
H345	H	0.655788	-0.448096	0.321794
H346	H	1.155788	0.051904	0.821794
H347	H	0.742297	-0.583986	0.372287
H348	H	1.242297	-0.083986	0.872287
H349	H	0.655853	-0.555135	0.401157
H350	H	1.155853	-0.055135	0.901157
H351	H	0.180620	-0.791296	1.210154
H352	H	0.680620	-0.291296	1.710154
H353	H	0.212798	-0.639038	1.058038
H354	H	0.712798	-0.139038	1.558038
O355	O	0.224112	-0.007398	0.454240
O356	O	0.724112	0.492602	0.954240
C357	C	0.334674	-0.060418	0.423865
C358	C	0.834674	0.439582	0.923865
C359	C	0.271194	-0.060781	0.475158
C360	C	0.771194	0.439219	0.975158
H361	H	0.372755	-0.103580	0.440754
H362	H	0.872755	0.396420	0.940754
H363	H	0.343572	-0.017123	0.412274
H364	H	0.843572	0.482877	0.912274
H365	H	0.334681	-0.060300	0.380571
H366	H	0.834681	0.439700	0.880571
H367	H	0.271140	-0.060921	0.518485
H368	H	0.771140	0.439079	1.018485
H369	H	0.262321	-0.104073	0.486696
H370	H	0.762321	0.395927	0.986696
O371	O	0.262107	-0.602212	0.935077
O372	O	0.762107	-0.102212	1.435077
C373	C	0.365142	-0.657176	0.941904
C374	C	0.865142	-0.157176	1.441904
C375	C	0.294829	-0.639901	0.977651
C376	C	0.794829	-0.139901	1.477651
H377	H	0.391618	-0.687661	0.976309
H378	H	0.891618	-0.187661	1.476309
H379	H	0.377955	-0.613076	0.911488
H380	H	0.877955	-0.113076	1.411488
H381	H	0.377904	-0.683614	0.911444
H382	H	0.877904	-0.183614	1.411444
H383	H	0.282016	-0.613478	1.008144
H384	H	0.782016	-0.113478	1.508144
H385	H	0.282053	-0.684023	1.008028
H386	H	0.782053	-0.184023	1.508028
H387	H	-0.084187	-0.007791	0.691362
H388	H	0.415813	0.492209	1.191362
O389	O	0.028466	-0.482681	0.454609
O390	O	0.528466	0.017319	0.954609
C391	C	0.069195	-0.418850	0.349922
C392	C	0.569195	0.081150	0.849922
C393	C	0.081783	-0.482502	0.401014
C394	C	0.581783	0.017498	0.901014
H395	H	0.112288	-0.418689	0.306574
H396	H	0.612288	0.081311	0.806574
H397	H	0.057425	-0.380944	0.367026
H398	H	0.557425	0.119056	0.867026
H399	H	0.028530	-0.409806	0.338330
H400	H	0.528530	0.090194	0.838330
H401	H	0.122456	-0.491605	0.412630
H402	H	0.622456	0.008395	0.912630
H403	H	0.093517	-0.520373	0.383883
H404	H	0.593517	-0.020373	0.883883
O405	O	0.102924	-0.007879	0.698151
O406	O	0.602924	0.492121	1.198151
C407	C	0.165997	-0.061374	0.763415
C408	C	0.665997	0.438626	1.263415
C409	C	0.153254	-0.061331	0.712411
C410	C	0.653254	0.438669	1.212411
H411	H	0.206697	-0.104578	0.774950
H412	H	0.706697	0.395422	1.274950
H413	H	0.122963	-0.061417	0.806823
H414	H	0.622963	0.438583	1.306823
H415	H	0.177790	-0.018128	0.746199
H416	H	0.677790	0.481872	1.246199
H417	H	0.141477	-0.104569	0.729568
H418	H	0.641477	0.395431	1.229568
H419	H	0.196299	-0.061255	0.669014
H420	H	0.696299	0.438745	1.169014
O421	O	0.052614	-0.497405	0.720428
O422	O	0.552614	0.002595	1.220428
C423	C	-0.031531	-0.401731	0.728772
C424	C	0.468469	0.098269	1.228772
C425	C	0.014941	-0.442879	0.687678
C426	C	0.514941	0.057121	1.187678
H427	H	-0.062011	-0.357644	0.702314
H428	H	0.437989	0.142356	1.202314
H429	H	-0.005092	-0.388889	0.741550
H430	H	0.494908	0.111111	1.241550
H431	H	-0.061924	-0.428226	0.772898
H432	H	0.438076	0.071774	1.272898
H433	H	0.045346	-0.416423	0.643525
H434	H	0.545346	0.083577	1.143525
H435	H	-0.011536	-0.455724	0.674950
H436	H	0.488464	0.044276	1.174950
O437	O	0.009897	-0.540293	0.677912
O438	O	0.509897	-0.040293	1.177912
C439	C	-0.087441	-0.545249	0.760362
C440	C	0.412559	-0.045249	1.260362
C441	C	-0.017127	-0.562480	0.743030
C442	C	0.482873	-0.062480	1.243030
H443	H	-0.109313	-0.563168	0.813010
H444	H	0.390687	-0.063168	1.313010
H445	H	-0.095712	-0.567171	0.738494
H446	H	0.404288	-0.067171	1.238494
H447	H	-0.109361	-0.492604	0.742408
H448	H	0.390639	0.007396	1.242408
H449	H	0.004839	-0.615116	0.760980
H450	H	0.504839	-0.115116	1.260980
H451	H	-0.008901	-0.540513	0.764889
H452	H	0.491099	-0.040513	1.264889
H453	H	0.251872	-0.599651	0.618278
H454	H	0.751872	-0.099651	1.118278
O455	O	0.219262	-0.644812	0.573087
O456	O	0.719262	-0.144812	1.073087
C457	C	0.326842	-0.695201	0.522730
C458	C	0.826842	-0.195201	1.022730
C459	C	0.280349	-0.654105	0.563872
C460	C	0.780349	-0.154105	1.063872
H461	H	0.376241	-0.702738	0.515277
H462	H	0.876241	-0.202738	1.015277
H463	H	0.319373	-0.671381	0.475947
H464	H	0.819373	-0.171381	0.975947
H465	H	0.319327	-0.741951	0.546546
H466	H	0.819327	-0.241951	1.046546
H467	H	0.287836	-0.607349	0.540110
H468	H	0.787836	-0.107349	1.040110
H469	H	0.287829	-0.677973	0.610653
H470	H	0.787829	-0.177973	1.110653
H471	H	0.429307	-0.646943	0.702793
H472	H	0.929307	-0.146943	1.202793
H473	H	0.547237	-0.686258	0.663446
H474	H	1.047237	-0.186258	1.163446
H475	H	0.547206	-0.495421	0.590679
H476	H	1.047206	0.004579	1.090679
H477	H	0.203661	-0.277820	0.570179
H478	H	0.703661	0.222180	1.070179
H479	H	0.164306	-0.159876	0.530897
H480	H	0.664306	0.340124	1.030897
H481	H	0.068098	-0.159910	0.723527
H482	H	0.568098	0.340090	1.223527
H483	H	0.107441	-0.277854	0.762810
H484	H	0.607441	0.222146	1.262810
