data_functionalizedCrystal
_audit_creation_method	'MofGen! by Chris Wilmer'
_symmetry_space_group_name_H-M	'P1'
_symmetry_Int_Tables_number	1
_symmetry_cell_setting	triclinic
loop_
_symmetry_equiv_pos_as_xyz
  x,y,z
_cell_length_a	12.645331
_cell_length_b	25.639239
_cell_length_c	12.645323
_cell_angle_alpha	90.032429
_cell_angle_beta	90.015738
_cell_angle_gamma	90.038520
loop_
_atom_site_label
_atom_site_type_symbol
_atom_site_fract_x
_atom_site_fract_y
_atom_site_fract_z
Zn1	Zn	1.620572	-0.208157	0.599194
Zn2	Zn	1.620387	-0.295596	0.421911
Zn3	Zn	1.443287	-0.208175	0.421960
Zn4	Zn	1.443202	-0.295562	0.599148
O5	O	1.531862	-0.251873	0.510553
O6	O	1.768895	-0.219763	0.575676
O7	O	1.596852	-0.284021	0.273570
O8	O	1.466917	-0.135008	0.445511
O9	O	1.768759	-0.284004	0.445427
O10	O	1.597168	-0.134995	0.575724
O11	O	1.466738	-0.219794	0.273606
O12	O	1.294928	-0.219761	0.445466
O13	O	1.466772	-0.283946	0.747501
O14	O	1.294866	-0.283964	0.575645
O15	O	1.597085	-0.219730	0.747536
O16	O	1.596770	-0.368757	0.445382
O17	O	1.466593	-0.368732	0.575597
C18	C	1.256432	-0.251861	0.510556
C19	C	1.138602	-0.251869	0.510582
C20	C	0.971034	-0.292480	0.592051
C21	C	1.093594	-0.292349	0.592392
C22	C	1.094166	-0.196800	0.541118
C23	C	0.971568	-0.197048	0.541692
C24	C	0.971346	-0.265882	0.398319
C25	C	1.093951	-0.267086	0.398925
C26	C	1.531681	-0.387715	0.510502
C27	C	1.531700	-0.445830	0.510516
C28	C	1.464066	-0.697022	0.578335
C29	C	1.464026	-0.642418	0.578322
O30	O	1.406347	-0.614181	0.635949
N31	N	1.531834	-0.615103	0.510571
C32	C	1.599692	-0.642396	0.442835
O33	O	1.657364	-0.614148	0.385207
C34	C	1.599736	-0.696999	0.442854
C35	C	1.531917	-0.724311	0.510602
C36	C	1.396253	-0.724334	0.646078
C37	C	1.396291	-0.778935	0.646089
C38	C	1.464142	-0.806224	0.578356
C39	C	1.531955	-0.778911	0.510613
C40	C	1.667599	-0.724290	0.375124
C41	C	1.667637	-0.778897	0.375149
C42	C	1.599818	-0.806209	0.442897
C43	C	1.599844	-0.860801	0.442890
N44	N	1.532037	-0.888115	0.510642
C45	C	1.464186	-0.860827	0.578375
C46	C	1.599596	-0.527725	0.442803
C47	C	1.599548	-0.473123	0.442778
C48	C	1.463883	-0.473149	0.578267
C49	C	1.463927	-0.527752	0.578286
C50	C	1.531789	-0.555040	0.510554
C51	C	1.464270	-0.975492	0.578391
C52	C	1.464311	-1.030097	0.578393
C53	C	1.599979	-1.030066	0.442908
C54	C	1.599935	-0.975466	0.442902
C55	C	1.532077	-0.948180	0.510652
O56	O	1.657497	-0.889072	0.385296
O57	O	1.406533	-0.889081	0.636003
C58	C	1.808367	-0.251885	0.510551
C59	C	1.926197	-0.251890	0.510550
C60	C	1.531940	-0.251832	0.787059
C61	C	1.531973	-0.251815	0.904889
C62	C	1.532073	-0.115500	0.510628
C63	C	1.532162	-0.057386	0.510660
C64	C	1.531845	-0.251875	0.235124
C65	C	1.532017	-0.251745	0.117294
C66	C	1.449740	-0.292023	1.072432
C67	C	1.449956	-0.292222	0.949872
C68	C	1.643661	-0.266769	0.949391
C69	C	1.643210	-0.267021	1.071989
C70	C	1.503574	-0.196429	1.072105
C71	C	1.501082	-0.196760	0.949499
H72	H	1.123003	-0.307609	0.375894
H73	H	1.667324	-0.307459	1.100586
H74	H	1.722903	-0.801112	0.319996
O75	O	1.408197	-0.180099	1.109095
C76	C	1.421317	-0.133146	1.165707
H77	H	1.506507	-0.129991	1.194537
H78	H	1.402534	-0.098724	1.111870
C79	C	1.241311	-0.136494	1.225922
C80	C	1.345941	-0.132621	1.261339
H81	H	1.194812	-0.136168	1.284909
H82	H	1.232469	-0.168126	1.187778
H83	H	1.225673	-0.107807	1.181057
H84	H	1.361580	-0.161310	1.306192
H85	H	1.354783	-0.100994	1.299493
O86	O	1.128992	-0.159679	0.472673
C87	C	1.187113	-0.121656	0.528557
H88	H	1.162373	-0.121993	0.615237
H89	H	1.275154	-0.130687	0.522303
C90	C	1.195477	-0.067056	0.374498
C91	C	1.165085	-0.067466	0.480958
H92	H	1.181894	-0.033629	0.345135
H93	H	1.156323	-0.092673	0.336846
H94	H	1.268843	-0.074583	0.369300
H95	H	1.091718	-0.059945	0.486153
H96	H	1.204226	-0.041846	0.518610
H97	H	1.341064	-0.801168	0.701255
H98	H	0.941511	-0.333452	0.573123
H99	H	1.655148	-0.953228	0.387725
O100	O	1.665829	-1.056661	0.377192
C101	C	1.651283	-1.110710	0.391709
H102	H	1.616551	-1.118156	0.473505
H103	H	1.594845	-1.126247	0.328805
C104	C	1.801211	-1.129561	0.281584
C105	C	1.758560	-1.138707	0.382051
H106	H	1.867383	-1.146832	0.275621
H107	H	1.811009	-1.093147	0.271799
H108	H	1.754169	-1.142508	0.229175
H109	H	1.805596	-1.125754	0.434457
H110	H	1.748773	-1.175119	0.391844
H111	H	1.706589	-0.238958	1.101668
O112	O	1.398406	-0.949048	0.644348
C113	C	1.421545	-0.962338	0.750025
H114	H	1.462332	-1.001960	0.752257
H115	H	1.475999	-0.931566	0.785775
C116	C	1.268069	-0.916235	0.811412
C117	C	1.318157	-0.964902	0.814154
H118	H	1.204296	-0.917815	0.850972
H119	H	1.252482	-0.907279	0.740215
H120	H	1.313459	-0.890597	0.841202
H121	H	1.272773	-0.990538	0.784352
H122	H	1.333734	-0.973862	0.885347
O123	O	1.330234	-0.697912	0.711911
C124	C	1.270421	-0.733738	0.771717
H125	H	1.266824	-0.772677	0.728296
H126	H	1.309198	-0.739497	0.852265
C127	C	1.161977	-0.664669	0.840224
C128	C	1.157552	-0.712493	0.786889
H129	H	1.092355	-0.651563	0.849588
H130	H	1.202276	-0.640532	0.799935
H131	H	1.194296	-0.669474	0.907342
H132	H	1.125245	-0.707685	0.719768
H133	H	1.117244	-0.736628	0.827167
H134	H	0.942351	-0.236317	0.337594
O135	O	1.130883	-0.182471	0.637971
C136	C	1.196776	-0.222085	0.678335
H137	H	1.176148	-0.260764	0.638869
H138	H	1.282936	-0.211990	0.661407
C139	C	1.205567	-0.179242	0.847078
C140	C	1.180225	-0.226749	0.798612
H141	H	1.195362	-0.182118	0.921271
H142	H	1.161177	-0.152552	0.819884
H143	H	1.277366	-0.170834	0.832961
H144	H	1.108424	-0.235153	0.812718
H145	H	1.224603	-0.253441	0.825811
H146	H	1.408637	-0.450921	0.633421
O147	O	0.934264	-0.281490	0.690625
C148	C	0.868132	-0.237292	0.686252
H149	H	0.888626	-0.213168	0.613373
H150	H	0.782041	-0.250315	0.681502
C151	C	0.859330	-0.233634	0.875849
C152	C	0.884508	-0.204003	0.786343
H153	H	0.869427	-0.213100	0.937591
H154	H	0.903882	-0.263412	0.878796
H155	H	0.787589	-0.244484	0.871876
H156	H	0.956251	-0.193158	0.790310
H157	H	0.839969	-0.174221	0.783399
H158	H	1.418890	-0.185483	0.920412
H159	H	1.654760	-0.450889	0.387600
O160	O	0.937428	-0.182809	0.639503
C161	C	0.875371	-0.137315	0.631496
H162	H	0.896891	-0.115514	0.555953
H163	H	0.788109	-0.148466	0.629275
C164	C	0.869959	-0.128782	0.820582
C165	C	0.896397	-0.102004	0.727803
H166	H	0.882924	-0.107002	0.879990
H167	H	0.911765	-0.159434	0.825977
H168	H	0.797242	-0.138073	0.818716
H169	H	0.969115	-0.092720	0.729664
H170	H	0.854604	-0.071350	0.722410
O171	O	0.934541	-0.313013	0.365325
C172	C	0.965775	-0.351878	0.437701
H173	H	1.038375	-0.338016	0.483227
H174	H	0.898475	-0.359843	0.495459
C175	C	0.903570	-0.419321	0.321326
C176	C	0.992743	-0.402298	0.377235
H177	H	0.920200	-0.450424	0.284030
H178	H	0.882523	-0.393138	0.272566
H179	H	0.847494	-0.425955	0.369467
H180	H	1.048812	-0.395658	0.329093
H181	H	1.013800	-0.428482	0.425986
H182	H	0.941911	-0.165722	0.485054
H183	H	1.654855	-0.549939	0.387639
O184	O	1.733588	-0.697849	0.309287
C185	C	1.793463	-0.733654	0.249507
H186	H	1.797114	-0.772559	0.292949
H187	H	1.754702	-0.739509	0.168958
C188	C	1.901808	-0.664520	0.180974
C189	C	1.906300	-0.712302	0.234335
H190	H	1.971410	-0.651348	0.171610
H191	H	1.861467	-0.640397	0.221245
H192	H	1.869503	-0.669405	0.113855
H193	H	1.938592	-0.707415	0.301457
H194	H	1.946650	-0.736424	0.194074
O195	O	1.350685	-0.280999	1.107775
C196	C	1.349058	-0.283265	1.219164
H197	H	1.416749	-0.308912	1.248070
H198	H	1.358549	-0.242278	1.252869
C199	C	1.159879	-0.274963	1.220758
C200	C	1.243014	-0.306467	1.256261
H201	H	1.094465	-0.289272	1.243643
H202	H	1.160975	-0.273434	1.145714
H203	H	1.167803	-0.240809	1.248849
H204	H	1.235097	-0.340617	1.228160
H205	H	1.241914	-0.308002	1.331303
O206	O	1.398021	-0.554200	0.644202
C207	C	1.338109	-0.518399	0.703954
H208	H	1.381500	-0.479452	0.707636
H209	H	1.257612	-0.512649	0.665067
C210	C	1.269493	-0.587504	0.812259
C211	C	1.322792	-0.539671	0.816788
H212	H	1.260040	-0.600626	0.881859
H213	H	1.309854	-0.611625	0.772001
H214	H	1.202418	-0.582706	0.779848
H215	H	1.389870	-0.544471	0.849186
H216	H	1.282442	-0.515551	0.857055
H217	H	1.124588	-0.239667	0.334942
O218	O	1.472091	-0.340613	1.109229
C219	C	1.561735	-0.338363	1.175405
H220	H	1.610597	-0.302380	1.154925
H221	H	1.535366	-0.336025	1.261482
C222	C	1.569260	-0.431864	1.184236
C223	C	1.629278	-0.387672	1.159076
H224	H	1.610922	-0.462281	1.174168
H225	H	1.508863	-0.433380	1.139656
H226	H	1.547290	-0.429909	1.255966
H227	H	1.651235	-0.389624	1.087344
H228	H	1.689680	-0.386157	1.203644
O229	O	1.673110	-0.314491	0.912836
C230	C	1.773566	-0.327336	0.953576
H231	H	1.817284	-0.290099	0.976440
H232	H	1.763827	-0.353115	1.026356
C233	C	1.783704	-0.402576	0.840795
C234	C	1.837403	-0.356842	0.868869
H235	H	1.823081	-0.420780	0.788547
H236	H	1.716023	-0.393924	0.813350
H237	H	1.775592	-0.424053	0.901453
H238	H	1.845503	-0.335363	0.808215
H239	H	1.905087	-0.365492	0.896302
O240	O	1.472288	-0.341175	0.915012
C241	C	1.394872	-0.376160	0.952559
H242	H	1.355873	-0.359206	1.026207
H243	H	1.332480	-0.382582	0.888764
C244	C	1.495171	-0.449428	0.889808
C245	C	1.447278	-0.428606	0.980269
H246	H	1.527495	-0.481780	0.906897
H247	H	1.547326	-0.425858	0.864508
H248	H	1.443169	-0.454774	0.836654
H249	H	1.499282	-0.423254	1.033416
H250	H	1.395133	-0.452177	1.005579
O251	O	1.567341	-0.159101	0.912799
C252	C	1.561964	-0.157408	0.801483
H253	H	1.532766	-0.196580	0.770294
H254	H	1.504908	-0.125350	0.776158
C255	C	1.708471	-0.097837	0.794538
C256	C	1.672617	-0.145950	0.756231
H257	H	1.776724	-0.090767	0.766623
H258	H	1.712091	-0.098976	0.869534
H259	H	1.660914	-0.071127	0.773431
H260	H	1.720166	-0.172660	0.777350
H261	H	1.669007	-0.144816	0.681237
O262	O	1.574994	-0.160563	1.106586
C263	C	1.548712	-0.111108	1.065611
H264	H	1.499019	-0.116110	0.991056
H265	H	1.501654	-0.088324	1.127077
C266	C	1.711735	-0.074963	1.130102
C267	C	1.650708	-0.081107	1.038527
H268	H	1.774649	-0.056456	1.113399
H269	H	1.729440	-0.108281	1.157712
H270	H	1.672507	-0.055979	1.181315
H271	H	1.689931	-0.100097	0.987321
H272	H	1.633012	-0.047791	1.010908
H273	H	1.123635	-0.333185	0.573252
H274	H	1.706606	-0.238361	0.920256
O275	O	1.128664	-0.281400	0.691627
C276	C	1.190527	-0.323248	0.728993
H277	H	1.168208	-0.360373	0.684612
H278	H	1.277790	-0.314281	0.715442
C279	C	1.197783	-0.285328	0.902577
C280	C	1.170364	-0.330926	0.848074
H281	H	1.185350	-0.290063	0.976032
H282	H	1.156108	-0.257133	0.877403
H283	H	1.270501	-0.277860	0.891273
H284	H	1.097645	-0.338389	0.859367
H285	H	1.212026	-0.359122	0.873253
H286	H	1.409083	-1.052332	0.633564
H287	H	1.367134	-0.282864	0.919782
