data_functionalizedCrystal
_audit_creation_method	'MofGen! by Chris Wilmer'
_symmetry_space_group_name_H-M	'P1'
_symmetry_Int_Tables_number	1
_symmetry_cell_setting	triclinic
loop_
_symmetry_equiv_pos_as_xyz
  x,y,z
_cell_length_a	15.298068
_cell_length_b	15.297327
_cell_length_c	19.076919
_cell_angle_alpha	101.510342
_cell_angle_beta	82.175834
_cell_angle_gamma	110.796215
loop_
_atom_site_label
_atom_site_type_symbol
_atom_site_fract_x
_atom_site_fract_y
_atom_site_fract_z
Zn1	Zn	1.320489	-0.161771	-0.598389
Zn2	Zn	1.653822	0.171563	-0.265056
Zn3	Zn	1.987155	0.504896	0.068277
Zn4	Zn	1.299708	-0.311064	-0.498030
Zn5	Zn	1.633041	0.022270	-0.164697
Zn6	Zn	1.966374	0.355603	0.168637
Zn7	Zn	1.173371	-0.180267	-0.463305
Zn8	Zn	1.506704	0.153066	-0.129972
Zn9	Zn	1.840037	0.486399	0.203362
Zn10	Zn	1.138004	-0.344127	-0.598274
Zn11	Zn	1.471337	-0.010793	-0.264941
Zn12	Zn	1.804671	0.322540	0.068392
O13	O	1.232893	-0.249307	-0.539500
O14	O	1.566226	0.084026	-0.206166
O15	O	1.899559	0.417360	0.127167
O16	O	1.446975	-0.159997	-0.599657
O17	O	1.780308	0.173336	-0.266324
O18	O	2.113642	0.506670	0.067009
O19	O	1.289053	-0.287617	-0.394938
O20	O	1.622387	0.045716	-0.061604
O21	O	1.955720	0.379049	0.271729
O22	O	1.216384	-0.046758	-0.466740
O23	O	1.549717	0.286575	-0.133407
O24	O	1.883051	0.619908	0.199927
O25	O	1.431707	-0.269682	-0.525924
O26	O	1.765041	0.063651	-0.192590
O27	O	2.098374	0.396985	0.140743
O28	O	1.324471	-0.033169	-0.565986
O29	O	1.657804	0.300164	-0.232653
O30	O	1.991138	0.633498	0.100681
O31	O	1.196234	-0.191522	-0.369425
O32	O	1.529567	0.141812	-0.036092
O33	O	1.862900	0.475145	0.297241
O34	O	1.039436	-0.223581	-0.466628
O35	O	1.372769	0.109752	-0.133295
O36	O	1.706103	0.443085	0.200038
O37	O	1.156107	-0.326033	-0.696776
O38	O	1.489440	0.007301	-0.363442
O39	O	1.822773	0.340634	-0.030109
O40	O	1.013452	-0.343968	-0.565790
O41	O	1.346786	-0.010635	-0.232457
O42	O	1.680119	0.322699	0.100877
O43	O	1.290177	-0.192057	-0.696860
O44	O	1.623511	0.141277	-0.363527
O45	O	1.956844	0.474610	-0.030193
O46	O	1.254760	-0.446505	-0.525812
O47	O	1.588093	-0.113171	-0.192479
O48	O	1.921426	0.220162	0.140855
O49	O	1.135956	-0.470796	-0.599461
O50	O	1.469290	-0.137463	-0.266128
O51	O	1.802623	0.195871	0.067205
C52	C	0.992933	-0.289370	-0.512429
C53	C	1.326266	0.043963	-0.179096
C54	C	1.659599	0.377296	0.154238
C55	C	0.890272	-0.306533	-0.500867
C56	C	1.223605	0.026800	-0.167534
C57	C	1.556939	0.360134	0.165799
C58	C	0.632601	-0.126877	-0.622161
C59	C	0.965935	0.206457	-0.288828
C60	C	1.299268	0.539790	0.044506
C61	C	0.729056	-0.110754	-0.633028
C62	C	1.062389	0.222579	-0.299695
C63	C	1.395722	0.555912	0.033638
C64	C	0.769365	-0.159697	-0.599989
C65	C	1.102698	0.173636	-0.266655
C66	C	1.436031	0.506969	0.066678
C67	C	0.713209	-0.224766	-0.556081
C68	C	1.046543	0.108567	-0.222747
C69	C	1.379876	0.441901	0.110586
C70	C	0.616744	-0.240896	-0.545217
C71	C	0.950078	0.092438	-0.211883
C72	C	1.283411	0.425771	0.121450
C73	C	0.753508	-0.273716	-0.523045
C74	C	1.086841	0.059617	-0.189711
C75	C	1.420174	0.392951	0.143622
C76	C	0.697352	-0.338785	-0.479136
C77	C	1.030686	-0.005452	-0.145803
C78	C	1.364019	0.327882	0.187530
C79	C	0.600897	-0.354911	-0.468274
C80	C	0.934231	-0.021578	-0.134941
C81	C	1.267564	0.311756	0.198393
C82	C	0.560588	-0.305968	-0.501314
C83	C	0.893922	0.027365	-0.167980
C84	C	1.227255	0.360699	0.165353
C85	C	0.849973	-0.257587	-0.533908
C86	C	1.183306	0.075747	-0.200575
C87	C	1.516639	0.409080	0.132758
C88	C	0.834116	-0.371606	-0.456964
C89	C	1.167449	-0.038272	-0.123631
C90	C	1.500782	0.295061	0.209703
C91	C	0.737661	-0.387728	-0.446097
C92	C	1.070995	-0.054395	-0.112763
C93	C	1.404328	0.278939	0.220570
C94	C	1.189289	-0.492628	-0.566410
C95	C	1.522623	-0.159295	-0.233077
C96	C	1.855956	0.174038	0.100256
C97	C	1.170719	-0.596709	-0.577956
C98	C	1.504052	-0.263376	-0.244623
C99	C	1.837385	0.069957	0.088711
C100	C	1.365986	-0.839357	-0.457265
C101	C	1.699319	-0.506023	-0.123932
C102	C	2.032653	-0.172690	0.209402
C103	C	1.383434	-0.741567	-0.446414
C104	C	1.716767	-0.408234	-0.113080
C105	C	2.050101	-0.074900	0.220253
C106	C	1.330257	-0.705348	-0.479298
C107	C	1.663590	-0.372014	-0.145965
C108	C	1.996924	-0.038681	0.187368
C109	C	1.259628	-0.766928	-0.523036
C110	C	1.592962	-0.433595	-0.189703
C111	C	1.926295	-0.100261	0.143631
C112	C	1.242174	-0.864728	-0.533884
C113	C	1.575507	-0.531394	-0.200551
C114	C	1.908841	-0.198061	0.132783
C115	C	1.206445	-0.730719	-0.555917
C116	C	1.539778	-0.397385	-0.222584
C117	C	1.873112	-0.064052	0.110749
C118	C	1.135816	-0.792299	-0.599655
C119	C	1.469150	-0.458966	-0.266322
C120	C	1.802483	-0.125632	0.067012
C121	C	1.118366	-0.890089	-0.610501
C122	C	1.451699	-0.556755	-0.277168
C123	C	1.785032	-0.223422	0.056165
C124	C	1.171543	-0.926308	-0.577617
C125	C	1.504876	-0.592975	-0.244283
C126	C	1.838209	-0.259641	0.089050
C127	C	1.223899	-0.632919	-0.545070
C128	C	1.557233	-0.299586	-0.211736
C129	C	1.890566	0.033748	0.121597
C130	C	1.100087	-0.658290	-0.621689
C131	C	1.433421	-0.324957	-0.288355
C132	C	1.766754	0.008377	0.044978
C133	C	1.082639	-0.756079	-0.632540
C134	C	1.415973	-0.422746	-0.299206
C135	C	1.749306	-0.089413	0.034127
C136	C	1.473789	-0.209088	-0.566677
C137	C	1.807123	0.124245	-0.233343
C138	C	2.140456	0.457579	0.099990
C139	C	1.576445	-0.191949	-0.578258
C140	C	1.909779	0.141384	-0.244925
C141	C	2.243112	0.474718	0.088409
C142	C	1.221515	-0.260669	-0.723068
C143	C	1.554848	0.072664	-0.389735
C144	C	1.888182	0.405997	-0.056402
C145	C	1.216666	-0.265511	-0.801294
C146	C	1.550000	0.067822	-0.467961
C147	C	1.883333	0.401155	-0.134628
C148	C	1.276691	-0.005032	-0.512502
C149	C	1.610024	0.328301	-0.179169
C150	C	1.943357	0.661634	0.154164
C151	C	1.295355	0.099063	-0.500998
C152	C	1.628688	0.432396	-0.167664
C153	C	1.962021	0.765730	0.165669
C154	C	1.284188	-0.198035	-0.838090
C155	C	1.617522	0.135298	-0.504757
C156	C	1.950855	0.468631	-0.171423
C157	C	1.279622	-0.202583	-0.911590
C158	C	1.612955	0.130750	-0.578257
C159	C	1.946289	0.464083	-0.244923
C160	C	1.207537	-0.274612	-0.948294
C161	C	1.540870	0.058721	-0.614960
C162	C	1.874204	0.392055	-0.281627
C163	C	1.140008	-0.342091	-0.911492
C164	C	1.473341	-0.008758	-0.578159
C165	C	1.806675	0.324575	-0.244826
C166	C	1.144571	-0.337539	-0.837993
C167	C	1.477905	-0.004206	-0.504659
C168	C	1.811238	0.329128	-0.171326
C169	C	1.186401	-0.295704	-1.168108
C170	C	1.519734	0.037630	-0.834775
C171	C	1.853067	0.370963	-0.501442
C172	C	1.181844	-0.300253	-1.241614
C173	C	1.515177	0.033081	-0.908280
C174	C	1.848511	0.366414	-0.574947
C175	C	1.321458	-0.160743	-1.241706
C176	C	1.654791	0.172590	-0.908372
C177	C	1.988124	0.505924	-0.575039
C178	C	1.326018	-0.156200	-1.168206
C179	C	1.659351	0.177133	-0.834872
C180	C	1.992684	0.510467	-0.501539
C181	C	1.258486	-0.223677	-1.131410
C182	C	1.591820	0.109657	-0.798077
C183	C	1.925153	0.442990	-0.464743
N184	N	1.202869	-0.279264	-1.023423
N185	N	1.536203	0.054069	-0.690090
N186	N	1.869536	0.387403	-0.356756
N187	N	1.263151	-0.219020	-1.056281
N188	N	1.596484	0.114314	-0.722948
N189	N	1.929817	0.447647	-0.389614
C190	C	1.244291	-0.237912	-0.356644
C191	C	1.577625	0.095421	-0.023311
C192	C	1.910958	0.428754	0.310023
C193	C	1.249366	-0.232777	-0.278409
C194	C	1.582699	0.100557	0.054924
C195	C	1.916033	0.433890	0.388257
H196	H	0.482046	-0.319098	-0.492473
H197	H	0.815380	0.014235	-0.159140
H198	H	1.148713	0.347569	0.174193
H199	H	1.342891	-0.139384	-0.808212
H200	H	1.676224	0.193949	-0.474878
H201	H	2.009557	0.527283	-0.141545
H202	H	0.599771	-0.087040	-0.649062
H203	H	0.933104	0.246293	-0.315728
H204	H	1.266438	0.579627	0.017605
H205	H	1.123140	-0.358910	-1.271496
H206	H	1.456474	-0.025577	-0.938162
H207	H	1.789807	0.307757	-0.604829
H208	H	0.895686	-0.204606	-0.569658
H209	H	1.229019	0.128727	-0.236325
H210	H	1.562352	0.462061	0.097009
F211	F	1.422570	-0.877911	-0.422270
F212	F	1.755903	-0.544578	-0.088937
F213	F	2.089237	-0.211244	0.244397
F214	F	1.007473	-0.821628	-0.679087
F215	F	1.340807	-0.488295	-0.345754
F216	F	1.674140	-0.154962	-0.012421
F217	F	1.299065	-0.567392	-0.498522
F218	F	1.632398	-0.234059	-0.165189
F219	F	1.965732	0.099275	0.168145
H220	H	1.376437	-0.105806	-1.271672
H221	H	1.709770	0.227527	-0.938339
H222	H	2.043104	0.560860	-0.605006
F223	F	1.043484	-0.619749	-0.656685
F224	F	1.376817	-0.286416	-0.323352
F225	F	1.710150	0.046918	0.009982
H226	H	0.866933	-0.411464	-0.430064
H227	H	1.200267	-0.078130	-0.096731
H228	H	1.533600	0.255203	0.236602
H229	H	0.847903	-0.146563	-0.608837
H230	H	1.181237	0.186770	-0.275504
H231	H	1.514570	0.520103	0.057830
H232	H	1.344466	-0.625722	-0.470460
H233	H	1.677800	-0.292389	-0.137127
H234	H	2.011133	0.040944	0.196207
H235	H	1.089580	-0.392477	-0.808032
H236	H	1.422913	-0.059144	-0.474699
H237	H	1.756247	0.274189	-0.141366
H238	H	1.334608	-0.147639	-0.941546
H239	H	1.667941	0.185694	-0.608213
H240	H	2.001274	0.519028	-0.274880
F241	F	1.402741	-0.079538	-1.129148
F242	F	1.736075	0.253796	-0.795815
F243	F	2.069408	0.587129	-0.462481
H244	H	0.555176	-0.407902	-0.432527
H245	H	0.888509	-0.074568	-0.099194
H246	H	1.221843	0.258765	0.234139
H247	H	1.131423	-0.350659	-1.138161
H248	H	1.464756	-0.017326	-0.804828
H249	H	1.798089	0.316007	-0.471494
H250	H	1.081312	-0.400736	-0.941382
H251	H	1.414645	-0.067403	-0.608048
H252	H	1.747979	0.265931	-0.274715
H253	H	0.774770	-0.057778	-0.668781
H254	H	1.108103	0.275555	-0.335447
H255	H	1.441437	0.608889	-0.002114
F256	F	0.677886	-0.456977	-0.399368
F257	F	1.011219	-0.123644	-0.066034
F258	F	1.344553	0.209689	0.267299
H259	H	1.440938	-0.691432	-0.410802
H260	H	1.774271	-0.358099	-0.077469
H261	H	2.107605	-0.024766	0.255865
H262	H	1.157342	-1.005935	-0.586451
H263	H	1.490676	-0.672602	-0.253118
H264	H	1.824009	-0.339269	0.080215
H265	H	1.060845	-0.940227	-0.646106
H266	H	1.394178	-0.606894	-0.312773
H267	H	1.727512	-0.273560	0.020561
