data_functionalizedCrystal
_audit_creation_method	'MofGen! by Chris Wilmer'
_symmetry_space_group_name_H-M	'P1'
_symmetry_Int_Tables_number	1
_symmetry_cell_setting	triclinic
loop_
_symmetry_equiv_pos_as_xyz
  x,y,z
_cell_length_a	17.019282
_cell_length_b	19.188924
_cell_length_c	16.098538
_cell_angle_alpha	92.711427
_cell_angle_beta	91.140572
_cell_angle_gamma	83.265903
loop_
_atom_site_label
_atom_site_type_symbol
_atom_site_fract_x
_atom_site_fract_y
_atom_site_fract_z
O1	O	1.046075	0.089163	0.005789
O2	O	0.817211	0.099776	-0.010632
O3	O	0.938250	-0.007153	-0.001938
O4	O	0.925036	0.196093	-0.002905
O5	O	0.931179	-0.000932	0.136067
O6	O	0.810140	0.105998	0.127373
O7	O	1.039005	0.095385	0.143794
Zn8	Zn	0.923450	0.101679	0.157495
Zn9	Zn	0.932766	0.093482	-0.024333
O10	O	0.917966	0.202315	0.135100
C11	C	0.784395	0.102364	0.056269
C12	C	0.697150	0.100795	0.050010
C13	C	0.652312	0.103448	0.122297
C14	C	0.570337	0.101964	0.116418
C15	C	0.533200	0.097831	0.038250
C16	C	0.578044	0.095176	-0.034043
C17	C	0.660019	0.096655	-0.028163
C18	C	0.285885	0.093190	0.016732
C19	C	0.203904	0.091712	0.010858
C20	C	0.196202	0.098499	0.161319
C21	C	0.278178	0.099983	0.167192
C22	C	0.323015	0.097324	0.094899
C23	C	0.449409	0.096316	0.032239
C24	C	0.406806	0.098834	0.100912
C25	C	0.934288	-0.030056	0.067035
C26	C	0.933006	-0.107567	0.066945
C27	C	0.936261	-0.147360	-0.008324
C28	C	0.935046	-0.220189	-0.008418
C29	C	0.930591	-0.253223	0.066764
C30	C	0.927330	-0.213420	0.142043
C31	C	0.928537	-0.140592	0.142134
N32	N	0.970552	-0.370153	0.125825
N33	N	0.969407	-0.439337	0.125733
C34	C	0.926950	-0.472651	0.066494
N35	N	0.885693	-0.434168	0.007338
N36	N	0.886842	-0.364978	0.007427
C37	C	0.929280	-0.332193	0.066673
C38	C	0.928888	-0.591414	-0.008882
C39	C	0.927667	-0.664243	-0.008973
C40	C	0.919959	-0.657474	0.141491
C41	C	0.921171	-0.584645	0.141579
C42	C	0.925640	-0.551620	0.066390
C43	C	1.071820	0.092798	0.076891
C44	C	1.159066	0.094366	0.083145
C45	C	0.921928	0.225217	0.066125
C46	C	0.923210	0.302728	0.066210
N47	N	0.917098	0.107273	0.281588
N48	N	0.939124	0.087882	-0.148425
C49	C	0.968491	0.061904	0.328865
C50	C	0.964054	0.065824	0.415735
C51	C	0.908229	0.115117	0.455327
C52	C	0.856831	0.160488	0.408044
C53	C	0.861264	0.156564	0.321175
C54	C	0.892159	0.129329	0.717423
C55	C	0.887731	0.133251	0.804298
C56	C	0.994954	0.038586	0.811983
C57	C	0.999386	0.034669	0.725112
C58	C	0.947985	0.080038	0.677836
C59	C	0.903695	0.119127	0.544122
C60	C	0.952516	0.076025	0.589042
H61	H	0.322382	0.091022	-0.042134
H62	H	0.547802	0.091806	-0.097689
N63	N	0.805828	0.205498	0.270184
H64	H	0.813931	0.255759	0.285922
H65	H	0.817131	0.195472	0.209163
N66	N	0.843497	0.172302	0.586830
H67	H	0.811613	0.200455	0.543702
H68	H	0.807006	0.147110	0.620403
N69	N	0.708384	0.093789	-0.106129
H70	H	0.672421	0.090946	-0.156541
H71	H	0.736042	0.137494	-0.107443
N72	N	0.836718	0.178257	0.666438
H73	H	0.800683	0.210078	0.704704
H74	H	0.868529	0.207579	0.632526
N75	N	0.147839	0.101356	0.239284
H76	H	0.166235	0.059345	0.273116
H77	H	0.154762	0.145908	0.273216
H78	H	0.925883	-0.108192	0.203429
H79	H	0.811372	0.200621	0.440284
H80	H	1.005902	0.028881	0.454227
N81	N	1.012712	0.022855	0.546332
H82	H	1.049250	0.048002	0.512759
H83	H	1.044548	-0.005285	0.589501
H84	H	0.437047	0.102195	0.164556
H85	H	0.682541	0.106819	0.185950
N86	N	0.409345	0.091859	-0.052066
H87	H	0.368979	0.134333	-0.058324
H88	H	0.450232	0.090381	-0.096925
N89	N	0.941077	-0.111739	-0.089417
H90	H	0.942955	-0.148004	-0.137115
H91	H	0.893034	-0.076116	-0.096155
N92	N	0.938552	-0.263120	-0.089605
H93	H	0.941563	-0.231147	-0.137221
H94	H	0.986931	-0.299040	-0.089419
H95	H	0.923700	-0.240321	0.203256
H96	H	0.918527	-0.552245	0.202872
N97	N	0.933703	-0.555786	-0.089973
H98	H	0.935575	-0.592049	-0.137672
H99	H	0.885663	-0.520159	-0.096707
H100	H	0.930315	-0.696642	-0.070269
H101	H	0.533835	0.104113	0.175282
N102	N	1.028708	0.008742	0.286165
H103	H	1.060590	-0.019404	0.329300
H104	H	1.000568	-0.023834	0.247985
H105	H	0.308409	0.103345	0.230845
N106	N	0.915145	-0.693092	0.222581
H107	H	0.914871	-0.745267	0.211104
H108	H	0.962384	-0.684441	0.258946
N109	N	0.163839	0.087255	-0.073452
H110	H	0.173265	0.129266	-0.105795
H111	H	0.186323	0.042762	-0.104778
N112	N	1.059598	-0.018495	0.682411
H113	H	1.091483	-0.046643	0.725543
H114	H	1.031458	-0.051071	0.644231
H115	H	1.036802	0.001648	0.850483
N116	N	0.827524	0.186426	0.847005
H117	H	0.795635	0.214573	0.803875
H118	H	0.791037	0.161234	0.880584
