data_functionalizedCrystal
_audit_creation_method	'MofGen! by Chris Wilmer'
_symmetry_space_group_name_H-M	'P1'
_symmetry_Int_Tables_number	1
_symmetry_cell_setting	triclinic
loop_
_symmetry_equiv_pos_as_xyz
  x,y,z
_cell_length_a	12.759399
_cell_length_b	18.215407
_cell_length_c	18.215399
_cell_angle_alpha	89.985195
_cell_angle_beta	89.972629
_cell_angle_gamma	90.009629
loop_
_atom_site_label
_atom_site_type_symbol
_atom_site_fract_x
_atom_site_fract_y
_atom_site_fract_z
Zn1	Zn	-0.418406	1.125100	-0.416091
Zn2	Zn	-0.594111	1.125036	-0.293032
Zn3	Zn	-0.418430	1.002039	-0.293043
Zn4	Zn	-0.594027	1.002019	-0.416061
O5	O	-0.506243	1.063549	-0.354557
O6	O	-0.441739	1.228076	-0.399775
O7	O	-0.570851	1.108701	-0.190049
O8	O	-0.271405	1.018398	-0.309383
O9	O	-0.570828	1.228029	-0.309364
O10	O	-0.271388	1.108811	-0.399786
O11	O	-0.441779	1.018336	-0.190057
O12	O	-0.441698	0.899052	-0.309354
O13	O	-0.570685	1.018365	-0.519049
O14	O	-0.570708	0.899038	-0.399734
O15	O	-0.441657	1.108792	-0.519072
O16	O	-0.741121	1.108682	-0.309334
O17	O	-0.741059	1.018303	-0.399723
C18	C	-0.506197	0.872342	-0.354542
C19	C	-0.506202	0.790543	-0.354554
C20	C	-0.439156	0.525505	-0.401709
C21	C	-0.439139	0.602364	-0.401707
C22	C	-0.573365	0.602334	-0.307420
C23	C	-0.573386	0.525476	-0.307427
C24	C	-0.506276	0.487064	-0.354570
C25	C	-0.506237	0.640780	-0.354561
C26	C	-0.506219	0.724114	-0.354559
C27	C	-0.506295	0.403725	-0.354574
C28	C	-0.779211	1.063504	-0.354540
C29	C	-0.895987	1.063552	-0.354557
C30	C	-0.950846	1.110666	-0.307545
C31	C	-1.060570	1.110713	-0.307570
C32	C	-1.060566	1.016525	-0.401621
C33	C	-0.950844	1.016482	-0.401599
C34	C	-1.210459	1.197581	-0.281381
C35	C	-1.265322	1.244688	-0.234357
C36	C	-1.229777	1.256018	-0.162552
C37	C	-1.139371	1.220228	-0.137755
C38	C	-1.084513	1.173115	-0.184775
C39	C	-1.120057	1.161800	-0.256591
C40	C	-0.800954	0.929614	-0.427781
C41	C	-0.746095	0.882496	-0.474797
C42	C	-0.781638	0.871160	-0.546604
C43	C	-0.872047	0.906936	-0.571398
C44	C	-0.926906	0.954054	-0.524382
C45	C	-0.891356	0.965392	-0.452576
C46	C	-0.232210	1.063614	-0.354590
C47	C	-0.115433	1.063642	-0.354604
C48	C	-0.506159	1.063583	-0.546510
C49	C	-0.506123	1.063598	-0.628309
C50	C	-0.506290	1.255502	-0.354572
C51	C	-0.506310	1.337300	-0.354578
C52	C	-0.438870	1.016585	-0.816508
C53	C	-0.438849	1.016598	-0.893367
C54	C	-0.573251	1.110700	-0.893347
C55	C	-0.573277	1.110683	-0.816490
C56	C	-0.506081	1.063626	-0.778072
C57	C	-0.506034	1.063656	-0.931788
C58	C	-0.506011	1.063670	-1.015122
C59	C	-0.506104	1.063611	-0.694733
C60	C	-0.506251	1.063556	-0.163351
C61	C	-0.505991	1.063684	-0.081552
H62	H	-0.628002	0.633618	-0.269037
H63	H	-0.384121	0.978291	-0.924658
F64	F	-1.361536	1.282777	-0.260750
F65	F	-0.644761	1.160779	-0.934240
H66	H	-1.274453	1.294375	-0.124265
H67	H	-0.628012	1.148991	-0.785195
F68	F	-1.101555	1.232281	-0.061325
H69	H	-0.384510	0.494232	-0.440096
H70	H	-1.239401	1.188368	-0.339853
H71	H	-0.628049	0.494177	-0.269040
F72	F	-0.892467	1.160762	-0.257480
F73	F	-1.118958	0.966432	-0.451682
H74	H	-0.900987	0.897706	-0.629870
H75	H	-1.010905	1.143977	-0.164586
F76	F	-0.367703	0.643272	-0.451881
F77	F	-1.023130	0.992131	-0.550772
F78	F	-0.723283	0.820976	-0.596628
H79	H	-0.384155	0.978268	-0.785231
F80	F	-0.649893	0.844399	-0.448399
H81	H	-0.772000	0.938847	-0.369311
