data_functionalizedCrystal
_audit_creation_method	'MofGen! by Chris Wilmer'
_symmetry_space_group_name_H-M	'P1'
_symmetry_Int_Tables_number	1
_symmetry_cell_setting	triclinic
loop_
_symmetry_equiv_pos_as_xyz
  x,y,z
_cell_length_a	17.640112
_cell_length_b	16.120531
_cell_length_c	17.640968
_cell_angle_alpha	82.190526
_cell_angle_beta	87.860920
_cell_angle_gamma	76.493345
loop_
_atom_site_label
_atom_site_type_symbol
_atom_site_fract_x
_atom_site_fract_y
_atom_site_fract_z
Zn1	Zn	1.246895	0.023861	0.196403
Zn2	Zn	1.214782	0.195194	0.078919
Zn3	Zn	1.092227	0.077881	0.098044
Zn4	Zn	1.113928	0.184262	0.230895
O5	O	1.166958	0.120299	0.151065
O6	O	1.349572	0.028556	0.158379
O7	O	1.176004	0.206814	-0.023310
O8	O	1.117102	-0.045510	0.104660
O9	O	1.325979	0.154433	0.072065
O10	O	1.230735	-0.085198	0.176924
O11	O	1.085963	0.120625	-0.009259
O12	O	0.988169	0.110025	0.138105
O13	O	1.154087	0.135802	0.331086
O14	O	1.004112	0.188183	0.235711
O15	O	1.251778	0.017956	0.305744
O16	O	1.197046	0.309968	0.105510
O17	O	1.122949	0.301937	0.217166
C18	C	0.968413	0.153780	0.192727
C19	C	0.883478	0.168119	0.210569
C20	C	0.562619	0.011354	0.015528
C21	C	0.482811	0.024841	0.032304
C22	C	0.499426	0.106416	0.133783
C23	C	0.579238	0.092932	0.117018
C24	C	0.610827	0.045401	0.057889
C25	C	0.627446	0.126979	0.159379
C26	C	0.707251	0.113500	0.142612
C27	C	0.738846	0.065973	0.083484
C28	C	0.690631	0.031921	0.041122
C29	C	0.595854	0.174515	0.218504
C30	C	0.644063	0.208563	0.260865
C31	C	0.723870	0.195078	0.244102
C32	C	0.755465	0.147551	0.184974
C33	C	0.772084	0.229130	0.286465
C34	C	0.851888	0.215650	0.269698
C35	C	0.835269	0.134072	0.168208
C36	C	1.158892	0.336080	0.163018
C37	C	1.155517	0.428374	0.168141
C38	C	1.149362	0.597351	0.177511
C39	C	1.184574	0.642413	0.124571
C40	C	1.181149	0.736438	0.129784
C41	C	1.152786	0.503318	0.172299
C42	C	1.366278	0.086688	0.109241
C43	C	1.451217	0.072365	0.091418
C44	C	1.208935	0.069634	0.346339
C45	C	1.226823	0.048044	0.429553
C46	C	1.175050	0.903676	0.139070
C47	C	1.178421	0.811385	0.133937
C48	C	1.125190	0.170700	-0.043462
C49	C	1.107459	0.192032	-0.126720
C50	C	1.031374	0.283819	0.769198
C51	C	1.048199	0.263518	0.847386
C52	C	1.149915	0.140815	0.820990
C53	C	1.133096	0.161103	0.742798
C54	C	1.073825	0.232606	0.716908
C55	C	1.175547	0.109891	0.690509
C56	C	1.158732	0.130180	0.612324
C57	C	1.099465	0.201682	0.586427
C58	C	1.057010	0.252896	0.638723
C59	C	1.234821	0.038391	0.716400
C60	C	1.277273	-0.012821	0.664111
C61	C	1.260454	0.007465	0.585924
C62	C	1.201187	0.078966	0.560028
C63	C	1.302910	-0.043749	0.533628
C64	C	1.286094	-0.023460	0.455443
C65	C	1.184372	0.099256	0.481842
H66	H	0.618331	0.247265	0.309006
N67	N	0.433567	-0.009957	-0.010958
N68	N	0.396691	-0.062169	0.021890
H69	H	0.361912	-0.086745	-0.008663
N70	N	0.467141	0.154969	0.194173
N71	N	0.395886	0.167002	0.209136
H72	H	0.373085	0.201292	0.251788
H73	H	1.217291	0.610376	0.075333
N74	N	1.108324	0.637546	0.239273
N75	N	1.105568	0.714978	0.243468
H76	H	1.076585	0.743376	0.287086
H77	H	0.803828	0.055001	0.069832
H78	H	1.136090	0.157464	0.460765
N79	N	1.082287	0.222393	0.506562
N80	N	1.061236	0.169353	0.471435
H81	H	1.049103	0.183978	0.415030
H82	H	0.530872	0.185489	0.232153
H83	H	0.746350	0.267836	0.334602
N84	N	0.901125	0.250440	0.312969
N85	N	0.872911	0.292876	0.365759
H86	H	0.907683	0.317452	0.396319
H87	H	1.008728	0.311104	0.617646
N88	N	0.970817	0.356852	0.742759
N89	N	0.932909	0.402567	0.789453
H90	H	0.890142	0.454144	0.770781
H91	H	1.013625	0.305226	0.889959
N92	N	1.210446	0.067776	0.847456
N93	N	1.194920	0.008070	0.893803
H94	H	1.237669	-0.043516	0.912495
H95	H	1.248512	0.021876	0.780064
H96	H	1.325533	-0.071037	0.685201
N97	N	1.363457	-0.116773	0.560091
N98	N	1.378469	-0.134873	0.629900
H99	H	1.421233	-0.186445	0.648589
N100	N	1.329453	-0.075786	0.402037
N101	N	1.329130	-0.153834	0.407590
H102	H	1.359754	-0.190790	0.369872
N103	N	0.867553	0.085495	0.107826
N104	N	0.862592	0.009054	0.110547
H105	H	0.885396	-0.025255	0.067907
N106	N	0.722916	-0.016656	-0.019260
N107	N	0.717954	-0.093096	-0.016539
H108	H	0.740758	-0.127405	-0.059179
N109	N	0.594885	-0.037221	-0.044861
N110	N	0.551838	-0.067632	-0.082671
H111	H	0.574627	-0.101940	-0.125316
