data_functionalizedCrystal
_audit_creation_method	'MofGen! by Chris Wilmer'
_symmetry_space_group_name_H-M	'P1'
_symmetry_Int_Tables_number	1
_symmetry_cell_setting	triclinic
loop_
_symmetry_equiv_pos_as_xyz
  x,y,z
_cell_length_a	14.044220
_cell_length_b	10.723024
_cell_length_c	9.198806
_cell_angle_alpha	89.997723
_cell_angle_beta	90.000907
_cell_angle_gamma	88.828374
loop_
_atom_site_label
_atom_site_type_symbol
_atom_site_fract_x
_atom_site_fract_y
_atom_site_fract_z
O1	O	-1.259664	-0.301050	0.120731
O2	O	-0.926330	0.032283	0.454064
O3	O	-0.592997	0.365617	0.787398
O4	O	-0.983624	-0.290187	0.120768
O5	O	-0.650291	0.043147	0.454101
O6	O	-0.316957	0.376480	0.787435
O7	O	-1.128011	-0.114679	0.120743
O8	O	-0.794678	0.218654	0.454077
O9	O	-0.461344	0.551987	0.787410
O10	O	-1.115277	-0.476558	0.120756
O11	O	-0.781943	-0.143224	0.454089
O12	O	-0.448610	0.190109	0.787422
O13	O	-1.128000	-0.114677	-0.121042
O14	O	-0.794666	0.218657	0.212292
O15	O	-0.461333	0.551990	0.545625
O16	O	-0.983612	-0.290184	-0.121017
O17	O	-0.650279	0.043149	0.212316
O18	O	-0.316946	0.376483	0.545650
O19	O	-1.259652	-0.301047	-0.121054
O20	O	-0.926319	0.032286	0.212279
O21	O	-0.592986	0.365619	0.545613
Cu22	Cu	-1.121631	-0.295615	-0.143112
Cu23	Cu	-0.788298	0.037718	0.190221
Cu24	Cu	-0.454965	0.371051	0.523554
Cu25	Cu	-1.121645	-0.295619	0.142826
Cu26	Cu	-0.788312	0.037715	0.476160
Cu27	Cu	-0.454978	0.371048	0.809493
O28	O	-1.115265	-0.476555	-0.121029
O29	O	-0.781932	-0.143222	0.212304
O30	O	-0.448598	0.190112	0.545637
C31	C	-0.948273	-0.285430	-0.000120
C32	C	-0.614939	0.047903	0.333214
C33	C	-0.281606	0.381237	0.666547
C34	C	-0.842955	-0.271245	-0.000106
C35	C	-0.509621	0.062088	0.333228
C36	C	-0.176288	0.395421	0.666561
C37	C	-1.127079	-0.068086	-0.000147
C38	C	-0.793745	0.265248	0.333186
C39	C	-0.460412	0.598581	0.666519
C40	C	-1.124306	0.070746	-0.000142
C41	C	-0.790973	0.404079	0.333191
C42	C	-0.457639	0.737413	0.666525
C43	C	-1.295003	-0.305804	-0.000163
C44	C	-0.961670	0.027529	0.333170
C45	C	-0.628337	0.360863	0.666504
C46	C	-1.400321	-0.319989	-0.000168
C47	C	-1.066988	0.013345	0.333166
C48	C	-0.733655	0.346678	0.666499
C49	C	-0.650125	-0.245313	-0.000135
C50	C	-0.316791	0.088020	0.333198
C51	C	0.016542	0.421353	0.666531
C52	C	-0.593146	-0.345915	-0.000138
C53	C	-0.259812	-0.012582	0.333195
C54	C	0.073521	0.320752	0.666529
C55	C	-0.485848	-0.331486	-0.000155
C56	C	-0.152515	0.001847	0.333179
C57	C	0.180818	0.335181	0.666512
C58	C	-0.757432	-0.259740	-0.000119
C59	C	-0.424099	0.073593	0.333215
C60	C	-0.090765	0.406926	0.666548
C61	C	-1.116197	-0.523149	-0.000135
C62	C	-0.782864	-0.189815	0.333198
C63	C	-0.449531	0.143518	0.666531
C64	C	-1.118970	-0.661980	-0.000131
C65	C	-0.785637	-0.328647	0.333202
C66	C	-0.452304	0.004687	0.666535
N67	N	-1.121629	-0.295613	-0.344226
N68	N	-0.788295	0.037720	-0.010893
N69	N	-0.454962	0.371053	0.322440
C70	C	-1.205097	0.137646	-0.000151
C71	C	-0.871764	0.470979	0.333183
C72	C	-0.538431	0.804313	0.666516
C73	C	-1.202234	0.281136	-0.000145
C74	C	-0.868900	0.614469	0.333188
C75	C	-0.535567	0.947802	0.666522
C76	C	-1.176939	-0.373508	-0.416430
C77	C	-0.843605	-0.040175	-0.083096
C78	C	-0.510272	0.293159	0.250237
C79	C	-1.176953	-0.373508	-0.583842
C80	C	-0.843620	-0.040175	-0.250508
C81	C	-0.510287	0.293159	0.082825
N82	N	-1.121655	-0.295612	0.343940
N83	N	-0.788322	0.037722	0.677274
N84	N	-0.454988	0.371055	1.010607
H85	H	-0.624947	-0.442880	-0.000128
H86	H	-0.291614	-0.109546	0.333206
H87	H	0.041719	0.223787	0.666539
Br88	Br	-1.323924	0.056066	-0.000152
Br89	Br	-0.990591	0.389399	0.333182
Br90	Br	-0.657257	0.722732	0.666515
Br91	Br	-1.317519	0.376986	-0.000175
Br92	Br	-0.984186	0.710319	0.333158
Br93	Br	-0.650852	1.043653	0.666492
Br94	Br	-0.597123	-0.083708	-0.000148
Br95	Br	-0.263790	0.249626	0.333185
Br96	Br	0.069544	0.582959	0.666518
H97	H	-1.049803	0.280515	-0.000134
H98	H	-0.716469	0.613848	0.333200
H99	H	-0.383136	0.947181	0.666533
H100	H	-1.053017	0.119700	-0.000123
H101	H	-0.719684	0.453034	0.333210
H102	H	-0.386351	0.786367	0.666544
H103	H	-1.224285	-0.440192	-0.354305
H104	H	-0.890951	-0.106858	-0.020972
H105	H	-0.557618	0.226475	0.312362
Br106	Br	-1.255875	-0.484678	-0.687324
Br107	Br	-0.922541	-0.151344	-0.353990
Br108	Br	-0.589208	0.181989	-0.020657
H109	H	-1.074295	-0.228925	-0.593976
H110	H	-0.740962	0.104408	-0.260643
H111	H	-0.407628	0.437741	0.072691
H112	H	-1.074289	-0.228922	-0.406351
H113	H	-0.740956	0.104412	-0.073017
H114	H	-0.407622	0.437745	0.260316
