data_functionalizedCrystal
_audit_creation_method	'MofGen! by Chris Wilmer'
_symmetry_space_group_name_H-M	'P1'
_symmetry_Int_Tables_number	1
_symmetry_cell_setting	triclinic
loop_
_symmetry_equiv_pos_as_xyz
  x,y,z
_cell_length_a	18.215407
_cell_length_b	12.759400
_cell_length_c	18.215399
_cell_angle_alpha	89.973045
_cell_angle_beta	89.983176
_cell_angle_gamma	90.015132
loop_
_atom_site_label
_atom_site_type_symbol
_atom_site_fract_x
_atom_site_fract_y
_atom_site_fract_z
Zn1	Zn	1.125102	-0.418240	-0.416133
Zn2	Zn	1.125039	-0.593944	-0.293074
Zn3	Zn	1.002041	-0.418281	-0.293081
Zn4	Zn	1.002023	-0.593878	-0.416099
O5	O	1.063551	-0.506086	-0.354597
O6	O	1.228078	-0.441557	-0.399821
O7	O	1.108704	-0.570687	-0.190091
O8	O	1.018400	-0.271255	-0.309421
O9	O	1.228032	-0.570647	-0.309410
O10	O	1.108812	-0.271224	-0.399827
O11	O	1.018339	-0.441628	-0.190096
O12	O	0.899055	-0.441565	-0.309388
O13	O	1.018368	-0.570534	-0.519088
O14	O	0.899041	-0.570575	-0.399769
O15	O	1.108794	-0.441493	-0.519113
O16	O	1.108686	-0.740957	-0.309377
O17	O	1.018307	-0.740908	-0.399763
C18	C	0.872345	-0.506068	-0.354576
C19	C	0.790546	-0.506086	-0.354584
C20	C	0.602364	-0.573367	-0.401587
C21	C	0.525506	-0.573370	-0.401596
C22	C	0.525490	-0.438824	-0.307623
C23	C	0.602348	-0.438816	-0.307618
C24	C	0.640783	-0.506094	-0.354599
C25	C	0.487067	-0.506105	-0.354613
C26	C	0.403733	-0.506108	-0.354623
C27	C	0.724122	-0.506089	-0.354590
C28	C	1.063508	-0.779053	-0.354582
C29	C	1.063556	-0.895830	-0.354600
C30	C	1.110669	-0.950682	-0.307588
C31	C	1.110714	-1.060406	-0.307610
C32	C	1.016527	-1.060416	-0.401659
C33	C	1.016487	-0.950694	-0.401639
C34	C	1.157739	-0.895818	-0.260548
C35	C	1.204855	-0.950671	-0.213532
C36	C	1.204900	-1.060395	-0.213554
C37	C	1.157829	-1.115266	-0.260593
C38	C	1.255504	-0.506105	-0.354618
C39	C	1.337303	-0.506113	-0.354628
C40	C	1.063586	-0.506002	-0.546550
C41	C	1.063601	-0.505966	-0.628349
C42	C	1.063615	-0.232053	-0.354628
C43	C	1.063642	-0.115276	-0.354642
C44	C	1.016587	-0.438720	-0.816546
C45	C	1.016600	-0.438699	-0.893405
C46	C	1.110703	-0.573087	-0.893389
C47	C	1.110686	-0.573113	-0.816532
C48	C	1.063629	-0.505923	-0.778112
C49	C	1.063659	-0.505876	-0.931829
C50	C	1.063673	-0.505854	-1.015162
C51	C	1.063614	-0.505947	-0.694773
C52	C	1.063559	-0.506094	-0.163391
C53	C	1.063687	-0.505833	-0.081592
H54	H	0.494229	-0.628149	-0.439859
O55	O	0.970803	-0.373430	-0.779338
C56	C	0.877491	-0.240100	-0.787470
C57	C	0.929296	-0.314002	-0.829695
H58	H	0.843930	-0.192017	-0.828165
H59	H	0.838944	-0.288299	-0.751497
H60	H	0.911290	-0.185220	-0.751478
H61	H	0.895557	-0.368897	-0.865727
H62	H	0.967845	-0.265737	-0.865621
O63	O	0.488039	-0.373575	-0.262011
C64	C	0.369630	-0.313905	-0.220406
C65	C	0.411949	-0.387872	-0.272087
H66	H	0.308104	-0.325423	-0.228546
H67	H	0.384662	-0.332247	-0.161025
H68	H	0.384803	-0.229223	-0.233424
H69	H	0.396799	-0.472579	-0.259136
H70	H	0.396913	-0.369440	-0.331454
H71	H	0.633629	-0.384028	-0.269355
O72	O	0.970657	-0.897566	-0.447334
C73	C	0.877285	-0.909145	-0.540664
C74	C	0.929131	-0.969443	-0.488933
H75	H	0.843709	-0.967231	-0.574322
H76	H	0.838755	-0.857875	-0.506876
H77	H	0.911053	-0.857676	-0.579130
H78	H	0.895422	-1.020968	-0.450457
H79	H	0.967663	-1.020646	-0.522767
O80	O	0.639587	-0.638743	-0.447296
C81	C	0.631486	-0.772230	-0.540480
C82	C	0.589244	-0.698230	-0.488760
H83	H	0.590802	-0.820361	-0.574005
H84	H	0.667469	-0.724106	-0.579063
H85	H	0.667470	-0.827062	-0.506617
H86	H	0.553220	-0.643384	-0.522563
H87	H	0.553308	-0.746420	-0.450174
H88	H	0.978204	-1.105101	-0.439955
O89	O	0.970822	-0.373568	-0.930769
C90	C	0.871503	-0.359405	-1.017559
C91	C	0.923294	-0.433284	-0.975280
H92	H	0.833074	-0.407654	-1.053568
H93	H	0.837816	-0.311414	-0.976925
H94	H	0.905319	-0.304436	-1.053526
H95	H	0.889535	-0.488316	-0.939312
H96	H	0.956984	-0.481201	-1.015953
H97	H	1.157705	-0.806475	-0.260522
H98	H	1.243183	-0.905988	-0.175238
H99	H	1.243270	-1.105053	-0.175277
O100	O	1.157946	-1.221853	-0.260504
C101	C	1.209727	-1.379304	-0.208970
C102	C	1.209658	-1.258599	-0.208987
H103	H	1.251542	-1.409050	-0.167335
H104	H	1.152780	-1.409238	-0.193611
H105	H	1.224942	-1.408983	-0.266001
H106	H	1.194475	-1.228831	-0.151974
H107	H	1.266612	-1.228736	-0.224388
O108	O	1.156391	-0.638248	-0.930825
C109	C	1.198092	-0.697813	-1.049221
C110	C	1.146323	-0.623948	-1.006919
H111	H	1.189960	-0.686293	-1.110750
H112	H	1.257451	-0.679371	-1.034171
H113	H	1.185155	-0.782522	-1.034051
H114	H	1.159195	-0.539215	-1.022067
H115	H	1.086981	-0.642481	-1.021973
H116	H	1.148995	-0.627842	-0.785238
