data_functionalizedCrystal
_audit_creation_method	'MofGen! by Chris Wilmer'
_symmetry_space_group_name_H-M	'P1'
_symmetry_Int_Tables_number	1
_symmetry_cell_setting	triclinic
loop_
_symmetry_equiv_pos_as_xyz
  x,y,z
_cell_length_a	23.532409
_cell_length_b	19.188930
_cell_length_c	17.666332
_cell_angle_alpha	89.976766
_cell_angle_beta	89.996569
_cell_angle_gamma	82.997171
loop_
_atom_site_label
_atom_site_type_symbol
_atom_site_fract_x
_atom_site_fract_y
_atom_site_fract_z
O1	O	0.071102	0.925923	-0.063187
O2	O	0.321102	1.175923	0.186813
O3	O	0.571102	1.425923	0.436813
O4	O	0.821102	1.675923	0.686813
O5	O	0.080673	0.722582	-0.063134
O6	O	0.330673	0.972582	0.186866
O7	O	0.580673	1.222582	0.436866
O8	O	0.830673	1.472582	0.686866
O9	O	-0.007031	0.830383	-0.063163
O10	O	0.242969	1.080383	0.186837
O11	O	0.492969	1.330383	0.436837
O12	O	0.742969	1.580383	0.686837
O13	O	0.158806	0.818121	-0.063158
O14	O	0.408806	1.068121	0.186842
O15	O	0.658806	1.318121	0.436842
O16	O	0.908806	1.568121	0.686842
O17	O	-0.007036	0.830365	0.062734
O18	O	0.242964	1.080365	0.312734
O19	O	0.492964	1.330365	0.562734
O20	O	0.742964	1.580365	0.812734
O21	O	0.080669	0.722563	0.062763
O22	O	0.330669	0.972563	0.312763
O23	O	0.580669	1.222563	0.562763
O24	O	0.830669	1.472563	0.812763
O25	O	0.071097	0.925905	0.062710
O26	O	0.321097	1.175905	0.312710
O27	O	0.571097	1.425905	0.562710
O28	O	0.821097	1.675905	0.812710
Cu29	Cu	0.075883	0.824232	0.074232
Cu30	Cu	0.325883	1.074232	0.324232
Cu31	Cu	0.575883	1.324232	0.574232
Cu32	Cu	0.825883	1.574232	0.824232
Cu33	Cu	0.075888	0.824254	-0.074656
Cu34	Cu	0.325888	1.074254	0.175344
Cu35	Cu	0.575888	1.324254	0.425344
Cu36	Cu	0.825888	1.574254	0.675344
O37	O	0.158802	0.818103	0.062739
O38	O	0.408802	1.068103	0.312739
O39	O	0.658802	1.318103	0.562739
O40	O	0.908802	1.568103	0.812739
C41	C	0.080361	0.696562	-0.000179
C42	C	0.330361	0.946562	0.249821
C43	C	0.580361	1.196562	0.499821
C44	C	0.830361	1.446562	0.749821
C45	C	0.079431	0.619061	-0.000159
C46	C	0.329431	0.869061	0.249841
C47	C	0.579431	1.119061	0.499841
C48	C	0.829431	1.369061	0.749841
C49	C	-0.028250	0.830062	-0.000216
C50	C	0.221750	1.080062	0.249784
C51	C	0.471750	1.330062	0.499784
C52	C	0.721750	1.580062	0.749784
C53	C	-0.091469	0.829122	-0.000221
C54	C	0.158531	1.079122	0.249779
C55	C	0.408531	1.329122	0.499779
C56	C	0.658531	1.579122	0.749779
C57	C	0.130893	0.573973	-0.000169
C58	C	0.380893	0.823973	0.249831
C59	C	0.630893	1.073973	0.499831
C60	C	0.880893	1.323973	0.749831
C61	C	0.130019	0.501152	-0.000178
C62	C	0.380019	0.751152	0.249822
C63	C	0.630019	1.001152	0.499822
C64	C	0.880019	1.251152	0.749822
C65	C	0.077679	0.473422	-0.000191
C66	C	0.327679	0.723422	0.249809
C67	C	0.577679	0.973422	0.499809
C68	C	0.827679	1.223422	0.749809
C69	C	0.026211	0.518519	-0.000176
C70	C	0.276211	0.768519	0.249824
C71	C	0.526211	1.018519	0.499824
C72	C	0.776211	1.268519	0.749824
C73	C	0.027086	0.591339	-0.000160
C74	C	0.277086	0.841339	0.249840
C75	C	0.527086	1.091339	0.499840
C76	C	0.777086	1.341339	0.749840
N77	N	0.037674	0.365575	-0.043071
N78	N	0.287674	0.615575	0.206929
N79	N	0.537674	0.865575	0.456929
N80	N	0.787674	1.115575	0.706929
N81	N	0.036846	0.296399	-0.043088
N82	N	0.286846	0.546399	0.206912
N83	N	0.536846	0.796399	0.456912
N84	N	0.786846	1.046399	0.706912
C85	C	0.075038	0.254022	-0.000237
C86	C	0.325038	0.504022	0.249763
C87	C	0.575038	0.754022	0.499763
C88	C	0.825038	1.004022	0.749763
N89	N	0.114099	0.283432	0.042621
N90	N	0.364099	0.533432	0.292621
N91	N	0.614099	0.783432	0.542621
N92	N	0.864099	1.033432	0.792621
N93	N	0.114928	0.352614	0.042634
N94	N	0.364928	0.602614	0.292634
N95	N	0.614928	0.852614	0.542634
N96	N	0.864928	1.102614	0.792634
C97	C	0.076724	0.394462	-0.000208
C98	C	0.326724	0.644462	0.249792
C99	C	0.576724	0.894462	0.499792
C100	C	0.826724	1.144462	0.749792
C101	C	0.125556	0.129973	-0.000256
C102	C	0.375556	0.379973	0.249744
C103	C	0.625556	0.629973	0.499744
C104	C	0.875556	0.879973	0.749744
C105	C	0.124680	0.057151	-0.000259
C106	C	0.374680	0.307151	0.249741
C107	C	0.624680	0.557151	0.499741
C108	C	0.874680	0.807151	0.749741
C109	C	0.020870	0.074520	-0.000266
C110	C	0.270870	0.324520	0.249734
C111	C	0.520870	0.574520	0.499734
C112	C	0.770870	0.824520	0.749734
C113	C	0.021748	0.147340	-0.000254
C114	C	0.271748	0.397340	0.249746
C115	C	0.521748	0.647340	0.499746
C116	C	0.771748	0.897340	0.749746
C117	C	0.074092	0.175062	-0.000253
C118	C	0.324092	0.425062	0.249747
C119	C	0.574092	0.675062	0.499747
C120	C	0.824092	0.925062	0.749747
C121	C	-0.364720	0.825137	-0.068850
C122	C	-0.114720	1.075137	0.181150
C123	C	0.135280	1.325137	0.431150
C124	C	0.385280	1.575137	0.681150
C125	C	-0.305318	0.826009	-0.068850
C126	C	-0.055318	1.076009	0.181150
C127	C	0.194682	1.326009	0.431150
C128	C	0.444682	1.576009	0.681150
O129	O	-0.274590	0.826494	-0.127212
O130	O	-0.024590	1.076494	0.122788
O131	O	0.225410	1.326494	0.372788
O132	O	0.475410	1.576494	0.622788
N133	N	-0.275617	0.826431	-0.000223
N134	N	-0.025617	1.076431	0.249777
N135	N	0.224383	1.326431	0.499777
N136	N	0.474383	1.576431	0.749777
C137	C	-0.305323	0.825987	0.068409
C138	C	-0.055323	1.075987	0.318409
C139	C	0.194677	1.325987	0.568409
C140	C	0.444677	1.575987	0.818409
O141	O	-0.274606	0.826427	0.126782
O142	O	-0.024606	1.076427	0.376782
O143	O	0.225394	1.326427	0.626782
O144	O	0.475394	1.576427	0.876782
C145	C	-0.364724	0.825120	0.068409
C146	C	-0.114724	1.075120	0.318409
C147	C	0.135276	1.325120	0.568409
C148	C	0.385276	1.575120	0.818409
C149	C	-0.394421	0.824691	-0.000223
C150	C	-0.144421	1.074691	0.249777
C151	C	0.105579	1.324691	0.499777
C152	C	0.355579	1.574691	0.749777
C153	C	-0.394417	0.824709	-0.137476
C154	C	-0.144417	1.074709	0.112524
C155	C	0.105583	1.324709	0.362524
C156	C	0.355583	1.574709	0.612524
C157	C	-0.453815	0.823835	-0.137476
C158	C	-0.203815	1.073835	0.112524
C159	C	0.046185	1.323835	0.362524
C160	C	0.296185	1.573835	0.612524
C161	C	-0.483516	0.823390	-0.068849
C162	C	-0.233516	1.073390	0.181151
C163	C	0.016484	1.323390	0.431151
C164	C	0.266484	1.573390	0.681151
C165	C	-0.453819	0.823817	-0.000222
C166	C	-0.203819	1.073817	0.249778
C167	C	0.046181	1.323817	0.499778
C168	C	0.296181	1.573817	0.749778
C169	C	-0.394429	0.824681	0.137040
C170	C	-0.144429	1.074681	0.387040
C171	C	0.105571	1.324681	0.637040
C172	C	0.355571	1.574681	0.887040
C173	C	-0.453835	0.823814	0.137034
C174	C	-0.203835	1.073814	0.387034
C175	C	0.046165	1.323814	0.637034
C176	C	0.296165	1.573814	0.887034
C177	C	-0.483531	0.823385	0.068402
C178	C	-0.233531	1.073385	0.318402
C179	C	0.016469	1.323385	0.568402
C180	C	0.266469	1.573385	0.818402
C181	C	-0.542918	0.822498	0.068405
C182	C	-0.292918	1.072498	0.318405
C183	C	-0.042918	1.322498	0.568405
C184	C	0.207082	1.572498	0.818405
N185	N	-0.572618	0.822076	-0.000222
N186	N	-0.322618	1.072076	0.249778
N187	N	-0.072618	1.322076	0.499778
N188	N	0.177382	1.572076	0.749778
C189	C	-0.542917	0.822522	-0.068849
C190	C	-0.292917	1.072522	0.181151
C191	C	-0.042917	1.322522	0.431151
C192	C	0.207083	1.572522	0.681151
C193	C	-0.180576	0.827810	0.068405
C194	C	0.069424	1.077810	0.318405
C195	C	0.319424	1.327810	0.568405
C196	C	0.569424	1.577810	0.818405
C197	C	-0.121175	0.828672	0.068406
C198	C	0.128825	1.078672	0.318406
C199	C	0.378825	1.328672	0.568406
C200	C	0.628825	1.578672	0.818406
C201	C	-0.121174	0.828696	-0.068854
C202	C	0.128826	1.078696	0.181146
C203	C	0.378826	1.328696	0.431146
C204	C	0.628826	1.578696	0.681146
C205	C	-0.180576	0.827829	-0.068854
C206	C	0.069424	1.077829	0.181146
C207	C	0.319424	1.327829	0.431146
C208	C	0.569424	1.577829	0.681146
C209	C	-0.210276	0.827389	-0.000223
C210	C	0.039724	1.077389	0.249777
C211	C	0.289724	1.327389	0.499777
C212	C	0.539724	1.577389	0.749777
C213	C	-0.667657	0.820687	-0.068843
C214	C	-0.417657	1.070687	0.181157
C215	C	-0.167657	1.320687	0.431157
C216	C	0.082343	1.570687	0.681157
C217	C	-0.727059	0.819810	-0.068836
C218	C	-0.477059	1.069810	0.181164
C219	C	-0.227059	1.319810	0.431164
C220	C	0.022941	1.569810	0.681164
C221	C	-0.727055	0.819790	0.068424
C222	C	-0.477055	1.069790	0.318424
C223	C	-0.227055	1.319790	0.568424
C224	C	0.022945	1.569790	0.818424
C225	C	-0.667657	0.820663	0.068417
C226	C	-0.417657	1.070663	0.318417
C227	C	-0.167657	1.320663	0.568417
C228	C	0.082343	1.570663	0.818417
C229	C	-0.637960	0.821114	-0.000222
C230	C	-0.387960	1.071114	0.249778
C231	C	-0.137960	1.321114	0.499778
C232	C	0.112040	1.571114	0.749778
O233	O	-0.573683	0.822016	0.126737
O234	O	-0.323683	1.072016	0.376737
O235	O	-0.073683	1.322016	0.626737
O236	O	0.176317	1.572016	0.876737
O237	O	-0.573642	0.822092	-0.127212
O238	O	-0.323642	1.072092	0.122788
O239	O	-0.073642	1.322092	0.372788
O240	O	0.176358	1.572092	0.622788
C241	C	0.180021	0.818425	-0.000209
C242	C	0.430021	1.068425	0.249791
C243	C	0.680021	1.318425	0.499791
C244	C	0.930021	1.568425	0.749791
C245	C	0.243240	0.819364	-0.000209
C246	C	0.493240	1.069364	0.249791
C247	C	0.743240	1.319364	0.499791
C248	C	0.993240	1.569364	0.749791
C249	C	0.071410	0.951924	-0.000246
C250	C	0.321410	1.201924	0.249754
C251	C	0.571410	1.451924	0.499754
C252	C	0.821410	1.701924	0.749754
C253	C	0.072340	1.029426	-0.000271
C254	C	0.322340	1.279426	0.249729
C255	C	0.572340	1.529426	0.499729
C256	C	0.822340	1.779426	0.749729
N257	N	0.075878	0.824221	0.178951
N258	N	0.325878	1.074221	0.428951
N259	N	0.575878	1.324221	0.678951
N260	N	0.825878	1.574221	0.928951
N261	N	0.075888	0.824270	-0.179375
N262	N	0.325888	1.074270	0.070625
N263	N	0.575888	1.324270	0.320625
N264	N	0.825888	1.574270	0.570625
C265	C	0.037062	0.871971	0.218548
C266	C	0.287062	1.121971	0.468548
C267	C	0.537062	1.371971	0.718548
C268	C	0.787062	1.621971	0.968548
C269	C	0.037059	0.871975	0.297796
C270	C	0.287059	1.121975	0.547796
C271	C	0.537059	1.371975	0.797796
C272	C	0.787059	1.621975	1.047796
C273	C	0.075883	0.824236	0.337444
C274	C	0.325883	1.074236	0.587444
C275	C	0.575883	1.324236	0.837444
C276	C	0.825883	1.574236	1.087444
C277	C	0.114702	0.776477	0.297837
C278	C	0.364702	1.026477	0.547837
C279	C	0.614702	1.276477	0.797837
C280	C	0.864702	1.526477	1.047837
C281	C	0.114700	0.776470	0.218591
C282	C	0.364700	1.026470	0.468591
C283	C	0.614700	1.276470	0.718591
C284	C	0.864700	1.526470	0.968591
N285	N	0.126298	0.815000	0.461865
N286	N	0.376298	1.065000	0.711865
N287	N	0.626298	1.315000	0.961865
N288	N	0.876298	1.565000	1.211865
N289	N	0.126298	0.815011	0.537146
N290	N	0.376298	1.065011	0.787146
N291	N	0.626298	1.315011	1.037146
N292	N	0.876298	1.565011	1.287146
C293	C	0.075891	0.824255	0.576208
C294	C	0.325891	1.074255	0.826208
C295	C	0.575891	1.324255	1.076208
C296	C	0.825891	1.574255	1.326208
N297	N	0.025481	0.833501	0.537145
N298	N	0.275481	1.083501	0.787145
N299	N	0.525481	1.333501	1.037145
N300	N	0.775481	1.583501	1.287145
N301	N	0.025482	0.833493	0.461858
N302	N	0.275482	1.083493	0.711858
N303	N	0.525482	1.333493	0.961858
N304	N	0.775482	1.583493	1.211858
C305	C	0.075889	0.824239	0.423373
C306	C	0.325889	1.074239	0.673373
C307	C	0.575889	1.324239	0.923373
C308	C	0.825889	1.574239	1.173373
C309	C	0.037068	0.872012	0.701734
C310	C	0.287068	1.122012	0.951734
C311	C	0.537068	1.372012	1.201734
C312	C	0.787068	1.622012	1.451734
C313	C	0.037064	0.872011	0.780983
C314	C	0.287064	1.122011	1.030983
C315	C	0.537064	1.372011	1.280983
C316	C	0.787064	1.622011	1.530983
C317	C	0.114712	0.776516	0.781022
C318	C	0.364712	1.026516	1.031022
C319	C	0.614712	1.276516	1.281022
C320	C	0.864712	1.526516	1.531022
C321	C	0.114711	0.776513	0.701775
C322	C	0.364711	1.026513	0.951775
C323	C	0.614711	1.276513	1.201775
C324	C	0.864711	1.526513	1.451775
C325	C	0.075889	0.824265	0.662135
C326	C	0.325889	1.074265	0.912135
C327	C	0.575889	1.324265	1.162135
C328	C	0.825889	1.574265	1.412135
H329	H	0.173515	0.596539	-0.000170
H330	H	0.423515	0.846539	0.249830
H331	H	0.673515	1.096539	0.499830
H332	H	0.923515	1.346539	0.749830
H333	H	0.005452	0.910892	0.813223
H334	H	0.255452	1.160892	1.063223
H335	H	0.505452	1.410892	1.313223
H336	H	0.755452	1.660892	1.563223
H337	H	0.171926	0.464434	-0.000184
H338	H	0.421926	0.714434	0.249816
H339	H	0.671926	0.964434	0.499816
H340	H	0.921926	1.214434	0.749816
Cl341	Cl	-0.083823	0.829242	-0.155129
Cl342	Cl	0.166177	1.079242	0.094871
Cl343	Cl	0.416177	1.329242	0.344871
Cl344	Cl	0.666177	1.579242	0.594871
H345	H	0.146312	0.737606	0.330122
H346	H	0.396312	0.987606	0.580122
H347	H	0.646312	1.237606	0.830122
H348	H	0.896312	1.487606	1.080122
H349	H	-0.751248	0.819424	0.124298
H350	H	-0.501248	1.069424	0.374298
H351	H	-0.251248	1.319424	0.624298
H352	H	-0.001248	1.569424	0.874298
Cl353	Cl	0.191359	0.164826	-0.000246
Cl354	Cl	0.441359	0.414826	0.249754
Cl355	Cl	0.691359	0.664826	0.499754
Cl356	Cl	0.941359	0.914826	0.749754
H357	H	-0.204754	0.827446	0.124296
H358	H	0.045246	1.077446	0.374296
H359	H	0.295246	1.327446	0.624296
H360	H	0.545246	1.577446	0.874296
Cl361	Cl	-0.357110	0.825212	0.223326
Cl362	Cl	-0.107110	1.075212	0.473326
Cl363	Cl	0.142890	1.325212	0.723326
Cl364	Cl	0.392890	1.575212	0.973326
H365	H	-0.020158	0.184052	-0.000250
H366	H	0.229842	0.434052	0.249750
H367	H	0.479842	0.684052	0.499750
H368	H	0.729842	0.934052	0.749750
H369	H	0.166588	0.020440	-0.000263
H370	H	0.416588	0.270440	0.249737
H371	H	0.666588	0.520440	0.499737
H372	H	0.916588	0.770440	0.749737
Cl373	Cl	-0.011744	0.931997	0.168716
Cl374	Cl	0.238256	1.181997	0.418716
Cl375	Cl	0.488256	1.431997	0.668716
Cl376	Cl	0.738256	1.681997	0.918716
Cl377	Cl	-0.357089	0.825269	-0.223762
Cl378	Cl	-0.107089	1.075269	0.026238
Cl379	Cl	0.142911	1.325269	0.276238
Cl380	Cl	0.392911	1.575269	0.526238
H381	H	-0.478014	0.823456	0.192923
H382	H	-0.228014	1.073456	0.442923
H383	H	0.021986	1.323456	0.692923
H384	H	0.271986	1.573456	0.942923
Cl385	Cl	0.163515	0.716496	0.830860
Cl386	Cl	0.413515	0.966496	1.080860
Cl387	Cl	0.663515	1.216496	1.330860
Cl388	Cl	0.913515	1.466496	1.580860
H389	H	0.005449	0.910860	0.330042
H390	H	0.255449	1.160860	0.580042
H391	H	0.505449	1.410860	0.830042
H392	H	0.755449	1.660860	1.080042
H393	H	-0.096999	0.829008	0.124293
H394	H	0.153001	1.079008	0.374293
H395	H	0.403001	1.329008	0.624293
H396	H	0.653001	1.579008	0.874293
H397	H	-0.643484	0.821054	-0.124735
H398	H	-0.393484	1.071054	0.125265
H399	H	-0.143484	1.321054	0.375265
H400	H	0.106516	1.571054	0.625265
Cl401	Cl	-0.491140	0.823305	-0.223761
Cl402	Cl	-0.241140	1.073305	0.026239
Cl403	Cl	0.008860	1.323305	0.276239
Cl404	Cl	0.258860	1.573305	0.526239
H405	H	-0.204751	0.827478	-0.124740
H406	H	0.045249	1.077478	0.125260
H407	H	0.295249	1.327478	0.375260
H408	H	0.545249	1.577478	0.625260
Cl409	Cl	-0.630323	0.821201	0.154698
Cl410	Cl	-0.380323	1.071201	0.404698
Cl411	Cl	-0.130323	1.321201	0.654698
Cl412	Cl	0.119677	1.571201	0.904698
H413	H	-0.751236	0.819458	-0.124727
H414	H	-0.501236	1.069458	0.125273
H415	H	-0.251236	1.319458	0.375273
H416	H	-0.001236	1.569458	0.625273
H417	H	-0.021745	0.051943	-0.000323
H418	H	0.228255	0.301943	0.249677
H419	H	0.478255	0.551943	0.499677
H420	H	0.728255	0.801943	0.749677
H421	H	0.146310	0.737585	0.186350
H422	H	0.396310	0.987585	0.436350
H423	H	0.646310	1.237585	0.686350
H424	H	0.896310	1.487585	0.936350
H425	H	-0.016404	0.495937	-0.000198
H426	H	0.233596	0.745937	0.249802
H427	H	0.483596	0.995937	0.499802
H428	H	0.733596	1.245937	0.749802
Cl429	Cl	-0.037614	0.648024	-0.000148
Cl430	Cl	0.212386	0.898024	0.249852
Cl431	Cl	0.462386	1.148024	0.499852
Cl432	Cl	0.712386	1.398024	0.749852
Cl433	Cl	-0.011739	0.932038	0.651900
Cl434	Cl	0.238261	1.182038	0.901900
Cl435	Cl	0.488261	1.432038	1.151900
Cl436	Cl	0.738261	1.682038	1.401900
Cl437	Cl	0.163514	0.716486	0.651991
Cl438	Cl	0.413514	0.966486	0.901991
Cl439	Cl	0.663514	1.216486	1.151991
Cl440	Cl	0.913514	1.466486	1.401991
