data_functionalizedCrystal
_audit_creation_method	'MofGen! by Chris Wilmer'
_symmetry_space_group_name_H-M	'P1'
_symmetry_Int_Tables_number	1
_symmetry_cell_setting	triclinic
loop_
_symmetry_equiv_pos_as_xyz
  x,y,z
_cell_length_a	10.654562
_cell_length_b	14.044190
_cell_length_c	9.130313
_cell_angle_alpha	89.993628
_cell_angle_beta	89.996930
_cell_angle_gamma	88.840940
loop_
_atom_site_label
_atom_site_type_symbol
_atom_site_fract_x
_atom_site_fract_y
_atom_site_fract_z
O1	O	1.681223	0.133285	-0.121915
O2	O	1.317021	0.145966	-0.121899
O3	O	1.493651	0.001605	-0.121878
O4	O	1.504593	0.277647	-0.121936
O5	O	1.493649	0.001609	0.121721
O6	O	1.317019	0.145970	0.121700
O7	O	1.681221	0.133289	0.121684
Cu8	Cu	1.499120	0.139630	0.143935
Cu9	Cu	1.499122	0.139626	-0.144149
O10	O	1.504591	0.277651	0.121663
C11	C	1.270129	0.145035	-0.000097
C12	C	1.130405	0.142241	-0.000089
C13	C	1.064743	0.140941	0.132685
C14	C	0.933457	0.138324	0.132662
C15	C	0.933509	0.138312	-0.132923
C16	C	1.064792	0.140922	-0.132898
C17	C	1.064712	0.140951	0.286019
C18	C	0.933426	0.138334	0.285995
C19	C	1.488863	-0.033739	-0.000074
C20	C	1.474584	-0.139060	-0.000060
C21	C	1.549749	-0.388849	-0.000121
C22	C	1.448499	-0.331889	-0.000106
C23	C	1.463016	-0.224589	-0.000081
C24	C	1.535234	-0.496160	-0.000147
C25	C	1.728114	0.134221	-0.000121
C26	C	1.867837	0.137014	-0.000138
C27	C	1.509379	0.312995	-0.000144
C28	C	1.523659	0.418315	-0.000167
N29	N	1.499127	0.139633	0.346557
N30	N	1.499124	0.139615	-0.346772
C31	C	1.577363	0.075732	0.423218
C32	C	1.577359	0.075720	0.576555
C33	C	1.420879	0.203520	0.576556
C34	C	1.420878	0.203526	0.423222
C35	C	1.667709	0.001950	0.423219
C36	C	1.667705	0.001939	0.576556
H37	H	0.880071	0.137239	-0.241051
H38	H	0.893730	0.203892	0.344846
C39	C	1.316663	-0.374868	-0.000101
C40	C	1.199364	-0.308981	-0.000074
C41	C	1.067533	-0.351964	-0.000061
C42	C	1.053003	-0.460835	-0.000077
C43	C	1.170306	-0.526729	-0.000105
C44	C	1.302136	-0.483745	-0.000117
H45	H	1.210117	-0.228382	-0.000062
H46	H	0.980698	-0.303185	-0.000041
H47	H	0.955414	-0.492654	-0.000068
H48	H	1.159553	-0.607327	-0.000116
H49	H	1.388972	-0.532525	-0.000137
C50	C	1.118316	0.052394	0.365573
C51	C	1.028888	-0.021641	0.429674
C52	C	1.082493	-0.110197	0.509223
C53	C	1.225527	-0.124718	0.524671
C54	C	1.314964	-0.050681	0.460567
C55	C	1.261359	0.037875	0.381018
H56	H	0.922998	-0.010893	0.418241
H57	H	1.016284	-0.165003	0.556677
H58	H	1.265208	-0.190272	0.583558
H59	H	1.420854	-0.061428	0.472001
H60	H	1.327567	0.092682	0.333565
H61	H	1.647327	-0.357031	-0.000110
C62	C	1.334810	0.273810	0.338888
C63	C	1.248810	0.344138	0.423213
C64	C	1.162738	0.414424	0.338877
C65	C	1.162665	0.414382	0.170215
C66	C	1.248668	0.344051	0.085881
C67	C	1.334741	0.273765	0.170217
H68	H	1.248861	0.344172	0.548075
H69	H	1.099073	0.466487	0.401308
H70	H	1.098949	0.466411	0.107784
H71	H	1.248617	0.344017	-0.038981
H72	H	1.398406	0.221702	0.107786
C73	C	1.628832	-0.096541	0.366999
C74	C	1.597483	-0.175947	0.476599
C75	C	1.558604	-0.274434	0.420379
C76	C	1.551075	-0.293515	0.254559
C77	C	1.582425	-0.214106	0.144948
C78	C	1.621303	-0.115619	0.201169
H79	H	1.603056	-0.161825	0.599359
H80	H	1.535397	-0.333218	0.501521
H81	H	1.522295	-0.366421	0.212941
H82	H	1.576851	-0.228228	0.022189
H83	H	1.644510	-0.056835	0.120027
H84	H	1.118251	0.141967	-0.241016
H85	H	1.101240	0.210133	0.333581
H86	H	0.896884	0.069155	0.333589
H87	H	1.357170	0.255539	0.638993
H88	H	1.761215	0.025056	0.375651
H89	H	1.630266	-0.066962	0.624119
H90	H	1.765850	0.018195	0.618164
