data_functionalizedCrystal
_audit_creation_method	'MofGen! by Chris Wilmer'
_symmetry_space_group_name_H-M	'P1'
_symmetry_Int_Tables_number	1
_symmetry_cell_setting	triclinic
loop_
_symmetry_equiv_pos_as_xyz
  x,y,z
_cell_length_a	19.805407
_cell_length_b	14.908178
_cell_length_c	19.805399
_cell_angle_alpha	86.674164
_cell_angle_beta	89.984884
_cell_angle_gamma	93.311253
loop_
_atom_site_label
_atom_site_type_symbol
_atom_site_fract_x
_atom_site_fract_y
_atom_site_fract_z
Zn1	Zn	1.019205	-0.359259	-0.367131
Zn2	Zn	1.012611	-0.510139	-0.247410
Zn3	Zn	0.906024	-0.359280	-0.253959
Zn4	Zn	0.899471	-0.510080	-0.360563
O5	O	0.959328	-0.434689	-0.307266
O6	O	1.113046	-0.379289	-0.351258
O7	O	0.998454	-0.490161	-0.153560
O8	O	0.926541	-0.233023	-0.274461
O9	O	1.108201	-0.490140	-0.263300
O10	O	1.009694	-0.233007	-0.357608
O11	O	0.920146	-0.379326	-0.158372
O12	O	0.810439	-0.379269	-0.268091
O13	O	0.915372	-0.490040	-0.456152
O14	O	0.805625	-0.490061	-0.346413
O15	O	1.003340	-0.379232	-0.460978
O16	O	0.992100	-0.636385	-0.256930
O17	O	0.908977	-0.636342	-0.340063
C18	C	0.783473	-0.434661	-0.307250
C19	C	0.708241	-0.434671	-0.307259
C20	C	0.675416	-0.377053	-0.353121
C21	C	0.604727	-0.377058	-0.353123
C22	C	0.566865	-0.434686	-0.307267
C23	C	0.599694	-0.492306	-0.261400
C24	C	0.670382	-0.492296	-0.261395
C25	C	0.314619	-0.492347	-0.261419
C26	C	0.243927	-0.492354	-0.261429
C27	C	0.248964	-0.377108	-0.353147
C28	C	0.319652	-0.377098	-0.353142
C29	C	0.352476	-0.434715	-0.307273
C30	C	0.429125	-0.434708	-0.307271
C31	C	0.490217	-0.434698	-0.307272
C32	C	0.949130	-0.669100	-0.297088
C33	C	0.944830	-0.769382	-0.292757
C34	C	1.023270	-0.957655	-0.371292
C35	C	1.019232	-1.051879	-0.367224
C36	C	0.932711	-1.052054	-0.280558
C37	C	0.936750	-0.957831	-0.284625
C38	C	0.982031	-0.910635	-0.329993
C39	C	0.986073	-0.816409	-0.334057
C40	C	0.899549	-0.816586	-0.247394
C41	C	0.895511	-0.910810	-0.243327
C42	C	1.135869	-0.434719	-0.307281
C43	C	1.211101	-0.434731	-0.307288
C44	C	0.959360	-0.434627	-0.483811
C45	C	0.959374	-0.434600	-0.559044
C46	C	0.969584	-0.199364	-0.317498
C47	C	0.973954	-0.099082	-0.321858
C48	C	0.918611	-0.376883	-0.596893
C49	C	0.918622	-0.376865	-0.667583
C50	C	0.959398	-0.434561	-0.700422
C51	C	1.000163	-0.492285	-0.662567
C52	C	1.000149	-0.492306	-0.591879
C53	C	1.000220	-0.492201	-0.947644
C54	C	1.000233	-0.492173	-1.018338
C55	C	0.918693	-0.376760	-1.023348
C56	C	0.918679	-0.376781	-0.952660
C57	C	0.959440	-0.434508	-0.914811
C58	C	0.959428	-0.434527	-0.838162
C59	C	0.959415	-0.434538	-0.777070
C60	C	0.959337	-0.434687	-0.131410
C61	C	0.959466	-0.434459	-0.056188
H62	H	0.578004	-0.330141	-0.390469
H63	H	0.706238	-0.330128	-0.390464
C64	C	0.914546	-0.255441	-0.878444
C65	C	0.873855	-0.313361	-0.916564
H66	H	0.886871	-0.216287	-0.856164
H67	H	0.938816	-0.289819	-0.845788
H68	H	0.945542	-0.220927	-0.907530
H69	H	0.842862	-0.347881	-0.887477
H70	H	0.849574	-0.278980	-0.949223
H71	H	0.341336	-0.539263	-0.224071
C72	C	0.813625	-0.826228	-0.161311
C73	C	0.854218	-0.764900	-0.201991
H74	H	0.785646	-0.794317	-0.133278
H75	H	0.786136	-0.862973	-0.189189
H76	H	0.841567	-0.862976	-0.133870
H77	H	0.826276	-0.728156	-0.229436
H78	H	0.881710	-0.728139	-0.174110
C79	C	1.051457	-1.196237	-0.399473
C80	C	1.064563	-1.103567	-0.412620
H81	H	1.079440	-1.228145	-0.427504
H82	H	1.060734	-1.211704	-0.353343
H83	H	1.005307	-1.211712	-0.408667
H84	H	1.110712	-1.088091	-0.403421
H85	H	1.055290	-1.088093	-0.458760
H86	H	1.033360	-0.539267	-0.689310
C87	C	0.838004	-0.262806	-0.608953
C88	C	0.873784	-0.313465	-0.560800
H89	H	0.810324	-0.223660	-0.586670
H90	H	0.869002	-0.228290	-0.638025
H91	H	0.810411	-0.302115	-0.634814
H92	H	0.901381	-0.274156	-0.534942
H93	H	0.842782	-0.347984	-0.531717
C94	C	0.776507	-0.543450	-0.220659
C95	C	0.706467	-0.555632	-0.210983
H96	H	0.798782	-0.582546	-0.189530
H97	H	0.787528	-0.556735	-0.265536
H98	H	0.790712	-0.482808	-0.213460
H99	H	0.692261	-0.616272	-0.218187
H100	H	0.695442	-0.542353	-0.166095
C101	C	0.882492	-0.325481	-1.133933
C102	C	0.873877	-0.313315	-1.064953
H103	H	0.854822	-0.286317	-1.159615
H104	H	0.928540	-0.312279	-1.146095
H105	H	0.869944	-0.386099	-1.142871
H106	H	0.886429	-0.252699	-1.056014
H107	H	0.827819	-0.326511	-1.052786
C108	C	0.828122	-0.364303	-0.747592
C109	C	0.873802	-0.313427	-0.709178
H110	H	0.800445	-0.325139	-0.773265
H111	H	0.852407	-0.398646	-0.777270
H112	H	0.800527	-0.403619	-0.718290
H113	H	0.901401	-0.274115	-0.738481
H114	H	0.849516	-0.279069	-0.679497
H115	H	1.033347	-0.539299	-0.561063
C116	C	0.575987	-0.536060	-0.144835
C117	C	0.558078	-0.555653	-0.210993
H118	H	0.550292	-0.575168	-0.113718
H119	H	0.622778	-0.544301	-0.138272
H120	H	0.567025	-0.475424	-0.137646
H121	H	0.567044	-0.616287	-0.218184
H122	H	0.511276	-0.547419	-0.217558
H123	H	1.022945	-0.777983	-0.370996
C124	C	0.261045	-0.263192	-0.443817
C125	C	0.212883	-0.313768	-0.403566
H126	H	0.238770	-0.224096	-0.474946
H127	H	0.290105	-0.228626	-0.415870
H128	H	0.286917	-0.302556	-0.467943
H129	H	0.187015	-0.274403	-0.379436
H130	H	0.183812	-0.348336	-0.431517
C131	C	0.898564	-1.081209	-0.164658
C132	C	0.882935	-1.103935	-0.230694
H133	H	0.867830	-1.113234	-0.133875
H134	H	0.943380	-1.096619	-0.154135
H135	H	0.895068	-1.018362	-0.161176
H136	H	0.886436	-1.166783	-0.234177
H137	H	0.838108	-1.088531	-0.241220
H138	H	1.060145	-0.919228	-0.408227
H139	H	0.858642	-0.949250	-0.206391
C140	C	0.399713	-0.364708	-0.444737
C141	C	0.361268	-0.313752	-0.403550
H142	H	0.425401	-0.325597	-0.475859
H143	H	0.429378	-0.399014	-0.417424
H144	H	0.370431	-0.404062	-0.468871
H145	H	0.390552	-0.274403	-0.379412
H146	H	0.331601	-0.279431	-0.430867
C147	C	1.080824	-0.606282	-1.006288
C148	C	1.045052	-0.555604	-1.054436
H149	H	1.108489	-0.645442	-1.028575
H150	H	1.108425	-0.566993	-0.980429
H151	H	1.049815	-0.640793	-0.977213
H152	H	1.076061	-0.521088	-1.083508
H153	H	1.017449	-0.594898	-1.080306
H154	H	1.033403	-0.539215	-0.916836
C155	C	0.246044	-0.606264	-0.170750
C156	C	0.202307	-0.555697	-0.211015
H157	H	0.220348	-0.645362	-0.139627
H158	H	0.272124	-0.640826	-0.198689
H159	H	0.275316	-0.566894	-0.146618
H160	H	0.173039	-0.595067	-0.235151
H161	H	0.176216	-0.521132	-0.183072
