data_functionalizedCrystal
_audit_creation_method	'MofGen! by Chris Wilmer'
_symmetry_space_group_name_H-M	'P1'
_symmetry_Int_Tables_number	1
_symmetry_cell_setting	triclinic
loop_
_symmetry_equiv_pos_as_xyz
  x,y,z
_cell_length_a	13.185408
_cell_length_b	14.421503
_cell_length_c	13.262508
_cell_angle_alpha	74.077362
_cell_angle_beta	68.866655
_cell_angle_gamma	90.002751
loop_
_atom_site_label
_atom_site_type_symbol
_atom_site_fract_x
_atom_site_fract_y
_atom_site_fract_z
O1	O	1.445746	0.145924	-0.273112
O2	O	1.128726	0.119141	-0.166854
O3	O	1.295218	0.171633	-0.375033
O4	O	1.279255	0.093431	-0.064934
O5	O	1.295190	0.017402	-0.375001
O6	O	1.128699	-0.035091	-0.166822
O7	O	1.445718	-0.008308	-0.273080
Cu8	Cu	1.287206	-0.035782	-0.219949
Cu9	Cu	1.287239	0.146615	-0.219986
O10	O	1.279227	-0.060800	-0.064902
C11	C	1.088132	0.039310	-0.156066
C12	C	0.967217	0.031224	-0.123981
C13	C	0.897860	0.002417	-0.009740
C14	C	0.784254	-0.005195	0.020410
C15	C	0.739991	0.016008	-0.063679
C16	C	0.809348	0.044823	-0.177922
C17	C	0.922966	0.052428	-0.208074
C18	C	0.765097	0.066019	-0.262013
C19	C	0.834453	0.094834	-0.376256
C20	C	0.948060	0.102438	-0.406403
C21	C	0.992322	0.081235	-0.322315
C22	C	0.651479	0.058414	-0.231860
C23	C	0.676584	0.108425	-0.430195
C24	C	0.790191	0.116036	-0.460344
N25	N	1.287191	-0.164069	-0.219925
C26	C	1.210192	-0.437987	-0.123693
C27	C	1.308697	-0.497915	-0.131146
C28	C	1.287217	-0.353222	-0.219958
C29	C	1.188737	-0.477393	-0.212487
C30	C	1.287234	-0.535937	-0.219984
C31	C	1.385773	-0.411797	-0.227378
C32	C	1.265748	-0.391264	-0.308741
C33	C	1.364324	-0.451148	-0.316255
C34	C	1.287206	-0.247966	-0.219939
C35	C	1.287256	-0.641190	-0.220006
C36	C	1.486312	0.071525	-0.283869
C37	C	1.607228	0.079617	-0.315954
N38	N	1.287262	0.274905	-0.220020
C39	C	1.294311	0.104318	-0.413870
C40	C	1.291639	0.133518	-0.529635
C41	C	1.284041	-0.120469	-0.855900
C42	C	1.286543	-0.147906	-0.747130
C43	C	1.287818	-0.077552	-0.692751
C44	C	1.286589	0.020243	-0.747153
C45	C	1.284079	0.047682	-0.855931
C46	C	1.287855	0.090598	-0.692781
C47	C	1.286627	0.188393	-0.747184
C48	C	1.284117	0.215828	-0.855951
C49	C	1.282842	0.145474	-0.910330
C50	C	1.290366	0.063160	-0.584004
C51	C	1.290403	0.231310	-0.584034
C52	C	1.287901	0.258747	-0.692805
C53	C	1.280133	0.006518	-0.026065
C54	C	1.282805	-0.022676	0.089700
H55	H	0.933910	-0.014850	0.058712
H56	H	1.280811	0.167809	-0.998903
C57	C	1.498317	-0.373142	-0.235792
C58	C	1.590084	-0.440022	-0.242711
C59	C	1.702623	-0.401367	-0.251117
C60	C	1.723395	-0.295832	-0.252604
C61	C	1.631625	-0.228946	-0.245685
C62	C	1.519086	-0.267601	-0.237279
H63	H	1.574710	-0.518151	-0.241610
H64	H	1.770558	-0.450881	-0.256239
H65	H	1.806703	-0.267217	-0.258827
H66	H	1.646999	-0.150817	-0.246786
H67	H	1.451152	-0.218086	-0.232157
H68	H	1.289853	-0.099897	-0.604184
C69	C	0.575195	0.026726	-0.106200
C70	C	0.493648	0.094709	-0.058214
C71	C	0.417364	0.063022	0.067454
C72	C	0.422627	-0.036648	0.145137
C73	C	0.504178	-0.104637	0.097152
C74	C	0.580462	-0.072950	-0.028517
H75	H	0.489748	0.168496	-0.115720
H76	H	0.356994	0.113352	0.102976
H77	H	0.366157	-0.060105	0.238164
H78	H	0.508077	-0.178424	0.154658
H79	H	0.640831	-0.123281	-0.064038
C80	C	1.122287	-0.429107	-0.013681
C81	C	1.155389	-0.386832	0.066174
C82	C	1.067491	-0.377949	0.176184
C83	C	0.946492	-0.411342	0.206341
C84	C	0.913384	-0.453620	0.126485
C85	C	1.001282	-0.462503	0.016474
H86	H	1.244965	-0.362110	0.043852
H87	H	1.092000	-0.346652	0.235299
H88	H	0.881425	-0.404767	0.287777
H89	H	0.823808	-0.478342	0.148807
H90	H	0.976773	-0.493800	-0.042641
C91	C	0.707966	-0.036891	0.146068
C92	C	0.756645	-0.060214	0.238565
C93	C	0.680354	-0.091914	0.364232
C94	C	0.555385	-0.100290	0.397401
C95	C	0.506700	-0.076965	0.304902
C96	C	0.582990	-0.045266	0.179236
H97	H	0.849160	-0.054015	0.214013
H98	H	0.716395	-0.109180	0.432705
H99	H	0.498910	-0.123755	0.490427
H100	H	0.414184	-0.083165	0.329454
H101	H	0.546949	-0.028000	0.110762
C102	C	1.241156	-0.328953	-0.410105
C103	C	1.220060	-0.376653	-0.492365
C104	C	1.195453	-0.314342	-0.593724
C105	C	1.191942	-0.204329	-0.612823
C106	C	1.213039	-0.156623	-0.530561
C107	C	1.237646	-0.218935	-0.429202
H108	H	1.222659	-0.458096	-0.478229
H109	H	1.179836	-0.349658	-0.654619
H110	H	1.173726	-0.158202	-0.687855
H111	H	1.210440	-0.075180	-0.544697
H112	H	1.253263	-0.183619	-0.368306
C113	C	1.291806	0.308709	-0.524231
C114	C	1.385933	0.391573	-0.577797
C115	C	1.387331	0.468964	-0.517985
C116	C	1.294602	0.463492	-0.404607
C117	C	1.200467	0.380625	-0.351034
C118	C	1.199069	0.303233	-0.410846
H119	H	1.454583	0.395626	-0.661732
H120	H	1.457016	0.530308	-0.557644
H121	H	1.295637	0.520782	-0.360330
H122	H	1.131817	0.376571	-0.267099
H123	H	1.129384	0.241890	-0.371188
C124	C	0.866488	0.147724	-0.586009
C125	C	0.861236	0.247396	-0.663695
C126	C	0.937533	0.279084	-0.789359
C127	C	1.019082	0.211099	-0.837338
C128	C	1.024337	0.111420	-0.759651
C129	C	0.948041	0.079733	-0.633987
H130	H	0.800866	0.297728	-0.628179
H131	H	0.933643	0.352873	-0.846868
H132	H	1.075562	0.234555	-0.930362
H133	H	1.084708	0.061088	-0.795166
H134	H	0.951931	0.005944	-0.576478
H135	H	0.647487	0.009808	-0.039124
H136	H	1.283107	0.295458	-0.900239
H137	H	1.084829	0.087428	-0.346857
C138	C	1.076218	-0.516233	-0.203952
C139	C	1.030915	-0.467423	-0.295219
C140	C	0.918392	-0.506259	-0.286673
C141	C	0.851173	-0.593905	-0.186860
C142	C	0.896475	-0.642720	-0.095585
C143	C	1.008998	-0.603884	-0.104131
H144	H	1.080675	-0.402538	-0.369114
H145	H	0.884856	-0.470123	-0.354241
H146	H	0.767877	-0.622654	-0.180533
H147	H	0.846715	-0.707605	-0.021690
H148	H	1.042534	-0.640021	-0.036563
H149	H	1.004528	0.125889	-0.499427
H150	H	0.640547	0.125732	-0.498667
H151	H	1.326872	-0.544019	-0.056078
H152	H	1.429541	-0.457540	-0.397698
H153	H	1.291356	-0.016467	-0.539716
H154	H	1.287555	-0.227529	-0.702848
H155	H	1.282996	-0.177741	-0.900182
H156	H	1.286900	0.338373	-0.737114
