data_functionalizedCrystal
_audit_creation_method	'MofGen! by Chris Wilmer'
_symmetry_space_group_name_H-M	'P1'
_symmetry_Int_Tables_number	1
_symmetry_cell_setting	triclinic
loop_
_symmetry_equiv_pos_as_xyz
  x,y,z
_cell_length_a	14.853569
_cell_length_b	14.853567
_cell_length_c	9.130313
_cell_angle_alpha	90.002541
_cell_angle_beta	90.001735
_cell_angle_gamma	83.635248
loop_
_atom_site_label
_atom_site_type_symbol
_atom_site_fract_x
_atom_site_fract_y
_atom_site_fract_z
O1	O	1.196359	0.117707	-0.121720
O2	O	0.933899	0.131727	-0.121736
O3	O	1.072140	-0.006513	-0.121732
O4	O	1.058118	0.255947	-0.121724
O5	O	1.072138	-0.006509	0.121867
O6	O	0.933898	0.131730	0.121863
O7	O	1.196357	0.117711	0.121879
Cu8	Cu	1.065127	0.124721	0.144114
Cu9	Cu	1.065129	0.124716	-0.143970
O10	O	1.058117	0.255950	0.121875
C11	C	0.900310	0.131093	0.000061
C12	C	0.800226	0.129189	0.000055
C13	C	0.763850	0.046178	0.000047
C14	C	0.742560	0.210410	0.000068
C15	C	0.648526	0.208624	0.000070
C16	C	0.612150	0.125613	0.000062
C17	C	0.669807	0.044389	0.000053
C18	C	0.590862	0.289847	0.000094
C19	C	0.496821	0.288064	0.000097
C20	C	0.460443	0.205052	0.000079
C21	C	0.518107	0.123824	0.000068
C22	C	0.481730	0.040813	0.000061
C23	C	0.539393	-0.040415	0.000039
C24	C	0.633429	-0.038623	0.000035
C25	C	0.366407	0.203259	0.000084
C26	C	0.387688	0.039024	0.000067
C27	C	1.071504	-0.040100	0.000063
C28	C	1.069600	-0.140183	0.000051
C29	C	0.979434	-0.552718	0.000073
C30	C	1.143667	-0.573998	0.000083
C31	C	1.145457	-0.479964	0.000074
C32	C	1.064234	-0.422303	0.000067
C33	C	0.981222	-0.458675	0.000069
C34	C	1.228468	-0.443585	0.000088
C35	C	1.230262	-0.349545	0.000081
C36	C	1.149038	-0.291882	0.000063
C37	C	1.066022	-0.328260	0.000063
C38	C	0.984800	-0.270599	0.000056
C39	C	0.901783	-0.306974	0.000046
C40	C	0.899998	-0.401012	0.000051
C41	C	1.150822	-0.197845	0.000058
C42	C	0.986587	-0.176556	0.000052
C43	C	1.229947	0.118344	0.000079
C44	C	1.330030	0.120249	0.000076
C45	C	1.058753	0.289537	0.000077
C46	C	1.060657	0.389621	0.000080
N47	N	1.065132	0.124723	0.346736
N48	N	1.065131	0.124707	-0.346593
C49	C	1.126361	0.063532	0.423390
C50	C	1.126358	0.063521	0.576727
C51	C	1.003896	0.185902	0.576743
C52	C	1.003895	0.185907	0.423409
C53	C	1.197066	-0.007121	0.423382
C54	C	1.197064	-0.007132	0.576719
H55	H	0.620487	0.357430	0.000110
H56	H	1.262361	0.014349	0.375829
F57	F	0.815343	-0.245597	0.000049
F58	F	1.287471	0.012377	0.631129
F59	F	1.177621	-0.097548	0.368970
F60	F	0.435461	0.374513	0.000112
H61	H	1.175647	-0.072456	0.624262
F62	F	0.891086	-0.591431	0.000049
F63	F	0.694802	-0.125064	0.000024
F64	F	1.230104	-0.635367	0.000112
F65	F	0.811654	-0.439732	0.000035
H66	H	1.297859	-0.319937	0.000088
F67	F	0.348981	-0.049329	0.000048
F68	F	0.938726	0.251014	0.658355
F69	F	0.305043	0.289702	0.000122
F70	F	1.239168	-0.159134	0.000092
F71	F	0.500667	-0.128759	0.000043
F72	F	0.938718	0.251024	0.341829
F73	F	0.825217	-0.040267	0.000021
F74	F	0.900137	-0.115195	0.000034
F75	F	0.781278	0.298751	0.000081
H76	H	1.294595	-0.490539	0.000107
