data_functionalizedCrystal
_audit_creation_method	'MofGen! by Chris Wilmer'
_symmetry_space_group_name_H-M	'P1'
_symmetry_Int_Tables_number	1
_symmetry_cell_setting	triclinic
loop_
_symmetry_equiv_pos_as_xyz
  x,y,z
_cell_length_a	18.215407
_cell_length_b	12.594516
_cell_length_c	18.215399
_cell_angle_alpha	90.023782
_cell_angle_beta	90.016899
_cell_angle_gamma	90.009275
loop_
_atom_site_label
_atom_site_type_symbol
_atom_site_fract_x
_atom_site_fract_y
_atom_site_fract_z
Zn1	Zn	1.125139	-0.423825	0.416080
Zn2	Zn	1.458472	-0.090492	0.749413
Zn3	Zn	1.791805	0.242841	1.082746
Zn4	Zn	1.125075	-0.601823	0.293022
Zn5	Zn	1.458409	-0.268489	0.626356
Zn6	Zn	1.791742	0.064844	0.959689
Zn7	Zn	1.002071	-0.423851	0.293033
Zn8	Zn	1.335405	-0.090517	0.626367
Zn9	Zn	1.668738	0.242816	0.959700
Zn10	Zn	1.002065	-0.601754	0.416053
Zn11	Zn	1.335399	-0.268421	0.749387
Zn12	Zn	1.668732	0.064912	1.082720
O13	O	1.063588	-0.512813	0.354547
O14	O	1.396921	-0.179480	0.687880
O15	O	1.730254	0.153853	1.021214
O16	O	1.228115	-0.447455	0.399762
O17	O	1.561448	-0.114122	0.733095
O18	O	1.894781	0.219212	1.066429
O19	O	1.108734	-0.578254	0.190039
O20	O	1.442068	-0.244920	0.523373
O21	O	1.775401	0.088413	0.856706
O22	O	1.018426	-0.274902	0.309371
O23	O	1.351759	0.058432	0.642704
O24	O	1.685092	0.391765	0.976038
O25	O	1.228068	-0.578229	0.309352
O26	O	1.561401	-0.244896	0.642686
O27	O	1.894735	0.088438	0.976019
O28	O	1.108843	-0.274883	0.399773
O29	O	1.442176	0.058451	0.733106
O30	O	1.775509	0.391784	1.066439
O31	O	1.018364	-0.447498	0.190047
O32	O	1.351697	-0.114165	0.523381
O33	O	1.685031	0.219168	0.856714
O34	O	0.899086	-0.447432	0.309346
O35	O	1.232420	-0.114099	0.642679
O36	O	1.565753	0.219235	0.976012
O37	O	1.018415	-0.578112	0.519041
O38	O	1.351749	-0.244779	0.852375
O39	O	1.685082	0.088555	1.185708
O40	O	0.899082	-0.578137	0.399728
O41	O	1.232415	-0.244804	0.733062
O42	O	1.565748	0.088530	1.066395
O43	O	1.108837	-0.447388	0.519060
O44	O	1.442170	-0.114055	0.852394
O45	O	1.775504	0.219278	1.185727
O46	O	1.108729	-0.750759	0.309327
O47	O	1.442062	-0.417426	0.642660
O48	O	1.775395	-0.084093	0.975994
O49	O	1.018354	-0.750709	0.399718
O50	O	1.351687	-0.417376	0.733051
O51	O	1.685020	-0.084042	1.066384
C52	C	0.872381	-0.512781	0.354536
C53	C	1.205715	-0.179447	0.687869
C54	C	1.539048	0.153886	1.021202
C55	C	0.790583	-0.512792	0.354548
C56	C	1.123916	-0.179459	0.687882
C57	C	1.457249	0.153874	1.021215
C58	C	0.525542	-0.580983	0.401545
C59	C	0.858875	-0.247650	0.734878
C60	C	1.192209	0.085684	1.068211
C61	C	0.602401	-0.580974	0.401541
C62	C	0.935734	-0.247641	0.734874
C63	C	1.269067	0.085693	1.068208
C64	C	0.602375	-0.444667	0.307563
C65	C	0.935708	-0.111334	0.640896
C66	C	1.269041	0.221999	0.974229
C67	C	0.525517	-0.444683	0.307563
C68	C	0.858851	-0.111349	0.640896
C69	C	1.192184	0.221984	0.974230
C70	C	0.487103	-0.512839	0.354558
C71	C	0.820436	-0.179505	0.687891
C72	C	1.153770	0.153828	1.021225
C73	C	0.640819	-0.512814	0.354554
C74	C	0.974152	-0.179481	0.687888
C75	C	1.307486	0.153852	1.021221
C76	C	0.724153	-0.512804	0.354550
C77	C	1.057486	-0.179471	0.687883
C78	C	1.390819	0.153863	1.021217
C79	C	0.403764	-0.512851	0.354562
C80	C	0.737097	-0.179518	0.687895
C81	C	1.070431	0.153816	1.021228
C82	C	1.063554	-0.789354	0.354534
C83	C	1.396887	-0.456021	0.687868
C84	C	1.730220	-0.122688	1.021201
C85	C	1.063606	-0.907660	0.354553
C86	C	1.396940	-0.574326	0.687887
C87	C	1.730273	-0.240993	1.021220
C88	C	1.112818	-0.976901	0.305442
C89	C	1.446152	-0.643568	0.638776
C90	C	1.779485	-0.310235	0.972109
C91	C	1.130801	-1.047606	0.372613
C92	C	1.464134	-0.714273	0.705946
C93	C	1.797468	-0.380939	1.039279
C94	C	1.045716	-1.047754	0.287426
C95	C	1.379049	-0.714421	0.620759
C96	C	1.712382	-0.381087	0.954093
C97	C	1.081623	-0.976806	0.421759
C98	C	1.414957	-0.643473	0.755092
C99	C	1.748290	-0.310139	1.088426
C100	C	0.996507	-0.976948	0.336527
C101	C	1.329840	-0.643614	0.669860
C102	C	1.663173	-0.310281	1.003194
C103	C	1.014464	-1.047620	0.403743
C104	C	1.347797	-0.714287	0.737077
C105	C	1.681131	-0.380954	1.070410
C106	C	1.255541	-0.512847	0.354559
C107	C	1.588874	-0.179513	0.687892
C108	C	1.922207	0.153820	1.021226
C109	C	1.337339	-0.512861	0.354564
C110	C	1.670673	-0.179528	0.687897
C111	C	2.004006	0.153806	1.021231
C112	C	1.063632	-0.512740	0.546500
C113	C	1.396966	-0.179406	0.879833
C114	C	1.730299	0.153927	1.213167
C115	C	1.063652	-0.512709	0.628299
C116	C	1.396985	-0.179375	0.961632
C117	C	1.730318	0.153958	1.294966
C118	C	1.063642	-0.235192	0.354576
C119	C	1.396975	0.098141	0.687909
C120	C	1.730309	0.431474	1.021243
C121	C	1.063665	-0.116887	0.354588
C122	C	1.396998	0.216446	0.687922
C123	C	1.730332	0.549780	1.021255
C124	C	1.063585	-0.512809	0.163341
C125	C	1.396919	-0.179476	0.496674
C126	C	1.730252	0.153857	0.830008
C127	C	1.063709	-0.512541	0.081542
C128	C	1.397042	-0.179208	0.414876
C129	C	1.730375	0.154126	0.748209
C130	C	1.110751	-0.444577	0.816504
C131	C	1.444084	-0.111244	1.149838
C132	C	1.777418	0.222090	1.483171
C133	C	1.110760	-0.444546	0.893363
C134	C	1.444093	-0.111213	1.226696
C135	C	1.777426	0.222121	1.560030
C136	C	1.016604	-0.580675	0.893332
C137	C	1.349938	-0.247342	1.226665
C138	C	1.683271	0.085991	1.559998
C139	C	1.016592	-0.580700	0.816474
C140	C	1.349926	-0.247367	1.149808
C141	C	1.683259	0.085966	1.483141
C142	C	1.063670	-0.512653	0.778063
C143	C	1.397003	-0.179319	1.111396
C144	C	1.730336	0.154014	1.444729
C145	C	1.063691	-0.512597	0.931779
C146	C	1.397024	-0.179263	1.265112
C147	C	1.730357	0.154070	1.598445
C148	C	1.063700	-0.512564	1.015113
C149	C	1.397033	-0.179230	1.348446
C150	C	1.730366	0.154103	1.681779
C151	C	1.063660	-0.512684	0.694724
C152	C	1.396993	-0.179351	1.028057
C153	C	1.730327	0.153983	1.361390
H154	H	0.494219	-0.389190	0.269297
H155	H	0.827553	-0.055856	0.602631
H156	H	1.160886	0.277477	0.935964
C157	C	0.964794	-0.655589	0.774186
C158	C	1.298128	-0.322256	1.107519
C159	C	1.631461	0.011077	1.440853
N160	N	0.925780	-0.711991	0.742335
N161	N	1.259113	-0.378657	1.075668
N162	N	1.592446	-0.045324	1.409001
C163	C	0.964820	-0.655522	0.935592
C164	C	1.298154	-0.322188	1.268925
C165	C	1.631487	0.011145	1.602259
N166	N	0.925815	-0.711897	0.967422
N167	N	1.259149	-0.378564	1.300755
N168	N	1.592482	-0.045231	1.634088
H169	H	1.154442	-0.945849	0.263948
H170	H	1.487775	-0.612516	0.597282
H171	H	1.821109	-0.279182	0.930615
H172	H	0.633661	-0.389175	0.269302
H173	H	0.966994	-0.055842	0.602635
H174	H	1.300328	0.277491	0.935968
C175	C	0.483289	-0.655967	0.453233
C176	C	0.816622	-0.322634	0.786567
C177	C	1.149955	0.010699	1.119900
N178	N	0.451466	-0.712452	0.492164
N179	N	0.784799	-0.379119	0.825497
N180	N	1.118132	-0.045785	1.158831
H181	H	0.633694	-0.636465	0.439801
H182	H	0.967028	-0.303132	0.773135
H183	H	1.300361	0.030202	1.106468
C184	C	1.102194	-0.934887	0.498492
C185	C	1.435527	-0.601554	0.831825
C186	C	1.768860	-0.268221	1.165159
N187	N	1.117690	-0.903312	0.556285
N188	N	1.451024	-0.569978	0.889619
N189	N	1.784357	-0.236645	1.222952
C190	C	1.207493	-1.089547	0.393235
C191	C	1.540826	-0.756214	0.726569
C192	C	1.874160	-0.422880	1.059902
N193	N	1.265259	-1.121136	0.408762
N194	N	1.598592	-0.787802	0.742096
N195	N	1.931926	-0.454469	1.075429
H196	H	0.972872	-1.078476	0.445338
H197	H	1.306206	-0.745143	0.778671
H198	H	1.639539	-0.411809	1.112005
C199	C	0.919839	-0.934968	0.315871
C200	C	1.253172	-0.601635	0.649204
C201	C	1.586505	-0.268302	0.982538
N202	N	0.862093	-0.903344	0.300304
N203	N	1.195426	-0.570011	0.633637
N204	N	1.528760	-0.236678	0.966970
H205	H	1.030559	-1.078917	0.230643
H206	H	1.363893	-0.745584	0.563976
H207	H	1.697226	-0.412251	0.897309
H208	H	1.149083	-0.389165	0.785232
H209	H	1.482416	-0.055832	1.118565
H210	H	1.815749	0.277501	1.451898
H211	H	1.149097	-0.389110	0.924659
H212	H	1.482430	-0.055777	1.257992
H213	H	1.815763	0.277556	1.591325
