data_functionalizedCrystal
_audit_creation_method	'MofGen! by Chris Wilmer'
_symmetry_space_group_name_H-M	'P1'
_symmetry_Int_Tables_number	1
_symmetry_cell_setting	triclinic
loop_
_symmetry_equiv_pos_as_xyz
  x,y,z
_cell_length_a	12.827893
_cell_length_b	16.625546
_cell_length_c	12.827885
_cell_angle_alpha	89.964876
_cell_angle_beta	89.980728
_cell_angle_gamma	90.022629
loop_
_atom_site_label
_atom_site_type_symbol
_atom_site_fract_x
_atom_site_fract_y
_atom_site_fract_z
Zn1	Zn	1.597620	-0.320959	-0.590805
Zn2	Zn	2.097620	0.179041	-0.090805
Zn3	Zn	1.597492	-0.455813	-0.416049
Zn4	Zn	2.097492	0.044187	0.083951
Zn5	Zn	1.422861	-0.320999	-0.416079
Zn6	Zn	1.922861	0.179001	0.083921
Zn7	Zn	1.422825	-0.455754	-0.590749
Zn8	Zn	1.922825	0.044246	-0.090749
O9	O	1.510200	-0.388381	-0.503420
O10	O	2.010200	0.111619	-0.003420
O11	O	1.743839	-0.338856	-0.567633
O12	O	2.243839	0.161144	-0.067633
O13	O	1.574288	-0.437971	-0.269816
O14	O	2.074288	0.062029	0.230184
O15	O	1.446112	-0.208161	-0.439292
O16	O	1.946112	0.291839	0.060708
O17	O	1.743745	-0.437933	-0.439241
O18	O	2.243745	0.062067	0.060759
O19	O	1.574507	-0.208132	-0.567663
O20	O	2.074507	0.291868	-0.067663
O21	O	1.445988	-0.338924	-0.269839
O22	O	1.945988	0.161076	0.230161
O23	O	1.276620	-0.338866	-0.439239
O24	O	1.776620	0.161134	0.060761
O25	O	1.446051	-0.437831	-0.736993
O26	O	1.946051	0.062169	-0.236993
O27	O	1.276594	-0.437870	-0.567568
O28	O	1.776594	0.062130	-0.067568
O29	O	1.574472	-0.338798	-0.737033
O30	O	2.074472	0.161202	-0.237033
O31	O	1.574254	-0.568638	-0.439187
O32	O	2.074254	-0.068638	0.060813
O33	O	1.445927	-0.568594	-0.567539
O34	O	1.945927	-0.068594	-0.067539
C35	C	1.238690	-0.388366	-0.503401
C36	C	1.738690	0.111634	-0.003401
C37	C	1.122537	-0.388380	-0.503418
C38	C	1.622537	0.111620	-0.003418
C39	C	1.070737	-0.339324	-0.440029
C40	C	1.570737	0.160676	0.059971
C41	C	0.950687	-0.339337	-0.440045
C42	C	1.450687	0.160663	0.059955
C43	C	1.510101	-0.597872	-0.503377
C44	C	2.010101	-0.097872	-0.003377
C45	C	1.510154	-0.687493	-0.503393
C46	C	2.010154	-0.187493	-0.003393
C47	C	1.510336	-1.015669	-0.503502
C48	C	2.010336	-0.515669	-0.003502
C49	C	1.510282	-0.924360	-0.503474
C50	C	2.010282	-0.424360	-0.003474
C51	C	1.510244	-0.851584	-0.503447
C52	C	2.010244	-0.351584	-0.003447
C53	C	1.510192	-0.760270	-0.503420
C54	C	2.010192	-0.260270	-0.003420
C55	C	1.782770	-0.388397	-0.503440
C56	C	2.282770	0.111603	-0.003440
C57	C	1.898923	-0.388403	-0.503448
C58	C	2.398923	0.111597	-0.003448
C59	C	1.510272	-0.388304	-0.775991
C60	C	2.010272	0.111696	-0.275991
C61	C	1.510302	-0.388271	-0.892144
C62	C	2.010302	0.111729	-0.392144
C63	C	1.510327	-0.178072	-0.503487
C64	C	2.010327	0.321928	-0.003487
C65	C	1.510382	-0.088451	-0.503516
C66	C	2.010382	0.411549	-0.003516
C67	C	1.446835	-0.339249	-0.943940
C68	C	1.946835	0.160751	-0.443940
C69	C	1.446866	-0.339214	-1.063990
C70	C	1.946866	0.160786	-0.563990
C71	C	1.510188	-0.388400	-0.231910
C72	C	2.010188	0.111600	0.268090
C73	C	1.510360	-0.388206	-0.115758
C74	C	2.010360	0.111794	0.384242
H75	H	0.943462	-0.430400	-0.557726
H76	H	1.443462	0.069600	-0.057726
C77	C	1.130878	-0.282568	-0.366701
C78	C	1.630878	0.217432	0.133299
H79	H	1.082812	-0.251794	-0.326931
H80	H	1.582812	0.248206	0.173069
H81	H	1.173487	-0.247501	-0.406795
H82	H	1.673487	0.252499	0.093205
H83	H	1.173425	-0.313396	-0.321122
H84	H	1.673425	0.186604	0.178878
C85	C	1.373400	-0.282584	-0.883790
C86	C	1.873400	0.217416	-0.383790
H87	H	1.383019	-0.290037	-0.810993
H88	H	1.883019	0.209963	-0.310993
H89	H	1.303167	-0.294359	-0.901617
H90	H	1.803167	0.205641	-0.401617
H91	H	1.388726	-0.228390	-0.901643
H92	H	1.888726	0.271610	-0.401643
H93	H	0.906141	-0.297335	-0.385780
H94	H	1.406141	0.202665	0.114220
C95	C	1.062396	-0.445111	-0.576778
C96	C	1.562396	0.054889	-0.076778
H97	H	1.110462	-0.475884	-0.616549
H98	H	1.610462	0.024116	-0.116549
H99	H	1.019860	-0.414265	-0.622339
H100	H	1.519860	0.085735	-0.122339
H101	H	1.019776	-0.480192	-0.536707
H102	H	1.519776	0.019808	-0.036707
H103	H	1.392534	-0.297242	-1.108533
H104	H	1.892534	0.202758	-0.608533
C105	C	1.583771	-0.444909	-1.055604
C106	C	2.083771	0.055091	-0.555604
H107	H	1.623614	-0.475638	-1.103656
H108	H	2.123614	0.024362	-0.603656
H109	H	1.543726	-0.480020	-1.013009
H110	H	2.043726	0.019980	-0.513009
H111	H	1.629278	-0.414046	-1.013041
H112	H	2.129278	0.085954	-0.513041
H113	H	1.564660	-0.430215	-0.936676
H114	H	2.064660	0.069785	-0.436676
