data_functionalizedCrystal
_audit_creation_method	'MofGen! by Chris Wilmer'
_symmetry_space_group_name_H-M	'P1'
_symmetry_Int_Tables_number	1
_symmetry_cell_setting	triclinic
loop_
_symmetry_equiv_pos_as_xyz
  x,y,z
_cell_length_a	18.215407
_cell_length_b	18.101397
_cell_length_c	18.215399
_cell_angle_alpha	90.030634
_cell_angle_beta	90.019833
_cell_angle_gamma	90.020914
loop_
_atom_site_label
_atom_site_type_symbol
_atom_site_fract_x
_atom_site_fract_y
_atom_site_fract_z
Zn1	Zn	1.125095	-0.294828	0.416102
Zn2	Zn	1.458428	0.038505	0.749435
Zn3	Zn	1.791761	0.371838	1.082769
Zn4	Zn	1.125012	-0.418675	0.293030
Zn5	Zn	1.458346	-0.085341	0.626363
Zn6	Zn	1.791679	0.247992	0.959697
Zn7	Zn	1.002027	-0.294853	0.293050
Zn8	Zn	1.335360	0.038481	0.626383
Zn9	Zn	1.668694	0.371814	0.959716
Zn10	Zn	1.002002	-0.418633	0.416055
Zn11	Zn	1.335336	-0.085300	0.749388
Zn12	Zn	1.668669	0.248033	1.082722
O13	O	1.063534	-0.356747	0.354559
O14	O	1.396867	-0.023414	0.687893
O15	O	1.730201	0.309919	1.021226
O16	O	1.228068	-0.311264	0.399788
O17	O	1.561401	0.022069	0.733121
O18	O	1.894735	0.355403	1.066455
O19	O	1.108674	-0.402277	0.190048
O20	O	1.442007	-0.068944	0.523382
O21	O	1.775341	0.264390	0.856715
O22	O	1.018397	-0.191216	0.309401
O23	O	1.351730	0.142117	0.642734
O24	O	1.685064	0.475450	0.976067
O25	O	1.228008	-0.402253	0.309367
O26	O	1.561341	-0.068920	0.642701
O27	O	1.894674	0.264413	0.976034
O28	O	1.108814	-0.191199	0.399807
O29	O	1.442147	0.142135	0.733140
O30	O	1.775481	0.475468	1.066473
O31	O	1.018317	-0.311305	0.190063
O32	O	1.351651	0.022028	0.523396
O33	O	1.684984	0.355361	0.856729
O34	O	0.899040	-0.311265	0.309355
O35	O	1.232373	0.022068	0.642688
O36	O	1.565706	0.355401	0.976022
O37	O	1.018355	-0.402183	0.519046
O38	O	1.351688	-0.068850	0.852379
O39	O	1.685022	0.264484	1.185712
O40	O	0.899021	-0.402207	0.399726
O41	O	1.232355	-0.068873	0.733060
O42	O	1.565688	0.264460	1.066393
O43	O	1.108790	-0.311224	0.519080
O44	O	1.442124	0.022109	0.852414
O45	O	1.775457	0.355443	1.185747
O46	O	1.108650	-0.522302	0.309322
O47	O	1.441984	-0.188969	0.642655
O48	O	1.775317	0.144365	0.975988
O49	O	1.018275	-0.522272	0.399708
O50	O	1.351609	-0.188939	0.733041
O51	O	1.684942	0.144395	1.066374
C52	C	0.872328	-0.356735	0.354538
C53	C	1.205661	-0.023401	0.687871
C54	C	1.538995	0.309932	1.021205
C55	C	0.790529	-0.356747	0.354546
C56	C	1.123862	-0.023414	0.687880
C57	C	1.457196	0.309920	1.021213
C58	C	0.602345	-0.404175	0.401544
C59	C	0.935678	-0.070841	0.734877
C60	C	1.269012	0.262492	1.068211
C61	C	0.525486	-0.404177	0.401553
C62	C	0.858819	-0.070844	0.734886
C63	C	1.192153	0.262490	1.068220
C64	C	0.525475	-0.309333	0.307591
C65	C	0.858809	0.024000	0.640924
C66	C	1.192142	0.357333	0.974257
C67	C	0.602333	-0.309328	0.307586
C68	C	0.935666	0.024005	0.640919
C69	C	1.268999	0.357339	0.974252
C70	C	0.640765	-0.356753	0.354561
C71	C	0.974099	-0.023419	0.687895
C72	C	1.307432	0.309914	1.021228
C73	C	0.487049	-0.356761	0.354575
C74	C	0.820383	-0.023427	0.687909
C75	C	1.153716	0.309906	1.021242
C76	C	0.403716	-0.356763	0.354585
C77	C	0.737049	-0.023429	0.687918
C78	C	1.070382	0.309904	1.021252
C79	C	0.724104	-0.356750	0.354553
C80	C	1.057438	-0.023416	0.687886
C81	C	1.390771	0.309917	1.021219
C82	C	1.063471	-0.549158	0.354524
C83	C	1.396805	-0.215825	0.687857
C84	C	1.730138	0.117509	1.021190
C85	C	1.063512	-0.631472	0.354533
C86	C	1.396845	-0.298139	0.687866
C87	C	1.730178	0.035195	1.021200
C88	C	1.063606	-0.930563	0.354600
C89	C	1.396939	-0.597230	0.687933
C90	C	1.730272	-0.263896	1.021267
C91	C	1.120308	-0.899226	0.297579
C92	C	1.453642	-0.565893	0.630913
C93	C	1.786975	-0.232559	0.964246
C94	C	1.120505	-0.813607	0.297727
C95	C	1.453838	-0.480274	0.631060
C96	C	1.787171	-0.146941	0.964394
C97	C	1.063559	-0.782180	0.354566
C98	C	1.396892	-0.448847	0.687899
C99	C	1.730226	-0.115514	1.021233
C100	C	1.084583	-0.813187	0.432138
C101	C	1.417917	-0.479854	0.765472
C102	C	1.751250	-0.146521	1.098805
C103	C	1.085022	-0.898832	0.431828
C104	C	1.418356	-0.565499	0.765161
C105	C	1.751689	-0.232166	1.098494
C106	C	0.985727	-0.899072	0.334720
C107	C	1.319060	-0.565739	0.668053
C108	C	1.652394	-0.232406	1.001387
C109	C	0.986112	-0.813423	0.332988
C110	C	1.319445	-0.480090	0.666322
C111	C	1.652778	-0.146756	0.999655
C112	C	1.063531	-0.698321	0.354552
C113	C	1.396865	-0.364988	0.687885
C114	C	1.730198	-0.031654	1.021218
C115	C	1.063635	-1.014422	0.354620
C116	C	1.396968	-0.681089	0.687953
C117	C	1.730302	-0.347756	1.021286
C118	C	1.255487	-0.356761	0.354581
C119	C	1.588820	-0.023427	0.687914
C120	C	1.922154	0.309906	1.021247
C121	C	1.337286	-0.356766	0.354590
C122	C	1.670619	-0.023433	0.687923
C123	C	2.003953	0.309900	1.021257
C124	C	1.063579	-0.356696	0.546512
C125	C	1.396912	-0.023363	0.879846
C126	C	1.730246	0.309970	1.213179
C127	C	1.063598	-0.356674	0.628311
C128	C	1.396931	-0.023341	0.961644
C129	C	1.730265	0.309992	1.294978
C130	C	1.063617	-0.163585	0.354611
C131	C	1.396951	0.169748	0.687944
C132	C	1.730284	0.503081	1.021278
C133	C	1.063653	-0.081271	0.354633
C134	C	1.396986	0.252062	0.687967
C135	C	1.730320	0.585395	1.021300
C136	C	1.063532	-0.356745	0.163353
C137	C	1.396865	-0.023411	0.496686
C138	C	1.730199	0.309922	0.830020
C139	C	1.063655	-0.356558	0.081554
C140	C	1.396989	-0.023224	0.414888
C141	C	1.730322	0.310109	0.748221
C142	C	1.110705	-0.309268	0.816524
C143	C	1.444038	0.024066	1.149858
C144	C	1.777371	0.357399	1.483191
C145	C	1.110713	-0.309246	0.893383
C146	C	1.444047	0.024087	1.226717
C147	C	1.777380	0.357421	1.560050
C148	C	1.016544	-0.403967	0.893336
C149	C	1.349877	-0.070633	1.226669
C150	C	1.683210	0.262700	1.560003
C151	C	1.016532	-0.403984	0.816478
C152	C	1.349865	-0.070651	1.149812
C153	C	1.683198	0.262683	1.483145
C154	C	1.063616	-0.356636	0.778075
C155	C	1.396950	-0.023302	1.111408
C156	C	1.730283	0.310031	1.444741
C157	C	1.063637	-0.356597	0.931791
C158	C	1.396970	-0.023263	1.265124
C159	C	1.730304	0.310070	1.598458
C160	C	1.063646	-0.356574	1.015125
C161	C	1.396980	-0.023240	1.348458
C162	C	1.730313	0.310093	1.681791
C163	C	1.063606	-0.356657	0.694736
C164	C	1.396940	-0.023324	1.028069
C165	C	1.730273	0.310009	1.361402
H166	H	0.633616	-0.270707	0.269327
H167	H	0.966949	0.062627	0.602660
H168	H	1.300282	0.395960	0.935993
H169	H	0.978181	-0.442556	0.785172
H170	H	1.311515	-0.109223	1.118505
H171	H	1.644848	0.224111	1.451839
H172	H	0.494174	-0.270723	0.269344
H173	H	0.827507	0.062610	0.602677
H174	H	1.160841	0.395944	0.936010
N175	N	1.103999	-0.787318	0.225569
N176	N	1.437333	-0.453984	0.558903
N177	N	1.770666	-0.120651	0.892236
N178	N	1.092256	-0.832224	0.174747
N179	N	1.425589	-0.498890	0.508081
N180	N	1.758922	-0.165557	0.841414
H181	H	1.080601	-0.813661	0.123782
H182	H	1.413934	-0.480328	0.457115
H183	H	1.747267	-0.146994	0.790449
H184	H	0.494207	-0.442792	0.439812
H185	H	0.827541	-0.109458	0.773146
H186	H	1.160874	0.223875	1.106479
N187	N	1.158802	-0.260899	0.777307
N188	N	1.492136	0.072434	1.110640
N189	N	1.825469	0.405767	1.443973
N190	N	1.200841	-0.218609	0.811650
N191	N	1.534174	0.114724	1.144983
N192	N	1.867507	0.448057	1.478316
H193	H	1.234810	-0.184446	0.783955
H194	H	1.568144	0.148887	1.117288
H195	H	1.901477	0.482221	1.450622
N196	N	0.930257	-0.786589	0.381265
N197	N	1.263590	-0.453256	0.714598
N198	N	1.596923	-0.119922	1.047931
N199	N	0.918730	-0.718720	0.386478
N200	N	1.252063	-0.385387	0.719811
N201	N	1.585397	-0.052054	1.053145
H202	H	0.879284	-0.699769	0.420579
H203	H	1.212617	-0.366435	0.753913
H204	H	1.545951	-0.033102	1.087246
H205	H	1.149056	-0.270673	0.924686
H206	H	1.482390	0.062660	1.258019
H207	H	1.815723	0.395993	1.591352
H208	H	1.107314	-0.919869	0.239888
H209	H	1.440647	-0.586536	0.573222
H210	H	1.773980	-0.253202	0.906555
N211	N	1.192279	-0.926161	0.313894
N212	N	1.525612	-0.592828	0.647227
N213	N	1.858946	-0.259494	0.980561
N214	N	1.201992	-0.968335	0.367334
N215	N	1.535325	-0.635002	0.700667
N216	N	1.868659	-0.301669	1.034000
H217	H	1.252821	-0.987360	0.378859
H218	H	1.586154	-0.654027	0.712192
H219	H	1.919488	-0.320694	1.045525
H220	H	1.178193	-0.793063	0.310881
H221	H	1.511526	-0.459730	0.644214
H222	H	1.844859	-0.126397	0.977547
H223	H	0.978211	-0.442518	0.924614
H224	H	1.311544	-0.109184	1.257947
H225	H	1.644877	0.224149	1.591280
H226	H	1.045531	-0.919559	0.475777
H227	H	1.378865	-0.586226	0.809110
H228	H	1.712198	-0.252893	1.142443
N229	N	0.641604	-0.452622	0.449520
N230	N	0.974937	-0.119288	0.782853
N231	N	1.308271	0.214045	1.116187
N232	N	0.632997	-0.520951	0.444517
N233	N	0.966330	-0.187618	0.777850
N234	N	1.299664	0.145715	1.111184
H235	H	0.660722	-0.555169	0.478402
H236	H	0.994056	-0.221836	0.811735
H237	H	1.327389	0.111498	1.145068
N238	N	1.156436	-0.923814	0.452954
N239	N	1.489770	-0.590480	0.786288
N240	N	1.823103	-0.257147	1.119621
N241	N	1.205607	-0.877996	0.467824
N242	N	1.538940	-0.544663	0.801157
N243	N	1.872273	-0.211330	1.134490
H244	H	1.256045	-0.895635	0.482744
H245	H	1.589379	-0.562302	0.816078
H246	H	1.922712	-0.228969	1.149411
H247	H	1.044547	-0.792828	0.475766
H248	H	1.377880	-0.459495	0.809099
H249	H	1.711213	-0.126162	1.142432
N250	N	1.155195	-0.786200	0.453617
N251	N	1.488528	-0.452867	0.786950
N252	N	1.821862	-0.119534	1.120284
N253	N	1.190156	-0.744140	0.411929
N254	N	1.523489	-0.410807	0.745262
N255	N	1.856823	-0.077474	1.078595
H256	H	1.240027	-0.725080	0.427094
H257	H	1.573360	-0.391746	0.760428
H258	H	1.906694	-0.058413	1.093761
N259	N	0.961740	-0.926249	0.264989
N260	N	1.295073	-0.592915	0.598322
N261	N	1.628406	-0.259582	0.931655
N262	N	1.001757	-0.969162	0.229095
N263	N	1.335090	-0.635829	0.562428
N264	N	1.668424	-0.302495	0.895761
H265	H	0.984824	-0.988357	0.179844
H266	H	1.318157	-0.655023	0.513178
H267	H	1.651491	-0.321690	0.846511
H268	H	0.970259	-0.793165	0.275902
H269	H	1.303592	-0.459831	0.609235
H270	H	1.636925	-0.126498	0.942568
H271	H	0.943479	-0.919338	0.376251
H272	H	1.276812	-0.586005	0.709584
H273	H	1.610146	-0.252672	1.042917
