data_functionalizedCrystal
_audit_creation_method	'MofGen! by Chris Wilmer'
_symmetry_space_group_name_H-M	'P1'
_symmetry_Int_Tables_number	1
_symmetry_cell_setting	triclinic
loop_
_symmetry_equiv_pos_as_xyz
  x,y,z
_cell_length_a	21.295417
_cell_length_b	10.685972
_cell_length_c	10.686551
_cell_angle_alpha	98.409768
_cell_angle_beta	85.587790
_cell_angle_gamma	85.605282
loop_
_atom_site_label
_atom_site_type_symbol
_atom_site_fract_x
_atom_site_fract_y
_atom_site_fract_z
Zn1	Zn	-0.141130	-1.995712	-0.866708
Zn2	Zn	0.358870	-1.495712	-0.366708
Zn3	Zn	-0.255172	-1.979224	-0.654409
Zn4	Zn	0.244828	-1.479224	-0.154409
Zn5	Zn	-0.158647	-1.767128	-0.638161
Zn6	Zn	0.341353	-1.267128	-0.138161
Zn7	Zn	-0.255108	-1.783347	-0.850315
Zn8	Zn	0.244892	-1.283347	-0.350315
O9	O	-0.202514	-1.881353	-0.752398
O10	O	0.297486	-1.381353	-0.252398
O11	O	-0.148954	-2.171162	-0.852206
O12	O	0.351046	-1.671162	-0.352206
O13	O	-0.249726	-1.937401	-0.474619
O14	O	0.250274	-1.437401	0.025381
O15	O	-0.068228	-1.797562	-0.668540
O16	O	0.431772	-1.297562	-0.168540
O17	O	-0.232740	-2.159049	-0.696231
O18	O	0.267260	-1.659049	-0.196231
O19	O	-0.055358	-1.965502	-0.836452
O20	O	0.444642	-1.465502	-0.336452
O21	O	-0.178809	-1.781575	-0.462682
O22	O	0.321191	-1.281575	0.037318
O23	O	-0.178747	-1.591642	-0.652644
O24	O	0.321253	-1.091642	-0.152644
O25	O	-0.232630	-1.825206	-1.030124
O26	O	0.267370	-1.325206	-0.530124
O27	O	-0.249616	-1.603558	-0.808512
O28	O	0.250384	-1.103558	-0.308512
O29	O	-0.148891	-1.981229	-1.042168
O30	O	0.351109	-1.481229	-0.542168
O31	O	-0.343260	-1.953128	-0.680335
O32	O	0.156740	-1.453128	-0.180335
O33	O	-0.343212	-1.809219	-0.824266
O34	O	0.156788	-1.309219	-0.324266
C35	C	-0.216076	-1.551540	-0.727037
C36	C	0.283924	-1.051540	-0.227037
C37	C	-0.221892	-1.410447	-0.716217
C38	C	0.278108	-0.910447	-0.216217
C39	C	-0.366076	-1.881181	-0.752315
C40	C	0.133924	-1.381181	-0.252315
C41	C	-0.436041	-1.881227	-0.752331
C42	C	0.063959	-1.381227	-0.252331
C43	C	-0.468905	-1.956239	-0.677475
C44	C	0.031095	-1.456239	-0.177475
C45	C	-0.534644	-1.956301	-0.677508
C46	C	-0.034644	-1.456301	-0.177508
C47	C	-0.567518	-1.881327	-0.752382
C48	C	-0.067518	-1.381327	-0.252382
C49	C	-0.534646	-1.806310	-0.827254
C50	C	-0.034646	-1.306310	-0.327254
C51	C	-0.468907	-1.806260	-0.827228
C52	C	0.031093	-1.306260	-0.327228
N53	N	-0.674955	-1.771023	-0.753520
N54	N	-0.174955	-1.271023	-0.253520
N55	N	-0.737403	-1.771073	-0.753537
N56	N	-0.237403	-1.271073	-0.253537
C57	C	-0.765584	-1.881474	-0.752466
C58	C	-0.265584	-1.381474	-0.252466
N59	N	-0.728957	-1.991824	-0.751352
N60	N	-0.228957	-1.491824	-0.251352
N61	N	-0.666503	-1.991771	-0.751328
N62	N	-0.166503	-1.491771	-0.251328
C63	C	-0.638800	-1.881373	-0.752419
C64	C	-0.138800	-1.381373	-0.252419
C65	C	-0.869729	-1.956560	-0.677642
C66	C	-0.369729	-1.456560	-0.177642
C67	C	-0.935469	-1.956625	-0.677684
C68	C	-0.435469	-1.456625	-0.177684
C69	C	-0.935470	-1.806622	-0.827422
C70	C	-0.435470	-1.306622	-0.327422
C71	C	-0.869731	-1.806569	-0.827387
C72	C	-0.369731	-1.306569	-0.327387
C73	C	-0.836865	-1.881536	-0.752490
C74	C	-0.336865	-1.381536	-0.252490
C75	C	-0.038312	-1.881562	-0.752512
C76	C	0.461688	-1.381562	-0.252512
C77	C	0.031662	-1.881651	-0.752560
C78	C	0.531662	-1.381651	-0.252560
C79	C	-0.188800	-1.906866	-1.083492
C80	C	0.311200	-1.406866	-0.583492
C81	C	-0.182955	-1.917738	-1.224585
C82	C	0.317045	-1.417738	-0.724585
C83	C	-0.188896	-1.212453	-0.777854
C84	C	0.311104	-0.712453	-0.277854
C85	C	-0.183083	-1.353547	-0.788686
C86	C	0.316917	-0.853547	-0.288686
C87	C	-0.216127	-1.856012	-0.422598
C88	C	0.283873	-1.356012	0.077402
C89	C	-0.221784	-1.845386	-0.281525
C90	C	0.278216	-1.345386	0.218475
H91	H	-0.259569	-1.351215	-0.645885
H92	H	0.240431	-0.851215	-0.145885
H93	H	-0.561416	-1.745268	-0.888219
H94	H	-0.061416	-1.245268	-0.388219
H95	H	-0.442147	-2.017285	-0.616493
H96	H	0.057853	-1.517285	-0.116493
H97	H	-0.561407	-2.017389	-0.616552
H98	H	-0.061407	-1.517389	-0.116552
H99	H	-0.259499	-1.775129	-1.222334
H100	H	0.240501	-1.275129	-0.722334
H101	H	-0.442149	-1.745175	-0.888186
H102	H	0.057851	-1.245175	-0.388186
H103	H	-0.145242	-1.988009	-1.283784
H104	H	0.354758	-1.488009	-0.783784
H105	H	-0.145404	-1.412772	-0.859005
H106	H	0.354596	-0.912772	-0.359005
H107	H	-0.842968	-2.017607	-0.616660
H108	H	-0.342968	-1.517607	-0.116660
H109	H	-0.962235	-1.745582	-0.888392
H110	H	-0.462235	-1.245582	-0.388392
H111	H	-0.842972	-1.745481	-0.888337
H112	H	-0.342972	-1.245481	-0.388337
H113	H	-0.962225	-2.017717	-0.616730
H114	H	-0.462225	-1.517717	-0.116730
