data_functionalizedCrystal
_audit_creation_method	'MofGen! by Chris Wilmer'
_symmetry_space_group_name_H-M	'P1'
_symmetry_Int_Tables_number	1
_symmetry_cell_setting	triclinic
loop_
_symmetry_equiv_pos_as_xyz
  x,y,z
_cell_length_a	19.188930
_cell_length_b	19.288865
_cell_length_c	18.366186
_cell_angle_alpha	90.011479
_cell_angle_beta	89.977072
_cell_angle_gamma	96.859488
loop_
_atom_site_label
_atom_site_type_symbol
_atom_site_fract_x
_atom_site_fract_y
_atom_site_fract_z
O1	O	0.926143	-0.086718	-0.060792
O2	O	0.722831	-0.098391	-0.060743
O3	O	0.830361	0.008575	-0.060755
O4	O	0.818612	-0.193684	-0.060781
O5	O	0.830343	0.008581	0.060345
O6	O	0.722812	-0.098386	0.060356
O7	O	0.926125	-0.086713	0.060307
Zn8	Zn	0.824466	-0.092548	0.079559
Zn9	Zn	0.824490	-0.092555	-0.079995
O10	O	0.818594	-0.193679	0.060319
C11	C	0.696811	-0.098011	-0.000187
C12	C	0.619306	-0.096876	-0.000168
C13	C	0.829974	0.034454	-0.000203
C14	C	0.828839	0.111558	-0.000196
N15	N	0.824454	-0.092543	0.188450
C16	C	0.574377	-0.159640	-0.000187
C17	C	0.501554	-0.158574	-0.000195
C18	C	0.473662	-0.094740	-0.000198
C19	C	0.518600	-0.031967	-0.000175
C20	C	0.591423	-0.033035	-0.000159
N21	N	0.365692	-0.045949	-0.041437
N22	N	0.296513	-0.044938	-0.041453
C23	C	0.254254	-0.091519	-0.000242
N24	N	0.283784	-0.139158	0.040975
N25	N	0.352969	-0.140170	0.040988
C26	C	0.394700	-0.093575	-0.000214
C27	C	0.130361	-0.153132	-0.000269
C28	C	0.057536	-0.152063	-0.000273
C29	C	0.074584	-0.025454	-0.000259
C30	C	0.147407	-0.026525	-0.000249
C31	C	0.175291	-0.090365	-0.000257
C32	C	0.952145	-0.087093	-0.000250
C33	C	1.029649	-0.088228	-0.000274
C34	C	0.818981	-0.219558	-0.000235
C35	C	0.820116	-0.296662	-0.000246
C36	C	0.891934	0.156250	-0.000208
C37	C	0.890867	0.228697	-0.000219
C38	C	0.826703	0.256449	-0.000204
C39	C	0.763601	0.211748	-0.000196
C40	C	0.764669	0.139302	-0.000192
C41	C	0.776257	0.364742	0.042227
C42	C	0.775191	0.437187	0.042227
C43	C	0.823407	0.479895	-0.000219
C44	C	0.872699	0.450151	-0.042657
C45	C	0.873767	0.377706	-0.042653
C46	C	0.825538	0.335003	-0.000209
C47	C	0.885349	0.603143	-0.000244
C48	C	0.884280	0.675591	-0.000260
C49	C	0.757012	0.658640	-0.000230
C50	C	0.758083	0.586194	-0.000222
C51	C	0.822253	0.558449	-0.000225
N52	N	0.824506	-0.092555	-0.188886
C53	C	0.872084	-0.045202	0.226545
C54	C	0.872089	-0.045199	0.302773
C55	C	0.824470	-0.092549	0.340903
C56	C	0.776831	-0.139894	0.302798
C57	C	0.776823	-0.139891	0.226572
C58	C	0.815123	-0.155836	0.461656
C59	C	0.815136	-0.155840	0.537881
C60	C	0.824490	-0.092558	0.576010
C61	C	0.833846	-0.029269	0.537905
C62	C	0.833838	-0.029266	0.461679
C63	C	0.824473	-0.092557	0.423558
C64	C	0.872127	-0.045209	0.696761
C65	C	0.872127	-0.045205	0.772990
C66	C	0.776872	-0.139907	0.773013
C67	C	0.776869	-0.139905	0.696786
C68	C	0.824500	-0.092556	0.658664
H69	H	0.597075	-0.211624	-0.000196
O70	O	0.843776	0.038956	0.420511
H71	H	0.891246	0.040732	0.385692
O72	O	0.160441	-0.221985	-0.000270
H73	H	0.193190	-0.225492	0.049090
H74	H	0.841462	0.022262	0.568948
H75	H	0.020955	-0.203175	-0.000284
H76	H	0.910910	-0.006653	0.665721
H77	H	0.704768	0.681235	-0.000222
O78	O	0.725444	-0.190959	0.185486
H79	H	0.691600	-0.161798	0.150789
O80	O	0.044507	0.043396	-0.000254
H81	H	0.087988	0.086862	-0.000233
O82	O	0.453081	-0.226272	-0.000224
H83	H	0.484704	-0.270843	-0.000232
H84	H	0.183989	0.024585	-0.000237
O85	O	0.690031	0.537983	-0.000191
H86	H	0.645233	0.569449	-0.000174
H87	H	0.910876	-0.006646	0.333796
H88	H	0.738057	-0.178447	0.333847
O89	O	0.952335	0.723800	-0.000266
H90	H	0.997133	0.692333	-0.000259
O91	O	0.724253	0.318679	0.088015
H92	H	0.689807	0.351532	0.117533
O93	O	0.961143	0.126323	-0.000232
H94	H	1.004837	0.169577	-0.000252
H95	H	0.910911	-0.006650	0.804008
O96	O	0.725510	-0.190982	0.814126
H97	H	0.733519	-0.183034	0.873532
O98	O	0.694394	0.241676	-0.000180
H99	H	0.664077	0.223711	0.049182
O100	O	0.696615	0.091092	-0.000167
H101	H	0.651816	0.122557	-0.000154
O102	O	0.958921	0.276914	-0.000221
H103	H	1.003721	0.245451	-0.000217
H104	H	0.913902	0.353492	-0.077209
O105	O	0.923453	0.005867	0.185428
H106	H	0.894169	0.039553	0.150720
H107	H	0.738087	-0.178457	0.665766
O108	O	0.805059	-0.224097	0.578980
H109	H	0.798545	-0.268100	0.539662
O110	O	0.924706	0.496202	-0.088449
H111	H	0.915678	0.551574	-0.081333
O112	O	0.954557	0.573209	-0.000263
H113	H	0.998253	0.616461	-0.000287
O114	O	0.722031	0.469267	0.087998
H115	H	0.688674	0.427399	0.117504
H116	H	0.807494	-0.207372	0.430618
H117	H	0.495886	0.020007	-0.000187
H118	H	0.628004	0.018077	-0.000144
