data_functionalizedCrystal
_audit_creation_method	'MofGen! by Chris Wilmer'
_symmetry_space_group_name_H-M	'P1'
_symmetry_Int_Tables_number	1
_symmetry_cell_setting	triclinic
loop_
_symmetry_equiv_pos_as_xyz
  x,y,z
_cell_length_a	12.759401
_cell_length_b	12.759399
_cell_length_c	12.759393
_cell_angle_alpha	89.969094
_cell_angle_beta	89.980446
_cell_angle_gamma	90.015277
loop_
_atom_site_label
_atom_site_type_symbol
_atom_site_fract_x
_atom_site_fract_y
_atom_site_fract_z
Zn1	Zn	1.606263	-0.418211	-0.593978
Zn2	Zn	1.606153	-0.593927	-0.418297
Zn3	Zn	1.430562	-0.418263	-0.418318
Zn4	Zn	1.430553	-0.593849	-0.593939
O5	O	1.518383	-0.506062	-0.506133
O6	O	1.753270	-0.441531	-0.570682
O7	O	1.582818	-0.570678	-0.271279
O8	O	1.453919	-0.271235	-0.441645
O9	O	1.753189	-0.570628	-0.441610
O10	O	1.583006	-0.271197	-0.570702
O11	O	1.453812	-0.441619	-0.271294
O12	O	1.283540	-0.441544	-0.441606
O13	O	1.453903	-0.570496	-0.740965
O14	O	1.283533	-0.570546	-0.570634
O15	O	1.582997	-0.441456	-0.740994
O16	O	1.582809	-0.740937	-0.441571
O17	O	1.453796	-0.740880	-0.570614
C18	C	1.518318	-0.779030	-0.506109
C19	C	1.518387	-0.895806	-0.506134
C20	C	1.245415	-0.506043	-0.506119
C21	C	1.128639	-0.506060	-0.506138
C22	C	1.585641	-0.950663	-0.439018
C23	C	1.585708	-1.060387	-0.439053
C24	C	1.451259	-1.060388	-0.573324
C25	C	1.451198	-0.950666	-0.573293
C26	C	1.073801	-0.573339	-0.573211
C27	C	0.964077	-0.573352	-0.573223
C28	C	0.964038	-0.438805	-0.439078
C29	C	1.073761	-0.438787	-0.439072
C30	C	1.128679	-0.640612	-0.640276
C31	C	1.073841	-0.707898	-0.707355
C32	C	0.964117	-0.707911	-0.707366
C33	C	0.909231	-0.640639	-0.640299
C34	C	1.792416	-0.506082	-0.506148
C35	C	1.909193	-0.506091	-0.506154
C36	C	1.518461	-0.505961	-0.780166
C37	C	1.518495	-0.505918	-0.896943
C38	C	1.518476	-0.232029	-0.506180
C39	C	1.518516	-0.115252	-0.506200
C40	C	1.585719	-0.438716	-0.951822
C41	C	1.585737	-0.438671	-1.061546
C42	C	1.451303	-0.573039	-1.061503
C43	C	1.451281	-0.573078	-0.951781
C44	C	1.518365	-0.506087	-0.233166
C45	C	1.518535	-0.505834	-0.116389
H46	H	1.640352	-0.905999	-0.384334
H47	H	1.396583	-0.627720	-1.106165
H48	H	1.396432	-0.905999	-0.627952
N49	N	1.378778	-0.645573	-0.892584
H50	H	1.388962	-0.635403	-0.814755
H51	H	1.303752	-0.629208	-0.911754
N52	N	1.378783	-1.119553	-0.645750
H53	H	1.421476	-1.165006	-0.694486
H54	H	1.330155	-1.165088	-0.602948
H55	H	1.640446	-0.384028	-0.907176
H56	H	1.218022	-0.640611	-0.640273
N57	N	1.133029	-0.780456	-0.779685
H58	H	1.113972	-0.764234	-0.854783
H59	H	1.210840	-0.770211	-0.769411
H60	H	1.640474	-1.105046	-0.384402
H61	H	0.919470	-0.762691	-0.761992
N62	N	0.790885	-0.640640	-0.640319
H63	H	0.764471	-0.693466	-0.692991
H64	H	0.764502	-0.659836	-0.568181
H65	H	0.919342	-0.384036	-0.384474
H66	H	1.118411	-0.383994	-0.384463
H67	H	1.640476	-0.383947	-1.106224
