data_functionalizedCrystal
_audit_creation_method	'MofGen! by Chris Wilmer'
_symmetry_space_group_name_H-M	'P1'
_symmetry_Int_Tables_number	1
_symmetry_cell_setting	triclinic
loop_
_symmetry_equiv_pos_as_xyz
  x,y,z
_cell_length_a	42.795306
_cell_length_b	42.779610
_cell_length_c	42.784893
_cell_angle_alpha	89.990391
_cell_angle_beta	59.997669
_cell_angle_gamma	59.987809
loop_
_atom_site_label
_atom_site_type_symbol
_atom_site_fract_x
_atom_site_fract_y
_atom_site_fract_z
O1	O	0.275578	0.214462	-0.009303
O2	O	0.211601	0.169000	0.009250
O3	O	0.275587	0.169000	-0.054752
O4	O	0.211593	0.214462	0.054700
O5	O	0.223602	0.220997	-0.054752
O6	O	0.159617	0.220997	0.009251
O7	O	0.223594	0.266459	-0.009302
Zn8	Zn	0.183352	0.251984	-0.000026
Zn9	Zn	0.251843	0.183475	-0.000026
O10	O	0.159609	0.266459	0.054700
C11	C	0.384212	0.412664	-0.028198
C12	C	0.365588	0.393678	-0.028460
C13	C	0.440811	0.356052	-0.028198
C14	C	0.422100	0.337151	-0.028460
C15	C	0.384224	0.356053	-0.028195
C16	C	0.422089	0.393676	-0.028463
C17	C	0.339385	0.549183	-0.017956
C18	C	0.318670	0.587844	-0.015060
C19	C	0.279944	0.607239	-0.013604
C20	C	0.257476	0.649159	-0.010457
C21	C	0.261937	0.587969	-0.015048
C22	C	0.282656	0.549310	-0.017949
C23	C	0.321382	0.529917	-0.019403
C24	C	0.282327	0.321486	-0.017940
C25	C	0.261498	0.303667	-0.015040
C26	C	0.279384	0.266385	-0.013583
C27	C	0.256800	0.247064	-0.010434
C28	C	0.318106	0.246919	-0.015030
C29	C	0.338939	0.264734	-0.017936
C30	C	0.321043	0.302022	-0.019389
C31	C	0.567033	0.321480	-0.017957
C32	C	0.602781	0.303663	-0.015056
C33	C	0.620720	0.266379	-0.013601
C34	C	0.659479	0.247059	-0.010454
C35	C	0.602908	0.246916	-0.015043
C36	C	0.567160	0.264735	-0.017942
C37	C	0.549228	0.302017	-0.019403
C38	C	0.343843	0.487998	-0.022546
C39	C	0.361748	0.454584	-0.025052
C40	C	0.479570	0.336733	-0.025053
C41	C	0.510466	0.321334	-0.022546
C42	C	0.361637	0.336736	-0.025045
C43	C	0.343633	0.321337	-0.022536
C44	C	0.051003	0.022784	0.028112
C45	C	0.013128	0.041771	0.028375
C46	C	0.050987	0.079397	0.028115
C47	C	0.013113	0.098298	0.028378
C48	C	-0.005595	0.079396	0.028112
C49	C	0.069625	0.041772	0.028378
C50	C	0.152939	-0.113737	0.017863
C51	C	0.173781	-0.152398	0.014965
C52	C	0.155906	-0.171793	0.013509
C53	C	0.178507	-0.213714	0.010360
C54	C	0.117185	-0.152523	0.014954
C55	C	0.096343	-0.113863	0.017857
C56	C	0.114221	-0.094470	0.019312
C57	C	-0.131809	0.113965	0.017859
C58	C	-0.167558	0.131783	0.014961
C59	C	-0.185498	0.169066	0.013506
C60	C	-0.224255	0.188388	0.010358
C61	C	-0.167689	0.188532	0.014954
C62	C	-0.131947	0.170717	0.017859
C63	C	-0.114006	0.133429	0.019309
C64	C	0.152875	0.113969	0.017875
C65	C	0.173705	0.131787	0.014975
C66	C	0.155815	0.169072	0.013522
C67	C	0.178399	0.188393	0.010375
C68	C	0.117097	0.188535	0.014965
C69	C	0.096270	0.170716	0.017863
C70	C	0.114161	0.133433	0.019322
C71	C	0.091620	-0.052551	0.022456
C72	C	0.073604	-0.019136	0.024964
C73	C	0.073572	0.098716	0.024970
C74	C	0.091574	0.114115	0.022465
C75	C	-0.044352	0.098714	0.024964
C76	C	-0.075246	0.114113	0.022455
C77	C	0.384280	0.079157	-0.361609
C78	C	0.422159	0.041533	-0.380505
C79	C	0.384280	0.079157	-0.305010
C80	C	0.422159	0.041533	-0.323993
C81	C	0.440878	0.022545	-0.361608
C82	C	0.365647	0.098059	-0.323993
C83	C	0.282357	0.170858	-0.396171
C84	C	0.261520	0.188803	-0.413985
C85	C	0.279406	0.169458	-0.451260
C86	C	0.256811	0.188910	-0.470575
C87	C	0.318132	0.132169	-0.470720
C88	C	0.338968	0.114230	-0.452907
C89	C	0.321079	0.133576	-0.415631
C90	C	0.567119	-0.113974	-0.453284
C91	C	0.602874	-0.152635	-0.471224
C92	C	0.620809	-0.172031	-0.451885
C93	C	0.659572	-0.213951	-0.471330
C94	C	0.602990	-0.152761	-0.414605
C95	C	0.567241	-0.114100	-0.396669
C96	C	0.549306	-0.094709	-0.416013
C97	C	0.282357	0.170858	-0.168524
C98	C	0.261517	0.188801	-0.129871
C99	C	0.279403	0.169456	-0.110481
C100	C	0.256808	0.188908	-0.068570
C101	C	0.318125	0.132169	-0.129745
C102	C	0.338962	0.114228	-0.168396
C103	C	0.321076	0.133577	-0.187784
C104	C	0.343674	0.114119	-0.396317
C105	C	0.361685	0.098611	-0.380922
C106	C	0.361685	0.098611	-0.263101
C107	C	0.343674	0.114119	-0.229695
C108	C	0.479641	-0.019374	-0.381056
C109	C	0.510540	-0.052788	-0.396560
O110	O	0.763049	0.220991	0.009229
O111	O	0.672162	0.266452	-0.009326
O112	O	0.672153	0.266450	0.054678
O113	O	0.763057	0.220994	-0.054774
O114	O	0.672170	0.214451	0.054672
O115	O	0.672179	0.214453	-0.009331
O116	O	0.763066	0.168992	0.009224
Zn117	Zn	0.717625	0.183467	-0.000054
Zn118	Zn	0.717602	0.251978	-0.000048
O119	O	0.763074	0.168995	-0.054779
O120	O	0.159740	0.772463	0.009231
O121	O	0.223755	0.662983	-0.009325
O122	O	0.159757	0.726992	0.054679
O123	O	0.223738	0.708454	-0.054773
O124	O	0.211731	0.726991	0.054675
O125	O	0.275729	0.662982	-0.009329
O126	O	0.211713	0.772462	0.009227
Zn127	Zn	0.251973	0.717722	-0.000051
Zn128	Zn	0.183495	0.717723	-0.000047
O129	O	0.275711	0.708452	-0.054777
O130	O	0.763169	-0.337251	-0.496872
O131	O	0.672261	-0.227773	-0.451424
O132	O	0.672274	-0.291787	-0.451419
O133	O	0.763157	-0.273237	-0.496878
O134	O	0.672275	-0.291788	-0.503404
O135	O	0.672262	-0.227774	-0.503409
O136	O	0.763171	-0.337252	-0.548857
Zn137	Zn	0.717717	-0.282514	-0.534387
Zn138	Zn	0.717715	-0.282512	-0.465895
O139	O	0.763158	-0.273239	-0.548862
O140	O	0.211588	0.214467	-0.548620
O141	O	0.275585	0.169001	-0.503170
O142	O	0.211599	0.169003	-0.503165
O143	O	0.275575	0.214465	-0.548624
O144	O	0.159616	0.220999	-0.451181
O145	O	0.223602	0.220997	-0.451186
O146	O	0.159605	0.266463	-0.496636
Zn147	Zn	0.183350	0.251985	-0.465657
Zn148	Zn	0.251840	0.183478	-0.534148
O149	O	0.223592	0.266461	-0.496640
C150	C	-0.005440	0.412672	0.361556
C151	C	0.013278	0.393684	0.380453
C152	C	0.051158	0.356059	0.304958
C153	C	0.069790	0.337158	0.323942
C154	C	0.051158	0.356060	0.361557
C155	C	0.013279	0.393684	0.323940
C156	C	-0.131681	0.549191	0.396113
C157	C	-0.167436	0.587852	0.413927
C158	C	-0.185371	0.607246	0.451201
C159	C	-0.224134	0.649167	0.470516
C160	C	-0.167552	0.587976	0.470663
C161	C	-0.131804	0.549317	0.452851
C162	C	-0.113868	0.529924	0.415574
C163	C	0.095962	0.321491	0.453236
C164	C	0.116673	0.303672	0.471177
C165	C	0.155402	0.266390	0.451839
C166	C	0.177864	0.247069	0.471285
C167	C	0.173417	0.246924	0.414560
C168	C	0.152703	0.264740	0.396622
C169	C	0.113974	0.302027	0.415965
C170	C	0.095965	0.321488	0.168471
C171	C	0.116679	0.303671	0.129818
C172	C	0.155408	0.266387	0.110429
C173	C	0.177871	0.247067	0.068518
C174	C	0.173423	0.246924	0.129694
C175	C	0.152708	0.264743	0.168345
C176	C	0.113976	0.302025	0.187732
C177	C	-0.075102	0.488005	0.396262
C178	C	-0.044203	0.454591	0.380868
C179	C	0.073618	0.336741	0.263049
C180	C	0.091519	0.321342	0.229643
C181	C	0.073617	0.336742	0.381006
C182	C	0.091518	0.321343	0.396511
C183	C	0.384200	0.356274	0.361527
C184	C	0.365559	0.393899	0.380426
C185	C	0.440787	0.356278	0.304932
C186	C	0.422061	0.393903	0.323916
C187	C	0.384182	0.412888	0.361531
C188	C	0.422078	0.337375	0.323912
C189	C	0.339430	0.264567	0.396079
C190	C	0.318728	0.246621	0.413891
C191	C	0.280000	0.265963	0.451165
C192	C	0.257547	0.246509	0.470477
C193	C	0.261978	0.303252	0.470628
C194	C	0.282683	0.321194	0.452817
C195	C	0.321410	0.301850	0.415541
C196	C	0.282236	0.549406	0.453214
C197	C	0.261392	0.588067	0.471156
C198	C	0.279265	0.607465	0.451820
C199	C	0.256664	0.649384	0.471267
C200	C	0.317989	0.588196	0.414541
C201	C	0.338837	0.549535	0.396602
C202	C	0.320954	0.530143	0.415943
C203	C	0.567032	0.264584	0.168444
C204	C	0.602782	0.246643	0.129791
C205	C	0.620708	0.265990	0.110404
C206	C	0.659469	0.246540	0.068493
C207	C	0.602881	0.303277	0.129669
C208	C	0.567130	0.321216	0.168321
C209	C	0.549211	0.301864	0.187706
C210	C	0.343857	0.321309	0.396231
C211	C	0.361750	0.336818	0.380838
C212	C	0.479548	0.336827	0.263023
C213	C	0.510446	0.321321	0.229617
C214	C	0.361579	0.454808	0.380982
C215	C	0.343561	0.488222	0.396488
C216	C	1.051045	0.022803	-0.361634
C217	C	1.069668	0.041793	-0.380528
C218	C	0.994440	0.079413	-0.305034
C219	C	1.013149	0.098317	-0.324014
C220	C	1.051027	0.079417	-0.361629
C221	C	1.013167	0.041788	-0.324019
C222	C	1.095886	-0.113719	-0.396203
C223	C	1.116605	-0.152380	-0.414020
C224	C	1.155333	-0.171772	-0.451294
C225	C	1.177805	-0.213692	-0.470611
C226	C	1.173338	-0.152499	-0.470752
C227	C	1.152615	-0.113840	-0.452937
C228	C	1.113888	-0.094450	-0.415661
C229	C	1.152920	0.113996	-0.453298
C230	C	1.173748	0.131818	-0.471235
C231	C	1.155857	0.169100	-0.451895
C232	C	1.178438	0.188424	-0.471337
C233	C	1.117133	0.188563	-0.414615
C234	C	1.096302	0.170745	-0.396682
C235	C	1.114203	0.133458	-0.416027
C236	C	0.868213	0.113973	-0.168550
C237	C	0.832463	0.131788	-0.129897
C238	C	0.814519	0.169072	-0.110506
C239	C	0.775758	0.188389	-0.068595
C240	C	0.832329	0.188538	-0.129767
C241	C	0.868080	0.170721	-0.168418
C242	C	0.886016	0.133439	-0.187808
C243	C	1.091423	-0.052530	-0.396346
C244	C	1.073514	-0.019116	-0.380949
C245	C	0.955679	0.098728	-0.263125
C246	C	0.924781	0.114125	-0.229719
C247	C	1.073612	0.098738	-0.381075
C248	C	1.091615	0.114139	-0.396576
C249	C	0.051128	0.745804	0.361519
C250	C	0.013259	0.746064	0.380417
C251	C	0.051118	0.745817	0.304926
C252	C	0.013250	0.746076	0.323909
C253	C	-0.005458	0.745803	0.361523
C254	C	0.069750	0.746077	0.323906
C255	C	0.153040	0.735548	0.396070
C256	C	0.173877	0.732647	0.413881
C257	C	0.156002	0.731183	0.451154
C258	C	0.178597	0.728030	0.470466
C259	C	0.117288	0.732625	0.470615
C260	C	0.096451	0.735531	0.452806
C261	C	0.114329	0.736993	0.415532
C262	C	-0.131650	0.735530	0.453200
C263	C	-0.167393	0.732627	0.471140
C264	C	-0.185327	0.731175	0.451804
C265	C	-0.224076	0.728022	0.471250
C266	C	-0.167518	0.732630	0.414526
C267	C	-0.131782	0.735539	0.396589
C268	C	-0.113848	0.736987	0.415930
C269	C	0.153002	0.735599	0.168443
C270	C	0.173833	0.732705	0.129791
C271	C	0.155948	0.731254	0.110404
C272	C	0.178533	0.728114	0.068494
C273	C	0.117237	0.732694	0.129669
C274	C	0.096410	0.735586	0.168319
C275	C	0.114294	0.737042	0.187704
C276	C	0.091734	0.740141	0.396222
C277	C	0.073723	0.742652	0.380829
C278	C	0.073703	0.742679	0.263018
C279	C	0.091706	0.740179	0.229613
C280	C	-0.044207	0.742650	0.380972
C281	C	-0.075096	0.740138	0.396476
O282	O	0.211411	0.772687	0.496823
O283	O	0.275431	0.663210	0.451364
O284	O	0.211432	0.727223	0.451363
O285	O	0.275410	0.708674	0.496825
O286	O	0.159459	0.727218	0.503343
O287	O	0.223458	0.663204	0.503345
O288	O	0.159438	0.772682	0.548803
Zn289	Zn	0.183196	0.717943	0.534327
Zn290	Zn	0.251673	0.717949	0.465840
O291	O	0.223436	0.708669	0.548805
C292	C	0.440684	0.689639	-0.361622
C293	C	0.421965	0.689381	-0.380515
C294	C	0.384106	0.689628	-0.305024
C295	C	0.365473	0.689370	-0.324004
C296	C	0.384095	0.689643	-0.361617
C297	C	0.421976	0.689366	-0.324008
C298	C	0.566894	0.699889	-0.396189
C299	C	0.602638	0.702789	-0.414004
C300	C	0.620563	0.704252	-0.451277
C301	C	0.659314	0.707404	-0.470593
C302	C	0.602743	0.702812	-0.470734
C303	C	0.567005	0.699907	-0.452920
C304	C	0.549081	0.698445	-0.415646
C305	C	0.339274	0.699921	-0.453282
C306	C	0.318561	0.702825	-0.471218
C307	C	0.279842	0.704280	-0.451878
C308	C	0.257377	0.707434	-0.471319
C309	C	0.261838	0.702824	-0.414600
C310	C	0.282553	0.699913	-0.396667
C311	C	0.321273	0.698464	-0.416012
C312	C	0.339328	0.699844	-0.168545
C313	C	0.318623	0.702738	-0.129893
C314	C	0.279903	0.704191	-0.110502
C315	C	0.257451	0.707330	-0.068593
C316	C	0.261889	0.702752	-0.129763
C317	C	0.282594	0.699860	-0.168413
C318	C	0.321317	0.698403	-0.187802
C319	C	0.510326	0.695299	-0.396332
C320	C	0.479436	0.692789	-0.380936
C321	C	0.361657	0.692766	-0.263116
C322	C	0.343763	0.695266	-0.229712
C323	C	0.361634	0.692798	-0.381062
C324	C	0.343731	0.695311	-0.396562
H325	H	0.267993	0.533623	-0.019126
H326	H	0.552661	0.248885	-0.019117
H327	H	-0.117052	0.736709	0.468950
H328	H	0.617378	-0.168322	-0.501575
C329	C	0.219482	0.229286	-0.392925
C330	C	0.205066	0.240860	-0.416506
C331	C	0.166343	0.278152	-0.397119
H332	H	0.197227	0.229879	-0.370213
H333	H	0.225250	0.246142	-0.386496
H334	H	0.199296	0.224009	-0.422930
H335	H	0.227309	0.240277	-0.439219
H336	H	0.172111	0.295008	-0.390690
H337	H	0.144092	0.278741	-0.374407
H338	H	0.156559	0.286011	-0.413117
C339	C	0.337459	0.111168	-0.108637
C340	C	0.306484	0.107811	-0.077791
C341	C	0.324275	0.088465	-0.058339
H342	H	0.363489	0.086379	-0.125605
H343	H	0.344502	0.125117	-0.099392
H344	H	0.299448	0.093862	-0.087037
H345	H	0.280453	0.132595	-0.060814
H346	H	0.331318	0.102413	-0.049093
H347	H	0.350305	0.063677	-0.075310
H348	H	0.303260	0.086188	-0.037406
H349	H	0.370366	0.533850	0.366251
H350	H	0.552432	0.351838	-0.019144
C351	C	0.219512	0.229303	-0.108928
C352	C	0.226546	0.253266	-0.095389
C353	C	0.187859	0.290579	-0.076092
H354	H	0.211811	0.238306	-0.125976
H355	H	0.196197	0.229357	-0.087967
H356	H	0.249853	0.253214	-0.116346
H357	H	0.234241	0.244275	-0.078336
H358	H	0.164545	0.290632	-0.055131
H359	H	0.180161	0.299578	-0.093142
H360	H	0.192625	0.306842	-0.066900
C361	C	0.097698	0.228989	0.013311
C362	C	0.096227	0.229762	-0.018662
C363	C	0.078365	0.267018	-0.020200
H364	H	0.068638	0.245900	0.035902
H365	H	0.115646	0.236823	0.011358
H366	H	0.078279	0.221932	-0.016706
H367	H	0.125282	0.212859	-0.041258
H368	H	0.096313	0.274853	-0.022154
H369	H	0.049306	0.283926	0.002392
H370	H	0.077369	0.267546	-0.041896
H371	H	0.205356	0.731528	0.114106
C372	C	-0.186641	0.731021	0.511599
C373	C	-0.163276	0.732898	0.524690
C374	C	-0.180988	0.731411	0.561956
H375	H	-0.216860	0.752027	0.527966
H376	H	-0.184279	0.707727	0.511631
H377	H	-0.165643	0.756190	0.524661
H378	H	-0.133058	0.711895	0.508334
H379	H	-0.178626	0.708117	0.561988
H380	H	-0.211206	0.752417	0.578319
H381	H	-0.165135	0.732681	0.570842
H382	H	-0.117451	0.186569	0.019040
C383	C	0.622372	-0.173788	-0.393541
C384	C	0.589697	-0.173068	-0.360087
C385	C	0.607533	-0.192433	-0.340670
H386	H	0.646205	-0.199583	-0.409514
H387	H	0.632797	-0.161610	-0.387083
H388	H	0.579279	-0.185247	-0.366545
H389	H	0.565863	-0.147278	-0.344105
H390	H	0.617958	-0.180255	-0.334212
H391	H	0.631365	-0.218227	-0.356645
H392	H	0.585365	-0.191944	-0.317967
H393	H	-0.002530	0.026526	0.028802
C394	C	0.219837	0.704343	-0.393668
C395	C	0.226951	0.673341	-0.414329
C396	C	0.188267	0.674732	-0.395060
H397	H	0.212046	0.703043	-0.368901
H398	H	0.196562	0.727617	-0.391355
H399	H	0.250219	0.650074	-0.416637
H400	H	0.234737	0.674635	-0.439094
H401	H	0.164992	0.698006	-0.392747
H402	H	0.180479	0.673433	-0.370294
H403	H	0.193087	0.653701	-0.409077
H404	H	0.267922	0.698691	-0.184092
H405	H	-0.002399	0.746485	0.411323
H406	H	0.335158	0.128969	-0.308751
C407	C	0.215860	-0.173382	0.013329
C408	C	0.250133	-0.204234	-0.021002
C409	C	0.288901	-0.223575	-0.022521
H410	H	0.223583	-0.156343	0.014588
H411	H	0.211186	-0.182620	0.034328
H412	H	0.254806	-0.194995	-0.041995
H413	H	0.242424	-0.221281	-0.022268
H414	H	0.284228	-0.232813	-0.001522
H415	H	0.296621	-0.206534	-0.021261
H416	H	0.312159	-0.244512	-0.045813
H417	H	0.102633	-0.168317	0.013770
H418	H	0.437824	0.026290	-0.411412
H419	H	0.167371	0.248888	0.366271
H420	H	0.267893	0.698728	-0.366317
C421	C	0.219357	0.609047	0.511631
C422	C	0.204934	0.647053	0.523205
C423	C	0.166216	0.666390	0.560489
H424	H	0.197103	0.608595	0.512224
H425	H	0.225135	0.596838	0.528481
H426	H	0.199155	0.659259	0.506359
H427	H	0.227177	0.647517	0.522620
H428	H	0.171994	0.654181	0.577339
H429	H	0.143966	0.665935	0.561079
H430	H	0.156427	0.692178	0.568348
H431	H	0.064929	0.736707	0.468654
H432	H	0.230359	0.703937	-0.113972
H433	H	0.552442	0.248825	0.184226
H434	H	0.617279	0.319514	-0.013879
H435	H	0.334998	0.688946	-0.308759
C436	C	0.263006	0.191876	-0.189613
C437	C	0.293965	0.195252	-0.220455
C438	C	0.276154	0.214614	-0.239888
H439	H	0.255961	0.177941	-0.198865
H440	H	0.236970	0.216662	-0.172621
H441	H	0.319993	0.170470	-0.237444
H442	H	0.301013	0.209190	-0.211213
H443	H	0.250118	0.239400	-0.222896
H444	H	0.269109	0.200676	-0.249138
H445	H	0.297155	0.216910	-0.260814
H446	H	1.205278	0.115967	-0.501586
H447	H	0.370917	0.533396	-0.019141
H448	H	0.370963	0.248813	0.365728
C449	C	0.097759	0.731106	0.108684
C450	C	0.059406	0.732978	0.133826
C451	C	0.041455	0.731512	0.114509
H452	H	0.090657	0.752122	0.099473
H453	H	0.118700	0.707820	0.087739
H454	H	0.038469	0.756261	0.154764
H455	H	0.066496	0.711964	0.143039
H456	H	0.062396	0.708226	0.093564
H457	H	0.034356	0.752528	0.105298
H458	H	0.015433	0.732778	0.131564
C459	C	0.547513	0.698222	-0.355750
C460	C	0.580189	0.666238	-0.354986
C461	C	0.562349	0.664690	-0.317741
H462	H	0.537075	0.720815	-0.338838
H463	H	0.523686	0.696268	-0.347917
H464	H	0.604009	0.668196	-0.362813
H465	H	0.590631	0.643640	-0.371889
H466	H	0.538521	0.662736	-0.309908
H467	H	0.551911	0.687284	-0.300833
H468	H	0.584515	0.642987	-0.317219
C469	C	-0.007685	0.414068	0.421668
C470	C	-0.044935	0.451151	0.434229
C471	C	-0.064263	0.469935	0.472196
H472	H	-0.016267	0.400326	0.437403
H473	H	0.013054	0.415403	0.423165
H474	H	-0.065670	0.449815	0.432735
H475	H	-0.036365	0.464903	0.418504
H476	H	-0.043524	0.471269	0.473693
H477	H	-0.072842	0.456190	0.487928
H478	H	-0.089536	0.495098	0.480722
H479	H	0.267788	0.186615	-0.365820
C480	C	0.812926	0.228990	-0.108712
C481	C	0.845588	0.229761	-0.109409
C482	C	0.827730	0.267016	-0.090014
H483	H	0.802487	0.245905	-0.120864
H484	H	0.789096	0.236820	-0.082926
H485	H	0.869410	0.221936	-0.135191
H486	H	0.856030	0.212854	-0.097255
H487	H	0.803900	0.274846	-0.064227
H488	H	0.817292	0.283928	-0.102168
H489	H	0.849887	0.267543	-0.090481
H490	H	0.617342	0.704001	-0.501082
C491	C	0.443066	0.295927	-0.029040
C492	C	0.480310	0.283362	-0.029217
C493	C	0.499635	0.245390	-0.029754
H494	H	0.422336	0.294425	-0.006964
H495	H	0.451648	0.280191	-0.051368
H496	H	0.471728	0.299093	-0.006892
H497	H	0.501050	0.284854	-0.051292
H498	H	0.508217	0.229654	-0.052081
H499	H	0.478902	0.243891	-0.007677
H500	H	0.524909	0.236858	-0.029877
C501	C	0.337319	0.609324	0.393602
C502	C	0.310771	0.647308	0.417285
C503	C	0.328559	0.666784	0.398007
H504	H	0.366359	0.597194	0.387168
H505	H	0.338347	0.608905	0.370894
H506	H	0.309747	0.647724	0.439986
H507	H	0.281731	0.659448	0.423720
H508	H	0.329587	0.666365	0.375299
H509	H	0.357598	0.654651	0.391573
H510	H	0.310547	0.692559	0.414071
H511	H	1.167276	-0.098151	-0.468783
H512	H	1.064772	0.186595	-0.366330
H513	H	-0.002389	0.408929	0.308701
C514	C	-0.187119	0.229021	0.013401
C515	C	-0.163881	0.242257	0.015300
C516	C	-0.181769	0.279554	0.013874
H517	H	-0.184794	0.229058	-0.009870
H518	H	-0.217342	0.245307	0.034422
H519	H	-0.133665	0.225975	-0.005719
H520	H	-0.166204	0.242229	0.038570
H521	H	-0.211992	0.295841	0.034895
H522	H	-0.179443	0.279588	-0.009397
H523	H	-0.166008	0.288541	0.015166
H524	H	0.552737	-0.098413	-0.366318
H525	H	0.333332	0.603530	-0.013883
C526	C	0.262770	0.528411	0.474284
C527	C	0.224406	0.553555	0.510772
C528	C	0.206466	0.534226	0.530192
H529	H	0.255683	0.519192	0.460369
H530	H	0.283711	0.507465	0.476626
H531	H	0.203469	0.574494	0.508428
H532	H	0.231481	0.562775	0.524697
H533	H	0.227408	0.513279	0.532534
H534	H	0.199382	0.525007	0.516274
H535	H	0.180437	0.551281	0.554953
C536	C	0.338347	0.206146	0.392689
C537	C	0.376686	0.193051	0.356230
C538	C	0.394768	0.155770	0.336686
H539	H	0.345493	0.189784	0.406551
H540	H	0.317461	0.206104	0.390296
H541	H	0.397568	0.193091	0.358625
H542	H	0.369553	0.209403	0.342359
H543	H	0.373882	0.155727	0.334293
H544	H	0.401911	0.139411	0.350551
H545	H	0.420780	0.146882	0.311946
H546	H	0.230407	0.603763	-0.013863
C547	C	0.054324	-0.093016	0.019399
C548	C	0.043136	-0.118276	0.017492
C549	C	0.004436	-0.099087	0.018904
H550	H	0.030971	-0.072069	0.042667
H551	H	0.059018	-0.083816	-0.001625
H552	H	0.038439	-0.127471	0.038514
H553	H	0.066479	-0.139224	-0.005775
H554	H	0.009130	-0.089887	-0.002120
H555	H	-0.018914	-0.078141	0.042173
H556	H	-0.003158	-0.116224	0.017607
C557	C	1.172381	0.073489	-0.474255
C558	C	1.182748	0.049588	-0.453609
C559	C	1.200681	0.012269	-0.472903
H560	H	1.151462	0.073443	-0.476582
H561	H	1.198439	0.064430	-0.499020
H562	H	1.156694	0.058644	-0.428851
H563	H	1.203671	0.049622	-0.451281
H564	H	1.226739	0.003210	-0.497669
H565	H	1.179760	0.012227	-0.475230
H566	H	1.207721	-0.003953	-0.458900
H567	H	-0.182054	0.115932	0.013781
C568	C	-0.112411	0.073490	0.019454
C569	C	-0.135665	0.060262	0.017577
C570	C	-0.117811	0.022982	0.019049
H571	H	-0.082191	0.057177	-0.001553
H572	H	-0.114754	0.073490	0.042738
H573	H	-0.133318	0.060260	-0.005705
H574	H	-0.165885	0.076565	0.038581
H575	H	-0.120154	0.022981	0.042334
H576	H	-0.087591	0.006672	-0.001958
H577	H	-0.133589	0.014003	0.017780
H578	H	-0.182125	0.731453	0.398785
C579	C	0.097040	0.324859	0.108975
C580	C	0.058682	0.361318	0.134230
C581	C	0.040574	0.380845	0.115045
H582	H	0.117893	0.327271	0.088032
H583	H	0.089916	0.310962	0.099778
H584	H	0.065808	0.375212	0.143421
H585	H	0.037820	0.358918	0.155173
H586	H	0.033450	0.366948	0.105848
H587	H	0.061430	0.383254	0.094103
H588	H	0.014544	0.405583	0.132178
C589	C	0.547850	0.361694	0.189175
C590	C	0.571205	0.374794	0.163927
C591	C	0.553458	0.412080	0.183125
H592	H	0.517636	0.378049	0.198382
H593	H	0.550191	0.361742	0.210114
H594	H	0.568859	0.374749	0.142995
H595	H	0.601418	0.358449	0.154718
H596	H	0.555799	0.412128	0.204064
H597	H	0.523244	0.428432	0.192332
H598	H	0.569304	0.420972	0.165998
H599	H	0.064743	0.186568	0.019043
C600	C	0.337626	0.111109	-0.511194
C601	C	0.376001	0.074619	-0.524425
C602	C	0.393974	0.055206	-0.561709
H603	H	0.316718	0.108750	-0.511224
H604	H	0.344702	0.125051	-0.527483
H605	H	0.368924	0.060680	-0.508140
H606	H	0.396919	0.076966	-0.524404
H607	H	0.401050	0.069148	-0.577998
H608	H	0.373063	0.052850	-0.561736
H609	H	0.420016	0.030447	-0.570693
H610	H	0.370499	0.083870	-0.468754
H611	H	0.617515	0.216557	-0.013856
C612	C	0.622057	0.704279	-0.392927
C613	C	0.666589	0.673264	-0.413504
C614	C	0.684490	0.674622	-0.394097
H615	H	0.619763	0.727537	-0.390550
H616	H	0.606290	0.702973	-0.368181
H617	H	0.682352	0.674573	-0.438243
H618	H	0.668895	0.650001	-0.415882
H619	H	0.668722	0.673316	-0.369351
H620	H	0.682192	0.697881	-0.391721
H621	H	0.714705	0.653577	-0.408053
H622	H	0.100272	0.306244	0.308700
H623	H	0.230447	0.318997	0.500977
C624	C	0.381363	0.698264	-0.474333
C625	C	0.414103	0.666288	-0.507781
C626	C	0.452882	0.664747	-0.527179
H627	H	0.375677	0.720862	-0.480802
H628	H	0.391151	0.696304	-0.458335
H629	H	0.404317	0.668251	-0.523776
H630	H	0.419803	0.643685	-0.501323
H631	H	0.462670	0.662787	-0.511180
H632	H	0.447191	0.687346	-0.533645
H633	H	0.475102	0.643050	-0.549873
H634	H	0.437820	0.026288	-0.308749
H635	H	0.437720	0.409147	0.308676
H636	H	0.064424	0.351843	0.184256
C637	C	0.547731	-0.092980	-0.474359
C638	C	0.570998	-0.118125	-0.510848
C639	C	0.553154	-0.098796	-0.530273
H640	H	0.517512	-0.083759	-0.460448
H641	H	0.550072	-0.072036	-0.476700
H642	H	0.568653	-0.139063	-0.508505
H643	H	0.601217	-0.127348	-0.524769
H644	H	0.555495	-0.077851	-0.532614
H645	H	0.522935	-0.089575	-0.516359
H646	H	0.568940	-0.115852	-0.555034
C647	C	0.172502	0.737150	0.189417
C648	C	0.210870	0.735255	0.164271
C649	C	0.228848	0.736676	0.183579
H650	H	0.151593	0.760422	0.210367
H651	H	0.179588	0.716120	0.198617
H652	H	0.203783	0.756284	0.155077
H653	H	0.231789	0.711985	0.143321
H654	H	0.235934	0.715646	0.192778
H655	H	0.207935	0.759949	0.204528
H656	H	0.254884	0.735387	0.166520
H657	H	0.268007	0.351554	0.468666
C658	C	-0.112495	0.737094	0.356111
C659	C	-0.135841	0.735191	0.343010
C660	C	-0.118081	0.736615	0.305721
H661	H	-0.114830	0.760370	0.356032
H662	H	-0.082276	0.716068	0.339779
H663	H	-0.166052	0.756215	0.359338
H664	H	-0.133508	0.711917	0.343080
H665	H	-0.087862	0.715589	0.289389
H666	H	-0.120417	0.759891	0.305645
H667	H	-0.133916	0.735321	0.296826
C668	C	0.110245	0.021391	0.028972
C669	C	0.122635	-0.015691	0.029151
C670	C	0.160045	-0.034473	0.029705
H671	H	0.133823	0.020048	0.006900
H672	H	0.103636	0.035146	0.051304
H673	H	0.129246	-0.029443	0.006821
H674	H	0.099068	-0.014360	0.051220
H675	H	0.153436	-0.020718	0.052037
H676	H	0.183619	-0.035813	0.007633
H677	H	0.168454	-0.059634	0.029830
H678	H	0.335104	0.408926	-0.028877
H679	H	0.333222	0.704011	-0.501568
H680	H	0.370490	0.083867	-0.184078
C681	C	0.053865	0.361942	0.474224
C682	C	0.019670	0.361809	0.477580
C683	C	-0.019117	0.399064	0.496910
H684	H	0.046044	0.371013	0.499008
H685	H	0.058569	0.378232	0.460271
H686	H	0.014966	0.345525	0.491533
H687	H	0.027476	0.352746	0.452802
H688	H	-0.014413	0.415354	0.482957
H689	H	-0.026934	0.408131	0.521692
H690	H	-0.042322	0.398979	0.499186
C691	C	0.622423	0.324211	0.108563
C692	C	0.657557	0.300518	0.070595
C693	C	0.675574	0.319786	0.051144
H694	H	0.600360	0.346928	0.108960
H695	H	0.632883	0.330631	0.120726
H696	H	0.647096	0.294103	0.058435
H697	H	0.679628	0.277800	0.070187
H698	H	0.686034	0.326205	0.063307
H699	H	0.653509	0.342502	0.051543
H700	H	0.699417	0.303711	0.025381
C701	C	0.172505	0.737154	0.355609
C702	C	0.210858	0.735283	0.342383
C703	C	0.228795	0.736766	0.305115
H704	H	0.179603	0.716145	0.339295
H705	H	0.151557	0.760445	0.355615
H706	H	0.231801	0.711995	0.342374
H707	H	0.203771	0.756291	0.358686
H708	H	0.207848	0.760057	0.305121
H709	H	0.235891	0.715757	0.288804
H710	H	0.254817	0.735500	0.296138
C711	C	0.324884	0.414176	0.421619
C712	C	0.312488	0.389491	0.434169
C713	C	0.275009	0.408164	0.472106
H714	H	0.331408	0.421357	0.437397
H715	H	0.301342	0.436406	0.423062
H716	H	0.336025	0.367268	0.432729
H717	H	0.305956	0.382309	0.418402
H718	H	0.251467	0.430394	0.473548
H719	H	0.281536	0.415343	0.487880
H720	H	0.266591	0.391419	0.480624
C721	C	0.110369	0.746665	0.303653
C722	C	0.122757	0.746836	0.328338
C723	C	0.160169	0.747380	0.309695
H724	H	0.133947	0.724589	0.281413
H725	H	0.103764	0.769002	0.296506
H726	H	0.129364	0.724501	0.335479
H727	H	0.099190	0.768911	0.350578
H728	H	0.153564	0.769717	0.302549
H729	H	0.183743	0.725303	0.287456
H730	H	0.168576	0.747500	0.326442
C731	C	0.262846	0.361959	-0.019536
C732	C	0.224487	0.375187	-0.017660
C733	C	0.206534	0.412467	-0.019134
H734	H	0.255750	0.378273	0.001470
H735	H	0.283784	0.361958	-0.042821
H736	H	0.203554	0.375191	0.005622
H737	H	0.231571	0.358884	-0.038664
H738	H	0.227472	0.412466	-0.042418
H739	H	0.199441	0.428778	0.001873
H740	H	0.180509	0.421446	-0.017864
H741	H	-0.182160	0.603770	0.501012
H742	H	0.817966	0.115935	-0.114217
C743	C	0.215901	0.731090	0.392821
C744	C	0.230318	0.728241	0.416400
C745	C	0.269027	0.726811	0.397013
H746	H	0.238162	0.709423	0.370106
H747	H	0.210116	0.753726	0.386398
H748	H	0.236106	0.705609	0.422818
H749	H	0.208069	0.749906	0.439115
H750	H	0.263241	0.749446	0.390590
H751	H	0.291285	0.705143	0.374298
H752	H	0.278812	0.724881	0.413009
H753	H	-0.117082	0.533404	0.365762
H754	H	-0.181941	0.603538	0.398079
H755	H	-0.117300	0.533630	0.468699
H756	H	0.102736	0.731435	0.500963
C757	C	0.442757	0.688882	-0.421704
C758	C	0.412038	0.721467	-0.423741
C759	C	0.431173	0.721018	-0.461677
H760	H	0.468029	0.688786	-0.430330
H761	H	0.451297	0.666571	-0.437430
H762	H	0.403504	0.743772	-0.408021
H763	H	0.386765	0.721570	-0.415123
H764	H	0.439712	0.698707	-0.477403
H765	H	0.456444	0.720921	-0.470300
H766	H	0.410331	0.743124	-0.463065
C767	C	0.442919	0.414058	-0.029054
C768	C	0.418405	0.451141	-0.029232
C769	C	0.437584	0.469924	-0.029781
H770	H	0.443083	0.415401	-0.006981
H771	H	0.472394	0.400305	-0.051384
H772	H	0.388938	0.464891	-0.006904
H773	H	0.418239	0.449810	-0.051304
H774	H	0.467059	0.456171	-0.052112
H775	H	0.437748	0.471264	-0.007708
H776	H	0.420957	0.495085	-0.029906
C777	C	0.054428	0.737076	0.189234
C778	C	0.061488	0.706054	0.202750
C779	C	0.022826	0.707411	0.222014
H780	H	0.031088	0.760330	0.210202
H781	H	0.046756	0.735779	0.172160
H782	H	0.069154	0.707354	0.219823
H783	H	0.084821	0.682795	0.181789
H784	H	0.015154	0.706114	0.204940
H785	H	-0.000511	0.730666	0.242981
H786	H	0.027613	0.686361	0.231184
H787	H	0.204959	0.216564	0.113905
C788	C	0.442928	0.296147	0.303661
C789	C	0.418426	0.283579	0.328348
C790	C	0.437624	0.245602	0.309708
H791	H	0.443097	0.294638	0.281420
H792	H	0.472401	0.280419	0.296515
H793	H	0.388960	0.299303	0.335488
H794	H	0.418255	0.285079	0.350588
H795	H	0.467098	0.229873	0.302563
H796	H	0.437793	0.244096	0.287468
H797	H	0.421006	0.237069	0.326456
C798	C	0.622225	0.206140	0.108843
C799	C	0.666759	0.182182	0.095306
C800	C	0.684687	0.144868	0.076003
H801	H	0.606486	0.197132	0.125887
H802	H	0.619924	0.206087	0.087881
H803	H	0.669057	0.182234	0.116264
H804	H	0.682509	0.191178	0.078257
H805	H	0.682386	0.144815	0.055041
H806	H	0.668945	0.135865	0.093049
H807	H	0.714906	0.128610	0.066812
H808	H	-0.002413	0.746504	0.308669
C809	C	0.219467	0.324731	-0.013479
C810	C	0.205060	0.301144	-0.010635
C811	C	0.166345	0.320533	-0.009201
H812	H	0.197205	0.347449	0.008186
H813	H	0.225243	0.331160	-0.036107
H814	H	0.199282	0.294720	0.011990
H815	H	0.227311	0.278426	-0.032298
H816	H	0.172121	0.326962	-0.031829
H817	H	0.144087	0.343251	0.012464
H818	H	0.156568	0.304531	-0.007275
C819	C	0.442931	0.688713	-0.303732
C820	C	0.486368	0.655779	-0.324099
C821	C	0.505680	0.655163	-0.305427
H822	H	0.443122	0.710776	-0.302411
H823	H	0.426378	0.688566	-0.278570
H824	H	0.502917	0.655930	-0.349254
H825	H	0.486191	0.633710	-0.325420
H826	H	0.489127	0.655016	-0.280266
H827	H	0.505868	0.677228	-0.304108
H828	H	0.535153	0.632816	-0.319242
C829	C	0.992233	0.021521	-0.303627
C830	C	0.954989	0.046215	-0.266552
C831	C	0.935697	0.027558	-0.247755
H832	H	0.983653	0.014350	-0.317354
H833	H	1.012992	-0.000714	-0.302293
H834	H	0.934234	0.068443	-0.267888
H835	H	0.963557	0.053387	-0.252815
H836	H	0.956455	0.005323	-0.246421
H837	H	0.927119	0.020388	-0.261485
H838	H	0.910427	0.044309	-0.222596
H839	H	-0.002556	0.129212	0.028804
H840	H	0.997471	0.129232	-0.308772
C841	C	0.337451	0.206450	-0.013428
C842	C	0.310916	0.195015	-0.010565
C843	C	0.328718	0.157739	-0.009081
H844	H	0.366493	0.189529	-0.036037
H845	H	0.338477	0.205843	0.008253
H846	H	0.309896	0.195619	-0.032244
H847	H	0.281874	0.211925	0.012043
H848	H	0.329744	0.157132	0.012600
H849	H	0.357760	0.140822	-0.031690
H850	H	0.310715	0.149977	-0.007135
C851	C	0.097064	0.324878	0.511640
C852	C	0.058723	0.361348	0.524732
C853	C	0.040652	0.380897	0.562003
H854	H	0.089923	0.311016	0.528001
H855	H	0.117955	0.327269	0.511677
H856	H	0.037837	0.358956	0.524698
H857	H	0.065852	0.375220	0.508382
H858	H	0.061543	0.383287	0.562040
H859	H	0.033514	0.367032	0.578361
H860	H	0.014639	0.405644	0.570889
H861	H	0.552501	0.698733	-0.468765
C862	C	0.215477	0.206454	0.393620
C863	C	0.229768	0.195018	0.417302
C864	C	0.268516	0.157741	0.398023
H865	H	0.209788	0.189534	0.387186
H866	H	0.237760	0.205845	0.370912
H867	H	0.207489	0.195624	0.440003
H868	H	0.235466	0.211927	0.423737
H869	H	0.290800	0.157133	0.375315
H870	H	0.262824	0.140825	0.391590
H871	H	0.278220	0.149979	0.414087
H872	H	0.370466	0.248883	-0.019116
C873	C	0.172235	0.243560	0.189261
C874	C	0.173721	0.210105	0.188485
C875	C	0.191701	0.190583	0.207752
H876	H	0.201301	0.237080	0.177057
H877	H	0.154351	0.259491	0.215066
H878	H	0.191604	0.194177	0.162685
H879	H	0.144660	0.216574	0.200692
H880	H	0.173818	0.206514	0.233557
H881	H	0.220766	0.184106	0.195546
H882	H	0.192708	0.167883	0.207231
C883	C	0.215723	0.110600	0.013434
C884	C	0.226925	0.074141	0.015342
C885	C	0.265624	0.054615	0.013932
H886	H	0.239073	0.108189	-0.009834
H887	H	0.211023	0.124497	0.034459
H888	H	0.231629	0.060247	-0.005680
H889	H	0.203586	0.076541	0.038609
H890	H	0.260923	0.068512	0.034956
H891	H	0.288971	0.052206	-0.009337
H892	H	0.273227	0.029876	0.015229
H893	H	1.102562	0.218922	-0.398870
C894	C	1.110327	0.021397	-0.421729
C895	C	1.122735	-0.015693	-0.434287
C896	C	1.160191	-0.034493	-0.472235
H897	H	1.103774	0.035121	-0.437490
H898	H	1.133874	0.020074	-0.423190
H899	H	1.099192	-0.014368	-0.432829
H900	H	1.129296	-0.029426	-0.418537
H901	H	1.183739	-0.035816	-0.473695
H902	H	1.153635	-0.020767	-0.487992
H903	H	1.168617	-0.059662	-0.480759
H904	H	1.064352	-0.097934	-0.365852
C905	C	0.172230	0.073519	0.019534
C906	C	0.141270	0.073642	0.053874
C907	C	0.159085	0.036388	0.055417
H908	H	0.179282	0.057215	-0.001450
H909	H	0.198263	0.064470	0.018278
H910	H	0.115246	0.082687	0.055126
H911	H	0.134216	0.089938	0.074864
H912	H	0.185117	0.027338	0.054161
H913	H	0.166136	0.020087	0.034431
H914	H	0.138083	0.036467	0.078717
H915	H	1.204869	-0.168291	-0.501101
C916	C	0.172402	-0.092743	0.019463
C917	C	0.210762	-0.117888	0.017590
C918	C	0.228698	-0.098560	0.019068
H919	H	0.179494	-0.083522	-0.001542
H920	H	0.151457	-0.071798	0.042748
H921	H	0.231703	-0.138826	-0.005692
H922	H	0.203682	-0.127110	0.038594
H923	H	0.207753	-0.077615	0.042353
H924	H	0.235787	-0.089339	-0.001938
H925	H	0.254725	-0.115616	0.017801
H926	H	0.882578	0.186574	-0.184099
H927	H	0.333293	0.703912	-0.114213
C928	C	0.887646	0.073484	-0.189529
C929	C	0.864410	0.060243	-0.164386
C930	C	0.882307	0.022944	-0.183698
H931	H	0.885328	0.073444	-0.210478
H932	H	0.917868	0.057200	-0.198731
H933	H	0.834196	0.076522	-0.155190
H934	H	0.866727	0.060273	-0.143437
H935	H	0.912529	0.006661	-0.192899
H936	H	0.879987	0.022908	-0.204646
H937	H	0.866547	0.013954	-0.166640
H938	H	1.101943	-0.168068	-0.398175
C939	C	0.381353	0.698288	-0.189525
C940	C	0.392691	0.700180	-0.164383
C941	C	0.431398	0.698753	-0.183696
H942	H	0.404659	0.675015	-0.210474
H943	H	0.376610	0.719317	-0.198726
H944	H	0.397438	0.679153	-0.155187
H945	H	0.369397	0.723452	-0.143433
H946	H	0.426654	0.719782	-0.192897
H947	H	0.454700	0.675479	-0.204644
H948	H	0.439093	0.700040	-0.166639
