data_functionalizedCrystal
_audit_creation_method	'MofGen! by Chris Wilmer'
_symmetry_space_group_name_H-M	'P1'
_symmetry_Int_Tables_number	1
_symmetry_cell_setting	triclinic
loop_
_symmetry_equiv_pos_as_xyz
  x,y,z
_cell_length_a	14.809374
_cell_length_b	14.446369
_cell_length_c	14.809374
_cell_angle_alpha	90.000875
_cell_angle_beta	60.797835
_cell_angle_gamma	67.424702
loop_
_atom_site_label
_atom_site_type_symbol
_atom_site_fract_x
_atom_site_fract_y
_atom_site_fract_z
Zr1	Zr	0.955154	1.022484	-0.203635
O2	O	1.113080	0.909089	-0.350799
O3	O	0.777387	1.041192	-0.145558
O4	O	0.926533	1.079057	-0.332096
O5	O	0.993431	0.859616	-0.031862
O6	O	0.926526	1.231393	-0.332090
O7	O	0.963934	0.871223	-0.164260
O8	O	0.659731	1.163658	0.001593
O9	O	1.260225	0.927351	-0.365546
O10	O	0.857849	1.182252	-0.136447
O11	O	0.879866	1.059904	-0.037644
O12	O	1.055466	1.104485	-0.257269
O13	O	1.077484	0.982137	-0.158467
Zr14	Zr	1.002186	1.246929	0.007533
Zr15	Zr	0.955143	1.265442	-0.203626
Zr16	Zr	1.002197	1.003971	0.007524
Zr17	Zr	1.189834	1.051609	-0.227155
Zr18	Zr	0.767507	1.217804	0.031053
O19	O	1.179954	1.228221	-0.050545
O20	O	1.113064	1.254544	-0.350786
O21	O	1.179970	0.882767	-0.050558
O22	O	0.844260	1.360324	0.154696
O23	O	0.777371	1.386646	-0.145545
O24	O	0.844276	1.014869	0.154683
O25	O	0.963910	1.409797	-0.164240
O26	O	1.030808	1.190356	0.135994
O27	O	1.030815	1.038020	0.135988
O28	O	0.993406	1.398190	-0.031842
O29	O	1.260217	1.120470	-0.365539
O30	O	0.697124	1.148943	0.169436
O31	O	0.697115	1.342062	0.169443
O32	O	0.659722	1.356777	0.001600
O33	O	1.297618	0.912636	-0.197703
O34	O	1.297610	1.105755	-0.197695
O35	O	0.901874	1.164927	0.061167
O36	O	0.879856	1.287276	-0.037636
O37	O	1.077474	1.209509	-0.158458
O38	O	1.099492	1.087161	-0.059656
C39	C	0.685122	1.098275	-0.068631
C40	C	0.585494	1.085911	-0.058646
C41	C	0.978684	0.830803	-0.098063
C42	C	0.978689	0.727661	-0.098066
C43	C	0.530155	1.141092	-0.103208
C44	C	0.427184	1.128314	-0.092889
C45	C	1.103382	0.531918	-0.173954
C46	C	1.103398	0.639192	-0.174312
C47	C	0.899758	0.719784	-0.136626
C48	C	0.900535	0.612164	-0.137169
C49	C	0.931869	0.599720	0.016567
C50	C	0.934442	0.706028	0.016136
C51	C	1.272218	1.171138	-0.127471
C52	C	1.371846	1.183502	-0.137456
C53	C	0.919826	1.157863	-0.362179
C54	C	0.899855	1.165722	-0.451821
C55	C	0.978656	1.438610	-0.098040
C56	C	0.978652	1.541752	-0.098036
C57	C	0.988984	1.130648	-0.551723
C58	C	0.968345	1.138770	-0.644374
C59	C	1.037514	1.111550	0.166076
C60	C	1.057485	1.103691	0.255719
C61	C	0.685108	1.402178	-0.068620
C62	C	0.585476	1.492956	-0.058631
C63	C	0.743966	1.075119	0.195496
C64	C	0.664309	1.054895	0.295124
C65	C	0.743952	1.379022	0.195508
C66	C	0.664291	1.461941	0.295139
C67	C	1.213389	0.890391	-0.391610
C68	C	1.293050	0.807472	-0.491241
C69	C	1.272232	0.867235	-0.127483
C70	C	1.371865	0.776457	-0.137471
C71	C	1.213375	1.194294	-0.391599
C72	C	1.293031	1.214518	-0.491226
C73	C	0.527198	1.480765	-0.105528
C74	C	0.433591	1.566055	-0.096163
C75	C	0.398259	1.663532	-0.039895
C76	C	0.456547	1.675721	0.007002
C77	C	0.550157	1.590434	-0.002370
C78	C	0.638391	1.100219	0.393497
C79	C	0.563561	1.081213	0.487114
C80	C	0.514642	1.016890	0.482357
C81	C	0.540567	0.971561	0.383973
C82	C	0.615403	0.990561	0.290357
C83	C	0.615388	1.564755	0.290353
C84	C	0.540549	1.642677	0.383958
C85	C	0.514608	1.617782	0.482348
C86	C	0.563519	1.514958	0.487131
C87	C	0.638363	1.437038	0.393527
C88	C	1.341964	0.704659	-0.486456
C89	C	1.416832	0.626741	-0.580064
C90	C	1.442778	0.651636	-0.678455
C91	C	1.393860	0.754460	-0.683238
C92	C	1.319000	0.832377	-0.589632
C93	C	1.430151	0.788650	-0.090585
C94	C	1.523778	0.703366	-0.099975
C95	C	1.559112	0.605889	-0.156246
C96	C	1.500821	0.593699	-0.203139
C97	C	1.407201	0.678983	-0.193754
C98	C	1.341927	1.278846	-0.486434
C99	C	1.416762	1.297868	-0.580035
C100	C	1.442706	1.252555	-0.678428
C101	C	1.393802	1.188223	-0.683218
C102	C	1.318962	1.169208	-0.589617
H103	H	0.559003	1.197799	-0.148993
H104	H	1.320817	1.315749	-0.406327
H105	H	1.080569	1.094612	-0.568660
N106	N	1.183899	0.642414	-0.141106
H107	H	1.139366	0.698928	-0.074813
H108	H	1.219689	0.573959	-0.126154
H109	H	1.414938	1.151333	-0.763342
N110	N	0.613010	1.603588	0.048216
H111	H	0.557653	1.631215	0.127526
H112	H	0.677675	1.534743	0.033664
N113	N	1.266230	1.099821	-0.594794
H114	H	1.294030	1.074004	-0.671331
H115	H	1.289817	1.039308	-0.563740
H116	H	0.636493	0.953654	0.210262
N117	N	0.778535	1.213466	-0.429371
H118	H	0.736668	1.287016	-0.387164
H119	H	0.781087	1.212429	-0.498785
H120	H	0.876753	1.174816	-0.627430
H121	H	0.636496	1.585045	0.210248
N122	N	0.691142	1.169601	0.398645
H123	H	0.663361	1.195419	0.475176
H124	H	0.777829	1.129640	0.356520
N125	N	0.418434	1.780860	0.067687
H126	H	0.350286	1.833030	0.066505
H127	H	0.395720	1.778710	0.143706
H128	H	0.555960	1.401404	-0.151359
N129	N	0.388974	1.053205	-0.032220
H130	H	0.320830	1.054725	-0.033445
H131	H	0.454392	0.981438	-0.066450
H132	H	1.571225	0.713310	-0.061783
H133	H	0.386143	1.556110	-0.134354
H134	H	1.149078	1.067650	-0.761227
H135	H	0.808298	0.622497	-0.084721
H136	H	0.322034	1.732970	-0.032272
N137	N	1.660075	0.513901	-0.166350
H138	H	1.722204	0.483011	-0.243986
H139	H	1.691535	0.536494	-0.128046
N140	N	0.535602	1.130126	0.593215
H141	H	0.449929	1.174915	0.639883
H142	H	0.560272	1.074410	0.628745
N143	N	0.410041	1.258626	-0.198108
H144	H	0.478183	1.257110	-0.196882
H145	H	0.432784	1.238624	-0.274141
H146	H	0.678171	1.353323	0.397439
H147	H	0.556638	1.029211	-0.012854
H148	H	1.320843	0.684368	-0.406350
N149	N	0.433925	0.996404	0.583332
H150	H	0.424932	1.034884	0.646370
H151	H	0.356298	1.020527	0.591070
N152	N	0.487795	0.902192	0.378850
H153	H	0.436450	0.897046	0.453088
H154	H	0.440715	0.931815	0.345503
N155	N	0.487801	1.753573	0.378785
H156	H	0.515586	1.757511	0.302251
H157	H	0.401114	1.781845	0.420907
N158	N	0.433858	1.701830	0.583303
H159	H	0.424833	1.670464	0.646365
H160	H	0.466491	1.752493	0.579979
H161	H	0.542387	1.494702	0.567253
N162	N	1.469582	0.515845	-0.574892
H163	H	1.441771	0.511904	-0.498355
H164	H	1.446017	0.473889	-0.605965
N165	N	1.523520	0.567591	-0.779411
H166	H	1.550562	0.498683	-0.761440
H167	H	1.481851	0.567137	-0.816644
H168	H	1.164516	0.482051	-0.149067
N169	N	1.421838	0.781305	-0.789360
H170	H	1.458918	0.829627	-0.801159
H171	H	1.476643	0.716287	-0.847858
N172	N	1.151789	0.477175	-0.285570
H173	H	1.093276	0.458713	-0.287171
H174	H	1.170042	0.523944	-0.335417
N175	N	1.266241	0.943268	-0.594800
H176	H	1.294040	0.947205	-0.671336
H177	H	1.179555	0.971528	-0.552693
N178	N	1.392053	0.893779	-0.029890
H179	H	1.443198	0.888547	-0.001623
H180	H	1.397789	0.942744	-0.078883
H181	H	1.503648	1.268046	-0.754636
H182	H	1.529605	0.514322	-0.248954
N183	N	1.344339	0.665825	-0.244328
H184	H	1.380935	0.591130	-0.281394
H185	H	1.260920	0.687622	-0.187552
N186	N	1.469497	1.367256	-0.574855
H187	H	1.441708	1.393065	-0.498320
H188	H	1.556185	1.327306	-0.616977
H189	H	0.931806	0.574824	-0.221185
N190	N	1.151943	0.654072	-0.286584
H191	H	1.102849	0.649749	-0.313993
H192	H	1.152168	0.723892	-0.287229
H193	H	0.807430	0.781634	-0.083407
H194	H	0.930089	0.734720	-0.219781
N195	N	1.001782	0.536340	0.060993
H196	H	1.064496	0.469399	0.007272
H197	H	1.037612	0.576054	0.076770
H198	H	0.844488	0.768245	0.076377
N199	N	1.010902	0.709657	0.054469
H200	H	0.982015	0.695690	0.127956
H201	H	1.092359	0.655645	0.004030
N202	N	0.810374	0.613915	0.091631
H203	H	0.785713	0.582965	0.051656
H204	H	0.807356	0.578424	0.151112
