data_functionalizedCrystal
_audit_creation_method	'MofGen! by Chris Wilmer'
_symmetry_space_group_name_H-M	'P1'
_symmetry_Int_Tables_number	1
_symmetry_cell_setting	triclinic
loop_
_symmetry_equiv_pos_as_xyz
  x,y,z
_cell_length_a	18.050591
_cell_length_b	18.050589
_cell_length_c	18.050583
_cell_angle_alpha	90.031910
_cell_angle_beta	90.022021
_cell_angle_gamma	90.024227
loop_
_atom_site_label
_atom_site_type_symbol
_atom_site_fract_x
_atom_site_fract_y
_atom_site_fract_z
Zn1	Zn	1.135301	-0.295685	0.420054
Zn2	Zn	1.385301	-0.045685	0.670054
Zn3	Zn	1.635301	0.204315	0.920054
Zn4	Zn	1.885301	0.454315	1.170054
Zn5	Zn	1.135209	-0.419898	0.295873
Zn6	Zn	1.385209	-0.169898	0.545873
Zn7	Zn	1.635209	0.080102	0.795873
Zn8	Zn	1.885209	0.330102	1.045873
Zn9	Zn	1.011117	-0.295718	0.295865
Zn10	Zn	1.261117	-0.045718	0.545865
Zn11	Zn	1.511117	0.204282	0.795865
Zn12	Zn	1.761117	0.454282	1.045865
Zn13	Zn	1.011068	-0.419829	0.420009
Zn14	Zn	1.261068	-0.169829	0.670009
Zn15	Zn	1.511068	0.080171	0.920009
Zn16	Zn	1.761068	0.330171	1.170009
O17	O	1.073174	-0.357783	0.357950
O18	O	1.323174	-0.107783	0.607950
O19	O	1.573174	0.142217	0.857950
O20	O	1.823174	0.392217	1.107950
O21	O	1.239213	-0.312178	0.403604
O22	O	1.489213	-0.062178	0.653604
O23	O	1.739213	0.187822	0.903604
O24	O	1.989213	0.437822	1.153604
O25	O	1.118730	-0.403468	0.191948
O26	O	1.368730	-0.153468	0.441948
O27	O	1.618730	0.096532	0.691948
O28	O	1.868730	0.346532	0.941948
O29	O	1.027650	-0.191789	0.312354
O30	O	1.277650	0.058211	0.562354
O31	O	1.527650	0.308211	0.812354
O32	O	1.777650	0.558211	1.062354
O33	O	1.239146	-0.403436	0.312369
O34	O	1.489146	-0.153436	0.562369
O35	O	1.739146	0.096564	0.812369
O36	O	1.989146	0.346564	1.062369
O37	O	1.118887	-0.191765	0.403595
O38	O	1.368887	0.058235	0.653595
O39	O	1.618887	0.308235	0.903595
O40	O	1.868887	0.558235	1.153595
O41	O	1.027561	-0.312233	0.191942
O42	O	1.277561	-0.062233	0.441942
O43	O	1.527561	0.187767	0.691942
O44	O	1.777561	0.437767	0.941942
O45	O	0.907186	-0.312166	0.312311
O46	O	1.157186	-0.062166	0.562311
O47	O	1.407186	0.187834	0.812311
O48	O	1.657186	0.437834	1.062311
O49	O	1.027565	-0.403319	0.523940
O50	O	1.277565	-0.153319	0.773940
O51	O	1.527565	0.096681	1.023940
O52	O	1.777565	0.346681	1.273940
O53	O	0.907150	-0.403350	0.403519
O54	O	1.157150	-0.153350	0.653519
O55	O	1.407150	0.096650	0.903519
O56	O	1.657150	0.346650	1.153519
O57	O	1.118838	-0.312111	0.523973
O58	O	1.368838	-0.062111	0.773973
O59	O	1.618838	0.187889	1.023973
O60	O	1.868838	0.437889	1.273973
O61	O	1.118682	-0.523814	0.312325
O62	O	1.368682	-0.273814	0.562325
O63	O	1.618682	-0.023814	0.812325
O64	O	1.868682	0.226186	1.062325
O65	O	1.027476	-0.523763	0.403527
O66	O	1.277476	-0.273763	0.653527
O67	O	1.527476	-0.023763	0.903527
O68	O	1.777476	0.226237	1.153527
C69	C	0.880222	-0.357755	0.357909
C70	C	1.130222	-0.107755	0.607909
C71	C	1.380222	0.142245	0.857909
C72	C	1.630222	0.392245	1.107909
C73	C	0.797676	-0.357761	0.357909
C74	C	1.047676	-0.107761	0.607909
C75	C	1.297676	0.142239	0.857909
C76	C	1.547676	0.392239	1.107909
C77	C	1.073084	-0.550735	0.357938
C78	C	1.323084	-0.300735	0.607938
C79	C	1.573084	-0.050735	0.857938
C80	C	1.823084	0.199265	1.107938
C81	C	1.073114	-0.633281	0.357958
C82	C	1.323114	-0.383281	0.607958
C83	C	1.573114	-0.133281	0.857958
C84	C	1.823114	0.116719	1.107958
C85	C	0.598223	-0.308118	0.308425
C86	C	0.848223	-0.058118	0.558425
C87	C	1.098223	0.191882	0.808425
C88	C	1.348223	0.441882	1.058425
C89	C	0.548803	-0.375858	0.290154
C90	C	0.798803	-0.125858	0.540154
C91	C	1.048803	0.124142	0.790154
C92	C	1.298803	0.374142	1.040154
C93	C	0.646545	-0.357784	0.357943
C94	C	0.896545	-0.107784	0.607943
C95	C	1.146545	0.142216	0.857943
C96	C	1.396545	0.392216	1.107943
C97	C	0.548884	-0.290067	0.376212
C98	C	0.798884	-0.040067	0.626212
C99	C	1.048884	0.209933	0.876212
C100	C	1.298884	0.459933	1.126212
C101	C	0.500560	-0.357799	0.357974
C102	C	0.750560	-0.107799	0.607974
C103	C	1.000560	0.142201	0.857974
C104	C	1.250560	0.392201	1.107974
C105	C	0.598213	-0.425559	0.339637
C106	C	0.848213	-0.175559	0.589637
C107	C	1.098213	0.074441	0.839637
C108	C	1.348213	0.324441	1.089637
C109	C	0.598297	-0.339723	0.425726
C110	C	0.848297	-0.089723	0.675726
C111	C	1.098297	0.160277	0.925726
C112	C	1.348297	0.410277	1.175726
C113	C	0.548900	-0.407510	0.407481
C114	C	0.798900	-0.157510	0.657481
C115	C	1.048900	0.092490	0.907481
C116	C	1.298900	0.342490	1.157481
C117	C	0.730644	-0.357774	0.357923
C118	C	0.980644	-0.107774	0.607923
C119	C	1.230644	0.142226	0.857923
C120	C	1.480644	0.392226	1.107923
C121	C	0.416464	-0.357817	0.357994
C122	C	0.666464	-0.107817	0.607994
C123	C	0.916464	0.142183	0.857994
C124	C	1.166464	0.392183	1.107994
C125	C	1.023565	-0.832731	0.407536
C126	C	1.273565	-0.582731	0.657536
C127	C	1.523565	-0.332731	0.907536
C128	C	1.773565	-0.082731	1.157536
C129	C	1.005465	-0.882180	0.339767
C130	C	1.255465	-0.632180	0.589767
C131	C	1.505465	-0.382180	0.839767
C132	C	1.755465	-0.132180	1.089767
C133	C	1.073187	-0.784411	0.357967
C134	C	1.323187	-0.534411	0.607967
C135	C	1.573187	-0.284411	0.857967
C136	C	1.823187	-0.034411	1.107967
C137	C	1.091322	-0.882044	0.425744
C138	C	1.341322	-0.632044	0.675744
C139	C	1.591322	-0.382044	0.925744
C140	C	1.841322	-0.132044	1.175744
C141	C	1.073256	-0.930396	0.357983
C142	C	1.323256	-0.680396	0.607983
C143	C	1.573256	-0.430396	0.857983
C144	C	1.823256	-0.180396	1.107983
C145	C	1.055052	-0.832773	0.290162
C146	C	1.305052	-0.582773	0.540162
C147	C	1.555052	-0.332773	0.790162
C148	C	1.805052	-0.082773	1.040162
C149	C	1.140940	-0.832632	0.376186
C150	C	1.390940	-0.582632	0.626186
C151	C	1.640940	-0.332632	0.876186
C152	C	1.890940	-0.082632	1.126186
C153	C	1.122867	-0.882059	0.308370
C154	C	1.372867	-0.632059	0.558370
C155	C	1.622867	-0.382059	0.808370
C156	C	1.872867	-0.132059	1.058370
C157	C	1.073145	-0.700313	0.357959
C158	C	1.323145	-0.450313	0.607959
C159	C	1.573145	-0.200313	0.857959
C160	C	1.823145	0.049687	1.107959
C161	C	1.073297	-1.014493	0.357983
C162	C	1.323297	-0.764493	0.607983
C163	C	1.573297	-0.514493	0.857983
C164	C	1.823297	-0.264493	1.107983
C165	C	1.266879	-0.357811	0.357992
C166	C	1.516879	-0.107811	0.607992
C167	C	1.766879	0.142189	0.857992
C168	C	2.016879	0.392189	1.107992
C169	C	1.349425	-0.357823	0.358010
C170	C	1.599425	-0.107823	0.608010
C171	C	1.849425	0.142177	0.858010
C172	C	2.099425	0.392177	1.108010
C173	C	1.073207	-0.357703	0.551656
C174	C	1.323207	-0.107703	0.801656
C175	C	1.573207	0.142297	1.051656
C176	C	1.823207	0.392297	1.301656
C177	C	1.073221	-0.357670	0.634202
C178	C	1.323221	-0.107670	0.884202
C179	C	1.573221	0.142330	1.134202
C180	C	1.823221	0.392330	1.384202
C181	C	1.073284	-0.164077	0.357979
C182	C	1.323284	0.085923	0.607979
C183	C	1.573284	0.335923	0.857979
C184	C	1.823284	0.585923	1.107979
C185	C	1.073331	-0.081531	0.357991
C186	C	1.323331	0.168469	0.607991
C187	C	1.573331	0.418469	0.857991
C188	C	1.823331	0.668469	1.107991
C189	C	1.073184	-0.357808	0.164998
C190	C	1.323184	-0.107808	0.414998
C191	C	1.573184	0.142192	0.664998
C192	C	1.823184	0.392192	0.914998
C193	C	1.073314	-0.357633	0.082453
C194	C	1.323314	-0.107633	0.332453
C195	C	1.573314	0.142367	0.582453
C196	C	1.823314	0.392367	0.832453
C197	C	1.122905	-0.308047	0.833671
C198	C	1.372905	-0.058047	1.083671
C199	C	1.622905	0.191953	1.333671
C200	C	1.872905	0.441953	1.583671
C201	C	1.055171	-0.289866	0.883057
C202	C	1.305171	-0.039866	1.133057
C203	C	1.555171	0.210134	1.383057
C204	C	1.805171	0.460134	1.633057
C205	C	1.073250	-0.357657	0.785332
C206	C	1.323250	-0.107657	1.035332
C207	C	1.573250	0.142343	1.285332
C208	C	1.823250	0.392343	1.535332
C209	C	1.141011	-0.375791	0.883028
C210	C	1.391011	-0.125791	1.133028
C211	C	1.641011	0.124209	1.383028
C212	C	1.891011	0.374209	1.633028
C213	C	1.073285	-0.357643	0.931317
C214	C	1.323285	-0.107643	1.181317
C215	C	1.573285	0.142357	1.431317
C216	C	1.823285	0.392357	1.681317
C217	C	1.005481	-0.339441	0.833631
C218	C	1.255481	-0.089441	1.083631
C219	C	1.505481	0.160559	1.333631
C220	C	1.755481	0.410559	1.583631
C221	C	1.091367	-0.425397	0.833598
C222	C	1.341367	-0.175397	1.083598
C223	C	1.591367	0.074603	1.333598
C224	C	1.841367	0.324603	1.583598
C225	C	1.023586	-0.407242	0.882962
C226	C	1.273586	-0.157242	1.132962
C227	C	1.523586	0.092758	1.382962
C228	C	1.773586	0.342758	1.632962
C229	C	1.073231	-0.357663	0.701234
C230	C	1.323231	-0.107663	0.951234
C231	C	1.573231	0.142337	1.201234
C232	C	1.823231	0.392337	1.451234
C233	C	1.073296	-0.357637	1.015414
C234	C	1.323296	-0.107637	1.265414
C235	C	1.573296	0.142363	1.515414
C236	C	1.823296	0.392363	1.765414
H237	H	0.527065	-0.391146	0.232844
H238	H	0.777065	-0.141146	0.482844
H239	H	1.027065	0.108854	0.732844
H240	H	1.277065	0.358854	0.982844
O241	O	0.929571	-0.319019	0.805022
O242	O	1.179571	-0.069019	1.055022
O243	O	1.429571	0.180981	1.305022
O244	O	1.679571	0.430981	1.555022
H245	H	0.930161	-0.319155	0.743534
H246	H	1.180161	-0.069155	0.993534
H247	H	1.430161	0.180845	1.243534
H248	H	1.680161	0.430845	1.493534
O249	O	1.111611	-0.910711	0.501659
O250	O	1.361611	-0.660711	0.751659
O251	O	1.611611	-0.410711	1.001659
O252	O	1.861611	-0.160711	1.251659
H253	H	1.070302	-0.890953	0.542686
H254	H	1.320302	-0.640953	0.792686
H255	H	1.570302	-0.390953	1.042686
H256	H	1.820302	-0.140953	1.292686
H257	H	1.164827	-0.266067	0.812025
H258	H	1.414827	-0.016067	1.062025
H259	H	1.664827	0.233933	1.312025
H260	H	1.914827	0.483933	1.562025
H261	H	1.039674	-0.811219	0.232834
H262	H	1.289674	-0.561219	0.482834
H263	H	1.539674	-0.311219	0.732834
H264	H	1.789674	-0.061219	0.982834
H265	H	0.619791	-0.482850	0.324134
H266	H	0.869791	-0.232850	0.574134
H267	H	1.119791	0.017150	0.824134
H268	H	1.369791	0.267150	1.074134
O269	O	1.111683	-0.501262	0.804792
O270	O	1.361683	-0.251262	1.054792
O271	O	1.611683	-0.001262	1.304792
O272	O	1.861683	0.248738	1.554792
H273	H	1.071038	-0.542545	0.825399
H274	H	1.321038	-0.292545	1.075399
H275	H	1.571038	-0.042545	1.325399
H276	H	1.821038	0.207455	1.575399
H277	H	0.527379	-0.449566	0.449370
H278	H	0.777379	-0.199566	0.699370
H279	H	1.027379	0.050434	0.949370
H280	H	1.277379	0.300434	1.199370
H281	H	0.981562	-0.449190	0.904469
H282	H	1.231562	-0.199190	1.154469
H283	H	1.481562	0.050810	1.404469
H284	H	1.731562	0.300810	1.654469
H285	H	1.198192	-0.810855	0.391613
H286	H	1.448192	-0.560855	0.641613
H287	H	1.698192	-0.310855	0.891613
H288	H	1.948192	-0.060855	1.141613
H289	H	0.620054	-0.324414	0.483019
H290	H	0.870054	-0.074414	0.733019
H291	H	1.120054	0.175586	0.983019
H292	H	1.370054	0.425586	1.233019
H293	H	0.527176	-0.232801	0.391625
H294	H	0.777176	0.017199	0.641625
H295	H	1.027176	0.267199	0.891625
H296	H	1.277176	0.517199	1.141625
O297	O	0.967904	-0.804025	0.462981
O298	O	1.217904	-0.554025	0.712981
O299	O	1.467904	-0.304025	0.962981
O300	O	1.717904	-0.054025	1.212981
H301	H	0.911733	-0.823869	0.447682
H302	H	1.161733	-0.573869	0.697682
H303	H	1.411733	-0.323869	0.947682
H304	H	1.661733	-0.073869	1.197682
O305	O	0.929611	-0.911010	0.319350
O306	O	1.179611	-0.661010	0.569350
O307	O	1.429611	-0.411010	0.819350
O308	O	1.679611	-0.161010	1.069350
H309	H	0.888489	-0.891258	0.360567
H310	H	1.138489	-0.641258	0.610567
H311	H	1.388489	-0.391258	0.860567
H312	H	1.638489	-0.141258	1.110567
O313	O	0.626927	-0.252546	0.252902
O314	O	0.876927	-0.002546	0.502902
O315	O	1.126927	0.247454	0.752902
O316	O	1.376927	0.497454	1.002902
H317	H	0.607105	-0.267727	0.196690
H318	H	0.857105	-0.017727	0.446690
H319	H	1.107105	0.232273	0.696690
H320	H	1.357105	0.482273	0.946690
O321	O	1.216893	-0.396125	0.911775
O322	O	1.466893	-0.146125	1.161775
O323	O	1.716893	0.103875	1.411775
O324	O	1.966893	0.353875	1.661775
H325	H	1.254811	-0.405744	0.864344
H326	H	1.504811	-0.155744	1.114344
H327	H	1.754811	0.094256	1.364344
H328	H	2.004811	0.344256	1.614344
O329	O	1.178495	-0.910576	0.252797
O330	O	1.428495	-0.660576	0.502797
O331	O	1.678495	-0.410576	0.752797
O332	O	1.928495	-0.160576	1.002797
H333	H	1.163296	-0.890736	0.196621
H334	H	1.413296	-0.640736	0.446621
H335	H	1.663296	-0.390736	0.696621
H336	H	1.913296	-0.140736	0.946621
O337	O	1.034883	-0.213981	0.911843
O338	O	1.284883	0.036019	1.161843
O339	O	1.534883	0.286019	1.411843
O340	O	1.784883	0.536019	1.661843
H341	H	1.076165	-0.172902	0.892110
H342	H	1.326165	0.077098	1.142110
H343	H	1.576165	0.327098	1.392110
H344	H	1.826165	0.577098	1.642110
