data_functionalizedCrystal
_audit_creation_method	'MofGen! by Chris Wilmer'
_symmetry_space_group_name_H-M	'P1'
_symmetry_Int_Tables_number	1
_symmetry_cell_setting	triclinic
loop_
_symmetry_equiv_pos_as_xyz
  x,y,z
_cell_length_a	9.065218
_cell_length_b	9.198806
_cell_length_c	9.065218
_cell_angle_alpha	89.999259
_cell_angle_beta	85.015885
_cell_angle_gamma	89.995376
loop_
_atom_site_label
_atom_site_type_symbol
_atom_site_fract_x
_atom_site_fract_y
_atom_site_fract_z
O1	O	1.960402	-0.120890	0.216352
O2	O	1.531117	-0.120891	0.234099
O3	O	1.754633	-0.120887	0.010583
O4	O	1.736886	-0.120893	0.439868
O5	O	1.754612	0.120898	0.010585
O6	O	1.531097	0.120894	0.234101
O7	O	1.960381	0.120895	0.216354
Cu8	Cu	1.745737	0.142971	0.225228
Cu9	Cu	1.745762	-0.142967	0.225225
O10	O	1.736866	0.120892	0.439870
C11	C	1.476120	0.000001	0.232394
C12	C	1.312277	0.000000	0.227294
N13	N	1.745731	0.344085	0.225229
C14	C	1.839575	0.416284	0.130966
C15	C	1.839596	0.583696	0.130963
C16	C	2.015378	-0.000000	0.218059
C17	C	2.179221	-0.000009	0.223158
C18	C	1.752917	0.000003	-0.044403
C19	C	1.747817	-0.000004	-0.208245
N20	N	1.745768	0.655919	0.225224
C21	C	1.738582	-0.000002	0.494855
C22	C	1.743681	-0.000004	0.658698
H23	H	1.919900	0.354159	0.050260
C24	C	1.638564	0.573415	0.333008
C25	C	1.552031	0.672502	0.419993
C26	C	1.453273	0.596542	0.519312
H27	H	1.576184	0.514042	0.279374
H28	H	1.692660	0.514061	0.395034
H29	H	1.497938	0.731831	0.357975
H30	H	1.614370	0.731878	0.473659
H31	H	1.507370	0.537187	0.581338
H32	H	1.390903	0.537172	0.465666
H33	H	1.394558	0.663760	0.578352
C34	C	1.946653	0.666289	0.023109
C35	C	1.920431	0.629349	-0.122150
C36	C	2.019036	0.705393	-0.221548
H37	H	1.932528	0.767828	0.037204
H38	H	2.045464	0.641367	0.040108
H39	H	1.821644	0.654281	-0.139143
H40	H	1.934566	0.527823	-0.136292
H41	H	2.117847	0.680471	-0.204548
H42	H	2.004903	0.806928	-0.207439
H43	H	2.001267	0.680330	-0.320116
H44	H	1.665396	0.406212	0.305923
