data_functionalizedCrystal
_audit_creation_method	'MofGen! by Chris Wilmer'
_symmetry_space_group_name_H-M	'P1'
_symmetry_Int_Tables_number	1
_symmetry_cell_setting	triclinic
loop_
_symmetry_equiv_pos_as_xyz
  x,y,z
_cell_length_a	10.654550
_cell_length_b	10.654551
_cell_length_c	9.730223
_cell_angle_alpha	89.998425
_cell_angle_beta	89.993189
_cell_angle_gamma	84.485132
loop_
_atom_site_label
_atom_site_type_symbol
_atom_site_fract_x
_atom_site_fract_y
_atom_site_fract_z
O1	O	1.667840	0.176398	-0.114394
O2	O	1.302361	0.193204	-0.114371
O3	O	1.493503	0.002062	-0.114383
O4	O	1.476698	0.367540	-0.114381
O5	O	1.493491	0.002057	0.114197
O6	O	1.302349	0.193199	0.114209
O7	O	1.667827	0.176393	0.114186
Zn8	Zn	1.485086	0.184795	0.150490
Zn9	Zn	1.485103	0.184802	-0.150674
O10	O	1.476686	0.367535	0.114199
C11	C	1.255557	0.191968	-0.000078
C12	C	1.116114	0.188276	-0.000069
C13	C	1.036629	0.300817	-0.000089
C14	C	0.905608	0.297341	-0.000113
C15	C	0.933570	0.068771	-0.000104
C16	C	1.064589	0.072249	-0.000070
C17	C	1.088154	0.416844	-0.000088
C18	C	1.008667	0.529395	-0.000109
C19	C	0.877647	0.525918	-0.000133
C20	C	0.826112	0.409891	-0.000136
C21	C	1.492263	-0.044739	-0.000096
C22	C	1.488570	-0.184182	-0.000105
C23	C	1.486845	-0.249691	-0.124702
C24	C	1.483364	-0.380711	-0.124695
C25	C	1.483341	-0.380702	0.124515
C26	C	1.486812	-0.249683	0.124507
C27	C	1.488603	-0.184189	-0.249314
C28	C	1.486879	-0.249699	-0.373921
C29	C	1.483399	-0.380719	-0.373914
C30	C	1.481643	-0.446230	-0.249301
C31	C	1.714632	0.177629	-0.000109
C32	C	1.854075	0.181321	-0.000127
C33	C	1.477926	0.414336	-0.000091
C34	C	1.481619	0.553779	-0.000091
N35	N	1.485084	0.184790	0.356026
N36	N	1.485114	0.184798	-0.356211
C37	C	1.569751	0.100188	0.427946
C38	C	1.569763	0.100188	0.571829
C39	C	1.400439	0.269403	0.571859
C40	C	1.400421	0.269396	0.427979
H41	H	0.812931	0.617562	-0.000136
Br42	Br	0.648296	0.405175	-0.000142
H43	H	1.638687	0.031295	0.369366
H44	H	1.331469	0.338289	0.369417
Br45	Br	1.078603	0.686852	-0.000084
Br46	Br	1.489157	-0.160770	0.293605
H47	H	1.638705	0.031297	0.630383
Br48	Br	1.285545	0.384224	0.669514
Br49	Br	1.489255	-0.160795	-0.543030
H50	H	1.478790	-0.552913	-0.249306
Br51	Br	1.265966	0.421568	-0.000069
H52	H	0.891600	-0.025693	-0.000129
Br53	Br	1.481040	-0.469620	-0.543019
H54	H	1.491440	-0.077506	-0.249334
Br55	Br	1.172470	-0.080488	-0.000035
Br56	Br	1.480957	-0.469610	0.293621
