data_functionalizedCrystal
_audit_creation_method	'MofGen! by Chris Wilmer'
_symmetry_space_group_name_H-M	'P1'
_symmetry_Int_Tables_number	1
_symmetry_cell_setting	triclinic
loop_
_symmetry_equiv_pos_as_xyz
  x,y,z
_cell_length_a	16.120484
_cell_length_b	16.625547
_cell_length_c	16.625539
_cell_angle_alpha	90.023545
_cell_angle_beta	92.870299
_cell_angle_gamma	87.074925
loop_
_atom_site_label
_atom_site_type_symbol
_atom_site_fract_x
_atom_site_fract_y
_atom_site_fract_z
Zn1	Zn	-0.331940	-1.216356	-0.472307
Zn2	Zn	-0.471359	-1.209423	-0.344303
Zn3	Zn	-0.331962	-1.081525	-0.337474
Zn4	Zn	-0.471312	-1.074646	-0.479076
O5	O	-0.401643	-1.145488	-0.408290
O6	O	-0.350445	-1.328268	-0.455353
O7	O	-0.452898	-1.192434	-0.230566
O8	O	-0.215293	-1.105191	-0.349669
O9	O	-0.452876	-1.323175	-0.361309
O10	O	-0.215277	-1.204251	-0.448731
O11	O	-0.350483	-1.098468	-0.225549
O12	O	-0.350437	-0.967781	-0.356232
O13	O	-0.452794	-1.093467	-0.591009
O14	O	-0.452816	-0.962727	-0.460266
O15	O	-0.350398	-1.197581	-0.586036
O16	O	-0.588019	-1.185764	-0.367872
O17	O	-0.587984	-1.086744	-0.466889
C18	C	-0.401624	-0.935998	-0.408243
C19	C	-0.401636	-0.846376	-0.408243
C20	C	-0.401637	-0.773594	-0.408250
C21	C	-0.401640	-0.682285	-0.408267
C22	C	-0.401647	-0.609508	-0.408285
C23	C	-0.401651	-0.518194	-0.408301
C24	C	-0.618252	-1.134777	-0.418873
C25	C	-0.710918	-1.130269	-0.423428
C26	C	-0.880579	-1.122043	-0.431760
C27	C	-0.921867	-1.169077	-0.384833
C28	C	-1.016272	-1.164500	-0.389469
C29	C	-0.786165	-1.126619	-0.427125
C30	C	-0.184189	-1.156262	-0.397683
C31	C	-0.091523	-1.160853	-0.393163
C32	C	-0.401588	-1.145530	-0.618596
C33	C	-0.401565	-1.145548	-0.708216
C34	C	-0.401660	-0.355796	-0.408328
C35	C	-0.401658	-0.445417	-0.408319
C36	C	-0.401546	-1.145562	-0.780998
C37	C	-0.401515	-1.145582	-0.872305
C38	C	-0.401486	-1.145603	-0.945080
C39	C	-0.401456	-1.145624	-1.036393
C40	C	-0.401638	-1.145495	-0.198799
C41	C	-0.401426	-1.145645	-0.109168
H42	H	-0.886312	-1.212781	-0.341176
H43	H	-0.916131	-1.078341	-0.475413
