data_functionalizedCrystal
_audit_creation_method	'MofGen! by Chris Wilmer'
_symmetry_space_group_name_H-M	'P1'
_symmetry_Int_Tables_number	1
_symmetry_cell_setting	triclinic
loop_
_symmetry_equiv_pos_as_xyz
  x,y,z
_cell_length_a	16.109301
_cell_length_b	16.109304
_cell_length_c	14.586319
_cell_angle_alpha	90.001538
_cell_angle_beta	90.001418
_cell_angle_gamma	83.462059
loop_
_atom_site_label
_atom_site_type_symbol
_atom_site_fract_x
_atom_site_fract_y
_atom_site_fract_z
O1	O	1.103133	0.106867	0.076177
O2	O	0.861071	0.120166	0.076190
O3	O	0.988750	-0.007515	0.076184
O4	O	0.975453	0.234547	0.076183
O5	O	0.988740	-0.007518	-0.076297
O6	O	0.861060	0.120163	-0.076290
O7	O	1.103122	0.106863	-0.076304
Cu8	Cu	0.982090	0.113513	-0.090220
Cu9	Cu	0.982103	0.113516	0.090106
O10	O	0.975443	0.234544	-0.076297
C11	C	0.830091	0.119626	-0.000048
C12	C	0.737795	0.118010	-0.000043
C13	C	0.988206	-0.038491	-0.000055
C14	C	0.986590	-0.130786	-0.000048
C15	C	0.515524	0.190018	-0.000053
C16	C	0.428803	0.188494	-0.000059
C17	C	0.448676	0.037005	-0.000055
C18	C	0.535395	0.038530	-0.000056
C19	C	0.568816	0.115039	-0.000050
C20	C	0.395377	0.111990	-0.000055
C21	C	0.301351	0.110337	-0.000062
C22	C	0.662848	0.116693	-0.000046
C23	C	1.134102	0.107404	-0.000064
C24	C	1.226398	0.109019	-0.000063
C25	C	0.982862	-0.343122	0.083066
C26	C	0.981336	-0.429842	0.083065
C27	C	0.981329	-0.429842	-0.083178
C28	C	0.982849	-0.343123	-0.083176
C29	C	0.983620	-0.299766	-0.000052
C30	C	0.980573	-0.473205	-0.000054
C31	C	0.978919	-0.567231	-0.000056
C32	C	0.985273	-0.205734	-0.000050
C33	C	0.975987	0.265520	-0.000057
C34	C	0.977603	0.357816	-0.000057
N35	N	0.982088	0.113510	-0.217052
C36	C	1.038646	0.056991	-0.548049
C37	C	1.038644	0.056992	-0.452067
C38	C	0.925551	0.170037	-0.452072
C39	C	0.925557	0.170040	-0.548051
C40	C	0.982104	0.113513	-0.596037
C41	C	0.982095	0.113510	-0.404077
C42	C	0.982093	0.113511	-0.300009
C43	C	0.982108	0.113513	-0.700111
N44	N	0.982112	0.113513	0.216938
H45	H	0.385416	0.249550	-0.000064
H46	H	0.421454	-0.025285	-0.000065
H47	H	0.578788	-0.022530	-0.000056
H48	H	1.084687	0.010968	-0.412998
C49	C	0.980343	-0.476937	0.173280
C50	C	0.907972	-0.517327	0.178151
C51	C	0.907023	-0.560709	0.261252
H52	H	1.028145	-0.517182	0.176822
H53	H	0.980974	-0.438712	0.222810
H54	H	0.907349	-0.555548	0.128636
H55	H	0.860159	-0.477101	0.174625
H56	H	0.907653	-0.522485	0.310782
H57	H	0.954827	-0.600950	0.264787
H58	H	0.857917	-0.588113	0.264572
C59	C	0.980331	-0.476855	-0.173450
C60	C	0.909203	-0.446407	-0.223589
C61	C	0.908253	-0.489702	-0.306748
H62	H	1.028976	-0.469024	-0.207712
H63	H	0.979275	-0.534714	-0.161585
H64	H	0.910267	-0.388562	-0.235457
H65	H	0.860546	-0.454239	-0.189356
H66	H	0.907197	-0.547561	-0.294883
H67	H	0.956902	-0.481868	-0.341002
H68	H	0.859990	-0.469054	-0.340774
C69	C	0.864122	0.231276	-0.600278
C70	C	0.813262	0.186976	-0.655409
C71	C	0.756671	0.243357	-0.703542
H72	H	0.830359	0.264962	-0.558060
H73	H	0.894003	0.265881	-0.637766
H74	H	0.783383	0.152385	-0.617924
H75	H	0.847002	0.153294	-0.697643
H76	H	0.786552	0.277962	-0.741030
H77	H	0.722914	0.277039	-0.661317
H78	H	0.722161	0.213307	-0.740959
H79	H	1.084692	0.010964	-0.587116
C80	C	0.983501	-0.295977	-0.173396
C81	C	0.912875	-0.236834	-0.178255
C82	C	0.913438	-0.193395	-0.261352
H83	H	1.032491	-0.268425	-0.176939
H84	H	0.982785	-0.334186	-0.222929
H85	H	0.913599	-0.198631	-0.128736
H86	H	0.863874	-0.264365	-0.174728
H87	H	0.912722	-0.231604	-0.310885
H88	H	0.962431	-0.165848	-0.264888
H89	H	0.865516	-0.153267	-0.264664
H90	H	0.879510	0.216060	-0.412992
C91	C	0.551927	0.273021	-0.000197
C92	C	0.601149	0.278309	-0.078632
C93	C	0.634703	0.354756	-0.078790
H94	H	0.507851	0.317530	-0.000247
H95	H	0.585389	0.276776	0.052950
H96	H	0.567688	0.274563	-0.131765
H97	H	0.645237	0.233818	-0.078598
H98	H	0.668166	0.358511	-0.025643
H99	H	0.590623	0.399259	-0.078839
H100	H	0.668110	0.358351	-0.132003
C101	C	0.983645	-0.296190	0.173408
C102	C	0.982631	-0.352722	0.246198
C103	C	0.983337	-0.309520	0.329436
H104	H	1.032679	-0.268710	0.176998
H105	H	0.935764	-0.256023	0.176913
H106	H	1.030507	-0.392875	0.242694
H107	H	0.933600	-0.380205	0.242638
H108	H	0.935456	-0.269353	0.332941
H109	H	1.032372	-0.282041	0.333016
H110	H	0.982642	-0.347870	0.378834
