data_functionalizedCrystal
_audit_creation_method	'MofGen! by Chris Wilmer'
_symmetry_space_group_name_H-M	'P1'
_symmetry_Int_Tables_number	1
_symmetry_cell_setting	triclinic
loop_
_symmetry_equiv_pos_as_xyz
  x,y,z
_cell_length_a	31.640172
_cell_length_b	31.640172
_cell_length_c	27.440280
_cell_angle_alpha	59.991654
_cell_angle_beta	90.008872
_cell_angle_gamma	59.998920
loop_
_atom_site_label
_atom_site_type_symbol
_atom_site_fract_x
_atom_site_fract_y
_atom_site_fract_z
Zr1	Zr	0.407155	0.462624	-0.063985
O2	O	0.339653	0.550822	-0.141832
O3	O	0.427851	0.374437	-0.040109
O4	O	0.427835	0.462628	-0.141801
O5	O	0.339678	0.462624	0.040062
O6	O	0.497392	0.462620	-0.141790
O7	O	0.339668	0.462631	-0.040140
O8	O	0.497420	0.304861	0.040117
O9	O	0.339650	0.620382	-0.141845
O10	O	0.488584	0.410699	-0.029933
O11	O	0.436681	0.410700	0.029913
O12	O	0.436663	0.514535	-0.089816
O13	O	0.384760	0.514536	-0.029970
Zr14	Zr	0.518106	0.462599	0.063945
Zr15	Zr	0.518091	0.462610	-0.063968
Zr16	Zr	0.407170	0.462613	0.063928
Zr17	Zr	0.407151	0.573564	-0.064007
Zr18	Zr	0.518110	0.351659	0.063967
O19	O	0.497410	0.550786	0.040069
O20	O	0.497389	0.550802	-0.141807
O21	O	0.339674	0.550806	0.040044
O22	O	0.585608	0.374401	0.141791
O23	O	0.585587	0.374417	-0.040085
O24	O	0.427872	0.374421	0.141767
O25	O	0.585583	0.462600	-0.040103
O26	O	0.497426	0.462595	0.141760
O27	O	0.427868	0.462604	0.141749
O28	O	0.585592	0.462593	0.040100
O29	O	0.427829	0.620371	-0.141832
O30	O	0.497432	0.304852	0.141791
O31	O	0.585611	0.304841	0.141805
O32	O	0.585599	0.304850	0.040131
O33	O	0.339662	0.620373	-0.040171
O34	O	0.427841	0.620362	-0.040158
O35	O	0.488598	0.410689	0.089775
O36	O	0.540501	0.410687	0.029929
O37	O	0.488580	0.514523	-0.029954
O38	O	0.436677	0.514524	0.029892
C39	C	0.462636	0.323842	0.000007
C40	C	0.462638	0.276745	0.000016
C41	C	0.424305	0.023079	-0.044229
C42	C	0.424301	-0.153902	-0.044245
O43	O	0.391719	-0.144188	-0.081850
N44	N	0.462627	-0.214362	-0.000047
C45	C	0.500958	-0.230578	0.044156
O46	O	0.533560	-0.286064	0.081745
C47	C	0.500964	-0.053597	0.044169
C48	C	0.462633	0.006864	-0.000028
C49	C	0.385977	0.083537	-0.088423
C50	C	0.385977	0.127780	-0.088416
C51	C	0.424305	0.111564	-0.044216
C52	C	0.462632	0.051106	-0.000022
C53	C	0.539297	-0.069813	0.088369
C54	C	0.539296	-0.025562	0.088368
C55	C	0.500965	0.034899	0.044170
C56	C	0.500960	0.079133	0.044185
N57	N	0.462634	0.139593	-0.000013
C58	C	0.424306	0.155809	-0.044213
C59	C	0.500952	-0.323493	0.044146
C60	C	0.500950	-0.367738	0.044143
C61	C	0.424293	-0.291058	-0.044258
C62	C	0.424294	-0.246813	-0.044253
C63	C	0.462626	-0.263032	-0.000052
C64	C	0.424309	0.248718	-0.044196
C65	C	0.424311	0.292961	-0.044184
C66	C	0.500969	0.216278	0.044215
C67	C	0.500965	0.172039	0.044206
C68	C	0.462633	0.188263	-0.000005
O69	O	0.533529	0.069463	0.081766
O70	O	0.391717	0.211298	-0.081804
C71	C	0.424305	-0.021163	-0.044235
C72	C	0.462633	-0.081621	-0.000041
C73	C	0.500961	-0.097836	0.044159
C74	C	0.462631	-0.125866	-0.000044
C75	C	0.424304	-0.109650	-0.044244
C76	C	0.385978	-0.049189	-0.088442
C77	C	0.385978	-0.004947	-0.088436
C78	C	0.539287	-0.158297	0.088357
C79	C	0.539283	-0.202536	0.088348
C80	C	0.500956	-0.186321	0.044147
C81	C	0.323867	0.462629	-0.000042
C82	C	0.276772	0.462635	-0.000049
C83	C	0.011868	0.408405	0.031250
C84	C	-0.165117	0.408394	0.031262
O85	O	-0.164953	0.362298	0.057867
N86	N	-0.214349	0.462595	0.000003
C87	C	-0.219334	0.516802	-0.031258
O88	O	-0.265269	0.562903	-0.057840
C89	C	-0.042349	0.516812	-0.031266
C90	C	0.006882	0.462608	-0.000010
C91	C	0.061097	0.354205	0.062504
C92	C	0.105341	0.354208	0.062498
C93	C	0.100355	0.408411	0.031238
C94	C	0.051126	0.462611	-0.000016
C95	C	-0.047334	0.571019	-0.062523
C96	C	-0.003083	0.571016	-0.062521
C97	C	0.046148	0.516812	-0.031265
C98	C	0.090383	0.516817	-0.031282
N99	N	0.139615	0.462616	-0.000023
C100	C	0.144601	0.408413	0.031237
C101	C	-0.312251	0.516793	-0.031253
C102	C	-0.356497	0.516791	-0.031252
C103	C	-0.302277	0.408383	0.031269
C104	C	-0.258031	0.408386	0.031264
C105	C	-0.263019	0.462593	0.000006
C106	C	0.237513	0.408424	0.031222
C107	C	0.281758	0.408432	0.031211
C108	C	0.227534	0.516840	-0.031307
C109	C	0.183293	0.516832	-0.031299
C110	C	0.188286	0.462619	-0.000030
O111	O	0.090259	0.562889	-0.057868
O112	O	0.190541	0.362319	0.057826
C113	C	-0.032375	0.408402	0.031256
C114	C	-0.081604	0.462601	0.000002
C115	C	-0.086590	0.516804	-0.031258
C116	C	-0.125850	0.462599	0.000003
C117	C	-0.120864	0.408396	0.031263
C118	C	-0.071633	0.354196	0.062521
C119	C	-0.027389	0.354199	0.062515
C120	C	-0.135822	0.571005	-0.062517
C121	C	-0.180063	0.570998	-0.062509
C122	C	-0.175077	0.516795	-0.031249
C123	C	0.601394	0.462594	0.000001
C124	C	0.648489	0.462588	0.000008
C125	C	0.462612	0.462625	-0.160020
C126	C	0.462605	0.462630	-0.214323
C127	C	0.462625	0.601381	-0.000048
C128	C	0.462623	0.648478	-0.000057
C129	C	0.500964	0.462593	-0.551014
C130	C	0.500969	0.462589	-0.602032
O131	O	0.533570	0.462562	-0.628402
N132	N	0.462649	0.462595	-0.627556
C133	C	0.424325	0.462599	-0.602055
O134	O	0.391731	0.462603	-0.628449
C135	C	0.424323	0.462599	-0.551036
C136	C	0.462642	0.462599	-0.525518
C137	C	0.539281	0.462593	-0.525496
C138	C	0.539275	0.462598	-0.474482
C139	C	0.500953	0.462604	-0.448987
C140	C	0.462637	0.462605	-0.474505
C141	C	0.386001	0.462599	-0.525534
C142	C	0.386003	0.462599	-0.474511
C143	C	0.424322	0.462599	-0.448993
C144	C	0.424309	0.462616	-0.397995
N145	N	0.462630	0.462610	-0.372472
C146	C	0.500952	0.462604	-0.397967
C147	C	0.424332	0.462598	-0.709199
C148	C	0.424332	0.462602	-0.760220
C149	C	0.500976	0.462591	-0.760192
C150	C	0.500974	0.462591	-0.709173
C151	C	0.462652	0.462592	-0.683675
C152	C	0.500937	0.462616	-0.290835
C153	C	0.500927	0.462624	-0.239818
C154	C	0.424284	0.462632	-0.239848
C155	C	0.424292	0.462627	-0.290863
C156	C	0.462623	0.462617	-0.316354
O157	O	0.391726	0.462640	-0.371592
O158	O	0.533543	0.462592	-0.371562
C159	C	0.462649	0.462598	0.159979
C160	C	0.462655	0.462593	0.214282
C161	C	0.601400	0.323825	0.000028
C162	C	0.648496	0.276722	0.000045
C163	C	0.462655	0.323828	0.160007
C164	C	0.462663	0.276726	0.214319
C165	C	0.601418	0.323811	0.160028
C166	C	0.648522	0.276703	0.214347
C167	C	0.323843	0.601412	-0.160069
C168	C	0.276739	0.648520	-0.214388
C169	C	0.323861	0.601398	-0.000069
C170	C	0.276764	0.648501	-0.000086
C171	C	0.462606	0.601395	-0.160048
C172	C	0.462598	0.648497	-0.214359
C173	C	0.643514	0.254608	-0.031200
C174	C	0.687762	0.210356	-0.031196
C175	C	0.736993	0.188215	0.000056
C176	C	0.741974	0.210333	0.031302
C177	C	0.697727	0.254588	0.031294
C178	C	0.489767	0.254601	0.271077
C179	C	0.489773	0.210350	0.322113
C180	C	0.462678	0.188222	0.316391
C181	C	0.435570	0.210352	0.259626
C182	C	0.435562	0.254605	0.208591
C183	C	0.697739	0.254580	0.208617
C184	C	0.742002	0.210323	0.259651
C185	C	0.737046	0.188188	0.316414
C186	C	0.687823	0.210315	0.322143
C187	C	0.643562	0.254574	0.271110
C188	C	0.227522	0.670648	-0.208658
C189	C	0.183259	0.714919	-0.259691
C190	C	0.188215	0.737057	-0.316455
C191	C	0.237437	0.714927	-0.322184
C192	C	0.281699	0.670660	-0.271151
C193	C	0.281747	0.670620	0.031154
C194	C	0.237499	0.714884	0.031136
C195	C	0.188268	0.737026	-0.000118
C196	C	0.183286	0.714906	-0.031361
C197	C	0.227534	0.670645	-0.031347
C198	C	0.489698	0.670610	-0.208617
C199	C	0.489700	0.714861	-0.259644
C200	C	0.462599	0.737001	-0.316412
C201	C	0.435497	0.714884	-0.322153
C202	C	0.435498	0.670630	-0.271127
H203	H	0.354768	0.177007	-0.124411
N204	N	0.682487	0.186429	0.383370
H205	H	0.662947	0.168065	0.388155
H206	H	0.662955	0.220212	0.388115
H207	H	0.532173	0.203084	0.080203
N208	N	0.406352	0.186480	0.253457
H209	H	0.379088	0.194179	0.273230
H210	H	0.431252	0.142060	0.273245
N211	N	0.344675	0.462588	-0.553040
H212	H	0.350485	0.462585	-0.589230
H213	H	0.309507	0.499448	-0.565385
N214	N	0.518992	0.278461	0.277264
H215	H	0.494135	0.322887	0.257472
H216	H	0.546262	0.270714	0.257508
H217	H	0.701791	0.272587	0.056741
N218	N	0.130174	0.738770	-0.253502
H219	H	0.102883	0.770173	-0.294441
H220	H	0.126081	0.757084	-0.230933
N221	N	0.519013	0.186485	0.383332
H222	H	0.536180	0.207215	0.379208
H223	H	0.546258	0.142056	0.405878
H224	H	0.603488	0.272581	0.275784
N225	N	0.334785	0.646782	-0.277331
H226	H	0.354365	0.654470	-0.257556
H227	H	0.331162	0.667532	-0.321045
N228	N	0.130191	0.575293	-0.065019
H229	H	0.133749	0.609630	-0.084825
H230	H	0.110660	0.577653	-0.036330
H231	H	0.393085	0.462636	-0.311644
N232	N	0.518925	0.738721	-0.253449
H233	H	0.546197	0.731014	-0.273210
H234	H	0.536054	0.717974	-0.209733
N235	N	0.462606	0.784726	-0.371445
H236	H	0.483888	0.795372	-0.359188
H237	H	0.425891	0.821428	-0.395999
N238	N	0.222167	0.646785	-0.147440
H239	H	0.257671	0.615383	-0.115974
H240	H	0.202595	0.628465	-0.142713
H241	H	0.462689	0.152189	0.357952
N242	N	0.784785	0.140442	0.371457
H243	H	0.784816	0.155833	0.396018
H244	H	0.816690	0.129802	0.359164
N245	N	0.795074	0.186451	0.065008
H246	H	0.822345	0.155060	0.060269
H247	H	0.799183	0.168113	0.108707
H248	H	0.145424	0.310069	0.087947
N249	N	0.242774	0.738807	-0.383410
H250	H	0.262317	0.705046	-0.388187
H251	H	0.262305	0.757175	-0.388162
N252	N	0.406296	0.278498	0.147374
H253	H	0.389125	0.257772	0.151499
H254	H	0.431147	0.270814	0.124817
N255	N	0.784715	0.140485	0.000060
H256	H	0.774083	0.129837	-0.024476
H257	H	0.806002	0.103786	0.042400
H258	H	-0.396580	0.560930	-0.056711
N259	N	-0.317637	0.575263	-0.064979
H260	H	-0.300488	0.577689	-0.036332
H261	H	-0.355550	0.609558	-0.084779
H262	H	0.603432	0.272634	-0.056657
H263	H	0.511767	0.652591	-0.162399
N264	N	0.140473	0.784801	-0.371495
H265	H	0.108543	0.795455	-0.359246
H266	H	0.140492	0.769371	-0.396028
H267	H	0.223470	0.652638	-0.056784
H268	H	-0.087414	0.615158	-0.087974
H269	H	0.321829	0.652595	0.056609
N270	N	0.242878	0.738736	0.064837
H271	H	0.280781	0.717986	0.084642
H272	H	0.225702	0.731038	0.096245
H273	H	0.393124	0.462611	-0.780998
H274	H	0.683696	0.192352	-0.056640
N275	N	0.382953	0.462636	-0.212345
H276	H	0.362812	0.499495	-0.212436
H277	H	0.399719	0.425751	-0.169932
H278	H	0.152243	0.773066	-0.000125
H279	H	0.413428	0.652630	-0.275810
H280	H	0.143197	0.732941	-0.056808
H281	H	0.321844	0.364290	0.056665
N282	N	-0.008464	0.629483	-0.096235
H283	H	-0.046367	0.663817	-0.116033
H284	H	0.008703	0.631852	-0.127650
H285	H	0.354766	0.096751	-0.124419
H286	H	0.413432	0.732917	-0.368381
H287	H	0.393093	0.342192	-0.080174
H288	H	0.223483	0.560970	-0.056760
N289	N	0.382955	-0.181604	-0.091926
H290	H	0.358677	-0.178051	-0.119926
H291	H	0.399715	-0.161578	-0.115096
H292	H	0.701784	0.272596	0.162402
H293	H	0.570499	-0.171510	0.124351
N294	N	0.795087	0.186462	0.253464
H295	H	0.791506	0.207199	0.209760
H296	H	0.814635	0.142035	0.273285
H297	H	0.393086	-0.277861	-0.080248
N298	N	0.382967	0.266220	-0.091880
H299	H	0.358689	0.311236	-0.119872
H300	H	0.362869	0.249531	-0.072566
H301	H	0.532159	-0.416965	0.080139
H302	H	0.570511	-0.119037	0.124359
N303	N	0.542300	-0.340992	0.091822
H304	H	0.566575	-0.386007	0.119817
H305	H	0.525548	-0.324309	0.114997
H306	H	0.570512	-0.038775	0.124362
H307	H	-0.220149	0.615141	-0.087967
N308	N	0.542301	0.106825	0.091881
H309	H	0.566579	0.103269	0.119884
H310	H	0.562398	0.086802	0.072560
H311	H	0.532132	0.462626	-0.219044
H312	H	0.354764	0.044280	-0.124425
H313	H	0.354769	-0.035993	-0.124430
H314	H	-0.139890	0.615145	-0.087974
N315	N	0.382991	0.462612	-0.681704
H316	H	0.399709	0.425753	-0.639277
H317	H	0.358730	0.462640	-0.705661
N318	N	0.344670	0.462596	-0.447008
H319	H	0.320399	0.462595	-0.470917
H320	H	0.324564	0.499458	-0.447102
H321	H	0.570497	-0.251767	0.124344
H322	H	0.241586	0.364279	0.056684
H323	H	0.065166	0.310064	0.087962
H324	H	-0.217947	0.364248	0.056721
N325	N	0.025707	0.295735	0.096224
H326	H	0.022144	0.261402	0.116025
H327	H	0.045257	0.293366	0.127637
H328	H	-0.298224	0.364249	0.056718
N329	N	0.542311	0.462587	-0.787696
H330	H	0.562452	0.425726	-0.787603
H331	H	0.566549	0.462609	-0.763771
H332	H	0.532150	0.462607	-0.311584
N333	N	-0.066259	0.295733	0.096232
H334	H	-0.101761	0.303962	0.091488
H335	H	-0.046682	0.272058	0.139932
H336	H	0.570480	0.462596	-0.453708
N337	N	0.580610	0.462600	-0.552998
H338	H	0.604877	0.462605	-0.529087
H339	H	0.563840	0.499468	-0.595423
H340	H	0.532178	0.462591	-0.688399
