data_functionalizedCrystal
_audit_creation_method	'MofGen! by Chris Wilmer'
_symmetry_space_group_name_H-M	'P1'
_symmetry_Int_Tables_number	1
_symmetry_cell_setting	triclinic
loop_
_symmetry_equiv_pos_as_xyz
  x,y,z
_cell_length_a	14.908571
_cell_length_b	25.639234
_cell_length_c	14.908520
_cell_angle_alpha	93.274536
_cell_angle_beta	90.205961
_cell_angle_gamma	86.687122
loop_
_atom_site_label
_atom_site_type_symbol
_atom_site_fract_x
_atom_site_fract_y
_atom_site_fract_z
Zn1	Zn	1.353968	-0.355450	-0.437476
Zn2	Zn	1.853968	0.144550	0.062524
Zn3	Zn	1.345184	-0.272751	-0.587825
Zn4	Zn	1.845184	0.227249	-0.087825
Zn5	Zn	1.203602	-0.262718	-0.428800
Zn6	Zn	1.703602	0.237282	0.071200
Zn7	Zn	1.194896	-0.354846	-0.579100
Zn8	Zn	1.694896	0.145154	-0.079100
O9	O	1.274413	-0.311441	-0.508300
O10	O	1.774413	0.188559	-0.008300
O11	O	1.478628	-0.348932	-0.464703
O12	O	1.978628	0.151068	0.035297
O13	O	1.326370	-0.198255	-0.566750
O14	O	1.826370	0.301745	-0.066750
O15	O	1.230868	-0.271074	-0.304128
O16	O	1.730868	0.228926	0.195872
O17	O	1.472174	-0.288173	-0.575163
O18	O	1.972174	0.211827	-0.075163
O19	O	1.341342	-0.339203	-0.310503
O20	O	1.841342	0.160797	0.189497
O21	O	1.222351	-0.190884	-0.449915
O22	O	1.722351	0.309116	0.050085
O23	O	1.076622	-0.270488	-0.441455
O24	O	1.576622	0.229512	0.058545
O25	O	1.216030	-0.428092	-0.560293
O26	O	1.716030	0.071908	-0.060293
O27	O	1.070226	-0.338173	-0.551880
O28	O	1.570226	0.161827	-0.051880
O29	O	1.332900	-0.428536	-0.456243
O30	O	1.832900	0.071464	0.043757
O31	O	1.317928	-0.287587	-0.712490
O32	O	1.817928	0.212413	-0.212490
O33	O	1.207512	-0.347902	-0.706080
O34	O	1.707512	0.152098	-0.206080
C35	C	1.040799	-0.303177	-0.494780
C36	C	1.540799	0.196823	0.005220
C37	C	0.940857	-0.299654	-0.489018
C38	C	1.440857	0.200346	0.010982
C39	C	0.746433	-0.363431	-0.593354
C40	C	1.246433	0.136569	-0.093354
C41	C	0.652528	-0.360123	-0.587942
C42	C	1.152528	0.139877	-0.087942
C43	C	0.659142	-0.289733	-0.472779
C44	C	1.159142	0.210267	0.027221
C45	C	0.753046	-0.293041	-0.478191
C46	C	1.253046	0.206959	0.021809
C47	C	0.796688	-0.329891	-0.538481
C48	C	1.296688	0.170109	-0.038481
C49	C	0.890595	-0.333196	-0.543896
C50	C	1.390595	0.166804	-0.043896
C51	C	0.897207	-0.262808	-0.428730
C52	C	1.397207	0.237192	0.071270
C53	C	0.803302	-0.259500	-0.423318
C54	C	1.303302	0.240500	0.076682
C55	C	1.274473	-0.447815	-0.508263
C56	C	1.774473	0.052185	-0.008263
C57	C	1.274499	-0.505930	-0.508247
C58	C	1.774499	-0.005930	-0.008247
C59	C	1.220368	-0.862458	-0.447305
C60	C	1.720368	-0.362458	0.052695
C61	C	1.220374	-0.917062	-0.447289
C62	C	1.720374	-0.417062	0.052711
O63	O	1.174298	-0.942039	-0.395571
O64	O	1.674298	-0.442039	0.104429
N65	N	1.274537	-0.948209	-0.508107
N66	N	1.774537	-0.448209	-0.008107
C67	C	1.328692	-0.924750	-0.568952
C68	C	1.828692	-0.424750	-0.068952
O69	O	1.374763	-0.956257	-0.620681
O70	O	1.874763	-0.456257	-0.120681
C71	C	1.328681	-0.870147	-0.568971
C72	C	1.828681	-0.370147	-0.068971
C73	C	1.274520	-0.839002	-0.508143
C74	C	1.774520	-0.339002	-0.008143
C75	C	1.166211	-0.831313	-0.386482
C76	C	1.666211	-0.331313	0.113518
C77	C	1.166206	-0.776713	-0.386497
C78	C	1.666206	-0.276713	0.113503
C79	C	1.220359	-0.753257	-0.447335
C80	C	1.720359	-0.253257	0.052665
C81	C	1.274516	-0.784402	-0.508158
C82	C	1.774516	-0.284402	-0.008158
C83	C	1.382830	-0.846688	-0.629819
C84	C	1.882830	-0.346688	-0.129819
C85	C	1.382814	-0.792081	-0.629834
C86	C	1.882814	-0.292081	-0.129834
C87	C	1.328653	-0.760936	-0.569005
C88	C	1.828653	-0.260936	-0.069005
C89	C	1.328664	-0.706346	-0.569011
C90	C	1.828664	-0.206346	-0.069011
N91	N	1.274500	-0.675198	-0.508193
N92	N	1.774500	-0.175198	-0.008193
C93	C	1.220348	-0.698654	-0.447355
C94	C	1.720348	-0.198654	0.052645
C95	C	1.328710	-1.039419	-0.568907
C96	C	1.828710	-0.539419	-0.068907
C97	C	1.328727	-1.094022	-0.568884
C98	C	1.828727	-0.594022	-0.068884
C99	C	1.220407	-1.086330	-0.447222
C100	C	1.720407	-0.586330	0.052778
C101	C	1.220396	-1.031727	-0.447242
C102	C	1.720396	-0.531727	0.052758
C103	C	1.274547	-1.008272	-0.508089
C104	C	1.774547	-0.508272	-0.008089
C105	C	1.220343	-0.583990	-0.447391
C106	C	1.720343	-0.083990	0.052609
C107	C	1.220347	-0.529386	-0.447409
C108	C	1.720347	-0.029386	0.052591
C109	C	1.328663	-0.537082	-0.569073
C110	C	1.828663	-0.037082	-0.069073
C111	C	1.328664	-0.591682	-0.569052
C112	C	1.828664	-0.091682	-0.069052
C113	C	1.274497	-0.615134	-0.508208
C114	C	1.774497	-0.115134	-0.008208
O115	O	1.374714	-0.681332	-0.620705
O116	O	1.874714	-0.181332	-0.120705
O117	O	1.174276	-0.667141	-0.395642
O118	O	1.674276	-0.167141	0.104358
C119	C	1.508938	-0.319739	-0.521874
C120	C	2.008938	0.180261	-0.021874
C121	C	1.608879	-0.323275	-0.527658
C122	C	2.108879	0.176725	-0.027658
C123	C	1.260847	-0.318780	-0.741911
C124	C	1.760847	0.181220	-0.241911
C125	C	1.255126	-0.321940	-0.841855
C126	C	1.755126	0.178060	-0.341855
C127	C	1.274408	-0.175598	-0.508276
C128	C	1.774408	0.324402	-0.008276
C129	C	1.274570	-0.117482	-0.508049
C130	C	1.774570	0.382518	-0.008049
C131	C	1.359469	-0.265130	-1.036282
C132	C	1.859469	0.234870	-0.536282
C133	C	1.354097	-0.268097	-1.130188
C134	C	1.854097	0.231903	-0.630188
C135	C	1.239013	-0.330844	-1.123578
C136	C	1.739013	0.169156	-0.623578
C137	C	1.244386	-0.327877	-1.029671
C138	C	1.744386	0.172123	-0.529671
C139	C	1.304615	-0.295018	-0.986026
C140	C	1.804615	0.204982	-0.486026
C141	C	1.309982	-0.292048	-0.892117
C142	C	1.809982	0.207952	-0.392117
C143	C	1.194904	-0.354798	-0.885508
C144	C	1.694904	0.145202	-0.385508
C145	C	1.189531	-0.357765	-0.979415
C146	C	1.689531	0.142235	-0.479415
C147	C	1.288056	-0.304087	-0.273779
C148	C	1.788056	0.195913	0.226221
C149	C	1.293870	-0.300953	-0.173840
C150	C	1.793870	0.199047	0.326160
H151	H	0.938135	-0.235496	-0.384050
H152	H	1.438135	0.264504	0.115950
H153	H	0.623592	-0.259735	-0.423689
H154	H	1.123592	0.240265	0.076311
H155	H	1.140497	-0.384519	-1.014964
H156	H	1.640497	0.115481	-0.514964
H157	H	0.767756	-0.229499	-0.374230
H158	H	1.267756	0.270501	0.125770
Br159	Br	1.146890	-0.989465	-0.364686
Br160	Br	1.646890	-0.489465	0.135314
Br161	Br	0.805665	-0.413433	-0.675185
Br162	Br	1.305665	0.086567	-0.175185
Br163	Br	1.456332	-0.888942	-0.712383
Br164	Br	1.956332	-0.388942	-0.212383
H165	H	1.408504	-0.238371	-1.000745
H166	H	1.908504	0.261629	-0.500745
Br167	Br	1.146842	-0.487121	-0.364847
Br168	Br	1.646842	0.012879	0.135153
H169	H	0.611613	-0.387437	-0.632623
H170	H	1.111613	0.112563	-0.132623
H171	H	1.176236	-0.603078	-0.397844
H172	H	1.676236	-0.103078	0.102156
Br173	Br	1.428550	-0.227536	-1.198391
Br174	Br	1.928550	0.272464	-0.698391
H175	H	0.926126	-0.363200	-0.592989
H176	H	1.426126	0.136800	-0.092989
H177	H	1.122099	-0.751360	-0.336968
H178	H	1.622099	-0.251360	0.163032
H179	H	1.359021	-0.265291	-0.856583
H180	H	1.859021	0.234709	-0.356583
Br181	Br	1.092693	-0.863135	-0.303918
Br182	Br	1.592693	-0.363135	0.196082
H183	H	1.176312	-1.105437	-0.397685
H184	H	1.676312	-0.605437	0.102315
H185	H	1.189983	-0.357600	-1.159130
H186	H	1.689983	0.142400	-0.659130
Br187	Br	1.120438	-0.395353	-0.817299
Br188	Br	1.620438	0.104647	-0.317299
H189	H	1.372841	-1.119375	-0.618407
H190	H	1.872841	-0.619375	-0.118407
H191	H	1.372818	-1.020327	-0.618451
H192	H	1.872818	-0.520327	-0.118451
Br193	Br	1.402187	-0.633951	-0.651588
Br194	Br	1.902187	-0.133951	-0.151588
Br195	Br	1.456304	-0.760253	-0.712421
Br196	Br	1.956304	-0.260253	-0.212421
Br197	Br	1.402159	-0.505238	-0.651629
Br198	Br	1.902159	-0.005238	-0.151629
