data_functionalizedCrystal
_audit_creation_method	'MofGen! by Chris Wilmer'
_symmetry_space_group_name_H-M	'P1'
_symmetry_Int_Tables_number	1
_symmetry_cell_setting	triclinic
loop_
_symmetry_equiv_pos_as_xyz
  x,y,z
_cell_length_a	17.077404
_cell_length_b	12.759394
_cell_length_c	17.077396
_cell_angle_alpha	90.026316
_cell_angle_beta	90.019501
_cell_angle_gamma	90.015062
loop_
_atom_site_label
_atom_site_type_symbol
_atom_site_fract_x
_atom_site_fract_y
_atom_site_fract_z
Zn1	Zn	1.200099	-0.418260	0.443855
Zn2	Zn	1.200024	-0.593961	0.312593
Zn3	Zn	1.068830	-0.418297	0.312602
Zn4	Zn	1.068817	-0.593898	0.443817
O5	O	1.134442	-0.506104	0.378217
O6	O	1.309936	-0.441578	0.426454
O7	O	1.182595	-0.570700	0.202748
O8	O	1.086280	-0.271271	0.330033
O9	O	1.309881	-0.570664	0.330017
O10	O	1.182722	-0.271244	0.426463
O11	O	1.086208	-0.441641	0.202754
O12	O	0.958982	-0.441580	0.329996
O13	O	1.086257	-0.570558	0.553669
O14	O	0.958972	-0.570594	0.426399
O15	O	1.182709	-0.441517	0.553697
O16	O	1.182582	-0.740974	0.329981
O17	O	1.086185	-0.740928	0.426391
C18	C	0.930495	-0.506085	0.378195
C19	C	0.843245	-0.506102	0.378205
C20	C	0.802270	-0.573381	0.428321
C21	C	0.720290	-0.573383	0.428334
C22	C	0.679285	-0.506111	0.378225
C23	C	0.720266	-0.438825	0.328107
C24	C	0.802245	-0.438818	0.328099
C25	C	0.549396	-0.438846	0.328125
C26	C	0.467411	-0.438854	0.328132
C27	C	0.467441	-0.573411	0.428360
C28	C	0.549419	-0.573404	0.428352
C29	C	0.590394	-0.506119	0.378233
C30	C	1.134395	-0.779072	0.378198
C31	C	1.134447	-0.895848	0.378216
C32	C	1.234901	-0.895843	0.277900
C33	C	1.285148	-0.950701	0.227751
C34	C	1.285194	-1.060422	0.227773
C35	C	1.234989	-1.115288	0.277950
C36	C	1.184742	-1.060430	0.328099
C37	C	1.184700	-0.950706	0.328070
C38	C	1.084293	-1.060436	0.428417
C39	C	1.084242	-0.950714	0.428393
C40	C	1.034088	-1.115302	0.478594
C41	C	0.983835	-1.060444	0.528740
C42	C	0.983791	-0.950716	0.528716
C43	C	1.033994	-0.895856	0.478542
C44	C	1.339187	-0.506124	0.378239
C45	C	1.426436	-0.506132	0.378249
C46	C	1.134490	-0.506027	0.582961
C47	C	1.134510	-0.505994	0.670211
C48	C	1.134511	-0.232071	0.378253
C49	C	1.134540	-0.115294	0.378269
C50	C	1.134440	-0.506105	0.174269
C51	C	1.134572	-0.505842	0.087020
C52	C	1.184735	-0.438797	0.711217
C53	C	1.184744	-0.438762	0.793197
C54	C	1.134532	-0.505930	0.834171
C55	C	1.084302	-0.573130	0.793159
C56	C	1.084290	-0.573159	0.711180
C57	C	1.084334	-0.573067	0.964029
C58	C	1.084348	-0.573039	1.046014
C59	C	1.184788	-0.438670	1.046047
C60	C	1.184776	-0.438699	0.964068
C61	C	1.134546	-0.505900	0.923062
H62	H	0.686874	-0.384047	0.287311
H63	H	1.043384	-0.627867	0.677794
C64	C	0.422375	-0.647425	0.483496
C65	C	0.365987	-0.729853	0.449380
C66	C	0.320918	-0.803871	0.504510
C67	C	0.332238	-0.795461	0.593756
C68	C	0.388628	-0.713030	0.627877
C69	C	0.433697	-0.639012	0.572747
H70	H	0.357605	-0.736082	0.383310
H71	H	0.279174	-0.864892	0.479250
H72	H	0.298875	-0.850253	0.634567
H73	H	0.397010	-0.706801	0.693947
H74	H	0.475440	-0.577991	0.598006
C75	C	1.340374	-0.890348	0.172560
C76	C	1.340330	-0.769658	0.172531
C77	C	1.395559	-0.709309	0.117343
C78	C	1.450832	-0.769651	0.062185
C79	C	1.450879	-0.890348	0.062212
C80	C	1.395650	-0.950696	0.117400
H81	H	1.299411	-0.724983	0.213364
H82	H	1.395524	-0.619961	0.117323
H83	H	1.491716	-0.724977	0.021332
H84	H	1.491798	-0.935022	0.021379
H85	H	1.395685	-1.040044	0.117420
C86	C	0.594524	-0.647404	0.483472
C87	C	0.583235	-0.766830	0.476915
C88	C	0.628339	-0.840829	0.532037
C89	C	0.684733	-0.795401	0.593716
C90	C	0.696025	-0.675968	0.600275
C91	C	0.650921	-0.601969	0.545153
H92	H	0.541486	-0.800465	0.431255
H93	H	0.619979	-0.929241	0.527181
H94	H	0.718122	-0.850179	0.634520
H95	H	0.737774	-0.642333	0.645935
H96	H	0.659281	-0.513557	0.550009
C97	C	0.928617	-1.120796	0.583932
C98	C	0.928674	-1.241486	0.583964
C99	C	0.873455	-1.301842	0.639157
C100	C	0.818180	-1.241508	0.694318
C101	C	0.818121	-1.120811	0.694289
C102	C	0.873340	-1.060455	0.639096
H103	H	0.969593	-1.286155	0.543128
H104	H	0.873498	-1.391190	0.639178
H105	H	0.777303	-1.286187	0.735175
H106	H	0.777201	-1.076143	0.735124
H107	H	0.873297	-0.971107	0.639074
C108	C	1.340466	-1.120771	0.172609
C109	C	1.402106	-1.196104	0.206692
C110	C	1.457377	-1.256453	0.151529
C111	C	1.451008	-1.241468	0.062283
C112	C	1.389366	-1.166131	0.028196
C113	C	1.334094	-1.105783	0.083359
H114	H	1.406822	-1.207200	0.272761
H115	H	1.503008	-1.312222	0.176763
H116	H	1.491923	-1.286142	0.021448
H117	H	1.384649	-1.155036	-0.037873
H118	H	1.288463	-1.050014	0.058125
C119	C	1.239969	-0.364909	0.666150
C120	C	1.233592	-0.245469	0.677437
C121	C	1.288826	-0.171576	0.632372
C122	C	1.350437	-0.217124	0.576020
C123	C	1.356816	-0.336571	0.564730
C124	C	1.301582	-0.410463	0.609795
H125	H	1.187982	-0.211746	0.719154
H126	H	1.284103	-0.083154	0.640730
H127	H	1.391324	-0.162425	0.542660
H128	H	1.402426	-0.370294	0.523013
H129	H	1.306305	-0.498886	0.601437
C130	C	1.240010	-0.364814	0.918997
C131	C	1.233636	-0.245373	0.930280
C132	C	1.288869	-0.171485	0.885210
C133	C	1.350476	-0.217039	0.828856
C134	C	1.356852	-0.336487	0.817570
C135	C	1.301619	-0.410375	0.862640
H136	H	1.188029	-0.211646	0.971999
H137	H	1.284149	-0.083062	0.893565
H138	H	1.391363	-0.162344	0.795493
H139	H	1.402460	-0.370215	0.775851
H140	H	1.306339	-0.498798	0.854285
C141	C	1.029142	-0.646940	1.091104
C142	C	1.035539	-0.766379	1.079819
C143	C	0.980347	-0.840290	1.124918
C144	C	0.918758	-0.794762	1.181302
C145	C	0.912357	-0.675317	1.192590
C146	C	0.967549	-0.601406	1.147491
H147	H	1.081134	-0.800086	1.038078
H148	H	0.985086	-0.928711	1.116562
H149	H	0.877901	-0.849475	1.214687
H150	H	0.866762	-0.641609	1.234331
H151	H	0.962811	-0.512984	1.155847
C152	C	1.029074	-0.647017	0.838234
C153	C	1.063087	-0.729482	0.894583
C154	C	1.007862	-0.803374	0.939658
C155	C	0.918623	-0.794802	0.928384
C156	C	0.884606	-0.712334	0.872033
C157	C	0.939831	-0.638442	0.826957
H158	H	1.129151	-0.735830	0.902930
H159	H	1.033044	-0.864422	0.981373
H160	H	0.877742	-0.849502	0.961752
H161	H	0.818542	-0.705986	0.863685
H162	H	0.914648	-0.577394	0.785242
H163	H	1.034132	-1.204643	0.478612
H164	H	0.835650	-0.628165	0.469123
C165	C	0.928517	-0.890375	0.583882
C166	C	0.866871	-0.815048	0.549804
C167	C	0.811596	-0.754711	0.604970
C168	C	0.817967	-0.769703	0.694215
C169	C	0.879615	-0.845034	0.728298
C170	C	0.934890	-0.905370	0.673132
H171	H	0.862152	-0.803947	0.483735
H172	H	0.765959	-0.698946	0.579739
H173	H	0.777049	-0.725038	0.735053
H174	H	0.884334	-0.856135	0.794367
H175	H	0.980526	-0.961135	0.698363
H176	H	1.234858	-0.806502	0.277868
H177	H	0.686931	-0.628169	0.469143
H178	H	1.225686	-0.383950	1.079437
C179	C	0.594473	-0.364830	0.272998
C180	C	0.583223	-0.245406	0.279560
C181	C	0.628303	-0.171396	0.224434
C182	C	0.684633	-0.216809	0.162746
C183	C	0.695886	-0.336240	0.156181
C184	C	0.650806	-0.410250	0.211307
H185	H	0.541522	-0.211783	0.325228
H186	H	0.619973	-0.082985	0.229294
H187	H	0.718003	-0.162022	0.121938
H188	H	0.737586	-0.369863	0.110513
H189	H	0.659136	-0.498661	0.206447
H190	H	0.434028	-0.384062	0.287339
C191	C	0.847322	-0.364811	0.272971
C192	C	0.836069	-0.245387	0.279536
C193	C	0.881146	-0.171372	0.224412
C194	C	0.937476	-0.216780	0.162721
C195	C	0.948732	-0.336210	0.156153
C196	C	0.903655	-0.410225	0.211278
H197	H	0.794367	-0.211768	0.325205
H198	H	0.872813	-0.082962	0.229274
H199	H	0.970845	-0.161990	0.121915
H200	H	0.990434	-0.369829	0.110484
H201	H	0.911988	-0.498635	0.206416
H202	H	1.033958	-0.806515	0.478512
H203	H	1.235038	-1.204629	0.277970
H204	H	1.225644	-0.384046	0.826581
H205	H	1.043420	-0.627773	0.930645
