data_functionalizedCrystal
_audit_creation_method	'MofGen! by Chris Wilmer'
_symmetry_space_group_name_H-M	'P1'
_symmetry_Int_Tables_number	1
_symmetry_cell_setting	triclinic
loop_
_symmetry_equiv_pos_as_xyz
  x,y,z
_cell_length_a	11.792254
_cell_length_b	11.792241
_cell_length_c	9.130313
_cell_angle_alpha	89.995332
_cell_angle_beta	89.996532
_cell_angle_gamma	84.196007
loop_
_atom_site_label
_atom_site_type_symbol
_atom_site_fract_x
_atom_site_fract_y
_atom_site_fract_z
O1	O	1.506899	0.155636	-0.121799
O2	O	2.006899	0.655636	0.378201
O3	O	1.176559	0.171654	-0.121802
O4	O	1.676559	0.671654	0.378198
O5	O	1.349745	-0.001525	-0.121790
O6	O	1.849745	0.498475	0.378210
O7	O	1.333713	0.328815	-0.121811
O8	O	1.833713	0.828815	0.378189
O9	O	1.349734	-0.001530	0.121809
O10	O	1.849734	0.498470	0.621809
O11	O	1.176548	0.171649	0.121797
O12	O	1.676548	0.671649	0.621797
O13	O	1.506887	0.155631	0.121800
O14	O	2.006887	0.655631	0.621800
Cu15	Cu	1.341716	0.163640	0.144041
Cu16	Cu	1.841716	0.663640	0.644041
Cu17	Cu	1.341730	0.163646	-0.144043
Cu18	Cu	1.841730	0.663646	0.355957
O19	O	1.333701	0.328810	0.121788
O20	O	1.833701	0.828810	0.621788
C21	C	1.134263	0.170642	-0.000003
C22	C	1.634263	0.670642	0.499997
C23	C	1.008250	0.167622	-0.000004
C24	C	1.508250	0.667622	0.499996
C25	C	1.348732	-0.043819	0.000009
C26	C	1.848732	0.456181	0.500009
C27	C	1.345718	-0.169832	0.000007
C28	C	1.845718	0.330168	0.500007
C29	C	0.905913	0.165168	-0.000010
C30	C	1.405913	0.665168	0.499990
C31	C	0.777527	0.162100	-0.000011
C32	C	1.277527	0.662100	0.499989
C33	C	1.340175	-0.400545	-0.000017
C34	C	1.840175	0.099455	0.499983
C35	C	1.343255	-0.272160	-0.000004
C36	C	1.843255	0.227840	0.499996
C37	C	1.549183	0.156643	-0.000002
C38	C	2.049183	0.656643	0.499998
C39	C	1.675196	0.159663	-0.000011
C40	C	2.175196	0.659663	0.499989
C41	C	1.334714	0.371104	-0.000014
C42	C	1.834714	0.871104	0.499986
C43	C	1.337728	0.497118	-0.000022
C44	C	1.837728	0.997118	0.499978
N45	N	1.341714	0.163635	0.346664
N46	N	1.841714	0.663635	0.846664
N47	N	1.341741	0.163641	-0.346666
N48	N	1.841741	0.663641	0.153334
C49	C	1.418427	0.086983	0.423321
C50	C	1.918427	0.586983	0.923321
C51	C	1.418438	0.086984	0.576658
C52	C	1.918438	0.586984	1.076658
C53	C	1.265020	0.240296	0.576667
C54	C	1.765020	0.740296	1.076667
C55	C	1.265004	0.240290	0.423333
C56	C	1.765004	0.740290	0.923333
H57	H	1.480888	0.024564	0.360901
H58	H	1.980888	0.524564	0.860901
H59	H	1.202566	0.302709	0.639106
H60	H	1.702566	0.802709	1.139106
Cl61	Cl	1.514878	-0.009384	0.673022
Cl62	Cl	2.014878	0.490616	1.173022
H63	H	1.202530	0.302709	0.360914
H64	H	1.702530	0.802709	0.860914
