data_functionalizedCrystal
_audit_creation_method	'MofGen! by Chris Wilmer'
_symmetry_space_group_name_H-M	'P1'
_symmetry_Int_Tables_number	1
_symmetry_cell_setting	triclinic
loop_
_symmetry_equiv_pos_as_xyz
  x,y,z
_cell_length_a	19.288864
_cell_length_b	10.540539
_cell_length_c	18.366186
_cell_angle_alpha	89.995944
_cell_angle_beta	89.977106
_cell_angle_gamma	83.830869
loop_
_atom_site_label
_atom_site_type_symbol
_atom_site_fract_x
_atom_site_fract_y
_atom_site_fract_z
O1	O	0.922409	0.158345	-0.060780
O2	O	0.720291	0.179705	-0.060730
O3	O	0.825961	-0.015784	-0.060755
O4	O	0.816739	0.353834	-0.060755
O5	O	0.825943	-0.015794	0.060344
O6	O	0.720273	0.179696	0.060370
O7	O	0.922391	0.158335	0.060319
Zn8	Zn	0.821329	0.169014	0.079572
Zn9	Zn	0.821353	0.169027	-0.079982
O10	O	0.816721	0.353825	0.060345
C11	C	0.694401	0.179013	-0.000174
C12	C	0.617284	0.176950	-0.000155
C13	C	0.573353	0.291654	-0.000166
C14	C	0.500893	0.289716	-0.000174
C15	C	0.472367	0.173067	-0.000185
C16	C	0.516308	0.058347	-0.000170
C17	C	0.588766	0.060289	-0.000155
C18	C	0.363499	0.081371	-0.042637
C19	C	0.291042	0.079434	-0.042656
C20	C	0.248881	0.167074	-0.000230
C21	C	0.279186	0.256671	0.042208
C22	C	0.351644	0.258613	0.042223
C23	C	0.393799	0.170949	-0.000202
C24	C	0.126381	0.279684	-0.000249
C25	C	0.053919	0.277741	-0.000252
C26	C	0.069336	0.046369	-0.000255
C27	C	0.141795	0.048315	-0.000244
C28	C	0.170313	0.164976	-0.000245
C29	C	0.825261	-0.063076	-0.000207
C30	C	0.823192	-0.203978	-0.000210
C31	C	0.743903	-0.385638	-0.000462
C32	C	0.746000	-0.239067	-0.000190
C33	C	0.860329	-0.266469	0.068934
C34	C	0.857695	-0.412955	0.068993
C35	C	0.859285	-0.413498	-0.068720
C36	C	0.859996	-0.266531	-0.069634
C37	C	0.948281	0.159027	-0.000238
C38	C	1.025399	0.161091	-0.000262
C39	C	0.817422	0.401117	-0.000206
C40	C	0.819491	0.542019	-0.000207
N41	N	0.821318	0.169005	0.188463
N42	N	0.821370	0.169026	-0.188873
C43	C	0.868124	0.082484	0.226552
C44	C	0.868129	0.082479	0.302780
C45	C	0.821333	0.169015	0.340915
C46	C	0.774518	0.255542	0.302817
C47	C	0.774510	0.255537	0.226591
C48	C	0.812807	0.284670	0.461677
C49	C	0.812820	0.284677	0.537902
C50	C	0.821353	0.169031	0.576023
C51	C	0.829889	0.053374	0.537909
C52	C	0.829881	0.053368	0.461683
C53	C	0.821336	0.169030	0.423570
C54	C	0.868167	0.082497	0.696767
C55	C	0.868167	0.082490	0.772996
C56	C	0.774559	0.255565	0.773032
C57	C	0.774556	0.255561	0.696804
C58	C	0.821364	0.169029	0.658676
H59	H	0.149601	0.374676	-0.000238
H60	H	0.465117	0.383125	-0.000181
H61	H	0.596567	0.386649	-0.000167
N62	N	0.821317	-0.449506	0.137475
H63	H	0.772400	-0.404437	0.138655
H64	H	0.819295	-0.544846	0.138159
N65	N	0.918602	-0.010852	0.185429
H66	H	0.949590	0.037511	0.153783
H67	H	0.948207	-0.065640	0.221176
H68	H	0.915040	-0.461966	-0.069199
N69	N	0.485543	-0.067466	-0.000190
H70	H	0.524371	-0.139840	-0.000181
H71	H	0.455787	-0.073315	0.044695
H72	H	0.805874	0.378852	0.568928
N73	N	0.803603	0.409412	0.420567
H74	H	0.842477	0.462146	0.433809
H75	H	0.804874	0.391753	0.366509
H76	H	0.906245	0.012021	0.333798
H77	H	0.397822	0.010002	-0.077190
N78	N	0.934547	-0.236125	-0.075190
H79	H	0.935442	-0.140645	-0.078275
H80	H	0.961281	-0.269893	-0.030736
H81	H	0.046111	-0.048609	-0.000310
N82	N	0.839086	-0.071367	0.420576
H83	H	0.837788	-0.053816	0.366504
H84	H	0.885417	-0.119679	0.433880
H85	H	0.836838	-0.040796	0.568945
N86	N	0.384332	0.355236	0.087994
H87	H	0.346633	0.410465	0.114871
H88	H	0.417486	0.309322	0.124236
H89	H	0.713418	-0.413555	-0.050046
N90	N	0.918647	-0.010831	0.655636
H91	H	0.948297	-0.065651	0.691336
H92	H	0.891779	-0.066822	0.624024
H93	H	0.266374	0.006484	-0.077214
H94	H	0.244859	0.328035	0.076756
N95	N	0.006533	0.401464	-0.000206
H96	H	0.035597	0.475657	-0.000188
H97	H	-0.023868	0.405758	-0.045086
N98	N	0.826131	-0.209287	0.137106
H99	H	0.807300	-0.278638	0.166776
H100	H	0.861616	-0.167975	0.166806
H101	H	0.736415	0.326000	0.333871
N102	N	0.918665	-0.010812	0.814082
H103	H	0.948320	-0.065615	0.778359
H104	H	0.949601	0.037679	0.845682
N105	N	0.724080	0.348894	0.814153
H106	H	0.731185	0.335767	0.868223
H107	H	0.732544	0.438905	0.800820
N108	N	0.931225	-0.478147	0.073136
H109	H	0.965205	-0.411687	0.074919
H110	H	0.936506	-0.532582	0.118461
N111	N	0.935425	-0.238585	0.072314
H112	H	0.946119	-0.185040	0.028954
H113	H	0.943387	-0.190654	0.118654
N114	N	0.724071	0.348879	0.655717
H115	H	0.694426	0.403699	0.691440
H116	H	0.750931	0.404872	0.624070
N117	N	0.724022	0.348854	0.185503
H118	H	0.694374	0.403673	0.221226
H119	H	0.750883	0.404849	0.153859
H120	H	0.177565	-0.045090	-0.000239
N121	N	0.636154	-0.063432	-0.000139
H122	H	0.607091	-0.137627	-0.000144
H123	H	0.666578	-0.067666	-0.045026
H124	H	0.713527	-0.415173	0.048859
N125	N	0.824052	-0.211488	-0.137389
H126	H	0.858420	-0.169162	-0.168110
H127	H	0.805553	-0.282166	-0.166218
N128	N	0.707292	-0.181762	-0.065843
H129	H	0.730115	-0.219088	-0.111688
H130	H	0.657250	-0.201606	-0.063967
H131	H	0.716558	-0.196659	0.049472
N132	N	0.826207	-0.454551	-0.138141
H133	H	0.776093	-0.415500	-0.140414
H134	H	0.852600	-0.425026	-0.181368
