data_functionalizedCrystal
_audit_creation_method	'MofGen! by Chris Wilmer'
_symmetry_space_group_name_H-M	'P1'
_symmetry_Int_Tables_number	1
_symmetry_cell_setting	triclinic
loop_
_symmetry_equiv_pos_as_xyz
  x,y,z
_cell_length_a	27.731993
_cell_length_b	27.731996
_cell_length_c	7.681481
_cell_angle_alpha	84.300998
_cell_angle_beta	95.685796
_cell_angle_gamma	82.620891
loop_
_atom_site_label
_atom_site_type_symbol
_atom_site_fract_x
_atom_site_fract_y
_atom_site_fract_z
O1	O	0.636342	0.061991	-0.145983
O2	O	0.495540	0.070767	-0.146094
O3	O	0.570328	-0.004022	-0.145997
O4	O	0.561554	0.136780	-0.146080
O5	O	0.579534	-0.013248	0.146872
O6	O	0.504745	0.061541	0.146775
O7	O	0.645547	0.052765	0.146886
Zn8	Zn	0.576608	0.055688	0.193330
Zn9	Zn	0.564479	0.067844	-0.192538
O10	O	0.570759	0.127554	0.146789
C11	C	0.482135	0.065975	0.000327
C12	C	0.428477	0.065434	0.000287
C13	C	0.574751	-0.026642	0.000443
C14	C	0.574209	-0.080299	0.000461
C15	C	0.040303	0.066529	-0.159269
C16	C	0.241958	0.068598	-0.159318
O17	O	0.263763	0.073123	-0.295092
N18	N	0.272196	0.063828	0.000322
C19	C	0.252018	0.058537	0.159985
O20	O	0.282365	0.054522	0.295767
C21	C	0.050364	0.056464	0.160032
C22	C	0.020127	0.061240	0.000382
C23	C	0.010067	0.071304	-0.318906
C24	C	-0.040345	0.070789	-0.318892
C25	C	-0.060520	0.065500	-0.159241
C26	C	-0.030284	0.060726	0.000396
C27	C	0.030187	0.051170	0.319693
C28	C	-0.020230	0.050651	0.319691
C29	C	-0.050467	0.055427	0.160041
C30	C	-0.100870	0.054922	0.160060
N31	N	-0.131108	0.059692	0.000421
C32	C	-0.110933	0.064981	-0.159230
C33	C	0.357889	0.059626	0.159949
C34	C	0.408302	0.060145	0.159937
C35	C	0.398239	0.070205	-0.159366
C36	C	0.347824	0.069690	-0.159353
C37	C	0.327651	0.064396	0.000309
C38	C	-0.216800	0.063901	-0.159189
C39	C	-0.267215	0.063388	-0.159161
C40	C	-0.257147	0.053325	0.160141
C41	C	-0.206737	0.053840	0.160114
C42	C	-0.186564	0.059127	0.000435
O43	O	-0.122708	0.050393	0.295763
O44	O	-0.141287	0.068985	-0.294992
C45	C	0.090714	0.067044	-0.159283
C46	C	0.120950	0.062269	0.000354
C47	C	0.100774	0.056980	0.160005
C48	C	0.171363	0.062788	0.000343
C49	C	0.191538	0.068077	-0.159308
C50	C	0.161300	0.072847	-0.318948
C51	C	0.110889	0.072333	-0.318934
C52	C	0.131012	0.052210	0.319644
C53	C	0.181423	0.052725	0.319618
C54	C	0.201598	0.058014	0.159967
C55	C	0.565773	-0.407983	-0.159271
C56	C	0.563711	-0.609640	-0.159304
O57	O	0.559156	-0.631433	-0.295075
N58	N	0.568473	-0.639886	0.000338
C59	C	0.573747	-0.619714	0.159999
O60	O	0.577745	-0.650067	0.295783
C61	C	0.575806	-0.418058	0.160030
C62	C	0.571049	-0.387815	0.000378
C63	C	0.561016	-0.377740	-0.318910
C64	C	0.561534	-0.327329	-0.318900
C65	C	0.566810	-0.307161	-0.159252
C66	C	0.571567	-0.337404	0.000387
C67	C	0.581077	-0.397887	0.319689
C68	C	0.581590	-0.347469	0.319682
C69	C	0.576833	-0.317226	0.160030
C70	C	0.577361	-0.266825	0.160046
N71	N	0.572599	-0.236579	0.000404
C72	C	0.567323	-0.256747	-0.159244
C73	C	0.572667	-0.725587	0.159972
C74	C	0.572154	-0.776001	0.159964
C75	C	0.562116	-0.765922	-0.159339
C76	C	0.562634	-0.715508	-0.159330
C77	C	0.567905	-0.695341	0.000330
C78	C	0.568412	-0.150881	-0.159212
C79	C	0.568933	-0.100467	-0.159188
C80	C	0.578968	-0.110549	0.160114
C81	C	0.578450	-0.160960	0.160092
C82	C	0.573170	-0.181124	0.000414
O83	O	0.581908	-0.244998	0.295747
O84	O	0.563315	-0.226385	-0.295008
C85	C	0.565255	-0.458394	-0.159281
C86	C	0.570012	-0.488636	0.000358
C87	C	0.575288	-0.468468	0.160007
C88	C	0.569499	-0.539050	0.000351
C89	C	0.564223	-0.559218	-0.159298
C90	C	0.559461	-0.528972	-0.318939
C91	C	0.559979	-0.478561	-0.318930
C92	C	0.580050	-0.498715	0.319648
C93	C	0.579532	-0.549125	0.319626
C94	C	0.574256	-0.569293	0.159977
C95	C	0.658952	0.057557	0.000461
C96	C	0.712610	0.058099	0.000490
C97	C	0.566336	0.150174	0.000345
C98	C	0.566878	0.203831	0.000316
N99	N	0.584889	0.047392	0.456675
N100	N	0.556202	0.076136	-0.455883
H101	H	-0.291832	0.067278	-0.289173
H102	H	0.432915	0.056264	0.289940
H103	H	0.614177	0.018054	0.531919
H104	H	0.086274	0.076222	-0.448937
Br105	Br	0.579818	-0.698224	0.376675
Br106	Br	0.587532	-0.438919	0.536374
Br107	Br	-0.189431	0.071076	-0.375898
H108	H	0.026487	0.075610	-0.448920
Br109	Br	-0.081372	0.077267	-0.535572
H110	H	0.323209	0.073578	-0.289354
Br111	Br	0.425629	0.077385	-0.376034
Br112	Br	0.578622	-0.817041	0.376644
H113	H	0.583410	-0.573746	0.449643
Br114	Br	0.507394	0.125039	0.418724
H115	H	0.206038	0.048840	0.449634
H116	H	0.341469	0.055313	0.289972
H117	H	0.177735	0.077157	-0.448941
H118	H	-0.182118	0.049961	0.290114
H119	H	0.054797	0.047280	0.449697
H120	H	-0.036653	0.046345	0.449710
H121	H	-0.273584	0.049021	0.290125
H122	H	0.584347	-0.482300	0.449657
Br123	Br	0.562479	-0.059426	-0.375873
Br124	Br	0.561247	-0.178239	-0.375918
Br125	Br	0.555074	-0.286292	-0.535583
Br126	Br	0.556177	-0.674469	-0.376007
H127	H	0.556718	-0.394154	-0.448922
Br128	Br	0.554955	-0.793302	-0.376004
H129	H	0.114592	0.047900	0.449654
Br130	Br	0.588744	-0.320102	0.536377
H131	H	0.582328	-0.185586	0.290093
Br132	Br	0.586128	-0.083169	0.376770
H133	H	0.556105	-0.453941	-0.448935
H134	H	0.555168	-0.545402	-0.448931
