data_functionalizedCrystal
_audit_creation_method	'MofGen! by Chris Wilmer'
_symmetry_space_group_name_H-M	'P1'
_symmetry_Int_Tables_number	1
_symmetry_cell_setting	triclinic
loop_
_symmetry_equiv_pos_as_xyz
  x,y,z
_cell_length_a	6.394989
_cell_length_b	8.559649
_cell_length_c	7.088929
_cell_angle_alpha	95.344185
_cell_angle_beta	83.614363
_cell_angle_gamma	78.138188
loop_
_atom_site_label
_atom_site_type_symbol
_atom_site_fract_x
_atom_site_fract_y
_atom_site_fract_z
O1	O	-2.705644	-0.276866	-0.158957
O2	O	-2.095406	-0.290011	-0.158965
O3	O	-2.454288	-0.051919	-0.158958
O4	O	-2.346762	-0.514958	-0.158964
O5	O	-2.502260	-0.020027	0.159018
O6	O	-2.143378	-0.258119	0.159011
O7	O	-2.753617	-0.244973	0.159019
Cu8	Cu	-2.452878	-0.248634	0.188049
Cu9	Cu	-2.396144	-0.286351	-0.187995
O10	O	-2.394735	-0.483066	0.159012
C11	C	-2.486422	0.023393	0.000026
C12	C	-2.510676	0.200283	0.000016
C13	C	-2.362600	-0.558378	0.000024
C14	C	-2.338344	-0.735270	0.000022
N15	N	-2.492796	-0.222106	0.452538
C16	C	-2.041989	-0.271465	0.000033
C17	C	-1.807029	-0.263521	0.000041
N18	N	-2.356244	-0.312867	-0.452483
H19	H	-2.172248	0.184579	0.000026
O20	O	-2.708679	0.296124	-0.000061
C21	C	-2.689651	0.457337	0.000006
H22	H	-2.517998	0.460815	-0.060188
H23	H	-2.728196	0.520514	0.152561
C24	C	-3.059500	0.539124	-0.050753
C25	C	-2.848677	0.543395	-0.124700
H26	H	-3.157600	0.592213	-0.127670
H27	H	-3.072324	0.430513	-0.050791
H28	H	-3.091590	0.591769	0.076374
H29	H	-2.816581	0.490733	-0.251816
H30	H	-2.835852	0.652000	-0.124687
O31	O	-2.187585	-0.425286	0.450210
C32	C	-2.203708	-0.578736	0.499015
H33	H	-2.378575	-0.577281	0.554142
H34	H	-2.098257	-0.611706	0.615072
C35	C	-1.912775	-0.705570	0.253375
C36	C	-2.127553	-0.703787	0.321068
H37	H	-1.865791	-0.782710	0.143614
H38	H	-1.901906	-0.602189	0.220498
H39	H	-1.824926	-0.733041	0.350106
H40	H	-2.215401	-0.676297	0.224347
H41	H	-2.138435	-0.807167	0.353925
O42	O	-2.661810	-0.109864	0.549644
C43	C	-2.782269	-0.029737	0.418569
H44	H	-2.752873	-0.109284	0.275830
H45	H	-2.730227	0.087771	0.397361
C46	C	-3.059970	0.104213	0.672172
C47	C	-3.023878	0.006506	0.496861
H48	H	-3.209005	0.126576	0.720468
H49	H	-2.978812	0.050235	0.760482
H50	H	-3.016586	0.202124	0.654475
H51	H	-3.067236	-0.091411	0.514565
H52	H	-3.105050	0.060468	0.408556
