data_functionalizedCrystal
_audit_creation_method	'MofGen! by Chris Wilmer'
_symmetry_space_group_name_H-M	'P1'
_symmetry_Int_Tables_number	1
_symmetry_cell_setting	triclinic
loop_
_symmetry_equiv_pos_as_xyz
  x,y,z
_cell_length_a	29.839135
_cell_length_b	29.839133
_cell_length_c	29.839125
_cell_angle_alpha	89.992589
_cell_angle_beta	89.984512
_cell_angle_gamma	90.032133
loop_
_atom_site_label
_atom_site_type_symbol
_atom_site_fract_x
_atom_site_fract_y
_atom_site_fract_z
Zn1	Zn	0.686757	-0.178886	-0.254079
Zn2	Zn	1.020090	0.154447	0.079254
Zn3	Zn	1.353423	0.487781	0.412587
Zn4	Zn	0.686704	-0.253998	-0.178963
Zn5	Zn	1.020038	0.079335	0.154370
Zn6	Zn	1.353371	0.412669	0.487704
Zn7	Zn	0.611639	-0.178886	-0.178957
Zn8	Zn	0.944973	0.154447	0.154376
Zn9	Zn	1.278306	0.487781	0.487709
Zn10	Zn	0.611603	-0.253993	-0.254060
Zn11	Zn	0.944936	0.079340	0.079274
Zn12	Zn	1.278269	0.412674	0.412607
O13	O	0.649176	-0.216441	-0.216515
O14	O	0.982509	0.116893	0.116818
O15	O	1.315842	0.450226	0.450152
O16	O	0.749617	-0.188852	-0.244126
O17	O	1.082950	0.144482	0.089208
O18	O	1.416283	0.477815	0.422541
O19	O	0.676740	-0.244036	-0.116095
O20	O	1.010073	0.089297	0.217238
O21	O	1.343407	0.422630	0.550572
O22	O	0.621641	-0.116019	-0.188929
O23	O	0.954974	0.217314	0.144405
O24	O	1.288308	0.550648	0.477738
O25	O	0.749578	-0.244036	-0.188938
O26	O	1.082912	0.089297	0.144396
O27	O	1.416245	0.422630	0.477729
O28	O	0.676829	-0.116019	-0.244120
O29	O	1.010163	0.217314	0.089213
O30	O	1.343496	0.550648	0.422546
O31	O	0.621590	-0.188852	-0.116091
O32	O	0.954924	0.144481	0.217242
O33	O	1.288257	0.477815	0.550576
O34	O	0.548767	-0.188847	-0.188909
O35	O	0.882101	0.144486	0.144424
O36	O	1.215434	0.477819	0.477757
O37	O	0.621578	-0.244028	-0.316930
O38	O	0.954912	0.089306	0.016404
O39	O	1.288245	0.422639	0.349737
O40	O	0.548740	-0.244028	-0.244087
O41	O	0.882074	0.089305	0.089247
O42	O	1.215407	0.422639	0.422580
O43	O	0.676794	-0.188847	-0.316944
O44	O	1.010127	0.144486	0.016389
O45	O	1.343460	0.477820	0.349723
O46	O	0.676704	-0.316864	-0.188919
O47	O	1.010038	0.016469	0.144415
O48	O	1.343371	0.349802	0.477748
O49	O	0.621528	-0.316861	-0.244092
O50	O	0.954861	0.016473	0.089241
O51	O	1.288194	0.349806	0.422575
C52	C	0.532453	-0.216437	-0.216496
C53	C	0.865786	0.116896	0.116838
C54	C	1.199120	0.450229	0.450171
C55	C	0.482519	-0.216447	-0.216498
C56	C	0.815852	0.116887	0.116835
C57	C	1.149185	0.450220	0.450169
C58	C	0.172892	-0.187750	-0.245294
C59	C	0.506226	0.145584	0.088040
C60	C	0.839559	0.478917	0.421373
C61	C	-0.014781	-0.187753	-0.245306
C62	C	0.318553	0.145581	0.088027
C63	C	0.651886	0.478914	0.421360
O64	O	-0.039031	-0.163343	-0.269768
O65	O	0.294302	0.169990	0.063565
O66	O	0.627636	0.503323	0.396899
N67	N	-0.038266	-0.216441	-0.216531
N68	N	0.295067	0.116892	0.116802
N69	N	0.628400	0.450225	0.450135
C70	C	-0.014831	-0.245129	-0.187749
C71	C	0.318502	0.088205	0.145584
C72	C	0.651836	0.421538	0.478918
O73	O	-0.039113	-0.269527	-0.163271
O74	O	0.294220	0.063806	0.170062
O75	O	0.627553	0.397140	0.503395
C76	C	0.172841	-0.245123	-0.187734
C77	C	0.506175	0.088210	0.145599
C78	C	0.839508	0.421544	0.478932
C79	C	0.196324	-0.216436	-0.216514
C80	C	0.529658	0.116897	0.116819
C81	C	0.862991	0.450231	0.450152
C82	C	0.196376	-0.159065	-0.274071
C83	C	0.529709	0.174269	0.059262
C84	C	0.863042	0.507602	0.392596
C85	C	0.243291	-0.159066	-0.274069
C86	C	0.576624	0.174267	0.059264
C87	C	0.909958	0.507601	0.392598
C88	C	0.266723	-0.187752	-0.245290
C89	C	0.600057	0.145581	0.088043
C90	C	0.933390	0.478914	0.421377
C91	C	0.243240	-0.216437	-0.216513
C92	C	0.576573	0.116896	0.116821
C93	C	0.909907	0.450229	0.450154
C94	C	0.196276	-0.273808	-0.158950
C95	C	0.529609	0.059525	0.174383
C96	C	0.862942	0.392859	0.507716
C97	C	0.243197	-0.273803	-0.158948
C98	C	0.576530	0.059530	0.174385
C99	C	0.909863	0.392863	0.507718
C100	C	0.266680	-0.245116	-0.187728
C101	C	0.600013	0.088217	0.145605
C102	C	0.933347	0.421550	0.478938
C103	C	0.313588	-0.245125	-0.187732
C104	C	0.646921	0.088208	0.145602
C105	C	0.980254	0.421542	0.478935
N106	N	0.337073	-0.216436	-0.216507
N107	N	0.670407	0.116897	0.116827
N108	N	1.003740	0.450230	0.450160
C109	C	0.313641	-0.187750	-0.245286
C110	C	0.646974	0.145583	0.088047
C111	C	0.980308	0.478917	0.421381
C112	C	-0.113362	-0.245130	-0.187759
C113	C	0.219972	0.088203	0.145574
C114	C	0.553305	0.421536	0.478907
C115	C	-0.160279	-0.245132	-0.187764
C116	C	0.173054	0.088201	0.145570
C117	C	0.506387	0.421534	0.478903
C118	C	-0.160226	-0.187756	-0.245320
C119	C	0.173107	0.145578	0.088013
C120	C	0.506441	0.478911	0.421346
C121	C	-0.113307	-0.187756	-0.245318
C122	C	0.220026	0.145577	0.088015
C123	C	0.553359	0.478910	0.421349
C124	C	-0.089876	-0.216442	-0.216534
C125	C	0.243457	0.116891	0.116799
C126	C	0.576791	0.450225	0.450132
C127	C	0.412167	-0.187755	-0.245280
C128	C	0.745500	0.145578	0.088053
C129	C	1.078834	0.478911	0.421386
C130	C	0.459087	-0.187760	-0.245277
C131	C	0.792420	0.145573	0.088056
C132	C	1.125753	0.478906	0.421389
C133	C	0.459029	-0.245135	-0.187719
C134	C	0.792362	0.088198	0.145614
C135	C	1.125696	0.421532	0.478948
C136	C	0.412113	-0.245132	-0.187724
C137	C	0.745447	0.088201	0.145610
C138	C	1.078780	0.421535	0.478943
C139	C	0.388684	-0.216438	-0.216506
C140	C	0.722017	0.116895	0.116828
C141	C	1.055350	0.450228	0.450161
O142	O	0.337867	-0.269518	-0.163280
O143	O	0.671200	0.063815	0.170054
O144	O	1.004533	0.397149	0.503387
O145	O	0.337931	-0.163349	-0.269753
O146	O	0.671265	0.169985	0.063580
O147	O	1.004598	0.503318	0.396914
C148	C	0.125977	-0.187748	-0.245295
C149	C	0.459310	0.145585	0.088038
C150	C	0.792644	0.478918	0.421371
C151	C	0.102494	-0.216434	-0.216518
C152	C	0.435827	0.116900	0.116815
C153	C	0.769160	0.450233	0.450149
C154	C	0.125926	-0.245120	-0.187739
C155	C	0.459259	0.088213	0.145594
C156	C	0.792592	0.421547	0.478928
C157	C	0.055576	-0.216436	-0.216522
C158	C	0.388909	0.116898	0.116811
C159	C	0.722242	0.450231	0.450145
C160	C	0.032144	-0.187749	-0.245301
C161	C	0.365477	0.145584	0.088032
C162	C	0.698810	0.478917	0.421365
C163	C	0.055629	-0.159061	-0.274076
C164	C	0.388963	0.174272	0.059257
C165	C	0.722296	0.507606	0.392591
C166	C	0.102545	-0.159062	-0.274074
C167	C	0.435878	0.174271	0.059259
C168	C	0.769211	0.507604	0.392592
C169	C	0.102440	-0.273808	-0.158964
C170	C	0.435773	0.059525	0.174369
C171	C	0.769107	0.392858	0.507703
C172	C	0.055525	-0.273805	-0.158968
C173	C	0.388858	0.059528	0.174365
C174	C	0.722191	0.392862	0.507698
C175	C	0.032092	-0.245119	-0.187747
C176	C	0.365426	0.088215	0.145586
C177	C	0.698759	0.421548	0.478919
C178	C	0.649119	-0.333163	-0.216514
C179	C	0.982452	0.000170	0.116820
C180	C	1.315785	0.333503	0.450153
C181	C	0.649135	-0.383098	-0.216528
C182	C	0.982469	-0.049764	0.116805
C183	C	1.315802	0.283569	0.450139
C184	C	0.677929	-0.739650	-0.245286
C185	C	1.011262	-0.406317	0.088047
C186	C	1.344595	-0.072983	0.421380
C187	C	0.677886	-0.551977	-0.245286
C188	C	1.011219	-0.218643	0.088048
C189	C	1.344553	0.114690	0.421381
O190	O	0.702309	-0.527682	-0.269730
O191	O	1.035642	-0.194349	0.063603
O192	O	1.368976	0.138984	0.396936
N193	N	0.649171	-0.528543	-0.216527
N194	N	0.982504	-0.195210	0.116806
N195	N	1.315837	0.138124	0.450140
C196	C	0.620466	-0.552030	-0.187764
C197	C	0.953799	-0.218697	0.145569
C198	C	1.287133	0.114637	0.478902
O199	O	0.596044	-0.527792	-0.163300
O200	O	0.929378	-0.194458	0.170033
O201	O	1.262711	0.138875	0.503367
C202	C	0.620511	-0.739702	-0.187763
C203	C	0.953845	-0.406369	0.145570
C204	C	1.287178	-0.073036	0.478904
C205	C	0.649225	-0.763134	-0.216527
C206	C	0.982559	-0.429800	0.116807
C207	C	1.315892	-0.096467	0.450140
C208	C	0.706641	-0.763081	-0.274047
C209	C	1.039974	-0.429748	0.059286
C210	C	1.373307	-0.096415	0.392619
C211	C	0.706649	-0.809997	-0.274049
C212	C	1.039983	-0.476664	0.059285
C213	C	1.373316	-0.143330	0.392618
C214	C	0.677946	-0.833481	-0.245289
C215	C	1.011279	-0.500147	0.088044
C216	C	1.344613	-0.166814	0.421377
C217	C	0.649234	-0.810049	-0.216528
C218	C	0.982567	-0.476716	0.116805
C219	C	1.315901	-0.143383	0.450138
C220	C	0.591809	-0.763189	-0.158998
C221	C	0.925142	-0.429855	0.174335
C222	C	1.258476	-0.096522	0.507668
C223	C	0.591824	-0.810110	-0.159000
C224	C	0.925157	-0.476776	0.174334
C225	C	1.258490	-0.143443	0.507667
C226	C	0.620538	-0.833541	-0.187764
C227	C	0.953871	-0.500208	0.145570
C228	C	1.287204	-0.166874	0.478903
C229	C	0.620539	-0.880449	-0.187770
C230	C	0.953872	-0.547115	0.145563
C231	C	1.287206	-0.213782	0.478896
N232	N	0.649254	-0.903883	-0.216529
N233	N	0.982588	-0.570549	0.116804
N234	N	1.315921	-0.237216	0.450138
C235	C	0.677958	-0.880399	-0.245289
C236	C	1.011291	-0.547065	0.088045
C237	C	1.344624	-0.213732	0.421378
C238	C	0.620444	-0.453499	-0.187768
C239	C	0.953777	-0.120166	0.145566
C240	C	1.287110	0.213167	0.478899
C241	C	0.620432	-0.406582	-0.187769
C242	C	0.953765	-0.073248	0.145565
C243	C	1.287099	0.260085	0.478898
C244	C	0.677853	-0.406532	-0.245289
C245	C	1.011186	-0.073198	0.088044
C246	C	1.344519	0.260135	0.421377
C247	C	0.677862	-0.453450	-0.245290
C248	C	1.011195	-0.120117	0.088043
C249	C	1.344529	0.213216	0.421376
C250	C	0.649159	-0.476933	-0.216526
C251	C	0.982492	-0.143600	0.116807
C252	C	1.315826	0.189733	0.450140
C253	C	0.677973	-0.978924	-0.245290
C254	C	1.011307	-0.645591	0.088043
C255	C	1.344640	-0.312258	0.421377
C256	C	0.677978	-1.025844	-0.245290
C257	C	1.011312	-0.692511	0.088043
C258	C	1.344645	-0.359177	0.421376
C259	C	0.620559	-1.025890	-0.187768
C260	C	0.953893	-0.692557	0.145565
C261	C	1.287226	-0.359223	0.478899
C262	C	0.620553	-0.978974	-0.187769
C263	C	0.953886	-0.645641	0.145564
C264	C	1.287219	-0.312308	0.478898
C265	C	0.649263	-0.955493	-0.216532
C266	C	0.982597	-0.622160	0.116802
C267	C	1.315930	-0.288826	0.450135
O268	O	0.596132	-0.904772	-0.163335
O269	O	0.929466	-0.571439	0.169998
O270	O	1.262799	-0.238105	0.503332
O271	O	0.702383	-0.904645	-0.269742
O272	O	1.035716	-0.571312	0.063591
O273	O	1.369050	-0.237978	0.396925
C274	C	0.677920	-0.692734	-0.245285
C275	C	1.011253	-0.359401	0.088049
C276	C	1.344587	-0.026068	0.421382
C277	C	0.649208	-0.669303	-0.216524
C278	C	0.982541	-0.335970	0.116810
C279	C	1.315875	-0.002636	0.450143
C280	C	0.620505	-0.692787	-0.187764
C281	C	0.953838	-0.359453	0.145569
C282	C	1.287171	-0.026120	0.478903
C283	C	0.649196	-0.622385	-0.216524
C284	C	0.982529	-0.289052	0.116809
C285	C	1.315863	0.044282	0.450142
C286	C	0.677900	-0.598901	-0.245284
C287	C	1.011233	-0.265568	0.088049
C288	C	1.344566	0.067766	0.421383
C289	C	0.706615	-0.622335	-0.274043
C290	C	1.039948	-0.289002	0.059291
C291	C	1.373282	0.044332	0.392624
C292	C	0.706623	-0.669250	-0.274044
C293	C	1.039957	-0.335917	0.059289
C294	C	1.373290	-0.002584	0.392623
C295	C	0.591789	-0.669353	-0.159005
C296	C	0.925123	-0.336020	0.174328
C297	C	1.258456	-0.002686	0.507661
C298	C	0.591783	-0.622437	-0.159007
C299	C	0.925116	-0.289104	0.174327
C300	C	1.258449	0.044229	0.507660
C301	C	0.620486	-0.598953	-0.187766
C302	C	0.953819	-0.265620	0.145567
C303	C	1.287153	0.067713	0.478901
C304	C	0.766354	-0.216445	-0.216534
C305	C	1.099687	0.116889	0.116799
C306	C	1.433021	0.450222	0.450132
C307	C	0.816288	-0.216446	-0.216543
C308	C	1.149622	0.116887	0.116791
C309	C	1.482955	0.450221	0.450124
C310	C	0.649188	-0.216437	-0.333693
C311	C	0.982521	0.116897	-0.000360
C312	C	1.315854	0.450230	0.332973
C313	C	0.649193	-0.216435	-0.383628
C314	C	0.982526	0.116898	-0.050294
C315	C	1.315860	0.450232	0.283039
C316	C	0.649245	-0.099262	-0.216526
C317	C	0.982578	0.234071	0.116807
C318	C	1.315912	0.567404	0.450141
C319	C	0.649275	-0.049328	-0.216531
C320	C	0.982608	0.284005	0.116803
C321	C	1.315941	0.617339	0.450136
C322	C	0.677974	-0.187627	-0.693282
C323	C	1.011307	0.145706	-0.359948
C324	C	1.344640	0.479040	-0.026615
C325	C	0.677996	-0.187589	-0.880955
C326	C	1.011329	0.145745	-0.547622
C327	C	1.344663	0.479078	-0.214288
O328	O	0.702433	-0.163138	-0.905229
O329	O	1.035767	0.170195	-0.571895
O330	O	1.369100	0.503529	-0.238562
N331	N	0.649253	-0.216315	-0.904413
N332	N	0.982586	0.117019	-0.571080
N333	N	1.315919	0.450352	-0.237746
C334	C	0.620499	-0.245050	-0.880950
C335	C	0.953833	0.088283	-0.547617
C336	C	1.287166	0.421617	-0.214283
O337	O	0.596048	-0.269479	-0.905209
O338	O	0.929382	0.063854	-0.571875
O339	O	1.262715	0.397188	-0.238542
C340	C	0.620475	-0.245086	-0.693278
C341	C	0.953808	0.088248	-0.359944
C342	C	1.287142	0.421581	-0.026611
C343	C	0.649224	-0.216361	-0.669822
C344	C	0.982557	0.116972	-0.336489
C345	C	1.315890	0.450305	-0.003155
C346	C	0.706720	-0.158905	-0.669826
C347	C	1.040053	0.174429	-0.336493
C348	C	1.373386	0.507762	-0.003159
C349	C	0.706716	-0.158916	-0.622910
C350	C	1.040049	0.174417	-0.289577
C351	C	1.373382	0.507750	0.043756
C352	C	0.677966	-0.187650	-0.599451
C353	C	1.011299	0.145683	-0.266117
C354	C	1.344632	0.479016	0.067216
C355	C	0.649220	-0.216373	-0.622907
C356	C	0.982553	0.116960	-0.289573
C357	C	1.315886	0.450294	0.043760
C358	C	0.591720	-0.273819	-0.669816
C359	C	0.925053	0.059515	-0.336482
C360	C	1.258387	0.392848	-0.003149
C361	C	0.591716	-0.273824	-0.622894
C362	C	0.925049	0.059509	-0.289561
C363	C	1.258382	0.392842	0.043772
C364	C	0.620464	-0.245100	-0.599439
C365	C	0.953798	0.088234	-0.266105
C366	C	1.287131	0.421567	0.067228
C367	C	0.620465	-0.245119	-0.552531
C368	C	0.953799	0.088215	-0.219198
C369	C	1.287132	0.421548	0.114135
N370	N	0.649209	-0.216393	-0.529073
N371	N	0.982542	0.116941	-0.195740
N372	N	1.315876	0.450274	0.137593
C373	C	0.677959	-0.187659	-0.552533
C374	C	1.011292	0.145675	-0.219200
C375	C	1.344626	0.479008	0.114134
C376	C	0.620515	-0.245030	-0.979481
C377	C	0.953848	0.088303	-0.646147
C378	C	1.287181	0.421637	-0.312814
C379	C	0.620521	-0.245022	-1.026398
C380	C	0.953855	0.088312	-0.693065
C381	C	1.287188	0.421645	-0.359732
C382	C	0.678018	-0.187560	-1.026400
C383	C	1.011351	0.145774	-0.693067
C384	C	1.344684	0.479107	-0.359733
C385	C	0.678013	-0.187571	-0.979481
C386	C	1.011346	0.145763	-0.646148
C387	C	1.344680	0.479096	-0.312815
C388	C	0.649258	-0.216304	-0.956022
C389	C	0.982592	0.117029	-0.622689
C390	C	1.315925	0.450363	-0.289356
C391	C	0.677948	-0.187685	-0.454007
C392	C	1.011282	0.145648	-0.120674
C393	C	1.344615	0.478981	0.212660
C394	C	0.677943	-0.187701	-0.407087
C395	C	1.011276	0.145632	-0.073754
C396	C	1.344610	0.478966	0.259579
C397	C	0.620445	-0.245161	-0.407090
C398	C	0.953779	0.088172	-0.073757
C399	C	1.287112	0.421506	0.259577
C400	C	0.620452	-0.245147	-0.454005
C401	C	0.953785	0.088186	-0.120672
C402	C	1.287119	0.421519	0.212661
C403	C	0.649205	-0.216406	-0.477463
C404	C	0.982539	0.116927	-0.144129
C405	C	1.315872	0.450261	0.189204
O406	O	0.596038	-0.269553	-0.528229
O407	O	0.929371	0.063780	-0.194895
O408	O	1.262704	0.397113	0.138438
O409	O	0.702399	-0.163226	-0.528266
O410	O	1.035733	0.170107	-0.194933
O411	O	1.369066	0.503440	0.138401
C412	C	0.677978	-0.187616	-0.740197
C413	C	1.011311	0.145718	-0.406864
C414	C	1.344645	0.479051	-0.073531
C415	C	0.649232	-0.216338	-0.763653
C416	C	0.982565	0.116995	-0.430320
C417	C	1.315899	0.450329	-0.096986
C418	C	0.620482	-0.245072	-0.740193
C419	C	0.953815	0.088261	-0.406860
C420	C	1.287149	0.421594	-0.073527
C421	C	0.649239	-0.216330	-0.810571
C422	C	0.982572	0.117004	-0.477237
C423	C	1.315905	0.450337	-0.143904
C424	C	0.677989	-0.187596	-0.834031
C425	C	1.011322	0.145738	-0.500697
C426	C	1.344655	0.479071	-0.167364
C427	C	0.706732	-0.158870	-0.810572
C428	C	1.040066	0.174464	-0.477239
C429	C	1.373399	0.507797	-0.143906
C430	C	0.706728	-0.158881	-0.763657
C431	C	1.040061	0.174452	-0.430324
C432	C	1.373395	0.507785	-0.096990
C433	C	0.591738	-0.273798	-0.763651
C434	C	0.925072	0.059535	-0.430318
C435	C	1.258405	0.392869	-0.096985
C436	C	0.591745	-0.273785	-0.810567
C437	C	0.925079	0.059549	-0.477234
C438	C	1.258412	0.392882	-0.143900
C439	C	0.620495	-0.245050	-0.834027
C440	C	0.953829	0.088283	-0.500693
C441	C	1.287162	0.421616	-0.167360
C442	C	0.649189	-0.216412	-0.099792
C443	C	0.982523	0.116921	0.233541
C444	C	1.315856	0.450254	0.566874
C445	C	0.649271	-0.216288	-0.049858
C446	C	0.982605	0.117046	0.283475
C447	C	1.315938	0.450379	0.616808
H448	H	0.036543	-0.135705	-0.297511
H449	H	0.369876	0.197628	0.035823
H450	H	0.703209	0.530962	0.369156
H451	H	0.597099	-0.268431	-0.960385
H452	H	0.930433	0.064902	-0.627051
H453	H	1.263766	0.398235	-0.293718
H454	H	0.568335	-0.297180	-0.829660
H455	H	0.901669	0.036154	-0.496327
H456	H	1.235002	0.369487	-0.162994
H457	H	0.701242	-0.472525	-0.268714
H458	H	1.034575	-0.139192	0.064619
H459	H	1.367908	0.194142	0.397952
C460	C	0.709568	-0.156098	-0.381289
C461	C	1.042901	0.177235	-0.047956
C462	C	1.376235	0.510569	0.285378
N463	N	0.733386	-0.132294	-0.361859
N464	N	1.066719	0.201039	-0.028526
N465	N	1.400052	0.534373	0.304808
C466	C	0.269117	-0.127501	-0.305724
C467	C	0.602450	0.205832	0.027610
C468	C	0.935783	0.539165	0.360943
N469	N	0.288565	-0.103723	-0.329565
N470	N	0.621899	0.229610	0.003768
N471	N	0.955232	0.562944	0.337102
H472	H	0.701224	-0.387403	-0.268707
H473	H	1.034557	-0.054070	0.064626
H474	H	1.367890	0.279264	0.397959
H475	H	0.701360	-0.164280	-0.473101
H476	H	1.034694	0.169053	-0.139767
H477	H	1.368027	0.502387	0.193566
H478	H	0.177302	-0.135702	-0.297506
H479	H	0.510635	0.197631	0.035827
H480	H	0.843969	0.530964	0.369160
C481	C	0.709570	-1.051616	-0.276931
C482	C	1.042903	-0.718283	0.056402
C483	C	1.376237	-0.384949	0.389736
N484	N	0.733366	-1.071026	-0.300761
N485	N	1.066699	-0.737692	0.032573
N486	N	1.400033	-0.404359	0.365906
H487	H	0.597039	-0.268557	-0.387980
H488	H	0.930372	0.064776	-0.054647
H489	H	1.263706	0.398110	0.278686
C490	C	-0.186010	-0.156198	-0.276975
C491	C	0.147323	0.177136	0.056358
C492	C	0.480657	0.510469	0.389692
N493	N	-0.205433	-0.132427	-0.300813
N494	N	0.127901	0.200907	0.032520
N495	N	0.461234	0.534240	0.365854
H496	H	0.568450	-0.829227	-0.135576
H497	H	0.901784	-0.495894	0.197758
H498	H	1.235117	-0.162560	0.531091
C499	C	-0.186106	-0.276693	-0.156106
C500	C	0.147228	0.056641	0.177228
C501	C	0.480561	0.389974	0.510561
N502	N	-0.205557	-0.300462	-0.132257
N503	N	0.127777	0.032871	0.201076
N504	N	0.461110	0.366204	0.534410
H505	H	0.568310	-0.297209	-0.688905
H506	H	0.901643	0.036124	-0.355572
H507	H	1.234976	0.369458	-0.022238
H508	H	-0.094288	-0.268491	-0.164319
H509	H	0.239045	0.064842	0.169014
H510	H	0.572379	0.398175	0.502348
C511	C	0.738350	-0.127278	-0.737862
C512	C	1.071684	0.206055	-0.404528
C513	C	1.405017	0.539389	-0.071195
N514	N	0.762169	-0.103471	-0.718436
N515	N	1.095502	0.229862	-0.385102
N516	N	1.428835	0.563195	-0.051769
H517	H	0.478116	-0.268492	-0.164289
H518	H	0.811449	0.064842	0.169045
H519	H	1.144783	0.398175	0.502378
H520	H	0.121661	-0.135702	-0.297510
H521	H	0.454994	0.197631	0.035824
H522	H	0.788327	0.530965	0.369157
H523	H	0.597045	-0.387507	-0.164351
H524	H	0.930379	-0.054174	0.168982
H525	H	1.263712	0.279160	0.502315
C526	C	0.738355	-0.127260	-0.836387
C527	C	1.071688	0.206073	-0.503054
C528	C	1.405022	0.539407	-0.169720
N529	N	0.762170	-0.103450	-0.855833
N530	N	1.095503	0.229883	-0.522500
N531	N	1.428836	0.563217	-0.189166
C532	C	0.560083	-0.305435	-0.597093
C533	C	0.893417	0.027898	-0.263759
C534	C	1.226750	0.361231	0.069574
N535	N	0.536259	-0.329246	-0.577660
N536	N	0.869593	0.004087	-0.244326
N537	N	1.202926	0.337421	0.089007
C538	C	0.738245	-0.835765	-0.305684
C539	C	1.071579	-0.502432	0.027650
C540	C	1.404912	-0.169099	0.360983
N541	N	0.762048	-0.855171	-0.329510
N542	N	1.095381	-0.521838	0.003824
N543	N	1.428715	-0.188505	0.337157
H544	H	0.568327	-0.297198	-0.744555
H545	H	0.901660	0.036135	-0.411222
H546	H	1.234993	0.369469	-0.077889
C547	C	0.170455	-0.305361	-0.127283
C548	C	0.503788	0.027973	0.206050
C549	C	0.837121	0.361306	0.539383
N550	N	0.151007	-0.329126	-0.103427
N551	N	0.484340	0.004208	0.229906
N552	N	0.817674	0.337541	0.563239
C553	C	0.738190	-0.596494	-0.305677
C554	C	1.071523	-0.263160	0.027656
C555	C	1.404857	0.070173	0.360990
N556	N	0.761973	-0.577028	-0.329500
N557	N	1.095306	-0.243694	0.003833
N558	N	1.428640	0.089639	0.337166
C559	C	0.588969	-0.953199	-0.156125
C560	C	0.922302	-0.619866	0.177208
C561	C	1.255635	-0.286532	0.510542
N562	N	0.565184	-0.933788	-0.132285
N563	N	0.898517	-0.600455	0.201048
N564	N	1.231851	-0.267122	0.534382
H565	H	0.730125	-0.135525	-0.603817
H566	H	1.063458	0.197809	-0.270484
H567	H	1.396792	0.531142	0.062850
C568	C	0.588830	-0.276748	-0.479807
C569	C	0.922163	0.056585	-0.146474
C570	C	1.255497	0.389918	0.186859
N571	N	0.565009	-0.300548	-0.499238
N572	N	0.898342	0.032786	-0.165905
N573	N	1.231675	0.366119	0.167428
H574	H	0.036408	-0.297170	-0.135533
H575	H	0.369742	0.036164	0.197800
H576	H	0.703075	0.369497	0.531134
C577	C	0.709635	-0.155968	-0.953685
C578	C	1.042968	0.177365	-0.620351
C579	C	1.376302	0.510698	-0.287018
N580	N	0.733453	-0.132163	-0.934257
N581	N	1.066786	0.201171	-0.600923
N582	N	1.400119	0.534504	-0.267590
C583	C	0.268968	-0.305362	-0.127284
C584	C	0.602302	0.027971	0.206049
C585	C	0.935635	0.361305	0.539382
N586	N	0.288379	-0.329133	-0.103436
N587	N	0.621712	0.004200	0.229897
N588	N	0.955045	0.337533	0.563230
H589	H	-0.094190	-0.164396	-0.268752
H590	H	0.239143	0.168938	0.064581
H591	H	0.572476	0.502271	0.397914
C592	C	0.588899	-0.276624	-1.052194
C593	C	0.922232	0.056709	-0.718861
C594	C	1.255565	0.390043	-0.385528
N595	N	0.565077	-0.300426	-1.071622
N596	N	0.898411	0.032907	-0.738289
N597	N	1.231744	0.366241	-0.404956
H598	H	0.392992	-0.268496	-0.164294
H599	H	0.726326	0.064837	0.169040
H600	H	1.059659	0.398170	0.502373
H601	H	0.121514	-0.297168	-0.135527
H602	H	0.454847	0.036165	0.197806
H603	H	0.788180	0.369499	0.531139
C604	C	0.709555	-0.953101	-0.276932
C605	C	1.042888	-0.619768	0.056402
C606	C	1.376222	-0.286435	0.389735
N607	N	0.733340	-0.933652	-0.300767
N608	N	1.066673	-0.600319	0.032567
N609	N	1.400007	-0.266985	0.365900
C610	C	0.738221	-0.737256	-0.305686
C611	C	1.071555	-0.403923	0.027647
C612	C	1.404888	-0.070590	0.360980
N613	N	0.762008	-0.717808	-0.329521
N614	N	1.095341	-0.384475	0.003813
N615	N	1.428675	-0.051142	0.337146
C616	C	0.589019	-1.051731	-0.156102
C617	C	0.922353	-0.718398	0.177231
C618	C	1.255686	-0.385065	0.510565
N619	N	0.565277	-1.071196	-0.132237
N620	N	0.898610	-0.737863	0.201096
N621	N	1.231944	-0.404530	0.534430
C622	C	0.588863	-0.479325	-0.156126
C623	C	0.922196	-0.145992	0.177207
C624	C	1.255530	0.187342	0.510540
N625	N	0.565074	-0.498775	-0.132295
N626	N	0.898407	-0.165441	0.201038
N627	N	1.231741	0.167892	0.534371
C628	C	0.709640	-0.155949	-1.052214
C629	C	1.042974	0.177384	-0.718881
C630	C	1.376307	0.510717	-0.385548
N631	N	0.733454	-0.132139	-1.071660
N632	N	1.066788	0.201195	-0.738327
N633	N	1.400121	0.534528	-0.404993
H634	H	0.568428	-0.744117	-0.135576
H635	H	0.901761	-0.410784	0.197757
H636	H	1.235095	-0.077451	0.531090
C637	C	0.560187	-0.596668	-0.127367
C638	C	0.893521	-0.263335	0.205966
C639	C	1.226854	0.069999	0.539300
N640	N	0.536392	-0.577260	-0.103536
N641	N	0.869725	-0.243927	0.229798
N642	N	1.203058	0.089406	0.563131
C643	C	0.560209	-0.695179	-0.127368
C644	C	0.893542	-0.361845	0.205965
C645	C	1.226876	-0.028512	0.539298
N646	N	0.536418	-0.714629	-0.103539
N647	N	0.869752	-0.381295	0.229794
N648	N	1.203085	-0.047962	0.563127
H649	H	0.478204	-0.164399	-0.268715
H650	H	0.811538	0.168934	0.064618
H651	H	1.144871	0.502267	0.397952
H652	H	0.393096	-0.164389	-0.268716
H653	H	0.726429	0.168945	0.064617
H654	H	1.059763	0.502278	0.397951
H655	H	0.730132	-0.135503	-0.688922
H656	H	1.063465	0.197830	-0.355589
H657	H	1.396798	0.531163	-0.022255
H658	H	0.730005	-0.688324	-0.297467
H659	H	1.063338	-0.354991	0.035866
H660	H	1.396672	-0.021658	0.369200
