data_functionalizedCrystal
_audit_creation_method	'MofGen! by Chris Wilmer'
_symmetry_space_group_name_H-M	'P1'
_symmetry_Int_Tables_number	1
_symmetry_cell_setting	triclinic
loop_
_symmetry_equiv_pos_as_xyz
  x,y,z
_cell_length_a	12.759401
_cell_length_b	12.759400
_cell_length_c	12.759393
_cell_angle_alpha	90.028927
_cell_angle_beta	90.018496
_cell_angle_gamma	90.014444
loop_
_atom_site_label
_atom_site_type_symbol
_atom_site_fract_x
_atom_site_fract_y
_atom_site_fract_z
Zn1	Zn	1.606258	-0.418200	0.594001
Zn2	Zn	1.606154	-0.593919	0.418329
Zn3	Zn	1.430560	-0.418255	0.418340
Zn4	Zn	1.430550	-0.593838	0.593970
O5	O	1.518381	-0.506053	0.506160
O6	O	1.753266	-0.441520	0.570705
O7	O	1.582822	-0.570673	0.271309
O8	O	1.453915	-0.271226	0.441659
O9	O	1.753189	-0.570620	0.441640
O10	O	1.583000	-0.271186	0.570716
O11	O	1.453814	-0.441614	0.271317
O12	O	1.283538	-0.441535	0.441630
O13	O	1.453898	-0.570482	0.740995
O14	O	1.283531	-0.570536	0.570665
O15	O	1.582990	-0.441442	0.741018
O16	O	1.582812	-0.740929	0.441611
O17	O	1.453797	-0.740870	0.570654
C18	C	1.245413	-0.506033	0.506146
C19	C	1.128637	-0.506050	0.506164
C20	C	1.518320	-0.779020	0.506151
C21	C	1.518391	-0.895797	0.506182
C22	C	1.073798	-0.573328	0.573242
C23	C	0.964074	-0.573342	0.573253
C24	C	0.964037	-0.438796	0.439101
C25	C	1.073759	-0.438778	0.439096
C26	C	1.073819	-0.651010	0.650690
C27	C	0.964095	-0.651024	0.650702
C28	C	1.451198	-0.950666	0.573321
C29	C	1.451254	-1.060390	0.573331
C30	C	1.585704	-1.060366	0.439059
C31	C	1.585642	-0.950644	0.439045
C32	C	1.383947	-0.895819	0.640458
C33	C	1.316749	-0.950688	0.707604
C34	C	1.316805	-1.060412	0.707614
C35	C	1.384058	-1.115267	0.640478
C36	C	1.792414	-0.506073	0.506175
C37	C	1.909191	-0.506082	0.506181
C38	C	1.518454	-0.505947	0.780193
C39	C	1.518486	-0.505902	0.896970
C40	C	1.518470	-0.232019	0.506192
C41	C	1.518508	-0.115243	0.506206
C42	C	1.518368	-0.506083	0.233193
C43	C	1.518540	-0.505832	0.116416
C44	C	1.585713	-0.438704	0.951845
C45	C	1.585738	-0.438666	1.061570
C46	C	1.451305	-0.573033	1.061533
C47	C	1.451276	-0.573064	0.951811
C48	C	1.663330	-0.361131	0.951867
C49	C	1.663355	-0.361093	1.061591
H50	H	1.118404	-0.383987	0.384482
Br51	Br	1.798977	-0.397395	1.111236
H52	H	1.640459	-1.105037	0.384402
Br53	Br	1.225471	-0.876247	0.798701
Br54	Br	1.676819	-0.876171	0.347911
H55	H	1.396529	-0.627780	0.907136
Br56	Br	0.914424	-0.786595	0.614118
H57	H	0.919342	-0.384025	0.384497
H58	H	1.396583	-0.627712	1.106198
H59	H	1.103627	-0.629311	0.732096
H60	H	1.107834	-0.728262	0.621409
H61	H	1.384095	-1.204612	0.640489
H62	H	1.641561	-0.279767	0.922108
Br63	Br	1.225603	-1.134876	0.798730
Br64	Br	0.907418	-0.602613	0.779617
Br65	Br	1.614659	-0.232311	1.118346
Br66	Br	1.383964	-0.746908	0.640545
Br67	Br	1.792119	-0.409744	0.895130
