data_functionalizedCrystal
_audit_creation_method	'MofGen! by Chris Wilmer'
_symmetry_space_group_name_H-M	'P1'
_symmetry_Int_Tables_number	1
_symmetry_cell_setting	triclinic
loop_
_symmetry_equiv_pos_as_xyz
  x,y,z
_cell_length_a	6.817900
_cell_length_b	11.102244
_cell_length_c	14.858572
_cell_angle_alpha	93.466518
_cell_angle_beta	104.524003
_cell_angle_gamma	108.604870
loop_
_atom_site_label
_atom_site_type_symbol
_atom_site_fract_x
_atom_site_fract_y
_atom_site_fract_z
V1	V	-4.064541	-0.176638	-0.289958
V2	V	-3.564541	0.323362	0.210042
O3	O	-4.024475	0.007665	-0.284441
O4	O	-3.524475	0.507665	0.215559
O5	O	-4.041634	-0.349452	-0.287972
O6	O	-3.541634	0.150548	0.212028
O7	O	-4.020832	-0.174282	-0.416419
O8	O	-3.520832	0.325718	0.083581
O9	O	-4.045421	-0.168718	-0.155104
O10	O	-3.545421	0.331282	0.344896
V11	V	-4.544258	-0.154551	-0.273828
V12	V	-4.044258	0.345449	0.226172
O13	O	-4.334149	-0.225089	-0.325339
O14	O	-3.834149	0.274911	0.174661
O15	O	-4.724848	-0.106100	-0.238448
O16	O	-4.224848	0.393900	0.261552
O17	O	-4.343959	0.018263	-0.275814
O18	O	-3.843959	0.518263	0.224186
O19	O	-4.701722	-0.338854	-0.279346
O20	O	-4.201722	0.161146	0.220654
O21	O	-4.680776	-0.162471	-0.408682
O22	O	-4.180776	0.337529	0.091318
O23	O	-4.364762	-0.156907	-0.147367
O24	O	-3.864762	0.343093	0.352633
C25	C	-3.892685	-0.391569	-0.283397
C26	C	-3.392685	0.108431	0.216603
C27	C	-3.955273	-0.532850	-0.282617
C28	C	-3.455273	-0.032850	0.217383
C29	C	-3.938305	-0.580848	-0.197090
C30	C	-3.438305	-0.080848	0.302910
C31	C	-3.997126	-0.713599	-0.196367
C32	C	-3.497126	-0.213599	0.303633
C33	C	-4.089876	-0.750341	-0.366707
C34	C	-3.589876	-0.250341	0.133293
C35	C	-4.031069	-0.617593	-0.367428
C36	C	-3.531069	-0.117593	0.132572
C37	C	-3.884748	-0.559636	-0.098746
C38	C	-3.384748	-0.059636	0.401254
C39	C	-3.943570	-0.692387	-0.098023
C40	C	-3.443570	-0.192387	0.401977
C41	C	-3.866148	-0.168121	-0.447243
C42	C	-3.366148	0.331879	0.052757
C43	C	-3.911863	-0.167338	-0.550626
C44	C	-3.411863	0.332662	-0.050626
C45	C	-4.079180	-0.164478	-0.929195
C46	C	-3.579180	0.335522	-0.429195
C47	C	-4.032619	-0.165274	-0.823865
C48	C	-3.532619	0.334726	-0.323865
C49	C	-3.995523	-0.165909	-0.739914
C50	C	-3.495523	0.334091	-0.239914
C51	C	-3.948958	-0.166703	-0.634578
C52	C	-3.448958	0.333297	-0.134578
C53	C	-4.156252	0.060374	-0.280386
C54	C	-3.656252	0.560374	0.219614
C55	C	-4.072902	0.201653	-0.281173
C56	C	-3.572902	0.701653	0.218827
C57	C	-4.182788	-0.163072	-0.116538
C58	C	-3.682788	0.336928	0.383462
C59	C	-4.116311	-0.163848	-0.013154
C60	C	-3.616311	0.336152	0.486846
H61	H	-4.044907	-0.578520	-0.437073
H62	H	-3.544907	-0.078520	0.062927
H63	H	-4.151594	-0.819355	-0.435757
H64	H	-3.651594	-0.319355	0.064243
H65	H	-3.988918	-0.520447	-0.064740
H66	H	-3.488918	-0.020447	0.435260
C67	C	-3.641571	-0.488169	-0.052861
C68	C	-3.141571	0.011831	0.447139
H69	H	-3.573975	-0.548203	-0.031923
H70	H	-3.073975	-0.048203	0.468077
H71	H	-3.579062	-0.445107	-0.097589
H72	H	-3.079062	0.054893	0.402411
H73	H	-3.621656	-0.427118	-0.000748
H74	H	-3.121656	0.072882	0.499252
H75	H	-4.090358	-0.732113	-0.070954
H76	H	-3.590358	-0.232113	0.429046
H77	H	-3.798275	-0.715291	-0.056512
H78	H	-3.298275	-0.215291	0.443488
