data_functionalizedCrystal
_audit_creation_method	'MofGen! by Chris Wilmer'
_symmetry_space_group_name_H-M	'P1'
_symmetry_Int_Tables_number	1
_symmetry_cell_setting	triclinic
loop_
_symmetry_equiv_pos_as_xyz
  x,y,z
_cell_length_a	9.065218
_cell_length_b	15.995350
_cell_length_c	8.140239
_cell_angle_alpha	89.998714
_cell_angle_beta	89.997198
_cell_angle_gamma	84.254130
loop_
_atom_site_label
_atom_site_type_symbol
_atom_site_fract_x
_atom_site_fract_y
_atom_site_fract_z
O1	O	1.957507	0.122770	-0.136609
O2	O	1.527985	0.132840	-0.136610
O3	O	1.754487	0.006007	-0.136608
O4	O	1.731005	0.249604	-0.136611
O5	O	1.754475	0.006005	0.136619
O6	O	1.527973	0.132839	0.136617
O7	O	1.957495	0.122769	0.136619
Zn8	Zn	1.742732	0.127803	0.179998
Zn9	Zn	1.742748	0.127806	-0.179990
O10	O	1.730992	0.249602	0.136616
C11	C	1.473015	0.131872	0.000003
C12	C	1.309240	0.128978	0.000002
C13	C	1.753510	-0.025196	0.000003
C14	C	1.750600	-0.118169	-0.000007
C15	C	1.740148	-0.455995	-0.000001
C16	C	1.578837	-0.409785	-0.000615
C17	C	1.581748	-0.313072	0.000001
C18	C	1.745332	-0.288396	-0.000005
C19	C	1.824889	-0.328871	0.156019
C20	C	1.820837	-0.425537	0.156149
C21	C	1.824183	-0.425868	-0.154561
C22	C	1.824145	-0.328923	-0.156623
C23	C	1.748271	-0.193676	-0.000001
C24	C	1.737214	-0.550716	0.000006
C25	C	2.012465	0.123737	0.000002
C26	C	2.176239	0.126631	-0.000008
C27	C	1.731969	0.280805	0.000002
C28	C	1.734880	0.373778	0.000001
N29	N	1.742731	0.127802	0.425681
N30	N	1.742760	0.127801	-0.425673
H31	H	1.514368	-0.428805	-0.112502
C32	C	1.742435	-0.450860	0.313695
H33	H	1.713350	-0.402088	0.377011
H34	H	1.808341	-0.488331	0.376078
H35	H	1.657217	-0.477768	0.285184
C36	C	1.980818	-0.467893	0.165738
H37	H	2.047995	-0.425999	0.169551
H38	H	2.001174	-0.502256	0.071658
H39	H	1.991984	-0.501541	0.261959
C40	C	1.752942	-0.454147	-0.314317
H41	H	1.671270	-0.484594	-0.288243
H42	H	1.824122	-0.489081	-0.375243
H43	H	1.719442	-0.406202	-0.378007
C44	C	1.984849	-0.467554	-0.156002
H45	H	2.035068	-0.449100	-0.249666
H46	H	1.984292	-0.526874	-0.160009
H47	H	2.034313	-0.452390	-0.059211
C48	C	1.987238	-0.308554	0.163870
H49	H	2.007990	-0.275124	0.071848
H50	H	2.051207	-0.359356	0.162424
H51	H	2.002666	-0.278631	0.262180
H52	H	1.519210	-0.285124	-0.111842
H53	H	1.765979	-0.302115	-0.272045
H54	H	1.943438	-0.312656	-0.166048
H55	H	1.769623	-0.300909	0.272130
H56	H	1.514644	-0.429866	0.110649
C57	C	1.496707	-0.276071	0.151360
H58	H	1.460255	-0.320157	0.212720
H59	H	1.415972	-0.237711	0.116580
H60	H	1.561448	-0.247528	0.218187
