data_functionalizedCrystal
_audit_creation_method	'MofGen! by Chris Wilmer'
_symmetry_space_group_name_H-M	'P1'
_symmetry_Int_Tables_number	1
_symmetry_cell_setting	triclinic
loop_
_symmetry_equiv_pos_as_xyz
  x,y,z
_cell_length_a	14.853569
_cell_length_b	16.109301
_cell_length_c	14.586319
_cell_angle_alpha	90.005214
_cell_angle_beta	89.998466
_cell_angle_gamma	96.451477
loop_
_atom_site_label
_atom_site_type_symbol
_atom_site_fract_x
_atom_site_fract_y
_atom_site_fract_z
O1	O	1.196183	-0.108553	-0.076201
O2	O	0.933703	-0.121482	-0.076213
O3	O	1.072154	0.006004	-0.076197
O4	O	1.057732	-0.236038	-0.076217
O5	O	1.072144	0.006005	0.076283
O6	O	0.933693	-0.121480	0.076268
O7	O	1.196174	-0.108551	0.076279
Cu8	Cu	1.064933	-0.115015	0.090196
Cu9	Cu	1.064944	-0.115017	-0.090130
O10	O	1.057723	-0.236036	0.076264
C11	C	0.900110	-0.120895	0.000026
C12	C	0.800030	-0.119139	0.000022
C13	C	0.763779	-0.042586	0.000025
C14	C	0.742240	-0.194042	0.000023
C15	C	0.648208	-0.192394	0.000024
C16	C	0.611958	-0.115841	0.000027
C17	C	0.669740	-0.040936	0.000029
C18	C	0.590420	-0.267298	0.000032
C19	C	0.496382	-0.265654	0.000034
C20	C	0.460131	-0.189100	0.000031
C21	C	0.517918	-0.114191	0.000031
C22	C	0.481668	-0.037638	0.000034
C23	C	0.539454	0.037271	0.000028
C24	C	0.633488	0.035618	0.000025
C25	C	0.366097	-0.187447	0.000034
C26	C	0.387628	-0.035988	0.000038
C27	C	1.071565	0.036980	0.000043
C28	C	1.069813	0.129278	0.000045
C29	C	1.229766	-0.109138	0.000038
C30	C	1.329847	-0.110894	0.000036
C31	C	1.058312	-0.267013	0.000021
C32	C	1.060063	-0.359311	0.000014
N33	N	1.064931	-0.115013	0.217028
C34	C	1.147895	0.351440	0.000034
C35	C	1.146243	0.438163	0.000026
C36	C	0.981975	0.418520	0.000022
C37	C	0.983629	0.331799	0.000023
C38	C	1.066591	0.298262	0.000034
C39	C	1.063285	0.471706	0.000025
C40	C	1.061493	0.565734	0.000017
C41	C	1.068384	0.204227	0.000040
N42	N	1.064953	-0.115013	-0.216962
C43	C	1.126258	-0.058581	0.452041
C44	C	1.126260	-0.058579	0.548023
C45	C	1.003620	-0.171447	0.548019
C46	C	1.003613	-0.171445	0.452039
C47	C	1.064937	-0.115013	0.404053
C48	C	1.064946	-0.115013	0.596014
C49	C	1.064949	-0.115012	0.700081
C50	C	1.064934	-0.115013	0.299979
H51	H	0.810833	0.018404	0.000017
H52	H	0.358122	0.026351	0.000035
H53	H	1.215449	0.324137	0.000040
H54	H	1.176191	-0.012627	0.587092
Cl55	Cl	0.926515	-0.242388	0.391705
Cl56	Cl	0.926534	-0.242390	0.608348
H57	H	0.917417	0.288499	0.000021
Cl58	Cl	0.493871	0.133506	0.000040
Cl59	Cl	1.203347	0.012365	0.391720
Cl60	Cl	0.787813	-0.290274	0.000021
H61	H	0.680545	0.096606	0.000022
H62	H	1.212448	0.481458	0.000024
H63	H	0.449340	-0.326650	0.000038
Cl64	Cl	0.635996	-0.363530	0.000025
Cl65	Cl	0.877685	0.460688	0.000010
H66	H	0.319052	-0.248437	0.000046
