data_functionalizedCrystal
_audit_creation_method	'MofGen! by Chris Wilmer'
_symmetry_space_group_name_H-M	'P1'
_symmetry_Int_Tables_number	1
_symmetry_cell_setting	triclinic
loop_
_symmetry_equiv_pos_as_xyz
  x,y,z
_cell_length_a	19.188933
_cell_length_b	19.188930
_cell_length_c	18.266242
_cell_angle_alpha	89.989745
_cell_angle_beta	89.992475
_cell_angle_gamma	83.145175
loop_
_atom_site_label
_atom_site_type_symbol
_atom_site_fract_x
_atom_site_fract_y
_atom_site_fract_z
O1	O	0.926148	0.087174	-0.060865
O2	O	1.259482	0.420507	0.272469
O3	O	1.592815	0.753841	0.605802
O4	O	0.722837	0.098907	-0.060873
O5	O	1.056171	0.432240	0.272461
O6	O	1.389504	0.765573	0.605794
O7	O	0.830360	-0.008615	-0.060854
O8	O	1.163693	0.324718	0.272479
O9	O	1.497027	0.658051	0.605812
O10	O	0.818626	0.194696	-0.060883
O11	O	1.151959	0.528029	0.272450
O12	O	1.485292	0.861363	0.605783
O13	O	0.830342	-0.008618	0.060908
O14	O	1.163675	0.324715	0.394241
O15	O	1.497008	0.658048	0.727574
O16	O	0.722819	0.098904	0.060889
O17	O	1.056152	0.432237	0.394223
O18	O	1.389486	0.765570	0.727556
O19	O	0.926130	0.087171	0.060897
O20	O	1.259463	0.420504	0.394231
O21	O	1.592797	0.753838	0.727564
Zn22	Zn	0.824472	0.093037	0.080226
Zn23	Zn	1.157805	0.426370	0.413559
Zn24	Zn	1.491138	0.759703	0.746892
Zn25	Zn	0.824496	0.093041	-0.080201
Zn26	Zn	1.157829	0.426374	0.253132
Zn27	Zn	1.491162	0.759707	0.586466
O28	O	0.818607	0.194693	0.060879
O29	O	1.151941	0.528026	0.394212
O30	O	1.485274	0.861360	0.727545
C31	C	0.696817	0.098525	0.000008
C32	C	1.030151	0.431858	0.333341
C33	C	1.363484	0.765192	0.666674
C34	C	0.619313	0.097384	0.000005
C35	C	0.952646	0.430717	0.333338
C36	C	1.285979	0.764050	0.666672
C37	C	0.066067	0.089240	-0.066358
C38	C	0.399401	0.422574	0.266975
C39	C	0.732734	0.755907	0.600308
C40	C	0.138892	0.090308	-0.066361
C41	C	0.472225	0.423642	0.266972
C42	C	0.805558	0.756975	0.600305
C43	C	0.175299	0.090844	0.000011
C44	C	0.508632	0.424177	0.333344
C45	C	0.841965	0.757511	0.666678
C46	C	0.138878	0.090294	0.066391
C47	C	0.472211	0.423627	0.399724
C48	C	0.805544	0.756960	0.733058
C49	C	0.066056	0.089218	0.066392
C50	C	0.399389	0.422552	0.399725
C51	C	0.732722	0.755885	0.733059
N52	N	0.284311	0.132261	0.049409
N53	N	0.617644	0.465595	0.382742
N54	N	0.950978	0.798928	0.716075
N55	N	0.353489	0.133284	0.049403
N56	N	0.686822	0.466617	0.382737
N57	N	1.020155	0.799951	0.716070
C58	C	0.394707	0.094082	0.000012
C59	C	0.728041	0.427415	0.333345
C60	C	1.061374	0.760749	0.666678
N61	N	0.364134	0.053827	-0.049385
N62	N	0.697467	0.387160	0.283948
N63	N	1.030800	0.720494	0.617281
N64	N	0.294949	0.052807	-0.049382
N65	N	0.628283	0.386141	0.283951
N66	N	0.961616	0.719474	0.617285
C67	C	0.254262	0.092009	0.000017
C68	C	0.587595	0.425343	0.333350
C69	C	0.920929	0.758676	0.666684
C70	C	0.510084	0.095786	-0.066367
C71	C	0.843418	0.429119	0.266966
C72	C	1.176751	0.762452	0.600299
C73	C	0.582911	0.096849	-0.066368
C74	C	0.916244	0.430183	0.266966
C75	C	1.249577	0.763516	0.600299
C76	C	0.582894	0.096842	0.066386
C77	C	0.916228	0.430175	0.399720
C78	C	1.249561	0.763508	0.733053
C79	C	0.510071	0.095771	0.066385
C80	C	0.843404	0.429104	0.399718
C81	C	1.176737	0.762437	0.733051
C82	C	0.473669	0.095246	0.000006
C83	C	0.807003	0.428579	0.333339
C84	C	1.140336	0.761913	0.666672
C85	C	0.829971	-0.034628	0.000029
C86	C	1.163304	0.298706	0.333362
C87	C	1.496638	0.632039	0.666696
C88	C	0.828830	-0.112132	0.000035
C89	C	1.162163	0.221201	0.333369
C90	C	1.495497	0.554534	0.666702
C91	C	0.891921	-0.157056	0.000041
C92	C	1.225254	0.176278	0.333374
C93	C	1.558588	0.509611	0.666708
C94	C	0.890849	-0.229880	0.000029
C95	C	1.224183	0.103454	0.333363
C96	C	1.557516	0.436787	0.666696
C97	C	0.826683	-0.257777	0.000026
C98	C	1.160017	0.075557	0.333360
C99	C	1.493350	0.408890	0.666693
C100	C	0.763584	-0.212843	0.000016
C101	C	1.096917	0.120490	0.333350
C102	C	1.430251	0.453823	0.666683
C103	C	0.764658	-0.140021	0.000021
C104	C	1.097991	0.193312	0.333354
C105	C	1.431324	0.526646	0.666687
N106	N	0.777630	-0.365783	0.041462
N107	N	1.110963	-0.032450	0.374796
N108	N	1.444296	0.300884	0.708129
N109	N	0.776614	-0.434962	0.041460
N110	N	1.109948	-0.101628	0.374793
N111	N	1.443281	0.231705	0.708126
C112	C	0.823445	-0.477185	0.000011
C113	C	1.156778	-0.143852	0.333345
C114	C	1.490112	0.189481	0.666678
N115	N	0.871340	-0.447618	-0.041425
N116	N	1.204674	-0.114285	0.291908
N117	N	1.538007	0.219048	0.625242
N118	N	0.872358	-0.378434	-0.041419
N119	N	1.205691	-0.045100	0.291914
N120	N	1.539025	0.288233	0.625248
C121	C	0.825512	-0.336739	0.000021
C122	C	1.158845	-0.003406	0.333354
C123	C	1.492179	0.329927	0.666688
C124	C	0.885378	-0.601073	0.000004
C125	C	1.218712	-0.267740	0.333337
C126	C	1.552045	0.065593	0.666670
C127	C	0.884304	-0.673898	-0.000013
C128	C	1.217637	-0.340565	0.333321
C129	C	1.550971	-0.007231	0.666654
C130	C	0.757037	-0.656860	-0.000019
C131	C	1.090370	-0.323527	0.333315
C132	C	1.423704	0.009807	0.666648
C133	C	0.758113	-0.584037	-0.000010
C134	C	1.091446	-0.250704	0.333324
C135	C	1.424780	0.082630	0.666657
C136	C	0.822286	-0.556148	0.000005
C137	C	1.155619	-0.222815	0.333338
C138	C	1.488952	0.110518	0.666672
C139	C	0.952150	0.087553	0.000015
C140	C	1.285484	0.420886	0.333349
C141	C	1.618817	0.754219	0.666682
C142	C	1.029655	0.088694	0.000013
C143	C	1.362988	0.422027	0.333346
C144	C	1.696321	0.755360	0.666680
C145	C	0.818997	0.220705	-0.000006
C146	C	1.152330	0.554039	0.333327
C147	C	1.485663	0.887372	0.666661
C148	C	0.820137	0.298210	-0.000017
C149	C	1.153471	0.631543	0.333316
C150	C	1.486804	0.964877	0.666650
N151	N	0.824460	0.093034	0.189713
N152	N	1.157794	0.426367	0.523046
N153	N	1.491127	0.759700	0.856379
N154	N	0.824513	0.093038	-0.189688
N155	N	1.157846	0.426372	0.143645
N156	N	1.491179	0.759705	0.476979
C157	C	0.866669	0.135279	0.228011
C158	C	1.200003	0.468613	0.561344
C159	C	1.533336	0.801946	0.894677
C160	C	0.866681	0.135277	0.304656
C161	C	1.200014	0.468611	0.637989
C162	C	1.533348	0.801944	0.971322
C163	C	0.824471	0.093038	0.342999
C164	C	1.157804	0.426371	0.676333
C165	C	1.491137	0.759705	1.009666
C166	C	0.782259	0.050784	0.304692
C167	C	1.115592	0.384117	0.638025
C168	C	1.448925	0.717450	0.971359
C169	C	0.782254	0.050781	0.228049
C170	C	1.115587	0.384115	0.561382
C171	C	1.448920	0.717448	0.894715
N172	N	0.763323	0.091317	0.463350
N173	N	1.096656	0.424651	0.796684
N174	N	1.429990	0.757984	1.130017
N175	N	0.763329	0.091323	0.536158
N176	N	1.096663	0.424657	0.869492
N177	N	1.429996	0.757990	1.202825
C178	C	0.824484	0.093040	0.573922
C179	C	1.157818	0.426374	0.907255
C180	C	1.491151	0.759707	1.240589
N181	N	0.885633	0.094765	0.536127
N182	N	1.218966	0.428098	0.869460
N183	N	1.552300	0.761432	1.202793
N184	N	0.885625	0.094763	0.463312
N185	N	1.218959	0.428096	0.796645
N186	N	1.552292	0.761429	1.129979
C187	C	0.824472	0.093035	0.426106
C188	C	1.157805	0.426368	0.759440
C189	C	1.491138	0.759702	1.092773
C190	C	0.866710	0.135286	0.695327
C191	C	1.200043	0.468620	1.028660
C192	C	1.533376	0.801953	1.361994
C193	C	0.866723	0.135279	0.771973
C194	C	1.200056	0.468613	1.105307
C195	C	1.533389	0.801946	1.438640
C196	C	0.782294	0.050789	0.772009
C197	C	1.115627	0.384123	1.105342
C198	C	1.448961	0.717456	1.438675
C199	C	0.782287	0.050792	0.695364
C200	C	1.115621	0.384126	1.028697
C201	C	1.448954	0.717459	1.362030
C202	C	0.824494	0.093045	0.657028
C203	C	1.157827	0.426378	0.990361
C204	C	1.491161	0.759711	1.323694
H205	H	0.480423	0.095328	0.120432
H206	H	0.813756	0.428662	0.453765
H207	H	1.147089	0.761995	0.787098
Cl208	Cl	0.919784	0.188386	0.647130
Cl209	Cl	1.253117	0.521720	0.980463
Cl210	Cl	1.586451	0.855053	1.313796
H211	H	0.747926	0.016396	0.803227
H212	H	1.081259	0.349730	1.136561
H213	H	1.414593	0.683063	1.469894
H214	H	0.706738	-0.547459	-0.000010
H215	H	1.040071	-0.214126	0.333323
H216	H	1.373404	0.119208	0.666656
Cl217	Cl	0.685337	-0.083543	0.000014
Cl218	Cl	1.018670	0.249791	0.333347
Cl219	Cl	1.352003	0.583124	0.666680
H220	H	0.901040	0.169682	0.196802
H221	H	1.234374	0.503015	0.530135
H222	H	1.567707	0.836348	0.863469
H223	H	0.901053	0.169681	0.335844
H224	H	1.234386	0.503014	0.669177
H225	H	1.567720	0.836348	1.002511
Cl226	Cl	0.729196	-0.002320	0.352895
Cl227	Cl	1.062530	0.331013	0.686228
Cl228	Cl	1.395863	0.664347	1.019561
H229	H	0.747881	0.016379	0.196867
H230	H	1.081214	0.349712	0.530200
H231	H	1.414547	0.683046	0.863533
H232	H	0.901099	0.169679	0.803154
H233	H	1.234433	0.503012	1.136488
H234	H	1.567766	0.836345	1.469821
H235	H	0.942227	-0.266463	0.000031
H236	H	1.275560	0.066870	0.333365
H237	H	1.608894	0.400203	0.666698
Cl238	Cl	0.729207	-0.002306	0.647215
Cl239	Cl	1.062541	0.331027	0.980548
Cl240	Cl	1.395874	0.664361	1.313881
H241	H	0.937631	-0.578365	0.000012
H242	H	1.270965	-0.245032	0.333345
H243	H	1.604298	0.088301	0.666679
H244	H	0.711340	-0.235562	0.000012
H245	H	1.044673	0.097772	0.333345
H246	H	1.378006	0.431105	0.666679
Cl247	Cl	0.963626	-0.730375	-0.000010
Cl248	Cl	1.296959	-0.397042	0.333323
Cl249	Cl	1.630293	-0.063709	0.666657
H250	H	0.036434	0.088810	-0.120409
H251	H	0.369768	0.422144	0.212924
H252	H	0.703101	0.755477	0.546257
Cl253	Cl	0.676370	-0.691924	-0.000027
Cl254	Cl	1.009703	-0.358590	0.333307
Cl255	Cl	1.343037	-0.025257	0.666640
Cl256	Cl	0.184677	0.090997	-0.149806
Cl257	Cl	0.518010	0.424331	0.183527
Cl258	Cl	0.851344	0.757664	0.516861
H259	H	0.036409	0.088776	0.120441
H260	H	0.369742	0.422109	0.453775
H261	H	0.703075	0.755443	0.787108
Cl262	Cl	0.184646	0.090964	0.149830
Cl263	Cl	0.517979	0.424297	0.483164
Cl264	Cl	0.851313	0.757631	0.816497
H265	H	0.612557	0.097289	-0.120417
H266	H	0.945891	0.430622	0.212916
H267	H	1.279224	0.763956	0.546249
Cl268	Cl	0.628658	0.097504	0.149827
Cl269	Cl	0.961991	0.430837	0.483160
Cl270	Cl	1.295325	0.764170	0.816494
Cl271	Cl	0.464320	0.095121	-0.149813
Cl272	Cl	0.797654	0.428454	0.183520
Cl273	Cl	1.130987	0.761787	0.516853
H274	H	0.944175	-0.134354	0.000050
H275	H	1.277509	0.198979	0.333384
H276	H	1.610842	0.532313	0.666717
