data_functionalizedCrystal
_audit_creation_method	'MofGen! by Chris Wilmer'
_symmetry_space_group_name_H-M	'P1'
_symmetry_Int_Tables_number	1
_symmetry_cell_setting	triclinic
loop_
_symmetry_equiv_pos_as_xyz
  x,y,z
_cell_length_a	19.805407
_cell_length_b	12.759394
_cell_length_c	19.805399
_cell_angle_alpha	89.976033
_cell_angle_beta	89.980427
_cell_angle_gamma	90.014837
loop_
_atom_site_label
_atom_site_type_symbol
_atom_site_fract_x
_atom_site_fract_y
_atom_site_fract_z
Zn1	Zn	1.034790	-0.418291	-0.382737
Zn2	Zn	1.034728	-0.593984	-0.269556
Zn3	Zn	0.921605	-0.418320	-0.269561
Zn4	Zn	0.921591	-0.593928	-0.382702
O5	O	0.978178	-0.506131	-0.326139
O6	O	1.129498	-0.441608	-0.367735
O7	O	1.019701	-0.570717	-0.174840
O8	O	0.936651	-0.271295	-0.284591
O9	O	1.129453	-0.570689	-0.284581
O10	O	1.019808	-0.271274	-0.367740
O11	O	0.936590	-0.441658	-0.174844
O12	O	0.826886	-0.441603	-0.284558
O13	O	0.936628	-0.570594	-0.477423
O14	O	0.826876	-0.570622	-0.367682
O15	O	1.019794	-0.441554	-0.477449
O16	O	1.019688	-0.740998	-0.284548
O17	O	0.936567	-0.740957	-0.367676
C18	C	0.802322	-0.506111	-0.326117
C19	C	0.727090	-0.506127	-0.326124
C20	C	0.691759	-0.573409	-0.369336
C21	C	0.621070	-0.573411	-0.369346
C22	C	0.585715	-0.506136	-0.326139
C23	C	0.621051	-0.438847	-0.282924
C24	C	0.691739	-0.438841	-0.282919
C25	C	0.335978	-0.438870	-0.282947
C26	C	0.265286	-0.438884	-0.282954
C27	C	0.265310	-0.573440	-0.369374
C28	C	0.335997	-0.573434	-0.369368
C29	C	0.371327	-0.506142	-0.326157
C30	C	0.447976	-0.506139	-0.326148
C31	C	0.509068	-0.506143	-0.326144
C32	C	0.978138	-0.779098	-0.326123
C33	C	0.978182	-0.895875	-0.326138
C34	C	1.064801	-0.895864	-0.239641
C35	C	1.108128	-0.950720	-0.196401
C36	C	1.108168	-1.060441	-0.196419
C37	C	1.064877	-1.115310	-0.239684
C38	C	1.021550	-1.060455	-0.282925
C39	C	1.021514	-0.950730	-0.282900
C40	C	0.934936	-1.060465	-0.369424
C41	C	0.934892	-0.950744	-0.369403
C42	C	0.891645	-1.115334	-0.412689
C43	C	0.848314	-1.060478	-0.455927
C44	C	0.848275	-0.950750	-0.455906
C45	C	0.891565	-0.895888	-0.412644
C46	C	1.154721	-0.506152	-0.326161
C47	C	1.229953	-0.506161	-0.326171
C48	C	0.978216	-0.506065	-0.502682
C49	C	0.978233	-0.506036	-0.577914
C50	C	0.978238	-0.232097	-0.326170
C51	C	0.978263	-0.115321	-0.326183
C52	C	1.021539	-0.438842	-0.613272
C53	C	1.021545	-0.438811	-0.683961
C54	C	0.978249	-0.505982	-0.719289
C55	C	0.934939	-0.573179	-0.683926
C56	C	0.934929	-0.573203	-0.613239
C57	C	0.934977	-0.573081	-0.969000
C58	C	0.934992	-0.573054	-1.039692
C59	C	1.021594	-0.438689	-1.039721
C60	C	1.021584	-0.438713	-0.969034
C61	C	0.978271	-0.505907	-0.933677
C62	C	0.978263	-0.505937	-0.857028
C63	C	0.978260	-0.505957	-0.795937
C64	C	0.978180	-0.506121	-0.150283
C65	C	0.978295	-0.505853	-0.075051
H66	H	0.592259	-0.384066	-0.247747
C67	C	0.757179	-0.827464	-0.465219
C68	C	0.800649	-0.890456	-0.503440
H69	H	0.727780	-0.790240	-0.494567
H70	H	0.731320	-0.870334	-0.435723
H71	H	0.782958	-0.779084	-0.439454
H72	H	0.774870	-0.938841	-0.529200
H73	H	0.826511	-0.847582	-0.532948
C74	C	0.925492	-0.714542	-0.533717
C75	C	0.887332	-0.647067	-0.574363
H76	H	0.896105	-0.760135	-0.509713
H77	H	0.954968	-0.754724	-0.561294
H78	H	0.951275	-0.674523	-0.502568
H79	H	0.861552	-0.687085	-0.605515
H80	H	0.857844	-0.606881	-0.546783
H81	H	1.143377	-0.906036	-0.161176
H82	H	0.899732	-0.627754	-1.068454
H83	H	0.891683	-1.204675	-0.412704
H84	H	0.720540	-0.628195	-0.404519
C85	C	1.146690	-1.228638	-0.158056
C86	C	1.155798	-1.120747	-0.148896
H87	H	1.176100	-1.265866	-0.128721
H88	H	1.101231	-1.246680	-0.148108
H89	H	1.156574	-1.246540	-0.203549
H90	H	1.145909	-1.102843	-0.103404
H91	H	1.201268	-1.102697	-0.158838
H92	H	0.813073	-1.105161	-0.491153
H93	H	0.891533	-0.806547	-0.412618
H94	H	0.236502	-0.384094	-0.247770
C95	C	1.054539	-0.260950	-0.591539
C96	C	1.069130	-0.365002	-0.574442
H97	H	1.083918	-0.215363	-0.567564
H98	H	1.060744	-0.251329	-0.638692
H99	H	1.009062	-0.245589	-0.579942
H100	H	1.114606	-0.380365	-0.586043
H101	H	1.062931	-0.374628	-0.527278
C102	C	0.628194	-0.706446	-0.454750
C103	C	0.582234	-0.647386	-0.416836
H104	H	0.604217	-0.752124	-0.484064
H105	H	0.655777	-0.660730	-0.480696
H106	H	0.655751	-0.746554	-0.425199
H107	H	0.554680	-0.607272	-0.446386
H108	H	0.554640	-0.693108	-0.390887
H109	H	0.899719	-0.627809	-0.940220
H110	H	1.056811	-0.384097	-0.712746
C111	C	0.243596	-0.624857	-0.483936
C112	C	0.226473	-0.647398	-0.416883
H113	H	0.219623	-0.670519	-0.513263
H114	H	0.232024	-0.554296	-0.493916
H115	H	0.290756	-0.634486	-0.490104
H116	H	0.179313	-0.637762	-0.410714
H117	H	0.238041	-0.717976	-0.406900
C118	C	1.107184	-0.305883	-0.976165
C119	C	1.069174	-0.364874	-0.930201
H120	H	1.136560	-0.260291	-0.952191
H121	H	1.133070	-0.351649	-1.003732
H122	H	1.077699	-0.265687	-1.003738
H123	H	1.098659	-0.405076	-0.902632
H124	H	1.043286	-0.319103	-0.902623
C125	C	1.060062	-0.378964	-1.148093
C126	C	1.069197	-0.364814	-1.078588
H127	H	1.089448	-0.333354	-1.172085
H128	H	1.069955	-0.449542	-1.159671
H129	H	1.014588	-0.363575	-1.159662
H130	H	1.114670	-0.380210	-1.067018
H131	H	1.059308	-0.294220	-1.067006
C132	C	0.925514	-0.714476	-0.763397
C133	C	0.887346	-0.647015	-0.722757
H134	H	0.896132	-0.760065	-0.787365
H135	H	0.951301	-0.674454	-0.794570
H136	H	0.954988	-0.754673	-0.735813
H137	H	0.857875	-0.606813	-0.750342
H138	H	0.861548	-0.687042	-0.691581
C139	C	0.444366	-0.633167	-0.407733
C140	C	0.374860	-0.647381	-0.416864
H141	H	0.468356	-0.678823	-0.437055
H142	H	0.455957	-0.562602	-0.417715
H143	H	0.455923	-0.648456	-0.362236
H144	H	0.363302	-0.632085	-0.462360
H145	H	0.363264	-0.717962	-0.406887
C146	C	0.328844	-0.305864	-0.197525
C147	C	0.374807	-0.364905	-0.235448
H148	H	0.352819	-0.260203	-0.168198
H149	H	0.301290	-0.265750	-0.227063
H150	H	0.301259	-0.351602	-0.171585
H151	H	0.402389	-0.319167	-0.261392
H152	H	0.402373	-0.405023	-0.205905
C153	C	0.684620	-0.305850	-0.197484
C154	C	0.730578	-0.364892	-0.235412
H155	H	0.708598	-0.260200	-0.168153
H156	H	0.657070	-0.265722	-0.227019
H157	H	0.657030	-0.351588	-0.171549
H158	H	0.758165	-0.319154	-0.261351
H159	H	0.758139	-0.405023	-0.205872
C160	C	1.000360	-0.738795	-0.222301
C161	C	1.064754	-0.775257	-0.239615
H162	H	1.000334	-0.664336	-0.222281
H163	H	0.968388	-0.763618	-0.254256
H164	H	0.988693	-0.763690	-0.178618
H165	H	1.076419	-0.750367	-0.283301
H166	H	1.096736	-0.750423	-0.207659
H167	H	1.064919	-1.204651	-0.239701
