data_functionalizedCrystal
_audit_creation_method	'MofGen! by Chris Wilmer'
_symmetry_space_group_name_H-M	'P1'
_symmetry_Int_Tables_number	1
_symmetry_cell_setting	triclinic
loop_
_symmetry_equiv_pos_as_xyz
  x,y,z
_cell_length_a	13.897448
_cell_length_b	12.759401
_cell_length_c	13.897441
_cell_angle_alpha	90.020083
_cell_angle_beta	89.969401
_cell_angle_gamma	89.980783
loop_
_atom_site_label
_atom_site_type_symbol
_atom_site_fract_x
_atom_site_fract_y
_atom_site_fract_z
Zn1	Zn	-0.383945	-1.606236	-0.545364
Zn2	Zn	-0.545267	-1.606120	-0.384066
Zn3	Zn	-0.383992	-1.430537	-0.384085
Zn4	Zn	-0.545204	-1.430517	-0.545320
O5	O	-0.464602	-1.518352	-0.464709
O6	O	-0.405351	-1.753241	-0.523978
O7	O	-0.523919	-1.582789	-0.249087
O8	O	-0.249004	-1.453900	-0.405505
O9	O	-0.523874	-1.753157	-0.405473
O10	O	-0.248969	-1.582986	-0.523997
O11	O	-0.405431	-1.453789	-0.249100
O12	O	-0.405370	-1.283513	-0.405462
O13	O	-0.523767	-1.453867	-0.680308
O14	O	-0.523812	-1.283499	-0.523921
O15	O	-0.405291	-1.582966	-0.680340
O16	O	-0.680240	-1.582769	-0.405430
O17	O	-0.680194	-1.453755	-0.523903
C18	C	-0.464590	-1.245385	-0.464690
C19	C	-0.464608	-1.128608	-0.464704
C20	C	-0.715216	-1.518276	-0.464681
C21	C	-0.822430	-1.518339	-0.464701
C22	C	-0.464516	-1.518427	-0.716302
C23	C	-0.464480	-1.518459	-0.823516
C24	C	-1.018725	-1.518449	-0.464762
C25	C	-0.909493	-1.518385	-0.464731
C26	C	-0.213009	-1.518458	-0.464758
C27	C	-0.105795	-1.518503	-0.464779
C28	C	-0.464614	-1.792386	-0.464729
C29	C	-0.464620	-1.909162	-0.464737
C30	C	-0.526375	-1.073766	-0.526289
C31	C	-0.526378	-0.964042	-0.526308
C32	C	-0.402846	-0.964012	-0.403150
C33	C	-0.402838	-1.073734	-0.403136
C34	C	-0.560993	-0.814143	-0.640025
C35	C	-0.622775	-0.759297	-0.701601
C36	C	-0.716910	-0.794889	-0.716240
C37	C	-0.749283	-0.885325	-0.669289
C38	C	-0.687506	-0.940165	-0.607705
C39	C	-0.593357	-0.904575	-0.593085
C40	C	-0.368234	-1.223636	-0.289418
C41	C	-0.306461	-1.278478	-0.227829
C42	C	-0.212324	-1.242888	-0.213181
C43	C	-0.179955	-1.152448	-0.260115
C44	C	-0.241728	-1.097606	-0.321704
C45	C	-0.335863	-1.133204	-0.336354
C46	C	-0.464415	-1.518487	-1.019811
C47	C	-0.464454	-1.518468	-0.910579
C48	C	-0.464617	-1.518339	-0.214094
C49	C	-0.464382	-1.518510	-0.106881
H50	H	-0.576669	-1.118442	-0.576424
Br51	Br	-0.350398	-1.401206	-0.164113
H52	H	-0.825941	-0.914290	-0.681205
Br53	Br	-0.319020	-0.889533	-0.319597
Br54	Br	-0.197802	-0.974858	-0.385394
Br55	Br	-0.433225	-0.765846	-0.620181
H56	H	-0.713863	-1.013796	-0.569478
Br57	Br	-0.800752	-0.720457	-0.799812
Br58	Br	-0.578842	-0.636568	-0.765320
Br59	Br	-0.052199	-1.104132	-0.240225
Br60	Br	-0.128496	-1.317306	-0.129577
H61	H	-0.444885	-1.252629	-0.301349
