data_functionalizedCrystal
_audit_creation_method	'MofGen! by Chris Wilmer'
_symmetry_space_group_name_H-M	'P1'
_symmetry_Int_Tables_number	1
_symmetry_cell_setting	triclinic
loop_
_symmetry_equiv_pos_as_xyz
  x,y,z
_cell_length_a	14.519709
_cell_length_b	10.489746
_cell_length_c	12.996460
_cell_angle_alpha	89.993562
_cell_angle_beta	90.000034
_cell_angle_gamma	84.110723
loop_
_atom_site_label
_atom_site_type_symbol
_atom_site_fract_x
_atom_site_fract_y
_atom_site_fract_z
O1	O	1.224782	0.167203	-0.085434
O2	O	0.956413	0.186893	-0.085465
O3	O	1.096702	-0.008613	-0.085441
O4	O	1.084493	0.362709	-0.085458
O5	O	1.096687	-0.008624	0.085693
O6	O	0.956398	0.186883	0.085669
O7	O	1.224767	0.167192	0.085700
Cu8	Cu	1.090581	0.177036	0.101310
Cu9	Cu	1.090599	0.177049	-0.101075
O10	O	1.084478	0.362699	0.085676
C11	C	0.922041	0.185970	0.000098
C12	C	0.819644	0.183221	0.000086
C13	C	0.444693	0.173097	0.000133
C14	C	0.549016	0.175908	0.000120
C15	C	0.632165	0.178159	0.000109
C16	C	0.736495	0.180970	0.000097
C17	C	1.095771	-0.056140	0.000126
C18	C	1.093009	-0.197740	0.000125
C19	C	1.002113	-0.349651	0.000101
C20	C	1.047565	-0.272727	-0.084269
C21	C	1.047571	-0.272779	0.084455
C22	C	1.133587	-0.373115	-0.084339
C23	C	1.133581	-0.373172	0.084462
C24	C	1.179096	-0.296298	0.000070
C25	C	1.259139	0.168116	0.000135
C26	C	1.361536	0.170865	0.000140
C27	C	1.085409	0.410226	0.000107
C28	C	1.088171	0.551826	0.000101
N29	N	1.090576	0.177027	0.243657
N30	N	1.090612	0.177049	-0.243422
C31	C	1.090597	0.177051	0.663472
C32	C	1.090589	0.177048	0.546667
C33	C	1.090587	0.177040	0.453568
C34	C	1.090577	0.177035	0.336756
H35	H	0.927282	-0.373590	0.000008
H36	H	1.169871	-0.417054	0.155804
H37	H	1.253983	-0.272604	0.000033
H38	H	1.011220	-0.228960	0.155785
H39	H	1.011242	-0.228868	-0.155609
F40	F	1.181048	-0.430170	-0.177678
