data_functionalizedCrystal
_audit_creation_method	'MofGen! by Chris Wilmer'
_symmetry_space_group_name_H-M	'P1'
_symmetry_Int_Tables_number	1
_symmetry_cell_setting	triclinic
loop_
_symmetry_equiv_pos_as_xyz
  x,y,z
_cell_length_a	13.032831
_cell_length_b	18.101395
_cell_length_c	13.034296
_cell_angle_alpha	82.790450
_cell_angle_beta	74.814550
_cell_angle_gamma	82.835691
loop_
_atom_site_label
_atom_site_type_symbol
_atom_site_fract_x
_atom_site_fract_y
_atom_site_fract_z
Zn1	Zn	1.700072	-0.375425	-0.806435
Zn2	Zn	1.677339	-0.513225	-0.628799
Zn3	Zn	1.499875	-0.375432	-0.606316
Zn4	Zn	1.522380	-0.485247	-0.783854
O5	O	1.599917	-0.437332	-0.706351
O6	O	1.845691	-0.405411	-0.801730
O7	O	1.634866	-0.506659	-0.477175
O8	O	1.526528	-0.271803	-0.632903
O9	O	1.828989	-0.506652	-0.671222
O10	O	1.673612	-0.271798	-0.779930
O11	O	1.504484	-0.405422	-0.460657
O12	O	1.354226	-0.378293	-0.611007
O13	O	1.564883	-0.458967	-0.935491
O14	O	1.370760	-0.458973	-0.741444
O15	O	1.695433	-0.378281	-0.952081
O16	O	1.656688	-0.613142	-0.649326
O17	O	1.542840	-0.592586	-0.763245
C18	C	1.323954	-0.415598	-0.671336
C19	C	1.205900	-0.406316	-0.656382
C20	C	1.161463	-0.442177	-0.714156
C21	C	1.039447	-0.432584	-0.698701
C22	C	1.599771	-0.629734	-0.706302
C23	C	1.599810	-0.712049	-0.706328
C24	C	1.600050	-1.011154	-0.706415
C25	C	1.528636	-0.966926	-0.778317
C26	C	1.528214	-0.881297	-0.778011
C27	C	1.599931	-0.862765	-0.706373
C28	C	1.555393	-0.900331	-0.590587
C29	C	1.554928	-0.985896	-0.591013
C30	C	1.716055	-0.986088	-0.749336
C31	C	1.715707	-0.900192	-0.751707
C32	C	1.599864	-0.778902	-0.706343
C33	C	1.600113	-1.095017	-0.706438
C34	C	1.876957	-0.459152	-0.741503
C35	C	1.995015	-0.468450	-0.756483
C36	C	1.635204	-0.415502	-0.983405
C37	C	1.650242	-0.406199	-1.101468
C38	C	1.600095	-0.244180	-0.706427
C39	C	1.600171	-0.161869	-0.706460
C40	C	1.592352	-0.441974	-1.145896
C41	C	1.607893	-0.432360	-1.267921
C42	C	1.564827	-0.459029	-0.430383
C43	C	1.549996	-0.468139	-0.312346
H44	H	0.987164	-0.394775	-0.637798
H45	H	1.557996	-0.982404	-0.863971
H46	H	1.213751	-0.479977	-0.775063
N47	N	1.469090	-0.518142	-1.243101
H48	H	1.506391	-0.559466	-1.202536
H49	H	1.414092	-0.487718	-1.190907
H50	H	1.531290	-0.479722	-1.093595
N51	N	1.064258	-0.518525	-0.837172
H52	H	1.141607	-0.518279	-0.836779
H53	H	1.042770	-0.571199	-0.818072
N54	N	1.414702	-0.847531	-0.738857
H55	H	1.364744	-0.888278	-0.721724
H56	H	1.408139	-0.822064	-0.672473
H57	H	1.469706	-1.001384	-0.556309
N58	N	1.621273	-0.885927	-0.516848
H59	H	1.652820	-0.935155	-0.486974
H60	H	1.680716	-0.854815	-0.557951
N61	N	1.731127	-0.356192	-1.170727
H62	H	1.804574	-0.375172	-1.161104
H63	H	1.730673	-0.356425	-1.248050
N64	N	1.786770	-1.025515	-0.680208
H65	H	1.861190	-1.009192	-0.708160
H66	H	1.756774	-1.012370	-0.604367
N67	N	1.619787	-1.025882	-0.516587
H68	H	1.572996	-1.057884	-0.458262
H69	H	1.681257	-1.058611	-0.558050
H70	H	1.443474	-0.983471	-0.749067
N71	N	1.443586	-0.866108	-0.544187
H72	H	1.395560	-0.874019	-0.590569
H73	H	1.415711	-0.890665	-0.469670
N74	N	1.136651	-0.356244	-0.575698
H75	H	1.059302	-0.356492	-0.576090
H76	H	1.146300	-0.375185	-0.502242
H77	H	1.753886	-1.003502	-0.833077
H78	H	1.557728	-0.855200	-0.863419
H79	H	1.749034	-0.875150	-0.836989
N80	N	1.791438	-0.884311	-0.688908
H81	H	1.751592	-0.852491	-0.629913
H82	H	1.822182	-0.933047	-0.656888
H83	H	1.668967	-0.394615	-1.320220
