data_functionalizedCrystal
_audit_creation_method	'MofGen! by Chris Wilmer'
_symmetry_space_group_name_H-M	'P1'
_symmetry_Int_Tables_number	1
_symmetry_cell_setting	triclinic
loop_
_symmetry_equiv_pos_as_xyz
  x,y,z
_cell_length_a	6.817900
_cell_length_b	7.190334
_cell_length_c	16.255699
_cell_angle_alpha	89.349550
_cell_angle_beta	103.489404
_cell_angle_gamma	60.611776
loop_
_atom_site_label
_atom_site_type_symbol
_atom_site_fract_x
_atom_site_fract_y
_atom_site_fract_z
V1	V	-4.223188	0.665700	-0.115738
O2	O	-4.206716	0.652300	0.006951
O3	O	-4.173598	0.661847	-0.230825
O4	O	-4.260347	0.955715	-0.113349
O5	O	-4.119366	0.356397	-0.111339
V6	V	-4.695883	0.628620	-0.101135
O7	O	-4.508197	0.747038	-0.147771
O8	O	-4.861071	0.547282	-0.069102
O9	O	-4.522266	0.632473	0.013952
O10	O	-4.829752	0.642020	-0.223824
O11	O	-4.917102	0.937923	-0.105534
O12	O	-4.435517	0.338605	-0.103525
C13	C	-4.015541	0.651526	-0.258900
C14	C	-4.056853	0.650309	-0.352981
C15	C	-4.126209	1.026381	-0.109043
C16	C	-4.239964	1.267931	-0.107827
C17	C	-3.963318	0.636366	-0.575836
C18	C	-3.996249	0.464499	-0.623804
C19	C	-4.132627	0.648185	-0.525240
C20	C	-4.173338	0.817905	-0.644909
C21	C	-4.205810	0.646141	-0.691633
C22	C	-4.164940	0.476188	-0.571959
C23	C	-4.342079	0.829751	-0.593069
C24	C	-4.375118	0.657850	-0.641012
C25	C	-4.090461	0.649360	-0.429384
C26	C	-4.247983	0.644951	-0.787486
C27	C	-4.343664	0.642788	0.042022
C28	C	-4.281594	0.644019	0.136103
H29	H	-3.850477	0.310059	-0.637724
H30	H	-4.487775	0.984190	-0.579127
H31	H	-4.160908	0.331623	-0.540286
C32	C	-4.607570	0.669552	-0.678873
C33	C	-4.569006	0.487223	-0.718399
C34	C	-4.783077	0.497930	-0.753296
H35	H	-4.678920	0.674091	-0.634661
H36	H	-4.707587	0.795953	-0.719961
H37	H	-4.469026	0.360856	-0.677315
H38	H	-4.497691	0.482648	-0.762623
H39	H	-4.883094	0.624331	-0.794384
H40	H	-4.854410	0.502474	-0.709079
H41	H	-4.756943	0.374234	-0.780126
C42	C	-3.730692	0.624110	-0.537690
C43	C	-3.695615	0.627321	-0.449473
C44	C	-3.481363	0.616053	-0.414304
H45	H	-3.607522	0.494245	-0.547790
H46	H	-3.732340	0.744191	-0.563568
H47	H	-3.693948	0.507251	-0.423603
H48	H	-3.818731	0.757175	-0.439349
H49	H	-3.483010	0.736134	-0.440182
H50	H	-3.358210	0.486186	-0.424410
H51	H	-3.457545	0.618250	-0.354447
C52	C	-4.178520	1.010252	-0.687418
C53	C	-4.219565	1.007668	-0.775786
C54	C	-4.224300	1.184795	-0.814967
H55	H	-4.299941	1.140037	-0.676458
H56	H	-4.032433	1.002348	-0.665019
H57	H	-4.365633	1.015591	-0.798178
H58	H	-4.098163	0.877924	-0.786771
H59	H	-4.078214	1.176891	-0.792568
H60	H	-4.345721	1.314566	-0.804000
H61	H	-4.252128	1.183054	-0.874928
