data_functionalizedCrystal
_audit_creation_method	'MofGen! by Chris Wilmer'
_symmetry_space_group_name_H-M	'P1'
_symmetry_Int_Tables_number	1
_symmetry_cell_setting	triclinic
loop_
_symmetry_equiv_pos_as_xyz
  x,y,z
_cell_length_a	29.839134
_cell_length_b	29.839131
_cell_length_c	29.839125
_cell_angle_alpha	90.013540
_cell_angle_beta	90.024313
_cell_angle_gamma	90.034448
loop_
_atom_site_label
_atom_site_type_symbol
_atom_site_fract_x
_atom_site_fract_y
_atom_site_fract_z
Zn1	Zn	0.686719	-0.179003	0.254166
Zn2	Zn	1.186719	0.320997	0.754166
Zn3	Zn	0.686651	-0.254115	0.179041
Zn4	Zn	1.186651	0.245885	0.679041
Zn5	Zn	0.611602	-0.178991	0.179033
Zn6	Zn	1.111602	0.321009	0.679033
Zn7	Zn	0.611549	-0.254097	0.254127
Zn8	Zn	1.111549	0.245903	0.754127
O9	O	0.649130	-0.216552	0.216592
O10	O	1.149130	0.283448	0.716592
O11	O	0.749577	-0.188980	0.244221
O12	O	1.249577	0.311020	0.744221
O13	O	0.676689	-0.244152	0.116173
O14	O	1.176689	0.255848	0.616173
O15	O	0.621617	-0.116125	0.189012
O16	O	1.121617	0.383875	0.689012
O17	O	0.749527	-0.244164	0.189027
O18	O	1.249527	0.255836	0.689027
O19	O	0.676805	-0.116134	0.244212
O20	O	1.176805	0.383866	0.744212
O21	O	0.621550	-0.188958	0.116167
O22	O	1.121550	0.311042	0.616167
O23	O	0.548727	-0.188941	0.188974
O24	O	1.048727	0.311059	0.688974
O25	O	0.621527	-0.244134	0.316999
O26	O	1.121527	0.255866	0.816999
O27	O	0.548689	-0.244122	0.244145
O28	O	1.048689	0.255878	0.744145
O29	O	0.676754	-0.188962	0.317028
O30	O	1.176754	0.311038	0.817028
O31	O	0.676638	-0.316980	0.188989
O32	O	1.176638	0.183020	0.688989
O33	O	0.621461	-0.316967	0.244154
O34	O	1.121461	0.183033	0.744154
C35	C	0.532407	-0.216528	0.216555
C36	C	1.032407	0.283472	0.716555
C37	C	0.482473	-0.216529	0.216549
C38	C	0.982473	0.283471	0.716549
C39	C	0.649048	-0.333274	0.216578
C40	C	1.149048	0.166726	0.716578
C41	C	0.649054	-0.383209	0.216587
C42	C	1.149054	0.116791	0.716587
C43	C	0.125893	-0.187777	0.187923
C44	C	0.625893	0.312223	0.687923
C45	C	0.313566	-0.187764	0.187895
C46	C	0.813566	0.312236	0.687895
O47	O	0.337838	-0.163279	0.163514
O48	O	0.837838	0.336721	0.663514
N49	N	0.337028	-0.216536	0.216572
N50	N	0.837028	0.283464	0.716572
C51	C	0.313568	-0.245312	0.245259
C52	C	0.813568	0.254688	0.745259
O53	O	0.337830	-0.269781	0.269653
O54	O	0.837830	0.230219	0.769653
C55	C	0.125896	-0.245322	0.245289
C56	C	0.625896	0.254678	0.745289
C57	C	0.102437	-0.216551	0.216607
C58	C	0.602437	0.283449	0.716607
C59	C	0.102434	-0.159007	0.159244
C60	C	0.602434	0.340993	0.659244
C61	C	0.055519	-0.159013	0.159249
C62	C	0.555519	0.340987	0.659249
C63	C	0.032062	-0.187787	0.187933
C64	C	0.532062	0.312213	0.687933
C65	C	0.055521	-0.216556	0.216612
C66	C	0.555521	0.283444	0.716612
C67	C	0.102437	-0.274095	0.273978
C68	C	0.602437	0.225905	0.773978
C69	C	0.055516	-0.274094	0.273984
C70	C	0.555516	0.225906	0.773984
C71	C	0.032057	-0.245323	0.245302
C72	C	0.532057	0.254677	0.745302
C73	C	-0.014851	-0.245336	0.245302
C74	C	0.485149	0.254664	0.745302
N75	N	-0.038312	-0.216563	0.216625
N76	N	0.461688	0.283437	0.716625
C77	C	-0.014855	-0.187789	0.187941
C78	C	0.485145	0.312211	0.687941
C79	C	0.412099	-0.245305	0.245241
C80	C	0.912099	0.254695	0.745241
C81	C	0.459016	-0.245303	0.245234
C82	C	0.959016	0.254697	0.745234
C83	C	0.459012	-0.187755	0.187870
C84	C	0.959012	0.312245	0.687870
C85	C	0.412093	-0.187759	0.187876
C86	C	0.912093	0.312241	0.687876
C87	C	0.388637	-0.216533	0.216565
C88	C	0.888637	0.283467	0.716565
C89	C	-0.113381	-0.187802	0.187954
C90	C	0.386619	0.312198	0.687954
C91	C	-0.160301	-0.187811	0.187961
C92	C	0.339699	0.312189	0.687961
C93	C	-0.160292	-0.245358	0.245326
C94	C	0.339708	0.254642	0.745326
C95	C	-0.113376	-0.245351	0.245318
C96	C	0.386624	0.254649	0.745318
C97	C	-0.089922	-0.216569	0.216631
C98	C	0.410078	0.283431	0.716631
O99	O	-0.039151	-0.269804	0.269674
O100	O	0.460849	0.230196	0.769674
O101	O	-0.039125	-0.163316	0.163558
O102	O	0.460875	0.336684	0.663558
C103	C	0.172809	-0.187771	0.187917
C104	C	0.672809	0.312229	0.687917
C105	C	0.196268	-0.216541	0.216596
C106	C	0.696268	0.283459	0.716596
C107	C	0.172811	-0.245315	0.245281
C108	C	0.672811	0.254685	0.745281
C109	C	0.243186	-0.216539	0.216588
C110	C	0.743186	0.283461	0.716588
C111	C	0.266642	-0.187764	0.187904
C112	C	0.766642	0.312236	0.687904
C113	C	0.243181	-0.158992	0.159227
C114	C	0.743181	0.341008	0.659227
C115	C	0.196265	-0.158997	0.159233
C116	C	0.696265	0.341003	0.659233
C117	C	0.196273	-0.274087	0.273957
C118	C	0.696273	0.225913	0.773957
C119	C	0.243188	-0.274080	0.273949
C120	C	0.743188	0.225920	0.773949
C121	C	0.266645	-0.245306	0.245265
C122	C	0.766645	0.254694	0.745265
C123	C	0.620418	-0.739805	0.245314
C124	C	1.120418	-0.239805	0.745314
C125	C	0.620358	-0.552132	0.245300
C126	C	1.120358	-0.052132	0.745300
O127	O	0.595913	-0.527875	0.269716
O128	O	1.095913	-0.027875	0.769716
N129	N	0.649102	-0.528654	0.216600
N130	N	1.149102	-0.028654	0.716600
C131	C	0.677864	-0.552097	0.187904
C132	C	1.177864	-0.052097	0.687904
O133	O	0.702314	-0.527822	0.163497
O134	O	1.202314	-0.027822	0.663497
C135	C	0.677926	-0.739769	0.187921
C136	C	1.177926	-0.239769	0.687921
C137	C	0.649177	-0.763245	0.216619
C138	C	1.149177	-0.263245	0.716619
C139	C	0.591672	-0.763280	0.274010
C140	C	1.091672	-0.263280	0.774010
C141	C	0.591685	-0.810195	0.274012
C142	C	1.091685	-0.310195	0.774012
C143	C	0.620445	-0.833636	0.245317
C144	C	1.120445	-0.333636	0.745317
C145	C	0.649190	-0.810160	0.216621
C146	C	1.149190	-0.310160	0.716621
C147	C	0.706690	-0.763212	0.159228
C148	C	1.206690	-0.263212	0.659228
C149	C	0.706703	-0.810133	0.159235
C150	C	1.206703	-0.310133	0.659235
C151	C	0.677955	-0.833608	0.187933
C152	C	1.177955	-0.333608	0.687933
C153	C	0.677963	-0.880516	0.187928
C154	C	1.177963	-0.380516	0.687928
N155	N	0.649220	-0.903993	0.216627
N156	N	1.149220	-0.403993	0.716627
C157	C	0.620460	-0.880553	0.245322
C158	C	1.120460	-0.380553	0.745322
C159	C	0.677829	-0.453567	0.187897
C160	C	1.177829	0.046433	0.687897
C161	C	0.677814	-0.406649	0.187892
C162	C	1.177814	0.093351	0.687892
C163	C	0.620308	-0.406686	0.245289
C164	C	1.120308	0.093314	0.745289
C165	C	0.620322	-0.453605	0.245291
C166	C	1.120322	0.046395	0.745291
C167	C	0.649086	-0.477044	0.216597
C168	C	1.149086	0.022956	0.716597
C169	C	0.620490	-0.979079	0.245323
C170	C	1.120490	-0.479079	0.745323
C171	C	0.620505	-1.025999	0.245320
C172	C	1.120505	-0.525999	0.745320
C173	C	0.678012	-1.025957	0.187926
C174	C	1.178012	-0.525957	0.687926
C175	C	0.677996	-0.979041	0.187926
C176	C	1.177996	-0.479041	0.687926
C177	C	0.649234	-0.955604	0.216628
C178	C	1.149234	-0.455604	0.716628
O179	O	0.702399	-0.904802	0.163528
O180	O	1.202399	-0.404802	0.663528
O181	O	0.596021	-0.904837	0.269733
O182	O	1.096021	-0.404837	0.769733
C183	C	0.620404	-0.692889	0.245313
C184	C	1.120404	-0.192889	0.745313
C185	C	0.649150	-0.669414	0.216616
C186	C	1.149150	-0.169414	0.716616
C187	C	0.677909	-0.692854	0.187922
C188	C	1.177909	-0.192854	0.687922
C189	C	0.649134	-0.622496	0.216612
C190	C	1.149134	-0.122496	0.716612
C191	C	0.620375	-0.599056	0.245306
C192	C	1.120375	-0.099056	0.745306
C193	C	0.591632	-0.622534	0.274006
C194	C	1.091632	-0.122534	0.774006
C195	C	0.591645	-0.669449	0.274007
C196	C	1.091645	-0.169449	0.774007
C197	C	0.706653	-0.669376	0.159222
C198	C	1.206653	-0.169376	0.659222
C199	C	0.706637	-0.622461	0.159222
C200	C	1.206637	-0.122461	0.659222
C201	C	0.677877	-0.599020	0.187917
C202	C	1.177877	-0.099020	0.687917
C203	C	0.766308	-0.216575	0.216629
C204	C	1.266308	0.283425	0.716629
C205	C	0.816243	-0.216586	0.216645
C206	C	1.316243	0.283414	0.716645
C207	C	0.649142	-0.216548	0.333770
C208	C	1.149142	0.283452	0.833770
C209	C	0.649147	-0.216546	0.383704
C210	C	1.149147	0.283454	0.883704
C211	C	0.649224	-0.099373	0.216615
C212	C	1.149224	0.400627	0.716615
C213	C	0.649264	-0.049439	0.216625
C214	C	1.149264	0.450561	0.716625
C215	C	0.649144	-0.216523	0.099869
C216	C	1.149144	0.283477	0.599869
C217	C	0.649226	-0.216398	0.049935
C218	C	1.149226	0.283602	0.549935
C219	C	0.677934	-0.187743	0.693366
C220	C	1.177934	0.312257	1.193366
C221	C	0.677956	-0.187705	0.881039
C222	C	1.177956	0.312295	1.381039
O223	O	0.702399	-0.163258	0.905319
O224	O	1.202399	0.336742	1.405319
N225	N	0.649207	-0.216426	0.904490
N226	N	1.149207	0.283574	1.404490
C227	C	0.620447	-0.245156	0.881019
C228	C	1.120447	0.254844	1.381019
O229	O	0.595991	-0.269581	0.905272
O230	O	1.095991	0.230419	1.405272
C231	C	0.620423	-0.245192	0.693347
C232	C	1.120423	0.254808	1.193347
C233	C	0.649178	-0.216472	0.669899
C234	C	1.149178	0.283528	1.169899
C235	C	0.706686	-0.159025	0.669918
C236	C	1.206686	0.340975	1.169918
C237	C	0.706682	-0.159037	0.623002
C238	C	1.206682	0.340963	1.123002
C239	C	0.677926	-0.187766	0.599535
C240	C	1.177926	0.312234	1.099535
C241	C	0.649174	-0.216484	0.622983
C242	C	1.149174	0.283516	1.122983
C243	C	0.591662	-0.273920	0.669877
C244	C	1.091662	0.226080	1.169877
C245	C	0.591658	-0.273925	0.622956
C246	C	1.091658	0.226075	1.122956
C247	C	0.620412	-0.245206	0.599508
C248	C	1.120412	0.254794	1.099508
C249	C	0.620414	-0.245225	0.552601
C250	C	1.120414	0.254775	1.052601
N251	N	0.649163	-0.216504	0.529150
N252	N	1.149163	0.283496	1.029150
C253	C	0.677919	-0.187774	0.552617
C254	C	1.177919	0.312226	1.052617
C255	C	0.620463	-0.245136	0.979550
C256	C	1.120463	0.254864	1.479550
C257	C	0.620469	-0.245128	1.026468
C258	C	1.120469	0.254872	1.526468
C259	C	0.677978	-0.187675	1.026484
C260	C	1.177978	0.312325	1.526484
C261	C	0.677973	-0.187686	0.979566
C262	C	1.177973	0.312314	1.479566
C263	C	0.649212	-0.216415	0.956099
C264	C	1.149212	0.283585	1.456099
C265	C	0.677909	-0.187801	0.454091
C266	C	1.177909	0.312199	0.954091
C267	C	0.677903	-0.187817	0.407172
C268	C	1.177903	0.312183	0.907172
C269	C	0.620393	-0.245267	0.407159
C270	C	1.120393	0.254733	0.907159
C271	C	0.620400	-0.245253	0.454075
C272	C	1.120400	0.254747	0.954075
C273	C	0.649159	-0.216517	0.477540
C274	C	1.149159	0.283483	0.977540
O275	O	0.595981	-0.269655	0.528292
O276	O	1.095981	0.230345	1.028292
O277	O	0.702365	-0.163346	0.528357
O278	O	1.202365	0.336654	1.028357
C279	C	0.677938	-0.187731	0.740282
C280	C	1.177938	0.312269	1.240282
C281	C	0.649186	-0.216449	0.763730
C282	C	1.149186	0.283551	1.263730
C283	C	0.620430	-0.245178	0.740263
C284	C	1.120430	0.254822	1.240263
C285	C	0.649193	-0.216441	0.810648
C286	C	1.149193	0.283559	1.310648
C287	C	0.677949	-0.187711	0.834115
C288	C	1.177949	0.312289	1.334115
C289	C	0.706699	-0.158990	0.810664
C290	C	1.206699	0.341010	1.310664
C291	C	0.706694	-0.159002	0.763749
C292	C	1.206694	0.340998	1.263749
C293	C	0.591680	-0.273899	0.763713
C294	C	1.091680	0.226101	1.263713
C295	C	0.591687	-0.273886	0.810629
C296	C	1.091687	0.226114	1.310629
C297	C	0.620443	-0.245156	0.834096
C298	C	1.120443	0.254844	1.334096
H299	H	-0.179399	-0.164382	0.164604
H300	H	0.320601	0.335618	0.664604
Br301	Br	0.716932	-0.148839	0.375352
Br302	Br	1.216932	0.351161	0.875352
H303	H	0.392996	-0.164329	0.164522
H304	H	0.892996	0.335671	0.664522
Br305	Br	0.581379	-0.284233	0.485898
Br306	Br	1.081379	0.215767	0.985898
Br307	Br	0.552628	-0.701301	0.312958
Br308	Br	1.052628	-0.201301	0.812958
Br309	Br	0.275024	-0.119943	0.120297
Br310	Br	0.775024	0.380057	0.620297
Br311	Br	0.716936	-0.148798	0.485929
Br312	Br	1.216936	0.351202	0.985929
H313	H	0.177179	-0.297519	0.297316
H314	H	0.677179	0.202481	0.797316
Br315	Br	0.745727	-0.120003	0.842522
Br316	Br	1.245727	0.379997	1.342522
Br317	Br	0.581276	-0.374866	0.284230
Br318	Br	1.081276	0.125134	0.784230
Br319	Br	0.552621	-0.312915	0.591112
Br320	Br	1.052621	0.187085	1.091112
H321	H	0.596982	-0.268659	0.388044
H322	H	1.096982	0.231341	0.888044
Br323	Br	0.581486	-1.057855	0.284270
Br324	Br	1.081486	-0.557855	0.784270
H325	H	0.262284	-0.297513	0.297304
H326	H	0.762284	0.202487	0.797304
H327	H	-0.094290	-0.164363	0.164596
H328	H	0.405710	0.335637	0.664596
H329	H	0.478118	-0.164326	0.164514
H330	H	0.978118	0.335674	0.664514
H331	H	0.597070	-0.960001	0.268695
H332	H	1.097070	-0.460001	0.768695
H333	H	0.036423	-0.135584	0.135893
H334	H	0.536423	0.364416	0.635893
H335	H	0.568213	-0.603441	0.297369
H336	H	1.068213	-0.103441	0.797369
H337	H	0.568275	-0.829305	0.297380
H338	H	1.068275	-0.329305	0.797380
H339	H	0.597059	-0.268519	1.045555
H340	H	1.097059	0.231481	1.545555
H341	H	0.121528	-0.135573	0.135885
H342	H	0.621528	0.364427	0.635885
Br343	Br	0.745723	-0.120036	0.701757
Br344	Br	1.245723	0.379964	1.201757
Br345	Br	0.745706	-0.120055	0.591187
Br346	Br	1.245706	0.379945	1.091187
Br347	Br	-0.081538	-0.284403	0.284237
Br348	Br	0.418462	0.215597	0.784237
Br349	Br	0.581305	-0.485460	0.284239
Br350	Br	1.081305	0.014540	0.784239
H351	H	0.568253	-0.744199	0.297379
H352	H	1.068253	-0.244199	0.797379
Br353	Br	0.164436	-0.119948	0.120306
Br354	Br	0.664436	0.380052	0.620306
Br355	Br	0.716999	-0.148708	0.947748
Br356	Br	1.216999	0.351292	1.447748
H357	H	0.701253	-0.472646	0.164529
H358	H	1.201253	0.027354	0.664529
Br359	Br	0.716824	-0.374795	0.148936
Br360	Br	1.216824	0.125205	0.648936
Br361	Br	0.717004	-0.148686	1.058342
Br362	Br	1.217004	0.351314	1.558342
H363	H	0.730100	-0.744105	0.135859
H364	H	1.230100	-0.244105	0.635859
H365	H	-0.179399	-0.268787	0.268678
H366	H	0.320601	0.231213	0.768678
H367	H	0.730128	-0.829215	0.135870
H368	H	1.230128	-0.329215	0.635870
H369	H	0.701401	-0.959927	0.164553
H370	H	1.201401	-0.459927	0.664553
Br371	Br	0.581426	-0.284129	0.947709
Br372	Br	1.081426	0.215871	1.447709
Br373	Br	0.552638	-0.312902	0.701688
Br374	Br	1.052638	0.187098	1.201688
H375	H	0.730109	-0.135615	0.744661
H376	H	1.230109	0.364385	1.244661
H377	H	0.568272	-0.297277	0.829716
H378	H	1.068272	0.202723	1.329716
H379	H	0.036421	-0.297524	0.297348
H380	H	0.536421	0.202476	0.797348
H381	H	0.701425	-1.045050	0.164562
H382	H	1.201425	-0.545050	0.664562
Br383	Br	0.490848	-0.284359	0.284152
Br384	Br	0.990848	0.215641	0.784152
Br385	Br	0.380273	-0.284360	0.284179
Br386	Br	0.880273	0.215640	0.784179
Br387	Br	0.745688	-0.701180	0.120276
Br388	Br	1.245688	-0.201180	0.620276
H389	H	0.730046	-0.603350	0.135849
H390	H	1.230046	-0.103350	0.635849
H391	H	0.121529	-0.297524	0.297334
H392	H	0.621529	0.202476	0.797334
H393	H	0.568264	-0.297295	0.744611
H394	H	1.068264	0.202705	1.244611
