data_functionalizedCrystal
_audit_creation_method	'MofGen! by Chris Wilmer'
_symmetry_space_group_name_H-M	'P1'
_symmetry_Int_Tables_number	1
_symmetry_cell_setting	triclinic
loop_
_symmetry_equiv_pos_as_xyz
  x,y,z
_cell_length_a	15.995292
_cell_length_b	27.732048
_cell_length_c	15.072220
_cell_angle_alpha	89.993868
_cell_angle_beta	89.986330
_cell_angle_gamma	83.055635
loop_
_atom_site_label
_atom_site_type_symbol
_atom_site_fract_x
_atom_site_fract_y
_atom_site_fract_z
O1	O	1.110222	0.062168	-0.073816
O2	O	1.610222	0.562168	0.426184
O3	O	0.866340	0.069891	-0.073814
O4	O	1.366340	0.569891	0.426186
O5	O	0.995855	-0.004336	-0.073798
O6	O	1.495855	0.495664	0.426202
O7	O	0.980706	0.136394	-0.073832
O8	O	1.480706	0.636394	0.426168
O9	O	0.995823	-0.004332	0.073767
O10	O	1.495823	0.495668	0.573767
O11	O	0.866308	0.069895	0.073751
O12	O	1.366308	0.569895	0.573751
O13	O	1.110190	0.062172	0.073749
O14	O	1.610190	0.562172	0.573749
Zn15	Zn	0.988244	0.066034	0.097179
Zn16	Zn	1.488244	0.566034	0.597179
Zn17	Zn	0.988286	0.066029	-0.097244
Zn18	Zn	1.488286	0.566029	0.402756
O19	O	0.980675	0.136398	0.073733
O20	O	1.480675	0.636398	0.573733
C21	C	0.835133	0.069579	-0.000031
C22	C	1.335133	0.569579	0.499969
C23	C	0.742192	0.068636	-0.000029
C24	C	1.242192	0.568636	0.499971
C25	C	0.404498	0.065172	-0.000039
C26	C	0.904498	0.565172	0.499961
C27	C	0.427117	0.118746	-0.000381
C28	C	0.927117	0.618746	0.499619
C29	C	0.523780	0.119765	-0.000045
C30	C	1.023780	0.619765	0.499955
C31	C	0.572032	0.066891	-0.000034
C32	C	1.072032	0.566891	0.499966
C33	C	0.543258	0.040108	0.084236
C34	C	1.043258	0.540108	0.584236
C35	C	0.446476	0.039463	0.084303
C36	C	0.946476	0.539463	0.584303
C37	C	0.446671	0.038365	-0.083506
C38	C	0.946671	0.538365	0.416494
C39	C	0.543138	0.040350	-0.084616
C40	C	1.043138	0.540350	0.415384
C41	C	0.666715	0.067859	-0.000029
C42	C	1.166715	0.567859	0.499971
C43	C	0.309815	0.064201	-0.000038
C44	C	0.809815	0.564201	0.499962
C45	C	0.995521	-0.022342	-0.000013
C46	C	1.495521	0.477658	0.499987
C47	C	0.994564	-0.076001	-0.000006
C48	C	1.494564	0.423999	0.499994
C49	C	1.065071	-0.414520	-0.000052
C50	C	1.565071	0.085480	0.499948
C51	C	1.061518	-0.616195	-0.000065
C52	C	1.561518	-0.116195	0.499935
O53	O	1.125992	-0.647180	-0.000104
O54	O	1.625992	-0.147180	0.499896
N55	N	0.984721	-0.635641	-0.000063
N56	N	1.484721	-0.135641	0.499937
C57	C	0.908806	-0.604664	-0.000064
C58	C	1.408806	-0.104664	0.499936
O59	O	0.843404	-0.625831	-0.000072
O60	O	1.343404	-0.125831	0.499928
C61	C	0.912360	-0.402991	-0.000058
C62	C	1.412360	0.097009	0.499942
C63	C	0.989162	-0.383548	-0.000051
C64	C	1.489162	0.116452	0.499949
C65	C	1.141867	-0.395077	-0.000046
C66	C	1.641867	0.104923	0.499954
C67	C	1.142754	-0.344662	-0.000038
C68	C	1.642754	0.155338	0.499962
C69	C	1.066845	-0.313689	-0.000036
C70	C	1.566845	0.186311	0.499964
C71	C	0.990049	-0.333132	-0.000043
C72	C	1.490049	0.166868	0.499957
C73	C	0.836446	-0.372015	-0.000066
C74	C	1.336446	0.127985	0.499934
C75	C	0.837342	-0.321594	-0.000067
C76	C	1.337342	0.178406	0.499933
C77	C	0.914144	-0.302151	-0.000059
C78	C	1.414144	0.197849	0.499941
C79	C	0.915028	-0.251744	-0.000033
C80	C	1.415028	0.248256	0.499967
N81	N	0.991825	-0.232298	-0.000035
N82	N	1.491825	0.267702	0.499965
C83	C	1.067734	-0.263271	-0.000036
C84	C	1.567734	0.236729	0.499964
C85	C	0.906946	-0.710546	-0.000066
C86	C	1.406946	-0.210546	0.499934
C87	C	0.906057	-0.760964	-0.000066
C88	C	1.406057	-0.260964	0.499934
C89	C	1.058770	-0.772492	-0.000068
C90	C	1.558770	-0.272492	0.499932
C91	C	1.059657	-0.722072	-0.000061
C92	C	1.559657	-0.222072	0.499939
C93	C	0.983743	-0.691100	-0.000067
C94	C	1.483743	-0.191100	0.499933
C95	C	1.069592	-0.157394	-0.000019
C96	C	1.569592	0.342606	0.499981
C97	C	1.070473	-0.106973	-0.000007
C98	C	1.570473	0.393027	0.499993
C99	C	0.917761	-0.095450	-0.000010
C100	C	1.417761	0.404550	0.499990
C101	C	0.916880	-0.145867	-0.000017
C102	C	1.416880	0.354133	0.499983
C103	C	0.992802	-0.176838	-0.000025
C104	C	1.492802	0.323162	0.499975
O105	O	0.850589	-0.220730	-0.000004
O106	O	1.350589	0.279270	0.499996
O107	O	1.133127	-0.242094	-0.000048
O108	O	1.633127	0.257906	0.499952
C109	C	1.064183	-0.464936	-0.000060
C110	C	1.564183	0.035064	0.499940
C111	C	0.987387	-0.484379	-0.000067
C112	C	1.487387	0.015621	0.499933
C113	C	0.911479	-0.453407	-0.000065
C114	C	1.411479	0.046593	0.499935
C115	C	0.986499	-0.534797	-0.000067
C116	C	1.486499	-0.034797	0.499933
C117	C	1.062407	-0.565770	-0.000068
C118	C	1.562407	-0.065770	0.499932
C119	C	1.139205	-0.546324	-0.000070
C120	C	1.639205	-0.046324	0.499930
C121	C	1.140092	-0.495909	-0.000062
C122	C	1.640092	0.004091	0.499938
C123	C	0.834682	-0.472852	-0.000064
C124	C	1.334682	0.027148	0.499936
C125	C	0.833800	-0.523269	-0.000071
C126	C	1.333800	-0.023269	0.499929
C127	C	0.909709	-0.554241	-0.000072
C128	C	1.409709	-0.054241	0.499928
C129	C	1.141397	0.062484	-0.000036
C130	C	1.641397	0.562484	0.499964
C131	C	1.234338	0.063426	-0.000044
C132	C	1.734338	0.563426	0.499956
C133	C	0.981008	0.154404	-0.000054
C134	C	1.481008	0.654404	0.499946
C135	C	0.981966	0.208063	-0.000067
C136	C	1.481966	0.708063	0.499933
N137	N	0.988221	0.066037	0.229868
N138	N	1.488221	0.566037	0.729868
N139	N	0.988315	0.066021	-0.229933
N140	N	1.488315	0.566021	0.270067
C141	C	0.988284	0.066027	0.589069
C142	C	1.488284	0.566027	1.089069
C143	C	0.918754	0.105611	0.551454
C144	C	1.418754	0.605611	1.051454
C145	C	0.918910	0.105755	0.448628
C146	C	1.418910	0.605755	0.948628
C147	C	0.988252	0.066032	0.410865
C148	C	1.488252	0.566032	0.910865
C149	C	1.075477	0.077037	0.448153
C150	C	1.575477	0.577037	0.948153
C151	C	1.075087	0.077318	0.551010
C152	C	1.575087	0.577318	1.051010
C153	C	0.971370	0.015320	0.551182
C154	C	1.471370	0.515320	1.051182
C155	C	0.969361	0.015659	0.448319
C156	C	1.469361	0.515659	0.948319
C157	C	0.988240	0.066034	0.310152
C158	C	1.488240	0.566034	0.810152
C159	C	0.988302	0.066026	0.689783
C160	C	1.488302	0.566026	1.189783
H161	H	0.541897	0.140870	0.060457
H162	H	1.041897	0.640870	0.560457
N163	N	0.888977	0.001308	0.585576
N164	N	1.388977	0.501308	1.085576
H165	H	0.879371	-0.031330	0.560442
H166	H	1.379371	0.468670	1.060442
H167	H	0.891018	-0.000653	0.652466
H168	H	1.391018	0.499347	1.152466
N169	N	1.094941	0.126305	0.582770
N170	N	1.594941	0.626305	1.082770
H171	H	1.094882	0.126978	0.649769
H172	H	1.594882	0.626978	1.149769
H173	H	1.152246	0.132226	0.560110
H174	H	1.652246	0.632226	1.060110
N175	N	0.569475	0.064743	0.167310
N176	N	1.069475	0.564743	0.667310
H177	H	0.632774	0.063882	0.168279
H178	H	1.132774	0.563882	0.668279
H179	H	0.542486	0.099600	0.168090
H180	H	1.042486	0.599600	0.668090
N181	N	1.142492	-0.701104	-0.000060
N182	N	1.642492	-0.201104	0.499940
H183	H	1.146255	-0.680445	0.054644
H184	H	1.646255	-0.180445	0.554644
H185	H	1.190392	-0.728406	-0.000091
H186	H	1.690392	-0.228406	0.499909
H187	H	1.205294	-0.328836	-0.000035
H188	H	1.705294	0.171164	0.499965
H189	H	1.128408	0.049623	0.575891
H190	H	1.628408	0.549623	1.075891
H191	H	1.131415	-0.182605	-0.000029
H192	H	1.631415	0.317395	0.499971
H193	H	0.905201	0.007307	0.423950
H194	H	1.405201	0.507307	0.923950
H195	H	0.433188	-0.001070	-0.084068
H196	H	0.933188	0.498930	0.415932
H197	H	0.397820	0.139284	0.059704
H198	H	0.897820	0.639284	0.559704
H199	H	0.576609	0.001757	-0.089698
H200	H	1.076609	0.501757	0.410302
H201	H	0.854053	0.099200	0.423420
H202	H	1.354053	0.599200	0.923420
H203	H	0.418141	0.055108	-0.147377
H204	H	0.918141	0.555108	0.352623
H205	H	0.855958	-0.070224	-0.000006
H206	H	1.355958	0.429776	0.499994
H207	H	1.202632	-0.480083	-0.000056
H208	H	1.702632	0.019917	0.499944
H209	H	1.090857	0.113595	0.422374
H210	H	1.590857	0.613595	0.922374
H211	H	0.853686	0.099163	0.576218
H212	H	1.353686	0.599163	1.076218
H213	H	1.133017	-0.091146	0.000001
H214	H	1.633017	0.408854	0.500001
H215	H	0.929643	0.143384	0.424005
H216	H	1.429643	0.643384	0.924005
N217	N	0.753602	-0.392970	-0.000082
N218	N	1.253602	0.107030	0.499918
H219	H	0.749838	-0.413626	-0.054788
H220	H	1.249838	0.086374	0.445212
H221	H	0.749847	-0.413609	0.054653
H222	H	1.249847	0.086391	0.554653
H223	H	1.203684	-0.420291	-0.000050
H224	H	1.703684	0.079709	0.499950
N225	N	1.145619	0.039864	0.415760
N226	N	1.645619	0.539864	0.915760
H227	H	1.121471	0.015474	0.376506
H228	H	1.621471	0.515474	0.876506
H229	H	1.187555	0.056699	0.380865
H230	H	1.687555	0.556699	0.880865
H231	H	1.016764	-0.015177	0.422617
H232	H	1.516764	0.484823	0.922617
H233	H	0.771254	-0.539094	-0.000069
H234	H	1.271254	-0.039094	0.499931
N235	N	0.427865	-0.012566	0.089382
N236	N	0.927865	0.487434	0.589382
H237	H	0.482509	-0.034981	0.091573
H238	H	0.982509	0.465019	0.591573
H239	H	0.393940	-0.017145	0.144615
H240	H	0.893940	0.482855	0.644615
H241	H	0.398867	0.139395	-0.060816
H242	H	0.898867	0.639395	0.439184
H243	H	0.561469	0.059850	-0.146959
H244	H	1.061469	0.559850	0.353041
N245	N	1.140644	-0.805902	-0.000067
N246	N	1.640644	-0.305902	0.499933
H247	H	1.128420	-0.840791	-0.000068
H248	H	1.628420	-0.340791	0.499932
H249	H	1.174150	-0.799606	-0.054775
H250	H	1.674150	-0.299606	0.445225
N251	N	0.823221	-0.781932	-0.000049
N252	N	1.323221	-0.281932	0.499951
H253	H	0.775273	-0.754656	-0.000048
H254	H	1.275273	-0.254656	0.499952
H255	H	0.819530	-0.802597	-0.054752
H256	H	1.319530	-0.302597	0.445248
H257	H	0.845124	-0.685332	-0.000070
H258	H	1.345124	-0.185332	0.499930
H259	H	1.201012	-0.571551	-0.000067
H260	H	1.701012	-0.071551	0.499933
N261	N	0.932789	0.155179	0.585621
N262	N	1.432789	0.655179	1.085621
H263	H	0.983988	0.152105	0.625365
H264	H	1.483988	0.652105	1.125365
H265	H	0.941946	0.177088	0.533884
H266	H	1.441946	0.677088	1.033884
H267	H	1.022083	-0.014137	0.575507
H268	H	1.522083	0.485863	1.075507
N269	N	0.586138	-0.011429	0.088411
N270	N	1.086138	0.488571	0.588411
H271	H	0.624721	-0.017927	0.035588
H272	H	1.124721	0.482073	0.535588
H273	H	0.620116	-0.016118	0.144889
H274	H	1.120116	0.483882	0.644889
H275	H	0.419406	0.058015	0.147289
H276	H	0.919406	0.558015	0.647289
H277	H	0.772866	-0.447639	-0.000064
H278	H	1.272866	0.052361	0.499936
H279	H	0.542548	0.140737	-0.060456
H280	H	1.042548	0.640737	0.439544
H281	H	0.775522	-0.296378	-0.000073
H282	H	1.275522	0.203622	0.499927
N283	N	0.834046	-0.166841	-0.000013
N284	N	1.334046	0.333159	0.499987
H285	H	0.786094	-0.139567	-0.000008
H286	H	1.286094	0.360433	0.499992
H287	H	0.830364	-0.187501	-0.054724
H288	H	1.330364	0.312499	0.445276
