data_functionalizedCrystal
_audit_creation_method	'MofGen! by Chris Wilmer'
_symmetry_space_group_name_H-M	'P1'
_symmetry_Int_Tables_number	1
_symmetry_cell_setting	triclinic
loop_
_symmetry_equiv_pos_as_xyz
  x,y,z
_cell_length_a	12.594517
_cell_length_b	12.594516
_cell_length_c	12.645323
_cell_angle_alpha	89.974378
_cell_angle_beta	89.977203
_cell_angle_gamma	90.011616
loop_
_atom_site_label
_atom_site_type_symbol
_atom_site_fract_x
_atom_site_fract_y
_atom_site_fract_z
Zn1	Zn	1.627314	-0.423739	-0.599444
Zn2	Zn	1.627213	-0.601743	-0.422182
Zn3	Zn	1.449313	-0.423778	-0.422188
Zn4	Zn	1.449313	-0.601676	-0.599397
O5	O	1.538288	-0.512734	-0.510803
O6	O	1.776246	-0.447364	-0.575947
O7	O	1.603572	-0.578179	-0.273835
O8	O	1.472967	-0.274827	-0.445724
O9	O	1.776172	-0.578142	-0.445713
O10	O	1.603744	-0.274799	-0.575953
O11	O	1.472870	-0.447429	-0.273840
O12	O	1.300367	-0.447364	-0.445678
O13	O	1.472967	-0.578028	-0.747751
O14	O	1.300367	-0.578065	-0.575873
O15	O	1.603744	-0.447299	-0.747785
O16	O	1.603572	-0.750679	-0.445668
O17	O	1.472870	-0.750630	-0.575867
C18	C	1.261747	-0.512713	-0.510772
C19	C	1.143442	-0.512729	-0.510783
C20	C	1.074158	-0.441544	-0.440106
C21	C	1.003353	-0.538632	-0.414031
C22	C	1.003447	-0.415689	-0.536876
C23	C	1.074196	-0.609868	-0.484659
C24	C	1.074296	-0.486860	-0.607548
C25	C	1.003523	-0.584014	-0.581510
C26	C	1.538239	-0.789275	-0.510784
C27	C	1.538315	-0.907580	-0.510812
C28	C	1.609487	-0.976821	-0.440072
C29	C	1.635500	-1.047522	-0.536831
C30	C	1.512435	-1.047679	-0.414114
C31	C	1.564378	-0.976722	-0.607622
C32	C	1.441268	-0.976873	-0.484840
C33	C	1.467244	-1.047541	-0.581666
C34	C	1.815909	-0.512756	-0.510835
C35	C	1.934214	-0.512765	-0.510848
C36	C	1.538367	-0.512652	-0.787308
C37	C	1.538400	-0.512616	-0.905138
C38	C	1.538367	-0.235113	-0.510845
C39	C	1.538400	-0.116808	-0.510862
C40	C	1.455875	-0.594471	-1.072681
C41	C	1.456091	-0.594876	-0.950121
C42	C	1.650553	-0.543058	-0.949658
C43	C	1.650101	-0.543571	-1.072256
C44	C	1.509832	-0.399864	-1.072338
C45	C	1.507330	-0.400539	-0.949731
C46	C	1.538271	-0.512739	-0.235373
C47	C	1.538444	-0.512474	-0.117544
H48	H	0.972194	-0.560535	-0.332228
C49	C	1.593780	-0.935143	-0.716634
C50	C	1.593462	-0.823983	-0.715316
C51	C	1.620560	-0.785641	-0.815711
H52	H	1.543613	-0.959809	-0.767032
H53	H	1.662562	-0.959861	-0.735224
H54	H	1.524691	-0.799275	-0.696739
H55	H	1.643630	-0.799288	-0.664939
H56	H	1.689341	-0.810359	-0.834301
H57	H	1.570389	-0.810314	-0.866101
H58	H	1.620357	-0.710216	-0.814827
H59	H	0.972704	-0.644298	-0.641308
H60	H	1.105481	-0.464926	-0.689327
H61	H	1.424795	-0.377582	-0.920632
H62	H	1.105143	-0.691973	-0.462526
H63	H	0.972315	-0.333619	-0.558881
H64	H	1.569972	-0.338773	-1.101352
C65	C	1.581497	-0.314693	-0.908770
C66	C	1.522804	-0.239188	-0.852343
C67	C	1.591103	-0.160104	-0.814582
H68	H	1.616044	-0.281239	-0.966669
H69	H	1.633086	-0.345723	-0.863513
H70	H	1.471234	-0.208161	-0.897597
H71	H	1.488259	-0.272611	-0.794430
H72	H	1.642692	-0.191134	-0.769325
H73	H	1.625647	-0.126658	-0.872487
H74	H	1.551291	-0.108870	-0.776284
C75	C	1.483338	-1.089088	-0.304957
C76	C	1.558059	-1.053231	-0.231200
C77	C	1.531291	-1.091341	-0.130630
H78	H	1.482962	-1.164503	-0.305771
H79	H	1.414871	-1.063828	-0.285945
H80	H	1.626508	-1.078497	-0.250206
H81	H	1.558446	-0.977821	-0.230351
H82	H	1.462824	-1.066081	-0.111618
H83	H	1.530915	-1.166755	-0.131456
H84	H	1.581978	-1.067010	-0.080572
C85	C	1.689915	-0.935464	-0.360517
C86	C	1.791424	-0.971239	-0.388237
C87	C	1.865543	-0.933149	-0.314989
H88	H	1.672320	-0.960775	-0.291940
H89	H	1.688944	-0.860036	-0.360617
H90	H	1.792392	-1.046651	-0.388125
H91	H	1.809052	-0.945930	-0.456801
H92	H	1.864572	-0.857721	-0.315090
H93	H	1.847938	-0.958463	-0.246417
H94	H	1.934426	-0.957409	-0.333793
C95	C	1.682397	-0.653418	-1.110204
C96	C	1.702141	-0.718697	-1.022746
C97	C	1.731879	-0.819902	-1.057656
H98	H	1.744843	-0.648152	-1.152030
H99	H	1.626715	-0.683064	-1.151374
H100	H	1.757819	-0.689058	-0.981594
H101	H	1.639710	-0.723994	-0.980912
H102	H	1.676197	-0.849548	-1.098827
H103	H	1.794323	-0.814625	-1.099482
H104	H	1.745270	-0.864209	-0.998323
C105	C	1.115378	-0.361199	-0.360398
C106	C	1.077971	-0.259954	-0.386916
C107	C	1.115911	-0.185921	-0.313506
H108	H	1.190793	-0.361153	-0.361315
H109	H	1.091052	-0.379696	-0.291688
H110	H	1.102302	-0.241461	-0.455608
H111	H	1.002560	-0.259965	-0.385991
H112	H	1.091585	-0.204419	-0.244796
H113	H	1.191325	-0.185885	-0.314429
H114	H	1.090528	-0.117220	-0.331483
H115	H	1.717607	-1.078558	-0.558827
H116	H	1.407093	-1.078398	-0.641579
C117	C	1.402786	-0.362704	-1.113668
C118	C	1.415935	-0.267817	-1.169903
C119	C	1.317347	-0.233571	-1.208005
H120	H	1.355905	-0.351212	-1.055938
H121	H	1.373878	-0.415332	-1.159119
H122	H	1.444827	-0.215201	-1.124456
H123	H	1.462797	-0.279282	-1.227648
H124	H	1.288439	-0.286199	-1.253455
H125	H	1.270474	-0.222085	-1.150268
H126	H	1.326256	-0.169192	-1.246172
H127	H	1.372926	-0.575827	-0.920019
C128	C	1.331857	-0.935506	-0.455259
C129	C	1.305124	-0.971376	-0.353868
C130	C	1.204350	-0.933276	-0.326565
H131	H	1.281043	-0.960749	-0.504723
H132	H	1.332452	-0.860078	-0.456033
H133	H	1.304521	-1.046789	-0.353102
H134	H	1.355911	-0.946136	-0.304382
H135	H	1.204945	-0.857848	-0.327340
H136	H	1.153545	-0.958522	-0.376036
H137	H	1.186202	-0.957600	-0.257766
C138	C	1.344705	-0.569390	-1.112177
C139	C	1.343176	-0.574049	-1.222789
C140	C	1.240780	-0.550962	-1.259218
H141	H	1.324948	-0.500181	-1.089762
H142	H	1.296038	-0.619796	-1.084281
H143	H	1.391827	-0.523646	-1.250674
H144	H	1.362913	-0.643250	-1.245232
H145	H	1.192114	-0.601368	-1.231322
H146	H	1.221032	-0.481754	-1.236796
H147	H	1.239727	-0.554130	-1.334271
H148	H	1.474580	-0.677432	-1.103499
H149	H	1.474980	-0.678359	-0.920806
C150	C	1.735008	-0.467399	-1.111632
C151	C	1.786488	-0.421116	-1.025031
C152	C	1.864721	-0.350957	-1.061258
H153	H	1.702976	-0.413461	-1.153334
H154	H	1.785205	-0.505150	-1.153236
H155	H	1.736299	-0.383365	-0.983445
H156	H	1.818542	-0.475027	-0.983320
H157	H	1.914918	-0.388708	-1.102862
H158	H	1.832679	-0.297026	-1.102960
H159	H	1.899665	-0.319553	-1.002506
H160	H	1.713724	-0.485224	-0.920524
H161	H	1.675219	-0.624516	-0.918968
