data_functionalizedCrystal
_audit_creation_method	'MofGen! by Chris Wilmer'
_symmetry_space_group_name_H-M	'P1'
_symmetry_Int_Tables_number	1
_symmetry_cell_setting	triclinic
loop_
_symmetry_equiv_pos_as_xyz
  x,y,z
_cell_length_a	20.919287
_cell_length_b	17.917603
_cell_length_c	20.919320
_cell_angle_alpha	54.373986
_cell_angle_beta	86.847435
_cell_angle_gamma	61.135644
loop_
_atom_site_label
_atom_site_type_symbol
_atom_site_fract_x
_atom_site_fract_y
_atom_site_fract_z
Zr1	Zr	0.643113	0.833031	-0.158159
O2	O	0.543178	0.998833	-0.265532
O3	O	0.669689	0.673584	-0.120598
O4	O	0.670617	0.842895	-0.266508
O5	O	0.546136	0.819524	-0.009810
O6	O	0.775760	0.843447	-0.272562
O7	O	0.542250	0.829522	-0.119622
O8	O	0.774100	0.540581	-0.011555
O9	O	0.547796	1.122390	-0.270817
O10	O	0.764394	0.737225	-0.114709
O11	O	0.688827	0.729352	-0.028239
O12	O	0.689919	0.928694	-0.200030
O13	O	0.614352	0.920821	-0.113560
Zr14	Zr	0.817000	0.817966	0.007323
Zr15	Zr	0.810803	0.833911	-0.167815
Zr16	Zr	0.649309	0.817086	0.016979
Zr17	Zr	0.650477	1.030091	-0.166587
Zr18	Zr	0.809636	0.620905	0.015751
O19	O	0.790424	0.977412	-0.030238
O20	O	0.781613	1.000084	-0.279261
O21	O	0.551989	0.976161	-0.016509
O22	O	0.916934	0.652164	0.114696
O23	O	0.908123	0.674836	-0.134327
O24	O	0.678500	0.650913	0.128426
O25	O	0.913977	0.831472	-0.141026
O26	O	0.789496	0.808101	0.115672
O27	O	0.684353	0.807550	0.121727
O28	O	0.917862	0.821475	-0.031214
O29	O	0.681088	1.123090	-0.278492
O30	O	0.779025	0.527907	0.127656
O31	O	0.912317	0.528606	0.119981
O32	O	0.907391	0.541280	-0.019230
O33	O	0.552721	1.109716	-0.131605
O34	O	0.686013	1.110416	-0.139281
O35	O	0.770193	0.722303	0.049194
O36	O	0.845761	0.730176	-0.037276
O37	O	0.771286	0.921644	-0.122597
O38	O	0.695719	0.913772	-0.036127
C39	C	0.720845	0.579006	-0.064876
C40	C	0.717719	0.495348	-0.061298
C41	C	0.712007	0.342184	-0.054764
C42	C	0.748104	0.308808	-0.096070
C43	C	0.744926	0.223582	-0.092434
C44	C	0.715184	0.427417	-0.058398
C45	C	0.520301	0.824398	-0.063340
C46	C	0.449112	0.824024	-0.059241
C47	C	0.413526	0.829360	-0.117813
C48	C	0.346639	0.829003	-0.113958
C49	C	0.315335	0.823319	-0.051532
C50	C	0.350926	0.817979	0.007046
C51	C	0.417816	0.818328	0.003193
C52	C	0.113482	0.821982	-0.036869
C53	C	0.046587	0.821637	-0.033023
C54	C	0.042304	0.832658	-0.154026
C55	C	0.109192	0.833013	-0.157876
C56	C	0.144780	0.827669	-0.099295
C57	C	0.246964	0.822957	-0.047591
C58	C	0.213153	0.828022	-0.103233
C59	C	0.939812	0.826599	-0.087496
C60	C	1.011001	0.826972	-0.091595
C61	C	0.722305	0.845443	-0.294489
C62	C	0.719675	0.852212	-0.368839
C63	C	0.739268	1.071991	-0.085960
C64	C	0.742394	1.155648	-0.089538
C65	C	0.702801	0.895546	-0.791600
C66	C	0.705278	0.889177	-0.721736
C67	C	0.745397	0.786046	-0.642270
C68	C	0.783035	0.689278	-0.632668
C69	C	0.780553	0.695648	-0.702531
C70	C	0.754831	0.761813	-0.429100
C71	C	0.757312	0.755451	-0.359236
C72	C	0.679553	0.955351	-0.448309
C73	C	0.677079	0.961711	-0.518169
C74	C	0.714713	0.864943	-0.508561
C75	C	0.747931	0.779534	-0.570857
C76	C	0.712174	0.871457	-0.579974
C77	C	0.737807	0.805554	0.143653
C78	C	0.740438	0.798785	0.218003
C79	C	0.930600	0.580106	-0.076954
C80	C	0.998663	0.496823	-0.077475
C81	C	0.728596	0.559061	0.154195
C82	C	0.728100	0.468635	0.232124
C83	C	0.938352	0.560162	0.142117
C84	C	1.009045	0.470109	0.215947
C85	C	0.521761	1.090835	-0.292953
C86	C	0.451068	1.180888	-0.366782
C87	C	0.529512	1.070890	-0.073882
C88	C	0.461449	1.154174	-0.073361
C89	C	0.731517	1.091935	-0.305031
C90	C	0.732012	1.182362	-0.382959
C91	C	0.988154	0.461392	-0.118146
C92	C	1.052099	0.383150	-0.118652
C93	C	1.126554	0.340335	-0.078482
C94	C	1.137063	0.375773	-0.037809
C95	C	1.073118	0.454019	-0.037308
C96	C	0.770340	0.422489	0.309146
C97	C	0.769872	0.337535	0.382375
C98	C	0.727168	0.298722	0.378579
C99	C	0.684923	0.344875	0.301548
C100	C	0.685387	0.429834	0.228321
C101	C	1.081696	0.431929	0.205481
C102	C	1.148127	0.347326	0.274844
C103	C	1.141905	0.300900	0.354672
C104	C	1.069246	0.339088	0.365136
C105	C	1.002817	0.423694	0.295774
C106	C	0.378417	1.219077	-0.356317
C107	C	0.311987	1.303704	-0.425681
C108	C	0.318210	1.350135	-0.505509
C109	C	0.390868	1.311942	-0.515973
C110	C	0.457296	1.227322	-0.446610
C111	C	0.471959	1.189614	-0.032697
C112	C	0.408014	1.267879	-0.032211
C113	C	0.333559	1.310697	-0.072385
C114	C	0.323050	1.275255	-0.113054
C115	C	0.386995	1.196997	-0.113544
C116	C	0.774724	1.221148	-0.379136
C117	C	0.775205	1.306102	-0.452352
C118	C	0.732969	1.352274	-0.529390
C119	C	0.690255	1.313480	-0.533211
C120	C	0.689780	1.228522	-0.459996
H121	H	0.439006	0.833995	-0.168650
H122	H	0.416585	1.296722	0.000909
H123	H	0.252832	1.334787	-0.417145
H124	H	0.650155	0.313261	0.298469
H125	H	0.809118	1.183567	-0.316415
C126	C	0.375421	1.158009	-0.158269
N127	N	0.366698	1.128646	-0.191957
H128	H	0.264113	1.419037	-0.561982
H129	H	0.644411	1.045692	-0.582871
H130	H	0.532578	1.154756	0.000022
H131	H	0.281497	1.374419	-0.071979
H132	H	0.317665	0.833346	-0.161651
H133	H	1.207282	0.316243	0.266309
H134	H	0.262421	1.310129	-0.145762
H135	H	0.781395	0.344241	-0.134164
H136	H	0.373336	1.181278	-0.291322
C137	C	0.822191	1.348764	-0.448130
N138	N	0.857580	1.380895	-0.444948
C139	C	0.642778	1.185882	-0.464215
N140	N	0.607372	1.153772	-0.467399
H141	H	0.516449	1.196229	-0.455141
C142	C	0.733499	1.445732	-0.609922
N143	N	0.733900	1.516126	-0.670576
H144	H	0.678717	0.306754	-0.016673
C145	C	0.143625	0.839258	-0.226545
N146	N	0.169559	0.843962	-0.278267
H147	H	0.395925	1.349756	-0.580978
H148	H	0.670135	0.979526	-0.856301
C149	C	0.643830	1.364245	-0.617962
N150	N	0.608870	1.402473	-0.681798
H151	H	0.021102	0.817009	0.017814
C152	C	0.003157	0.838524	-0.218454
N153	N	-0.026326	0.842936	-0.266982
H154	H	0.650993	0.467395	0.165609
H155	H	0.142452	0.817633	0.010828
C156	C	1.084691	0.492973	0.007446
N157	N	1.093415	0.522307	0.041158
H158	H	1.197692	0.340902	-0.005104
C159	C	0.792228	0.666094	-0.483448
N160	N	0.825649	0.580651	-0.417614
C161	C	0.316508	0.811680	0.075736
N162	N	0.290590	0.806922	0.127479
C163	C	0.456959	0.812460	0.067627
N164	N	0.486443	0.808036	0.116163
H165	H	0.789980	0.671465	-0.294529
C166	C	0.247594	0.834263	-0.171894
N167	N	0.273540	0.838965	-0.223610
H168	H	0.805115	0.454081	0.312253
H169	H	0.221470	0.818332	0.003235
C170	C	0.663879	0.995622	-0.732306
N171	N	0.632697	1.075802	-0.740270
H172	H	0.943664	0.454769	0.304307
H173	H	0.648912	1.034134	-0.456121
C174	C	1.040523	0.344173	-0.163388
N175	N	1.031801	0.314815	-0.197081
C176	C	0.827284	0.575833	-0.545260
N177	N	0.860659	0.490385	-0.479426
H178	H	0.785478	0.683018	-0.421267
H179	H	1.064191	0.301275	0.430142
H180	H	0.811199	0.616854	-0.694707
H181	H	0.927534	0.496253	-0.150869
C182	C	0.816356	0.286770	0.467100
N183	N	0.851369	0.248535	0.530913
H184	H	0.679505	0.955425	-0.644677
C185	C	1.196888	0.254254	-0.079033
N186	N	1.249861	0.189415	-0.079448
C187	C	0.726674	0.205253	0.459138
N188	N	0.726308	0.134848	0.519819
C189	C	1.214986	0.207823	0.430965
N190	N	1.270033	0.137713	0.488427
H191	H	1.086777	0.469717	0.140487
