data_functionalizedCrystal
_audit_creation_method	'MofGen! by Chris Wilmer'
_symmetry_space_group_name_H-M	'P1'
_symmetry_Int_Tables_number	1
_symmetry_cell_setting	triclinic
loop_
_symmetry_equiv_pos_as_xyz
  x,y,z
_cell_length_a	16.992694
_cell_length_b	8.965430
_cell_length_c	16.992695
_cell_angle_alpha	89.998341
_cell_angle_beta	89.331777
_cell_angle_gamma	89.999967
loop_
_atom_site_label
_atom_site_type_symbol
_atom_site_fract_x
_atom_site_fract_y
_atom_site_fract_z
O1	O	1.050852	-0.123854	-0.166909
O2	O	1.550852	0.376146	0.333091
O3	O	0.822452	-0.123898	-0.165078
O4	O	1.322452	0.376102	0.334922
O5	O	0.935736	-0.123864	-0.051793
O6	O	1.435736	0.376136	0.448207
O7	O	0.937567	-0.123887	-0.280193
O8	O	1.437567	0.376113	0.219807
O9	O	0.935723	0.124215	-0.051804
O10	O	1.435723	0.624215	0.448196
O11	O	0.822439	0.124181	-0.165089
O12	O	1.322439	0.624181	0.334911
O13	O	1.050839	0.124225	-0.166920
O14	O	1.550839	0.624225	0.333080
Cu15	Cu	0.936637	0.146855	-0.166005
Cu16	Cu	1.436637	0.646855	0.333995
Cu17	Cu	0.936653	-0.146527	-0.165992
Cu18	Cu	1.436653	0.353473	0.334008
O19	O	0.937554	0.124191	-0.280204
O20	O	1.437554	0.624191	0.219796
C21	C	0.793085	0.000136	-0.162727
C22	C	1.293085	0.500136	0.337273
C23	C	0.705600	0.000120	-0.155699
C24	C	1.205600	0.500120	0.344301
C25	C	0.659610	0.000114	-0.223517
C26	C	1.159610	0.500114	0.276483
C27	C	0.577409	0.000135	-0.216908
C28	C	1.077409	0.500135	0.283092
C29	C	0.541201	0.000152	-0.142480
C30	C	1.041201	0.500152	0.357520
C31	C	0.587198	0.000162	-0.074657
C32	C	1.087198	0.500162	0.425343
C33	C	0.669397	0.000151	-0.081267
C34	C	1.169397	0.500151	0.418733
C35	C	0.295886	0.000194	-0.115086
C36	C	0.795886	0.500194	0.384914
C37	C	0.213681	0.000200	-0.108481
C38	C	0.713681	0.500200	0.391519
C39	C	0.203898	0.000177	-0.250732
C40	C	0.703898	0.500177	0.249268
C41	C	0.286099	0.000157	-0.257336
C42	C	0.786099	0.500157	0.242664
C43	C	0.332089	0.000175	-0.189512
C44	C	0.832089	0.500175	0.310488
N45	N	0.457178	0.000169	-0.135723
N46	N	0.957178	0.500169	0.364277
N47	N	0.416110	0.000169	-0.196270
N48	N	0.916110	0.500169	0.303730
N49	N	0.936632	0.353204	-0.166014
N50	N	1.436632	0.853204	0.333986
C51	C	0.884222	0.450494	-0.218386
C52	C	1.384222	0.950494	0.281614
C53	C	0.956312	0.549920	-0.238120
C54	C	1.456312	1.049920	0.261880
C55	C	0.864568	0.549906	-0.146293
C56	C	1.364568	1.049906	0.353707
C57	C	1.008760	0.450441	-0.185785
C58	C	1.508760	0.950441	0.314215
C59	C	0.916967	0.450417	-0.093925
C60	C	1.416967	0.950417	0.406075
C61	C	0.989107	0.549798	-0.113631
C62	C	1.489107	1.049798	0.386369
C63	C	1.080205	0.000188	-0.169270
C64	C	1.580205	0.500188	0.330730
C65	C	1.167690	0.000195	-0.176299
C66	C	1.667690	0.500195	0.323701
N67	N	0.936650	0.647124	-0.165991
N68	N	1.436650	1.147124	0.334009
C69	C	0.933374	0.000175	-0.022439
C70	C	1.433374	0.500175	0.477561
C71	C	0.926345	0.000173	0.065046
C72	C	1.426345	0.500173	0.565046
C73	C	0.939917	0.000149	-0.309559
C74	C	1.439917	0.500149	0.190441
C75	C	0.946945	0.000141	-0.397044
C76	C	1.446945	0.500141	0.102956
C77	C	0.994163	0.000188	0.111037
C78	C	1.494163	0.500188	0.611037
C79	C	0.987554	0.000172	0.193238
C80	C	1.487554	0.500172	0.693238
C81	C	0.913127	0.000153	0.229446
C82	C	1.413127	0.500153	0.729446
C83	C	0.845303	0.000134	0.183449
C84	C	1.345303	0.500134	0.683449
C85	C	0.851913	0.000138	0.101250
C86	C	1.351913	0.500138	0.601250
C87	C	0.885732	0.000127	0.474760
C88	C	1.385732	0.500127	0.974760
C89	C	0.879127	0.000127	0.556966
C90	C	1.379127	0.500127	1.056966
C91	C	1.021379	0.000162	0.566749
C92	C	1.521379	0.500162	1.066749
C93	C	1.027982	0.000176	0.484547
C94	C	1.527982	0.500176	0.984547
C95	C	0.960159	0.000149	0.438558
C96	C	1.460159	0.500149	0.938558
N97	N	0.906369	0.000142	0.313468
N98	N	1.406369	0.500142	0.813468
N99	N	0.966917	0.000150	0.354537
N100	N	1.466917	0.500150	0.854537
H101	H	0.689084	0.000100	-0.284124
H102	H	1.189084	0.500100	0.215876
H103	H	0.839948	0.406892	-0.262720
H104	H	1.339948	0.906892	0.237280
F105	F	1.107198	0.000159	0.446018
F106	F	1.607198	0.500159	0.946018
F107	F	0.978070	0.607048	-0.317791
F108	F	1.478070	1.107048	0.182209
H109	H	0.166444	0.000165	-0.305950
H110	H	0.666444	0.500165	0.194050
H111	H	0.184203	0.000212	-0.047870
H112	H	0.684203	0.500212	0.452130
H113	H	1.069728	0.406933	-0.202528
H114	H	1.569728	0.906933	0.297472
H115	H	0.315574	0.000126	-0.317942
H116	H	0.815574	0.500126	0.182058
H117	H	0.706842	0.000155	-0.026042
H118	H	1.206842	0.500155	0.473958
F119	F	0.548660	0.000189	0.004555
F120	F	1.048660	0.500189	0.504555
H121	H	1.033487	0.593127	-0.069332
H122	H	1.533487	1.093127	0.430668
F123	F	0.784902	0.607016	-0.124503
F124	F	1.284902	1.107016	0.375497
F125	F	0.813548	0.000095	0.425825
F126	F	1.313548	0.500095	0.925825
H127	H	0.333322	0.000210	-0.059859
H128	H	0.833322	0.500210	0.440141
H129	H	0.900301	0.406677	-0.032987
H130	H	1.400301	0.906677	0.467013
H131	H	1.054770	0.000212	0.081563
H132	H	1.554770	0.500212	0.581563
F133	F	1.059736	0.000190	0.242181
F134	F	1.559736	0.500190	0.742181
H135	H	1.076596	0.000181	0.604202
H136	H	1.576596	0.500181	1.104202
H137	H	0.818516	0.000135	0.586443
H138	H	1.318516	0.500135	1.086443
F139	F	0.766091	0.000096	0.221987
F140	F	1.266091	0.500096	0.721987
H141	H	0.539966	0.000129	-0.272133
H142	H	1.039966	0.500129	0.227867
F143	F	0.779732	0.000118	0.052303
F144	F	1.279732	0.500118	0.552303
