data_functionalizedCrystal
_audit_creation_method	'MofGen! by Chris Wilmer'
_symmetry_space_group_name_H-M	'P1'
_symmetry_Int_Tables_number	1
_symmetry_cell_setting	triclinic
loop_
_symmetry_equiv_pos_as_xyz
  x,y,z
_cell_length_a	16.959455
_cell_length_b	18.050589
_cell_length_c	18.050582
_cell_angle_alpha	89.981795
_cell_angle_beta	89.986214
_cell_angle_gamma	90.025168
loop_
_atom_site_label
_atom_site_type_symbol
_atom_site_fract_x
_atom_site_fract_y
_atom_site_fract_z
Zn1	Zn	1.208335	-0.295767	-0.419913
Zn2	Zn	1.208240	-0.419950	-0.295732
Zn3	Zn	1.076164	-0.295772	-0.295739
Zn4	Zn	1.076109	-0.419913	-0.419883
O5	O	1.142212	-0.357851	-0.357817
O6	O	1.318933	-0.312254	-0.403449
O7	O	1.190703	-0.403496	-0.191808
O8	O	1.093760	-0.191847	-0.312226
O9	O	1.318863	-0.403491	-0.312214
O10	O	1.190865	-0.191843	-0.403456
O11	O	1.093668	-0.312262	-0.191814
O12	O	0.965546	-0.312226	-0.312198
O13	O	1.093666	-0.403427	-0.523812
O14	O	0.965506	-0.403432	-0.403406
O15	O	1.190811	-0.312218	-0.523833
O16	O	1.190649	-0.523870	-0.312186
O17	O	1.093574	-0.523843	-0.403399
C18	C	0.936846	-0.357826	-0.357800
C19	C	0.848989	-0.357834	-0.357810
C20	C	0.477510	-0.310321	-0.310424
C21	C	0.477517	-0.405442	-0.405252
C22	C	0.560063	-0.405431	-0.405247
C23	C	0.601336	-0.357865	-0.357830
C24	C	0.560064	-0.310310	-0.310416
C25	C	0.601341	-0.452990	-0.452655
C26	C	0.683892	-0.452982	-0.452651
C27	C	0.725167	-0.405412	-0.405237
C28	C	0.683890	-0.357855	-0.357822
C29	C	0.725163	-0.310289	-0.310404
C30	C	0.683887	-0.262727	-0.262993
C31	C	0.601339	-0.262740	-0.263002
C32	C	0.807716	-0.405399	-0.405228
C33	C	0.807717	-0.310279	-0.310397
C34	C	1.142117	-0.550803	-0.357804
C35	C	1.142148	-0.633349	-0.357824
C36	C	1.089410	-0.832811	-0.407408
C37	C	1.070148	-0.882244	-0.339641
C38	C	1.142226	-0.784479	-0.357834
C39	C	1.161527	-0.882128	-0.425608
C40	C	1.142299	-0.930464	-0.357849
C41	C	1.122926	-0.832825	-0.290031
C42	C	1.214338	-0.832704	-0.376043
C43	C	1.195103	-0.882114	-0.308230
C44	C	1.142181	-0.700381	-0.357826
C45	C	1.142344	-1.014561	-0.357849
C46	C	1.348380	-0.357876	-0.357834
C47	C	1.436237	-0.357887	-0.357842
C48	C	1.142243	-0.357818	-0.551522
C49	C	1.142256	-0.357804	-0.634068
C50	C	1.142329	-0.164145	-0.357845
C51	C	1.142379	-0.081599	-0.357857
C52	C	1.089469	-0.407336	-0.833507
C53	C	1.161583	-0.425493	-0.882898
C54	C	1.142295	-0.357747	-0.785199
C55	C	1.070220	-0.339569	-0.882889
C56	C	1.142327	-0.357694	-0.931184
C57	C	1.214448	-0.375940	-0.833503
C58	C	1.123036	-0.289985	-0.833489
C59	C	1.195200	-0.308116	-0.882858
C60	C	1.142276	-0.357780	-0.701100
C61	C	1.142354	-0.357661	-1.015280
C62	C	1.142227	-0.357830	-0.164865
C63	C	1.142367	-0.357635	-0.082319
H64	H	0.567725	-0.224019	-0.224401
H65	H	0.567730	-0.491721	-0.491254
C66	C	1.028983	-0.803556	-0.463962
N67	N	0.983467	-0.781519	-0.506553
C68	C	1.100973	-0.212622	-0.804141
N69	N	1.084346	-0.154353	-0.782034
H70	H	1.106560	-0.811258	-0.232705
C71	C	0.853111	-0.257951	-0.258232
N72	N	0.887302	-0.218539	-0.218941
H73	H	1.009199	-0.904021	-0.324253
C74	C	1.183543	-0.911385	-0.503031
N75	N	1.200119	-0.933418	-0.561348
C76	C	0.729288	-0.505298	-0.504807
N77	N	0.763481	-0.544701	-0.544093
H78	H	1.239939	-0.266158	-0.904390
C79	C	0.729299	-0.210404	-0.210838
N80	N	0.763506	-0.170993	-0.171558
C81	C	1.296652	-0.803271	-0.396883
N82	N	1.358648	-0.781096	-0.412589
C83	C	0.853115	-0.457714	-0.457377
N84	N	0.887310	-0.497118	-0.496661
C85	C	0.432107	-0.258005	-0.258274
N86	N	0.397908	-0.218600	-0.218994
C87	C	1.296832	-0.396775	-0.804321
N88	N	1.358883	-0.412472	-0.782340
C89	C	0.432113	-0.457763	-0.457407
N90	N	0.397912	-0.497171	-0.496693
C91	C	1.255483	-0.911183	-0.251537
N92	N	1.300957	-0.933079	-0.208834
C93	C	0.987858	-0.318825	-0.912192
N94	N	0.925821	-0.303206	-0.934260
H95	H	1.044837	-0.449326	-0.811839
C96	C	1.183614	-0.502878	-0.912223
N97	N	1.200202	-0.561165	-0.934308
