data_functionalizedCrystal
_audit_creation_method	'MofGen! by Chris Wilmer'
_symmetry_space_group_name_H-M	'P1'
_symmetry_Int_Tables_number	1
_symmetry_cell_setting	triclinic
loop_
_symmetry_equiv_pos_as_xyz
  x,y,z
_cell_length_a	18.215407
_cell_length_b	10.686685
_cell_length_c	18.215399
_cell_angle_alpha	94.351788
_cell_angle_beta	89.983176
_cell_angle_gamma	85.640488
loop_
_atom_site_label
_atom_site_type_symbol
_atom_site_fract_x
_atom_site_fract_y
_atom_site_fract_z
Zn1	Zn	1.147585	-0.502265	-0.438637
Zn2	Zn	1.480919	-0.168931	-0.105304
Zn3	Zn	1.814252	0.164402	0.228029
Zn4	Zn	1.156968	-0.713269	-0.325032
Zn5	Zn	1.490301	-0.379935	0.008301
Zn6	Zn	1.823634	-0.046602	0.341634
Zn7	Zn	1.024527	-0.502315	-0.315587
Zn8	Zn	1.357860	-0.168981	0.017746
Zn9	Zn	1.691193	0.164352	0.351080
Zn10	Zn	1.033948	-0.713190	-0.448054
Zn11	Zn	1.367281	-0.379856	-0.114720
Zn12	Zn	1.700614	-0.046523	0.218613
O13	O	1.090757	-0.607759	-0.381828
O14	O	1.424090	-0.274426	-0.048494
O15	O	1.757424	0.058907	0.284839
O16	O	1.251815	-0.530267	-0.423580
O17	O	1.585148	-0.196934	-0.090246
O18	O	1.918481	0.136400	0.243087
O19	O	1.139383	-0.685339	-0.220798
O20	O	1.472716	-0.352006	0.112536
O21	O	1.806049	-0.018673	0.445869
O22	O	1.032982	-0.325750	-0.324016
O23	O	1.366315	0.007583	0.009317
O24	O	1.699648	0.340916	0.342651
O25	O	1.258708	-0.685291	-0.340115
O26	O	1.592041	-0.351957	-0.006781
O27	O	1.925374	-0.018624	0.326552
O28	O	1.123392	-0.325713	-0.414421
O29	O	1.456726	0.007620	-0.081087
O30	O	1.790059	0.340953	0.252246
O31	O	1.042079	-0.530352	-0.213858
O32	O	1.375412	-0.197019	0.119475
O33	O	1.708746	0.136314	0.452809
O34	O	0.922792	-0.530276	-0.333147
O35	O	1.256125	-0.196942	0.000187
O36	O	1.589458	0.136391	0.333520
O37	O	1.049038	-0.685156	-0.549787
O38	O	1.382371	-0.351823	-0.216453
O39	O	1.715705	-0.018489	0.116880
O40	O	0.929713	-0.685205	-0.430470
O41	O	1.263046	-0.351871	-0.097136
O42	O	1.596380	-0.018538	0.236197
O43	O	1.132527	-0.530190	-0.542868
O44	O	1.465861	-0.196857	-0.209535
O45	O	1.799194	0.136476	0.123798
O46	O	1.148518	-0.889816	-0.349245
O47	O	1.481851	-0.556483	-0.015912
O48	O	1.815184	-0.223149	0.317421
O49	O	1.058136	-0.889758	-0.439629
O50	O	1.391469	-0.556425	-0.106295
O51	O	1.724802	-0.223091	0.227038
C52	C	0.899550	-0.607738	-0.381806
C53	C	1.232883	-0.274405	-0.048472
C54	C	1.566216	0.058929	0.284861
C55	C	0.817752	-0.607759	-0.381815
C56	C	1.151085	-0.274426	-0.048482
C57	C	1.484418	0.058908	0.284852
C58	C	1.105387	-0.935566	-0.396500
C59	C	1.438720	-0.602233	-0.063166
C60	C	1.772054	-0.268900	0.270167
C61	C	1.111713	-1.075804	-0.402801
C62	C	1.445047	-0.742470	-0.069468
C63	C	1.778380	-0.409137	0.263866
C64	C	0.633187	-0.688557	-0.432438
C65	C	0.966520	-0.355224	-0.099104
C66	C	1.299853	-0.021891	0.234229
C67	C	0.556328	-0.688561	-0.432447
C68	C	0.889661	-0.355228	-0.099114
C69	C	1.222995	-0.021895	0.234220
C70	C	0.549080	-0.526984	-0.331235
C71	C	0.882413	-0.193651	0.002099
C72	C	1.215747	0.139682	0.335432
C73	C	0.625937	-0.526975	-0.331229
C74	C	0.959270	-0.193642	0.002104
C75	C	1.292604	0.139692	0.335437
C76	C	0.667989	-0.607769	-0.381830
C77	C	1.001322	-0.274435	-0.048497
C78	C	1.334655	0.058898	0.284837
C79	C	0.514273	-0.607782	-0.381845
C80	C	0.847606	-0.274449	-0.048511
C81	C	1.180940	0.058885	0.284822
C82	C	0.430940	-0.607786	-0.381855
C83	C	0.764273	-0.274452	-0.048521
C84	C	1.097606	0.058881	0.284812
C85	C	0.751327	-0.607764	-0.381821
C86	C	1.084661	-0.274430	-0.048488
C87	C	1.417994	0.058903	0.284845
C88	C	1.282711	-0.607782	-0.381850
C89	C	1.616044	-0.274449	-0.048517
C90	C	1.949377	0.058885	0.284816
C91	C	1.364510	-0.607792	-0.381860
C92	C	1.697843	-0.274458	-0.048527
C93	C	2.031177	0.058875	0.284807
C94	C	1.090787	-0.607659	-0.573776
C95	C	1.424120	-0.274325	-0.240443
C96	C	1.757454	0.059008	0.092891
C97	C	1.090800	-0.607616	-0.655573
C98	C	1.424133	-0.274282	-0.322240
C99	C	1.757467	0.059051	0.011094
C100	C	1.076090	-0.278672	-0.367114
C101	C	1.409423	0.054661	-0.033781
C102	C	1.742756	0.387994	0.299552
C103	C	1.069839	-0.138435	-0.360844
C104	C	1.403173	0.194898	-0.027511
C105	C	1.736506	0.528232	0.305822
C106	C	1.040171	-0.526860	-0.840152
C107	C	1.373505	-0.193526	-0.506819
C108	C	1.706838	0.139807	-0.173486
C109	C	1.040183	-0.526834	-0.917010
C110	C	1.373516	-0.193501	-0.583677
C111	C	1.706850	0.139833	-0.250343
C112	C	1.141510	-0.688221	-0.924225
C113	C	1.474843	-0.354888	-0.590892
C114	C	1.808177	-0.021555	-0.257559
C115	C	1.141494	-0.688252	-0.847369
C116	C	1.474828	-0.354919	-0.514036
C117	C	1.808161	-0.021586	-0.180703
C118	C	1.090826	-0.607564	-0.805334
C119	C	1.424159	-0.274231	-0.472001
C120	C	1.757492	0.059103	-0.138668
C121	C	1.090853	-0.607508	-0.959048
C122	C	1.424186	-0.274175	-0.625715
C123	C	1.757520	0.059159	-0.292381
C124	C	1.090866	-0.607481	-1.042381
C125	C	1.424199	-0.274148	-0.709047
C126	C	1.757533	0.059186	-0.375714
C127	C	1.090812	-0.607592	-0.721997
C128	C	1.424145	-0.274259	-0.388663
C129	C	1.757478	0.059074	-0.055330
C130	C	1.090765	-0.607769	-0.190622
C131	C	1.424098	-0.274435	0.142712
C132	C	1.757432	0.058898	0.476045
C133	C	1.090879	-0.607456	-0.108809
C134	C	1.424212	-0.274123	0.224524
C135	C	1.757545	0.059210	0.557857
H136	H	0.667423	-0.754342	-0.473642
H137	H	1.000756	-0.421008	-0.140308
H138	H	1.334090	-0.087675	0.193025
H139	H	0.654273	-0.461179	-0.290018
H140	H	0.987606	-0.127846	0.043315
H141	H	1.320939	0.205487	0.376648
F142	F	0.986262	-0.440951	-0.954063
F143	F	1.319595	-0.107617	-0.620729
F144	F	1.652929	0.225716	-0.287396
F145	F	0.519293	-0.774545	-0.486312
F146	F	0.852626	-0.441212	-0.152978
F147	F	1.185959	-0.107879	0.180355
F148	F	0.986244	-0.440988	-0.795418
F149	F	1.319577	-0.107654	-0.462085
F150	F	1.652910	0.225679	-0.128752
H151	H	0.514832	-0.461207	-0.290037
H152	H	0.848166	-0.127874	0.043297
H153	H	1.181499	0.205460	0.376630
F154	F	1.164902	-1.145944	-0.456046
F155	F	1.498235	-0.812611	-0.122713
F156	F	1.831569	-0.479277	0.210620
F157	F	1.016655	-1.068289	-0.307589
F158	F	1.349988	-0.734956	0.025745
F159	F	1.683322	-0.401622	0.359078
F160	F	1.195433	-0.774089	-0.968968
F161	F	1.528766	-0.440755	-0.635635
F162	F	1.862100	-0.107422	-0.302301
F163	F	1.195408	-0.774158	-0.810312
F164	F	1.528742	-0.440825	-0.476978
F165	F	1.862075	-0.107492	-0.143645
