data_functionalizedCrystal
_audit_creation_method	'MofGen! by Chris Wilmer'
_symmetry_space_group_name_H-M	'P1'
_symmetry_Int_Tables_number	1
_symmetry_cell_setting	triclinic
loop_
_symmetry_equiv_pos_as_xyz
  x,y,z
_cell_length_a	19.805407
_cell_length_b	16.959454
_cell_length_c	19.805399
_cell_angle_alpha	89.977613
_cell_angle_beta	89.980427
_cell_angle_gamma	90.020075
loop_
_atom_site_label
_atom_site_type_symbol
_atom_site_fract_x
_atom_site_fract_y
_atom_site_fract_z
Zn1	Zn	1.034765	-0.314700	-0.382744
Zn2	Zn	1.534765	0.185300	0.117256
Zn3	Zn	1.034693	-0.446882	-0.269566
Zn4	Zn	1.534693	0.053118	0.230434
Zn5	Zn	0.921580	-0.314722	-0.269569
Zn6	Zn	1.421580	0.185278	0.230431
Zn7	Zn	0.921556	-0.446840	-0.382713
Zn8	Zn	1.421556	0.053160	0.117287
O9	O	0.978149	-0.380786	-0.326148
O10	O	1.478149	0.119214	0.173852
O11	O	1.129472	-0.332243	-0.367743
O12	O	1.629472	0.167757	0.132257
O13	O	1.019668	-0.429378	-0.174850
O14	O	1.519668	0.070622	0.325150
O15	O	0.936635	-0.204108	-0.284596
O16	O	1.436635	0.295892	0.215404
O17	O	1.129419	-0.429356	-0.284591
O18	O	1.629419	0.070644	0.215409
O19	O	1.019792	-0.204092	-0.367745
O20	O	1.519792	0.295908	0.132255
O21	O	0.936564	-0.332280	-0.174852
O22	O	1.436564	0.167720	0.325148
O23	O	0.826860	-0.332239	-0.284565
O24	O	1.326860	0.167761	0.215435
O25	O	0.936594	-0.429285	-0.477434
O26	O	1.436594	0.070715	0.022566
O27	O	0.826843	-0.429306	-0.367692
O28	O	1.326843	0.070694	0.132308
O29	O	1.019768	-0.332202	-0.477457
O30	O	1.519768	0.167798	0.022543
O31	O	1.019645	-0.557488	-0.284561
O32	O	1.519645	-0.057488	0.215439
O33	O	0.936524	-0.557457	-0.367690
O34	O	1.436524	-0.057457	0.132310
C35	C	0.802293	-0.380771	-0.326126
C36	C	1.302293	0.119229	0.173874
C37	C	0.727061	-0.380783	-0.326133
C38	C	1.227061	0.119217	0.173867
C39	C	0.691725	-0.431402	-0.369347
C40	C	1.191725	0.068598	0.130653
C41	C	0.621037	-0.431404	-0.369356
C42	C	1.121037	0.068596	0.130644
C43	C	0.585685	-0.380790	-0.326148
C44	C	1.085685	0.119210	0.173852
C45	C	0.621026	-0.330165	-0.282932
C46	C	1.121026	0.169835	0.217068
C47	C	0.691713	-0.330160	-0.282926
C48	C	1.191713	0.169840	0.217074
C49	C	0.335952	-0.330183	-0.282954
C50	C	0.835952	0.169817	0.217046
C51	C	0.265260	-0.330193	-0.282962
C52	C	0.765260	0.169807	0.217038
C53	C	0.265276	-0.431426	-0.369384
C54	C	0.765276	0.068574	0.130616
C55	C	0.335963	-0.431421	-0.369379
C56	C	0.835963	0.068579	0.130621
C57	C	0.371298	-0.380794	-0.326166
C58	C	0.871298	0.119206	0.173834
C59	C	0.447946	-0.380792	-0.326157
C60	C	0.947946	0.119208	0.173843
C61	C	0.509038	-0.380795	-0.326153
C62	C	1.009038	0.119205	0.173847
C63	C	0.978092	-0.586152	-0.326136
C64	C	1.478092	-0.086152	0.173864
C65	C	0.978130	-0.674009	-0.326154
C66	C	1.478130	-0.174009	0.173846
C67	C	0.934930	-1.045498	-0.369428
C68	C	1.434930	-0.545498	0.130572
C69	C	1.021555	-1.045470	-0.282937
C70	C	1.521555	-0.545470	0.217063
C71	C	1.021532	-0.962925	-0.282930
C72	C	1.521532	-0.462925	0.217070
C73	C	0.978206	-0.921662	-0.326173
C74	C	1.478206	-0.421662	0.173827
C75	C	0.934904	-0.962945	-0.369422
C76	C	1.434904	-0.462945	0.130578
C77	C	1.064828	-0.921635	-0.239677
C78	C	1.564828	-0.421635	0.260323
C79	C	1.064806	-0.839085	-0.239669
C80	C	1.564806	-0.339085	0.260331
C81	C	1.021483	-0.797820	-0.282915
C82	C	1.521483	-0.297820	0.217085
C83	C	0.978180	-0.839108	-0.326167
C84	C	1.478180	-0.339108	0.173833
C85	C	0.934854	-0.797845	-0.369409
C86	C	1.434854	-0.297845	0.130591
C87	C	0.891553	-0.839132	-0.412665
C88	C	1.391553	-0.339132	0.087335
C89	C	0.891581	-0.921680	-0.412669
C90	C	1.391581	-0.421680	0.087331
C91	C	1.021455	-0.715272	-0.282911
C92	C	1.521455	-0.215272	0.217089
C93	C	0.934827	-0.715292	-0.369403
C94	C	1.434827	-0.215292	0.130597
C95	C	1.154691	-0.380802	-0.326170
C96	C	1.654691	0.119198	0.173830
C97	C	1.229923	-0.380808	-0.326180
C98	C	1.729923	0.119192	0.173820
C99	C	0.978187	-0.380736	-0.502691
C100	C	1.478187	0.119264	-0.002691
C101	C	0.978203	-0.380715	-0.577923
C102	C	1.478203	0.119285	-0.077923
C103	C	0.978224	-0.174618	-0.326174
C104	C	1.478224	0.325382	0.173826
C105	C	0.978256	-0.086761	-0.326186
C106	C	1.478256	0.413239	0.173814
C107	C	1.021513	-0.330161	-0.613280
C108	C	1.521513	0.169839	-0.113280
C109	C	1.021520	-0.330138	-0.683968
C110	C	1.521520	0.169862	-0.183968
C111	C	0.978220	-0.380674	-0.719298
C112	C	1.478220	0.119326	-0.219298
C113	C	0.934905	-0.431230	-0.683936
C114	C	1.434905	0.068770	-0.183936
C115	C	0.934895	-0.431248	-0.613249
C116	C	1.434895	0.068752	-0.113249
C117	C	0.934943	-0.431156	-0.969010
C118	C	1.434943	0.068844	-0.469010
C119	C	0.934958	-0.431135	-1.039702
C120	C	1.434958	0.068865	-0.539702
C121	C	1.021568	-0.330046	-1.039729
C122	C	1.521568	0.169954	-0.539729
C123	C	1.021558	-0.330065	-0.969042
C124	C	1.521558	0.169935	-0.469042
C125	C	0.978241	-0.380617	-0.933686
C126	C	1.478241	0.119383	-0.433686
C127	C	0.978233	-0.380641	-0.857037
C128	C	1.478233	0.119359	-0.357037
C129	C	0.978230	-0.380655	-0.795946
C130	C	1.478230	0.119345	-0.295946
C131	C	0.978150	-0.380779	-0.150292
C132	C	1.478150	0.119221	0.349708
C133	C	0.978265	-0.380577	-0.075060
C134	C	1.478265	0.119423	0.424940
H135	H	0.364743	-0.472639	-0.404561
H136	H	0.864743	0.027361	0.095439
C137	C	1.054585	-1.070882	-0.168352
C138	C	1.554585	-0.570882	0.331648
C139	C	1.069174	-1.090807	-0.235390
C140	C	1.569174	-0.590807	0.264610
H141	H	1.083982	-1.098872	-0.138995
H142	H	1.583982	-0.598872	0.361005
H143	H	1.060762	-1.015814	-0.162178
H144	H	1.560762	-0.515814	0.337822
H145	H	1.009116	-1.084461	-0.158417
H146	H	1.509116	-0.584461	0.341583
H147	H	1.114642	-1.077222	-0.245328
H148	H	1.614642	-0.577222	0.254672
H149	H	1.063002	-1.145887	-0.241568
H150	H	1.563002	-0.645887	0.258432
H151	H	0.592269	-0.472623	-0.404545
H152	H	1.092269	0.027377	0.095455
H153	H	1.056707	-0.681660	-0.247691
H154	H	1.556707	-0.181660	0.252309
H155	H	1.100064	-0.805474	-0.204449
H156	H	1.600064	-0.305474	0.295551
H157	H	1.056819	-0.288916	-0.940280
H158	H	1.556819	0.211084	-0.440280
C159	C	0.684633	-0.531463	-0.454781
C160	C	1.184633	-0.031463	0.045219
C161	C	0.730580	-0.487037	-0.416846
C162	C	1.230580	0.012963	0.083154
H163	H	0.708621	-0.565805	-0.484109
H164	H	1.208621	-0.065805	0.015891
H165	H	0.657045	-0.561655	-0.425250
H166	H	1.157045	-0.061655	0.074750
H167	H	0.657080	-0.497055	-0.480719
H168	H	1.157080	0.002945	0.019281
H169	H	0.758130	-0.521445	-0.390903
H170	H	1.258130	-0.021445	0.109097
H171	H	0.758179	-0.456843	-0.446381
H172	H	1.258179	0.043157	0.053619
H173	H	0.236479	-0.288972	-0.247776
H174	H	0.736479	0.211028	0.252224
H175	H	0.899647	-0.472373	-0.712708
H176	H	1.399647	0.027627	-0.212708
C177	C	0.328826	-0.230116	-0.197530
C178	C	0.828826	0.269884	0.302470
C179	C	0.374786	-0.274535	-0.235454
C180	C	0.874786	0.225465	0.264546
H181	H	0.352804	-0.195763	-0.168203
H182	H	0.852804	0.304237	0.331797
H183	H	0.301274	-0.199936	-0.227068
H184	H	0.801274	0.300064	0.272932
H185	H	0.301238	-0.264527	-0.171591
H186	H	0.801238	0.235473	0.328409
H187	H	0.402371	-0.240125	-0.261398
H188	H	0.902371	0.259875	0.238602
H189	H	0.402349	-0.304718	-0.205913
H190	H	0.902349	0.195282	0.294087
H191	H	0.592237	-0.288951	-0.247754
H192	H	1.092237	0.211049	0.252246
C193	C	0.882148	-1.014482	-0.503703
C194	C	1.382148	-0.514482	-0.003703
C195	C	0.843984	-0.967067	-0.460205
C196	C	1.343984	-0.467067	0.039795
H197	H	0.852762	-1.042508	-0.533044
H198	H	1.352762	-0.542508	-0.033044
H199	H	0.911603	-0.982242	-0.529623
H200	H	1.411603	-0.482242	-0.029623
H201	H	0.907954	-1.050863	-0.477940
H202	H	1.407954	-0.550863	0.022060
H203	H	0.818182	-0.930683	-0.485967
H204	H	1.318182	-0.430683	0.014033
H205	H	0.814517	-0.999310	-0.434282
H206	H	1.314517	-0.499310	0.065718
C207	C	0.156924	-0.476385	-0.407782
C208	C	0.656924	0.023615	0.092218
C209	C	0.226434	-0.487069	-0.416894
C210	C	0.726434	0.012931	0.083106
H211	H	0.132948	-0.510734	-0.437114
H212	H	0.632948	-0.010734	0.062886
H213	H	0.145319	-0.487885	-0.362295
H214	H	0.645319	0.012115	0.137705
H215	H	0.145365	-0.423290	-0.417769
H216	H	0.645365	0.076710	0.082231
H217	H	0.237995	-0.540163	-0.406901
H218	H	0.737995	-0.040163	0.093099
H219	H	0.238045	-0.475575	-0.462391
H220	H	0.738045	0.024425	0.037609
H221	H	0.856274	-0.805526	-0.447870
H222	H	1.356274	-0.305526	0.052130
C223	C	1.179451	-0.947063	-0.206774
C224	C	1.679451	-0.447063	0.293226
C225	C	1.112416	-0.967033	-0.192143
C226	C	1.612416	-0.467033	0.307857
H227	H	1.208820	-0.975103	-0.177424
H228	H	1.708820	-0.475103	0.322576
H229	H	1.189341	-0.960545	-0.252257
H230	H	1.689341	-0.460545	0.247743
H231	H	1.185656	-0.891999	-0.200554
H232	H	1.685656	-0.391999	0.299446
H233	H	1.106211	-1.022097	-0.198369
H234	H	1.606211	-0.522097	0.301631
H235	H	1.102523	-0.953557	-0.146649
H236	H	1.602523	-0.453557	0.353351
C237	C	0.925502	-1.138284	-0.460475
C238	C	1.425502	-0.638284	0.039525
C239	C	0.887336	-1.090878	-0.416971
C240	C	1.387336	-0.590878	0.083029
H241	H	0.896118	-1.166303	-0.489822
H242	H	1.396118	-0.666303	0.010178
H243	H	0.954959	-1.106038	-0.486387
H244	H	1.454959	-0.606038	0.013613
H245	H	0.951307	-1.174670	-0.434716
H246	H	1.451307	-0.674670	0.065284
H247	H	0.861535	-1.054488	-0.442730
H248	H	1.361535	-0.554488	0.057270
H249	H	0.857867	-1.123127	-0.391056
H250	H	1.357867	-0.623127	0.108944
H251	H	0.720482	-0.288937	-0.247741
H252	H	1.220482	0.211063	0.252259
H253	H	0.899682	-0.472330	-0.940231
H254	H	1.399682	0.027670	-0.440231
H255	H	0.899549	-0.681701	-0.404619
H256	H	1.399549	-0.181701	0.095381
H257	H	1.056775	-0.289012	-0.584519
H258	H	1.556775	0.210988	-0.084519
C259	C	1.107141	-0.230229	-0.676895
C260	C	1.607141	0.269771	-0.176895
C261	C	1.069132	-0.274574	-0.722833
C262	C	1.569132	0.225426	-0.222833
H263	H	1.136539	-0.195928	-0.700890
H264	H	1.636539	0.304072	-0.200890
H265	H	1.077661	-0.199996	-0.649324
H266	H	1.577661	0.300004	-0.149324
H267	H	1.133010	-0.264690	-0.649324
H268	H	1.633010	0.235310	-0.149324
H269	H	1.043259	-0.240112	-0.750401
H270	H	1.543259	0.259888	-0.250401
H271	H	1.098616	-0.304808	-0.750415
H272	H	1.598616	0.195192	-0.250415
C273	C	1.060040	-0.285113	-1.148100
C274	C	1.560040	0.214887	-0.648100
C275	C	1.069176	-0.274467	-1.078595
C276	C	1.569176	0.225533	-0.578595
H277	H	1.089428	-0.250798	-1.172091
H278	H	1.589428	0.249202	-0.672091
H279	H	1.069929	-0.338211	-1.159679
H280	H	1.569929	0.161789	-0.659679
H281	H	1.014566	-0.273535	-1.159669
H282	H	1.514566	0.226465	-0.659669
H283	H	1.114648	-0.286050	-1.067025
H284	H	1.614648	0.213950	-0.567025
H285	H	1.059291	-0.221355	-1.067011
H286	H	1.559291	0.278645	-0.567011
C287	C	0.849327	-0.531054	-1.032579
C288	C	1.349327	-0.031054	-0.532579
C289	C	0.887353	-0.486682	-1.078538
C290	C	1.387353	0.013318	-0.578538
H291	H	0.819938	-0.565340	-1.056556
H292	H	1.319938	-0.065340	-0.556556
H293	H	0.878796	-0.561303	-1.005010
H294	H	1.378796	-0.061303	-0.505010
H295	H	0.823448	-0.496609	-1.005007
H296	H	1.323448	0.003391	-0.505007
H297	H	0.913236	-0.521127	-1.106107
H298	H	1.413236	-0.021127	-0.606107
H299	H	0.857880	-0.456430	-1.106118
H300	H	1.357880	0.043570	-0.606118
H301	H	0.899621	-0.472406	-0.584462
H302	H	1.399621	0.027594	-0.084462
