data_functionalizedCrystal
_audit_creation_method	'MofGen! by Chris Wilmer'
_symmetry_space_group_name_H-M	'P1'
_symmetry_Int_Tables_number	1
_symmetry_cell_setting	triclinic
loop_
_symmetry_equiv_pos_as_xyz
  x,y,z
_cell_length_a	23.096457
_cell_length_b	20.919309
_cell_length_c	20.919287
_cell_angle_alpha	86.850143
_cell_angle_beta	58.213637
_cell_angle_gamma	57.443977
loop_
_atom_site_label
_atom_site_type_symbol
_atom_site_fract_x
_atom_site_fract_y
_atom_site_fract_z
Zr1	Zr	0.642366	-0.122501	0.611995
O2	O	0.770220	-0.222778	0.505863
O3	O	0.519414	-0.091765	0.644527
O4	O	0.649974	-0.230428	0.639125
O5	O	0.631950	0.025270	0.515530
O6	O	0.650399	-0.236459	0.744247
O7	O	0.639660	-0.084114	0.511266
O8	O	0.416852	0.011585	0.753911
O9	O	0.865498	-0.222773	0.505866
O10	O	0.568488	-0.083152	0.736857
O11	O	0.562417	0.002981	0.661588
O12	O	0.716134	-0.160277	0.655227
O13	O	0.710062	-0.074144	0.579958
Zr14	Zr	0.630748	0.042337	0.786454
Zr15	Zr	0.643045	-0.132119	0.779652
Zr16	Zr	0.630069	0.051955	0.618796
Zr17	Zr	0.794323	-0.122494	0.611999
Zr18	Zr	0.478791	0.042329	0.786449
O19	O	0.753700	0.011600	0.753921
O20	O	0.771185	-0.236453	0.744250
O21	O	0.752735	0.025276	0.515534
O22	O	0.502894	0.142613	0.892585
O23	O	0.520379	-0.105441	0.882915
O24	O	0.501929	0.156289	0.654198
O25	O	0.641164	-0.105435	0.882918
O26	O	0.623140	0.150264	0.759324
O27	O	0.622715	0.156294	0.654202
O28	O	0.633454	0.003950	0.887183
O29	O	0.866037	-0.230418	0.639131
O30	O	0.407077	0.150254	0.759317
O31	O	0.407616	0.142609	0.892583
O32	O	0.417391	0.003939	0.887176
O33	O	0.855723	-0.084104	0.511272
O34	O	0.856263	-0.091749	0.644537
O35	O	0.556980	0.080113	0.743222
O36	O	0.563052	-0.006020	0.818490
O37	O	0.710698	-0.083146	0.736861
O38	O	0.704626	0.002988	0.661592
C39	C	0.446482	-0.040091	0.699219
C40	C	0.381973	-0.040094	0.699217
C41	C	0.635708	-0.028051	0.489510
C42	C	0.635420	-0.023968	0.418335
C43	C	0.621175	0.178135	0.707732
C44	C	0.615955	0.252196	0.710619
C45	C	0.354841	-0.085057	0.738501
C46	C	0.294218	-0.085051	0.738509
C47	C	0.260742	-0.040092	0.699217
C48	C	0.287876	0.004881	0.659931
C49	C	0.348492	0.004880	0.659931
N50	N	0.198493	-0.042177	0.632343
N51	N	0.140912	-0.042181	0.632344
C52	C	0.078109	-0.040084	0.699216
N53	N	0.075070	-0.038000	0.766085
N54	N	0.132659	-0.038001	0.766082
C55	C	0.195014	-0.040085	0.699213
C56	C	-0.014757	-0.085043	0.738513
C57	C	-0.075385	-0.085031	0.738523
C58	C	-0.081719	0.004896	0.659938
C59	C	-0.021099	0.004889	0.659935
C60	C	0.012382	-0.040085	0.699221
C61	C	0.826632	-0.040073	0.699230
C62	C	0.891142	-0.040070	0.699232
C63	C	0.651939	-0.258300	0.690717
C64	C	0.657159	-0.332361	0.687829
C65	C	0.690570	0.246734	0.669367
C66	C	0.685660	0.316325	0.672077
C67	C	0.606134	0.391378	0.716044
C68	C	0.531513	0.396839	0.757297
C69	C	0.536424	0.327249	0.754582
C70	C	0.587450	0.603510	0.726368
C71	C	0.582544	0.673101	0.729081
C72	C	0.736692	0.592583	0.643860
C73	C	0.741596	0.522995	0.641153
C74	C	0.666975	0.528462	0.682403
C75	C	0.601113	0.462512	0.718816
C76	C	0.671997	0.457329	0.679625
C77	C	0.639535	-0.082313	0.382548
C78	C	0.639260	-0.078472	0.315674
C79	C	0.634876	-0.016290	0.284585
C80	C	0.630758	0.042060	0.320380
C81	C	0.631027	0.038222	0.387256
C82	C	0.633845	-0.001684	0.082783
C83	C	0.633579	0.002148	0.015901
C84	C	0.642079	-0.118384	0.011200
C85	C	0.642353	-0.122219	0.078075
C86	C	0.638231	-0.063867	0.113866
C87	C	0.634597	-0.012364	0.216228
C88	C	0.638503	-0.067790	0.182226
C89	C	0.637406	-0.052113	0.908938
C90	C	0.637694	-0.056196	0.980113
C91	C	0.447331	-0.052122	0.908932
C92	C	0.383109	-0.056208	0.980105
C93	C	0.431100	0.178126	0.707726
C94	C	0.361370	0.252185	0.710612
C95	C	0.431949	0.166096	0.917440
C96	C	0.362507	0.236070	0.991500
C97	C	0.841165	-0.246260	0.481009
C98	C	0.910607	-0.316235	0.406948
C99	C	0.825783	-0.028043	0.489516
C100	C	0.890005	-0.023956	0.418343
C101	C	0.842014	-0.258291	0.690722
C102	C	0.911744	-0.332349	0.687837
C103	C	0.355789	-0.098397	0.970917
C104	C	0.295455	-0.102252	1.037784
C105	C	0.262439	-0.063914	1.113840
C106	C	0.289766	-0.021724	1.123027
C107	C	0.350103	-0.017874	1.056160
C108	C	0.325786	0.327232	0.754579
C109	C	0.260275	0.396825	0.757287
C110	C	0.230346	0.391367	0.716033
C111	C	0.265937	0.316311	0.672060
C112	C	0.331450	0.246721	0.669347
C113	C	0.333066	0.223970	1.065576
C114	C	0.267827	0.289712	1.135170
C115	C	0.232026	0.367553	1.130686
C116	C	0.261473	0.379652	1.056602
C117	C	0.326715	0.313911	0.987010
C118	C	0.940056	-0.304135	0.332872
C119	C	1.005314	-0.369877	0.263278
C120	C	1.041118	-0.447718	0.267762
C121	C	1.011666	-0.459817	0.341846
C122	C	0.946414	-0.394076	0.411438
C123	C	0.917332	0.018225	0.427531
C124	C	0.977684	0.022061	0.360663
C125	C	1.010702	-0.016280	0.284607
C126	C	0.983373	-0.058466	0.275420
C127	C	0.923027	-0.062307	0.342288
C128	C	0.941652	-0.326866	0.729101
C129	C	1.007163	-0.396446	0.726405
C130	C	1.042768	-0.471507	0.682441
C131	C	1.012853	-0.476989	0.641176
C132	C	0.947340	-0.407410	0.643876
H133	H	0.382097	-0.121676	0.770492
Cl134	Cl	0.644010	-0.145957	0.221311
Cl135	Cl	0.493640	0.610391	0.778226
Cl136	Cl	0.216456	0.477516	1.050978
Cl137	Cl	0.248247	0.026473	1.218647
Cl138	Cl	0.384435	0.035174	1.067726
Cl139	Cl	0.363714	0.329137	0.893889
H140	H	0.466761	0.457953	0.793091
H141	H	1.094250	-0.501242	0.211090
H142	H	0.475664	0.331701	0.788172
H143	H	0.362206	0.160594	1.069243
H144	H	0.642610	-0.125980	0.286536
H145	H	0.999925	0.056416	0.368159
H146	H	0.631030	0.038264	0.190909
H147	H	0.922438	-0.403938	0.471752
Cl148	Cl	0.228299	0.309464	0.620203
H149	H	1.040827	-0.523203	0.345488
H150	H	0.627675	0.085733	0.416395
Cl151	Cl	0.397286	-0.146605	0.875311
Cl152	Cl	0.909757	-0.414317	0.591987
Cl153	Cl	0.261111	-0.155289	1.026217
Cl154	Cl	0.260095	-0.141573	0.787907
H155	H	0.900778	-0.096653	0.334795
H156	H	0.910907	-0.240758	0.329206
Cl157	Cl	1.086565	-0.011442	0.200552
H158	H	0.260615	0.041488	0.627940
Cl159	Cl	0.363395	0.334114	0.806451
H160	H	0.806354	0.461887	0.605352
Cl161	Cl	0.027329	-0.141574	0.787906
H162	H	-0.097479	-0.121643	0.770518
Cl163	Cl	0.215543	0.491170	0.812574
Cl164	Cl	0.875840	0.066427	0.523137
H165	H	0.213309	-0.067054	1.168281
H166	H	0.177000	0.448038	0.718248
Cl167	Cl	0.382602	0.061410	0.610541
H168	H	1.010265	-0.089682	0.213487
Cl169	Cl	1.125131	-0.558971	0.679051
H170	H	0.736746	0.396218	0.643824
H171	H	0.912672	-0.265753	0.764901
H172	H	1.031511	-0.391967	0.760007
H173	H	1.041853	-0.538114	0.605381
H174	H	-0.108976	0.041503	0.627946
Cl175	Cl	0.230817	0.274484	1.228294
H176	H	0.000995	0.041500	0.627943
H177	H	0.755329	0.185626	0.633568
H178	H	0.178902	0.421077	1.187359
Cl179	Cl	1.042321	-0.354649	0.170155
Cl180	Cl	0.376173	0.152378	0.614074
Cl181	Cl	0.647256	-0.191734	-0.033794
Cl182	Cl	0.645052	-0.160492	0.421619
H183	H	0.797443	0.588141	0.610276
Cl184	Cl	0.482561	0.767455	0.784385
Cl185	Cl	0.501140	0.556868	0.774089
Cl186	Cl	0.779466	0.309454	0.620186
H187	H	0.630010	0.052787	-0.009408
Cl188	Cl	0.647866	-0.200392	0.117157
H189	H	0.630491	0.045827	0.111918
Cl190	Cl	0.625241	0.120236	0.281302
