data_functionalizedCrystal
_audit_creation_method	'MofGen! by Chris Wilmer'
_symmetry_space_group_name_H-M	'P1'
_symmetry_Int_Tables_number	1
_symmetry_cell_setting	triclinic
loop_
_symmetry_equiv_pos_as_xyz
  x,y,z
_cell_length_a	16.974897
_cell_length_b	16.974813
_cell_length_c	14.048226
_cell_angle_alpha	86.339005
_cell_angle_beta	86.341962
_cell_angle_gamma	83.164002
loop_
_atom_site_label
_atom_site_type_symbol
_atom_site_fract_x
_atom_site_fract_y
_atom_site_fract_z
O1	O	1.049029	0.100839	-0.167657
O2	O	0.818811	0.113662	-0.150930
O3	O	0.940337	-0.007860	-0.150915
O4	O	0.927502	0.222361	-0.167672
O5	O	0.940323	-0.007867	0.007408
O6	O	0.818796	0.113655	0.007393
O7	O	1.049014	0.100831	-0.009334
Zn8	Zn	0.933903	0.107242	0.024167
Zn9	Zn	0.933922	0.107251	-0.184431
O10	O	0.927488	0.222353	-0.009349
C11	C	0.789346	0.113168	-0.069464
C12	C	0.701572	0.111699	-0.062597
C13	C	0.660336	0.111015	-0.145665
C14	C	0.577861	0.109647	-0.139199
C15	C	0.536624	0.108958	-0.049664
C16	C	0.577866	0.109645	0.033411
C17	C	0.660338	0.111018	0.026944
C18	C	0.289967	0.104855	-0.021068
C19	C	0.207489	0.103479	-0.014607
C20	C	0.207490	0.103482	-0.187219
C21	C	0.289965	0.104851	-0.193677
C22	C	0.331198	0.105542	-0.110603
N23	N	0.452322	0.107557	-0.043052
N24	N	0.415498	0.106949	-0.117216
C25	C	0.939842	-0.037322	-0.069448
C26	C	0.938377	-0.125097	-0.062576
C27	C	0.937699	-0.166326	-0.145649
C28	C	0.936317	-0.248800	-0.139189
C29	C	0.935620	-0.290044	-0.049655
C30	C	0.936296	-0.248809	0.033424
C31	C	0.937672	-0.166336	0.026964
C32	C	0.931500	-0.536702	-0.021078
C33	C	0.930126	-0.619181	-0.014624
C34	C	0.930146	-0.619165	-0.187237
C35	C	0.931527	-0.536692	-0.193690
C36	C	0.932198	-0.495463	-0.110611
N37	N	0.934211	-0.374346	-0.043050
N38	N	0.933602	-0.411162	-0.117217
C39	C	1.078479	0.101325	-0.090802
C40	C	1.166253	0.102794	-0.097676
C41	C	0.927983	0.251815	-0.090818
C42	C	0.929448	0.339590	-0.097697
N43	N	0.933895	0.107235	0.166528
N44	N	0.933936	0.107252	-0.326793
C45	C	0.987724	0.053447	0.216350
C46	C	0.987730	0.053447	0.316007
C47	C	0.933909	0.107239	0.365841
C48	C	0.880075	0.161029	0.316012
C49	C	0.880066	0.161025	0.216357
C50	C	0.880098	0.161035	0.523724
C51	C	0.880107	0.161040	0.623386
C52	C	0.987761	0.053456	0.623374
C53	C	0.987752	0.053453	0.523719
C54	C	0.933919	0.107244	0.473898
H55	H	0.693905	0.111573	-0.218575
H56	H	0.932062	-0.503146	0.046570
F57	F	0.935545	-0.292705	0.128714
F58	F	0.938446	-0.122439	-0.240944
H59	H	0.932095	-0.503116	-0.266598
F60	F	0.822822	0.218292	0.676416
F61	F	0.938393	-0.122458	0.115381
H62	H	1.031581	0.009655	0.483144
H63	H	0.836249	0.204825	0.356593
H64	H	0.935768	-0.282365	-0.206836
F65	F	1.045012	-0.003803	0.163322
H66	H	0.929598	-0.652742	-0.254876
H67	H	0.929554	-0.652759	0.058289
F68	F	1.045019	-0.003801	0.369031
H69	H	1.031594	0.009658	0.663945
F70	F	0.822798	0.218284	0.470705
F71	F	0.822772	0.218271	0.163335
H72	H	0.544290	0.109089	-0.206843
H73	H	0.323535	0.105407	-0.266587
F74	F	0.163601	0.102740	-0.275625
F75	F	0.163605	0.102732	0.080694
H76	H	0.323530	0.105412	0.046577
F77	F	0.533975	0.108918	0.128702
H78	H	0.693911	0.111579	0.094587
