data_functionalizedCrystal
_audit_creation_method	'MofGen! by Chris Wilmer'
_symmetry_space_group_name_H-M	'P1'
_symmetry_Int_Tables_number	1
_symmetry_cell_setting	triclinic
loop_
_symmetry_equiv_pos_as_xyz
  x,y,z
_cell_length_a	19.805407
_cell_length_b	19.121063
_cell_length_c	19.805399
_cell_angle_alpha	92.411105
_cell_angle_beta	89.979591
_cell_angle_gamma	92.471006
loop_
_atom_site_label
_atom_site_type_symbol
_atom_site_fract_x
_atom_site_fract_y
_atom_site_fract_z
Zn1	Zn	1.023235	-0.279595	-0.394216
Zn2	Zn	1.356569	0.053739	-0.060883
Zn3	Zn	1.689902	0.387072	0.272450
Zn4	Zn	1.018319	-0.397047	-0.285851
Zn5	Zn	1.351652	-0.063714	0.047482
Zn6	Zn	1.684986	0.269619	0.380815
Zn7	Zn	0.910049	-0.279618	-0.281040
Zn8	Zn	1.243382	0.053715	0.052293
Zn9	Zn	1.576716	0.387049	0.385626
Zn10	Zn	0.905184	-0.397014	-0.398995
Zn11	Zn	1.238517	-0.063681	-0.065662
Zn12	Zn	1.571850	0.269653	0.267672
O13	O	0.964197	-0.338318	-0.340026
O14	O	1.297530	-0.004985	-0.006692
O15	O	1.630863	0.328348	0.326641
O16	O	1.117299	-0.295179	-0.379855
O17	O	1.450633	0.038154	-0.046522
O18	O	1.783966	0.371487	0.286812
O19	O	1.003935	-0.381494	-0.190497
O20	O	1.337269	-0.048160	0.142836
O21	O	1.670602	0.285173	0.476169
O22	O	0.929157	-0.181330	-0.292040
O23	O	1.262490	0.152003	0.041293
O24	O	1.595824	0.485337	0.374627
O25	O	1.113687	-0.381471	-0.300240
O26	O	1.447021	-0.048138	0.033094
O27	O	1.780354	0.285196	0.366427
O28	O	1.012314	-0.181313	-0.375190
O29	O	1.345648	0.152020	-0.041857
O30	O	1.678981	0.485354	0.291477
O31	O	0.924390	-0.295219	-0.186963
O32	O	1.257723	0.038114	0.146371
O33	O	1.591056	0.371448	0.479704
O34	O	0.814687	-0.295187	-0.296674
O35	O	1.148020	0.038147	0.036660
O36	O	1.481354	0.371480	0.369993
O37	O	0.920865	-0.381414	-0.493077
O38	O	1.254198	-0.048081	-0.159743
O39	O	1.587531	0.285252	0.173590
O40	O	0.811113	-0.381437	-0.383334
O41	O	1.144446	-0.048104	-0.050001
O42	O	1.477779	0.285230	0.283332
O43	O	1.007597	-0.295147	-0.489566
O44	O	1.340930	0.038186	-0.156233
O45	O	1.674263	0.371520	0.177101
O46	O	0.999218	-0.495328	-0.304873
O47	O	1.332551	-0.161994	0.028460
O48	O	1.665884	0.171339	0.361793
O49	O	0.916098	-0.495303	-0.388000
O50	O	1.249431	-0.161970	-0.054666
O51	O	1.582764	0.171363	0.278667
C52	C	0.788341	-0.338311	-0.340001
C53	C	1.121674	-0.004978	-0.006668
C54	C	1.455008	0.328355	0.326666
C55	C	0.713108	-0.338325	-0.340007
C56	C	1.046442	-0.004992	-0.006674
C57	C	1.379775	0.328342	0.326660
C58	C	0.253198	-0.293470	-0.381577
C59	C	0.586532	0.039863	-0.048244
C60	C	0.919865	0.373196	0.285089
C61	C	0.323887	-0.293472	-0.381572
C62	C	0.657220	0.039862	-0.048239
C63	C	0.990553	0.373195	0.285094
C64	C	0.357347	-0.338329	-0.340048
C65	C	0.690680	-0.004996	-0.006715
C66	C	1.024013	0.328338	0.326619
C67	C	0.320114	-0.383193	-0.298531
C68	C	0.653447	-0.049860	0.034803
C69	C	0.986780	0.283473	0.368136
C70	C	0.249427	-0.383195	-0.298540
C71	C	0.582760	-0.049862	0.034794
C72	C	0.916093	0.283472	0.368127
C73	C	0.605187	-0.383188	-0.298495
C74	C	0.938521	-0.049855	0.034839
C75	C	1.271854	0.283479	0.368172
C76	C	0.675880	-0.383181	-0.298487
C77	C	1.009213	-0.049848	0.034846
C78	C	1.342546	0.283485	0.368179
C79	C	0.679648	-0.293464	-0.381528
C80	C	1.012981	0.039869	-0.048194
C81	C	1.346314	0.373202	0.285139
C82	C	0.608960	-0.293466	-0.381536
C83	C	0.942294	0.039867	-0.048203
C84	C	1.275627	0.373200	0.285130
C85	C	0.571734	-0.338333	-0.340022
C86	C	0.905067	-0.004999	-0.006689
C87	C	1.238400	0.328334	0.326645
C88	C	0.495085	-0.338332	-0.340029
C89	C	0.828419	-0.004998	-0.006695
C90	C	1.161752	0.328335	0.326638
C91	C	0.433994	-0.338327	-0.340037
C92	C	0.767327	-0.004994	-0.006704
C93	C	1.100660	0.328340	0.326629
C94	C	0.956615	-0.520800	-0.347492
C95	C	1.289948	-0.187466	-0.014158
C96	C	1.623281	0.145867	0.319175
C97	C	0.953433	-0.598866	-0.350708
C98	C	1.286766	-0.265532	-0.017375
C99	C	1.620100	0.067801	0.315958
C100	C	0.995248	-0.635531	-0.308976
C101	C	1.328581	-0.302198	0.024357
C102	C	1.661915	0.031136	0.357691
C103	C	0.992259	-0.708882	-0.312005
C104	C	1.325593	-0.375549	0.021328
C105	C	1.658926	-0.042216	0.354661
C106	C	0.947452	-0.745567	-0.356764
C107	C	1.280786	-0.412234	-0.023431
C108	C	1.614119	-0.078901	0.309903
C109	C	0.905635	-0.708897	-0.398501
C110	C	1.238969	-0.375564	-0.065168
C111	C	1.572302	-0.042231	0.268166
C112	C	0.908628	-0.635547	-0.395475
C113	C	1.241961	-0.302214	-0.062141
C114	C	1.575294	0.031120	0.271192
C115	C	0.936254	-0.967038	-0.368068
C116	C	1.269587	-0.633705	-0.034735
C117	C	1.602921	-0.300371	0.298599
C118	C	0.933263	-1.040393	-0.371090
C119	C	1.266597	-0.707060	-0.037756
C120	C	1.599930	-0.373727	0.295577
C121	C	1.019889	-1.040374	-0.284595
C122	C	1.353222	-0.707040	0.048738
C123	C	1.686555	-0.373707	0.382072
C124	C	1.022874	-0.967022	-0.281570
C125	C	1.356207	-0.633689	0.051764
C126	C	1.689541	-0.300355	0.385097
C127	C	0.981060	-0.930358	-0.323309
C128	C	1.314393	-0.597025	0.010024
C129	C	1.647727	-0.263691	0.343358
C130	C	0.944395	-0.820544	-0.359860
C131	C	1.277728	-0.487211	-0.026527
C132	C	1.611062	-0.153878	0.306807
C133	C	0.984121	-0.855382	-0.320216
C134	C	1.317454	-0.522049	0.013117
C135	C	1.650788	-0.188716	0.346451
C136	C	1.140739	-0.338326	-0.340051
C137	C	1.474072	-0.004993	-0.006718
C138	C	1.807406	0.328340	0.326616
C139	C	1.215971	-0.338330	-0.340062
C140	C	1.549304	-0.004996	-0.006728
C141	C	1.882638	0.328337	0.326605
C142	C	0.964236	-0.338274	-0.516567
C143	C	1.297570	-0.004941	-0.183233
C144	C	1.630903	0.328392	0.150100
C145	C	0.964253	-0.338255	-0.591798
C146	C	1.297587	-0.004922	-0.258465
C147	C	1.630920	0.328411	0.074869
C148	C	0.971827	-0.155125	-0.332545
C149	C	1.305160	0.178209	0.000788
C150	C	1.638493	0.511542	0.334121
C151	C	0.975078	-0.077058	-0.329357
C152	C	1.308412	0.256275	0.003976
C153	C	1.641745	0.589608	0.337309
C154	C	1.009416	-0.293334	-0.625315
C155	C	1.342749	0.040000	-0.291982
C156	C	1.676082	0.373333	0.041352
C157	C	1.009424	-0.293313	-0.696003
C158	C	1.342757	0.040020	-0.362669
C159	C	1.676090	0.373353	-0.029336
C160	C	0.964272	-0.338219	-0.733172
C161	C	1.297605	-0.004885	-0.399839
C162	C	1.630938	0.328448	-0.066505
C163	C	0.919104	-0.383142	-0.699650
C164	C	1.252438	-0.049809	-0.366317
C165	C	1.585771	0.283524	-0.032983
C166	C	0.919094	-0.383159	-0.628964
C167	C	1.252427	-0.049825	-0.295630
C168	C	1.585761	0.283508	0.037703
C169	C	0.919145	-0.383077	-0.984721
C170	C	1.252479	-0.049744	-0.651388
C171	C	1.585812	0.283590	-0.318054
C172	C	0.919161	-0.383059	-1.055412
C173	C	1.252494	-0.049725	-0.722079
C174	C	1.585827	0.283608	-0.388746
C175	C	1.009475	-0.293232	-1.051760
C176	C	1.342808	0.040102	-0.718427
C177	C	1.676142	0.373435	-0.385093
C178	C	1.009465	-0.293248	-0.981073
C179	C	1.342798	0.040085	-0.647740
C180	C	1.676131	0.373419	-0.314407
C181	C	0.964295	-0.338169	-0.947557
C182	C	1.297629	-0.004835	-0.614224
C183	C	1.630962	0.328498	-0.280891
C184	C	0.964286	-0.338189	-0.870910
C185	C	1.297620	-0.004856	-0.537577
C186	C	1.630953	0.328477	-0.204243
C187	C	0.964283	-0.338202	-0.809819
C188	C	1.297617	-0.004869	-0.476485
C189	C	1.630950	0.328465	-0.143152
C190	C	0.964198	-0.338312	-0.164169
C191	C	1.297531	-0.004979	0.169164
C192	C	1.630865	0.328355	0.502497
C193	C	0.964320	-0.338133	-0.088930
C194	C	1.297654	-0.004800	0.244403
C195	C	1.630987	0.328534	0.577736
H196	H	0.709966	-0.256934	-0.415333
H197	H	1.043299	0.076399	-0.081999
H198	H	1.376633	0.409733	0.251334
F199	F	0.711488	-0.430927	-0.254289
F200	F	1.044822	-0.097594	0.079044
F201	F	1.378155	0.235739	0.412378
H202	H	1.046186	-0.256769	-0.595057
H203	H	1.379519	0.076565	-0.261723
H204	H	1.712853	0.409898	0.071610
H205	H	1.046201	-0.256735	-0.723289
H206	H	1.379534	0.076598	-0.389956
H207	H	1.712868	0.409931	-0.056622
F208	F	0.871101	-0.430855	-1.094970
F209	F	1.204434	-0.097522	-0.761636
F210	F	1.537768	0.235812	-0.428303
H211	H	1.046252	-0.256652	-1.079057
H212	H	1.379585	0.076681	-0.745723
H213	H	1.712919	0.410014	-0.412390
F214	F	1.031809	-0.816338	-0.272585
F215	F	1.365143	-0.483005	0.060748
F216	F	1.698476	-0.149672	0.394082
H217	H	0.219117	-0.419726	-0.264735
H218	H	0.552450	-0.086392	0.068599
H219	H	0.885783	0.246941	0.401932
H220	H	0.907911	-0.850422	-0.396301
H221	H	1.241245	-0.517088	-0.062968
H222	H	1.574578	-0.183755	0.270365
H223	H	0.869155	-0.738772	-0.434947
H224	H	1.202489	-0.405439	-0.101614
H225	H	1.535822	-0.072105	0.231719
F226	F	1.070572	-0.927984	-0.233939
F227	F	1.403905	-0.594651	0.099394
F228	F	1.737238	-0.261318	0.432728
F229	F	0.871072	-0.430886	-0.949060
F230	F	1.204405	-0.097552	-0.615726
F231	F	1.537739	0.235781	-0.282393
H232	H	0.882311	-0.419731	-0.601675
H233	H	1.215645	-0.086398	-0.268341
H234	H	1.548978	0.246935	0.064992
F235	F	0.871048	-0.430931	-0.739210
F236	F	1.204381	-0.097598	-0.405877
F237	F	1.537714	0.235735	-0.072544
H238	H	0.354194	-0.256945	-0.415381
H239	H	0.687528	0.076388	-0.082048
H240	H	1.020861	0.409722	0.251286
F241	F	1.057523	-0.245456	-0.941519
F242	F	1.390857	0.087877	-0.608185
F243	F	1.724190	0.421211	-0.274852
H244	H	1.053932	-1.070233	-0.250614
H245	H	1.387266	-0.736900	0.082719
H246	H	1.720599	-0.403566	0.416053
F247	F	0.217595	-0.245722	-0.425770
F248	F	0.550928	0.087611	-0.092437
F249	F	0.884261	0.420945	0.240896
H250	H	0.874578	-0.605695	-0.429458
H251	H	1.207912	-0.272362	-0.096125
H252	H	1.541245	0.060972	0.237208
H253	H	0.896784	-1.070260	-0.407549
H254	H	1.230117	-0.736927	-0.074216
H255	H	1.563451	-0.403594	0.259117
H256	H	0.581721	-0.256936	-0.415347
H257	H	0.915055	0.076397	-0.082014
H258	H	1.248388	0.409731	0.251319
F259	F	0.565578	-0.430923	-0.254295
F260	F	0.898911	-0.097590	0.079038
F261	F	1.232244	0.235744	0.412372
F262	F	0.355726	-0.430938	-0.254340
F263	F	0.689059	-0.097604	0.078993
F264	F	1.022393	0.235729	0.412326
H265	H	1.031732	-0.605667	-0.272526
H266	H	1.365065	-0.272333	0.060807
H267	H	1.698398	0.061000	0.394141
H268	H	1.026309	-0.738732	-0.278022
H269	H	1.359643	-0.405399	0.055311
H270	H	1.692976	-0.072065	0.388645
F271	F	0.891750	-0.928027	-0.412491
F272	F	1.225084	-0.594694	-0.079157
F273	F	1.558417	-0.261360	0.254176
