data_functionalizedCrystal
_audit_creation_method	'MofGen! by Chris Wilmer'
_symmetry_space_group_name_H-M	'P1'
_symmetry_Int_Tables_number	1
_symmetry_cell_setting	triclinic
loop_
_symmetry_equiv_pos_as_xyz
  x,y,z
_cell_length_a	6.817900
_cell_length_b	9.109307
_cell_length_c	14.858572
_cell_angle_alpha	99.356880
_cell_angle_beta	104.524003
_cell_angle_gamma	111.764999
loop_
_atom_site_label
_atom_site_type_symbol
_atom_site_fract_x
_atom_site_fract_y
_atom_site_fract_z
V1	V	-4.094840	-0.226446	-0.308035
V2	V	-3.761507	0.106887	0.025298
V3	V	-3.428174	0.440220	0.358632
O4	O	-4.023160	0.009827	-0.283656
O5	O	-3.689826	0.343160	0.049677
O6	O	-3.356493	0.676493	0.383010
O7	O	-4.101576	-0.447990	-0.323735
O8	O	-3.768242	-0.114657	0.009598
O9	O	-3.434909	0.218676	0.342931
O10	O	-4.050726	-0.223426	-0.434255
O11	O	-3.717393	0.109907	-0.100922
O12	O	-3.384060	0.443240	0.232411
O13	O	-4.074361	-0.216292	-0.172371
O14	O	-3.741028	0.117041	0.160963
O15	O	-3.407694	0.450374	0.494296
V16	V	-4.570769	-0.198131	-0.289645
V17	V	-4.237435	0.135203	0.043688
V18	V	-3.904102	0.468536	0.377021
O19	O	-4.372758	-0.288559	-0.348374
O20	O	-4.039425	0.044774	-0.015041
O21	O	-3.706092	0.378107	0.318292
O22	O	-4.743048	-0.136018	-0.249306
O23	O	-4.409714	0.197315	0.084027
O24	O	-4.076381	0.530649	0.417361
O25	O	-4.340827	0.023413	-0.273945
O26	O	-4.007493	0.356747	0.059388
O27	O	-3.674160	0.690080	0.392722
O28	O	-4.759846	-0.434404	-0.314024
O29	O	-4.426513	-0.101070	0.019309
O30	O	-4.093179	0.232263	0.352643
O31	O	-4.708645	-0.208285	-0.425309
O32	O	-4.375311	0.125048	-0.091976
O33	O	-4.041978	0.458382	0.241357
O34	O	-4.391676	-0.201151	-0.163425
O35	O	-4.058343	0.132182	0.169909
O36	O	-3.725009	0.465516	0.503242
C37	C	-3.959851	-0.501984	-0.323471
C38	C	-3.626517	-0.168650	0.009863
C39	C	-3.293184	0.164683	0.343196
C40	C	-4.046673	-0.683102	-0.337149
C41	C	-3.713340	-0.349768	-0.003816
C42	C	-3.380006	-0.016435	0.329518
C43	C	-3.894986	-0.215528	-0.464449
C44	C	-3.561652	0.117806	-0.131116
C45	C	-3.228319	0.451139	0.202218
C46	C	-3.940566	-0.214524	-0.567752
C47	C	-3.607233	0.118809	-0.234419
C48	C	-3.273900	0.452143	0.098915
C49	C	-4.107393	-0.210857	-0.946027
C50	C	-3.774060	0.122477	-0.612694
C51	C	-3.440726	0.455810	-0.279361
C52	C	-4.060968	-0.211877	-0.840779
C53	C	-3.727635	0.121456	-0.507446
C54	C	-3.394302	0.454789	-0.174113
C55	C	-4.023981	-0.212692	-0.756893
C56	C	-3.690648	0.120641	-0.423560
C57	C	-3.357315	0.453975	-0.090226
C58	C	-3.977553	-0.213709	-0.651638
C59	C	-3.644220	0.119624	-0.318305
C60	C	-3.310886	0.452957	0.015029
C61	C	-4.145896	0.077398	-0.274208
C62	C	-3.812562	0.410731	0.059126
C63	C	-3.479229	0.744065	0.392459
C64	C	-4.038312	0.258514	-0.260536
C65	C	-3.704979	0.591848	0.072798
C66	C	-3.371645	0.925181	0.406131
C67	C	-4.210760	-0.209055	-0.133227
C68	C	-3.877426	0.124278	0.200107
C69	C	-3.544093	0.457612	0.533440
C70	C	-4.144416	-0.210050	-0.029922
C71	C	-3.811082	0.123283	0.303411
C72	C	-3.477749	0.456617	0.636744
H73	H	-3.964775	-0.652907	-0.184459
H74	H	-3.631441	-0.319573	0.148874
H75	H	-3.298108	0.013760	0.482207
H76	H	-4.120233	-0.771691	-0.413230
H77	H	-3.786900	-0.438358	-0.079897
H78	H	-3.453567	-0.105024	0.253436
