data_functionalizedCrystal
_audit_creation_method	'MofGen! by Chris Wilmer'
_symmetry_space_group_name_H-M	'P1'
_symmetry_Int_Tables_number	1
_symmetry_cell_setting	triclinic
loop_
_symmetry_equiv_pos_as_xyz
  x,y,z
_cell_length_a	16.625548
_cell_length_b	18.101395
_cell_length_c	18.101389
_cell_angle_alpha	89.983159
_cell_angle_beta	89.981016
_cell_angle_gamma	90.032172
loop_
_atom_site_label
_atom_site_type_symbol
_atom_site_fract_x
_atom_site_fract_y
_atom_site_fract_z
Zn1	Zn	1.232619	-0.294886	-0.418741
Zn2	Zn	1.482619	-0.044886	-0.168741
Zn3	Zn	1.732619	0.205114	0.081259
Zn4	Zn	1.982619	0.455114	0.331259
Zn5	Zn	1.232506	-0.418712	-0.294903
Zn6	Zn	1.482506	-0.168712	-0.044903
Zn7	Zn	1.732506	0.081288	0.205097
Zn8	Zn	1.982506	0.331288	0.455097
Zn9	Zn	1.097785	-0.294891	-0.294914
Zn10	Zn	1.347785	-0.044891	-0.044914
Zn11	Zn	1.597785	0.205109	0.205086
Zn12	Zn	1.847785	0.455109	0.455086
Zn13	Zn	1.097731	-0.418693	-0.418703
Zn14	Zn	1.347731	-0.168693	-0.168703
Zn15	Zn	1.597731	0.081307	0.081297
Zn16	Zn	1.847731	0.331307	0.331297
O17	O	1.165160	-0.356795	-0.356815
O18	O	1.415160	-0.106795	-0.106815
O19	O	1.665160	0.143205	0.143185
O20	O	1.915160	0.393205	0.393185
O21	O	1.345437	-0.311318	-0.402325
O22	O	1.595437	-0.061318	-0.152325
O23	O	1.845437	0.188682	0.097675
O24	O	2.095437	0.438682	0.347675
O25	O	1.214610	-0.402297	-0.191272
O26	O	1.464610	-0.152297	0.058728
O27	O	1.714610	0.097703	0.308728
O28	O	1.964610	0.347703	0.558728
O29	O	1.115741	-0.191257	-0.311360
O30	O	1.365741	0.058743	-0.061360
O31	O	1.615741	0.308743	0.188640
O32	O	1.865741	0.558743	0.438640
O33	O	1.345353	-0.402292	-0.311342
O34	O	1.595353	-0.152292	-0.061342
O35	O	1.845353	0.097708	0.188658
O36	O	2.095353	0.347708	0.438658
O37	O	1.214803	-0.191254	-0.402336
O38	O	1.464803	0.058746	-0.152336
O39	O	1.714803	0.308746	0.097664
O40	O	1.964803	0.558746	0.347664
O41	O	1.115631	-0.311326	-0.191280
O42	O	1.365631	-0.061326	0.058720
O43	O	1.615631	0.188674	0.308720
O44	O	1.865631	0.438674	0.558720
O45	O	0.984945	-0.311308	-0.311324
O46	O	1.234945	-0.061308	-0.061324
O47	O	1.484945	0.188692	0.188676
O48	O	1.734945	0.438692	0.438676
O49	O	1.115650	-0.402259	-0.522341
O50	O	1.365650	-0.152259	-0.272341
O51	O	1.615650	0.097741	-0.022341
O52	O	1.865650	0.347741	0.227659
O53	O	0.984906	-0.402264	-0.402271
O54	O	1.234906	-0.152264	-0.152271
O55	O	1.484906	0.097736	0.097729
O56	O	1.734906	0.347736	0.347729
O57	O	1.214751	-0.311299	-0.522369
O58	O	1.464751	-0.061299	-0.272369
O59	O	1.714751	0.188701	-0.022369
O60	O	1.964751	0.438701	0.227631
O61	O	1.214558	-0.522342	-0.311305
O62	O	1.464558	-0.272342	-0.061305
O63	O	1.714558	-0.022342	0.188695
O64	O	1.964558	0.227658	0.438695
O65	O	1.115540	-0.522328	-0.402261
O66	O	1.365540	-0.272328	-0.152261
O67	O	1.615540	-0.022328	0.097739
O68	O	1.865540	0.227672	0.347739
C69	C	0.955670	-0.356785	-0.356795
C70	C	1.205670	-0.106785	-0.106795
C71	C	1.455670	0.143215	0.143205
C72	C	1.705670	0.393215	0.393205
C73	C	0.866048	-0.356798	-0.356803
C74	C	1.116048	-0.106798	-0.106803
C75	C	1.366048	0.143202	0.143197
C76	C	1.616048	0.393202	0.393197
C77	C	0.537873	-0.356803	-0.356835
C78	C	0.787873	-0.106803	-0.106835
C79	C	1.037873	0.143197	0.143165
C80	C	1.287873	0.393197	0.393165
C81	C	0.629181	-0.356800	-0.356824
C82	C	0.879181	-0.106800	-0.106824
C83	C	1.129181	0.143200	0.143176
C84	C	1.379181	0.393200	0.393176
C85	C	0.701958	-0.356801	-0.356819
C86	C	0.951958	-0.106801	-0.106819
C87	C	1.201958	0.143199	0.143181
C88	C	1.451958	0.393199	0.393181
C89	C	0.793272	-0.356797	-0.356809
C90	C	1.043272	-0.106797	-0.106809
C91	C	1.293272	0.143203	0.143191
C92	C	1.543272	0.393203	0.393191
C93	C	1.165053	-0.549206	-0.356794
C94	C	1.415053	-0.299206	-0.106794
C95	C	1.665053	-0.049206	0.143206
C96	C	1.915053	0.200794	0.393206
C97	C	1.165080	-0.631520	-0.356809
C98	C	1.415080	-0.381520	-0.106809
C99	C	1.665080	-0.131520	0.143191
C100	C	1.915080	0.118480	0.393191
C101	C	1.165257	-0.930611	-0.356849
C102	C	1.415257	-0.680611	-0.106849
C103	C	1.665257	-0.430611	0.143151
C104	C	1.915257	-0.180611	0.393151
C105	C	1.103102	-0.899308	-0.414218
C106	C	1.353102	-0.649308	-0.164218
C107	C	1.603102	-0.399308	0.085782
C108	C	1.853102	-0.149308	0.335782
C109	C	1.102807	-0.813690	-0.414038
C110	C	1.352807	-0.563690	-0.164038
C111	C	1.602807	-0.313690	0.085962
C112	C	1.852807	-0.063690	0.335962
C113	C	1.165169	-0.782229	-0.356830
C114	C	1.415169	-0.532229	-0.106830
C115	C	1.665169	-0.282229	0.143170
C116	C	1.915169	-0.032229	0.393170
C117	C	1.142164	-0.813366	-0.278780
C118	C	1.392164	-0.563366	-0.028780
C119	C	1.642164	-0.313366	0.221220
C120	C	1.892164	-0.063366	0.471220
C121	C	1.141764	-0.899011	-0.279124
C122	C	1.391764	-0.649011	-0.029124
C123	C	1.641764	-0.399011	0.220876
C124	C	1.891764	-0.149011	0.470876
C125	C	1.250553	-0.898957	-0.376843
C126	C	1.500553	-0.648957	-0.126843
C127	C	1.750553	-0.398957	0.123157
C128	C	2.000553	-0.148957	0.373157
C129	C	1.250052	-0.813306	-0.378554
C130	C	1.500052	-0.563306	-0.128554
C131	C	1.750052	-0.313306	0.121446
C132	C	2.000052	-0.063306	0.371446
C133	C	1.165121	-0.698369	-0.356814
C134	C	1.415121	-0.448369	-0.106814
C135	C	1.665121	-0.198369	0.143186
C136	C	1.915121	0.051631	0.393186
C137	C	1.165303	-1.014470	-0.356859
C138	C	1.415303	-0.764470	-0.106859
C139	C	1.665303	-0.514470	0.143141
C140	C	1.915303	-0.264470	0.393141
C141	C	1.375469	-0.356807	-0.356837
C142	C	1.625469	-0.106807	-0.106837
C143	C	1.875469	0.143193	0.143163
C144	C	2.125469	0.393193	0.393163
C145	C	1.465090	-0.356811	-0.356846
C146	C	1.715090	-0.106811	-0.106846
C147	C	1.965090	0.143189	0.143154
C148	C	2.215090	0.393189	0.393154
C149	C	1.165207	-0.356777	-0.549977
C150	C	1.415207	-0.106777	-0.299977
C151	C	1.665207	0.143223	-0.049977
C152	C	1.915207	0.393223	0.200023
C153	C	1.165227	-0.356769	-0.632292
C154	C	1.415227	-0.106769	-0.382292
C155	C	1.665227	0.143231	-0.132292
C156	C	1.915227	0.393231	0.117708
C157	C	1.165291	-0.163633	-0.356854
C158	C	1.415291	0.086367	-0.106854
C159	C	1.665291	0.336367	0.143146
C160	C	1.915291	0.586367	0.393146
C161	C	1.165346	-0.081319	-0.356870
C162	C	1.415346	0.168681	-0.106870
C163	C	1.665346	0.418681	0.143130
C164	C	1.915346	0.668681	0.393130
C165	C	1.165274	-0.356630	-0.931383
C166	C	1.415274	-0.106630	-0.681383
C167	C	1.665274	0.143370	-0.431383
C168	C	1.915274	0.393370	-0.181383
C169	C	1.102707	-0.413678	-0.900040
C170	C	1.352707	-0.163678	-0.650040
C171	C	1.602707	0.086322	-0.400040
C172	C	1.852707	0.336322	-0.150040
C173	C	1.102876	-0.413942	-0.814422
C174	C	1.352876	-0.163942	-0.564422
C175	C	1.602876	0.086058	-0.314422
C176	C	1.852876	0.336058	-0.064422
C177	C	1.165250	-0.356699	-0.783000
C178	C	1.415250	-0.106699	-0.533000
C179	C	1.665250	0.143301	-0.283000
C180	C	1.915250	0.393301	-0.033000
C181	C	1.250202	-0.377881	-0.814099
C182	C	1.500202	-0.127881	-0.564099
C183	C	1.750202	0.122119	-0.314099
C184	C	2.000202	0.372119	-0.064099
C185	C	1.249853	-0.378256	-0.899744
C186	C	1.499853	-0.128256	-0.649744
C187	C	1.749853	0.121744	-0.399744
C188	C	1.999853	0.371744	-0.149744
C189	C	1.143628	-0.278273	-0.899807
C190	C	1.393628	-0.028273	-0.649807
C191	C	1.643628	0.221727	-0.399807
C192	C	1.893628	0.471727	-0.149807
C193	C	1.141737	-0.278725	-0.814156
C194	C	1.391737	-0.028725	-0.564156
C195	C	1.641737	0.221275	-0.314156
C196	C	1.891737	0.471275	-0.064156
C197	C	1.165242	-0.356736	-0.699141
C198	C	1.415242	-0.106736	-0.449141
C199	C	1.665242	0.143264	-0.199141
C200	C	1.915242	0.393264	0.050859
C201	C	1.165288	-0.356594	-1.015242
C202	C	1.415288	-0.106594	-0.765242
C203	C	1.665288	0.143406	-0.515242
C204	C	1.915288	0.393406	-0.265242
C205	C	1.165160	-0.356761	-0.164405
C206	C	1.415160	-0.106761	0.085595
C207	C	1.665160	0.143239	0.335595
C208	C	1.915160	0.393239	0.585595
C209	C	1.165297	-0.356560	-0.082091
C210	C	1.415297	-0.106560	0.167909
C211	C	1.665297	0.143440	0.417909
C212	C	1.915297	0.393440	0.667909
H213	H	1.117199	-0.792636	-0.471911
H214	H	1.367199	-0.542636	-0.221911
H215	H	1.617199	-0.292636	0.028089
H216	H	1.867199	-0.042636	0.278089
F217	F	1.060267	-0.925208	-0.256987
F218	F	1.310267	-0.675208	-0.006987
F219	F	1.560267	-0.425208	0.243013
F220	F	1.810267	-0.175208	0.493013
F221	F	1.272729	-0.786705	-0.453633
F222	F	1.522729	-0.536705	-0.203633
F223	F	1.772729	-0.286705	0.046367
F224	F	2.022729	-0.036705	0.296367
H225	H	1.185071	-0.919720	-0.234922
H226	H	1.435071	-0.669720	0.015078
H227	H	1.685071	-0.419720	0.265078
H228	H	1.935071	-0.169720	0.515078
F229	F	1.203191	-0.222717	-0.926301
F230	F	1.453191	0.027283	-0.676301
F231	F	1.703191	0.277283	-0.426301
F232	F	1.953191	0.527283	-0.176301
H233	H	1.116856	-0.471404	-0.921566
H234	H	1.366856	-0.221404	-0.671566
H235	H	1.616856	0.028596	-0.421566
H236	H	1.866856	0.278596	-0.171566
F237	F	1.312816	-0.326271	-0.926849
F238	F	1.562816	-0.076271	-0.676849
F239	F	1.812816	0.173729	-0.426849
F240	F	2.062816	0.423729	-0.176849
F241	F	1.199474	-0.786731	-0.221385
F242	F	1.449474	-0.536731	0.028615
F243	F	1.699474	-0.286731	0.278615
F244	F	1.949474	-0.036731	0.528615
H245	H	1.080474	-0.791979	-0.261540
H246	H	1.330474	-0.541979	-0.011540
H247	H	1.580474	-0.291979	0.238460
H248	H	1.830474	-0.041979	0.488460
H249	H	1.271527	-0.920515	-0.432786
H250	H	1.521527	-0.670515	-0.182786
H251	H	1.771527	-0.420515	0.067214
H252	H	2.021527	-0.170515	0.317214
H253	H	1.117167	-0.472023	-0.793940
H254	H	1.367167	-0.222023	-0.543940
H255	H	1.617167	0.027977	-0.293940
H256	H	1.867167	0.277977	-0.043940
H257	H	1.082758	-0.258973	-0.921397
H258	H	1.332758	-0.008973	-0.671397
H259	H	1.582758	0.241027	-0.421397
H260	H	1.832758	0.491027	-0.171397
H261	H	1.298070	-0.337636	-0.793748
H262	H	1.548070	-0.087636	-0.543748
H263	H	1.798070	0.162364	-0.293748
H264	H	2.048070	0.412364	-0.043748
H265	H	1.268869	-0.434553	-0.792657
H266	H	1.518869	-0.184553	-0.542657
H267	H	1.768869	0.065447	-0.292657
H268	H	2.018869	0.315447	-0.042657
F269	F	1.060019	-0.257848	-0.787596
F270	F	1.310019	-0.007848	-0.537596
F271	F	1.560019	0.242152	-0.287596
F272	F	1.810019	0.492152	-0.037596
H273	H	1.298810	-0.791886	-0.339816
H274	H	1.548810	-0.541886	-0.089816
H275	H	1.798810	-0.291886	0.160184
H276	H	2.048810	-0.041886	0.410184
F277	F	1.311084	-0.925425	-0.322238
F278	F	1.561084	-0.675425	-0.072238
F279	F	1.811084	-0.425425	0.177762
F280	F	2.061084	-0.175425	0.427762
H281	H	1.039881	-0.400687	-0.793394
H282	H	1.289881	-0.150687	-0.543394
H283	H	1.539881	0.099313	-0.293394
H284	H	1.789881	0.349313	-0.043394
F285	F	1.196961	-0.220220	-0.786208
F286	F	1.446961	0.029780	-0.536208
F287	F	1.696961	0.279780	-0.286208
F288	F	1.946961	0.529780	-0.036208
H289	H	1.040263	-0.920893	-0.401141
H290	H	1.290263	-0.670893	-0.151141
H291	H	1.540263	-0.420893	0.098859
H292	H	1.790263	-0.170893	0.348859
H293	H	1.039583	-0.793265	-0.400795
H294	H	1.289583	-0.543265	-0.150795
H295	H	1.539583	-0.293265	0.099205
H296	H	1.789583	-0.043265	0.349205
H297	H	1.039522	-0.400558	-0.920631
H298	H	1.289522	-0.150558	-0.670631
H299	H	1.539522	0.099442	-0.420631
H300	H	1.789522	0.349442	-0.170631
F301	F	1.121724	-0.926180	-0.490109
F302	F	1.371724	-0.676180	-0.240109
F303	F	1.621724	-0.426180	0.009891
F304	F	1.871724	-0.176180	0.259891
H305	H	1.268204	-0.435536	-0.919727
H306	H	1.518204	-0.185536	-0.669727
H307	H	1.768204	0.064464	-0.419727
H308	H	2.018204	0.314464	-0.169727
