data_functionalizedCrystal
_audit_creation_method	'MofGen! by Chris Wilmer'
_symmetry_space_group_name_H-M	'P1'
_symmetry_Int_Tables_number	1
_symmetry_cell_setting	triclinic
loop_
_symmetry_equiv_pos_as_xyz
  x,y,z
_cell_length_a	15.538191
_cell_length_b	15.712078
_cell_length_c	9.482900
_cell_angle_alpha	77.881830
_cell_angle_beta	95.622696
_cell_angle_gamma	83.426622
loop_
_atom_site_label
_atom_site_type_symbol
_atom_site_fract_x
_atom_site_fract_y
_atom_site_fract_z
O1	O	0.457038	1.017007	-0.121149
O2	O	0.957038	1.517007	0.378851
O3	O	0.392327	0.785647	-0.121089
O4	O	0.892327	1.285647	0.378911
O5	O	0.303068	0.946364	-0.121138
O6	O	0.803068	1.446364	0.378862
O7	O	0.546297	0.856290	-0.121101
O8	O	1.046297	1.356290	0.378899
O9	O	0.321305	0.913686	0.120665
O10	O	0.821305	1.413686	0.620665
O11	O	0.410564	0.752969	0.120713
O12	O	0.910564	1.252969	0.620713
O13	O	0.475275	0.984329	0.120653
O14	O	0.975275	1.484329	0.620653
Cu15	Cu	0.444585	0.865665	0.142762
Cu16	Cu	0.944585	1.365665	0.642762
Cu17	Cu	0.423017	0.904311	-0.143198
Cu18	Cu	0.923017	1.404311	0.356802
O19	O	0.564534	0.823612	0.120702
O20	O	1.064534	1.323612	0.620702
C21	C	0.390874	0.740421	-0.000181
C22	C	0.890874	1.240421	0.499819
C23	C	0.359364	0.654350	-0.000160
C24	C	0.859364	1.154350	0.499840
C25	C	0.626904	0.203321	-0.000219
C26	C	1.126904	0.703321	0.499781
C27	C	0.597271	0.122461	-0.000260
C28	C	1.097271	0.622461	0.499740
C29	C	0.448801	0.189661	-0.000286
C30	C	0.948801	0.689661	0.499714
C31	C	0.478421	0.270530	-0.000252
C32	C	0.978421	0.770530	0.499748
C33	C	0.567474	0.277352	-0.000217
C34	C	1.067474	0.777352	0.499783
C35	C	0.418991	0.344560	-0.000250
C36	C	0.918991	0.844560	0.499750
C37	C	0.448609	0.425421	-0.000209
C38	C	0.948609	0.925421	0.499791
C39	C	0.537659	0.432250	-0.000170
C40	C	1.037659	0.932250	0.499830
C41	C	0.597092	0.358212	-0.000176
C42	C	1.097092	0.858212	0.499824
C43	C	0.329939	0.337735	-0.000275
C44	C	0.829939	0.837735	0.499725
C45	C	0.270509	0.411766	-0.000273
C46	C	0.770509	0.911766	0.499727
C47	C	0.300126	0.492629	-0.000242
C48	C	0.800126	0.992629	0.499758
C49	C	0.389176	0.499459	-0.000203
C50	C	0.889176	0.999459	0.499797
C51	C	0.240693	0.566668	-0.000236
C52	C	0.740693	1.066668	0.499764
C53	C	0.270311	0.647528	-0.000195
C54	C	0.770311	1.147528	0.499805
C55	C	0.418794	0.580319	-0.000162
C56	C	0.918794	1.080319	0.499838
C57	C	0.280337	0.939450	-0.000244
C58	C	0.780337	1.439450	0.499756
C59	C	0.185433	0.967522	-0.000265
C60	C	0.685433	1.467522	0.499735
C61	C	-0.198430	0.688643	-0.000163
C62	C	0.301570	1.188643	0.499837
C63	C	-0.287601	0.715038	-0.000166
C64	C	0.212399	1.215038	0.499834
C65	C	-0.258894	0.863512	-0.000205
C66	C	0.241106	1.363512	0.499795
C67	C	-0.169719	0.837130	-0.000209
C68	C	0.330281	1.337130	0.499791
C69	C	-0.139494	0.749694	-0.000186
C70	C	0.360506	1.249694	0.499814
C71	C	-0.110783	0.898181	-0.000232
C72	C	0.389217	1.398181	0.499768
C73	C	-0.021615	0.871799	-0.000228
C74	C	0.478385	1.371799	0.499772
C75	C	0.008618	0.784366	-0.000200
C76	C	0.508618	1.284366	0.499800
C77	C	-0.050326	0.723312	-0.000182
C78	C	0.449674	1.223312	0.499818
C79	C	-0.141009	0.985615	-0.000244
C80	C	0.358991	1.485615	0.499756
C81	C	-0.082073	1.046666	-0.000267
C82	C	0.417927	1.546666	0.499733
C83	C	0.007096	1.020286	-0.000274
C84	C	0.507096	1.520286	0.499726
C85	C	0.037329	0.932853	-0.000246
C86	C	0.537329	1.432853	0.499754
C87	C	0.066039	1.081340	-0.000292
C88	C	0.566039	1.581340	0.499708
C89	C	0.155208	1.054959	-0.000288
C90	C	0.655208	1.554959	0.499712
C91	C	0.126497	0.906471	-0.000242
C92	C	0.626497	1.406471	0.499758
C93	C	0.587265	0.830527	-0.000196
C94	C	1.087265	1.330527	0.499804
C95	C	0.682168	0.802455	-0.000183
C96	C	1.182168	1.302455	0.499817
C97	C	0.476728	1.029555	-0.000258
C98	C	0.976728	1.529555	0.499742
C99	C	0.508237	1.115628	-0.000289
C100	C	1.008237	1.615628	0.499711
N101	N	0.459756	0.838489	0.343890
N102	N	0.959756	1.338489	0.843890
N103	N	0.407842	0.931495	-0.344326
N104	N	0.907842	1.431495	0.155674
C105	C	0.427486	0.896291	0.416072
C106	C	0.927486	1.396291	0.916072
C107	C	0.440117	0.873684	0.583496
C108	C	0.940117	1.373684	1.083496
H109	H	0.699420	0.208874	-0.000189
H110	H	1.199420	0.708874	0.499811
Cl111	Cl	0.120718	0.751196	-0.000182
Cl112	Cl	0.620718	1.251196	0.499818
H113	H	0.390503	0.962514	0.353924
H114	H	0.890503	1.462514	0.853924
Cl115	Cl	0.128747	0.558076	-0.000258
Cl116	Cl	0.628747	1.058076	0.499742
Cl117	Cl	0.671995	0.029390	-0.000249
Cl118	Cl	1.171995	0.529390	0.499751
Cl119	Cl	0.164500	0.796551	-0.000229
Cl120	Cl	0.664500	1.296551	0.499771
H121	H	0.041417	1.152529	-0.000296
H122	H	0.541417	1.652529	0.499704
H123	H	0.370857	0.997721	0.593530
H124	H	0.870857	1.497721	1.093530
H125	H	0.221916	0.707808	-0.000197
H126	H	0.721916	1.207808	0.499803
H127	H	-0.025716	0.652114	-0.000174
H128	H	0.474284	1.152114	0.499826
Cl129	Cl	0.497207	0.771430	0.679435
Cl130	Cl	0.997207	1.271430	1.179435
H131	H	-0.173820	0.617445	-0.000155
H132	H	0.326180	1.117445	0.499845
H133	H	0.496730	0.772264	0.406040
H134	H	0.996730	1.272264	0.906040
H135	H	-0.335585	0.665314	-0.000126
H136	H	0.164415	1.165314	0.499874
H137	H	-0.106695	1.117856	-0.000280
H138	H	0.393305	1.617856	0.499720
H139	H	0.491310	0.585872	-0.000131
H140	H	0.991310	1.085872	0.499869
H141	H	0.561773	0.498092	-0.000130
H142	H	1.061773	0.998092	0.499870
Cl143	Cl	0.709045	0.366796	-0.000151
Cl144	Cl	1.209045	0.866796	0.499849
H145	H	0.376295	0.184092	-0.000297
H146	H	0.876295	0.684092	0.499703
H147	H	0.305828	0.271889	-0.000290
H148	H	0.805828	0.771889	0.499710
Cl149	Cl	0.229305	1.131705	-0.000290
Cl150	Cl	0.729305	1.631705	0.499710
Cl151	Cl	0.158561	0.403179	-0.000313
Cl152	Cl	0.658561	0.903179	0.499687
Cl153	Cl	-0.253107	1.018779	-0.000239
Cl154	Cl	0.246893	1.518779	0.499761
H155	H	-0.283516	0.934702	-0.000218
H156	H	0.216484	1.434702	0.499782
