data_functionalizedCrystal
_audit_creation_method	'MofGen! by Chris Wilmer'
_symmetry_space_group_name_H-M	'P1'
_symmetry_Int_Tables_number	1
_symmetry_cell_setting	triclinic
loop_
_symmetry_equiv_pos_as_xyz
  x,y,z
_cell_length_a	16.120484
_cell_length_b	12.827893
_cell_length_c	12.827885
_cell_angle_alpha	90.019272
_cell_angle_beta	92.863928
_cell_angle_gamma	87.074569
loop_
_atom_site_label
_atom_site_type_symbol
_atom_site_fract_x
_atom_site_fract_y
_atom_site_fract_z
Zn1	Zn	-0.331866	-1.576504	-0.611895
Zn2	Zn	-0.081866	-1.326504	-0.361895
Zn3	Zn	0.168134	-1.076504	-0.111895
Zn4	Zn	0.418134	-0.826504	0.138105
Zn5	Zn	-0.471301	-1.567505	-0.445998
Zn6	Zn	-0.221301	-1.317505	-0.195998
Zn7	Zn	0.028699	-1.067505	0.054002
Zn8	Zn	0.278699	-0.817505	0.304002
Zn9	Zn	-0.331907	-1.401742	-0.437171
Zn10	Zn	-0.081907	-1.151742	-0.187171
Zn11	Zn	0.168093	-0.901742	0.062829
Zn12	Zn	0.418093	-0.651742	0.312829
Zn13	Zn	-0.471239	-1.392841	-0.620694
Zn14	Zn	-0.221239	-1.142841	-0.370694
Zn15	Zn	0.028761	-0.892841	-0.120694
Zn16	Zn	0.278761	-0.642841	0.129306
O17	O	-0.401579	-1.484648	-0.528940
O18	O	-0.151579	-1.234648	-0.278940
O19	O	0.098421	-0.984648	-0.028940
O20	O	0.348421	-0.734648	0.221060
O21	O	-0.350372	-1.721545	-0.589900
O22	O	-0.100372	-1.471545	-0.339900
O23	O	0.149628	-1.221545	-0.089900
O24	O	0.399628	-0.971545	0.160100
O25	O	-0.452853	-1.545475	-0.298594
O26	O	-0.202853	-1.295475	-0.048594
O27	O	0.047147	-1.045475	0.201406
O28	O	0.297147	-0.795475	0.451406
O29	O	-0.215236	-1.432416	-0.452972
O30	O	0.034764	-1.182416	-0.202972
O31	O	0.284764	-0.932416	0.047028
O32	O	0.534764	-0.682416	0.297028
O33	O	-0.452814	-1.714934	-0.468017
O34	O	-0.202814	-1.464934	-0.218017
O35	O	0.047186	-1.214934	0.031983
O36	O	0.297186	-0.964934	0.281983
O37	O	-0.215206	-1.560812	-0.581341
O38	O	0.034794	-1.310812	-0.331341
O39	O	0.284794	-1.060812	-0.081341
O40	O	0.534794	-0.810812	0.168659
O41	O	-0.350441	-1.423690	-0.292109
O42	O	-0.100441	-1.173690	-0.042109
O43	O	0.149559	-0.923690	0.207891
O44	O	0.399559	-0.673690	0.457891
O45	O	-0.350381	-1.254326	-0.461505
O46	O	-0.100381	-1.004326	-0.211505
O47	O	0.149619	-0.754326	0.038495
O48	O	0.399619	-0.504326	0.288495
O49	O	-0.452708	-1.417245	-0.765761
O50	O	-0.202708	-1.167245	-0.515761
O51	O	0.047292	-0.917245	-0.265761
O52	O	0.297292	-0.667245	-0.015761
O53	O	-0.452748	-1.247787	-0.596338
O54	O	-0.202748	-0.997787	-0.346338
O55	O	0.047252	-0.747787	-0.096338
O56	O	0.297252	-0.497787	0.153662
O57	O	-0.350311	-1.552181	-0.759296
O58	O	-0.100311	-1.302181	-0.509296
O59	O	0.149689	-1.052181	-0.259296
O60	O	0.399689	-0.802181	-0.009296
O61	O	-0.587959	-1.536844	-0.476549
O62	O	-0.337959	-1.286844	-0.226549
O63	O	-0.087959	-1.036844	0.023451
O64	O	0.162041	-0.786844	0.273451
O65	O	-0.587913	-1.408520	-0.604897
O66	O	-0.337913	-1.158520	-0.354897
O67	O	-0.087913	-0.908520	-0.104897
O68	O	0.162087	-0.658520	0.145103
C69	C	-0.401562	-1.213139	-0.528919
C70	C	-0.151562	-0.963139	-0.278919
C71	C	0.098438	-0.713139	-0.028919
C72	C	0.348438	-0.463139	0.221081
C73	C	-0.401576	-1.096985	-0.528936
C74	C	-0.151576	-0.846985	-0.278936
C75	C	0.098424	-0.596985	-0.028936
C76	C	0.348424	-0.346985	0.221064
C77	C	-0.618186	-1.470768	-0.542658
C78	C	-0.368186	-1.220768	-0.292658
C79	C	-0.118186	-0.970768	-0.042658
C80	C	0.131814	-0.720768	0.207342
C81	C	-0.710851	-1.464925	-0.548562
C82	C	-0.460851	-1.214925	-0.298562
C83	C	-0.210851	-0.964925	-0.048562
C84	C	0.039149	-0.714925	0.201438
C85	C	-0.401498	-1.484724	-0.801505
C86	C	-0.151498	-1.234724	-0.551505
C87	C	0.098502	-0.984724	-0.301505
C88	C	0.348502	-0.734724	-0.051505
C89	C	-0.401464	-1.484757	-0.917656
C90	C	-0.151464	-1.234757	-0.667656
C91	C	0.098536	-0.984757	-0.417656
C92	C	0.348536	-0.734757	-0.167656
C93	C	-0.880512	-1.454265	-0.559362
C94	C	-0.630512	-1.204265	-0.309362
C95	C	-0.380512	-0.954265	-0.059362
C96	C	-0.130512	-0.704265	0.190638
C97	C	-0.921804	-1.515219	-0.498534
C98	C	-0.671804	-1.265219	-0.248534
C99	C	-0.421804	-1.015219	0.001466
C100	C	-0.171804	-0.765219	0.251466
C101	C	-1.016209	-1.509287	-0.504544
C102	C	-0.766209	-1.259287	-0.254544
C103	C	-0.516209	-1.009287	-0.004544
C104	C	-0.266209	-0.759287	0.245456
C105	C	-0.786099	-1.460195	-0.553355
C106	C	-0.536099	-1.210195	-0.303355
C107	C	-0.286099	-0.960195	-0.053355
C108	C	-0.036099	-0.710195	0.196645
C109	C	-0.184125	-1.498611	-0.515191
C110	C	0.065875	-1.248611	-0.265191
C111	C	0.315875	-0.998611	-0.015191
C112	C	0.565875	-0.748611	0.234809
C113	C	-0.091460	-1.504561	-0.509332
C114	C	0.158540	-1.254561	-0.259332
C115	C	0.408540	-1.004561	-0.009332
C116	C	0.658540	-0.754561	0.240668
C117	C	-0.401595	-1.757217	-0.528962
C118	C	-0.151595	-1.507217	-0.278962
C119	C	0.098405	-1.257217	-0.028962
C120	C	0.348405	-1.007217	0.221038
C121	C	-0.401602	-1.873370	-0.528971
C122	C	-0.151602	-1.623370	-0.278971
C123	C	0.098398	-1.373370	-0.028971
C124	C	0.348398	-1.123370	0.221029
C125	C	-0.452309	-1.041987	-0.595563
C126	C	-0.202309	-0.791987	-0.345563
C127	C	0.047691	-0.541987	-0.095563
C128	C	0.297691	-0.291987	0.154437
C129	C	-0.452324	-0.921936	-0.595582
C130	C	-0.202324	-0.671936	-0.345582
C131	C	0.047676	-0.421936	-0.095582
C132	C	0.297676	-0.171936	0.154418
C133	C	-0.350785	-1.551535	-0.966241
C134	C	-0.100785	-1.301535	-0.716241
C135	C	0.149215	-1.051535	-0.466241
C136	C	0.399215	-0.801535	-0.216241
C137	C	-0.350749	-1.551570	-1.086289
C138	C	-0.100749	-1.301570	-0.836289
C139	C	0.149251	-1.051570	-0.586289
C140	C	0.399251	-0.801570	-0.336289
C141	C	-0.401598	-1.484636	-0.257431
C142	C	-0.151598	-1.234636	-0.007431
C143	C	0.098402	-0.984636	0.242569
C144	C	0.348402	-0.734636	0.492569
C145	C	-0.401397	-1.484821	-0.141266
C146	C	-0.151397	-1.234821	0.108734
C147	C	0.098603	-0.984821	0.358734
C148	C	0.348603	-0.734821	0.608734
H149	H	-0.916059	-1.397630	-0.615947
H150	H	-0.666059	-1.147630	-0.365947
H151	H	-0.416059	-0.897630	-0.115947
H152	H	-0.166059	-0.647630	0.134053
H153	H	-0.495730	-1.083779	-0.652594
H154	H	-0.245730	-0.833779	-0.402594
H155	H	0.004270	-0.583779	-0.152594
H156	H	0.254270	-0.333779	0.097406
H157	H	-0.444791	-1.427651	-1.099479
H158	H	-0.194791	-1.177651	-0.849479
H159	H	0.055209	-0.927651	-0.599479
H160	H	0.305209	-0.677651	-0.349479
H161	H	-0.444820	-1.427605	-0.964935
H162	H	-0.194820	-1.177605	-0.714935
H163	H	0.055180	-0.927605	-0.464935
H164	H	0.305180	-0.677605	-0.214935
O165	O	-0.293349	-1.627244	-0.903630
O166	O	-0.043349	-1.377244	-0.653630
O167	O	0.206651	-1.127244	-0.403630
O168	O	0.456651	-0.877244	-0.153630
H169	H	-0.302397	-1.615344	-0.819165
H170	H	-0.052397	-1.365344	-0.569165
H171	H	0.197603	-1.115344	-0.319165
H172	H	0.447603	-0.865344	-0.069165
H173	H	-0.358148	-1.055194	-0.471913
H174	H	-0.108148	-0.805194	-0.221913
H175	H	0.141852	-0.555194	0.028087
H176	H	0.391852	-0.305194	0.278087
H177	H	-0.886255	-1.571857	-0.441944
H178	H	-0.636255	-1.321857	-0.191944
H179	H	-0.386255	-1.071857	0.058056
H180	H	-0.136255	-0.821857	0.308056
H181	H	-0.307363	-1.608744	-1.128084
H182	H	-0.057363	-1.358744	-0.878084
H183	H	0.192637	-1.108744	-0.628084
H184	H	0.442637	-0.858744	-0.378084
H185	H	-0.495761	-0.874651	-0.652621
H186	H	-0.245761	-0.624651	-0.402621
H187	H	0.004239	-0.374651	-0.152621
H188	H	0.254239	-0.124651	0.097379
H189	H	-0.358168	-0.920648	-0.471922
H190	H	-0.108168	-0.670648	-0.221922
H191	H	0.141832	-0.420648	0.028078
H192	H	0.391832	-0.170648	0.278078
