data_functionalizedCrystal
_audit_creation_method	'MofGen! by Chris Wilmer'
_symmetry_space_group_name_H-M	'P1'
_symmetry_Int_Tables_number	1
_symmetry_cell_setting	triclinic
loop_
_symmetry_equiv_pos_as_xyz
  x,y,z
_cell_length_a	10.654550
_cell_length_b	14.971486
_cell_length_c	9.130313
_cell_angle_alpha	89.995272
_cell_angle_beta	89.999724
_cell_angle_gamma	84.049530
loop_
_atom_site_label
_atom_site_type_symbol
_atom_site_fract_x
_atom_site_fract_y
_atom_site_fract_z
O1	O	1.666492	0.125631	-0.121691
O2	O	2.166492	0.625631	0.378309
O3	O	1.300885	0.137600	-0.121718
O4	O	1.800885	0.637600	0.378282
O5	O	1.493487	0.001469	-0.121693
O6	O	1.993487	0.501469	0.378307
O7	O	1.473889	0.261762	-0.121716
O8	O	1.973889	0.761762	0.378284
O9	O	1.493474	0.001465	0.121906
O10	O	1.993474	0.501465	0.621906
O11	O	1.300872	0.137596	0.121881
O12	O	1.800872	0.637596	0.621881
O13	O	1.666479	0.125627	0.121908
O14	O	2.166479	0.625627	0.621908
Cu15	Cu	1.483674	0.131611	0.144137
Cu16	Cu	1.983674	0.631611	0.644137
Cu17	Cu	1.483689	0.131616	-0.143947
Cu18	Cu	1.983689	0.631616	0.356053
O19	O	1.473876	0.261758	0.121883
O20	O	1.973876	0.761758	0.621883
C21	C	1.254090	0.136720	0.000078
C22	C	1.754090	0.636720	0.500078
C23	C	1.114675	0.134090	0.000068
C24	C	1.614675	0.634090	0.500068
C25	C	1.492604	-0.031863	0.000106
C26	C	1.992604	0.468137	0.500106
C27	C	1.489978	-0.131174	0.000104
C28	C	1.989978	0.368826	0.500104
C29	C	1.034329	0.214242	0.000065
C30	C	1.534329	0.714242	0.500065
C31	C	0.903335	0.211766	0.000091
C32	C	1.403335	0.711766	0.500091
C33	C	0.933044	0.048979	0.000116
C34	C	1.433044	0.548979	0.500116
C35	C	1.064036	0.051456	0.000101
C36	C	1.564036	0.551456	0.500101
C37	C	1.603127	-0.187783	0.000114
C38	C	2.103127	0.312217	0.500114
C39	C	1.600651	-0.281096	0.000099
C40	C	2.100651	0.218904	0.500099
C41	C	1.485026	-0.317798	0.000085
C42	C	1.985026	0.182202	0.500085
C43	C	1.371868	-0.261181	0.000071
C44	C	1.871868	0.238819	0.500071
C45	C	1.374345	-0.167870	0.000075
C46	C	1.874345	0.332130	0.500075
C47	C	1.366714	-0.455672	0.000065
C48	C	1.866714	0.044328	0.500065
C49	C	1.364237	-0.548989	0.000064
C50	C	1.864237	-0.048989	0.500064
C51	C	1.593020	-0.568898	0.000089
C52	C	2.093020	-0.068898	0.500089
C53	C	1.595497	-0.475587	0.000093
C54	C	2.095497	0.024413	0.500093
C55	C	1.482339	-0.418976	0.000082
C56	C	1.982339	0.081024	0.500082
C57	C	1.713274	0.126508	0.000109
C58	C	2.213274	0.626508	0.500109
C59	C	1.852689	0.129137	0.000109
C60	C	2.352689	0.629137	0.500109
N61	N	1.483672	0.131608	0.346760
N62	N	1.983672	0.631608	0.846760
C63	C	1.474759	0.295090	0.000081
C64	C	1.974759	0.795090	0.500081
C65	C	1.477385	0.394401	0.000073
C66	C	1.977385	0.894401	0.500073
N67	N	1.483701	0.131613	-0.346570
N68	N	1.983701	0.631613	0.153430
C69	C	1.568985	0.071354	0.423422
C70	C	2.068985	0.571354	0.923422
C71	C	1.568997	0.071354	0.576759
C72	C	2.068997	0.571354	1.076759
C73	C	1.398379	0.191869	0.576757
C74	C	1.898379	0.691869	1.076757
C75	C	1.398362	0.191864	0.423423
C76	C	1.898362	0.691864	0.923423
H77	H	1.075554	0.281528	0.000050
H78	H	1.575554	0.781528	0.500050
Br79	Br	1.684778	-0.010425	0.680799
Br80	Br	2.184778	0.489575	1.180799
Br81	Br	0.864312	-0.063162	0.000155
Br82	Br	1.364312	0.436838	0.500155
Br83	Br	1.213141	-0.378843	0.000045
Br84	Br	1.713141	0.121157	0.500045
Br85	Br	1.684760	-0.010424	0.319385
Br86	Br	2.184760	0.489576	0.819385
H87	H	1.328884	0.240930	0.361000
H88	H	1.828884	0.740930	0.861000
H89	H	1.328923	0.240930	0.639192
H90	H	1.828923	0.740930	1.139192
H91	H	0.837922	0.277034	0.000092
H92	H	1.337922	0.777034	0.500092
H93	H	1.689649	-0.445708	0.000115
H94	H	2.189649	0.054292	0.500115
H95	H	1.129457	-0.013817	0.000107
H96	H	1.629457	0.486183	0.500107
H97	H	1.692789	-0.327185	0.000110
H98	H	2.192789	0.172815	0.500110
Br99	Br	1.760056	-0.137984	0.000154
Br100	Br	2.260056	0.362016	0.500154
Br101	Br	1.214945	-0.310989	0.000028
Br102	Br	1.714945	0.189011	0.500028
H103	H	1.685158	-0.614995	0.000093
H104	H	2.185158	-0.114995	0.500093
H105	H	1.270084	-0.578868	0.000076
H106	H	1.770084	-0.078868	0.500076
Br107	Br	1.220780	-0.091041	0.000051
Br108	Br	1.720780	0.408959	0.500051
