data_functionalizedCrystal
_audit_creation_method	'MofGen! by Chris Wilmer'
_symmetry_space_group_name_H-M	'P1'
_symmetry_Int_Tables_number	1
_symmetry_cell_setting	triclinic
loop_
_symmetry_equiv_pos_as_xyz
  x,y,z
_cell_length_a	33.510554
_cell_length_b	33.509711
_cell_length_c	33.506470
_cell_angle_alpha	60.004186
_cell_angle_beta	60.008358
_cell_angle_gamma	59.994760
loop_
_atom_site_label
_atom_site_type_symbol
_atom_site_fract_x
_atom_site_fract_y
_atom_site_fract_z
O1	O	0.055430	-0.583081	0.487524
O2	O	0.555430	-0.083081	0.987524
O3	O	0.020931	-0.453975	0.392819
O4	O	0.520931	0.046025	0.892819
O5	O	0.102693	-0.535652	0.392731
O6	O	0.602693	-0.035652	0.892731
O7	O	-0.026332	-0.501404	0.487613
O8	O	0.473668	-0.001404	0.987613
O9	O	0.129823	-0.508526	0.419767
O10	O	0.629823	-0.008526	0.919767
O11	O	0.048062	-0.426850	0.419856
O12	O	0.548062	0.073150	0.919856
O13	O	0.082561	-0.555956	0.514561
O14	O	0.582561	-0.055956	1.014561
Cu15	Cu	0.067789	-0.488926	0.469677
Cu16	Cu	0.567789	0.011074	0.969677
Cu17	Cu	0.035703	-0.521005	0.437703
Cu18	Cu	0.535703	-0.021005	0.937703
O19	O	0.000799	-0.474279	0.514649
O20	O	0.500799	0.025721	1.014649
N21	N	0.090357	-0.466366	0.492168
N22	N	0.590357	0.033634	0.992168
N23	N	0.013139	-0.543569	0.415212
N24	N	0.513139	-0.043569	0.915212
C25	C	0.143028	-0.279707	0.544737
C26	C	0.643028	0.220293	1.044737
C27	C	0.143165	-0.413746	0.678712
C28	C	0.643165	0.086254	1.178712
C29	C	0.143043	-0.413725	0.544739
C30	C	0.643043	0.086275	1.044739
C31	C	0.277090	-0.413694	0.544637
C32	C	0.777090	0.086306	1.044637
C33	C	0.157791	-0.323929	0.559462
C34	C	0.657791	0.176071	1.059462
C35	C	0.157869	-0.398994	0.634489
C36	C	0.657869	0.101006	1.134489
C37	C	0.232865	-0.398963	0.559407
C38	C	0.732865	0.101037	1.059407
C39	C	0.157801	-0.398982	0.559463
C40	C	0.657801	0.101018	1.059463
C41	C	0.124237	-0.223419	0.525994
C42	C	0.624237	0.276581	1.025994
C43	C	0.124262	-0.432490	0.525997
C44	C	0.624262	0.067510	1.025997
C45	C	0.176583	-0.380217	0.578205
C46	C	0.676583	0.119783	1.078205
C47	C	0.358938	-0.399566	0.501510
C48	C	0.858938	0.100434	1.001510
C49	C	0.410104	-0.416609	0.484423
C50	C	0.910104	0.083391	0.984423
C51	C	0.410135	-0.499402	0.515995
C52	C	0.910135	0.000598	1.015995
C53	C	0.358969	-0.482358	0.533084
C54	C	0.858969	0.017642	1.033084
C55	C	0.136554	-0.197822	0.475693
C56	C	0.636554	0.302178	0.975693
C57	C	0.119469	-0.146653	0.458657
C58	C	0.619469	0.353347	0.958657
C59	C	0.077755	-0.146680	0.542223
C60	C	0.577755	0.353320	1.042223
C61	C	0.094840	-0.197850	0.559260
C62	C	0.594840	0.302150	1.059260
C63	C	0.073954	-0.420144	0.538396
C64	C	0.573954	0.079856	1.038396
C65	C	0.056884	-0.437203	0.521352
C66	C	0.556884	0.062797	1.021352
C67	C	0.140427	-0.478952	0.479524
C68	C	0.640427	0.021048	0.979524
C69	C	0.157498	-0.461894	0.496561
C70	C	0.657498	0.038106	0.996561
C71	C	0.074158	-0.420182	0.760618
C72	C	0.574158	0.079818	1.260618
C73	C	0.057149	-0.437256	0.811786
C74	C	0.557149	0.062744	1.311786
C75	C	0.140732	-0.479014	0.811717
C76	C	0.640732	0.020986	1.311717
C77	C	0.157740	-0.461942	0.760547
C78	C	0.657740	0.038058	1.260547
C79	C	0.124452	-0.432525	0.734999
C80	C	0.624452	0.067475	1.234999
C81	C	0.333372	-0.432439	0.525839
C82	C	0.833372	0.067561	1.025839
C83	C	-0.020612	-0.577650	0.170305
C84	C	0.479388	-0.077650	0.670305
C85	C	-0.020943	-0.788098	0.380897
C86	C	0.479057	-0.288098	0.880897
C87	C	-0.020912	-0.577638	0.380991
C88	C	0.479088	-0.077638	0.880991
C89	C	-0.231336	-0.577418	0.380585
C90	C	0.268664	-0.077418	0.880585
C91	C	-0.129735	-0.611383	0.346870
C92	C	0.370265	-0.111383	0.846870
C93	C	-0.054722	-0.611464	0.347017
C94	C	0.445278	-0.111464	0.847017
C95	C	-0.073450	-0.630202	0.328195
C96	C	0.426550	-0.130202	0.828195
C97	C	-0.087616	-0.712029	0.371239
C98	C	0.412384	-0.212029	0.871239
C99	C	-0.070599	-0.763199	0.388315
C100	C	0.429401	-0.263199	0.888315
C101	C	0.012191	-0.763282	0.356872
C102	C	0.512191	-0.263282	0.856872
C103	C	-0.004828	-0.712113	0.339795
C104	C	0.495172	-0.212113	0.839795
C105	C	-0.155381	-0.623711	0.397158
C106	C	0.344619	-0.123711	0.897158
C107	C	-0.206547	-0.606601	0.414133
C108	C	0.293453	-0.106601	0.914133
C109	C	-0.206417	-0.564839	0.330529
C110	C	0.293583	-0.064839	0.830529
C111	C	-0.155251	-0.581949	0.313554
C112	C	0.344749	-0.081949	0.813554
C113	C	-0.067051	-0.561160	0.334643
C114	C	0.432949	-0.061160	0.834643
C115	C	-0.050026	-0.544131	0.351759
C116	C	0.449974	-0.044131	0.851759
C117	C	-0.008343	-0.627704	0.393612
C118	C	0.491657	-0.127704	0.893612
C119	C	-0.025368	-0.644736	0.376502
C120	C	0.474632	-0.144736	0.876502
C121	C	-0.066922	-0.561168	0.246303
C122	C	0.433078	-0.061168	0.746303
C123	C	-0.049794	-0.544141	0.195134
C124	C	0.450206	-0.044141	0.695134
C125	C	-0.008048	-0.627719	0.195183
C126	C	0.491952	-0.127719	0.695183
C127	C	-0.025175	-0.644745	0.246352
C128	C	0.474825	-0.144745	0.746352
C129	C	-0.054614	-0.611468	0.271911
C130	C	0.445386	-0.111468	0.771911
C131	C	-0.054732	-0.686488	0.346980
C132	C	0.445268	-0.186488	0.846980
C133	C	-0.002117	-0.558258	0.114025
C134	C	0.497883	-0.058258	0.614025
C135	C	-0.002879	-0.844379	0.399940
C136	C	0.497121	-0.344379	0.899940
C137	C	-0.002504	-0.558243	0.399473
C138	C	0.497496	-0.058243	0.899473
C139	C	-0.287615	-0.558285	0.398601
C140	C	0.212385	-0.058285	0.898601
N141	N	0.434975	-0.466279	0.491900
N142	N	0.934975	0.033721	0.991900
O143	O	0.591199	-0.470749	0.375150
O144	O	1.091199	0.029251	0.875150
O145	O	0.591395	-0.565767	0.504116
O146	O	1.091395	-0.065767	1.004116
O147	O	0.591311	-0.565550	0.422329
O148	O	1.091311	-0.065550	0.922329
O149	O	0.591283	-0.470966	0.456937
O150	O	1.091283	0.029034	0.956937
O151	O	0.510024	-0.538522	0.449509
O152	O	1.010024	-0.038522	0.949509
O153	O	0.510108	-0.538739	0.531297
O154	O	1.010108	-0.038739	1.031297
O155	O	0.509913	-0.443721	0.402330
O156	O	1.009913	0.056279	0.902330
Cu157	Cu	0.502588	-0.488762	0.469295
Cu158	Cu	1.002588	0.011238	0.969295
Cu159	Cu	0.598719	-0.520726	0.437151
Cu160	Cu	1.098719	-0.020726	0.937151
O161	O	0.509997	-0.443938	0.484117
O162	O	1.009997	0.056062	0.984117
N163	N	0.666332	-0.543209	0.414541
N164	N	1.166332	-0.043209	0.914541
N165	N	0.090323	-0.121809	0.492157
N166	N	0.590323	0.378191	0.992157
O167	O	-0.026342	0.034503	0.487582
O168	O	0.473658	0.534503	0.987582
O169	O	0.102626	0.034543	0.392540
O170	O	0.602626	0.534543	0.892540
O171	O	0.020797	0.034507	0.392812
O172	O	0.520797	0.534507	0.892812
O173	O	0.055487	0.034539	0.487310
O174	O	0.555487	0.534539	0.987310
O175	O	0.047933	-0.046785	0.419900
O176	O	0.547933	0.453215	0.919900
O177	O	0.129763	-0.046749	0.419628
O178	O	0.629763	0.453251	0.919628
O179	O	0.000794	-0.046789	0.514670
O180	O	0.500794	0.453211	1.014670
Cu181	Cu	0.067756	-0.054192	0.469623
Cu182	Cu	0.567756	0.445808	0.969623
Cu183	Cu	0.035664	0.041946	0.437588
Cu184	Cu	0.535664	0.541946	0.937588
O185	O	0.082623	-0.046753	0.514399
O186	O	0.582623	0.453247	1.014399
N187	N	0.013091	0.109564	0.415054
N188	N	0.513091	0.609564	0.915054
N189	N	0.090671	-0.466416	0.836606
N190	N	0.590671	0.033584	1.336606
O191	O	0.086120	-0.583065	0.992910
O192	O	0.586120	-0.083065	1.492910
O193	O	-0.008880	-0.454051	0.992954
O194	O	0.491120	0.045949	1.492954
O195	O	-0.008658	-0.535864	0.992931
O196	O	0.491342	-0.035864	1.492931
O197	O	0.085897	-0.501252	0.992933
O198	O	0.585897	-0.001252	1.492933
O199	O	0.018407	-0.508749	0.911642
O200	O	0.518407	-0.008749	1.411642
O201	O	0.018185	-0.426936	0.911665
O202	O	0.518185	0.073064	1.411665
O203	O	0.113185	-0.555949	0.911621
O204	O	0.613185	-0.055949	1.411621
Cu205	Cu	0.068156	-0.488967	0.904221
Cu206	Cu	0.568156	0.011033	1.404221
Cu207	Cu	0.036148	-0.521034	1.000355
Cu208	Cu	0.536148	-0.021034	1.500355
O209	O	0.112963	-0.474136	0.911644
O210	O	0.612963	0.025864	1.411644
N211	N	0.013633	-0.543590	1.067970
N212	N	0.513633	-0.043590	1.567970
C213	C	0.031262	-0.424144	0.393290
C214	C	0.531262	0.075856	0.893290
C215	C	0.132513	-0.525291	0.393180
C216	C	0.632513	-0.025291	0.893180
C217	C	0.072229	-0.585787	0.514090
C218	C	0.572229	-0.085787	1.014090
C219	C	-0.029022	-0.484640	0.514200
C220	C	0.470978	0.015360	1.014200
C221	C	0.550775	-0.565338	0.533954
C222	C	1.050775	-0.065338	1.033954
C223	C	0.550672	-0.565070	0.432670
C224	C	1.050672	-0.065070	0.932670
C225	C	0.550530	-0.444149	0.372492
C226	C	1.050530	0.055851	0.872492
C227	C	0.550635	-0.444418	0.473776
C228	C	1.050635	0.055582	0.973776
C229	C	0.132408	-0.005998	0.392963
C230	C	0.632408	0.494002	0.892963
C231	C	0.031106	-0.006142	0.393333
C232	C	0.531106	0.493858	0.893333
C233	C	-0.029021	-0.006147	0.514213
C234	C	0.470979	0.493853	1.014213
C235	C	0.072314	-0.006104	0.513878
C236	C	0.572314	0.493896	1.013878
C237	C	-0.008430	-0.424240	0.952316
C238	C	0.491570	0.075760	1.452316
C239	C	-0.008150	-0.525550	0.952271
C240	C	0.491850	-0.025550	1.452271
C241	C	0.112735	-0.585760	0.952260
C242	C	0.612735	-0.085760	1.452260
C243	C	0.112461	-0.484444	0.952286
C244	C	0.612461	0.015556	1.452286
H245	H	0.016194	-0.427197	0.832639
H246	H	0.516194	0.072803	1.332639
H247	H	-0.038255	-0.387188	0.952329
H248	H	0.461745	0.112812	1.452329
H249	H	-0.037843	-0.532946	0.952238
H250	H	0.462157	-0.032946	1.452238
H251	H	0.169570	-0.532590	0.363385
H252	H	0.669570	-0.032590	0.863385
O253	O	0.022236	-0.006069	0.357872
O254	O	0.522236	0.493931	0.857872
C255	C	0.027642	0.036028	0.316647
C256	C	0.527642	0.536028	0.816647
H257	H	0.022356	0.065464	0.328329
H258	H	0.522356	0.565464	0.828329
H259	H	-0.000853	0.050144	0.299336
H260	H	0.499147	0.550144	0.799336
H261	H	0.065794	0.026517	0.288938
H262	H	0.565794	0.526517	0.788938
O263	O	0.550689	-0.409030	0.482643
O264	O	1.050689	0.090970	0.982643
C265	C	0.592824	-0.425834	0.494086
C266	C	1.092824	0.074166	0.994086
H267	H	0.606902	-0.467499	0.508101
H268	H	1.106902	0.032501	1.008101
H269	H	0.583378	-0.411716	0.523497
H270	H	1.083378	0.088284	1.023497
H271	H	0.622263	-0.411875	0.459916
H272	H	1.122263	0.088125	0.959916
H273	H	-0.066081	-0.477343	0.543993
H274	H	0.433919	0.022657	1.043993
O275	O	0.550599	-0.600475	0.423845
O276	O	1.050599	-0.100475	0.923845
C277	C	0.508478	-0.583663	0.412375
C278	C	1.008478	-0.083663	0.912375
H279	H	0.479046	-0.553330	0.428176
H280	H	0.979046	-0.053330	0.928176
H281	H	0.494381	-0.615160	0.428690
H282	H	0.994381	-0.115160	0.928690
H283	H	0.517945	-0.568905	0.370987
H284	H	1.017945	-0.068905	0.870987
O285	O	0.550755	-0.600915	0.578161
O286	O	1.050755	-0.100915	1.078161
C287	C	0.508689	-0.614087	0.599821
C288	C	1.008689	-0.114087	1.099821
H289	H	0.479223	-0.582709	0.583691
H290	H	0.979223	-0.082709	1.083691
H291	H	0.494603	-0.622182	0.640952
H292	H	0.994603	-0.122182	1.140952
H293	H	0.518224	-0.648021	0.592335
H294	H	1.018224	-0.148021	1.092335
O295	O	0.041688	-0.391645	0.567054
O296	O	0.541688	0.108355	1.067054
C297	C	0.049101	-0.414902	0.612526
C298	C	0.549101	0.085098	1.112526
H299	H	0.067680	-0.455922	0.619548
H300	H	0.567680	0.044078	1.119548
H301	H	0.012361	-0.407779	0.642749
H302	H	0.512361	0.092221	1.142749
H303	H	0.073257	-0.399810	0.612050
H304	H	0.573257	0.100190	1.112050
H305	H	0.550467	-0.414317	0.335455
H306	H	1.050467	0.085683	0.835455
O307	O	0.081136	-0.006164	0.549362
O308	O	0.581136	0.493836	1.049362
C309	C	0.075750	-0.048278	0.590571
C310	C	0.575750	0.451722	1.090571
H311	H	0.051232	-0.062325	0.590202
H312	H	0.551232	0.437675	1.090202
H313	H	0.058525	-0.038812	0.625261
H314	H	0.558525	0.461188	1.125261
H315	H	0.113137	-0.077749	0.589572
H316	H	0.613137	0.422251	1.089572
O317	O	0.080940	-0.630034	0.549594
O318	O	0.580940	-0.130034	1.049594
C319	C	0.047414	-0.651756	0.562760
C320	C	0.547414	-0.151756	1.062760
H321	H	0.013558	-0.622158	0.552979
H322	H	0.513558	-0.122158	1.052979
H323	H	0.036458	-0.672305	0.603772
H324	H	0.536458	-0.172305	1.103772
H325	H	0.065116	-0.678370	0.542178
H326	H	0.565116	-0.178370	1.042178
O327	O	0.148259	-0.629996	0.952263
O328	O	0.648259	-0.129996	1.452263
C329	C	0.130671	-0.660409	0.952242
C330	C	0.630671	-0.160409	1.452242
H331	H	0.089039	-0.647175	0.967641
H332	H	0.589039	-0.147175	1.467641
H333	H	0.145670	-0.699566	0.975828
H334	H	0.645670	-0.199566	1.475828
H335	H	0.143081	-0.659077	0.913239
H336	H	0.643081	-0.159077	1.413239
O337	O	0.147856	-0.475523	0.952258
O338	O	0.647856	0.024477	1.452258
C339	C	0.130046	-0.427480	0.952284
C340	C	0.630046	0.072520	1.452284
H341	H	0.098660	-0.404354	0.936907
H342	H	0.598660	0.095646	1.436907
H343	H	0.160649	-0.411032	0.928680
H344	H	0.660649	0.088968	1.428680
H345	H	0.116428	-0.428204	0.991285
H346	H	0.616428	0.071796	1.491285
O347	O	0.334018	-0.351093	0.494561
O348	O	0.834018	0.148907	0.994561
C349	C	0.304460	-0.344143	0.540239
C350	C	0.804460	0.155857	1.040239
H351	H	0.296817	-0.379327	0.568754
H352	H	0.796817	0.120673	1.068754
H353	H	0.268468	-0.313423	0.537309
H354	H	0.768468	0.186577	1.037309
H355	H	0.324195	-0.334058	0.551591
H356	H	0.824195	0.165942	1.051591
H357	H	0.047048	-0.396226	0.739820
H358	H	0.547048	0.103774	1.239820
H359	H	0.169370	-0.005761	0.363053
H360	H	0.669370	0.494239	0.863053
O361	O	-0.073208	-0.006091	0.549828
O362	O	0.426792	0.493909	1.049828
C363	C	-0.094838	0.036020	0.562934
C364	C	0.405162	0.536020	1.062934
H365	H	-0.065197	0.050069	0.553001
H366	H	0.434803	0.550069	1.053001
H367	H	-0.115276	0.026551	0.603964
H368	H	0.384724	0.526551	1.103964
H369	H	-0.121532	0.065492	0.542435
H370	H	0.378468	0.565492	1.042435
H371	H	0.198696	-0.471996	0.739692
H372	H	0.698696	0.028004	1.239692
O373	O	0.173085	-0.507655	0.836515
O374	O	0.673085	-0.007655	1.336515
C375	C	0.202676	-0.550556	0.823981
C376	C	0.702676	-0.050556	1.323981
H377	H	0.182904	-0.557671	0.809930
H378	H	0.682904	-0.057671	1.309930
H379	H	0.210444	-0.582795	0.857616
H380	H	0.710444	-0.082795	1.357616
H381	H	0.238608	-0.545894	0.794262
H382	H	0.738608	-0.045894	1.294262
O383	O	0.008011	-0.425275	0.533479
O384	O	0.508011	0.074725	1.033479
C385	C	-0.013193	-0.442788	0.584732
C386	C	0.486807	0.057212	1.084732
H387	H	0.015969	-0.474342	0.601195
H388	H	0.515969	0.025658	1.101195
H389	H	-0.043350	-0.456086	0.594546
H390	H	0.456650	0.043914	1.094546
H391	H	-0.029345	-0.412099	0.599901
H392	H	0.470655	0.087901	1.099901
O393	O	0.172783	-0.507496	0.450919
O394	O	0.672783	-0.007496	0.950919
C395	C	0.220846	-0.514746	0.443645
C396	C	0.720846	-0.014746	0.943645
H397	H	0.220757	-0.483897	0.449361
H398	H	0.720757	0.016103	0.949361
H399	H	0.245110	-0.515002	0.404830
H400	H	0.745110	-0.015002	0.904830
H401	H	0.235536	-0.551200	0.470862
H402	H	0.735536	-0.051200	0.970862
H403	H	0.198463	-0.471942	0.486461
H404	H	0.698463	0.028058	0.986461
H405	H	0.430973	-0.540048	0.521891
H406	H	0.930973	-0.040048	1.021891
O407	O	0.334163	-0.514305	0.556636
O408	O	0.834163	-0.014305	1.056636
C409	C	0.346659	-0.538269	0.525322
C410	C	0.846659	-0.038269	1.025322
H411	H	0.360688	-0.514960	0.485711
H412	H	0.860688	-0.014960	0.985711
H413	H	0.313011	-0.544035	0.531387
H414	H	0.813011	-0.044035	1.031387
H415	H	0.376381	-0.575189	0.533548
H416	H	0.876381	-0.075189	1.033548
O417	O	0.434919	-0.384645	0.460714
O418	O	0.934919	0.115355	0.960714
C419	C	0.422364	-0.349902	0.418553
C420	C	0.922364	0.150098	0.918553
H421	H	0.408281	-0.365672	0.406813
H422	H	0.908281	0.134328	0.906813
H423	H	0.455995	-0.340527	0.387820
H424	H	0.955995	0.159473	0.887820
H425	H	0.392664	-0.315413	0.426932
H426	H	0.892664	0.184587	0.926932
O427	O	0.165085	-0.222583	0.443312
O428	O	0.665085	0.277417	0.943312
C429	C	0.172298	-0.189017	0.395261
C430	C	0.672298	0.310983	0.895261
H431	H	0.141437	-0.152550	0.395376
H432	H	0.641437	0.347450	0.895376
H433	H	0.172544	-0.203799	0.370977
H434	H	0.672544	0.296201	0.870977
H435	H	0.208743	-0.183560	0.380573
H436	H	0.708743	0.316440	0.880573
H437	H	0.053825	-0.125861	0.569312
H438	H	0.553825	0.374139	1.069312
O439	O	0.131452	-0.121731	0.409804
O440	O	0.631452	0.378269	0.909804
C441	C	0.157210	-0.092129	0.397419
C442	C	0.657210	0.407871	0.897419
H443	H	0.148006	-0.084470	0.431134
H444	H	0.648006	0.415530	0.931134
H445	H	0.146291	-0.056144	0.367759
H446	H	0.646291	0.443856	0.867759
H447	H	0.198162	-0.111834	0.383347
H448	H	0.698162	0.388166	0.883347
H449	H	0.084809	-0.218687	0.600218
H450	H	0.584809	0.281313	1.100218
H451	H	-0.090896	-0.534066	0.267110
H452	H	0.409104	-0.034066	0.767110
O453	O	-0.061823	-0.495259	0.170339
O454	O	0.438177	0.004741	0.670339
C455	C	-0.091469	-0.469544	0.203873
C456	C	0.408531	0.030456	0.703873
H457	H	-0.110114	-0.493923	0.240329
H458	H	0.389886	0.006077	0.740329
H459	H	-0.120383	-0.435381	0.189037
H460	H	0.379617	0.064619	0.689037
H461	H	-0.067884	-0.458534	0.209369
H462	H	0.432116	0.041466	0.709369
O463	O	0.020483	-0.660092	0.170413
O464	O	0.520483	-0.160092	0.670413
C465	C	-0.005374	-0.689626	0.182858
C466	C	0.494626	-0.189626	0.682858
H467	H	-0.035199	-0.690089	0.219979
H468	H	0.464801	-0.190089	0.719979
H469	H	0.020858	-0.728448	0.184650
H470	H	0.520858	-0.228448	0.684650
H471	H	-0.022687	-0.674225	0.154010
H472	H	0.477313	-0.174225	0.654010
O473	O	-0.013304	-0.693598	0.271282
O474	O	0.486696	-0.193598	0.771282
C475	C	-0.056319	-0.705913	0.300804
C476	C	0.443681	-0.205913	0.800804
H477	H	-0.088462	-0.672170	0.308426
H478	H	0.411538	-0.172170	0.808426
H479	H	-0.051802	-0.735581	0.336811
H480	H	0.448198	-0.235581	0.836811
H481	H	-0.063479	-0.719948	0.281050
H482	H	0.436521	-0.219948	0.781050
H483	H	-0.227194	-0.540877	0.303400
H484	H	0.272806	-0.040877	0.803400
H485	H	-0.090949	-0.534065	0.310634
H486	H	0.409051	-0.034065	0.810634
H487	H	-0.060067	-0.503170	0.341685
H488	H	0.439933	-0.003170	0.841685
H489	H	0.015562	-0.654800	0.417614
H490	H	0.515562	-0.154800	0.917614
H491	H	0.021953	-0.691318	0.320042
H492	H	0.521953	-0.191318	0.820042
O493	O	-0.013329	-0.693616	0.388545
O494	O	0.486671	-0.193616	0.888545
C495	C	0.016220	-0.719333	0.418248
C496	C	0.516220	-0.219333	0.918248
H497	H	0.034825	-0.694957	0.411764
H498	H	0.534825	-0.194957	0.911764
H499	H	0.045167	-0.753500	0.408690
H500	H	0.545167	-0.253500	0.908690
H501	H	-0.007435	-0.730337	0.458307
H502	H	0.492565	-0.230337	0.958307
H503	H	0.052828	-0.784146	0.351024
H504	H	0.552828	-0.284146	0.851024
H505	H	-0.128252	-0.691169	0.377093
H506	H	0.371748	-0.191169	0.877093
O507	O	-0.102608	-0.787933	0.411857
O508	O	0.397392	-0.287933	0.911857
C509	C	-0.126551	-0.775429	0.380520
C510	C	0.373449	-0.275429	0.880520
H511	H	-0.125303	-0.738312	0.351356
H512	H	0.374697	-0.238312	0.851356
H513	H	-0.166231	-0.773598	0.402617
H514	H	0.333769	-0.273598	0.902617
H515	H	-0.107482	-0.804266	0.362249
H516	H	0.392518	-0.304266	0.862249
O517	O	-0.130669	-0.652279	0.429585
O518	O	0.369331	-0.152279	0.929585
C519	C	-0.164279	-0.659497	0.477612
C520	C	0.335721	-0.159497	0.977612
H521	H	-0.200730	-0.628617	0.477463
H522	H	0.299270	-0.128617	0.977463
H523	H	-0.149536	-0.659779	0.501951
H524	H	0.350464	-0.159779	1.001951
H525	H	-0.169748	-0.695929	0.492259
H526	H	0.330252	-0.195929	0.992259
H527	H	-0.134369	-0.571905	0.272603
H528	H	0.365631	-0.071905	0.772603
O529	O	-0.231519	-0.618595	0.462974
O530	O	0.268481	-0.118595	0.962974
C531	C	-0.261115	-0.644323	0.475275
C532	C	0.238885	-0.144323	0.975275
H533	H	-0.268721	-0.635087	0.441516
H534	H	0.231279	-0.135087	0.941516
H535	H	-0.297124	-0.633401	0.504906
H536	H	0.202876	-0.133401	1.004906
H537	H	-0.241433	-0.685283	0.489351
H538	H	0.258567	-0.185283	0.989351
H539	H	0.023891	-0.387055	0.363546
H540	H	0.523891	0.112945	0.863546
