data_functionalizedCrystal
_audit_creation_method	'MofGen! by Chris Wilmer'
_symmetry_space_group_name_H-M	'P1'
_symmetry_Int_Tables_number	1
_symmetry_cell_setting	triclinic
loop_
_symmetry_equiv_pos_as_xyz
  x,y,z
_cell_length_a	38.067023
_cell_length_b	38.077490
_cell_length_c	38.067077
_cell_angle_alpha	59.997704
_cell_angle_beta	89.998734
_cell_angle_gamma	60.000154
loop_
_atom_site_label
_atom_site_type_symbol
_atom_site_fract_x
_atom_site_fract_y
_atom_site_fract_z
O1	O	-0.299412	-0.251366	0.010448
O2	O	-0.248328	-0.179451	-0.010403
O3	O	-0.248326	-0.251365	0.061532
O4	O	-0.299414	-0.179451	-0.061486
O5	O	-0.189899	-0.309776	0.061532
O6	O	-0.189901	-0.237861	-0.010403
O7	O	-0.240985	-0.309777	0.010448
Zn8	Zn	-0.206167	-0.283093	0.000023
Zn9	Zn	-0.283146	-0.206135	0.000023
O10	O	-0.240987	-0.237862	-0.061487
C11	C	-0.128227	-0.039355	-0.025248
C12	C	-0.085950	-0.060389	-0.025544
C13	C	-0.128229	-0.102948	-0.025252
C14	C	-0.085951	-0.123885	-0.025548
C15	C	-0.064614	-0.102951	-0.025248
C16	C	-0.149467	-0.060386	-0.025548
C17	C	-0.191984	0.024217	-0.020086
C18	C	-0.212145	0.064391	-0.016827
C19	C	-0.190407	0.084538	-0.015189
C20	C	-0.212265	0.128095	-0.011653
C21	C	-0.148508	0.064518	-0.016815
C22	C	-0.128349	0.024348	-0.020076
C23	C	-0.150087	0.004198	-0.021710
C24	C	0.004140	-0.107949	-0.020081
C25	C	0.047584	-0.131226	-0.016822
C26	C	0.069372	-0.174739	-0.015188
C27	C	0.116478	-0.199981	-0.011652
C28	C	0.047720	-0.194979	-0.016818
C29	C	0.004278	-0.171702	-0.020080
C30	C	-0.017511	-0.128189	-0.021709
C31	C	-0.191986	-0.107941	-0.020095
C32	C	-0.212147	-0.131219	-0.016834
C33	C	-0.190411	-0.174732	-0.015200
C34	C	-0.212269	-0.199971	-0.011669
C35	C	-0.148514	-0.194974	-0.016824
C36	C	-0.128351	-0.171700	-0.020083
C37	C	-0.150089	-0.128183	-0.021719
C38	C	-0.463698	-0.431923	0.031681
C39	C	-0.442362	-0.474487	0.031979
C40	C	-0.400086	-0.431922	0.031678
C41	C	-0.378847	-0.474485	0.031976
C42	C	-0.400085	-0.495519	0.031681
C43	C	-0.442363	-0.410986	0.031977
C44	C	-0.617099	-0.317399	0.020167
C45	C	-0.660541	-0.293986	0.016912
C46	C	-0.682333	-0.314084	0.015279
C47	C	-0.729438	-0.288695	0.011741
C48	C	-0.660680	-0.357598	0.016905
C49	C	-0.617240	-0.381011	0.020166
C50	C	-0.595450	-0.360909	0.021797
C51	C	-0.361240	-0.637368	0.020169
C52	C	-0.341218	-0.677543	0.016913
C53	C	-0.299325	-0.697695	0.015276
C54	C	-0.277614	-0.741250	0.011740
C55	C	-0.277453	-0.677671	0.016899
C56	C	-0.297472	-0.637503	0.020162
C57	C	-0.339370	-0.617352	0.021794
C58	C	-0.361243	-0.317391	0.020154
C59	C	-0.341223	-0.293973	0.016891
C60	C	-0.299329	-0.314068	0.015255
C61	C	-0.277621	-0.288678	0.011714
C62	C	-0.277458	-0.357579	0.016879
C63	C	-0.297480	-0.380994	0.020141
C64	C	-0.339372	-0.360898	0.021783
C65	C	-0.548347	-0.386298	0.025329
C66	C	-0.510801	-0.406535	0.028146
C67	C	-0.378379	-0.406531	0.028139
C68	C	-0.361077	-0.386292	0.025320
C69	C	-0.378378	-0.539074	0.028145
C70	C	-0.361075	-0.573793	0.025328
C71	C	-0.400366	-0.057316	-0.406377
C72	C	-0.442644	-0.014753	-0.427617
C73	C	-0.400367	-0.057315	-0.342764
C74	C	-0.442645	-0.014752	-0.364100
C75	C	-0.463980	0.006280	-0.406378
C76	C	-0.379128	-0.078252	-0.364099
C77	C	-0.297324	-0.171843	-0.445218
C78	C	-0.277160	-0.195257	-0.465240
C79	C	-0.298897	-0.175161	-0.507135
C80	C	-0.277039	-0.200550	-0.528843
C81	C	-0.340797	-0.131647	-0.529008
C82	C	-0.360956	-0.108233	-0.508988
C83	C	-0.339217	-0.128333	-0.467092
C84	C	-0.617383	0.148127	-0.509421
C85	C	-0.660825	0.188302	-0.529585
C86	C	-0.682620	0.208455	-0.507851
C87	C	-0.729723	0.252009	-0.529707
C88	C	-0.660967	0.188432	-0.465950
C89	C	-0.617524	0.148265	-0.445790
C90	C	-0.595735	0.128112	-0.467530
C91	C	-0.297326	-0.171842	-0.189359
C92	C	-0.277164	-0.195259	-0.145915
C93	C	-0.298901	-0.175162	-0.124123
C94	C	-0.277044	-0.200551	-0.077017
C95	C	-0.340800	-0.131651	-0.145775
C96	C	-0.360960	-0.108238	-0.189218
C97	C	-0.339217	-0.128335	-0.211008
C98	C	-0.361081	-0.102944	-0.445385
C99	C	-0.378507	-0.082705	-0.428083
C100	C	-0.378507	-0.082704	-0.295660
C101	C	-0.361082	-0.102942	-0.258114
C102	C	-0.511083	0.049835	-0.428238
C103	C	-0.548630	0.084554	-0.445664
O104	O	0.255029	-0.309790	0.010469
O105	O	0.132012	-0.237874	-0.010380
O106	O	0.203941	-0.309792	0.061554
O107	O	0.183100	-0.237872	-0.061465
O108	O	0.203942	-0.251384	0.061558
O109	O	0.132013	-0.179466	-0.010377
O110	O	0.255030	-0.251382	0.010473
Zn111	Zn	0.193522	-0.206151	0.000049
Zn112	Zn	0.193520	-0.283106	0.000044
O113	O	0.183101	-0.179464	-0.061461
O114	O	-0.240980	0.244491	0.010471
O115	O	-0.189894	0.142351	-0.010378
O116	O	-0.189896	0.142345	0.061556
O117	O	-0.240977	0.244497	-0.061463
O118	O	-0.248324	0.142347	0.061552
O119	O	-0.248322	0.142354	-0.010382
O120	O	-0.299407	0.244493	0.010467
Zn121	Zn	-0.283141	0.193424	0.000042
Zn122	Zn	-0.206160	0.193421	0.000047
O123	O	-0.299405	0.244499	-0.061467
O124	O	-0.868274	0.368411	-0.558424
O125	O	-0.745257	0.266268	-0.507336
O126	O	-0.817186	0.266266	-0.507334
O127	O	-0.796344	0.368414	-0.558426
O128	O	-0.817185	0.266264	-0.565760
O129	O	-0.745255	0.266267	-0.565762
O130	O	-0.868272	0.368410	-0.616850
Zn131	Zn	-0.806764	0.317338	-0.600583
Zn132	Zn	-0.806765	0.317340	-0.523604
O133	O	-0.796342	0.368413	-0.616852
O134	O	-0.248325	-0.251366	-0.616562
O135	O	-0.299411	-0.179454	-0.565477
O136	O	-0.299410	-0.251368	-0.565474
O137	O	-0.248326	-0.179452	-0.616565
O138	O	-0.240982	-0.309779	-0.507046
O139	O	-0.240984	-0.237866	-0.507050
O140	O	-0.189898	-0.309777	-0.558134
Zn141	Zn	-0.206164	-0.283096	-0.523316
Zn142	Zn	-0.283145	-0.206136	-0.600296
O143	O	-0.189899	-0.237864	-0.558138
C144	C	-0.064616	-0.449882	0.321773
C145	C	-0.085952	-0.428850	0.343012
C146	C	-0.128230	-0.386287	0.258159
C147	C	-0.149469	-0.365351	0.279495
C148	C	-0.128229	-0.386287	0.321772
C149	C	-0.085952	-0.428850	0.279495
C150	C	0.004137	-0.513456	0.321608
C151	C	0.047581	-0.553630	0.341633
C152	C	0.069370	-0.573779	0.383524
C153	C	0.116475	-0.617338	0.405237
C154	C	0.047719	-0.553761	0.405398
C155	C	0.004276	-0.513590	0.385375
C156	C	-0.017513	-0.493437	0.343480
C157	C	-0.128064	-0.381291	0.385528
C158	C	-0.148088	-0.358015	0.405689
C159	C	-0.189980	-0.314501	0.383952
C160	C	-0.211692	-0.289261	0.405809
C161	C	-0.211854	-0.294260	0.342053
C162	C	-0.191832	-0.317536	0.321894
C163	C	-0.149937	-0.361050	0.343631
C164	C	-0.128065	-0.381291	0.189406
C165	C	-0.148087	-0.358011	0.145960
C166	C	-0.189978	-0.314497	0.124170
C167	C	-0.211691	-0.289256	0.077065
C168	C	-0.211851	-0.294255	0.145820
C169	C	-0.191830	-0.317532	0.189264
C170	C	-0.149937	-0.361049	0.211055
C171	C	0.218795	-0.386318	0.321799
C172	C	0.219090	-0.428881	0.343036
C173	C	0.218796	-0.386313	0.258183
C174	C	0.219092	-0.428876	0.279518
C175	C	0.218793	-0.449911	0.321795
C176	C	0.219094	-0.365380	0.279521
C177	C	0.213634	-0.317421	0.321636
C178	C	0.210376	-0.294010	0.341662
C179	C	0.208740	-0.314109	0.383554
C180	C	0.205205	-0.288726	0.405268
C181	C	0.210366	-0.357622	0.405427
C182	C	0.213626	-0.381034	0.385403
C183	C	0.215258	-0.360931	0.343507
C184	C	0.213628	-0.513486	0.385550
C185	C	0.210368	-0.553661	0.405710
C186	C	0.208734	-0.573807	0.383972
C187	C	0.205197	-0.617365	0.405828
C188	C	0.210362	-0.553786	0.342073
C189	C	0.213624	-0.513615	0.321915
C190	C	0.215255	-0.493465	0.343653
C191	C	0.213638	-0.317412	0.189431
C192	C	0.210375	-0.293992	0.145985
C193	C	0.208741	-0.314087	0.124194
C194	C	0.205208	-0.288698	0.077089
C195	C	0.210365	-0.357596	0.145843
C196	C	0.213625	-0.381016	0.189287
C197	C	0.215261	-0.360922	0.211080
C198	C	-0.128228	-0.102999	0.321786
C199	C	-0.085950	-0.123940	0.343026
C200	C	-0.128227	-0.039396	0.258176
C201	C	-0.085949	-0.060433	0.279514
C202	C	-0.064613	-0.103002	0.321790
C203	C	-0.149467	-0.060430	0.279509
C204	C	-0.191985	-0.107991	0.321615
C205	C	-0.212148	-0.131268	0.341636
C206	C	-0.190411	-0.174788	0.383526
C207	C	-0.212269	-0.200030	0.405235
C208	C	-0.148512	-0.195034	0.405402
C209	C	-0.128351	-0.171757	0.385383
C210	C	-0.150088	-0.128237	0.343489
C211	C	0.004140	-0.171911	0.385546
C212	C	0.047584	-0.195328	0.405709
C213	C	0.069374	-0.175229	0.383974
C214	C	0.116479	-0.200619	0.405833
C215	C	0.047722	-0.131710	0.342077
C216	C	0.004280	-0.108293	0.321916
C217	C	-0.017510	-0.128395	0.343651
C218	C	-0.191984	0.024189	0.189422
C219	C	-0.212144	0.064366	0.145977
C220	C	-0.190407	0.084517	0.124191
C221	C	-0.212265	0.128082	0.077087
C222	C	-0.148510	0.064494	0.145842
C223	C	-0.128348	0.024316	0.189286
C224	C	-0.150087	0.004165	0.211074
C225	C	0.161897	0.006009	-0.406354
C226	C	0.161600	-0.015021	-0.427594
C227	C	0.161894	-0.057588	-0.342741
C228	C	0.161597	-0.078522	-0.364078
C229	C	0.161896	-0.057584	-0.406356
C230	C	0.161598	-0.015025	-0.364076
C231	C	0.173418	0.147853	-0.445193
C232	C	0.176676	0.188028	-0.465214
C233	C	0.178312	0.208182	-0.507109
C234	C	0.181853	0.251736	-0.528817
C235	C	0.176687	0.188162	-0.528983
C236	C	0.173424	0.147995	-0.508964
C237	C	0.171789	0.127840	-0.467067
C238	C	0.173414	-0.107925	-0.509401
C239	C	0.176670	-0.131195	-0.529566
C240	C	0.178305	-0.174712	-0.507832
C241	C	0.181842	-0.199951	-0.529689
C242	C	0.176678	-0.194956	-0.465932
C243	C	0.173415	-0.171682	-0.445770
C244	C	0.171785	-0.128164	-0.467510
C245	C	0.173406	-0.107944	-0.189336
C246	C	0.176666	-0.131222	-0.145891
C247	C	0.178299	-0.174739	-0.124100
C248	C	0.181836	-0.199982	-0.076994
C249	C	0.176676	-0.194979	-0.145753
C250	C	0.173417	-0.171701	-0.189195
C251	C	0.171779	-0.128180	-0.210985
C252	C	0.168255	0.084282	-0.445361
C253	C	0.165436	0.049564	-0.428059
C254	C	0.165429	-0.082827	-0.295637
C255	C	0.168246	-0.102944	-0.258091
C256	C	0.165432	-0.082819	-0.428217
C257	C	0.168250	-0.102933	-0.445644
O258	O	0.183071	-0.237904	0.492984
O259	O	0.203929	-0.309818	0.441900
O260	O	0.131993	-0.237903	0.441891
O261	O	0.255007	-0.309819	0.492993
O262	O	0.132000	-0.179493	0.383466
O263	O	0.203936	-0.251408	0.383475
O264	O	0.183078	-0.179494	0.434559
Zn265	Zn	0.193508	-0.206177	0.399741
Zn266	Zn	0.193499	-0.283135	0.476718
O267	O	0.255014	-0.251409	0.434569
C268	C	-0.463698	0.568132	-0.406349
C269	C	-0.442362	0.589070	-0.427585
C270	C	-0.400084	0.504526	-0.342735
C271	C	-0.378845	0.525561	-0.364068
C272	C	-0.400084	0.568130	-0.406344
C273	C	-0.442362	0.525563	-0.364072
C274	C	-0.617102	0.618488	-0.445200
C275	C	-0.660545	0.641764	-0.465223
C276	C	-0.682337	0.685287	-0.507117
C277	C	-0.729443	0.710531	-0.528827
C278	C	-0.660684	0.705530	-0.528986
C279	C	-0.617243	0.682251	-0.508965
C280	C	-0.595452	0.638728	-0.467069
C281	C	-0.361238	0.682666	-0.509374
C282	C	-0.341215	0.706081	-0.529534
C283	C	-0.299321	0.685984	-0.507797
C284	C	-0.277610	0.711371	-0.529649
C285	C	-0.277449	0.642464	-0.465898
C286	C	-0.297468	0.619046	-0.445742
C287	C	-0.339367	0.639154	-0.467484
C288	C	-0.361239	0.362658	-0.189337
C289	C	-0.341219	0.322481	-0.145894
C290	C	-0.299323	0.302324	-0.124100
C291	C	-0.277614	0.258762	-0.076995
C292	C	-0.277452	0.322348	-0.145748
C293	C	-0.297475	0.362526	-0.189190
C294	C	-0.339368	0.382675	-0.210982
C295	C	-0.548348	0.613491	-0.445361
C296	C	-0.510802	0.593373	-0.428057
C297	C	-0.378377	0.460965	-0.295632
C298	C	-0.361074	0.426240	-0.258087
C299	C	-0.378376	0.593521	-0.428200
C300	C	-0.361073	0.613760	-0.445623
H301	H	-0.094238	-0.188182	-0.021409
H302	H	-0.246258	0.080666	0.128353
H303	H	-0.599364	0.583049	-0.411088
H304	H	-0.459769	0.002854	-0.462356
H305	H	-0.459492	0.623322	-0.462322
H306	H	-0.344390	-0.112500	-0.346971
C307	C	-0.082261	0.002324	-0.021860
C308	C	-0.046033	-0.052512	0.012963
C309	C	0.000056	-0.074537	0.011182
C310	C	0.009917	-0.041726	-0.025422
C311	C	-0.026311	0.013113	-0.060247
C312	C	-0.072401	0.035139	-0.058466
H313	H	-0.053333	-0.076803	0.040062
H314	H	0.026875	-0.115133	0.036962
H315	H	0.044035	-0.058030	-0.026740
H316	H	-0.019012	0.037405	-0.087346
H317	H	-0.099219	0.075735	-0.084247
C318	C	-0.124030	-0.380278	0.122147
C319	C	-0.142653	-0.396468	0.102114
C320	C	-0.118596	-0.418732	0.078297
C321	C	-0.075916	-0.424806	0.074513
C322	C	-0.057291	-0.408615	0.094547
C323	C	-0.081348	-0.386351	0.118364
H324	H	-0.174249	-0.391972	0.104914
H325	H	-0.132384	-0.430717	0.063466
H326	H	-0.058108	-0.441287	0.056882
H327	H	-0.025695	-0.413111	0.091746
H328	H	-0.067560	-0.374366	0.133194
C329	C	-0.365278	-0.699562	0.015122
C330	C	-0.373900	-0.699921	-0.024182
C331	C	-0.397962	-0.721938	-0.025975
C332	C	-0.413400	-0.743597	0.011535
C333	C	-0.404778	-0.743238	0.050841
C334	C	-0.380717	-0.721221	0.052634
H335	H	-0.362471	-0.683888	-0.051951
H336	H	-0.404344	-0.722204	-0.055072
H337	H	-0.431212	-0.759895	0.010208
H338	H	-0.416207	-0.759271	0.078611
H339	H	-0.374334	-0.720956	0.081732
H340	H	0.178003	-0.230386	-0.448237
H341	H	-0.678172	0.625279	-0.447413
H342	H	-0.243050	-0.230687	-0.128288
C343	C	-0.124594	0.086659	0.121877
C344	C	-0.081953	0.053958	0.117971
C345	C	-0.058041	0.076125	0.094004
C346	C	-0.076770	0.130994	0.073944
C347	C	-0.119413	0.163698	0.077850
C348	C	-0.143325	0.141530	0.101816
H349	H	-0.068087	0.013338	0.132821
H350	H	-0.026473	0.051915	0.091113
H351	H	-0.059068	0.147404	0.056203
H352	H	-0.133279	0.204318	0.063000
H353	H	-0.174893	0.165741	0.104707
C354	C	0.215415	-0.491588	0.275828
C355	C	0.180596	-0.436750	0.239600
C356	C	0.182386	-0.414721	0.193512
C357	C	0.218994	-0.447528	0.183654
C358	C	0.253815	-0.502369	0.219884
C359	C	0.252025	-0.524399	0.265971
H360	H	0.153494	-0.412461	0.246896
H361	H	0.156609	-0.374124	0.166693
H362	H	0.220319	-0.431221	0.149538
H363	H	0.280917	-0.526659	0.212587
H364	H	0.277802	-0.564996	0.292790
C365	C	0.071399	-0.108963	-0.015027
C366	C	0.111064	-0.139640	0.024275
C367	C	0.134883	-0.117380	0.026069
C368	C	0.119036	-0.064444	-0.011439
C369	C	0.079368	-0.033764	-0.050744
C370	C	0.055549	-0.056024	-0.052538
H371	H	0.122797	-0.178829	0.052043
H372	H	0.164247	-0.140091	0.055165
H373	H	0.136668	-0.047966	-0.010111
H374	H	0.067635	0.005425	-0.078512
H375	H	0.026185	-0.033313	-0.081635
C376	C	-0.273411	-0.193949	-0.213329
C377	C	-0.227327	-0.241810	-0.189514
C378	C	-0.203415	-0.263914	-0.213485
C379	C	-0.225587	-0.238158	-0.261271
C380	C	-0.271674	-0.190295	-0.285088
C381	C	-0.295586	-0.168190	-0.261117
H382	H	-0.210911	-0.260878	-0.154138
H383	H	-0.169298	-0.299346	-0.195854
H384	H	-0.207886	-0.254522	-0.279016
H385	H	-0.288090	-0.171226	-0.320464
H386	H	-0.329703	-0.132758	-0.278749
H387	H	-0.243046	-0.230686	-0.447428
H388	H	-0.279619	-0.188213	-0.411105
H389	H	-0.243341	-0.694082	0.015569
H390	H	-0.678168	-0.258556	0.015585
C391	C	-0.081981	-0.429160	0.409441
C392	C	-0.045827	-0.430490	0.390711
C393	C	0.000257	-0.478356	0.414624
C394	C	0.010188	-0.524893	0.457267
C395	C	-0.025966	-0.523564	0.475999
C396	C	-0.072051	-0.475698	0.452086
H397	H	-0.053178	-0.396040	0.359143
H398	H	0.027021	-0.479340	0.400757
H399	H	0.044303	-0.560326	0.474968
H400	H	-0.018615	-0.558015	0.507568
H401	H	-0.098815	-0.474715	0.465953
H402	H	-0.209643	-0.301055	0.287780
C403	C	-0.215897	0.002056	-0.021889
C404	C	-0.197171	-0.052813	0.012933
C405	C	-0.221084	-0.074977	0.011134
C406	C	-0.263723	-0.042272	-0.025486
C407	C	-0.282452	0.012600	-0.060310
C408	C	-0.258539	0.034764	-0.058511
H409	H	-0.165604	-0.077027	0.040043
H410	H	-0.207219	-0.115598	0.036913
H411	H	-0.281425	-0.058679	-0.026817
H412	H	-0.314019	0.036814	-0.087421
H413	H	-0.272404	0.075385	-0.084291
C414	C	0.215436	-0.295312	0.275554
C415	C	0.180614	-0.279219	0.239397
C416	C	0.182412	-0.257107	0.193312
C417	C	0.219031	-0.251087	0.183385
C418	C	0.253855	-0.267180	0.219543
C419	C	0.252058	-0.289292	0.265628
H420	H	0.153504	-0.283675	0.246744
H421	H	0.156633	-0.245193	0.166546
H422	H	0.220362	-0.234718	0.149271
H423	H	0.280965	-0.262724	0.212195
H424	H	0.277837	-0.301206	0.292394
H425	H	-0.358490	-0.115286	-0.563120
H426	H	-0.395069	-0.072803	-0.526801
C427	C	0.215411	-0.428894	0.409459
C428	C	0.180589	-0.430300	0.390837
C429	C	0.182373	-0.478159	0.414894
C430	C	0.218978	-0.524614	0.457573
C431	C	0.253802	-0.523210	0.476197
C432	C	0.252019	-0.475350	0.452140
H433	H	0.153490	-0.395910	0.359242
H434	H	0.156594	-0.479198	0.401107
H435	H	0.220298	-0.560043	0.475381
H436	H	0.280902	-0.557600	0.507793
H437	H	0.277798	-0.474311	0.465928
H438	H	-0.243345	-0.373941	0.015546
C439	C	-0.331918	0.501777	-0.340926
C440	C	-0.320382	0.531932	-0.334257
C441	C	-0.273457	0.508149	-0.311116
C442	C	-0.238068	0.454213	-0.294644
C443	C	-0.249603	0.424055	-0.301312
C444	C	-0.296528	0.447838	-0.324453
H445	H	-0.346579	0.571861	-0.346451
H446	H	-0.264918	0.530474	-0.306180
H447	H	-0.203331	0.436608	-0.277514
H448	H	-0.223405	0.384125	-0.289118
H449	H	-0.305067	0.425513	-0.329390
C450	C	-0.407324	0.384827	-0.213308
C451	C	-0.429347	0.429019	-0.261092
C452	C	-0.475432	0.451191	-0.285065
C453	C	-0.499493	0.429173	-0.261253
C454	C	-0.477470	0.384979	-0.213467
C455	C	-0.431386	0.362807	-0.189494
H456	H	-0.411536	0.445320	-0.278721
H457	H	-0.491735	0.483907	-0.320439
H458	H	-0.533608	0.445587	-0.278999
H459	H	-0.495282	0.368678	-0.195837
H460	H	-0.415083	0.330091	-0.154119
H461	H	-0.599644	0.131723	-0.527126
H462	H	-0.209689	0.007785	0.207161
H463	H	0.172084	-0.072490	-0.527106
H464	H	-0.678451	0.204601	-0.563700
C465	C	0.208599	-0.246139	0.122179
C466	C	0.172001	-0.199689	0.118399
C467	C	0.170225	-0.151834	0.094593
C468	C	0.205048	-0.150429	0.074565
C469	C	0.241649	-0.196881	0.078344
C470	C	0.243425	-0.244736	0.102151
H471	H	0.146220	-0.200727	0.133225
H472	H	0.143130	-0.117447	0.091795
H473	H	0.203733	-0.115004	0.056942
H474	H	0.267429	-0.195843	0.063518
H475	H	0.270520	-0.279122	0.104948
C476	C	-0.124026	-0.380281	0.451775
C477	C	-0.142638	-0.396486	0.488010
C478	C	-0.118579	-0.418748	0.534096
C479	C	-0.075906	-0.424806	0.543946
C480	C	-0.057291	-0.408600	0.507710
C481	C	-0.081351	-0.386338	0.461624
H482	H	-0.174229	-0.392003	0.480719
H483	H	-0.132359	-0.430745	0.560920
H484	H	-0.058096	-0.441285	0.578062
H485	H	-0.025701	-0.413083	0.515001
H486	H	-0.067571	-0.374341	0.434800
C487	C	0.071396	-0.575649	0.317573
C488	C	0.111064	-0.576019	0.308954
C489	C	0.134881	-0.598042	0.284897
C490	C	0.119030	-0.619696	0.269459
C491	C	0.079360	-0.619327	0.278078
C492	C	0.055543	-0.597304	0.302135
H493	H	0.122799	-0.559988	0.320382
H494	H	0.164247	-0.598315	0.278516
H495	H	0.136660	-0.635999	0.251650
H496	H	0.067625	-0.635357	0.266650
H497	H	0.026177	-0.597031	0.308516
H498	H	0.172087	0.131448	-0.411080
C499	C	-0.273415	-0.615478	0.021947
C500	C	-0.292036	-0.560643	-0.012877
C501	C	-0.267980	-0.538617	-0.011094
C502	C	-0.225303	-0.571426	0.025513
C503	C	-0.206680	-0.626264	0.060339
C504	C	-0.230736	-0.648291	0.058556
H505	H	-0.323630	-0.536353	-0.039978
H506	H	-0.281766	-0.498021	-0.036876
H507	H	-0.207496	-0.555120	0.026833
H508	H	-0.175086	-0.650555	0.087440
H509	H	-0.216950	-0.688886	0.084338
H510	H	-0.246258	0.080688	-0.015504
H511	H	-0.678711	0.204846	-0.448256
H512	H	0.209032	-0.570197	0.324375
C513	C	-0.465789	0.009026	-0.340961
C514	C	-0.442333	-0.014110	-0.294355
C515	C	-0.465479	0.009666	-0.271216
C516	C	-0.512082	0.056579	-0.294684
C517	C	-0.535541	0.079719	-0.341293
C518	C	-0.512395	0.055942	-0.364431
H519	H	-0.407832	-0.048841	-0.276980
H520	H	-0.448112	-0.007463	-0.236713
H521	H	-0.529216	0.074180	-0.277555
H522	H	-0.570041	0.114449	-0.358667
H523	H	-0.529761	0.073072	-0.398934
H524	H	0.214971	-0.301048	0.207173
H525	H	0.177997	-0.114711	-0.563680
H526	H	-0.130813	-0.230410	-0.015492
C527	C	-0.364716	-0.109540	-0.121808
C528	C	-0.373230	-0.140322	-0.082104
C529	C	-0.397146	-0.118211	-0.058139
C530	C	-0.412549	-0.065319	-0.073877
C531	C	-0.404036	-0.034534	-0.113583
C532	C	-0.380119	-0.056645	-0.137548
H533	H	-0.361827	-0.179479	-0.070452
H534	H	-0.403448	-0.141000	-0.028746
H535	H	-0.430254	-0.048951	-0.056136
H536	H	-0.415438	0.004623	-0.125235
H537	H	-0.373817	-0.033855	-0.166941
H538	H	-0.459498	0.507968	-0.346943
C539	C	-0.196396	-0.319083	0.256358
C540	C	-0.231788	-0.321167	0.239885
C541	C	-0.278713	-0.274902	0.216751
C542	C	-0.290246	-0.226552	0.210092
C543	C	-0.254854	-0.224466	0.226566
C544	C	-0.207928	-0.270731	0.249699
H545	H	-0.223251	-0.356960	0.244814
H546	H	-0.304913	-0.276446	0.204556
H547	H	-0.324983	-0.192303	0.192967
H548	H	-0.263391	-0.188673	0.221636
H549	H	-0.181728	-0.269187	0.261894
C550	C	-0.062807	-0.036654	0.256374
C551	C	-0.021108	-0.066813	0.249710
C552	C	0.002034	-0.043036	0.226570
C553	C	-0.016524	0.010901	0.210096
C554	C	-0.058226	0.041063	0.216761
C555	C	-0.081368	0.017286	0.239900
H556	H	-0.007368	-0.106743	0.261905
H557	H	0.032905	-0.065364	0.221637
H558	H	0.000607	0.028502	0.192967
H559	H	-0.071966	0.080993	0.204565
H560	H	-0.112238	0.039614	0.244833
H561	H	0.178017	0.204576	-0.563095
C562	C	0.208576	-0.575680	0.451796
C563	C	0.246084	-0.597338	0.488898
C564	C	0.244292	-0.619361	0.534985
C565	C	0.204991	-0.619727	0.543968
C566	C	0.167480	-0.598068	0.506865
C567	C	0.169272	-0.576045	0.460778
H568	H	0.275179	-0.597068	0.482249
H569	H	0.272060	-0.635394	0.562451
H570	H	0.203664	-0.636029	0.578084
H571	H	0.138385	-0.598338	0.513514
H572	H	0.141504	-0.560012	0.433312
C573	C	-0.062815	-0.452622	0.256349
C574	C	-0.021122	-0.457476	0.249672
C575	C	0.002013	-0.481243	0.226524
C576	C	-0.016546	-0.500157	0.210052
C577	C	-0.058242	-0.495304	0.216728
C578	C	-0.081376	-0.471536	0.239877
H579	H	-0.007381	-0.443474	0.261866
H580	H	0.032878	-0.484836	0.221582
H581	H	0.000579	-0.517751	0.192916
H582	H	-0.071982	-0.509305	0.204535
H583	H	-0.112242	-0.467944	0.244819
C584	C	0.208566	-0.379705	0.121873
C585	C	0.243386	-0.395788	0.101809
C586	C	0.241590	-0.417896	0.077839
C587	C	0.204974	-0.423919	0.073934
C588	C	0.170151	-0.407835	0.093999
C589	C	0.171948	-0.385728	0.117969
H590	H	0.270494	-0.391330	0.104699
H591	H	0.267368	-0.429802	0.062985
H592	H	0.203644	-0.440284	0.056190
H593	H	0.143043	-0.412294	0.091109
H594	H	0.146169	-0.373821	0.132822
H595	H	-0.093954	-0.416726	0.207147
H596	H	-0.359032	0.306183	-0.128269
C597	C	0.071690	-0.575925	0.451481
C598	C	0.091761	-0.630796	0.487639
C599	C	0.115729	-0.652958	0.533722
C600	C	0.119627	-0.620249	0.543646
C601	C	0.099555	-0.565374	0.507487
C602	C	0.075587	-0.543212	0.461405
H603	H	0.088876	-0.655013	0.480293
H604	H	0.130587	-0.693580	0.560489
H605	H	0.137370	-0.636654	0.577759
H606	H	0.102440	-0.541157	0.514833
H607	H	0.060729	-0.502590	0.434638
C608	C	0.208588	-0.246149	0.317606
C609	C	0.171977	-0.199690	0.274932
C610	C	0.170192	-0.151829	0.250878
C611	C	0.205017	-0.150426	0.269498
C612	C	0.241630	-0.196887	0.312174
C613	C	0.243416	-0.244748	0.336228
H614	H	0.146195	-0.200727	0.261146
H615	H	0.143088	-0.117436	0.219286
H616	H	0.203695	-0.114997	0.251692
H617	H	0.267412	-0.195850	0.325959
H618	H	0.270519	-0.279141	0.367819
C619	C	-0.257938	-0.246390	0.318140
C620	C	-0.294092	-0.245052	0.336872
C621	C	-0.340175	-0.197184	0.312957
C622	C	-0.350104	-0.150652	0.270311
C623	C	-0.313949	-0.151988	0.251577
C624	C	-0.267866	-0.199856	0.275492
H625	H	-0.286743	-0.279499	0.368443
H626	H	-0.366940	-0.196195	0.326826
H627	H	-0.384218	-0.115217	0.252608
H628	H	-0.321298	-0.117541	0.220006
H629	H	-0.241102	-0.200845	0.261623
C630	C	-0.257935	-0.246386	0.121852
C631	C	-0.294089	-0.245053	0.101788
C632	C	-0.340173	-0.197185	0.077819
C633	C	-0.350103	-0.150651	0.073915
C634	C	-0.313949	-0.151983	0.093980
C635	C	-0.267865	-0.199851	0.117948
H636	H	-0.286738	-0.279501	0.104678
H637	H	-0.366937	-0.196199	0.062966
H638	H	-0.384218	-0.115217	0.056172
H639	H	-0.321299	-0.117535	0.091090
H640	H	-0.241101	-0.200836	0.132801
C641	C	-0.082265	-0.194025	0.409444
C642	C	-0.073276	-0.163363	0.418076
C643	C	-0.027189	-0.185632	0.442138
C644	C	0.009909	-0.238563	0.457567
C645	C	0.000922	-0.269228	0.448934
C646	C	-0.045165	-0.246959	0.424873
H647	H	-0.100740	-0.124178	0.406655
H648	H	-0.020536	-0.162932	0.448529
H649	H	0.044026	-0.255048	0.475379
H650	H	0.028385	-0.308413	0.460356
H651	H	-0.051818	-0.269659	0.418482
H652	H	-0.068823	-0.158191	0.377764
C653	C	-0.593132	-0.295288	0.021965
C654	C	-0.589226	-0.289269	0.058584
C655	C	-0.565258	-0.267160	0.060382
C656	C	-0.545195	-0.251071	0.025561
C657	C	-0.549099	-0.257090	-0.011061
C658	C	-0.573068	-0.279199	-0.012858
H659	H	-0.604079	-0.301179	0.084363
H660	H	-0.562367	-0.262705	0.087491
H661	H	-0.527452	-0.234705	0.026891
H662	H	-0.534247	-0.245180	-0.036840
H663	H	-0.575958	-0.283654	-0.039968
C664	C	-0.196391	-0.036645	0.256357
C665	C	-0.207921	-0.066796	0.249674
C666	C	-0.254842	-0.043011	0.226518
C667	C	-0.290234	0.010925	0.210046
C668	C	-0.278705	0.041079	0.216729
C669	C	-0.231784	0.017294	0.239884
H670	H	-0.181720	-0.106725	0.261869
H671	H	-0.263375	-0.065334	0.221572
H672	H	-0.324968	0.028532	0.192905
H673	H	-0.304906	0.081008	0.204534
H674	H	-0.223251	0.039617	0.244831
H675	H	-0.599897	0.131968	-0.411676
H676	H	-0.344111	-0.492084	0.032451
C677	C	-0.684650	-0.379705	0.015111
C678	C	-0.668917	-0.432594	0.052620
C679	C	-0.692887	-0.454703	0.050826
C680	C	-0.732590	-0.423922	0.011523
C681	C	-0.748325	-0.371030	-0.025989
C682	C	-0.724355	-0.348921	-0.024194
H683	H	-0.639525	-0.455383	0.081716
H684	H	-0.681239	-0.493858	0.078594
H685	H	-0.750333	-0.440288	0.010195
H686	H	-0.777717	-0.348241	-0.055085
H687	H	-0.736003	-0.309766	-0.051963
C688	C	0.178470	0.210044	-0.441153
C689	C	0.217773	0.210402	-0.432529
C690	C	0.219568	0.232417	-0.408466
C691	C	0.182059	0.254074	-0.393028
C692	C	0.142753	0.253717	-0.401651
C693	C	0.140958	0.231702	-0.425714
H694	H	0.245542	0.194369	-0.443958
H695	H	0.248666	0.232681	-0.402083
H696	H	0.183388	0.270371	-0.375215
H697	H	0.114984	0.269749	-0.390222
H698	H	0.111860	0.231437	-0.432097
C699	C	-0.465499	-0.498271	0.032629
C700	C	-0.512103	-0.475138	0.032949
C701	C	-0.535238	-0.498923	0.033598
C702	C	-0.511770	-0.545840	0.033928
C703	C	-0.465163	-0.568975	0.033608
C704	C	-0.442028	-0.545191	0.032958
H705	H	-0.529478	-0.440405	0.032705
H706	H	-0.569739	-0.481796	0.033835
H707	H	-0.528895	-0.563446	0.034409
H708	H	-0.447788	-0.603708	0.033852
H709	H	-0.407527	-0.562317	0.032721
H710	H	0.209031	-0.373984	0.439539
H711	H	-0.013600	-0.188280	0.403247
C712	C	-0.258233	-0.109001	0.317575
C713	C	-0.268090	-0.102933	0.274898
C714	C	-0.314177	-0.080665	0.250839
C715	C	-0.350408	-0.064465	0.269457
C716	C	-0.340552	-0.070533	0.312136
C717	C	-0.294464	-0.092801	0.336195
H718	H	-0.241269	-0.114925	0.261114
H719	H	-0.321473	-0.076173	0.219245
H720	H	-0.384525	-0.047981	0.251647
H721	H	-0.367373	-0.058541	0.325920
H722	H	-0.287169	-0.097293	0.367789
H723	H	0.172088	-0.188165	-0.411657
H724	H	0.065467	-0.230412	-0.015489
H725	H	0.214959	-0.497084	0.403255
C726	C	-0.684655	0.753401	-0.575068
C727	C	-0.724356	0.801603	-0.583977
C728	C	-0.748327	0.849474	-0.630061
C729	C	-0.732596	0.849145	-0.667234
C730	C	-0.692893	0.800942	-0.658325
C731	C	-0.668922	0.753070	-0.612242
H732	H	-0.736003	0.801848	-0.556459
H733	H	-0.777719	0.885158	-0.636655
H734	H	-0.750341	0.884583	-0.701347
H735	H	-0.681246	0.800697	-0.685844
H736	H	-0.639531	0.717387	-0.605647
H737	H	-0.395352	0.699041	-0.527080
C738	C	-0.593426	0.704517	-0.533019
C739	C	-0.617393	0.752391	-0.579098
C740	C	-0.593577	0.774658	-0.603152
C741	C	-0.545793	0.749053	-0.581127
C742	C	-0.521823	0.701177	-0.535045
C743	C	-0.545639	0.678909	-0.510991
H744	H	-0.652768	0.771347	-0.595405
H745	H	-0.611321	0.810099	-0.637265
H746	H	-0.528162	0.765537	-0.598933
H747	H	-0.486448	0.682220	-0.518738
H748	H	-0.527895	0.643468	-0.476878
C749	C	-0.124599	-0.242911	0.451483
C750	C	-0.116084	-0.291111	0.460387
C751	C	-0.092169	-0.338987	0.506468
C752	C	-0.076770	-0.338663	0.543645
C753	C	-0.085285	-0.290461	0.534742
C754	C	-0.109199	-0.242585	0.488661
H755	H	-0.127484	-0.291353	0.432866
H756	H	-0.085866	-0.374669	0.513059
H757	H	-0.059067	-0.374103	0.577757
H758	H	-0.073885	-0.290219	0.562264
H759	H	-0.115502	-0.206903	0.482071
C760	C	0.171603	-0.060071	-0.213308
C761	C	0.134985	-0.013539	-0.217211
C762	C	0.133181	0.034334	-0.241187
C763	C	0.167995	0.035675	-0.261261
C764	C	0.204615	-0.010858	-0.257358
C765	C	0.206419	-0.058731	-0.233382
H766	H	0.109212	-0.014531	-0.202351
H767	H	0.106072	0.068781	-0.244076
H768	H	0.166659	0.071114	-0.279009
H769	H	0.230388	-0.009866	-0.272218
H770	H	0.233528	-0.093178	-0.230493
H771	H	0.172095	-0.188183	-0.206823
H772	H	-0.246261	-0.114733	-0.015512
H773	H	0.172101	0.131697	-0.526776
H774	H	-0.395074	-0.072810	-0.206845
C775	C	0.071398	-0.243197	0.451792
C776	C	0.075188	-0.289646	0.461638
C777	C	0.099006	-0.337516	0.507722
C778	C	0.119033	-0.338936	0.543961
C779	C	0.115244	-0.292485	0.534116
C780	C	0.091426	-0.244616	0.488032
H781	H	0.060362	-0.288597	0.434811
H782	H	0.101811	-0.371902	0.515009
H783	H	0.136664	-0.374372	0.578075
H784	H	0.130070	-0.293535	0.560943
H785	H	0.088621	-0.210230	0.480745
H786	H	0.178006	-0.230414	-0.128007
C787	C	0.071694	-0.109602	0.318168
C788	C	0.091765	-0.093527	0.336904
C789	C	0.115734	-0.071416	0.312993
C790	C	0.119631	-0.065379	0.270345
C791	C	0.099559	-0.081454	0.251606
C792	C	0.075590	-0.103565	0.275518
H793	H	0.088881	-0.097996	0.368477
H794	H	0.130592	-0.059517	0.326865
H795	H	0.137374	-0.049011	0.252645
H796	H	0.102443	-0.076985	0.220034
H797	H	0.060732	-0.115464	0.261646
C798	C	0.160950	-0.124791	-0.340941
C799	C	0.160632	-0.147933	-0.294336
C800	C	0.159986	-0.194201	-0.271200
C801	C	0.159659	-0.217326	-0.294670
C802	C	0.159978	-0.194183	-0.341277
C803	C	0.160624	-0.147916	-0.364413
H804	H	0.160874	-0.130815	-0.276960
H805	H	0.159750	-0.211332	-0.236698
H806	H	0.159181	-0.251576	-0.277543
H807	H	0.159736	-0.211302	-0.358653
H808	H	0.160859	-0.130785	-0.398915
H809	H	-0.094231	0.008010	0.206912
H810	H	-0.359026	0.741514	-0.563647
C811	C	-0.019543	-0.193962	-0.021865
C812	C	-0.003699	-0.246893	0.015654
C813	C	-0.027521	-0.269154	0.013873
C814	C	-0.067188	-0.238485	-0.025425
C815	C	-0.083034	-0.185551	-0.062946
C816	C	-0.059212	-0.163290	-0.061166
H817	H	0.025667	-0.269599	0.044747
H818	H	-0.015790	-0.308340	0.041649
H819	H	-0.084822	-0.254964	-0.026743
H820	H	-0.112400	-0.162845	-0.092040
H821	H	-0.070943	-0.124104	-0.088942
C822	C	0.160954	0.008759	-0.474522
C823	C	0.160637	0.055670	-0.497985
C824	C	0.159990	0.079449	-0.544911
C825	C	0.159661	0.056318	-0.568373
C826	C	0.159979	0.009405	-0.544910
C827	C	0.160625	-0.014374	-0.497984
H828	H	0.160880	0.072795	-0.480616
H829	H	0.159755	0.114177	-0.562280
H830	H	0.159183	0.073920	-0.603111
H831	H	0.159735	-0.007720	-0.562279
H832	H	0.160860	-0.049102	-0.480616
C833	C	0.178451	-0.108959	-0.122073
C834	C	0.215056	-0.102889	-0.118284
C835	C	0.216839	-0.080624	-0.094466
C836	C	0.182016	-0.064430	-0.074439
C837	C	0.145408	-0.070500	-0.078228
C838	C	0.143626	-0.092765	-0.102045
H839	H	0.240836	-0.114877	-0.133110
H840	H	0.243938	-0.076130	-0.091661
H841	H	0.183335	-0.047948	-0.056807
H842	H	0.119628	-0.058512	-0.063401
H843	H	0.116526	-0.097258	-0.104850
C844	C	-0.231364	0.620351	-0.441986
C845	C	-0.194195	0.567464	-0.426594
C846	C	-0.148111	0.545352	-0.402681
C847	C	-0.139196	0.576127	-0.394159
C848	C	-0.176367	0.629017	-0.409551
C849	C	-0.222451	0.651129	-0.433464
H850	H	-0.200792	0.544680	-0.432902
H851	H	-0.120594	0.506200	-0.391287
H852	H	-0.105082	0.559759	-0.376457
H853	H	-0.169769	0.651802	-0.403243
H854	H	-0.249968	0.690282	-0.444859
C855	C	-0.231365	0.300178	-0.121779
C856	C	-0.195212	0.245310	-0.101721
C857	C	-0.149127	0.223141	-0.077753
C858	C	-0.139195	0.255840	-0.073844
C859	C	-0.175350	0.310711	-0.093902
C860	C	-0.221435	0.332880	-0.117870
H861	H	-0.202563	0.221101	-0.104615
H862	H	-0.122363	0.182521	-0.062905
H863	H	-0.105080	0.239429	-0.056101
H864	H	-0.167999	0.334919	-0.091008
H865	H	-0.248199	0.373499	-0.132718
H866	H	-0.068823	-0.158134	-0.026027
H867	H	-0.068822	-0.042784	-0.026023
H868	H	-0.184205	-0.042780	-0.026030
H869	H	-0.130811	0.080929	-0.015481
H870	H	-0.209690	-0.072507	-0.021428
H871	H	-0.068821	-0.446455	0.377749
H872	H	-0.013600	-0.072517	-0.021412
H873	H	-0.279669	-0.416421	0.021464
H874	H	-0.459495	-0.376734	0.032451
H875	H	-0.359035	-0.258543	0.015565
H876	H	-0.395356	-0.301022	0.021487
H877	H	0.214945	-0.416443	0.206912
H878	H	-0.599613	-0.416440	0.021492
H879	H	-0.395353	-0.620965	0.021500
H880	H	-0.013351	-0.497292	0.403186
H881	H	-0.013602	-0.497051	0.287496
H882	H	-0.209640	-0.301047	0.206890
H883	H	0.219577	-0.446480	0.262387
H884	H	0.219561	-0.446480	0.377772
H885	H	-0.279663	0.378826	-0.206814
H886	H	0.219572	-0.331129	0.262394
H887	H	-0.209689	-0.072554	0.287504
H888	H	-0.013347	-0.072862	0.287802
H889	H	0.161154	0.002555	-0.346935
H890	H	-0.279656	0.583612	-0.411629
