data_functionalizedCrystal
_audit_creation_method	'MofGen! by Chris Wilmer'
_symmetry_space_group_name_H-M	'P1'
_symmetry_Int_Tables_number	1
_symmetry_cell_setting	triclinic
loop_
_symmetry_equiv_pos_as_xyz
  x,y,z
_cell_length_a	15.995292
_cell_length_b	15.995300
_cell_length_c	13.596369
_cell_angle_alpha	89.998558
_cell_angle_beta	89.993500
_cell_angle_gamma	83.470212
loop_
_atom_site_label
_atom_site_type_symbol
_atom_site_fract_x
_atom_site_fract_y
_atom_site_fract_z
O1	O	1.110997	0.107699	-0.081808
O2	O	1.360997	0.357699	0.168192
O3	O	1.610997	0.607699	0.418192
O4	O	1.860997	0.857699	0.668192
O5	O	0.867213	0.121077	-0.081803
O6	O	1.117213	0.371077	0.168197
O7	O	1.367213	0.621077	0.418197
O8	O	1.617213	0.871077	0.668197
O9	O	0.995791	-0.007504	-0.081810
O10	O	1.245791	0.242496	0.168190
O11	O	1.495791	0.492496	0.418190
O12	O	1.745791	0.742496	0.668190
O13	O	0.982419	0.236280	-0.081800
O14	O	1.232419	0.486280	0.168200
O15	O	1.482419	0.736280	0.418200
O16	O	1.732419	0.986280	0.668200
O17	O	0.995778	-0.007511	0.081772
O18	O	1.245778	0.242489	0.331772
O19	O	1.495778	0.492489	0.581772
O20	O	1.745778	0.742489	0.831772
O21	O	0.867200	0.121071	0.081780
O22	O	1.117200	0.371071	0.331780
O23	O	1.367200	0.621071	0.581780
O24	O	1.617200	0.871071	0.831780
O25	O	1.110984	0.107692	0.081775
O26	O	1.360984	0.357692	0.331775
O27	O	1.610984	0.607692	0.581775
O28	O	1.860984	0.857692	0.831775
Zn29	Zn	0.989090	0.114380	0.107750
Zn30	Zn	1.239090	0.364380	0.357750
Zn31	Zn	1.489090	0.614380	0.607750
Zn32	Zn	1.739090	0.864380	0.857750
Zn33	Zn	0.989107	0.114389	-0.107778
Zn34	Zn	1.239107	0.364389	0.142222
Zn35	Zn	1.489107	0.614389	0.392222
Zn36	Zn	1.739107	0.864389	0.642222
O37	O	0.982406	0.236273	0.081783
O38	O	1.232406	0.486273	0.331783
O39	O	1.482406	0.736273	0.581783
O40	O	1.732406	0.986273	0.831783
C41	C	0.836011	0.120530	-0.000011
C42	C	1.086011	0.370530	0.249989
C43	C	1.336011	0.620530	0.499989
C44	C	1.586011	0.870530	0.749989
C45	C	0.743058	0.118897	-0.000009
C46	C	0.993058	0.368897	0.249991
C47	C	1.243058	0.618897	0.499991
C48	C	1.493058	0.868897	0.749991
C49	C	0.995239	-0.038703	-0.000022
C50	C	1.245239	0.211297	0.249978
C51	C	1.495239	0.461297	0.499978
C52	C	1.745239	0.711297	0.749978
C53	C	0.993604	-0.131655	-0.000032
C54	C	1.243604	0.118345	0.249968
C55	C	1.493604	0.368345	0.499968
C56	C	1.743604	0.618345	0.749968
C57	C	0.990585	-0.301837	-0.000022
C58	C	1.240585	-0.051837	0.249978
C59	C	1.490585	0.198163	0.499978
C60	C	1.740585	0.448163	0.749978
C61	C	1.082135	-0.349322	-0.000026
C62	C	1.332135	-0.099322	0.249974
C63	C	1.582135	0.150678	0.499974
C64	C	1.832135	0.400678	0.749974
C65	C	1.080465	-0.446010	0.000349
C66	C	1.330465	-0.196010	0.250349
C67	C	1.580465	0.053990	0.500349
C68	C	1.830465	0.303990	0.750349
C69	C	0.987613	-0.469393	-0.000014
C70	C	1.237613	-0.219393	0.249986
C71	C	1.487613	0.030607	0.499986
C72	C	1.737613	0.280607	0.749986
C73	C	0.942184	-0.428253	0.093216
C74	C	1.192184	-0.178253	0.343216
C75	C	1.442184	0.071747	0.593216
C76	C	1.692184	0.321747	0.843216
C77	C	0.944501	-0.331620	0.093291
C78	C	1.194501	-0.081620	0.343291
C79	C	1.444501	0.168380	0.593291
C80	C	1.694501	0.418380	0.843291
C81	C	0.943160	-0.331337	-0.092740
C82	C	1.193160	-0.081337	0.157260
C83	C	1.443160	0.168663	0.407260
C84	C	1.693160	0.418663	0.657260
C85	C	0.943168	-0.428281	-0.093962
C86	C	1.193168	-0.178281	0.156038
C87	C	1.443168	0.071719	0.406038
C88	C	1.693168	0.321719	0.656038
C89	C	0.985928	-0.564088	-0.000006
C90	C	1.235928	-0.314088	0.249994
C91	C	1.485928	-0.064088	0.499994
C92	C	1.735928	0.185912	0.749994
C93	C	0.992266	-0.207142	-0.000024
C94	C	1.242266	0.042858	0.249976
C95	C	1.492266	0.292858	0.499976
C96	C	1.742266	0.542858	0.749976
C97	C	0.405321	0.112896	-0.000021
C98	C	0.655321	0.362896	0.249979
C99	C	0.905321	0.612896	0.499979
C100	C	1.155321	0.862896	0.749979
C101	C	0.428617	0.205702	-0.000382
C102	C	0.678617	0.455702	0.249618
C103	C	0.928617	0.705702	0.499618
C104	C	1.178617	0.955702	0.749618
C105	C	0.525292	0.207466	-0.000009
C106	C	0.775292	0.457466	0.249991
C107	C	1.025292	0.707466	0.499991
C108	C	1.275292	0.957466	0.749991
C109	C	0.572876	0.115874	-0.000016
C110	C	0.822876	0.365874	0.249984
C111	C	1.072876	0.615874	0.499984
C112	C	1.322876	0.865874	0.749984
C113	C	0.543776	0.069471	0.093393
C114	C	0.793776	0.319471	0.343393
C115	C	1.043776	0.569471	0.593393
C116	C	1.293776	0.819471	0.843393
C117	C	0.446985	0.068354	0.093467
C118	C	0.696985	0.318354	0.343467
C119	C	0.946985	0.568354	0.593467
C120	C	1.196985	0.818354	0.843467
C121	C	0.447145	0.066466	-0.092558
C122	C	0.697145	0.316466	0.157442
C123	C	0.947145	0.566466	0.407442
C124	C	1.197145	0.816466	0.657442
C125	C	0.543637	0.069905	-0.093788
C126	C	0.793637	0.319905	0.156212
C127	C	1.043637	0.569905	0.406212
C128	C	1.293637	0.819905	0.656212
C129	C	0.667572	0.117552	-0.000010
C130	C	0.917572	0.367552	0.249990
C131	C	1.167572	0.617552	0.499990
C132	C	1.417572	0.867552	0.749990
C133	C	0.310626	0.111215	-0.000020
C134	C	0.560626	0.361215	0.249980
C135	C	0.810626	0.611215	0.499980
C136	C	1.060626	0.861215	0.749980
C137	C	1.142186	0.108240	-0.000019
C138	C	1.392186	0.358240	0.249981
C139	C	1.642186	0.608240	0.499981
C140	C	1.892186	0.858240	0.749981
C141	C	1.235139	0.109872	-0.000027
C142	C	1.485139	0.359872	0.249973
C143	C	1.735139	0.609872	0.499973
C144	C	1.985139	0.859872	0.749973
C145	C	0.982958	0.267472	-0.000008
C146	C	1.232958	0.517472	0.249992
C147	C	1.482958	0.767472	0.499992
C148	C	1.732958	1.017472	0.749992
C149	C	0.984593	0.360424	-0.000004
C150	C	1.234593	0.610424	0.249996
C151	C	1.484593	0.860424	0.499996
C152	C	1.734593	1.110424	0.749996
N153	N	0.989085	0.114374	0.254842
N154	N	1.239085	0.364374	0.504842
N155	N	1.489085	0.614374	0.754842
N156	N	1.739085	0.864374	1.004842
N157	N	0.989119	0.114389	-0.254870
N158	N	1.239119	0.364389	-0.004870
N159	N	1.489119	0.614389	0.245130
N160	N	1.739119	0.864389	0.495130
C161	C	0.989106	0.114390	0.656133
C162	C	1.239106	0.364390	0.906133
C163	C	1.489106	0.614390	1.156133
C164	C	1.739106	0.864390	1.406133
C165	C	0.989098	0.114388	0.544481
C166	C	1.239098	0.364388	0.794481
C167	C	1.489098	0.614388	1.044481
C168	C	1.739098	0.864388	1.294481
C169	C	0.989096	0.114382	0.455491
C170	C	1.239096	0.364382	0.705491
C171	C	1.489096	0.614382	0.955491
C172	C	1.739096	0.864382	1.205491
C173	C	0.989087	0.114379	0.343832
C174	C	1.239087	0.364379	0.593832
C175	C	1.489087	0.614379	0.843832
C176	C	1.739087	0.864379	1.093832
H177	H	1.116161	-0.474479	-0.066467
H178	H	1.366161	-0.224479	0.183533
H179	H	1.616161	0.025521	0.433533
H180	H	1.866161	0.275521	0.683533
H181	H	0.432447	0.000307	0.097706
H182	H	0.682447	0.250307	0.347706
H183	H	0.932447	0.500307	0.597706
H184	H	1.182447	0.750307	0.847706
H185	H	0.973347	-0.456615	0.162859
H186	H	1.223347	-0.206615	0.412859
H187	H	1.473347	0.043385	0.662859
H188	H	1.723347	0.293385	0.912859
Br189	Br	0.828468	-0.451724	0.098566
Br190	Br	1.078468	-0.201724	0.348566
Br191	Br	1.328468	0.048276	0.598566
Br192	Br	1.578468	0.298276	0.848566
H193	H	0.977229	-0.313310	0.163245
H194	H	1.227229	-0.063310	0.413245
H195	H	1.477229	0.186690	0.663245
H196	H	1.727229	0.436690	0.913245
H197	H	0.877274	-0.299333	0.097271
H198	H	1.127274	-0.049333	0.347271
H199	H	1.377274	0.200667	0.597271
H200	H	1.627274	0.450667	0.847271
H201	H	0.875657	-0.299552	-0.093628
H202	H	1.125657	-0.049552	0.156372
H203	H	1.375657	0.200448	0.406372
H204	H	1.625657	0.450448	0.656372
Br205	Br	0.399941	0.114826	-0.210562
Br206	Br	0.649941	0.364826	0.039438
Br207	Br	0.899941	0.614826	0.289438
Br208	Br	1.149941	0.864826	0.539438
H209	H	0.576619	0.003053	-0.099434
H210	H	0.826619	0.253053	0.150566
H211	H	1.076619	0.503053	0.400566
H212	H	1.326619	0.753053	0.650566
H213	H	0.973305	-0.310839	-0.163427
H214	H	1.223305	-0.060839	0.086573
H215	H	1.473305	0.189161	0.336573
H216	H	1.723305	0.439161	0.586573
H217	H	0.400619	0.241477	-0.067370
H218	H	0.650619	0.491477	0.182630
H219	H	0.900619	0.741477	0.432630
H220	H	1.150619	0.991477	0.682630
H221	H	0.543683	0.244020	0.067067
H222	H	0.793683	0.494020	0.317067
H223	H	1.043683	0.744020	0.567067
H224	H	1.293683	0.994020	0.817067
Br225	Br	0.998457	-0.473858	-0.208926
Br226	Br	1.248457	-0.223858	0.041074
Br227	Br	1.498457	0.026142	0.291074
Br228	Br	1.748457	0.276142	0.541074
H229	H	0.575656	0.002071	0.096862
H230	H	0.825656	0.252071	0.346862
H231	H	1.075656	0.502071	0.596862
H232	H	1.325656	0.752071	0.846862
H233	H	0.544317	0.243802	-0.066970
H234	H	0.794317	0.493802	0.183030
H235	H	1.044317	0.743802	0.433030
H236	H	1.294317	0.993802	0.683030
H237	H	0.562206	0.103692	-0.162891
H238	H	0.812206	0.353692	0.087109
H239	H	1.062206	0.603692	0.337109
H240	H	1.312206	0.853692	0.587109
Br241	Br	0.380229	0.264996	0.110641
Br242	Br	0.630229	0.514996	0.360641
Br243	Br	0.880229	0.764996	0.610641
Br244	Br	1.130229	1.014996	0.860641
H245	H	1.118927	-0.330849	-0.066882
H246	H	1.368927	-0.080849	0.183118
H247	H	1.618927	0.169151	0.433118
H248	H	1.868927	0.419151	0.683118
H249	H	0.563823	0.101689	0.162912
H250	H	0.813823	0.351689	0.412912
H251	H	1.063823	0.601689	0.662912
H252	H	1.313823	0.851689	0.912912
Br253	Br	0.830374	-0.453922	-0.103884
Br254	Br	1.080374	-0.203922	0.146116
Br255	Br	1.330374	0.046078	0.396116
Br256	Br	1.580374	0.296078	0.646116
H257	H	0.420157	0.100485	0.163296
H258	H	0.670157	0.350485	0.413296
H259	H	0.920157	0.600485	0.663296
H260	H	1.170157	0.850485	0.913296
Br261	Br	0.423851	-0.047393	-0.093615
Br262	Br	0.673851	0.202607	0.156385
Br263	Br	0.923851	0.452607	0.406385
Br264	Br	1.173851	0.702607	0.656385
H265	H	1.118398	-0.329664	0.066679
H266	H	1.368398	-0.079664	0.316679
H267	H	1.618398	0.170336	0.566679
H268	H	1.868398	0.420336	0.816679
H269	H	1.115996	-0.473867	0.067569
H270	H	1.365996	-0.223867	0.317569
H271	H	1.615996	0.026133	0.567569
H272	H	1.865996	0.276133	0.817569
