data_functionalizedCrystal
_audit_creation_method	'MofGen! by Chris Wilmer'
_symmetry_space_group_name_H-M	'P1'
_symmetry_Int_Tables_number	1
_symmetry_cell_setting	triclinic
loop_
_symmetry_equiv_pos_as_xyz
  x,y,z
_cell_length_a	30.711293
_cell_length_b	30.700791
_cell_length_c	30.700862
_cell_angle_alpha	89.998029
_cell_angle_beta	59.999649
_cell_angle_gamma	60.000191
loop_
_atom_site_label
_atom_site_type_symbol
_atom_site_fract_x
_atom_site_fract_y
_atom_site_fract_z
O1	O	-0.311648	-0.371257	0.012946
O2	O	-0.222486	-0.307915	-0.012905
O3	O	-0.311647	-0.307914	0.076286
O4	O	-0.222487	-0.371258	-0.076244
O5	O	-0.384064	-0.235471	0.076281
O6	O	-0.294903	-0.235472	-0.012909
O7	O	-0.384065	-0.298814	0.012941
Zn8	Zn	-0.350982	-0.255641	0.000015
Zn9	Zn	-0.255569	-0.351088	0.000022
O10	O	-0.294905	-0.298815	-0.076249
C11	C	-0.215946	-0.155921	-0.018773
C12	C	-0.246517	-0.098464	-0.015067
C13	C	-0.241901	-0.182377	-0.019145
C14	C	-0.137093	-0.234800	-0.018780
C15	C	-0.083353	-0.261680	-0.015083
C16	C	-0.163168	-0.261136	-0.019153
C17	C	-0.215940	-0.234800	-0.018783
C18	C	-0.246504	-0.261681	-0.015089
C19	C	-0.163173	-0.182377	-0.019143
C20	C	-0.535506	-0.574966	0.039266
C21	C	-0.588276	-0.548513	0.039633
C22	C	-0.535503	-0.496092	0.039261
C23	C	-0.588273	-0.469758	0.039628
C24	C	-0.614351	-0.496093	0.039261
C25	C	-0.509547	-0.548512	0.039633
C26	C	-0.393517	-0.765171	0.024998
C27	C	-0.364490	-0.819035	0.020964
C28	C	-0.389408	-0.846056	0.018939
C29	C	-0.357931	-0.904462	0.014555
C30	C	-0.443357	-0.819209	0.020953
C31	C	-0.472384	-0.765347	0.024994
C32	C	-0.447462	-0.738328	0.027016
C33	C	-0.790217	-0.447931	0.024977
C34	C	-0.840027	-0.423106	0.020938
C35	C	-0.865011	-0.371162	0.018906
C36	C	-0.919010	-0.344244	0.014518
C37	C	-0.840185	-0.344042	0.020919
C38	C	-0.790385	-0.368863	0.024968
C39	C	-0.765401	-0.420813	0.026993
C40	C	-0.393506	-0.447926	0.024978
C41	C	-0.364472	-0.423102	0.020932
C42	C	-0.389387	-0.371157	0.018902
C43	C	-0.357907	-0.344239	0.014513
C44	C	-0.443332	-0.344040	0.020913
C45	C	-0.472361	-0.368866	0.024957
C46	C	-0.447446	-0.420809	0.026994
C47	C	-0.478939	-0.679924	0.031393
C48	C	-0.504029	-0.633370	0.034884
C49	C	-0.504023	-0.469176	0.034874
C50	C	-0.478931	-0.447722	0.031379
C51	C	-0.668351	-0.469178	0.034874
C52	C	-0.711396	-0.447725	0.031378
C53	C	-0.071062	-0.496430	-0.503877
C54	C	-0.018292	-0.548850	-0.530210
C55	C	-0.071062	-0.496430	-0.425001
C56	C	-0.018292	-0.548851	-0.451454
C57	C	0.007785	-0.575305	-0.503874
C58	C	-0.097019	-0.470095	-0.451457
C59	C	-0.213054	-0.368667	-0.552046
C60	C	-0.242083	-0.343666	-0.576874
C61	C	-0.217167	-0.370617	-0.628819
C62	C	-0.248645	-0.343515	-0.655738
C63	C	-0.163218	-0.422570	-0.655937
C64	C	-0.134190	-0.447564	-0.631112
C65	C	-0.159110	-0.420611	-0.579165
C66	C	0.183647	-0.765510	-0.631630
C67	C	0.233456	-0.819374	-0.656629
C68	C	0.258441	-0.846398	-0.629678
C69	C	0.312440	-0.904802	-0.656775
C70	C	0.233618	-0.819550	-0.577726
C71	C	0.183818	-0.765686	-0.552731
C72	C	0.158832	-0.738669	-0.579689
C73	C	-0.213052	-0.368669	-0.234798
C74	C	-0.242085	-0.343671	-0.180932
C75	C	-0.217169	-0.370623	-0.153909
C76	C	-0.248646	-0.343521	-0.095503
C77	C	-0.163224	-0.422573	-0.180754
C78	C	-0.134196	-0.447569	-0.234618
C79	C	-0.159113	-0.420610	-0.261638
C80	C	-0.127632	-0.447719	-0.552248
C81	C	-0.102540	-0.469326	-0.530793
C82	C	-0.102539	-0.469327	-0.366598
C83	C	-0.127630	-0.447721	-0.320044
C84	C	0.061784	-0.633709	-0.530976
C85	C	0.104829	-0.680263	-0.552580
O86	O	0.063309	-0.298819	0.012947
O87	O	-0.063337	-0.235469	-0.012895
O88	O	-0.063332	-0.235483	0.076292
O89	O	0.063304	-0.298804	-0.076240
O90	O	-0.063327	-0.307931	0.076282
O91	O	-0.063332	-0.307917	-0.012905
O92	O	0.063314	-0.371267	0.012938
Zn93	Zn	-0.000008	-0.351094	0.000015
Zn94	Zn	-0.000015	-0.255641	0.000028
O95	O	0.063309	-0.371252	-0.076249
O96	O	-0.384087	0.076278	0.012980
O97	O	-0.294919	-0.076256	-0.012883
O98	O	-0.384078	0.012923	0.076312
O99	O	-0.294928	-0.012900	-0.076216
O100	O	-0.311659	0.012923	0.076315
O101	O	-0.222500	-0.076255	-0.012880
O102	O	-0.311668	0.076279	0.012982
Zn103	Zn	-0.255586	0.000012	0.000051
Zn104	Zn	-0.351001	0.000011	0.000048
O105	O	-0.222509	-0.012900	-0.076213
O106	O	0.456756	-1.076592	-0.692373
O107	O	0.330119	-0.924062	-0.629035
O108	O	0.330115	-1.013250	-0.629031
O109	O	0.456760	-0.987404	-0.692377
O110	O	0.330114	-1.013248	-0.701476
O111	O	0.330117	-0.924060	-0.701479
O112	O	0.456755	-1.076591	-0.764818
Zn113	Zn	0.393436	-1.000325	-0.744651
Zn114	Zn	0.393438	-1.000327	-0.649202
O115	O	0.456758	-0.987402	-0.764821
O116	O	-0.311647	-0.307914	-0.764507
O117	O	-0.222491	-0.371255	-0.701160
O118	O	-0.311650	-0.371255	-0.701160
O119	O	-0.222488	-0.307914	-0.764507
O120	O	-0.384068	-0.298811	-0.628718
O121	O	-0.294909	-0.298811	-0.628719
O122	O	-0.384066	-0.235470	-0.692065
Zn123	Zn	-0.350985	-0.255638	-0.648890
Zn124	Zn	-0.255571	-0.351087	-0.744335
O125	O	-0.294906	-0.235469	-0.692065
C126	C	-0.469459	-0.155927	0.234817
C127	C	-0.523196	-0.098472	0.261693
C128	C	-0.443383	-0.182382	0.261154
C129	C	-0.390613	-0.234802	0.155945
C130	C	-0.360047	-0.261680	0.098491
C131	C	-0.364656	-0.261137	0.182401
C132	C	-0.390613	-0.234802	0.234821
C133	C	-0.360047	-0.261680	0.261701
C134	C	-0.443383	-0.182382	0.182398
C135	C	-0.215937	-0.234835	0.234815
C136	C	-0.246501	-0.261718	0.261687
C137	C	-0.241898	-0.182415	0.261154
C138	C	-0.137088	-0.234825	0.155948
C139	C	-0.083347	-0.261698	0.098494
C140	C	-0.163169	-0.182405	0.182407
C141	C	-0.215942	-0.155956	0.234826
C142	C	-0.246513	-0.098501	0.261708
C143	C	-0.163163	-0.261164	0.182396
C144	C	-0.390614	0.018780	0.234847
C145	C	-0.360045	0.015077	0.261724
C146	C	-0.443383	0.019144	0.261180
C147	C	-0.390620	0.018793	0.155974
C148	C	-0.360058	0.015103	0.098520
C149	C	-0.443389	0.019157	0.182427
C150	C	-0.469462	0.018780	0.234845
C151	C	-0.523197	0.015076	0.261721
C152	C	-0.364661	0.019157	0.182428
C153	C	0.464517	-0.574918	-0.503872
C154	C	0.490473	-0.548459	-0.530201
C155	C	0.385663	-0.496049	-0.424994
C156	C	0.411739	-0.469710	-0.451443
C157	C	0.464512	-0.496040	-0.503862
C158	C	0.411744	-0.548469	-0.451453
C159	C	0.526952	-0.765127	-0.552055
C160	C	0.555809	-0.818991	-0.576885
C161	C	0.609766	-0.846007	-0.628829
C162	C	0.641064	-0.904413	-0.655751
C163	C	0.634860	-0.819155	-0.655943
C164	C	0.605999	-0.765293	-0.631116
C165	C	0.552042	-0.738279	-0.579169
C166	C	0.606502	-0.447857	-0.631603
C167	C	0.635529	-0.423027	-0.656598
C168	C	0.610613	-0.371084	-0.629644
C169	C	0.642085	-0.344159	-0.656737
C170	C	0.556661	-0.343969	-0.577693
C171	C	0.527630	-0.368794	-0.552703
C172	C	0.552560	-0.420744	-0.579664
C173	C	0.209790	-0.447905	-0.234797
C174	C	0.159982	-0.423087	-0.180932
C175	C	0.134993	-0.371141	-0.153906
C176	C	0.080990	-0.344230	-0.095501
C177	C	0.159816	-0.344019	-0.180746
C178	C	0.209624	-0.368840	-0.234610
C179	C	0.234604	-0.420783	-0.261633
C180	C	0.520753	-0.679876	-0.552249
C181	C	0.495810	-0.633322	-0.530792
C182	C	0.331660	-0.469140	-0.366591
C183	C	0.288612	-0.447690	-0.320038
C184	C	0.495988	-0.469120	-0.530959
C185	C	0.521078	-0.447662	-0.552560
O186	O	-0.311682	0.076246	0.298846
O187	O	-0.222503	-0.076287	0.235498
O188	O	-0.311678	0.012896	0.235508
O189	O	-0.222507	-0.012937	0.298837
O190	O	-0.384084	0.012882	0.307954
O191	O	-0.294908	-0.076301	0.307945
O192	O	-0.384088	0.076231	0.371293
Zn193	Zn	-0.350994	-0.000037	0.351121
Zn194	Zn	-0.255597	-0.000018	0.255670
O195	O	-0.294913	-0.012952	0.371283
C196	C	0.007393	-0.039139	-0.503833
C197	C	-0.018687	-0.039504	-0.530167
C198	C	-0.071449	-0.039152	-0.424962
C199	C	-0.097408	-0.039517	-0.451416
C200	C	-0.071456	-0.039140	-0.503834
C201	C	-0.018680	-0.039516	-0.451415
C202	C	0.183255	-0.024850	-0.551992
C203	C	0.233063	-0.020808	-0.576817
C204	C	0.258044	-0.018773	-0.628760
C205	C	0.312042	-0.014380	-0.655676
C206	C	0.233217	-0.020784	-0.655880
C207	C	0.183418	-0.024833	-0.631058
C208	C	0.158437	-0.026866	-0.579112
C209	C	-0.133891	-0.024840	-0.631591
C210	C	-0.162748	-0.020798	-0.656591
C211	C	-0.216700	-0.018774	-0.629643
C212	C	-0.247997	-0.014384	-0.656741
C213	C	-0.241792	-0.020797	-0.577692
C214	C	-0.212931	-0.024848	-0.552697
C215	C	-0.158978	-0.026866	-0.579652
C216	C	-0.133856	-0.024902	-0.234761
C217	C	-0.162710	-0.020866	-0.180895
C218	C	-0.216662	-0.018844	-0.153875
C219	C	-0.247951	-0.014466	-0.095471
C220	C	-0.241761	-0.020853	-0.180721
C221	C	-0.212907	-0.024887	-0.234584
C222	C	-0.158950	-0.026916	-0.261601
C223	C	0.104434	-0.031251	-0.552199
C224	C	0.061391	-0.034749	-0.530746
C225	C	-0.102733	-0.034776	-0.366559
C226	C	-0.127669	-0.031290	-0.320006
C227	C	-0.102748	-0.034750	-0.530937
C228	C	-0.127690	-0.031253	-0.552542
H229	H	-0.141350	-0.161136	-0.019736
C230	C	-0.135097	-0.018657	-0.151369
N231	N	-0.114297	-0.016996	-0.129131
C232	C	0.156519	-0.736157	-0.495589
N233	N	0.135957	-0.713916	-0.452548
H234	H	-0.141336	-0.304210	-0.019753
H235	H	-0.322188	-0.304205	0.161159
C236	C	-0.472868	-0.153690	0.153704
N237	N	-0.495076	-0.132081	0.132093
H238	H	0.532935	-0.569695	-0.573272
C239	C	0.011192	-0.577543	-0.422760
N240	N	0.033400	-0.599153	-0.401149
C241	C	0.010793	-0.040297	-0.588352
N242	N	0.032996	-0.040894	-0.632175
C243	C	-0.301423	-0.286525	-0.151407
N244	N	-0.346115	-0.243481	-0.129170
H245	H	0.678789	-0.841154	-0.698237
H246	H	-0.322198	0.019752	0.161192
C247	C	-0.299260	-0.153731	0.319342
N248	N	-0.342462	-0.132127	0.363168
H249	H	-0.769881	-0.490228	0.026630
C250	C	-0.074542	-0.027066	-0.661245
N251	N	-0.029840	-0.028742	-0.683579
C252	C	0.261097	-0.849275	-0.548076
N253	N	0.281791	-0.871667	-0.525742
H254	H	-0.090272	-0.489868	-0.256471
H255	H	0.483702	-0.346714	-0.510406
C256	C	0.694877	-0.452857	-0.713739
N257	N	0.739579	-0.475327	-0.756777
C258	C	-0.074506	-0.027128	-0.264477
N259	N	-0.029806	-0.028802	-0.286860
H260	H	-0.465211	-0.161141	0.304225
C261	C	-0.366092	-0.505068	0.027209
N262	N	-0.345443	-0.548108	0.028887
C263	C	-0.366099	-0.735455	0.027224
N264	N	-0.345448	-0.713072	0.028899
C265	C	0.132328	-0.286878	-0.151017
N266	N	0.111626	-0.243840	-0.128626
H267	H	-0.284361	-0.161138	-0.019745
H268	H	-0.141347	-0.161163	0.161169
C269	C	0.132680	-0.452924	-0.151412
N270	N	0.112114	-0.475398	-0.129178
H271	H	-0.141339	-0.304234	0.161155
H272	H	-0.610092	-0.426688	0.040215
C273	C	-0.472874	0.019961	0.153734
N274	N	-0.495082	0.020568	0.132124
C275	C	-0.240467	-0.339011	-0.494907
N276	N	-0.261112	-0.316676	-0.451870
C277	C	0.382258	-0.411528	-0.422741
N278	N	0.360057	-0.367708	-0.401123
C279	C	-0.305146	-0.848564	0.018743
N280	N	-0.260446	-0.870805	0.017068
H281	H	-0.860233	-0.445191	0.019296
H282	H	0.003121	-0.040070	-0.430164
C283	C	0.155783	-0.027090	-0.494853
N284	N	0.135089	-0.028776	-0.451817
H285	H	-0.610099	-0.569754	0.040226
H286	H	0.389931	-0.569718	-0.430216
C287	C	-0.867668	-0.286903	0.018686
N288	N	-0.888365	-0.243866	0.016999
C289	C	-0.472860	0.019933	0.319363
N290	N	-0.495060	0.020525	0.363185
H291	H	-0.467082	-0.569754	0.040224
C292	C	0.237273	-0.505046	-0.264519
N293	N	0.257977	-0.548085	-0.286907
H294	H	0.483018	-0.743137	-0.509759
H295	H	-0.090264	-0.489862	-0.653196
H296	H	-0.320546	-0.445187	0.019291
C297	C	0.236924	-0.339002	-0.264131
N298	N	0.257486	-0.316526	-0.286366
C299	C	-0.470772	-0.848930	0.018740
N300	N	-0.491426	-0.871315	0.017078
C301	C	0.011191	-0.577542	-0.588396
N302	N	0.033396	-0.599153	-0.632220
C303	C	0.529248	-0.286829	-0.548043
N304	N	0.508603	-0.243791	-0.525709
C305	C	-0.470741	-0.286896	0.018682
N306	N	-0.491387	-0.243857	0.017003
H307	H	0.535374	-0.840851	-0.554804
C308	C	0.633605	-0.735760	-0.660941
N309	N	0.654400	-0.713516	-0.683406
H310	H	-0.516310	-0.743491	0.026635
C311	C	0.260361	-0.018588	-0.546981
N312	N	0.280921	-0.016914	-0.524506
H313	H	-0.770177	-0.346778	0.026608
H314	H	0.626803	-0.490155	-0.653559
C315	C	-0.531704	-0.339032	0.027175
N316	N	-0.576402	-0.316559	0.028847
C317	C	-0.154769	-0.040327	-0.422726
N318	N	-0.197970	-0.040940	-0.401118
C319	C	-0.154384	-0.411909	-0.422766
N320	N	-0.197589	-0.368085	-0.401157
C321	C	-0.240468	-0.339015	-0.264516
N322	N	-0.261117	-0.316683	-0.286901
H323	H	0.253562	-0.019130	-0.698173
C324	C	0.156111	-0.027043	-0.660890
N325	N	0.135542	-0.028705	-0.683359
H326	H	-0.142316	-0.019148	-0.698888
H327	H	-0.286007	-0.301367	-0.554790
C328	C	-0.135815	-0.452212	-0.713075
N329	N	-0.115174	-0.474542	-0.756113
H330	H	-0.285717	-0.019156	-0.555752
C331	C	-0.240533	-0.027072	-0.495554
N332	N	-0.261327	-0.028744	-0.452512
H333	H	-0.233346	-0.026524	-0.256439
H334	H	0.163310	-0.743516	-0.653584
H335	H	0.253663	-0.841229	-0.698927
C336	C	-0.301109	-0.018631	-0.151000
N337	N	-0.345808	-0.016959	-0.128615
H338	H	-0.142937	-0.444519	-0.158749
