data_functionalizedCrystal
_audit_creation_method	'MofGen! by Chris Wilmer'
_symmetry_space_group_name_H-M	'P1'
_symmetry_Int_Tables_number	1
_symmetry_cell_setting	triclinic
loop_
_symmetry_equiv_pos_as_xyz
  x,y,z
_cell_length_a	17.699097
_cell_length_b	17.019294
_cell_length_c	16.776229
_cell_angle_alpha	86.114377
_cell_angle_beta	89.989262
_cell_angle_gamma	83.341215
loop_
_atom_site_label
_atom_site_type_symbol
_atom_site_fract_x
_atom_site_fract_y
_atom_site_fract_z
O1	O	1.004141	0.099807	-0.073204
O2	O	1.504141	0.599807	0.426796
O3	O	0.783773	0.112774	-0.074081
O4	O	1.283773	0.612774	0.425919
O5	O	0.900104	-0.008554	-0.065756
O6	O	1.400104	0.491446	0.434244
O7	O	0.887810	0.221135	-0.081529
O8	O	1.387810	0.721135	0.418471
O9	O	0.900089	-0.008561	0.066821
O10	O	1.400089	0.491439	0.566821
O11	O	0.783757	0.112767	0.058496
O12	O	1.283757	0.612767	0.558496
O13	O	1.004125	0.099799	0.059373
O14	O	1.504125	0.599799	0.559373
Zn15	Zn	0.893939	0.106282	0.079984
Zn16	Zn	1.393939	0.606282	0.579984
Zn17	Zn	0.893959	0.106292	-0.094692
Zn18	Zn	1.393959	0.606292	0.405308
O19	O	0.887794	0.221128	0.051048
O20	O	1.387794	0.721128	0.551048
C21	C	0.755568	0.112304	-0.007759
C22	C	1.255568	0.612304	0.492241
C23	C	0.671549	0.110905	-0.007658
C24	C	1.171549	0.610905	0.492342
C25	C	0.899630	-0.037946	0.002549
C26	C	1.399630	0.462054	0.502549
C27	C	0.898231	-0.125514	0.008558
C28	C	1.398231	0.374486	0.508558
C29	C	0.155834	0.102332	-0.079369
C30	C	0.655834	0.602332	0.420631
C31	C	0.234779	0.103641	-0.079455
C32	C	0.734779	0.603641	0.420545
C33	C	0.274237	0.104293	-0.007229
C34	C	0.774237	0.604293	0.492771
C35	C	0.234747	0.103628	0.065088
C36	C	0.734747	0.603628	0.565088
C37	C	0.155804	0.102313	0.065174
C38	C	0.655804	0.602313	0.565174
C39	C	0.553114	0.108930	0.064745
C40	C	1.053114	0.608930	0.564745
C41	C	0.632062	0.110247	0.064654
C42	C	1.132062	0.610247	0.564654
C43	C	0.632089	0.110259	-0.079883
C44	C	1.132089	0.610259	0.420117
C45	C	0.553146	0.108944	-0.079798
C46	C	1.053146	0.608944	0.420202
C47	C	0.513664	0.108274	-0.007481
C48	C	1.013664	0.608274	0.492519
C49	C	0.428063	0.106853	-0.007388
C50	C	0.928063	0.606853	0.492612
C51	C	0.359835	0.105720	-0.007321
C52	C	0.859835	0.605720	0.492679
C53	C	0.897584	-0.166645	-0.060886
C54	C	1.397584	0.333355	0.439114
C55	C	0.896265	-0.248924	-0.055238
C56	C	1.396265	0.251076	0.444762
C57	C	0.895598	-0.290071	0.019855
C58	C	1.395598	0.209929	0.519855
C59	C	0.896243	-0.248934	0.089305
C60	C	1.396243	0.251066	0.589305
C61	C	0.897557	-0.166656	0.083656
C62	C	1.397557	0.333344	0.583656
C63	C	0.891626	-0.538497	0.040527
C64	C	1.391626	-0.038497	0.540527
C65	C	0.890314	-0.620781	0.046171
C66	C	1.390314	-0.120781	0.546171
C67	C	0.890335	-0.620766	-0.098372
C68	C	1.390335	-0.120766	0.401628
C69	C	0.891653	-0.538487	-0.104015
C70	C	1.391653	-0.038487	0.395985
C71	C	0.892294	-0.497356	-0.034565
C72	C	1.392294	0.002644	0.465435
C73	C	0.894252	-0.374173	0.025631
C74	C	1.394252	0.125827	0.525631
C75	C	0.893634	-0.413254	-0.040341
C76	C	1.393634	0.086746	0.459659
C77	C	1.032330	0.100270	-0.006951
C78	C	1.532330	0.600270	0.493049
C79	C	1.116349	0.101669	-0.007057
C80	C	1.616349	0.601669	0.492943
C81	C	0.888268	0.250520	-0.017259
C82	C	1.388268	0.750520	0.482741
C83	C	0.889667	0.338088	-0.023273
C84	C	1.389667	0.838088	0.476727
N85	N	0.893931	0.106275	0.199196
N86	N	1.393931	0.606275	0.699196
N87	N	0.893974	0.106293	-0.213903
N88	N	1.393974	0.606293	0.286097
C89	C	0.945458	0.052573	0.244598
C90	C	1.445458	0.552573	0.744598
C91	C	0.945462	0.052572	0.328050
C92	C	1.445462	0.552572	0.828050
C93	C	0.893942	0.106278	0.366098
C94	C	1.393942	0.606278	0.866098
C95	C	0.842409	0.159983	0.320690
C96	C	1.342409	0.659983	0.820690
C97	C	0.842402	0.159979	0.237240
C98	C	1.342402	0.659979	0.737240
C99	C	0.842437	0.159998	0.657236
C100	C	1.342437	0.659998	1.157236
C101	C	0.842449	0.159999	0.740693
C102	C	1.342449	0.659999	1.240693
C103	C	0.945497	0.052591	0.748046
C104	C	1.445497	0.552591	1.248046
C105	C	0.945489	0.052587	0.664596
C106	C	1.445489	0.552587	1.164596
C107	C	0.893954	0.106289	0.619195
C108	C	1.393954	0.606289	1.119195
C109	C	0.893949	0.106288	0.528707
C110	C	1.393949	0.606288	1.028707
C111	C	0.893950	0.106283	0.456585
C112	C	1.393950	0.606283	0.956585
H113	H	0.266924	0.104176	-0.138338
H114	H	0.766924	0.604176	0.361662
H115	H	0.889767	-0.654280	0.107324
H116	H	1.389767	-0.154280	0.607324
O117	O	0.894349	-0.368881	-0.121335
O118	O	1.394349	0.131119	0.378665
H119	H	0.946511	-0.338524	-0.126877
H120	H	1.446511	0.161476	0.373123
O121	O	0.510589	0.108189	0.142774
O122	O	1.010589	0.608189	0.642774
H123	H	0.532593	0.054689	0.181065
H124	H	1.032593	0.554689	0.681065
O125	O	0.674673	0.110974	-0.157887
O126	O	1.174673	0.610974	0.342113
H127	H	0.666320	0.056984	-0.188838
H128	H	1.166320	0.556984	0.311162
H129	H	0.892197	-0.504990	-0.165164
H130	H	1.392197	-0.004990	0.334836
O131	O	0.786847	0.217914	0.361729
O132	O	1.286847	0.717914	0.861729
H133	H	0.751013	0.255253	0.316135
H134	H	1.251013	0.755253	0.816135
O135	O	0.892321	-0.494138	0.115429
O136	O	1.392321	0.005862	0.615429
H137	H	0.944476	-0.463771	0.116794
H138	H	1.444476	0.036229	0.616794
H139	H	0.123712	0.101807	-0.138184
H140	H	0.623712	0.601807	0.361816
H141	H	0.123655	0.101781	0.124057
H142	H	0.623655	0.601781	0.624057
O143	O	0.898297	-0.122265	-0.141881
O144	O	1.398297	0.377735	0.358119
H145	H	0.897616	-0.164691	-0.189220
H146	H	1.397616	0.335309	0.310780
O147	O	0.510589	0.108214	-0.157696
O148	O	1.010589	0.608214	0.342304
H149	H	0.551311	0.108878	-0.207993
H150	H	1.051311	0.608878	0.292007
H151	H	0.889812	-0.654263	-0.154914
H152	H	1.389812	-0.154263	0.345086
H153	H	0.800477	0.203725	0.620278
H154	H	1.300477	0.703725	1.120278
H155	H	0.987419	0.008843	0.365016
H156	H	1.487419	0.508843	0.865016
O157	O	0.786831	0.217904	0.188264
O158	O	1.286831	0.717904	0.688264
H159	H	0.751012	0.255255	0.228739
H160	H	1.251012	0.755255	0.728739
H161	H	0.664187	0.110778	0.123473
H162	H	1.164187	0.610778	0.623473
H163	H	0.987457	0.008862	0.785021
H164	H	1.487457	0.508862	1.285021
O165	O	0.277298	0.104336	0.142993
O166	O	0.777298	0.604336	0.642993
H167	H	0.338825	0.105372	0.130786
H168	H	0.838825	0.605372	0.630786
H169	H	0.895695	-0.282441	0.150447
H170	H	1.395695	0.217559	0.650447
H171	H	0.895741	-0.282410	-0.111787
H172	H	1.395741	0.217590	0.388213
H173	H	0.898073	-0.133166	0.140205
H174	H	1.398073	0.366834	0.640205
H175	H	0.893712	-0.407685	0.086772
H176	H	1.393712	0.092315	0.586772
O177	O	1.001023	-0.005356	0.203560
O178	O	1.501023	0.494644	0.703560
H179	H	1.036847	-0.042705	0.249155
H180	H	1.536847	0.457295	0.749155
O181	O	1.001052	-0.005342	0.623556
O182	O	1.501052	0.494658	1.123556
H183	H	1.036878	-0.042692	0.669148
H184	H	1.536878	0.457308	1.169148
H185	H	0.800493	0.203735	0.771670
H186	H	1.300493	0.703735	1.271670
