data_functionalizedCrystal
_audit_creation_method	'MofGen! by Chris Wilmer'
_symmetry_space_group_name_H-M	'P1'
_symmetry_Int_Tables_number	1
_symmetry_cell_setting	triclinic
loop_
_symmetry_equiv_pos_as_xyz
  x,y,z
_cell_length_a	18.426585
_cell_length_b	21.606444
_cell_length_c	21.606444
_cell_angle_alpha	59.998659
_cell_angle_beta	90.001433
_cell_angle_gamma	60.003217
loop_
_atom_site_label
_atom_site_type_symbol
_atom_site_fract_x
_atom_site_fract_y
_atom_site_fract_z
Zr1	Zr	0.699136	0.677473	-0.081242
O2	O	0.583259	0.806591	-0.180067
O3	O	0.734654	0.548355	-0.050946
O4	O	0.734652	0.677478	-0.180069
O5	O	0.583267	0.677463	0.050911
O6	O	0.854078	0.677483	-0.180072
O7	O	0.583261	0.677467	-0.050943
O8	O	0.854082	0.446505	0.050906
O9	O	0.583264	0.908441	-0.180067
O10	O	0.838933	0.601466	-0.038028
O11	O	0.749812	0.601460	0.037987
O12	O	0.749809	0.753486	-0.114039
O13	O	0.660688	0.753479	-0.038025
Zr14	Zr	0.889616	0.677473	0.081200
Zr15	Zr	0.889606	0.677480	-0.081246
Zr16	Zr	0.699145	0.677466	0.081204
Zr17	Zr	0.699143	0.839912	-0.081242
Zr18	Zr	0.889609	0.515033	0.081201
O19	O	0.854098	0.806590	0.050904
O20	O	0.854084	0.806600	-0.180072
O21	O	0.583273	0.806581	0.050910
O22	O	1.005492	0.548355	0.180025
O23	O	1.005479	0.548365	-0.050952
O24	O	0.734668	0.548345	0.180031
O25	O	1.005484	0.677483	-0.050952
O26	O	0.854100	0.677467	0.180027
O27	O	0.734674	0.677463	0.180030
O28	O	1.005490	0.677478	0.050902
O29	O	0.734662	0.908446	-0.180070
O30	O	0.854089	0.446499	0.180029
O31	O	1.005488	0.446505	0.180025
O32	O	1.005480	0.446510	0.050903
O33	O	0.583271	0.908435	-0.050945
O34	O	0.734670	0.908441	-0.050948
O35	O	0.838942	0.601460	0.113997
O36	O	0.928064	0.601466	0.037983
O37	O	0.838940	0.753486	-0.038029
O38	O	0.749818	0.753479	0.037986
C39	C	0.794367	0.474286	-0.000020
C40	C	0.794364	0.405326	-0.000019
C41	C	0.840910	-0.017979	-0.039700
C42	C	0.840903	0.046821	-0.039703
C43	C	0.794380	0.079215	-0.000024
C44	C	0.747852	0.046811	0.039655
C45	C	0.747854	-0.017984	0.039653
C46	C	0.747843	0.308122	0.039662
C47	C	0.747847	0.372919	0.039663
C48	C	0.840892	0.372927	-0.039694
C49	C	0.840894	0.308132	-0.039695
C50	C	0.794363	0.275737	-0.000020
C51	C	0.794369	0.205474	-0.000019
C52	C	0.794378	0.149472	-0.000020
C53	C	0.556126	0.677464	-0.000016
C54	C	0.475267	0.677461	-0.000014
C55	C	0.179152	0.677487	-0.000027
C56	C	0.261538	0.677484	-0.000026
C57	C	0.327206	0.677475	-0.000021
C58	C	0.409598	0.677471	-0.000018
C59	C	1.032625	0.677481	-0.000026
C60	C	1.113485	0.677484	-0.000028
C61	C	0.794364	0.677481	-0.203215
C62	C	0.794360	0.677484	-0.272178
C63	C	0.794385	0.880660	-0.000022
C64	C	0.794388	0.949619	-0.000022
C65	C	0.747837	0.756836	-0.344254
C66	C	0.747845	0.756834	-0.409049
C67	C	0.794370	0.677479	-0.401766
C68	C	0.840898	0.598121	-0.329682
C69	C	0.840895	0.598124	-0.264889
C70	C	0.840912	0.598105	-0.590985
C71	C	0.840910	0.598108	-0.655786
C72	C	0.747862	0.756815	-0.735145
C73	C	0.747859	0.756819	-0.670352
C74	C	0.794391	0.677461	-0.598274
C75	C	0.794383	0.677465	-0.528017
C76	C	0.794373	0.677474	-0.472022
C77	C	0.794388	0.677464	0.203174
C78	C	0.794392	0.677461	0.272136
C79	C	1.032616	0.474294	-0.000025
C80	C	1.113473	0.405337	-0.000026
C81	C	0.794379	0.474277	0.203175
C82	C	0.794380	0.405314	0.272138
C83	C	1.032629	0.474286	0.203170
C84	C	1.113489	0.405326	0.272131
C85	C	0.556123	0.880660	-0.203211
C86	C	0.475262	0.949620	-0.272172
C87	C	0.556135	0.880651	-0.000017
C88	C	0.475279	0.949608	-0.000015
C89	C	0.794373	0.880668	-0.203217
C90	C	0.794372	0.949631	-0.272179
C91	C	1.104919	0.372955	-0.039711
C92	C	1.180885	0.308171	-0.039727
C93	C	1.265405	0.275768	-0.000054
C94	C	1.273957	0.308157	0.039631
C95	C	1.197992	0.372943	0.039643
C96	C	0.840906	0.372929	0.344207
C97	C	0.840903	0.308140	0.409011
C98	C	0.794380	0.275734	0.401744
C99	C	0.747848	0.308126	0.329667
C100	C	0.747846	0.372918	0.264865
C101	C	1.197991	0.372945	0.264837
C102	C	1.273976	0.308159	0.329627
C103	C	1.265457	0.275750	0.401710
C104	C	1.180946	0.308138	0.409002
C105	C	1.104963	0.372927	0.344213
C106	C	0.390761	0.982008	-0.264878
C107	C	0.314776	1.046815	-0.329668
C108	C	0.323295	1.079226	-0.401752
C109	C	0.407806	1.046835	-0.409044
C110	C	0.483788	0.982034	-0.344255
C111	C	0.483833	0.981998	0.039662
C112	C	0.407867	1.046799	0.039661
C113	C	0.323347	1.079205	-0.000014
C114	C	0.314795	1.046812	-0.039697
C115	C	0.390760	0.982017	-0.039699
C116	C	0.840904	0.982017	-0.264888
C117	C	0.840921	1.046806	-0.329680
C118	C	0.794399	1.079213	-0.401762
C119	C	0.747865	1.046821	-0.409051
C120	C	0.747854	0.982028	-0.344261
H121	H	0.878781	0.281756	-0.072003
Cl122	Cl	0.689355	0.856596	-0.499658
H123	H	0.709970	0.821438	-0.676288
H124	H	0.878802	0.533487	-0.532305
Cl125	Cl	0.794418	1.160670	-0.483207
Cl126	Cl	0.689368	0.267375	0.320545
H127	H	1.036161	0.399283	0.350163
H128	H	1.174023	0.281741	0.467701
Cl129	Cl	0.899405	0.498339	-0.646626
Cl130	Cl	0.689356	0.413618	0.174266
H131	H	0.245972	1.073177	-0.323716
H132	H	1.342781	0.281796	0.323676
Cl133	Cl	1.208724	0.413679	0.174226
H134	H	0.878788	0.955641	-0.206201
H135	H	0.245969	1.073207	-0.071999
Cl136	Cl	0.380028	0.941275	-0.174267
H137	H	1.327334	0.222995	0.454459
Cl138	Cl	0.899419	1.087520	-0.320498
H139	H	0.878798	0.281774	0.467693
Cl140	Cl	0.227764	1.160690	-0.483195
H141	H	0.709969	-0.044362	0.071961
Cl142	Cl	0.899389	0.498359	-0.320527
Cl143	Cl	0.379990	0.941300	-0.089579
H144	H	0.878778	0.533507	-0.206202
Cl145	Cl	0.418500	1.087587	-0.499669
H146	H	0.878791	0.399307	0.350138
H147	H	0.552591	0.955664	-0.350203
H148	H	0.794389	0.222976	0.454517
Cl149	Cl	0.689344	0.856604	-0.353418
Cl150	Cl	0.590077	0.941276	0.089541
Cl151	Cl	0.418639	1.087503	0.089555
Cl152	Cl	0.689374	1.087578	-0.499675
H153	H	1.204969	0.399301	0.071963
H154	H	0.709958	0.955667	-0.350208
H155	H	0.878799	-0.044354	-0.072007
Cl156	Cl	0.227855	1.160661	-0.000001
H157	H	0.878784	0.073202	-0.072011
H158	H	0.709957	0.399295	0.071974
Cl159	Cl	0.899384	0.413660	-0.089576
H160	H	0.709957	0.281751	0.071970
H161	H	0.709976	0.821432	-0.793840
H162	H	0.709968	0.073195	0.071959
H163	H	1.036106	0.399337	-0.072026
H164	H	1.173904	0.281808	-0.072043
H165	H	1.342783	0.281764	0.071931
Cl166	Cl	1.360896	0.194318	-0.000075
