data_functionalizedCrystal
_audit_creation_method	'MofGen! by Chris Wilmer'
_symmetry_space_group_name_H-M	'P1'
_symmetry_Int_Tables_number	1
_symmetry_cell_setting	triclinic
loop_
_symmetry_equiv_pos_as_xyz
  x,y,z
_cell_length_a	16.109301
_cell_length_b	10.654550
_cell_length_c	14.586319
_cell_angle_alpha	89.996358
_cell_angle_beta	89.999213
_cell_angle_gamma	83.973206
loop_
_atom_site_label
_atom_site_type_symbol
_atom_site_fract_x
_atom_site_fract_y
_atom_site_fract_z
O1	O	1.104091	0.161419	-0.076182
O2	O	0.862148	0.181507	-0.076197
O3	O	0.988682	-0.011352	-0.076183
O4	O	0.977557	0.354278	-0.076195
O5	O	0.988673	-0.011354	0.076298
O6	O	0.862139	0.181504	0.076284
O7	O	1.104082	0.161416	0.076299
Cu8	Cu	0.983110	0.171460	0.090214
Cu9	Cu	0.983120	0.171463	-0.090112
O10	O	0.977548	0.354275	0.076285
C11	C	0.831164	0.180692	0.000042
C12	C	0.738854	0.178253	0.000037
C13	C	0.517228	0.287019	0.000044
C14	C	0.430494	0.284717	0.000049
C15	C	0.449008	0.055896	0.000053
C16	C	0.535741	0.058199	0.000054
C17	C	0.569848	0.173764	0.000044
C18	C	0.396382	0.169159	0.000050
C19	C	0.302341	0.166662	0.000056
C20	C	0.663895	0.176262	0.000040
C21	C	0.987861	-0.058140	0.000057
C22	C	0.985417	-0.197550	0.000055
C23	C	1.059918	-0.278046	0.000059
C24	C	1.057616	-0.409036	0.000048
C25	C	0.906306	-0.379020	0.000032
C26	C	0.908608	-0.248033	0.000037
C27	C	1.145364	-0.606070	-0.053373
C28	C	1.219869	-0.686572	-0.053353
C29	C	1.287407	-0.657317	0.000086
C30	C	1.280443	-0.547563	0.053528
C31	C	1.205937	-0.467068	0.053516
C32	C	1.138402	-0.496322	0.000056
C33	C	0.820866	-0.050997	0.053465
C34	C	0.746359	0.029500	0.053460
C35	C	0.678814	0.000249	0.000026
C36	C	0.685770	-0.109507	-0.053402
C37	C	0.760277	-0.190004	-0.053397
C38	C	0.827822	-0.160745	0.000036
C39	C	1.135066	0.162231	0.000058
C40	C	1.227376	0.164671	0.000058
C41	C	0.978369	0.401063	0.000043
C42	C	0.980813	0.540473	0.000039
N43	N	0.983108	0.171457	0.217046
N44	N	0.983128	0.171457	-0.216944
C45	C	1.039156	0.086088	0.452058
C46	C	1.039159	0.086084	0.548040
C47	C	0.927074	0.256830	0.548037
C48	C	0.927068	0.256826	0.452058
C49	C	0.983114	0.171456	0.404071
C50	C	0.983122	0.171457	0.596031
C51	C	0.983124	0.171455	0.700099
C52	C	0.983111	0.171457	0.299997
H53	H	0.578586	-0.034032	0.000057
O54	O	1.134455	-0.228797	0.000108
C55	C	1.120515	-0.095922	0.000089
H56	H	1.055811	-0.065136	0.028955
H57	H	1.169706	-0.055733	0.044361
H58	H	1.124758	-0.059452	-0.073063
O59	O	0.415736	-0.056248	0.000014
C60	C	0.327900	-0.033999	0.000034
H61	H	0.308100	0.064013	-0.028834
H62	H	0.300851	-0.107938	-0.044236
H63	H	0.303724	-0.040082	0.073186
H64	H	0.618142	0.065794	0.000039
O65	O	0.872556	0.339804	0.594511
C66	C	0.823101	0.415170	0.531571
H67	H	0.821865	0.363678	0.463157
H68	H	0.756819	0.434296	0.559307
H69	H	0.850629	0.508475	0.521355
O70	O	0.872741	0.339816	0.405337
C71	C	0.917710	0.417326	0.349826
H72	H	0.982476	0.367333	0.335448
H73	H	0.883122	0.437175	0.282334
H74	H	0.923895	0.510146	0.386808
H75	H	0.765941	-0.279365	-0.096914
O76	O	1.346067	-0.519373	0.105507
C77	C	1.366795	-0.617190	0.169212
H78	H	1.343604	-0.708068	0.142977
H79	H	1.437440	-0.631916	0.178238
H80	H	1.336102	-0.590683	0.237933
O81	O	0.831750	-0.428213	-0.000099
C82	C	0.825888	-0.503051	-0.079083
H83	H	0.891231	-0.535699	-0.105407
H84	H	0.792250	-0.588812	-0.061325
H85	H	0.789444	-0.445159	-0.134384
O86	O	0.620092	-0.137712	-0.105292
C87	C	0.552833	-0.043143	-0.093825
H88	H	0.577525	0.047842	-0.070018
H89	H	0.518714	-0.025870	-0.161863
H90	H	0.507874	-0.074929	-0.040325
H91	H	0.544996	0.381119	0.000043
O92	O	1.199318	-0.360481	0.105442
C93	C	1.274897	-0.351939	0.152641
H94	H	1.327964	-0.409439	0.114880
H95	H	1.288100	-0.249003	0.156102
H96	H	1.269742	-0.390464	0.225105
H97	H	1.084791	0.016573	0.412990
H98	H	0.875872	-0.027152	0.096959
H99	H	1.348071	-0.722871	0.000101
H100	H	1.090378	-0.629892	-0.096901
O101	O	0.379499	0.394848	0.000005
C102	C	0.428206	0.497335	0.000021
H103	H	0.492745	0.465435	-0.028848
H104	H	0.396673	0.576688	-0.044250
H105	H	0.434586	0.532756	0.073173
O106	O	1.226647	-0.793048	-0.105409
C107	C	1.214171	-0.760231	-0.198407
H108	H	1.228302	-0.658697	-0.209413
H109	H	1.257547	-0.826088	-0.242939
H110	H	1.146577	-0.769372	-0.218071
O111	O	1.093680	0.003112	0.594512
C112	C	1.143127	-0.072255	0.531572
H113	H	1.144358	-0.020764	0.463153
H114	H	1.209412	-0.091384	0.559300
H115	H	1.115597	-0.165560	0.521370
O116	O	0.739750	0.136093	0.105387
C117	C	0.815337	0.144643	0.152567
H118	H	0.868399	0.087151	0.114792
H119	H	0.828535	0.247581	0.156026
H120	H	0.810200	0.106112	0.225032
