data_functionalizedCrystal
_audit_creation_method	'MofGen! by Chris Wilmer'
_symmetry_space_group_name_H-M	'P1'
_symmetry_Int_Tables_number	1
_symmetry_cell_setting	triclinic
loop_
_symmetry_equiv_pos_as_xyz
  x,y,z
_cell_length_a	17.077404
_cell_length_b	17.077402
_cell_length_c	17.077396
_cell_angle_alpha	90.029784
_cell_angle_beta	90.019501
_cell_angle_gamma	90.023108
loop_
_atom_site_label
_atom_site_type_symbol
_atom_site_fract_x
_atom_site_fract_y
_atom_site_fract_z
Zn1	Zn	-1.200055	0.312503	-0.443836
Zn2	Zn	-0.866721	0.645837	-0.110502
Zn3	Zn	-0.533388	0.979170	0.222831
Zn4	Zn	-1.199962	0.443778	-0.312567
Zn5	Zn	-0.866628	0.777112	0.020767
Zn6	Zn	-0.533295	1.110445	0.354100
Zn7	Zn	-1.068786	0.312531	-0.312584
Zn8	Zn	-0.735453	0.645864	0.020750
Zn9	Zn	-0.402120	0.979198	0.354083
Zn10	Zn	-1.068754	0.443732	-0.443790
Zn11	Zn	-0.735421	0.777065	-0.110457
Zn12	Zn	-0.402088	1.110398	0.222876
O13	O	-1.134389	0.378136	-0.378194
O14	O	-0.801056	0.711469	-0.044861
O15	O	-0.467723	1.044803	0.288473
O16	O	-1.309889	0.329925	-0.426434
O17	O	-0.976556	0.663259	-0.093101
O18	O	-0.643223	0.996592	0.240232
O19	O	-1.182536	0.426399	-0.202722
O20	O	-0.849202	0.759732	0.130611
O21	O	-0.515869	1.093066	0.463945
O22	O	-1.086252	0.202680	-0.330021
O23	O	-0.752918	0.536014	0.003313
O24	O	-0.419585	0.869347	0.336646
O25	O	-1.309821	0.426372	-0.329992
O26	O	-0.976488	0.759706	0.003342
O27	O	-0.643154	1.093039	0.336675
O28	O	-1.182694	0.202660	-0.426451
O29	O	-0.849361	0.535993	-0.093118
O30	O	-0.516027	0.869327	0.240216
O31	O	-1.086162	0.329972	-0.202734
O32	O	-0.752828	0.663306	0.130599
O33	O	-0.419495	0.996639	0.463932
O34	O	-0.958935	0.329927	-0.329976
O35	O	-0.625602	0.663260	0.003357
O36	O	-0.292269	0.996594	0.336690
O37	O	-1.086197	0.426293	-0.553643
O38	O	-0.752864	0.759626	-0.220310
O39	O	-0.419531	1.092960	0.113023
O40	O	-0.958912	0.426320	-0.426373
O41	O	-0.625578	0.759653	-0.093040
O42	O	-0.292245	1.092986	0.240293
O43	O	-1.182663	0.329880	-0.553677
O44	O	-0.849330	0.663213	-0.220343
O45	O	-0.515996	0.996547	0.112990
O46	O	-1.182505	0.553619	-0.329948
O47	O	-0.849171	0.886952	0.003386
O48	O	-0.515838	1.220286	0.336719
O49	O	-1.086107	0.553585	-0.426357
O50	O	-0.752774	0.886918	-0.093024
O51	O	-0.419440	1.220251	0.240310
C52	C	-0.930441	0.378122	-0.378172
C53	C	-0.597108	0.711455	-0.044839
C54	C	-0.263775	1.044789	0.288494
C55	C	-0.843192	0.378135	-0.378182
C56	C	-0.509858	0.711468	-0.044848
C57	C	-0.176525	1.044801	0.288485
C58	C	-1.134314	0.582084	-0.378163
C59	C	-0.800980	0.915417	-0.044829
C60	C	-0.467647	1.248751	0.288504
C61	C	-1.134353	0.669334	-0.378176
C62	C	-0.801020	1.002667	-0.044842
C63	C	-0.467686	1.336000	0.288491
C64	C	-1.134437	0.378078	-0.582938
C65	C	-0.801103	0.711412	-0.249605
C66	C	-0.467770	1.044745	0.083728
C67	C	-1.134457	0.378054	-0.670188
C68	C	-0.801124	0.711387	-0.336855
C69	C	-0.467790	1.044720	-0.003522
C70	C	-1.339134	0.378151	-0.378216
C71	C	-1.005800	0.711484	-0.044883
C72	C	-0.672467	1.044818	0.288450
C73	C	-1.426383	0.378157	-0.378226
C74	C	-1.093050	0.711491	-0.044892
C75	C	-0.759717	1.044824	0.288441
C76	C	-0.802210	0.428402	-0.428295
C77	C	-0.468876	0.761735	-0.094962
C78	C	-0.135543	1.095069	0.238372
C79	C	-0.720229	0.428404	-0.428308
C80	C	-0.386896	0.761737	-0.094974
C81	C	-0.053563	1.095070	0.238359
C82	C	-0.679232	0.378141	-0.378202
C83	C	-0.345899	0.711475	-0.044869
C84	C	-0.012566	1.044808	0.288464
C85	C	-0.720220	0.327869	-0.328087
C86	C	-0.386887	0.661202	0.005247
C87	C	-0.053553	0.994535	0.338580
C88	C	-0.802199	0.327863	-0.328079
C89	C	-0.468865	0.661197	0.005255
C90	C	-0.135532	0.994530	0.338588
C91	C	-0.549350	0.327884	-0.328106
C92	C	-0.216016	0.661217	0.005228
C93	C	0.117317	0.994551	0.338561
C94	C	-0.467365	0.327890	-0.328112
C95	C	-0.134032	0.661223	0.005221
C96	C	0.199301	0.994557	0.338554
C97	C	-0.467380	0.428424	-0.428335
C98	C	-0.134047	0.761758	-0.095001
C99	C	0.199286	1.095091	0.238332
C100	C	-0.549359	0.428419	-0.428327
C101	C	-0.216026	0.761753	-0.094993
C102	C	0.117307	1.095086	0.238340
C103	C	-0.590341	0.378147	-0.378210
C104	C	-0.257008	0.711480	-0.044876
C105	C	0.076325	1.044814	0.288457
C106	C	-1.134487	0.173392	-0.378243
C107	C	-0.801153	0.506725	-0.044909
C108	C	-0.467820	0.840058	0.288424
C109	C	-1.134528	0.086142	-0.378263
C110	C	-0.801195	0.419475	-0.044930
C111	C	-0.467862	0.752809	0.288403
C112	C	-1.184598	0.710316	-0.328029
C113	C	-0.851265	1.043649	0.005304
C114	C	-0.517932	1.376982	0.338638
C115	C	-1.184637	0.792296	-0.328049
C116	C	-0.851303	1.125629	0.005284
C117	C	-0.517970	1.458963	0.338618
C118	C	-1.134425	0.833293	-0.378212
C119	C	-0.801092	1.166626	-0.044879
C120	C	-0.467759	1.499960	0.288454
C121	C	-1.084178	0.792305	-0.428364
C122	C	-0.750844	1.125639	-0.095031
C123	C	-0.417511	1.458972	0.238302
C124	C	-1.084144	0.710327	-0.428348
C125	C	-0.750810	1.043660	-0.095014
C126	C	-0.417477	1.376993	0.238319
C127	C	-1.084250	0.963175	-0.428394
C128	C	-0.750917	1.296509	-0.095061
C129	C	-0.417584	1.629842	0.238273
C130	C	-1.084283	1.045160	-0.428410
C131	C	-0.750950	1.378493	-0.095076
C132	C	-0.417616	1.711827	0.238257
C133	C	-1.184743	1.045145	-0.328096
C134	C	-0.851410	1.378478	0.005238
C135	C	-0.518077	1.711812	0.338571
C136	C	-1.184709	0.963166	-0.328079
C137	C	-0.851376	1.296499	0.005254
C138	C	-0.518043	1.629833	0.338588
C139	C	-1.134461	0.922184	-0.378230
C140	C	-0.801127	1.255517	-0.044897
C141	C	-0.467794	1.588851	0.288437
C142	C	-1.184689	0.327847	-0.711197
C143	C	-0.851355	0.661181	-0.377864
C144	C	-0.518022	0.994514	-0.044530
C145	C	-1.184698	0.327821	-0.793178
C146	C	-0.851365	0.661154	-0.459844
C147	C	-0.518031	0.994488	-0.126511
C148	C	-1.134479	0.378006	-0.834148
C149	C	-0.801146	0.711339	-0.500814
C150	C	-0.467813	1.044673	-0.167481
C151	C	-1.084242	0.428214	-0.793133
C152	C	-0.750909	0.761548	-0.459800
C153	C	-0.417576	1.094881	-0.126467
C154	C	-1.084229	0.428236	-0.711154
C155	C	-0.750896	0.761569	-0.377821
C156	C	-0.417563	1.094903	-0.044488
C157	C	-1.084274	0.428167	-0.964003
C158	C	-0.750941	0.761501	-0.630670
C159	C	-0.417607	1.094834	-0.297337
C160	C	-1.084288	0.428147	-1.045988
C161	C	-0.750954	0.761480	-0.712655
C162	C	-0.417621	1.094814	-0.379321
C163	C	-1.184742	0.327752	-1.046027
C164	C	-0.851409	0.661086	-0.712693
C165	C	-0.518076	0.994419	-0.379360
C166	C	-1.184730	0.327774	-0.964048
C167	C	-0.851396	0.661107	-0.630714
C168	C	-0.518063	0.994441	-0.297381
C169	C	-1.134493	0.377984	-0.923039
C170	C	-0.801160	0.711317	-0.589705
C171	C	-0.467827	1.044650	-0.256372
C172	C	-1.134387	0.378137	-0.174246
C173	C	-0.801054	0.711470	0.159087
C174	C	-0.467721	1.044804	0.492421
C175	C	-1.134519	0.377941	-0.086997
C176	C	-0.801186	0.711274	0.246337
C177	C	-0.467852	1.044607	0.579670
H178	H	-0.835584	0.469334	-0.469094
H179	H	-0.502250	0.802667	-0.135761
H180	H	-0.168917	1.136001	0.197572
Br181	Br	-0.664614	0.496625	-0.496324
Br182	Br	-0.331280	0.829958	-0.162990
Br183	Br	0.002053	1.163291	0.170343
H184	H	-1.043230	0.676960	-0.469183
H185	H	-0.709897	1.010293	-0.135850
H186	H	-0.376563	1.343626	0.197484
Br187	Br	-1.252852	0.259742	-0.655602
Br188	Br	-0.919519	0.593075	-0.322269
Br189	Br	-0.586186	0.926408	0.011064
Br190	Br	-1.016093	0.496307	-0.908349
Br191	Br	-0.682759	0.829640	-0.575015
Br192	Br	-0.349426	1.162974	-0.241682
H193	H	-1.225645	0.286868	-1.079420
H194	H	-0.892312	0.620202	-0.746087
H195	H	-0.558979	0.953535	-0.412753
Br196	Br	-1.016125	0.496248	-1.101591
Br197	Br	-0.682792	0.829581	-0.768257
Br198	Br	-0.349459	1.162914	-0.434924
H199	H	-1.043318	0.469111	-0.677766
H200	H	-0.709985	0.802445	-0.344433
H201	H	-0.376651	1.135778	-0.011099
H202	H	-1.043411	1.078538	-0.469272
H203	H	-0.710078	1.411871	-0.135938
H204	H	-0.376744	1.745204	0.197395
H205	H	-1.043350	0.469073	-0.826498
H206	H	-0.710017	0.802406	-0.493164
H207	H	-0.376684	1.135740	-0.159831
Br208	Br	-0.664582	0.259647	-0.260093
Br209	Br	-0.331249	0.592980	0.073240
Br210	Br	0.002085	0.926314	0.406574
H211	H	-0.582737	0.469352	-0.469122
H212	H	-0.249404	0.802685	-0.135789
H213	H	0.083930	1.136018	0.197544
H214	H	-1.043335	0.929811	-0.469235
H215	H	-0.710002	1.263144	-0.135902
H216	H	-0.376668	1.596477	0.197431
Br217	Br	-1.252928	1.100762	-0.260022
Br218	Br	-0.919595	1.434095	0.073311
Br219	Br	-0.586261	1.767429	0.406644
Br220	Br	-1.252909	0.259717	-0.848830
Br221	Br	-0.919576	0.593051	-0.515496
Br222	Br	-0.586242	0.926384	-0.182163
H223	H	-0.434009	0.469355	-0.469144
H224	H	-0.100676	0.802689	-0.135810
H225	H	0.232658	1.136022	0.197523
Br226	Br	-1.016039	0.847943	-0.496451
Br227	Br	-0.682706	1.181277	-0.163117
Br228	Br	-0.349372	1.514610	0.170216
H229	H	-1.225627	0.286913	-0.930692
H230	H	-0.892293	0.620247	-0.597359
H231	H	-0.558960	0.953580	-0.264025
H232	H	-0.835565	0.286927	-0.287275
H233	H	-0.502232	0.620260	0.046058
H234	H	-0.168899	0.953593	0.379391
Br235	Br	-0.411726	0.259682	-0.260106
Br236	Br	-0.078393	0.593015	0.073228
Br237	Br	0.254941	0.926349	0.406561
Br238	Br	-0.604968	0.259655	-0.260091
Br239	Br	-0.271635	0.592989	0.073242
Br240	Br	0.061699	0.926322	0.406576
H241	H	-1.225483	0.676941	-0.287177
H242	H	-0.892150	1.010275	0.046156
H243	H	-0.558816	1.343608	0.379490
H244	H	-1.225591	0.929786	-0.287228
H245	H	-0.892258	1.263120	0.046105
H246	H	-0.558925	1.596453	0.379438
Br247	Br	-1.252835	0.847912	-0.259995
Br248	Br	-0.919501	1.181245	0.073339
Br249	Br	-0.586168	1.514578	0.406672
