data_functionalizedCrystal
_audit_creation_method	'MofGen! by Chris Wilmer'
_symmetry_space_group_name_H-M	'P1'
_symmetry_Int_Tables_number	1
_symmetry_cell_setting	triclinic
loop_
_symmetry_equiv_pos_as_xyz
  x,y,z
_cell_length_a	14.853567
_cell_length_b	14.853567
_cell_length_c	8.140239
_cell_angle_alpha	90.000276
_cell_angle_beta	90.000249
_cell_angle_gamma	83.634930
loop_
_atom_site_label
_atom_site_type_symbol
_atom_site_fract_x
_atom_site_fract_y
_atom_site_fract_z
O1	O	1.196363	0.117703	-0.136486
O2	O	1.529696	0.451036	0.196847
O3	O	1.863029	0.784369	0.530181
O4	O	0.933903	0.131724	-0.136512
O5	O	1.267236	0.465058	0.196821
O6	O	1.600570	0.798391	0.530154
O7	O	1.072144	-0.006516	-0.136503
O8	O	1.405477	0.326817	0.196830
O9	O	1.738810	0.660150	0.530163
O10	O	1.058122	0.255943	-0.136495
O11	O	1.391455	0.589277	0.196838
O12	O	1.724789	0.922610	0.530172
O13	O	1.072136	-0.006518	0.136724
O14	O	1.405469	0.326816	0.470057
O15	O	1.738803	0.660149	0.803390
O16	O	0.933895	0.131723	0.136715
O17	O	1.267229	0.465056	0.470048
O18	O	1.600562	0.798389	0.803381
O19	O	1.196355	0.117701	0.136741
O20	O	1.529688	0.451035	0.470074
O21	O	1.863022	0.784368	0.803408
Zn22	Zn	1.065124	0.124712	0.180109
Zn23	Zn	1.398457	0.458045	0.513442
Zn24	Zn	1.731791	0.791378	0.846775
Zn25	Zn	1.065134	0.124714	-0.179880
Zn26	Zn	1.398467	0.458047	0.153453
Zn27	Zn	1.731801	0.791380	0.486787
O28	O	1.058115	0.255942	0.136732
O29	O	1.391448	0.589275	0.470065
O30	O	1.724781	0.922608	0.803399
C31	C	0.900311	0.131088	0.000097
C32	C	1.233644	0.464421	0.333431
C33	C	1.566977	0.797755	0.666764
C34	C	0.800227	0.129184	0.000087
C35	C	1.133560	0.462518	0.333420
C36	C	1.466894	0.795851	0.666753
C37	C	1.071504	-0.040106	0.000105
C38	C	1.404838	0.293228	0.333439
C39	C	1.738171	0.626561	0.666772
C40	C	1.069601	-0.140189	0.000091
C41	C	1.402934	0.193144	0.333424
C42	C	1.736267	0.526477	0.666757
C43	C	0.387693	0.039019	0.000121
C44	C	0.721026	0.372352	0.333454
C45	C	1.054360	0.705685	0.666787
C46	C	0.366412	0.203251	0.000124
C47	C	0.699745	0.536585	0.333458
C48	C	1.033079	0.869918	0.666791
C49	C	0.460446	0.205042	0.000119
C50	C	0.793779	0.538375	0.333452
C51	C	1.127112	0.871708	0.666786
C52	C	0.518108	0.123819	0.000112
C53	C	0.851441	0.457152	0.333446
C54	C	1.184774	0.790486	0.666779
C55	C	0.481736	0.040806	0.000110
C56	C	0.815069	0.374140	0.333444
C57	C	1.148402	0.707473	0.666777
C58	C	0.496825	0.288053	0.000104
C59	C	0.830158	0.621386	0.333438
C60	C	1.163492	0.954719	0.666771
C61	C	0.590864	0.289846	0.000097
C62	C	0.924197	0.623180	0.333430
C63	C	1.257531	0.956513	0.666764
C64	C	0.648528	0.208623	0.000102
C65	C	0.981861	0.541956	0.333435
C66	C	1.315194	0.875289	0.666769
C67	C	0.612150	0.125607	0.000102
C68	C	0.945484	0.458940	0.333435
C69	C	1.278817	0.792273	0.666769
C70	C	0.669812	0.044384	0.000095
C71	C	1.003146	0.377717	0.333428
C72	C	1.336479	0.711051	0.666762
C73	C	0.633437	-0.038633	0.000107
C74	C	0.966770	0.294700	0.333440
C75	C	1.300104	0.628034	0.666774
C76	C	0.539399	-0.040417	0.000115
C77	C	0.872733	0.292916	0.333449
C78	C	1.206066	0.626249	0.666782
C79	C	0.742565	0.210407	0.000094
C80	C	1.075898	0.543740	0.333427
C81	C	1.409232	0.877074	0.666760
C82	C	0.763855	0.046172	0.000085
C83	C	1.097188	0.379505	0.333418
C84	C	1.430522	0.712838	0.666752
C85	C	0.979435	-0.552723	0.000113
C86	C	1.312768	-0.219390	0.333446
C87	C	1.646102	0.113943	0.666780
C88	C	1.143668	-0.574004	0.000129
C89	C	1.477001	-0.240671	0.333463
C90	C	1.810334	0.092662	0.666796
C91	C	1.145458	-0.479971	0.000120
C92	C	1.478791	-0.146637	0.333453
C93	C	1.812124	0.186696	0.666787
C94	C	1.064235	-0.422309	0.000109
C95	C	1.397569	-0.088975	0.333443
C96	C	1.730902	0.244358	0.666776
C97	C	0.981223	-0.458680	0.000108
C98	C	1.314556	-0.125347	0.333442
C99	C	1.647889	0.207986	0.666775
C100	C	1.228469	-0.443591	0.000138
C101	C	1.561802	-0.110258	0.333471
C102	C	1.895136	0.223075	0.666804
C103	C	1.230262	-0.349552	0.000130
C104	C	1.563596	-0.016219	0.333463
C105	C	1.896929	0.317114	0.666797
C106	C	1.149039	-0.291889	0.000108
C107	C	1.482372	0.041445	0.333441
C108	C	1.815706	0.374778	0.666774
C109	C	1.066023	-0.328266	0.000105
C110	C	1.399356	0.005067	0.333438
C111	C	1.732690	0.338401	0.666772
C112	C	0.984800	-0.270604	0.000094
C113	C	1.318134	0.062729	0.333428
C114	C	1.651467	0.396063	0.666761
C115	C	0.901783	-0.306979	0.000080
C116	C	1.235117	0.026354	0.333413
C117	C	1.568450	0.359687	0.666746
C118	C	0.899999	-0.401017	0.000086
C119	C	1.233332	-0.067683	0.333420
C120	C	1.566666	0.265650	0.666753
C121	C	1.150823	-0.197851	0.000101
C122	C	1.484157	0.135482	0.333435
C123	C	1.817490	0.468815	0.666768
C124	C	0.986588	-0.176561	0.000090
C125	C	1.319921	0.156772	0.333423
C126	C	1.653255	0.490105	0.666756
C127	C	1.229947	0.118337	0.000128
C128	C	1.563281	0.451671	0.333461
C129	C	1.896614	0.785004	0.666794
C130	C	1.330031	0.120241	0.000127
C131	C	1.663365	0.453575	0.333461
C132	C	1.996698	0.786908	0.666794
C133	C	1.058754	0.289531	0.000120
C134	C	1.392087	0.622865	0.333453
C135	C	1.725420	0.956198	0.666786
C136	C	1.060657	0.389615	0.000123
C137	C	1.393991	0.722948	0.333457
C138	C	1.727324	1.056282	0.666790
N139	N	1.065124	0.124710	0.425791
N140	N	1.398457	0.458043	0.759124
N141	N	1.731790	0.791376	1.092458
N142	N	1.065141	0.124709	-0.425562
N143	N	1.398475	0.458042	-0.092229
N144	N	1.731808	0.791375	0.241104
H145	H	0.810798	-0.019971	0.000086
H146	H	1.144131	0.313362	0.333419
H147	H	1.477465	0.646696	0.666752
F148	F	0.694815	-0.125073	0.000088
F149	F	1.028149	0.208260	0.333421
F150	F	1.361482	0.541594	0.666755
F151	F	0.500679	-0.128762	0.000122
F152	F	0.834013	0.204571	0.333455
F153	F	1.167346	0.537905	0.666788
H154	H	1.218414	-0.168238	0.000124
H155	H	1.551748	0.165095	0.333457
H156	H	1.885081	0.498428	0.666791
H157	H	0.449870	0.354180	0.000093
H158	H	0.783204	0.687513	0.333426
H159	H	1.116537	1.020846	0.666760
H160	H	0.358072	-0.028572	0.000137
H161	H	0.691405	0.304761	0.333470
H162	H	1.024738	0.638095	0.666803
F163	F	1.318615	-0.310847	0.000125
F164	F	1.651948	0.022486	0.333459
F165	F	1.985282	0.355819	0.666792
F166	F	0.305043	0.289689	0.000112
F167	F	0.638376	0.623022	0.333445
F168	F	0.971709	0.956356	0.666778
H169	H	0.620472	0.357443	0.000087
H170	H	0.953806	0.690777	0.333421
H171	H	1.287139	1.024110	0.666754
F172	F	0.815343	-0.245601	0.000081
F173	F	1.148677	0.087732	0.333415
F174	F	1.482010	0.421066	0.666748
H175	H	0.772178	0.277998	0.000087
H176	H	1.105511	0.611331	0.333420
H177	H	1.438844	0.944665	0.666754
F178	F	0.900137	-0.115200	0.000067
F179	F	1.233471	0.218134	0.333400
F180	F	1.566804	0.551467	0.666733
H181	H	0.832411	-0.430643	0.000076
H182	H	1.165744	-0.097309	0.333409
H183	H	1.499078	0.236024	0.666743
H184	H	0.911844	-0.582344	0.000095
H185	H	1.245178	-0.249011	0.333428
H186	H	1.578511	0.084322	0.666761
H187	H	1.209795	-0.620958	0.000151
H188	H	1.543129	-0.287624	0.333484
H189	H	1.876462	0.045709	0.666818
H190	H	1.294596	-0.490546	0.000161
H191	H	1.627929	-0.157213	0.333495
H192	H	1.961263	0.176121	0.666828
