data_functionalizedCrystal
_audit_creation_method	'MofGen! by Chris Wilmer'
_symmetry_space_group_name_H-M	'P1'
_symmetry_Int_Tables_number	1
_symmetry_cell_setting	triclinic
loop_
_symmetry_equiv_pos_as_xyz
  x,y,z
_cell_length_a	11.792254
_cell_length_b	14.044190
_cell_length_c	10.868271
_cell_angle_alpha	89.990065
_cell_angle_beta	89.995741
_cell_angle_gamma	88.695187
loop_
_atom_site_label
_atom_site_type_symbol
_atom_site_fract_x
_atom_site_fract_y
_atom_site_fract_z
O1	O	1.519112	0.130045	-0.102336
O2	O	1.190030	0.143429	-0.102341
O3	O	1.349627	-0.001274	-0.102314
O4	O	1.359514	0.274747	-0.102363
O5	O	1.349612	-0.001279	0.102330
O6	O	1.190015	0.143423	0.102304
O7	O	1.519097	0.130039	0.102308
Zn8	Zn	1.354553	0.136730	0.134798
Zn9	Zn	1.354573	0.136738	-0.134830
O10	O	1.359500	0.274741	0.102282
C11	C	1.147652	0.142583	-0.000018
C12	C	1.021402	0.140059	-0.000019
C13	C	0.918873	0.138009	-0.000024
C14	C	0.790246	0.135445	-0.000024
C15	C	1.345294	-0.036613	0.000012
C16	C	1.332392	-0.141906	0.000022
C17	C	1.400309	-0.391841	-0.000025
C18	C	1.308822	-0.334686	-0.000018
C19	C	1.321940	-0.227413	0.000004
C20	C	1.387194	-0.499123	-0.000047
C21	C	1.561474	0.130885	-0.000016
C22	C	1.687724	0.133409	-0.000024
C23	C	1.363832	0.310081	-0.000046
C24	C	1.376735	0.415374	-0.000065
N25	N	1.354548	0.136725	0.318812
N26	N	1.354586	0.136736	-0.318844
C27	C	1.354567	0.136736	0.569818
C28	C	1.354553	0.136732	0.430141
H29	H	1.488478	-0.360211	-0.000011
H30	H	1.220647	-0.366317	-0.000026
