data_functionalizedCrystal
_audit_creation_method	'MofGen! by Chris Wilmer'
_symmetry_space_group_name_H-M	'P1'
_symmetry_Int_Tables_number	1
_symmetry_cell_setting	triclinic
loop_
_symmetry_equiv_pos_as_xyz
  x,y,z
_cell_length_a	16.625547
_cell_length_b	13.897448
_cell_length_c	13.897441
_cell_angle_alpha	90.030599
_cell_angle_beta	90.026124
_cell_angle_gamma	90.017629
loop_
_atom_site_label
_atom_site_type_symbol
_atom_site_fract_x
_atom_site_fract_y
_atom_site_fract_z
Zn1	Zn	1.232718	-0.383986	0.545520
Zn2	Zn	1.482718	-0.133986	0.795520
Zn3	Zn	1.732718	0.116014	1.045520
Zn4	Zn	1.982718	0.366014	1.295520
Zn5	Zn	1.232629	-0.545307	0.384221
Zn6	Zn	1.482629	-0.295307	0.634221
Zn7	Zn	1.732629	-0.045307	0.884221
Zn8	Zn	1.982629	0.204693	1.134221
Zn9	Zn	1.097876	-0.384028	0.384223
Zn10	Zn	1.347876	-0.134028	0.634223
Zn11	Zn	1.597876	0.115972	0.884223
Zn12	Zn	1.847876	0.365972	1.134223
Zn13	Zn	1.097861	-0.545240	0.545459
Zn14	Zn	1.347861	-0.295240	0.795459
Zn15	Zn	1.597861	-0.045240	1.045459
Zn16	Zn	1.847861	0.204760	1.295459
O17	O	1.165271	-0.464640	0.464856
O18	O	1.415271	-0.214640	0.714856
O19	O	1.665271	0.035360	0.964856
O20	O	1.915271	0.285360	1.214856
O21	O	1.345538	-0.405396	0.524148
O22	O	1.595538	-0.155396	0.774148
O23	O	1.845538	0.094604	1.024148
O24	O	2.095538	0.344604	1.274148
O25	O	1.214723	-0.523959	0.249240
O26	O	1.464723	-0.273959	0.499240
O27	O	1.714723	-0.023959	0.749240
O28	O	1.964723	0.226041	0.999240
O29	O	1.115807	-0.249041	0.405646
O30	O	1.365807	0.000959	0.655646
O31	O	1.615807	0.250959	0.905646
O32	O	1.865807	0.500959	1.155646
O33	O	1.345473	-0.523918	0.405643
O34	O	1.595473	-0.273918	0.655643
O35	O	1.845473	-0.023918	0.905643
O36	O	2.095473	0.226082	1.155643
O37	O	1.214874	-0.249010	0.524150
O38	O	1.464874	0.000990	0.774150
O39	O	1.714874	0.250990	1.024150
O40	O	1.964874	0.500990	1.274150
O41	O	1.115721	-0.405468	0.249241
O42	O	1.365721	-0.155468	0.499241
O43	O	1.615721	0.094532	0.749241
O44	O	1.865721	0.344532	0.999241
O45	O	0.985042	-0.405403	0.405587
O46	O	1.235042	-0.155403	0.655587
O47	O	1.485042	0.094597	0.905587
O48	O	1.735042	0.344597	1.155587
O49	O	1.115781	-0.523804	0.680449
O50	O	1.365781	-0.273804	0.930449
O51	O	1.615781	-0.023804	1.180449
O52	O	1.865781	0.226196	1.430449
O53	O	0.985031	-0.523845	0.524046
O54	O	1.235031	-0.273845	0.774046
O55	O	1.485031	-0.023845	1.024046
O56	O	1.735031	0.226155	1.274046
O57	O	1.214859	-0.405331	0.680494
O58	O	1.464859	-0.155331	0.930494
O59	O	1.714859	0.094669	1.180494
O60	O	1.964859	0.344669	1.430494
O61	O	1.214708	-0.680280	0.405583
O62	O	1.464708	-0.430280	0.655583
O63	O	1.714708	-0.180280	0.905583
O64	O	1.964708	0.069720	1.155583
O65	O	1.115695	-0.680231	0.524044
O66	O	1.365695	-0.430231	0.774044
O67	O	1.615695	-0.180231	1.024044
O68	O	1.865695	0.069769	1.274044
C69	C	1.165212	-0.715255	0.464828
C70	C	1.415212	-0.465255	0.714828
C71	C	1.665212	-0.215255	0.964828
C72	C	1.915212	0.034745	1.214828
C73	C	1.165261	-0.822469	0.464848
C74	C	1.415261	-0.572469	0.714848
C75	C	1.665261	-0.322469	0.964848
C76	C	1.915261	-0.072469	1.214848
C77	C	0.955780	-0.464622	0.464810
C78	C	1.205780	-0.214622	0.714810
C79	C	1.455780	0.035378	0.964810
C80	C	1.705780	0.285378	1.214810
C81	C	0.866159	-0.464637	0.464814
C82	C	1.116159	-0.214637	0.714814
C83	C	1.366159	0.035363	0.964814
C84	C	1.616159	0.285363	1.214814
C85	C	1.165345	-1.018764	0.464909
C86	C	1.415345	-0.768764	0.714909
C87	C	1.665345	-0.518764	0.964909
C88	C	1.915345	-0.268764	1.214909
C89	C	1.165296	-0.909531	0.464878
C90	C	1.415296	-0.659531	0.714878
C91	C	1.665296	-0.409531	0.964878
C92	C	1.915296	-0.159531	1.214878
C93	C	0.793377	-0.464639	0.464826
C94	C	1.043377	-0.214639	0.714826
C95	C	1.293377	0.035361	0.964826
C96	C	1.543377	0.285361	1.214826
C97	C	0.702068	-0.464644	0.464850
C98	C	0.952068	-0.214644	0.714850
C99	C	1.202068	0.035356	0.964850
C100	C	1.452068	0.285356	1.214850
C101	C	0.629292	-0.464653	0.464874
C102	C	0.879292	-0.214653	0.714874
C103	C	1.129292	0.035347	0.964874
C104	C	1.379292	0.285347	1.214874
C105	C	0.537977	-0.464659	0.464897
C106	C	0.787977	-0.214659	0.714897
C107	C	1.037977	0.035341	0.964897
C108	C	1.287977	0.285341	1.214897
C109	C	1.375580	-0.464660	0.464902
C110	C	1.625580	-0.214660	0.714902
C111	C	1.875580	0.035340	0.964902
C112	C	2.125580	0.285340	1.214902
C113	C	1.465201	-0.464668	0.464922
C114	C	1.715201	-0.214668	0.714922
C115	C	1.965201	0.035332	0.964922
C116	C	2.215201	0.285332	1.214922
C117	C	1.165328	-0.464555	0.716449
C118	C	1.415328	-0.214555	0.966449
C119	C	1.665328	0.035445	1.216449
C120	C	1.915328	0.285445	1.466449
C121	C	1.165353	-0.464519	0.823663
C122	C	1.415353	-0.214519	1.073663
C123	C	1.665353	0.035481	1.323663
C124	C	1.915353	0.285481	1.573663
C125	C	1.165352	-0.213047	0.464905
C126	C	1.415352	0.036953	0.714905
C127	C	1.665352	0.286953	0.964905
C128	C	1.915352	0.536953	1.214905
C129	C	1.165387	-0.105833	0.464926
C130	C	1.415387	0.144167	0.714926
C131	C	1.665387	0.394167	0.964926
C132	C	1.915387	0.644167	1.214926
C133	C	1.165260	-0.464656	0.214241
C134	C	1.415260	-0.214656	0.464241
C135	C	1.665260	0.035344	0.714241
C136	C	1.915260	0.285344	0.964241
C137	C	1.165392	-0.464420	0.107028
C138	C	1.415392	-0.214420	0.357028
C139	C	1.665392	0.035580	0.607028
C140	C	1.915392	0.285580	0.857028
C141	C	1.165374	-0.464453	1.019958
C142	C	1.415374	-0.214453	1.269958
C143	C	1.665374	0.035547	1.519958
C144	C	1.915374	0.285547	1.769958
C145	C	1.165360	-0.464492	0.910726
C146	C	1.415360	-0.214492	1.160726
C147	C	1.665360	0.035508	1.410726
C148	C	1.915360	0.285508	1.660726
