data_functionalizedCrystal
_audit_creation_method	'MofGen! by Chris Wilmer'
_symmetry_space_group_name_H-M	'P1'
_symmetry_Int_Tables_number	1
_symmetry_cell_setting	triclinic
loop_
_symmetry_equiv_pos_as_xyz
  x,y,z
_cell_length_a	17.917603
_cell_length_b	23.096457
_cell_length_c	17.917603
_cell_angle_alpha	63.037611
_cell_angle_beta	90.239941
_cell_angle_gamma	57.011910
loop_
_atom_site_label
_atom_site_type_symbol
_atom_site_fract_x
_atom_site_fract_y
_atom_site_fract_z
Zr1	Zr	0.757828	0.575929	-0.060780
O2	O	0.638408	0.696715	-0.180192
O3	O	0.794433	0.455143	-0.024178
O4	O	0.801546	0.564912	-0.173083
O5	O	0.625688	0.595635	0.086177
O6	O	0.930235	0.556222	-0.167471
O7	O	0.631296	0.586945	-0.031287
O8	O	0.917512	0.359864	0.098893
O9	O	0.638411	0.791993	-0.180187
O10	O	0.906088	0.498338	-0.004374
O11	O	0.805864	0.511309	0.079099
O12	O	0.814238	0.640548	-0.096217
O13	O	0.714014	0.653519	-0.012744
Zr14	Zr	0.954129	0.575928	0.135513
Zr15	Zr	0.963072	0.562069	-0.051828
Zr16	Zr	0.748885	0.589788	0.126561
Zr17	Zr	0.757832	0.727886	-0.060772
Zr18	Zr	0.954124	0.423971	0.135505
O19	O	0.917523	0.696714	0.098911
O20	O	0.930239	0.677008	-0.167464
O21	O	0.625692	0.716421	0.086183
O22	O	1.073548	0.455142	0.254925
O23	O	1.086264	0.435436	-0.011450
O24	O	0.781718	0.474849	0.242197
O25	O	1.086268	0.556222	-0.011444
O26	O	0.910410	0.586945	0.247816
O27	O	0.781721	0.595635	0.242204
O28	O	1.080661	0.564912	0.106020
O29	O	0.801553	0.780976	-0.173072
O30	O	0.910404	0.370880	0.247805
O31	O	1.073545	0.359864	0.254920
O32	O	1.080654	0.348847	0.106009
O33	O	0.631303	0.803009	-0.031276
O34	O	0.794444	0.791993	-0.024160
O35	O	0.897718	0.511308	0.170950
O36	O	0.997942	0.498338	0.087477
O37	O	0.906092	0.640548	-0.004366
O38	O	0.805868	0.653519	0.079107
C39	C	0.599249	0.593265	0.026169
C40	C	0.512118	0.599149	0.022369
C41	C	0.855972	0.385853	0.037356
C42	C	0.855970	0.321343	0.037353
C43	C	0.352605	0.609897	0.015429
C44	C	0.359344	0.541964	0.059302
C45	C	0.270586	0.547944	0.055440
C46	C	0.441370	0.603918	0.019289
C47	C	0.908279	0.284271	-0.006223
C48	C	0.908289	0.223649	-0.006215
C49	C	0.855970	0.200112	0.037355
C50	C	0.803658	0.237188	0.080941
C51	C	0.803658	0.297804	0.080940
N52	N	0.774689	0.142756	0.027452
N53	N	0.774691	0.085175	0.027449
C54	C	0.855969	0.017481	0.037363
N55	N	0.937244	0.009549	0.047265
N56	N	0.937240	0.067138	0.047264
C57	C	0.855965	0.134385	0.037362
C58	C	0.908292	-0.085325	-0.006206
C59	C	0.908304	-0.145952	-0.006192
C60	C	0.803664	-0.132406	0.080958
C61	C	0.803662	-0.071786	0.080950
C62	C	0.855974	-0.048247	0.037363
C63	C	1.112707	0.558592	0.048564
C64	C	1.199839	0.552708	0.052364
C65	C	0.867165	0.558593	-0.196969
C66	C	0.870961	0.552709	-0.276501
C67	C	0.855984	0.766004	0.037377
C68	C	0.855986	0.830514	0.037380
C69	C	0.877916	0.541960	-0.422130
C70	C	0.834043	0.609893	-0.503140
C71	C	0.837912	0.603913	-0.584173
C72	C	0.874047	0.547939	-0.341088
C73	C	0.844792	0.593264	0.271702
C74	C	0.840995	0.599148	0.351234
C75	C	1.112701	0.368516	0.048554
C76	C	1.199830	0.298122	0.052350
C77	C	0.844786	0.403189	0.271692
C78	C	0.840987	0.344562	0.351220
C79	C	1.101515	0.385852	0.282889
C80	C	1.184848	0.321342	0.366217
C81	C	0.610442	0.766005	-0.208156
C82	C	0.527109	0.830515	-0.291484
C83	C	0.599255	0.783341	0.026179
C84	C	0.512126	0.853735	0.022383
C85	C	0.867171	0.748668	-0.196959
C86	C	0.870969	0.807295	-0.276487
C87	C	1.192801	0.265064	0.006180
C88	C	1.274661	0.198929	0.009730
C89	C	1.363550	0.165850	0.059455
C90	C	1.370578	0.198914	0.105626
C91	C	1.288719	0.265052	0.102071
C92	C	0.887150	0.317031	0.436520
C93	C	0.883577	0.261955	0.511252
C94	C	0.833846	0.234406	0.500682
C95	C	0.787677	0.261943	0.415373
C96	C	0.791245	0.317023	0.340643
C97	C	1.276306	0.284276	0.361777
C98	C	1.354614	0.223669	0.440066
C99	C	1.341462	0.200125	0.522794
C100	C	1.249994	0.237197	0.527232
C101	C	1.171688	0.297807	0.448944
C102	C	0.435650	0.867588	-0.287044
C103	C	0.357342	0.928214	-0.365333
C104	C	0.370494	0.951761	-0.448061
C105	C	0.461962	0.914685	-0.452499
C106	C	0.540268	0.854065	-0.374211
C107	C	0.519156	0.886799	0.068545
C108	C	0.437297	0.952949	0.064975
C109	C	0.348408	0.986030	0.015247
C110	C	0.341380	0.952963	-0.030921
C111	C	0.423238	0.886818	-0.027355
C112	C	0.920708	0.834826	-0.265889
C113	C	0.924296	0.889903	-0.340606
C114	C	0.878138	0.917452	-0.425920
C115	C	0.828397	0.889915	-0.436517
C116	C	0.824816	0.834835	-0.361801
H117	H	0.431773	0.479313	0.099763
C118	C	1.290787	0.310169	0.270785
H119	H	1.231057	0.351570	0.224787
H120	H	1.325112	0.331036	0.265717
H121	H	1.325119	0.263868	0.265713
C122	C	0.256740	0.968980	-0.360436
H123	H	0.260129	0.946260	-0.299952
H124	H	0.224014	1.026486	-0.389150
H125	H	0.224017	0.959326	-0.389171
C126	C	0.965849	-0.059443	-0.054132
H127	H	0.997019	-0.090216	-0.080070
H128	H	0.924652	-0.002500	-0.099323
H129	H	1.011403	-0.069662	-0.012557
H130	H	0.280182	0.672542	-0.025030
H131	H	0.921177	0.239540	0.580707
C132	C	0.971491	0.804528	-0.172052
H133	H	1.001632	0.828812	-0.176453
H134	H	0.926743	0.819683	-0.142881
H135	H	1.017448	0.746392	-0.138936
C136	C	0.284352	1.018432	-0.534170
H137	H	0.228001	1.037127	-0.519670
H138	H	0.285945	1.063232	-0.567986
H139	H	0.285956	0.996055	-0.567971
C140	C	0.476417	0.940586	-0.543503
H141	H	0.416677	0.981992	-0.589485
H142	H	0.510748	0.961452	-0.548590
H143	H	0.510732	0.894290	-0.548582
H144	H	1.442962	0.171971	0.146111
C145	C	0.746130	0.211286	0.128891
H146	H	0.714987	0.242039	0.154856
H147	H	0.700570	0.221491	0.087345
H148	H	0.787358	0.154339	0.174079
C149	C	0.640868	0.813280	-0.379106
H150	H	0.637477	0.835984	-0.439591
H151	H	0.673609	0.822920	-0.350375
H152	H	0.673576	0.755772	-0.350388
C153	C	1.296462	0.301400	0.152874
H154	H	1.361127	0.272217	0.183002
H155	H	1.268501	0.357721	0.112094
H156	H	1.264552	0.296669	0.194885
C157	C	0.616923	0.850420	0.123250
H158	H	0.609372	0.879598	0.150220
H159	H	0.648874	0.794102	0.168037
H160	H	0.652831	0.855137	0.085233
H161	H	0.417501	0.859899	-0.064944
H162	H	0.964799	0.912318	-0.331960
H163	H	1.430197	0.111996	0.062343
H164	H	0.918379	0.479315	-0.413634
C165	C	1.455217	0.182892	0.435168
H166	H	1.451827	0.205588	0.374685
H167	H	1.487947	0.192547	0.463888
H168	H	1.487935	0.125382	0.463899
C169	C	0.941843	0.347336	0.448164
H170	H	0.968808	0.323055	0.509673
H171	H	0.990590	0.332186	0.422991
H172	H	0.899858	0.405472	0.419026
H173	H	0.761059	0.327989	0.116424
C174	C	1.095034	0.301443	-0.048526
H175	H	1.102585	0.272282	-0.075519
H176	H	1.059122	0.296728	-0.010520
H177	H	1.063087	0.357766	-0.093310
C178	C	0.777619	0.920232	-0.530366
H179	H	0.786871	0.956986	-0.573339
H180	H	0.802673	0.874573	-0.535863
H181	H	0.711972	0.947861	-0.539800
C182	C	0.965830	0.310155	-0.054153
H183	H	0.958337	0.351569	-0.047919
H184	H	1.030704	0.263858	-0.028682
H185	H	0.943942	0.331024	-0.115438
C186	C	0.965825	0.182868	-0.054156
H187	H	0.996975	0.205572	-0.080119
H188	H	1.011379	0.125361	-0.012598
H189	H	0.924606	0.192529	-0.099345
C190	C	0.746109	-0.030996	0.128872
H191	H	0.714943	-0.053690	0.154816
H192	H	0.787308	-0.040644	0.174058
H193	H	0.700551	0.026513	0.087298
C194	C	0.829934	0.173814	0.582891
H195	H	0.864561	0.161360	0.635204
H196	H	0.766068	0.197987	0.580123
H197	H	0.856785	0.124701	0.584072
C198	C	0.421165	0.841706	-0.196054
H199	H	0.355475	0.872483	-0.204635
H200	H	0.449524	0.784764	-0.163694
H201	H	0.449541	0.851928	-0.163705
H202	H	0.747187	0.239504	0.406780
H203	H	0.950906	-0.176141	-0.041673
C204	C	0.746115	-0.158289	0.128885
H205	H	0.753602	-0.199696	0.122642
H206	H	0.767995	-0.179149	0.190164
H207	H	0.681236	-0.111990	0.103405
H208	H	0.443037	0.979861	0.102574
C209	C	0.770083	0.804569	-0.373466
H210	H	0.774556	0.767817	-0.316754
H211	H	0.705618	0.850253	-0.407396
H212	H	0.796320	0.776951	-0.403439
C213	C	1.266913	0.162563	-0.041051
H214	H	1.202248	0.191729	-0.071158
H215	H	1.298818	0.167281	-0.083062
H216	H	1.294879	0.106240	-0.000249
C217	C	0.779367	0.694530	-0.514624
H218	H	0.783898	0.687497	-0.457860
H219	H	0.805584	0.721095	-0.544562
H220	H	0.714878	0.727205	-0.548523
C221	C	1.235539	0.211285	0.618236
H222	H	1.295279	0.169872	0.664218
H223	H	1.201212	0.257570	0.623328
H224	H	1.201221	0.190407	0.623309
H225	H	0.753657	0.339431	0.271190
C226	C	1.427605	0.133449	0.608903
H227	H	1.483955	0.114743	0.594403
H228	H	1.426010	0.155806	0.642719
H229	H	1.426002	0.088648	0.642704
H230	H	1.097221	0.327979	0.452572
H231	H	0.881061	0.962302	-0.486752
C232	C	0.243599	0.989353	-0.085610
H233	H	0.195861	1.033474	-0.081108
H234	H	0.239274	1.009035	-0.146128
H235	H	0.235332	0.947996	-0.063316
C236	C	0.258371	1.058786	0.011335
H237	H	0.275297	1.073730	0.045959
H238	H	0.224115	1.104271	-0.048575
H239	H	0.220164	1.043231	0.034228
