data_functionalizedCrystal
_audit_creation_method	'MofGen! by Chris Wilmer'
_symmetry_space_group_name_H-M	'P1'
_symmetry_Int_Tables_number	1
_symmetry_cell_setting	triclinic
loop_
_symmetry_equiv_pos_as_xyz
  x,y,z
_cell_length_a	10.654551
_cell_length_b	22.610064
_cell_length_c	23.532357
_cell_angle_alpha	90.001483
_cell_angle_beta	83.656781
_cell_angle_gamma	90.007730
loop_
_atom_site_label
_atom_site_type_symbol
_atom_site_fract_x
_atom_site_fract_y
_atom_site_fract_z
O1	O	1.665284	0.049185	0.079981
O2	O	2.165284	0.549185	0.579981
O3	O	1.299561	0.049189	0.087601
O4	O	1.799561	0.549189	0.587601
O5	O	1.493483	0.049175	0.000930
O6	O	1.993483	0.549175	0.500930
O7	O	1.471361	0.049199	0.166653
O8	O	1.971361	0.549199	0.666653
O9	O	1.493449	-0.049195	0.000942
O10	O	1.993449	0.450805	0.500942
O11	O	1.299527	-0.049181	0.087614
O12	O	1.799527	0.450819	0.587614
O13	O	1.665249	-0.049184	0.079994
O14	O	2.165249	0.450816	0.579994
Zn15	Zn	1.482382	-0.064801	0.083806
Zn16	Zn	1.982382	0.435199	0.583806
Zn17	Zn	1.482428	0.064805	0.083789
Zn18	Zn	1.982428	0.564805	0.583789
O19	O	1.471327	-0.049170	0.166666
O20	O	1.971327	0.450830	0.666666
C21	C	1.252764	0.000004	0.087048
C22	C	1.752764	0.500004	0.587048
C23	C	1.113374	0.000005	0.085374
C24	C	1.613374	0.500005	0.585374
C25	C	0.916900	-0.053617	0.083015
C26	C	1.416900	0.446383	0.583015
C27	C	1.047869	-0.053617	0.084593
C28	C	1.547869	0.446383	0.584593
C29	C	1.047901	0.053631	0.084582
C30	C	1.547901	0.553631	0.584582
C31	C	0.916932	0.053630	0.083008
C32	C	1.416932	0.553630	0.583008
C33	C	0.851403	-0.107242	0.082228
C34	C	1.351403	0.392758	0.582228
C35	C	0.916867	-0.160868	0.083021
C36	C	1.416867	0.339132	0.583021
C37	C	1.047837	-0.160868	0.084599
C38	C	1.547837	0.339132	0.584599
C39	C	1.113343	-0.107242	0.085385
C40	C	1.613343	0.392758	0.585385
N41	N	1.482361	-0.153253	0.083817
N42	N	1.982361	0.346747	0.583817
C43	C	1.568300	-0.561901	0.045417
C44	C	2.068300	-0.061901	0.545417
C45	C	1.568307	-0.623821	0.045413
C46	C	2.068307	-0.123821	0.545413
O47	O	1.641322	-0.655845	0.012772
O48	O	2.141322	-0.155845	0.512772
N49	N	1.482427	-0.654790	0.083778
N50	N	1.982427	-0.154790	0.583778
C51	C	1.396526	-0.623837	0.122145
C52	C	1.896526	-0.123837	0.622145
O53	O	1.323478	-0.655864	0.154776
O54	O	1.823478	-0.155864	0.654776
C55	C	1.396515	-0.561918	0.122146
C56	C	1.896515	-0.061918	0.622146
C57	C	1.482409	-0.530952	0.083782
C58	C	1.982409	-0.030952	0.583782
C59	C	1.654186	-0.530934	0.007057
C60	C	2.154186	-0.030934	0.507057
C61	C	1.654181	-0.469019	0.007062
C62	C	2.154181	0.030981	0.507062
C63	C	1.568290	-0.438069	0.045427
C64	C	2.068290	0.061931	0.545427
C65	C	1.482404	-0.469036	0.083787
C66	C	1.982404	0.030964	0.583787
C67	C	1.310609	-0.530966	0.160510
C68	C	1.810609	-0.030966	0.660510
C69	C	1.310605	-0.469043	0.160507
C70	C	1.810605	0.030957	0.660507
C71	C	1.396499	-0.438076	0.122144
C72	C	1.896499	0.061924	0.622144
C73	C	1.396507	-0.376171	0.122158
C74	C	1.896507	0.123829	0.622158
N75	N	1.482387	-0.345201	0.083793
N76	N	1.982387	0.154799	0.583793
C77	C	1.568278	-0.376151	0.045428
C78	C	2.068278	0.123849	0.545428
C79	C	1.396555	-0.753870	0.122139
C80	C	1.896555	-0.253870	0.622139
C81	C	1.396572	-0.815788	0.122142
C82	C	1.896572	-0.315788	0.622142
C83	C	1.568351	-0.815768	0.045409
C84	C	2.068351	-0.315768	0.545409
C85	C	1.568339	-0.753849	0.045410
C86	C	2.068339	-0.253849	0.545410
C87	C	1.482435	-0.722901	0.083775
C88	C	1.982435	-0.222901	0.583775
C89	C	1.568262	-0.246123	0.045442
C90	C	2.068262	0.253877	0.545442
C91	C	1.568252	-0.184202	0.045452
C92	C	2.068252	0.315798	0.545452
C93	C	1.396469	-0.184228	0.122182
C94	C	1.896469	0.315772	0.622182
C95	C	1.396482	-0.246144	0.122174
C96	C	1.896482	0.253856	0.622174
C97	C	1.482383	-0.277090	0.083799
C98	C	1.982383	0.222910	0.583799
O99	O	1.323526	-0.344108	0.154780
O100	O	1.823526	0.155892	0.654780
O101	O	1.641303	-0.344115	0.012797
O102	O	2.141303	0.155885	0.512797
C103	C	1.712046	0.000001	0.080547
C104	C	2.212046	0.500001	0.580547
C105	C	1.851436	0.000005	0.082221
C106	C	2.351436	0.500005	0.582221
C107	C	1.492913	-0.000012	-0.020284
C108	C	1.992913	0.499988	0.479716
C109	C	1.491249	-0.000017	-0.083514
C110	C	1.991249	0.499983	0.416486
N111	N	1.482459	0.153257	0.083774
N112	N	1.982459	0.653257	0.583774
C113	C	1.480824	0.053636	-0.475600
C114	C	1.980824	0.553636	0.024400
C115	C	1.479242	0.053639	-0.535010
C116	C	1.979242	0.553639	-0.035010
O117	O	1.478397	0.099242	-0.565737
O118	O	1.978397	0.599242	-0.065737
N119	N	1.478439	0.000019	-0.564719
N120	N	1.978439	0.500019	-0.064719
C121	C	1.479205	-0.053608	-0.535015
C122	C	1.979205	0.446392	-0.035015
O123	O	1.478376	-0.099216	-0.565740
O124	O	1.978376	0.400784	-0.065740
C125	C	1.480777	-0.053611	-0.475606
C126	C	1.980777	0.446389	0.024394
C127	C	1.481593	0.000013	-0.445900
C128	C	1.981593	0.500013	0.054100
C129	C	1.481638	0.107255	-0.445894
C130	C	1.981638	0.607255	0.054106
C131	C	1.483222	0.107251	-0.386489
C132	C	1.983222	0.607251	0.113511
C133	C	1.483991	0.053628	-0.356789
C134	C	1.983991	0.553628	0.143211
C135	C	1.483177	0.000009	-0.386495
C136	C	1.983177	0.500009	0.113505
C137	C	1.481534	-0.107238	-0.445902
C138	C	1.981534	0.392762	0.054098
C139	C	1.483106	-0.107236	-0.386489
C140	C	1.983106	0.392764	0.113511
C141	C	1.483921	-0.053612	-0.356783
C142	C	1.983921	0.446388	0.143217
C143	C	1.485530	-0.053618	-0.297389
C144	C	1.985530	0.446382	0.202611
N145	N	1.486333	0.000003	-0.267680
N146	N	1.986333	0.500003	0.232320
C147	C	1.485563	0.053626	-0.297380
C148	C	1.985563	0.553626	0.202620
C149	C	1.475901	-0.053599	-0.659778
C150	C	1.975901	0.446401	-0.159778
C151	C	1.474337	-0.053596	-0.719187
C152	C	1.974337	0.446404	-0.219187
C153	C	1.474372	0.053651	-0.719177
C154	C	1.974372	0.553651	-0.219177
C155	C	1.475944	0.053649	-0.659768
C156	C	1.975944	0.553649	-0.159768
C157	C	1.476703	0.000022	-0.630069
C158	C	1.976703	0.500022	-0.130069
C159	C	1.488890	0.053614	-0.172624
C160	C	1.988890	0.553614	0.327376
C161	C	1.490480	0.053606	-0.113213
C162	C	1.990480	0.553606	0.386787
C163	C	1.490438	-0.053642	-0.113228
C164	C	1.990438	0.446358	0.386772
C165	C	1.488856	-0.053634	-0.172633
C166	C	1.988856	0.446366	0.327367
C167	C	1.488078	-0.000001	-0.202330
C168	C	1.988078	0.499999	0.297670
O169	O	1.486370	-0.099197	-0.266624
O170	O	1.986370	0.400803	0.233376
O171	O	1.486376	0.099226	-0.266646
O172	O	1.986376	0.599226	0.233354
C173	C	1.471897	0.000018	0.187879
C174	C	1.971897	0.500018	0.687879
C175	C	1.473561	0.000027	0.251109
C176	C	1.973561	0.500027	0.751109
H177	H	1.638202	-0.158991	0.014212
H178	H	2.138202	0.341009	0.514212
H179	H	1.240647	-0.443848	0.191748
H180	H	1.740647	0.056152	0.691748
H181	H	1.480872	-0.150904	-0.470078
H182	H	1.980872	0.349096	0.029922
H183	H	0.863522	-0.204528	0.082386
H184	H	1.363522	0.295472	0.582386
H185	H	1.491147	0.097275	-0.089030
H186	H	1.991147	0.597275	0.410970
H187	H	1.491070	-0.097300	-0.089036
H188	H	1.991070	0.402700	0.410964
H189	H	1.101132	-0.204533	0.085250
H190	H	1.601132	0.295467	0.585250
H191	H	0.744761	-0.107248	0.080942
H192	H	1.244761	0.392752	0.580942
H193	H	1.219985	-0.107247	0.086676
H194	H	1.719985	0.392753	0.586676
H195	H	1.101246	0.097290	0.085221
H196	H	1.601246	0.597290	0.585221
H197	H	1.638209	-0.271313	0.014193
H198	H	2.138209	0.228687	0.514193
H199	H	1.483881	0.150918	-0.362307
H200	H	1.983881	0.650918	0.137693
H201	H	0.863630	0.097293	0.082364
H202	H	1.363630	0.597293	0.582364
H203	H	1.638281	-0.728640	0.014171
H204	H	2.138281	-0.228640	0.514171
H205	H	1.473692	-0.097262	-0.743369
H206	H	1.973692	0.402738	-0.243369
H207	H	1.724120	-0.443809	-0.024179
H208	H	2.224120	0.056191	0.475821
H209	H	1.483705	-0.150906	-0.362310
H210	H	1.983705	0.349094	0.137690
H211	H	1.724129	-0.556128	-0.024188
H212	H	2.224129	-0.056128	0.475812
H213	H	1.638287	-0.840978	0.014169
H214	H	2.138287	-0.340978	0.514169
H215	H	1.488251	0.097287	-0.196795
H216	H	1.988251	0.597287	0.303205
H217	H	1.326642	-0.840997	0.153386
H218	H	1.826642	-0.340997	0.653386
H219	H	1.476522	-0.097271	-0.635601
H220	H	1.976522	0.402729	-0.135601
H221	H	1.488203	-0.097299	-0.196822
H222	H	1.988203	0.402701	0.303178
H223	H	1.326552	-0.271357	0.153419
H224	H	1.826552	0.228643	0.653419
H225	H	1.326605	-0.728675	0.153385
H226	H	1.826605	-0.228675	0.653385
H227	H	1.240666	-0.556170	0.191748
H228	H	1.740666	-0.056170	0.691748
H229	H	1.326541	-0.159020	0.153420
H230	H	1.826541	0.340980	0.653420
H231	H	1.481007	0.150924	-0.470069
H232	H	1.981007	0.650924	0.029931
H233	H	1.476607	0.097314	-0.635585
H234	H	1.976607	0.597314	-0.135585
H235	H	1.473741	0.097314	-0.743369
H236	H	1.973741	0.597314	-0.243369
