data_functionalizedCrystal
_audit_creation_method	'MofGen! by Chris Wilmer'
_symmetry_space_group_name_H-M	'P1'
_symmetry_Int_Tables_number	1
_symmetry_cell_setting	triclinic
loop_
_symmetry_equiv_pos_as_xyz
  x,y,z
_cell_length_a	14.044220
_cell_length_b	14.044220
_cell_length_c	13.101039
_cell_angle_alpha	86.332523
_cell_angle_beta	86.335636
_cell_angle_gamma	86.811123
loop_
_atom_site_label
_atom_site_type_symbol
_atom_site_fract_x
_atom_site_fract_y
_atom_site_fract_z
O1	O	1.281975	-0.225342	-0.085218
O2	O	1.615308	0.107991	0.248116
O3	O	1.948641	0.441325	0.581449
O4	O	1.005303	-0.217036	-0.085220
O5	O	1.338637	0.116297	0.248113
O6	O	1.671970	0.449630	0.581447
O7	O	1.139486	-0.082854	-0.085209
O8	O	1.472819	0.250479	0.248125
O9	O	1.806152	0.583813	0.581458
O10	O	1.147792	-0.359524	-0.085229
O11	O	1.481126	-0.026191	0.248104
O12	O	1.814459	0.307142	0.581438
O13	O	1.129860	-0.092499	0.085220
O14	O	1.463193	0.240834	0.418554
O15	O	1.796526	0.574168	0.751887
O16	O	0.995677	-0.226681	0.085209
O17	O	1.329011	0.106652	0.418542
O18	O	1.662344	0.439986	0.751876
O19	O	1.272349	-0.234987	0.085211
O20	O	1.605682	0.098346	0.418545
O21	O	1.939015	0.431680	0.751878
Zn22	Zn	1.132485	-0.232365	0.112270
Zn23	Zn	1.465818	0.100968	0.445603
Zn24	Zn	1.799151	0.434301	0.778936
Zn25	Zn	1.145167	-0.219658	-0.112278
Zn26	Zn	1.478501	0.113675	0.221055
Zn27	Zn	1.811834	0.447009	0.554389
O28	O	1.138166	-0.369169	0.085200
O29	O	1.471500	-0.035836	0.418533
O30	O	1.804833	0.297497	0.751867
C31	C	1.131037	-0.052055	0.000006
C32	C	1.464370	0.281279	0.333340
C33	C	1.797704	0.614612	0.666673
C34	C	1.120192	0.054088	0.000007
C35	C	1.453526	0.387421	0.333341
C36	C	1.786859	0.720755	0.666674
C37	C	0.964868	-0.218223	-0.000006
C38	C	1.298202	0.115110	0.333328
C39	C	1.631535	0.448444	0.666661
C40	C	0.858726	-0.207378	-0.000006
C41	C	1.192059	0.125955	0.333327
C42	C	1.525392	0.459288	0.666660
C43	C	1.312784	-0.233800	-0.000005
C44	C	1.646117	0.099533	0.333328
C45	C	1.979450	0.432867	0.666662
C46	C	1.418927	-0.244644	-0.000011
C47	C	1.752260	0.088689	0.333322
C48	C	2.085593	0.422022	0.666655
C49	C	1.613264	-0.264471	-0.000012
C50	C	1.946598	0.068863	0.333322
C51	C	2.279931	0.402196	0.666655
C52	C	1.664394	-0.187556	-0.000006
C53	C	1.997727	0.145777	0.333328
C54	C	2.331061	0.479110	0.666661
C55	C	1.772530	-0.198588	-0.000006
C56	C	2.105863	0.134745	0.333327
C57	C	2.439197	0.468079	0.666661
C58	C	1.505118	-0.253440	-0.000012
C59	C	1.838452	0.079893	0.333322
C60	C	2.171785	0.413226	0.666655
C61	C	1.146615	-0.399968	-0.000017
C62	C	1.479948	-0.066635	0.333316
C63	C	1.813282	0.266698	0.666650
C64	C	1.157460	-0.506111	-0.000025
C65	C	1.490794	-0.172777	0.333308
C66	C	1.824127	0.160556	0.666642
N67	N	1.123836	-0.241038	0.265517
N68	N	1.457169	0.092295	0.598851
N69	N	1.790503	0.425629	0.932184
C70	C	1.100367	0.248427	-0.000008
C71	C	1.433700	0.581760	0.333326
C72	C	1.767033	0.915093	0.666659
C73	C	1.177281	0.299557	-0.000010
C74	C	1.510615	0.632890	0.333323
C75	C	1.843948	0.966223	0.666657
C76	C	1.166250	0.407693	-0.000018
C77	C	1.499584	0.741027	0.333315
C78	C	1.832917	1.074360	0.666648
C79	C	1.111396	0.140280	0.000001
C80	C	1.444730	0.473613	0.333334
C81	C	1.778063	0.806947	0.666667
N82	N	1.153823	-0.210978	-0.265526
N83	N	1.487156	0.122355	0.067807
N84	N	1.820489	0.455688	0.401141
C85	C	1.112070	-0.252846	0.474559
C86	C	1.445403	0.080487	0.807892
C87	C	1.778737	0.413821	1.141226
C88	C	1.165586	-0.199173	0.525439
C89	C	1.498919	0.134160	0.858772
C90	C	1.832253	0.467493	1.192106
C91	C	1.159039	-0.205743	0.641757
C92	C	1.492373	0.127590	0.975090
C93	C	1.825706	0.460923	1.308424
C94	C	1.118616	-0.246277	0.358230
C95	C	1.451949	0.087056	0.691564
C96	C	1.785282	0.420390	1.024897
H97	H	1.626959	-0.113419	-0.000075
H98	H	1.960292	0.219914	0.333259
H99	H	2.293625	0.553248	0.666592
C100	C	1.663842	-0.364615	-0.000026
C101	C	1.997175	-0.031281	0.333307
C102	C	2.330509	0.302052	0.666640
N103	N	1.701948	-0.440042	-0.000042
N104	N	2.035281	-0.106709	0.333291
N105	N	2.368615	0.226625	0.666625
C106	C	1.043534	-0.321583	0.533725
C107	C	1.376867	0.011750	0.867058
C108	C	1.710201	0.345083	1.200392
N109	N	0.991914	-0.373356	0.578301
N110	N	1.325248	-0.040023	0.911634
N111	N	1.658581	0.293310	1.244968
C112	C	1.277432	0.248979	0.000005
C113	C	1.610766	0.582312	0.333339
C114	C	1.944099	0.915646	0.666672
N115	N	1.352863	0.210879	0.000022
N116	N	1.686196	0.544213	0.333356
N117	N	2.019529	0.877546	0.666689
H118	H	1.026239	0.285864	-0.000011
H119	H	1.359573	0.619197	0.333323
H120	H	1.692906	0.952530	0.666656
H121	H	1.216320	-0.148289	0.481641
H122	H	1.549653	0.185044	0.814974
H123	H	1.882987	0.518377	1.148308
