data_functionalizedCrystal
_audit_creation_method	'MofGen! by Chris Wilmer'
_symmetry_space_group_name_H-M	'P1'
_symmetry_Int_Tables_number	1
_symmetry_cell_setting	triclinic
loop_
_symmetry_equiv_pos_as_xyz
  x,y,z
_cell_length_a	10.654545
_cell_length_b	15.944564
_cell_length_c	9.130313
_cell_angle_alpha	90.005698
_cell_angle_beta	89.996934
_cell_angle_gamma	96.006493
loop_
_atom_site_label
_atom_site_type_symbol
_atom_site_fract_x
_atom_site_fract_y
_atom_site_fract_z
O1	O	1.666325	-0.117958	-0.121789
O2	O	1.300701	-0.129202	-0.121796
O3	O	1.493489	-0.001363	-0.121778
O4	O	1.473537	-0.245796	-0.121807
O5	O	1.493476	-0.001359	0.121821
O6	O	1.300687	-0.129198	0.121803
O7	O	1.666311	-0.117954	0.121810
Cu8	Cu	1.483498	-0.123576	0.144049
Cu9	Cu	1.483514	-0.123580	-0.144035
O10	O	1.473523	-0.245792	0.121792
C11	C	1.253907	-0.128375	0.000003
C12	C	1.114495	-0.125907	0.000001
C13	C	1.048998	-0.124744	0.132788
C14	C	0.918009	-0.122411	0.132788
C15	C	0.918024	-0.122410	-0.132797
C16	C	1.049012	-0.124736	-0.132796
C17	C	1.492651	0.029937	0.000022
C18	C	1.490159	0.123197	0.000023
C19	C	1.364700	0.338777	0.000002
C20	C	1.422942	0.399460	0.120113
C21	C	1.485652	0.293948	0.000013
C22	C	1.422983	0.399439	-0.120057
C23	C	1.481288	0.458885	-0.000003
C24	C	1.543927	0.353402	0.120223
C25	C	1.543951	0.353375	-0.120055
C26	C	1.602281	0.414039	0.000085
C27	C	1.488162	0.198932	0.000024
C28	C	1.478788	0.553900	-0.000003
C29	C	1.713105	-0.118781	0.000008
C30	C	1.852517	-0.121248	0.000000
N31	N	1.483496	-0.123572	0.346672
C32	C	1.474344	0.722906	-0.000009
C33	C	1.476784	0.629642	-0.000015
N34	N	1.483526	-0.123577	-0.346657
C35	C	1.568892	-0.066989	0.423331
C36	C	1.568904	-0.066989	0.576668
C37	C	1.398121	-0.180163	0.576672
C38	C	1.398104	-0.180158	0.423338
H39	H	0.864691	-0.121457	-0.240915
C40	C	1.312632	0.355860	-0.341036
C41	C	1.353915	0.426953	-0.257140
H42	H	1.269995	0.372845	-0.425665
H43	H	1.256683	0.318529	-0.284468
H44	H	1.383228	0.327998	-0.369893
H45	H	1.283318	0.454811	-0.228274
H46	H	1.409867	0.464297	-0.313719
H47	H	1.102341	-0.125681	-0.240933
H48	H	1.595036	0.333118	0.221877
C49	C	1.103436	-0.053373	0.359157
C50	C	1.120984	-0.126018	0.278753
H51	H	1.147883	-0.054157	0.449268
H52	H	1.016060	-0.051828	0.378157
H53	H	1.134486	-0.004868	0.304582
H54	H	1.089926	-0.174524	0.333324
H55	H	1.208379	-0.127572	0.259757
C56	C	1.229297	-0.292036	0.438732
C57	C	1.304234	-0.242361	0.339062
H58	H	1.171353	-0.330437	0.386700
H59	H	1.184132	-0.256794	0.498555
H60	H	1.281588	-0.322578	0.498520
H61	H	1.251943	-0.211814	0.279281
H62	H	1.349402	-0.277607	0.279214
H63	H	1.638421	-0.020913	0.360913
H64	H	1.264309	0.306050	0.000120
C65	C	1.734538	0.545565	-0.001097
C66	C	1.737926	0.458014	0.000120
H67	H	1.818281	0.572708	-0.001094
H68	H	1.691299	0.562052	0.083426
H69	H	1.691752	0.561310	-0.086466
H70	H	1.780704	0.442268	0.085495
H71	H	1.781183	0.441520	-0.084411
H72	H	1.328599	-0.226235	0.639109
H73	H	1.595071	0.332948	-0.221602
H74	H	0.864687	-0.121464	0.240916
H75	H	1.371778	0.419865	0.221654
C76	C	1.737722	0.044868	0.561252
C77	C	1.662778	-0.004795	0.660932
H78	H	1.795682	0.083262	0.613276
H79	H	1.685446	0.075409	0.501468
H80	H	1.782880	0.009611	0.501426
H81	H	1.617612	0.030461	0.720751
H82	H	1.715061	-0.035339	0.720742
