data_functionalizedCrystal
_audit_creation_method	'MofGen! by Chris Wilmer'
_symmetry_space_group_name_H-M	'P1'
_symmetry_Int_Tables_number	1
_symmetry_cell_setting	triclinic
loop_
_symmetry_equiv_pos_as_xyz
  x,y,z
_cell_length_a	27.732048
_cell_length_b	16.992694
_cell_length_c	16.053802
_cell_angle_alpha	92.750953
_cell_angle_beta	92.539157
_cell_angle_gamma	93.344561
loop_
_atom_site_label
_atom_site_type_symbol
_atom_site_fract_x
_atom_site_fract_y
_atom_site_fract_z
O1	O	0.100541	-1.042477	-0.069340
O2	O	0.099416	-0.814206	-0.069364
O3	O	0.029889	-0.935430	-0.069335
O4	O	0.170068	-0.921253	-0.069368
O5	O	0.033699	-0.928758	0.069522
O6	O	0.103227	-0.807534	0.069493
O7	O	0.104351	-1.035804	0.069518
Zn8	Zn	0.104394	-0.920610	0.091552
Zn9	Zn	0.099374	-0.929401	-0.091398
O10	O	0.173879	-0.914580	0.069489
C11	C	0.099876	-0.781675	0.000062
C12	C	0.095561	-0.694684	0.000053
C13	C	0.013774	-0.931796	0.000096
C14	C	-0.039919	-0.930900	0.000103
N15	N	0.107820	-0.914616	0.216411
C16	C	-0.375882	-0.996895	0.000067
C17	C	-0.577686	-0.993571	0.000055
O18	O	-0.606333	-1.053919	0.000025
N19	N	-0.599917	-0.921689	0.000048
C20	C	-0.571695	-0.850634	0.000038
O21	O	-0.595235	-0.789419	0.000024
C22	C	-0.369893	-0.853960	0.000045
C23	C	-0.347663	-0.925846	0.000060
C24	C	-0.353652	-1.068775	0.000081
C25	C	-0.303204	-1.069606	0.000089
C26	C	-0.274986	-0.998556	0.000082
C27	C	-0.297215	-0.926676	0.000067
C28	C	-0.341671	-0.782906	0.000029
C29	C	-0.291218	-0.783744	0.000029
C30	C	-0.268989	-0.855630	0.000044
C31	C	-0.218549	-0.856457	0.000068
N32	N	-0.196317	-0.928338	0.000075
C33	C	-0.224535	-0.999388	0.000082
C34	C	-0.677645	-0.848893	0.000037
C35	C	-0.728095	-0.848061	0.000037
C36	C	-0.734082	-0.990998	0.000052
C37	C	-0.683631	-0.991829	0.000058
C38	C	-0.655413	-0.920775	0.000044
C39	C	-0.118591	-1.001126	0.000098
C40	C	-0.068138	-1.001949	0.000109
C41	C	-0.062155	-0.859013	0.000090
C42	C	-0.112603	-0.858189	0.000084
C43	C	-0.140820	-0.929252	0.000085
O44	O	-0.189872	-0.796141	0.000089
O45	O	-0.200987	-1.060595	0.000078
C46	C	-0.426330	-0.996065	0.000059
C47	C	-0.448559	-0.924185	0.000045
C48	C	-0.420341	-0.853136	0.000038
C49	C	-0.499010	-0.923354	0.000045
C50	C	-0.527228	-0.994403	0.000052
C51	C	-0.504997	-1.066285	0.000059
C52	C	-0.454549	-1.067115	0.000066
C53	C	-0.442573	-0.781254	0.000031
C54	C	-0.493021	-0.780430	0.000024
C55	C	-0.521240	-0.851480	0.000031
C56	C	0.189993	-0.918214	0.000056
C57	C	0.243686	-0.919111	0.000044
C58	C	0.103892	-1.068336	0.000090
C59	C	0.108206	-1.155327	0.000093
C60	C	0.137184	-0.643939	0.000044
C61	C	0.133129	-0.562201	0.000056
C62	C	0.087449	-0.531209	0.000072
C63	C	0.045823	-0.581960	0.000084
C64	C	0.049880	-0.663696	0.000077
C65	C	0.070636	-0.287814	0.000098
C66	C	0.066583	-0.206072	0.000103
C67	C	0.153889	-0.186318	0.000077
C68	C	0.157941	-0.268057	0.000065
C69	C	0.116315	-0.318800	0.000081
N70	N	0.083302	-0.447660	0.000082
N71	N	0.120463	-0.402348	0.000077
N72	N	0.095944	-0.935401	-0.216257
C73	C	0.078248	-0.966215	0.260117
C74	C	0.080649	-0.962030	0.347523
C75	C	0.112625	-0.906248	0.391221
C76	C	0.142199	-0.854643	0.347509
C77	C	0.139794	-0.858825	0.260104
C78	C	0.123113	-0.887978	0.652626
C79	C	0.125516	-0.883801	0.740037
C80	C	0.063966	-0.991188	0.740045
C81	C	0.061567	-0.995369	0.652639
C82	C	0.091138	-0.943761	0.608934
N83	N	0.115082	-0.901970	0.480564
N84	N	0.088679	-0.948036	0.519593
H85	H	-0.050041	-1.060490	0.000124
H86	H	-0.511115	-0.721887	0.000019
F87	F	0.185803	-0.676915	0.000022
H88	H	0.167023	-0.520888	0.000048
F89	F	0.049175	-1.016947	0.394039
H90	H	0.015986	-0.705012	0.000084
F91	F	0.206559	-0.301035	0.000044
F92	F	0.044216	-1.025591	0.213619
F93	F	0.176228	-0.795271	0.394016
H94	H	0.035529	-1.040791	0.617062
F95	F	-0.365318	-0.706395	0.000009
H96	H	0.008630	-0.556720	0.000109
F97	F	0.171268	-0.803903	0.213590
H98	H	-0.141559	-1.058992	0.000096
F99	F	-0.279553	-1.146117	0.000087
F100	F	-0.751747	-0.771550	0.000036
H101	H	0.029383	-0.180842	0.000114
F102	F	-0.764123	-1.066615	0.000057
H103	H	-0.419602	-0.723396	0.000024
F104	F	0.032495	-1.046107	0.786564
H105	H	0.187778	-0.144995	0.000065
H106	H	0.036741	-0.329120	0.000112
F107	F	0.159553	-0.824428	0.786538
H108	H	0.147193	-0.845959	0.617049
H109	H	-0.665535	-1.050364	0.000070
F110	F	-0.383678	-1.144403	0.000088
H111	H	-0.654674	-0.791029	0.000026
H112	H	-0.268245	-0.725882	0.000016
H113	H	-0.039170	-0.801167	0.000088
F114	F	-0.136262	-0.781680	0.000082
H115	H	-0.527981	-1.124136	0.000068
F116	F	-0.430897	-1.143626	0.000078
