data_functionalizedCrystal
_audit_creation_method	'MofGen! by Chris Wilmer'
_symmetry_space_group_name_H-M	'P1'
_symmetry_Int_Tables_number	1
_symmetry_cell_setting	triclinic
loop_
_symmetry_equiv_pos_as_xyz
  x,y,z
_cell_length_a	21.295417
_cell_length_b	13.897449
_cell_length_c	13.897441
_cell_angle_alpha	90.018596
_cell_angle_beta	89.964549
_cell_angle_gamma	89.968214
loop_
_atom_site_label
_atom_site_type_symbol
_atom_site_fract_x
_atom_site_fract_y
_atom_site_fract_z
Zn1	Zn	-0.250574	-1.474596	-0.545342
Zn2	Zn	0.249426	-0.974596	-0.045342
Zn3	Zn	-0.355851	-1.474460	-0.384027
Zn4	Zn	0.144149	-0.974460	0.115973
Zn5	Zn	-0.250602	-1.313292	-0.384060
Zn6	Zn	0.249398	-0.813292	0.115940
Zn7	Zn	-0.355811	-1.313231	-0.545280
Zn8	Zn	0.144189	-0.813231	-0.045280
O9	O	-0.303209	-1.393895	-0.464677
O10	O	0.196791	-0.893895	0.035323
O11	O	-0.264544	-1.609560	-0.523955
O12	O	0.235456	-1.109560	-0.023955
O13	O	-0.341918	-1.453049	-0.249050
O14	O	0.158082	-0.953049	0.250950
O15	O	-0.162509	-1.334771	-0.405495
O16	O	0.337491	-0.834771	0.094505
O17	O	-0.341890	-1.609460	-0.405438
O18	O	0.158110	-1.109460	0.094562
O19	O	-0.162488	-1.453281	-0.523988
O20	O	0.337512	-0.953281	-0.023988
O21	O	-0.264592	-1.334639	-0.249074
O22	O	0.235408	-0.834639	0.250926
O23	O	-0.264553	-1.178302	-0.405434
O24	O	0.235447	-0.678302	0.094566
O25	O	-0.341823	-1.334668	-0.680270
O26	O	0.158177	-0.834668	-0.180270
O27	O	-0.341850	-1.178258	-0.523881
O28	O	0.158150	-0.678258	-0.023881
O29	O	-0.264505	-1.453223	-0.680316
O30	O	0.235495	-0.953223	-0.180316
O31	O	-0.443935	-1.452991	-0.405378
O32	O	0.056065	-0.952991	0.094622
O33	O	-0.443906	-1.334536	-0.523849
O34	O	0.056094	-0.834536	-0.023849
C35	C	-0.303201	-1.143281	-0.464655
C36	C	0.196799	-0.643281	0.035345
C37	C	-0.303213	-1.036067	-0.464669
C38	C	0.196787	-0.536067	0.035331
C39	C	-0.466761	-1.393768	-0.464624
C40	C	0.033239	-0.893768	0.035376
C41	C	-0.536729	-1.393803	-0.464633
C42	C	-0.036729	-0.893803	0.035367
C43	C	-0.303157	-1.393954	-0.716270
C44	C	0.196843	-0.893954	-0.216270
C45	C	-0.303134	-1.393979	-0.823484
C46	C	0.196866	-0.893979	-0.323484
C47	C	-0.569590	-1.455537	-0.403008
C48	C	-0.069590	-0.955537	0.096992
C49	C	-0.635333	-1.455582	-0.403030
C50	C	-0.135333	-0.955582	0.096970
C51	C	-0.668212	-1.393876	-0.464667
C52	C	-0.168212	-0.893876	0.035333
C53	C	-0.635343	-1.332137	-0.526304
C54	C	-0.135343	-0.832137	-0.026304
C55	C	-0.569602	-1.332101	-0.526287
C56	C	-0.069602	-0.832101	-0.026287
N57	N	-0.771478	-1.309494	-0.472013
N58	N	-0.271478	-0.809494	0.027987
N59	N	-0.833930	-1.309532	-0.472023
N60	N	-0.333930	-0.809532	0.027977
C61	C	-0.866286	-1.393984	-0.464722
C62	C	-0.366286	-0.893984	0.035278
N63	N	-0.833832	-1.478398	-0.457392
N64	N	-0.333832	-0.978398	0.042608
N65	N	-0.771375	-1.478360	-0.457376
N66	N	-0.271375	-0.978360	0.042624
C67	C	-0.739497	-1.393909	-0.464692
C68	C	-0.239497	-0.893909	0.035308
C69	C	-0.970433	-1.455772	-0.403117
C70	C	-0.470433	-0.955772	0.096883
C71	C	-1.036176	-1.455819	-0.403146
C72	C	-0.536176	-0.955819	0.096854
C73	C	-1.036185	-1.332366	-0.526414
C74	C	-0.536185	-0.832366	-0.026414
C75	C	-0.970443	-1.332328	-0.526391
C76	C	-0.470443	-0.832328	-0.026391
C77	C	-0.937571	-1.394029	-0.464737
C78	C	-0.437571	-0.894029	0.035263
C79	C	-0.139019	-1.394048	-0.464752
C80	C	0.360981	-0.894048	0.035248
C81	C	-0.069051	-1.394113	-0.464784
C82	C	0.430949	-0.894113	0.035216
C83	C	-0.303218	-1.645488	-0.464700
C84	C	0.196782	-1.145488	0.035300
C85	C	-0.303222	-1.752702	-0.464710
C86	C	0.196778	-1.252702	0.035290
C87	C	-0.303215	-0.839771	-0.464694
C88	C	0.196785	-0.339771	0.035306
C89	C	-0.303212	-0.949004	-0.464677
C90	C	0.196788	-0.449004	0.035323
C91	C	-0.303116	-1.393999	-0.910554
C92	C	0.196884	-0.893999	-0.410554
C93	C	-0.303088	-1.394026	-1.019787
C94	C	0.196912	-0.894026	-0.519787
C95	C	-0.303217	-1.393892	-0.214063
C96	C	0.196783	-0.893892	0.285937
C97	C	-0.303062	-1.394053	-0.106850
C98	C	0.196938	-0.894053	0.393150
H99	H	-0.542827	-1.505780	-0.352809
H100	H	-0.042827	-1.005780	0.147191
C101	C	-0.671504	-1.264262	-0.594105
C102	C	-0.171504	-0.764262	-0.094105
H103	H	-0.642515	-1.227494	-0.630811
H104	H	-0.142515	-0.727494	-0.130811
H105	H	-0.697194	-1.222268	-0.557178
H106	H	-0.197194	-0.722268	-0.057178
H107	H	-0.697105	-1.301159	-0.636174
H108	H	-0.197105	-0.801159	-0.136174
C109	C	-0.671487	-1.523484	-0.335233
C110	C	-0.171487	-1.023484	0.164767
H111	H	-0.642494	-1.560220	-0.298508
H112	H	-0.142494	-1.060220	0.201492
H113	H	-0.697092	-1.565507	-0.372167
H114	H	-0.197092	-1.065507	0.127833
H115	H	-0.697173	-1.486606	-0.293180
H116	H	-0.197173	-0.986606	0.206820
C117	C	-0.533450	-1.264189	-0.594072
C118	C	-0.033450	-0.764189	-0.094072
H119	H	-0.489589	-1.273008	-0.585237
H120	H	0.010411	-0.773008	-0.085237
H121	H	-0.544271	-1.199393	-0.579905
H122	H	-0.044271	-0.699393	-0.079905
H123	H	-0.544180	-1.278284	-0.658902
H124	H	-0.044180	-0.778284	-0.158902
H125	H	-0.943667	-1.506016	-0.352918
H126	H	-0.443667	-1.006016	0.147082
C127	C	-1.072327	-1.523717	-0.335345
C128	C	-0.572327	-1.023717	0.164655
H129	H	-1.116188	-1.514907	-0.344188
H130	H	-0.616188	-1.014907	0.155812
H131	H	-1.061592	-1.509614	-0.270524
H132	H	-0.561592	-1.009614	0.229476
H133	H	-1.061509	-1.588521	-0.349506
H134	H	-0.561509	-1.088521	0.150494
C135	C	-1.072344	-1.264495	-0.594218
C136	C	-0.572344	-0.764495	-0.094218
H137	H	-1.116205	-1.273355	-0.585401
H138	H	-0.616205	-0.773355	-0.085401
H139	H	-1.061526	-1.278570	-0.659036
H140	H	-0.561526	-0.778570	-0.159036
H141	H	-1.061619	-1.199682	-0.580036
H142	H	-0.561619	-0.699682	-0.080036
C143	C	-0.934294	-1.264407	-0.594167
C144	C	-0.434294	-0.764407	-0.094167
H145	H	-0.963290	-1.227657	-0.630873
H146	H	-0.463290	-0.727657	-0.130873
H147	H	-0.908603	-1.301262	-0.636222
H148	H	-0.408603	-0.801262	-0.136222
H149	H	-0.908696	-1.222384	-0.557213
H150	H	-0.408696	-0.722384	-0.057213
