data_functionalizedCrystal
_audit_creation_method	'MofGen! by Chris Wilmer'
_symmetry_space_group_name_H-M	'P1'
_symmetry_Int_Tables_number	1
_symmetry_cell_setting	triclinic
loop_
_symmetry_equiv_pos_as_xyz
  x,y,z
_cell_length_a	6.817900
_cell_length_b	17.078472
_cell_length_c	10.992410
_cell_angle_alpha	95.080907
_cell_angle_beta	108.764651
_cell_angle_gamma	99.306020
loop_
_atom_site_label
_atom_site_type_symbol
_atom_site_fract_x
_atom_site_fract_y
_atom_site_fract_z
V1	V	-4.066459	-0.109767	-0.400464
O2	O	-4.074672	0.005275	-0.392974
O3	O	-3.997069	-0.217650	-0.397597
O4	O	-4.044786	-0.108079	-0.575179
O5	O	-4.026625	-0.105055	-0.214163
V6	V	-4.549343	-0.096007	-0.378196
O7	O	-4.329118	-0.139952	-0.449310
O8	O	-4.736882	-0.065822	-0.329351
O9	O	-4.395527	0.011876	-0.381063
O10	O	-4.658527	-0.211049	-0.385687
O11	O	-4.706574	-0.100719	-0.564497
O12	O	-4.347810	-0.097695	-0.203482
C13	C	-3.836098	-0.243950	-0.391247
C14	C	-3.860829	-0.332145	-0.390068
C15	C	-4.054756	-0.377620	-0.395918
C16	C	-4.077984	-0.460490	-0.394817
C17	C	-3.907279	-0.497882	-0.387858
C18	C	-3.713339	-0.452401	-0.382011
C19	C	-3.690117	-0.369534	-0.383121
C20	C	-3.957184	-0.745286	-0.383861
C21	C	-3.980420	-0.828159	-0.382748
C22	C	-4.345066	-0.836242	-0.395556
C23	C	-4.321823	-0.753373	-0.396657
C24	C	-4.127889	-0.707899	-0.390818
N25	N	-3.931016	-0.582587	-0.386729
N26	N	-4.104159	-0.623196	-0.391956
C27	C	-3.896966	-0.104180	-0.617768
C28	C	-3.960390	-0.103513	-0.760597
C29	C	-3.830158	-0.097439	-0.955727
C30	C	-3.764163	-0.098461	-0.807243
C31	C	-4.124349	-0.181738	-0.837609
C32	C	-4.188964	-0.181046	-0.986176
C33	C	-4.132676	-0.029574	-0.948322
C34	C	-4.062129	-0.029203	-0.799310
C35	C	-4.219838	0.038171	-0.387410
C36	C	-4.174347	0.126366	-0.388598
C37	C	-4.158971	-0.101597	-0.160886
C38	C	-4.074785	-0.102260	-0.018056
H39	H	-3.532205	-0.332509	-0.378363
N40	N	-3.538983	-0.490607	-0.374889
N41	N	-3.468061	-0.527183	-0.281861
H42	H	-3.344918	-0.554166	-0.276825
N43	N	-4.496205	-0.715174	-0.403828
N44	N	-4.475459	-0.641188	-0.404849
H45	H	-4.598623	-0.614210	-0.409926
N46	N	-4.276087	-0.506941	-0.400808
N47	N	-4.438788	-0.509151	-0.496192
H48	H	-4.578708	-0.541956	-0.500425
N49	N	-3.806046	-0.866354	-0.375671
N50	N	-3.821547	-0.920455	-0.464600
H51	H	-3.698400	-0.947429	-0.459602
N52	N	-3.914019	0.043392	-0.733727
N53	N	-3.740583	0.058827	-0.751471
H54	H	-3.635972	0.110096	-0.705142
H55	H	-4.368004	-0.187848	-1.028800
N56	N	-3.759068	-0.698860	-0.377881
N57	N	-3.596371	-0.696652	-0.282496
H58	H	-3.456438	-0.663863	-0.278274
N59	N	-3.608617	-0.027904	-0.740428
N60	N	-3.436970	-0.014534	-0.760755
H61	H	-3.327104	0.035298	-0.713576
N62	N	-3.714072	-0.026388	-0.979434
N63	N	-3.810269	0.021525	-1.042548
H64	H	-3.728287	0.071707	-1.059298
H65	H	-4.502961	-0.873275	-0.400310
N66	N	-3.663552	-0.164896	-0.776023
N67	N	-3.739792	-0.218110	-0.723515
H68	H	-3.668739	-0.265034	-0.701466
N69	N	-4.355643	-0.033114	-0.999551
N70	N	-4.434505	0.019551	-0.956847
H71	H	-4.591973	0.017048	-0.993034
H72	H	-4.193761	-0.347181	-0.401573
N73	N	-3.770365	-0.162955	-1.015866
N74	N	-3.907133	-0.213182	-1.104429
H75	H	-3.864913	-0.259455	-1.146906
N76	N	-4.309429	-0.189912	-0.801464
N77	N	-4.322585	-0.138053	-0.718341
H78	H	-4.453297	-0.143823	-0.692811
H79	H	-4.149441	-0.236082	-1.032382
H80	H	-4.054568	-0.236909	-0.811939
N81	N	-4.035977	0.044942	-0.973936
N82	N	-3.839145	0.063821	-0.940854
H83	H	-3.770828	0.116445	-0.958942
H84	H	-4.204642	-0.028285	-0.766799
