data_functionalizedCrystal
_audit_creation_method	'MofGen! by Chris Wilmer'
_symmetry_space_group_name_H-M	'P1'
_symmetry_Int_Tables_number	1
_symmetry_cell_setting	triclinic
loop_
_symmetry_equiv_pos_as_xyz
  x,y,z
_cell_length_a	10.723023
_cell_length_b	10.723024
_cell_length_c	9.198806
_cell_angle_alpha	89.997736
_cell_angle_beta	89.996443
_cell_angle_gamma	84.467709
loop_
_atom_site_label
_atom_site_type_symbol
_atom_site_fract_x
_atom_site_fract_y
_atom_site_fract_z
O1	O	1.657188	0.175020	-0.120884
O2	O	1.294035	0.191775	-0.120888
O3	O	1.483988	0.001821	-0.120881
O4	O	1.467235	0.364974	-0.120892
O5	O	1.483974	0.001820	0.120904
O6	O	1.294021	0.191773	0.120897
O7	O	1.657174	0.175019	0.120901
Cu8	Cu	1.475596	0.183396	0.142976
Cu9	Cu	1.475613	0.183398	-0.142963
O10	O	1.467221	0.364972	0.120893
C11	C	1.247529	0.190555	0.000004
C12	C	1.108974	0.186908	0.000003
C13	C	1.047210	0.185282	-0.125249
C14	C	0.904007	0.181513	-0.125254
C15	C	1.482762	-0.044679	0.000010
C16	C	1.479114	-0.183233	0.000005
C17	C	1.585402	-0.258216	0.000004
C18	C	1.581634	-0.401420	-0.000001
C19	C	1.703680	0.176239	0.000005
C20	C	1.842235	0.179886	-0.000003
C21	C	1.468447	0.411473	-0.000001
C22	C	1.472095	0.550027	-0.000005
N23	N	1.475593	0.183394	0.344090
N24	N	1.475625	0.183390	-0.344077
C25	C	1.555546	0.103465	0.583694
C26	C	1.555530	0.103466	0.416281
H27	H	0.895343	0.181278	0.107236
H28	H	1.623949	0.035034	0.354167
H29	H	1.055835	0.185515	0.107233
H30	H	1.381099	-0.385548	0.000006
H31	H	1.679188	-0.216394	0.000014
H32	H	1.672625	-0.465852	0.000004
H33	H	1.385328	-0.225055	-0.000005
H34	H	1.100348	0.186688	-0.232479
Cl35	Cl	1.661219	-0.002183	0.679558
Cl36	Cl	0.822009	0.179345	-0.290823
Cl37	Cl	1.369938	0.289042	0.439974
Cl38	Cl	1.369967	0.289049	0.560055
