data_functionalizedCrystal
_audit_creation_method	'MofGen! by Chris Wilmer'
_symmetry_space_group_name_H-M	'P1'
_symmetry_Int_Tables_number	1
_symmetry_cell_setting	triclinic
loop_
_symmetry_equiv_pos_as_xyz
  x,y,z
_cell_length_a	19.077105
_cell_length_b	19.077356
_cell_length_c	19.077237
_cell_angle_alpha	89.925100
_cell_angle_beta	94.513445
_cell_angle_gamma	89.903992
loop_
_atom_site_label
_atom_site_type_symbol
_atom_site_fract_x
_atom_site_fract_y
_atom_site_fract_z
Zn1	Zn	1.079561	-0.340824	0.427643
Zn2	Zn	1.579561	0.159176	0.927643
Zn3	Zn	1.070094	-0.453223	0.305074
Zn4	Zn	1.570094	0.046777	0.805074
Zn5	Zn	0.957358	-0.331022	0.305449
Zn6	Zn	1.457358	0.168978	0.805449
Zn7	Zn	0.956984	-0.453174	0.418193
Zn8	Zn	1.456984	0.046826	0.918193
O9	O	1.015999	-0.394560	0.364090
O10	O	1.515999	0.105440	0.864090
O11	O	1.176784	-0.359857	0.415181
O12	O	1.676784	0.140143	0.915181
O13	O	1.051334	-0.432930	0.206645
O14	O	1.551334	0.067070	0.706645
O15	O	0.977687	-0.234162	0.325771
O16	O	1.477687	0.265838	0.825771
O17	O	1.169829	-0.442436	0.325130
O18	O	1.669829	0.057564	0.825130
O19	O	1.067469	-0.241364	0.415545
O20	O	1.567469	0.258636	0.915545
O21	O	0.968507	-0.343150	0.206921
O22	O	1.468507	0.156850	0.706921
O23	O	0.858829	-0.343102	0.316607
O24	O	1.358829	0.156898	0.816607
O25	O	0.977050	-0.442352	0.517925
O26	O	1.477050	0.057648	1.017925
O27	O	0.858555	-0.432847	0.399439
O28	O	1.358555	0.067153	0.899439
O29	O	1.067106	-0.359809	0.524868
O30	O	1.567106	0.140191	1.024868
O31	O	1.050972	-0.551376	0.315967
O32	O	1.550972	-0.051376	0.815967
O33	O	0.967870	-0.551340	0.399075
O34	O	1.467870	-0.051340	0.899075
C35	C	0.833158	-0.386906	0.357039
C36	C	1.333158	0.113094	0.857039
C37	C	0.754937	-0.383649	0.354039
C38	C	1.254937	0.116351	0.854039
C39	C	1.023675	-0.211599	0.371754
C40	C	1.523675	0.288401	0.871754
C41	C	1.026946	-0.133632	0.375020
C42	C	1.526946	0.366368	0.875020
C43	C	1.008977	-0.386933	0.181252
C44	C	1.508977	0.113067	0.681252
C45	C	1.006099	-0.383499	0.103046
C46	C	1.506099	0.116501	0.603046
C47	C	0.718059	-0.428909	0.395682
C48	C	1.218059	0.071091	0.895682
C49	C	0.644563	-0.425840	0.392867
C50	C	1.144563	0.074160	0.892867
C51	C	0.607946	-0.377513	0.348404
C52	C	1.107946	0.122487	0.848404
C53	C	0.644830	-0.332249	0.306760
C54	C	1.144830	0.167751	0.806760
C55	C	0.718325	-0.335315	0.309579
C56	C	1.218325	0.164685	0.809579
C57	C	0.388154	-0.363322	0.335359
C58	C	0.888154	0.136678	0.835359
C59	C	0.314654	-0.360260	0.332541
C60	C	0.814654	0.139740	0.832541
C61	C	0.314392	-0.453850	0.418650
C62	C	0.814392	0.046150	0.918650
C63	C	0.387888	-0.456915	0.421462
C64	C	0.887888	0.043085	0.921462
C65	C	0.424766	-0.411648	0.379820
C66	C	0.924766	0.088352	0.879820
N67	N	0.532821	-0.374376	0.345524
N68	N	1.032821	0.125624	0.845524
N69	N	0.499889	-0.414783	0.382705
N70	N	0.999889	0.085217	0.882705
C71	C	1.199555	-0.402245	0.371168
C72	C	1.699555	0.097755	0.871168
C73	C	1.277775	-0.405520	0.374184
C74	C	1.777775	0.094480	0.874184
C75	C	1.008373	-0.576811	0.356471
C76	C	1.508373	-0.076811	0.856471
C77	C	1.005176	-0.654783	0.353238
C78	C	1.505176	-0.154783	0.853238
C79	C	0.981741	-0.093252	0.329815
C80	C	1.481741	0.406748	0.829815
C81	C	0.984814	-0.019994	0.332891
C82	C	1.484814	0.480006	0.832891
C83	C	1.033096	0.012883	0.381169
C84	C	1.533096	0.512883	0.881169
C85	C	1.078302	-0.027502	0.426379
C86	C	1.578302	0.472498	0.926379
C87	C	1.075226	-0.100759	0.423306
C88	C	1.575226	0.399241	0.923306
C89	C	1.047306	0.231575	0.395375
C90	C	1.547306	0.731575	0.895375
C91	C	1.050380	0.304837	0.398443
C92	C	1.550380	0.804837	0.898443
C93	C	0.956891	0.312340	0.304956
C94	C	1.456891	0.812340	0.804956
C95	C	0.953821	0.239082	0.301884
C96	C	1.453821	0.739082	0.801884
C97	C	0.999026	0.198703	0.347096
C98	C	1.499026	0.698703	0.847096
N99	N	1.036239	0.087765	0.384313
N100	N	1.536239	0.587765	0.884313
N101	N	0.995878	0.123823	0.343956
N102	N	1.495878	0.623823	0.843956
C103	C	1.023092	-0.402169	0.547645
C104	C	1.523092	0.097831	1.047645
C105	C	1.026115	-0.405411	0.625865
C106	C	1.526115	0.094589	1.125865
C107	C	1.047796	-0.428716	1.066147
C108	C	1.547796	0.071284	1.566147
C109	C	1.044946	-0.425665	0.992651
C110	C	1.544946	0.074335	1.492651
C111	C	1.000402	-0.377393	0.956054
C112	C	1.500402	0.122607	1.456054
C113	C	0.958700	-0.332173	0.992958
C114	C	1.458700	0.167827	1.492958
C115	C	0.961547	-0.335228	1.066452
C116	C	1.461547	0.164772	1.566452
C117	C	0.987260	-0.363246	0.736264
C118	C	1.487260	0.136754	1.236264
C119	C	0.984418	-0.360193	0.662764
C120	C	1.484418	0.139807	1.162764
C121	C	1.070663	-0.453687	0.662462
C122	C	1.570663	0.046313	1.162462
C123	C	1.073509	-0.456735	0.735958
C124	C	1.573509	0.043265	1.235958
C125	C	1.031805	-0.411518	0.772855
C126	C	1.531805	0.088482	1.272855
N127	N	0.997489	-0.374271	0.880929
N128	N	1.497489	0.125729	1.380929
N129	N	1.034714	-0.414643	0.847979
N130	N	1.534714	0.085357	1.347979
H131	H	0.747867	-0.468264	0.431886
H132	H	1.247867	0.031736	0.931886
H133	H	0.948146	-0.320879	0.632969
H134	H	1.448146	0.179121	1.132969
C135	C	0.758890	-0.285527	0.263767
C136	C	1.258890	0.214473	0.763767
N137	N	0.789443	-0.248024	0.229260
N138	N	1.289443	0.251976	0.729260
C139	C	0.941394	-0.313496	0.776841
C140	C	1.441394	0.186504	1.276841
N141	N	0.906849	-0.276018	0.807407
N142	N	1.406849	0.223982	1.307407
C143	C	0.907164	0.356763	0.255232
C144	C	1.407164	0.856763	0.755232
N145	N	0.869705	0.390222	0.217780
N146	N	1.369705	0.890222	0.717780
C147	C	1.122508	-0.509841	0.776209
C148	C	1.622508	-0.009841	1.276209
N149	N	1.159415	-0.549841	0.806525
N150	N	1.659415	-0.049841	1.306525
H151	H	0.614540	-0.462696	0.426776
H152	H	1.114540	0.037304	0.926776
H153	H	0.914507	0.212319	0.262570
H154	H	1.414507	0.712319	0.762570
H155	H	1.078891	-0.462494	0.962610
H156	H	1.578891	0.037506	1.462610
C157	C	0.428709	-0.313530	0.289547
C158	C	0.928709	0.186470	0.789547
N159	N	0.459258	-0.276026	0.255037
N160	N	0.959258	0.223974	0.755037
H161	H	1.104616	-0.490501	0.632412
H162	H	1.604616	0.009499	1.132412
C163	C	0.909707	-0.279067	0.952699
C164	C	1.409707	0.220933	1.452699
N165	N	0.872808	-0.239062	0.922378
N166	N	1.372808	0.260938	1.422378
H167	H	0.942428	-0.120015	0.290500
H168	H	1.442428	0.379985	0.790500
C169	C	1.103487	0.341000	0.451564
C170	C	1.603487	0.841000	0.951564
N171	N	1.143482	0.368238	0.491574
N172	N	1.643482	0.868238	0.991574
H173	H	1.084122	0.198707	0.432182
H174	H	1.584122	0.698707	0.932182
H175	H	0.927593	-0.298406	1.096494
H176	H	1.427593	0.201594	1.596494
H177	H	0.417696	-0.496269	0.457666
H178	H	0.917696	0.003731	0.957666
C179	C	0.273821	-0.503636	0.464458
C180	C	0.773821	-0.003636	0.964458
N181	N	0.243264	-0.541134	0.498965
N182	N	0.743264	-0.041134	0.998965
H183	H	0.615011	-0.292898	0.270560
H184	H	1.115011	0.207102	0.770560
C185	C	0.274377	-0.307094	0.283628
C186	C	0.774377	0.192906	0.783628
N187	N	0.244040	-0.267053	0.246787
N188	N	0.744040	0.232947	0.746787
H189	H	0.948004	0.012883	0.296082
H190	H	1.448004	0.512883	0.796082
C191	C	1.131414	0.008665	0.479484
C192	C	1.631414	0.508665	0.979484
N193	N	1.171420	0.035906	0.519482
N194	N	1.671420	0.535906	1.019482
C195	C	1.096798	-0.481821	1.106396
C196	C	1.596798	0.018179	1.606396
N197	N	1.133706	-0.521823	1.136710
N198	N	1.633706	-0.021823	1.636710
C199	C	1.124957	-0.145176	0.473033
C200	C	1.624957	0.354824	0.973033
N201	N	1.162415	-0.178631	0.510490
N202	N	1.662415	0.321369	1.010490
