data_functionalizedCrystal
_audit_creation_method	'MofGen! by Chris Wilmer'
_symmetry_space_group_name_H-M	'P1'
_symmetry_Int_Tables_number	1
_symmetry_cell_setting	triclinic
loop_
_symmetry_equiv_pos_as_xyz
  x,y,z
_cell_length_a	10.723024
_cell_length_b	10.723024
_cell_length_c	7.540329
_cell_angle_alpha	89.997572
_cell_angle_beta	89.997341
_cell_angle_gamma	84.467869
loop_
_atom_site_label
_atom_site_type_symbol
_atom_site_fract_x
_atom_site_fract_y
_atom_site_fract_z
O1	O	1.657186	0.175025	-0.147466
O2	O	1.294034	0.191779	-0.147472
O3	O	1.483986	0.001826	-0.147462
O4	O	1.467233	0.364978	-0.147476
O5	O	1.483975	0.001823	0.147503
O6	O	1.294022	0.191776	0.147493
O7	O	1.657175	0.175023	0.147499
Cu8	Cu	1.475597	0.183399	0.174429
Cu9	Cu	1.475611	0.183402	-0.174402
O10	O	1.467222	0.364976	0.147490
C11	C	1.247528	0.190558	0.000010
C12	C	1.108974	0.186911	0.000008
C13	C	0.917217	0.073603	0.000009
C14	C	1.060420	0.077371	0.000011
C15	C	1.482762	-0.044675	0.000018
C16	C	1.479114	-0.183229	0.000012
C17	C	1.585401	-0.258212	0.000011
C18	C	1.581634	-0.401415	0.000005
C19	C	1.703680	0.176243	0.000013
C20	C	1.842234	0.179891	0.000004
C21	C	1.468447	0.411477	0.000005
C22	C	1.472094	0.550031	-0.000000
N23	N	1.475597	0.183397	0.419777
N24	N	1.475621	0.183395	-0.419750
H25	H	1.124853	-0.013619	0.000004
Br26	Br	1.001597	0.338583	-0.000020
H27	H	1.385328	-0.225051	-0.000001
H28	H	0.884056	0.273677	0.000011
H29	H	1.381099	-0.385544	0.000013
Br30	Br	1.741727	-0.188520	-0.000005
H31	H	0.875395	-0.020182	0.000039
Br32	Br	1.733301	-0.508799	0.000025
