data_functionalizedCrystal
_audit_creation_method	'MofGen! by Chris Wilmer'
_symmetry_space_group_name_H-M	'P1'
_symmetry_Int_Tables_number	1
_symmetry_cell_setting	triclinic
loop_
_symmetry_equiv_pos_as_xyz
  x,y,z
_cell_length_a	21.295418
_cell_length_b	17.077402
_cell_length_c	17.077396
_cell_angle_alpha	90.028267
_cell_angle_beta	89.963466
_cell_angle_gamma	89.959853
loop_
_atom_site_label
_atom_site_type_symbol
_atom_site_fract_x
_atom_site_fract_y
_atom_site_fract_z
Zn1	Zn	0.962338	0.312170	-0.444253
Zn2	Zn	0.962265	0.443447	-0.312989
Zn3	Zn	0.857074	0.312235	-0.312956
Zn4	Zn	0.857042	0.443434	-0.444168
O5	O	0.909680	0.377822	-0.378592
O6	O	1.050418	0.329562	-0.426889
O7	O	0.948294	0.426074	-0.203138
O8	O	0.871082	0.202380	-0.330395
O9	O	1.050364	0.426011	-0.330450
O10	O	0.948419	0.202332	-0.426857
O11	O	0.871011	0.329674	-0.203114
O12	O	0.768981	0.329661	-0.330313
O13	O	0.871027	0.425989	-0.554027
O14	O	0.768957	0.426052	-0.426714
O15	O	0.948387	0.329550	-0.554088
O16	O	0.948263	0.553292	-0.330369
O17	O	0.870956	0.553283	-0.426746
C18	C	0.746128	0.377863	-0.378501
C19	C	0.676160	0.377900	-0.378481
C20	C	0.909615	0.581770	-0.378569
C21	C	0.909645	0.669019	-0.378585
C22	C	0.909711	0.377761	-0.583336
C23	C	0.909725	0.377735	-0.670586
C24	C	0.643297	0.428157	-0.428602
C25	C	0.577555	0.428138	-0.428637
C26	C	0.544678	0.377869	-0.378538
C27	C	0.577548	0.327602	-0.328413
C28	C	0.643289	0.327617	-0.328385
N29	N	0.441408	0.371740	-0.309881
N30	N	0.378957	0.371730	-0.309910
C31	C	0.346603	0.377819	-0.378621
N32	N	0.379060	0.383934	-0.447304
N33	N	0.441517	0.383948	-0.447274
C34	C	0.473392	0.377847	-0.378563
C35	C	0.242455	0.428058	-0.428784
C36	C	0.176711	0.428033	-0.428821
C37	C	0.176706	0.327502	-0.328590
C38	C	0.242448	0.327523	-0.328560
C39	C	0.275319	0.377805	-0.378656
C40	C	1.073870	0.377781	-0.378683
C41	C	1.143838	0.377763	-0.378722
C42	C	0.949939	0.709988	-0.328457
C43	C	0.949968	0.791969	-0.328481
C44	C	0.909699	0.832979	-0.378628
C45	C	0.869404	0.792004	-0.428762
C46	C	0.869378	0.710025	-0.428742
C47	C	0.869458	0.962874	-0.428799
C48	C	0.869483	1.044859	-0.428818
C49	C	0.950048	1.044818	-0.328537
C50	C	0.950023	0.962839	-0.328517
C51	C	0.909726	0.921870	-0.378650
C52	C	0.909757	1.173077	-0.378642
C53	C	0.909777	1.085828	-0.378690
C54	C	0.869496	0.327533	-0.711563
C55	C	0.869506	0.327515	-0.793543
C56	C	0.909749	0.377696	-0.834545
C57	C	0.949980	0.427903	-0.793563
C58	C	0.949966	0.427925	-0.711583
C59	C	0.950007	0.427854	-0.964433
C60	C	0.950022	0.427832	-1.046417
C61	C	0.869547	0.327445	-1.046393
C62	C	0.869533	0.327466	-0.964414
C63	C	0.909765	0.377673	-0.923436
C64	C	0.909685	0.377826	-0.174644
C65	C	0.909793	0.377630	-0.087394
H66	H	0.670057	0.469100	-0.469396
O67	O	0.144759	0.476744	-0.477596
C68	C	0.106795	0.432114	-0.528385
H69	H	0.126656	0.370301	-0.533339
H70	H	0.056953	0.429364	-0.504145
C71	C	0.081432	0.546494	-0.603833
C72	C	0.105828	0.470576	-0.609922
H73	H	0.080833	0.570220	-0.654128
H74	H	0.107007	0.576563	-0.569614
H75	H	0.039899	0.544192	-0.583630
H76	H	0.147363	0.472880	-0.630116
H77	H	0.080260	0.440508	-0.644147
O78	O	0.830410	0.278672	-0.833227
C79	C	0.794880	0.234396	-0.779459
H80	H	0.820657	0.231690	-0.721037
H81	H	0.747057	0.263151	-0.770705
C82	C	0.754192	0.154169	-0.883222
C83	C	0.785854	0.150839	-0.811469
H84	H	0.748621	0.102628	-0.902969
H85	H	0.778127	0.184000	-0.919448
H86	H	0.714342	0.178134	-0.875918
H87	H	0.825706	0.126883	-0.818776
H88	H	0.761926	0.121002	-0.775246
O89	O	0.989114	0.670276	-0.279715
C90	C	1.024673	0.724020	-0.235463
H91	H	1.026856	0.782430	-0.267635
H92	H	1.001652	0.732816	-0.175813
C93	C	1.088985	0.620204	-0.184729
C94	C	1.091670	0.691941	-0.224247
H95	H	1.130311	0.600415	-0.177807
H96	H	1.065027	0.583994	-0.214540
H97	H	1.069798	0.627543	-0.135025
H98	H	1.110849	0.684599	-0.273953
H99	H	1.115633	0.728149	-0.194443
O100	O	0.274277	0.278682	-0.279792
C101	C	0.231164	0.234294	-0.235594
H102	H	0.184276	0.266431	-0.232839
H103	H	0.224238	0.174711	-0.264447
C104	C	0.314353	0.183409	-0.155442
C105	C	0.256766	0.222884	-0.152053
H106	H	0.330145	0.176367	-0.103911
H107	H	0.343399	0.213312	-0.185221
H108	H	0.308573	0.133761	-0.179490
H109	H	0.262548	0.272534	-0.128014
H110	H	0.227720	0.192989	-0.122268
H111	H	0.982809	0.929449	-0.287679
H112	H	0.982779	0.825322	-0.287661
O113	O	0.830389	0.278794	-1.086223
C114	C	0.789727	0.323487	-1.133616
H115	H	0.785819	0.385319	-1.108893
H116	H	0.809190	0.326167	-1.195761
C117	C	0.729100	0.209218	-1.165197
C118	C	0.724296	0.285159	-1.134829
H119	H	0.688740	0.185575	-1.165949
H120	H	0.756496	0.179106	-1.133271
H121	H	0.745322	0.211462	-1.216982
H122	H	0.708082	0.282914	-1.083042
H123	H	0.696896	0.315270	-1.166747
O124	O	0.989145	0.476653	-0.924748
C125	C	1.024656	0.520954	-0.978514
H126	H	1.026862	0.488785	-1.036959
H127	H	1.001579	0.580572	-0.987209
C128	C	1.088933	0.571776	-0.874766
C129	C	1.091646	0.532262	-0.946548
H130	H	1.130254	0.578755	-0.855047
H131	H	1.065006	0.541932	-0.838542
H132	H	1.069699	0.621454	-0.882022
H133	H	1.110872	0.482582	-0.939290
H134	H	1.115577	0.562098	-0.982770
H135	H	0.982791	0.468694	-1.079799
O136	O	0.144679	0.278763	-0.279928
C137	C	0.079606	0.289519	-0.290705
H138	H	0.070609	0.350118	-0.316338
H139	H	0.061005	0.242991	-0.332571
C140	C	0.056858	0.207834	-0.179815
C141	C	0.045806	0.282265	-0.211292
H142	H	0.036007	0.203355	-0.130831
H143	H	0.100698	0.200584	-0.172556
H144	H	0.041356	0.169068	-0.214711
H145	H	0.061315	0.321028	-0.176401
H146	H	0.001967	0.289521	-0.218544
H147	H	0.982861	1.078179	-0.287720
O148	O	0.545721	0.477030	-0.477356
C149	C	0.588830	0.521394	-0.521584
H150	H	0.635666	0.524088	-0.489408
H151	H	0.595891	0.492723	-0.581248
C152	C	0.505592	0.601634	-0.572285
C153	C	0.563115	0.604949	-0.532762
H154	H	0.489730	0.653174	-0.579183
H155	H	0.476548	0.571744	-0.542490
H156	H	0.511484	0.577738	-0.622000
H157	H	0.557222	0.628835	-0.483044
H158	H	0.592159	0.634845	-0.562549
H159	H	0.836568	0.676669	-0.469562
H160	H	0.836705	1.078247	-0.469667
H161	H	0.836647	0.929520	-0.469625
O162	O	0.830374	0.831926	-0.477515
C163	C	0.866203	0.879248	-0.528293
H164	H	0.913926	0.891484	-0.500686
H165	H	0.873081	0.847604	-0.586470
C166	C	0.772971	0.942127	-0.576376
C167	C	0.831583	0.957161	-0.542465
H168	H	0.751615	0.990187	-0.585121
H169	H	0.748832	0.910244	-0.542168
H170	H	0.778711	0.915755	-0.624852
H171	H	0.825842	0.983524	-0.493985
H172	H	0.855720	0.989051	-0.576665
H173	H	0.836729	0.286666	-0.678185
O174	O	0.274293	0.476917	-0.477527
C175	C	0.231186	0.521280	-0.521767
H176	H	0.184349	0.489119	-0.524561
H177	H	0.224128	0.580861	-0.492925
C178	C	0.314429	0.572200	-0.601850
C179	C	0.256904	0.532696	-0.605287
H180	H	0.330293	0.579245	-0.653368
H181	H	0.343471	0.542314	-0.572043
H182	H	0.308539	0.621847	-0.577812
H183	H	0.262796	0.483046	-0.629316
H184	H	0.227863	0.562574	-0.635100
H185	H	0.550775	0.286672	-0.287623
H186	H	0.670046	0.286689	-0.287570
H187	H	0.836767	0.286601	-0.931032
H188	H	0.982743	0.468765	-0.826953
H189	H	0.982729	0.468798	-0.678221
