data_functionalizedCrystal
_audit_creation_method	'MofGen! by Chris Wilmer'
_symmetry_space_group_name_H-M	'P1'
_symmetry_Int_Tables_number	1
_symmetry_cell_setting	triclinic
loop_
_symmetry_equiv_pos_as_xyz
  x,y,z
_cell_length_a	12.759401
_cell_length_b	12.759399
_cell_length_c	12.759393
_cell_angle_alpha	89.968715
_cell_angle_beta	89.981433
_cell_angle_gamma	90.014595
loop_
_atom_site_label
_atom_site_type_symbol
_atom_site_fract_x
_atom_site_fract_y
_atom_site_fract_z
Zn1	Zn	1.606249	-0.418231	-0.593985
Zn2	Zn	2.106249	0.081769	-0.093985
Zn3	Zn	1.606141	-0.593950	-0.418306
Zn4	Zn	2.106141	-0.093950	0.081694
Zn5	Zn	1.430551	-0.418283	-0.418325
Zn6	Zn	1.930551	0.081717	0.081675
Zn7	Zn	1.430537	-0.593866	-0.593948
Zn8	Zn	1.930537	-0.093866	-0.093948
O9	O	1.518370	-0.506082	-0.506141
O10	O	2.018370	-0.006082	-0.006141
O11	O	1.753256	-0.441554	-0.570689
O12	O	2.253256	0.058446	-0.070689
O13	O	1.582809	-0.570704	-0.271288
O14	O	2.082809	-0.070704	0.228712
O15	O	1.453909	-0.271255	-0.441650
O16	O	1.953909	0.228745	0.058350
O17	O	1.753176	-0.570654	-0.441619
O18	O	2.253176	-0.070654	0.058381
O19	O	1.582994	-0.271217	-0.570707
O20	O	2.082994	0.228783	-0.070707
O21	O	1.453804	-0.441642	-0.271301
O22	O	1.953804	0.058358	0.228699
O23	O	1.283528	-0.441560	-0.441613
O24	O	1.783528	0.058440	0.058387
O25	O	1.453885	-0.570511	-0.740974
O26	O	1.953885	-0.070511	-0.240974
O27	O	1.283518	-0.570561	-0.570643
O28	O	1.783518	-0.070561	-0.070643
O29	O	1.582980	-0.441473	-0.741001
O30	O	2.082980	0.058527	-0.241001
O31	O	1.582796	-0.740960	-0.441582
O32	O	2.082796	-0.240960	0.058418
O33	O	1.453780	-0.740898	-0.570625
O34	O	1.953780	-0.240898	-0.070625
C35	C	1.518303	-0.779050	-0.506120
C36	C	2.018303	-0.279050	-0.006120
C37	C	1.518371	-0.895826	-0.506147
C38	C	2.018371	-0.395826	-0.006147
C39	C	1.245402	-0.506058	-0.506126
C40	C	1.745402	-0.006058	-0.006126
C41	C	1.128626	-0.506072	-0.506145
C42	C	1.628626	-0.006072	-0.006145
C43	C	1.451244	-1.060419	-0.573317
C44	C	1.951244	-0.560419	-0.073317
C45	C	1.451179	-0.950695	-0.573292
C46	C	1.951179	-0.450695	-0.073292
C47	C	1.585640	-0.950687	-0.439030
C48	C	2.085640	-0.450687	0.060970
C49	C	1.585709	-1.060409	-0.439061
C50	C	2.085709	-0.560409	0.060939
C51	C	1.373611	-1.060423	-0.650829
C52	C	1.873611	-0.560423	-0.150829
C53	C	1.373546	-0.950699	-0.650804
C54	C	1.873546	-0.450699	-0.150804
C55	C	1.073798	-0.438977	-0.573456
C56	C	1.573798	0.061023	-0.073456
C57	C	0.964074	-0.438997	-0.573463
C58	C	1.464074	0.061003	-0.073463
C59	C	0.964015	-0.573217	-0.438844
C60	C	1.464015	-0.073217	0.061156
C61	C	1.073737	-0.573191	-0.438833
C62	C	1.573737	-0.073191	0.061167
C63	C	1.128687	-0.371858	-0.640768
C64	C	1.628687	0.128142	-0.140768
C65	C	1.073859	-0.304758	-0.708086
C66	C	1.573859	0.195242	-0.208086
C67	C	0.964135	-0.304778	-0.708092
C68	C	1.464135	0.195222	-0.208092
C69	C	0.909239	-0.371899	-0.640781
C70	C	1.409239	0.128101	-0.140781
C71	C	1.792403	-0.506108	-0.506156
C72	C	2.292403	-0.006108	-0.006156
C73	C	1.909179	-0.506119	-0.506163
C74	C	2.409179	-0.006119	-0.006163
C75	C	1.518443	-0.505976	-0.780174
C76	C	2.018443	-0.005976	-0.280174
C77	C	1.518475	-0.505931	-0.896951
C78	C	2.018475	-0.005931	-0.396951
C79	C	1.518465	-0.232049	-0.506185
C80	C	2.018465	0.267951	-0.006185
C81	C	1.518506	-0.115272	-0.506203
C82	C	2.018506	0.384728	-0.006203
C83	C	1.585703	-0.438735	-0.951829
C84	C	2.085703	0.061265	-0.451829
C85	C	1.585728	-0.438697	-1.061553
C86	C	2.085728	0.061303	-0.561553
C87	C	1.451293	-0.573061	-1.061512
C88	C	1.951293	-0.073061	-0.561512
C89	C	1.451263	-0.573093	-0.951789
C90	C	1.951263	-0.073093	-0.451789
C91	C	1.652915	-0.371573	-0.896991
C92	C	2.152915	0.128427	-0.396991
C93	C	1.720150	-0.304372	-0.951869
C94	C	2.220150	0.195628	-0.451869
C95	C	1.720175	-0.304334	-1.061593
C96	C	2.220175	0.195666	-0.561593
C97	C	1.652965	-0.371497	-1.116439
C98	C	2.152965	0.128503	-0.616439
C99	C	1.518357	-0.506112	-0.233174
C100	C	2.018357	-0.006112	0.266826
C101	C	1.518529	-0.505861	-0.116397
C102	C	2.018529	-0.005861	0.383603
H103	H	1.640489	-1.105067	-0.384420
H104	H	2.140489	-0.605067	0.115580
H105	H	1.402625	-0.916579	-0.728118
H106	H	1.902625	-0.416579	-0.228118
F107	F	0.905587	-0.644648	-0.367214
F108	F	1.405587	-0.144648	0.132786
F109	F	1.272635	-1.105033	-0.612656
F110	F	1.772635	-0.605033	-0.112656
H111	H	1.774864	-0.249684	-0.907207
H112	H	2.274864	0.250316	-0.407207
F113	F	1.132092	-0.644609	-0.367201
F114	F	1.632092	-0.144609	0.132799
F115	F	1.379771	-0.644538	-1.119886
F116	F	1.879771	-0.144538	-0.619886
F117	F	1.267185	-0.911888	-0.622208
F118	F	1.767185	-0.411888	-0.122208
H119	H	1.218030	-0.371834	-0.640770
H120	H	1.718030	0.128166	-0.140770
F121	F	1.132285	-0.233321	-0.779711
F122	F	1.632285	0.266679	-0.279711
H123	H	0.919497	-0.250135	-0.762898
H124	H	1.419497	0.249865	-0.262898
F125	F	0.792459	-0.371907	-0.640782
F126	F	1.292459	0.128093	-0.140782
F127	F	1.652897	-0.371611	-0.780214
F128	F	2.152897	0.128389	-0.280214
H129	H	1.652978	-0.371449	-1.205784
H130	H	2.152978	0.128551	-0.705784
H131	H	1.774913	-0.249608	-1.106272
H132	H	2.274913	0.250392	-0.606272
H133	H	1.396503	-0.627794	-0.907107
H134	H	1.896503	-0.127794	-0.407107
H135	H	1.395359	-1.090112	-0.732231
H136	H	1.895359	-0.590112	-0.232231
F137	F	1.657159	-0.892289	-0.367578
F138	F	2.157159	-0.392289	0.132422
