data_functionalizedCrystal
_audit_creation_method	'MofGen! by Chris Wilmer'
_symmetry_space_group_name_H-M	'P1'
_symmetry_Int_Tables_number	1
_symmetry_cell_setting	triclinic
loop_
_symmetry_equiv_pos_as_xyz
  x,y,z
_cell_length_a	13.185407
_cell_length_b	13.339070
_cell_length_c	12.376457
_cell_angle_alpha	75.601917
_cell_angle_beta	82.592400
_cell_angle_gamma	96.198611
loop_
_atom_site_label
_atom_site_type_symbol
_atom_site_fract_x
_atom_site_fract_y
_atom_site_fract_z
O1	O	1.387192	0.266655	-0.093979
O2	O	1.098361	0.171919	-0.093985
O3	O	1.209628	0.357525	-0.093980
O4	O	1.275926	0.081049	-0.093985
O5	O	1.181810	0.311176	0.094031
O6	O	1.070544	0.125570	0.094025
O7	O	1.359375	0.220306	0.094032
Zn8	Zn	1.210542	0.165579	0.123879
Zn9	Zn	1.247193	0.226646	-0.123833
O10	O	1.248108	0.034700	0.094026
C11	C	1.046730	0.139140	0.000019
C12	C	0.934326	0.110534	0.000016
C13	C	0.562462	0.383546	0.000026
C14	C	0.668070	0.410424	0.000036
C15	C	0.734639	0.335454	0.000031
C16	C	0.695590	0.233601	0.000016
C17	C	0.589971	0.206718	0.000016
C18	C	0.762147	0.158626	0.000020
C19	C	0.723098	0.056773	0.000006
C20	C	0.617489	0.029895	0.000004
C21	C	0.550920	0.104865	0.000009
C22	C	0.867767	0.185509	0.000021
C23	C	0.895275	0.008681	0.000010
C24	C	0.789668	-0.018197	0.000000
C25	C	1.184520	0.368991	0.000024
C26	C	1.151140	0.472206	0.000019
C27	C	1.411006	0.253085	0.000025
C28	C	1.523412	0.281693	0.000020
C29	C	1.273216	0.023234	0.000020
C30	C	1.306598	-0.079979	0.000018
N31	N	1.185536	0.123905	0.292936
C32	C	1.410694	0.907662	0.000025
C33	C	1.442059	0.810686	0.000037
C34	C	1.369332	0.726062	0.000032
C35	C	1.265234	0.738422	0.000016
C36	C	1.233865	0.835405	0.000014
C37	C	1.192503	0.653805	0.000020
C38	C	1.088406	0.666165	0.000005
C39	C	1.057042	0.763140	0.000001
C40	C	1.129769	0.847764	0.000006
C41	C	1.223872	0.556822	0.000023
C42	C	1.047044	0.484565	0.000011
C43	C	1.015679	0.581541	-0.000000
N44	N	1.272205	0.268329	-0.292890
C45	C	1.330247	0.365086	0.647929
C46	C	1.347743	0.394252	0.529590
C47	C	1.307193	0.326668	0.470421
C48	C	1.249144	0.229912	0.529602
C49	C	1.231653	0.200740	0.647953
C50	C	1.208598	0.162322	0.470444
C51	C	1.150549	0.065566	0.529626
C52	C	1.133060	0.036399	0.647964
C53	C	1.173611	0.103983	0.707134
C54	C	1.226089	0.191495	0.352094
C55	C	1.127495	0.027149	0.352117
C56	C	1.109998	-0.002018	0.470456
H57	H	0.585698	-0.053043	0.000004
H58	H	1.308629	0.546769	0.000036
O59	O	1.410345	0.498606	0.465771
H60	H	1.479196	0.485855	0.411853
O61	O	0.967059	-0.072193	0.000016
H62	H	0.964717	-0.100869	-0.076607
O63	O	0.437007	0.075875	0.000014
H64	H	0.414558	0.125852	-0.076610
O65	O	1.489123	0.998930	0.000037
H66	H	1.526187	0.978750	0.076678
O67	O	1.154738	0.072530	0.834776
H68	H	1.107559	-0.006102	0.865991
O69	O	1.554329	0.797356	0.000029
H70	H	1.599634	0.872494	0.000014
H71	H	1.104237	0.926734	-0.000007
H72	H	0.899550	0.268439	0.000031
O73	O	1.373983	0.437973	0.711742
H74	H	1.352064	0.401432	0.803975
O75	O	1.047407	-0.106384	0.534287
H76	H	0.978564	-0.093643	0.588226
O77	O	0.944766	0.776475	-0.000001
H78	H	0.899463	0.701344	-0.000011
O79	O	0.903402	0.594877	0.000005
H80	H	0.896223	0.656229	-0.076620
O81	O	0.968590	0.393305	0.000002
H82	H	1.007892	0.323797	-0.000007
H83	H	1.273353	0.270273	0.303919
O84	O	1.326042	0.358127	0.342783
H85	H	1.373207	0.436766	0.311571
H86	H	0.820629	0.357344	0.000038
O87	O	0.490659	0.464390	0.000043
H88	H	0.535550	0.539730	0.000058
O89	O	1.083750	-0.045759	0.288319
H90	H	0.998239	-0.060796	0.311061
H91	H	1.085803	-0.042390	0.696150
H92	H	1.394875	0.647102	0.000041
O93	O	0.710184	0.520270	0.000058
H94	H	0.694665	0.576404	-0.076572
O95	O	0.747538	-0.128054	0.000007
H96	H	0.711405	-0.125638	-0.076617
