data_functionalizedCrystal
_audit_creation_method	'MofGen! by Chris Wilmer'
_symmetry_space_group_name_H-M	'P1'
_symmetry_Int_Tables_number	1
_symmetry_cell_setting	triclinic
loop_
_symmetry_equiv_pos_as_xyz
  x,y,z
_cell_length_a	16.956995
_cell_length_b	17.000383
_cell_length_c	15.455313
_cell_angle_alpha	92.453043
_cell_angle_beta	87.515363
_cell_angle_gamma	75.827387
loop_
_atom_site_label
_atom_site_type_symbol
_atom_site_fract_x
_atom_site_fract_y
_atom_site_fract_z
O1	O	1.059473	0.029409	-0.072190
O2	O	0.825347	0.057481	-0.072178
O3	O	0.956946	-0.073377	-0.072181
O4	O	0.927874	0.160267	-0.072187
O5	O	0.949423	-0.065923	0.072081
O6	O	0.817824	0.064936	0.072084
O7	O	1.051950	0.036863	0.072072
Cu8	Cu	0.934200	0.051580	0.085251
Cu9	Cu	0.943097	0.042765	-0.085356
O10	O	0.920351	0.167722	0.072076
C11	C	0.791777	0.062646	-0.000045
C12	C	0.702957	0.066919	-0.000041
C13	C	0.954746	-0.099406	-0.000051
C14	C	0.959389	-0.188070	-0.000054
C15	C	0.201417	0.098886	-0.000074
C16	C	0.284874	0.094864	-0.000073
C17	C	0.341253	0.019382	-0.000065
C18	C	0.314173	-0.052084	-0.000066
C19	C	0.230718	-0.048063	-0.000073
C20	C	0.592421	-0.000525	-0.000049
C21	C	0.675881	-0.004541	-0.000039
C22	C	0.646576	0.142408	-0.000048
C23	C	0.563120	0.146423	-0.000050
C24	C	0.536047	0.074957	-0.000056
N25	N	0.426560	0.015270	-0.000061
N26	N	0.450742	0.079069	-0.000065
C27	C	0.989369	-0.690260	-0.000059
C28	C	0.985000	-0.606949	-0.000054
C29	C	0.909170	-0.550966	-0.000054
C30	C	0.837704	-0.578296	-0.000051
C31	C	0.842073	-0.661605	-0.000050
C32	C	0.892292	-0.298709	-0.000050
C33	C	0.887928	-0.215396	-0.000054
C34	C	1.035225	-0.244055	-0.000055
C35	C	1.039588	-0.327365	-0.000060
C36	C	0.968122	-0.354687	-0.000052
C37	C	0.904702	-0.465809	-0.000051
C38	C	0.972590	-0.439843	-0.000049
C39	C	1.085520	0.031699	-0.000062
C40	C	1.174341	0.027425	-0.000072
C41	C	0.922551	0.193751	-0.000056
C42	C	0.917908	0.282415	-0.000059
N43	N	0.927948	0.057779	0.205246
N44	N	0.949356	0.036558	-0.205352
C45	C	0.983873	0.002204	0.250639
C46	C	0.979151	0.006899	0.341447
C47	C	0.918508	0.067174	0.386861
C48	C	0.862578	0.122752	0.341462
C49	C	0.867296	0.118053	0.250655
C50	C	0.898144	0.087437	0.658443
C51	C	0.893431	0.092134	0.749255
C52	C	1.010004	-0.023720	0.749235
C53	C	1.014720	-0.028412	0.658426
C54	C	0.958787	0.027164	0.613035
N55	N	0.913683	0.071976	0.479681
N56	N	0.963610	0.022357	0.520217
H57	H	0.155516	0.160352	-0.000074
H58	H	0.360085	-0.113544	-0.000064
F59	F	0.735884	-0.084884	-0.000032
F60	F	0.824001	-0.406221	-0.000056
H61	H	0.852602	0.132690	0.621492
H62	H	1.101337	-0.372942	-0.000056
H63	H	1.024689	-0.038355	0.378405
F64	F	0.756999	-0.518712	-0.000047
H65	H	1.034330	-0.485428	-0.000044
F66	F	1.048421	-0.061946	0.202315
H67	H	1.064101	-0.077492	0.621452
H68	H	0.821756	0.163307	0.213697
H69	H	0.208675	-0.106254	-0.000074
H70	H	1.055542	-0.068968	0.786200
H71	H	1.051119	-0.735838	-0.000066
F72	F	0.828883	0.156292	0.797582
F73	F	0.798033	0.186898	0.389795
H74	H	0.306914	0.153055	-0.000082
H75	H	0.517220	0.207889	-0.000059
F76	F	1.061060	-0.577873	-0.000071
H77	H	0.668628	0.200592	-0.000044
F78	F	1.111279	-0.214969	-0.000061
F79	F	0.807216	-0.155814	-0.000051
F80	F	0.816231	-0.327778	-0.000049
F81	F	0.766015	-0.690685	-0.000045
F82	F	0.563620	-0.076587	-0.000072
