data_functionalizedCrystal
_audit_creation_method	'MofGen! by Chris Wilmer'
_symmetry_space_group_name_H-M	'P1'
_symmetry_Int_Tables_number	1
_symmetry_cell_setting	triclinic
loop_
_symmetry_equiv_pos_as_xyz
  x,y,z
_cell_length_a	12.759401
_cell_length_b	19.805405
_cell_length_c	12.759393
_cell_angle_alpha	89.963446
_cell_angle_beta	89.980324
_cell_angle_gamma	90.026837
loop_
_atom_site_label
_atom_site_type_symbol
_atom_site_fract_x
_atom_site_fract_y
_atom_site_fract_z
Zn1	Zn	1.606181	-0.269423	-0.593940
Zn2	Zn	1.606036	-0.382625	-0.418242
Zn3	Zn	1.430480	-0.269457	-0.418280
Zn4	Zn	1.430436	-0.382576	-0.593883
O5	O	1.518283	-0.326020	-0.506086
O6	O	1.753183	-0.284446	-0.570642
O7	O	1.582706	-0.367648	-0.271226
O8	O	1.453866	-0.174736	-0.441621
O9	O	1.753076	-0.367615	-0.441557
O10	O	1.582953	-0.174711	-0.570678
O11	O	1.453725	-0.284504	-0.271253
O12	O	1.283453	-0.284456	-0.441565
O13	O	1.453791	-0.367531	-0.740912
O14	O	1.283420	-0.367564	-0.570581
O15	O	1.582910	-0.284398	-0.740954
O16	O	1.582663	-0.477335	-0.441501
O17	O	1.453650	-0.477299	-0.570544
C18	C	1.245316	-0.326009	-0.506071
C19	C	1.128539	-0.326020	-0.506090
C20	C	1.073733	-0.282792	-0.573408
C21	C	0.964009	-0.282799	-0.573415
C22	C	0.963907	-0.369268	-0.438783
C23	C	1.073629	-0.369257	-0.438771
C24	C	1.518165	-0.501876	-0.506035
C25	C	1.518210	-0.577108	-0.506049
C26	C	1.585453	-0.612449	-0.438927
C27	C	1.585497	-0.683137	-0.438950
C28	C	1.518293	-0.718484	-0.506091
C29	C	1.451048	-0.683138	-0.573220
C30	C	1.451010	-0.612451	-0.573202
C31	C	1.451203	-0.968211	-0.573298
C32	C	1.451245	-1.038904	-0.573310
C33	C	1.585691	-1.038898	-0.439046
C34	C	1.585652	-0.968210	-0.439028
C35	C	1.518411	-0.932871	-0.506161
C36	C	1.518365	-0.856223	-0.506136
C37	C	1.518334	-0.795131	-0.506111
C38	C	1.792316	-0.326032	-0.506102
C39	C	1.909093	-0.326038	-0.506108
C40	C	1.518430	-0.149477	-0.506160
C41	C	1.518493	-0.074245	-0.506192
C42	C	1.518362	-0.325955	-0.780120
C43	C	1.518395	-0.325928	-0.896896
C44	C	1.585633	-0.282633	-0.951782
C45	C	1.585650	-0.282604	-1.061506
C46	C	1.451190	-0.369169	-1.061450
C47	C	1.451168	-0.369195	-0.951727
C48	C	1.518265	-0.326036	-0.233119
C49	C	1.518435	-0.325873	-0.116343
H50	H	1.640173	-0.583674	-0.384248
H51	H	1.118253	-0.404459	-0.383947
H52	H	0.919391	-0.247597	-0.628231
H53	H	1.640446	-1.067679	-0.384387
H54	H	1.396408	-0.404450	-0.907038
H55	H	1.640252	-0.711908	-0.384291
H56	H	1.640372	-0.939433	-0.384352
H57	H	1.396521	-1.067681	-0.627992
H58	H	1.396459	-0.404397	-1.106106
H59	H	1.640400	-0.247348	-1.106189
H60	H	1.640370	-0.247400	-0.907142
H61	H	1.396451	-0.939444	-0.627958
H62	H	1.396334	-0.711923	-0.627892
H63	H	0.919185	-0.404470	-0.383975
H64	H	1.396256	-0.583677	-0.627861
H65	H	1.118438	-0.247583	-0.628220
