data_functionalizedCrystal
_audit_creation_method	'MofGen! by Chris Wilmer'
_symmetry_space_group_name_H-M	'P1'
_symmetry_Int_Tables_number	1
_symmetry_cell_setting	triclinic
loop_
_symmetry_equiv_pos_as_xyz
  x,y,z
_cell_length_a	12.759395
_cell_length_b	13.897441
_cell_length_c	12.759394
_cell_angle_alpha	89.972147
_cell_angle_beta	90.015393
_cell_angle_gamma	89.980499
loop_
_atom_site_label
_atom_site_type_symbol
_atom_site_fract_x
_atom_site_fract_y
_atom_site_fract_z
Zn1	Zn	1.606264	-0.545368	-0.418190
Zn2	Zn	1.606161	-0.384077	-0.593900
Zn3	Zn	1.430566	-0.384090	-0.418241
Zn4	Zn	1.430558	-0.545333	-0.593832
O5	O	1.518387	-0.464717	-0.506041
O6	O	1.753272	-0.523982	-0.441506
O7	O	1.582828	-0.249097	-0.570649
O8	O	1.453919	-0.405504	-0.271213
O9	O	1.753196	-0.405482	-0.570599
O10	O	1.583004	-0.523994	-0.271176
O11	O	1.453819	-0.249106	-0.441592
O12	O	1.283544	-0.405470	-0.441526
O13	O	1.453905	-0.680319	-0.570483
O14	O	1.283538	-0.523935	-0.570532
O15	O	1.582996	-0.680345	-0.441439
O16	O	1.582820	-0.405448	-0.740912
O17	O	1.453805	-0.523922	-0.740862
C18	C	1.245420	-0.464700	-0.506028
C19	C	1.128643	-0.464716	-0.506048
C20	C	1.128675	-0.587874	-0.640599
C21	C	1.073831	-0.649456	-0.707883
C22	C	0.964109	-0.649467	-0.707896
C23	C	0.909230	-0.587893	-0.640615
C24	C	0.964074	-0.526311	-0.573331
C25	C	1.073798	-0.526304	-0.573328
C26	C	0.964042	-0.403160	-0.438776
C27	C	1.073763	-0.403142	-0.438767
C28	C	0.909162	-0.341585	-0.371495
C29	C	0.964007	-0.279997	-0.304215
C30	C	1.073735	-0.279987	-0.304206
C31	C	1.128608	-0.341560	-0.371483
C32	C	1.518462	-0.716310	-0.505948
C33	C	1.518493	-0.823524	-0.505908
C34	C	1.518522	-1.019819	-0.505837
C35	C	1.518503	-0.910587	-0.505880
C36	C	1.792420	-0.464734	-0.506054
C37	C	1.909197	-0.464742	-0.506060
C38	C	1.518329	-0.464701	-0.779008
C39	C	1.518400	-0.464726	-0.895785
C40	C	1.518373	-0.214103	-0.506058
C41	C	1.518545	-0.106889	-0.505801
C42	C	1.652716	-0.588203	-0.895588
C43	C	1.719906	-0.649949	-0.950350
C44	C	1.719969	-0.649969	-1.060072
C45	C	1.652831	-0.588240	-1.115034
C46	C	1.585640	-0.526495	-1.060271
C47	C	1.585587	-0.526478	-0.950547
C48	C	1.451321	-0.403024	-1.060468
C49	C	1.451262	-0.402997	-0.950747
C50	C	1.384183	-0.341295	-1.115430
C51	C	1.316995	-0.279543	-1.060668
C52	C	1.316937	-0.279524	-0.950940
C53	C	1.384071	-0.341252	-0.895985
C54	C	1.518474	-0.464754	-0.232007
C55	C	1.518511	-0.464770	-0.115231
H56	H	1.218016	-0.587863	-0.640604
C57	C	0.903633	-0.212276	-0.230212
N58	N	0.858155	-0.161265	-0.174473
H59	H	1.262217	-0.229247	-0.906358
C60	C	1.652908	-0.588263	-1.235730
N61	N	1.652970	-0.588275	-1.326641
C62	C	1.249305	-0.341549	-0.371486
N63	N	1.340215	-0.341543	-0.371491
C64	C	1.134056	-0.212241	-0.230186
N65	N	1.179485	-0.161212	-0.174434
C66	C	1.384011	-0.341238	-0.775288
N67	N	1.383965	-0.341234	-0.684377
H68	H	1.774671	-0.700258	-1.104659
H69	H	1.118526	-0.699590	-0.762660
H70	H	1.774568	-0.700210	-0.905591
C71	C	1.652660	-0.588179	-0.774891
N72	N	1.652620	-0.588164	-0.683981
H73	H	0.919455	-0.699618	-0.762679
H74	H	0.819888	-0.587916	-0.640623
H75	H	0.819821	-0.341603	-0.371506
H76	H	1.384234	-0.341320	-1.204771
H77	H	1.262332	-0.229293	-1.105427
