data_functionalizedCrystal
_audit_creation_method	'MofGen! by Chris Wilmer'
_symmetry_space_group_name_H-M	'P1'
_symmetry_Int_Tables_number	1
_symmetry_cell_setting	triclinic
loop_
_symmetry_equiv_pos_as_xyz
  x,y,z
_cell_length_a	23.096457
_cell_length_b	23.096457
_cell_length_c	23.096457
_cell_angle_alpha	60.007119
_cell_angle_beta	90.011518
_cell_angle_gamma	60.004020
loop_
_atom_site_label
_atom_site_type_symbol
_atom_site_fract_x
_atom_site_fract_y
_atom_site_fract_z
Zr1	Zr	0.557810	0.633718	-0.075980
O2	O	0.465352	0.754500	-0.168422
O3	O	0.586145	0.512937	-0.047644
O4	O	0.586129	0.633720	-0.168431
O5	O	0.465391	0.633715	0.047646
O6	O	0.681409	0.633722	-0.168434
O7	O	0.465368	0.633716	-0.047636
O8	O	0.681439	0.417662	0.047631
O9	O	0.465361	0.849775	-0.168419
O10	O	0.669347	0.562617	-0.035559
O11	O	0.598257	0.562615	0.035552
O12	O	0.598237	0.704822	-0.106659
O13	O	0.527148	0.704820	-0.035548
Zr14	Zr	0.709808	0.633718	0.075978
Zr15	Zr	0.709771	0.633721	-0.075985
Zr16	Zr	0.557846	0.633716	0.075984
Zr17	Zr	0.557825	0.785670	-0.075975
Zr18	Zr	0.709792	0.481766	0.075973
O19	O	0.681472	0.754500	0.047643
O20	O	0.681421	0.754504	-0.168430
O21	O	0.465403	0.754496	0.047651
O22	O	0.802266	0.512937	0.168421
O23	O	0.802214	0.512940	-0.047652
O24	O	0.586197	0.512933	0.168429
O25	O	0.802227	0.633722	-0.047648
O26	O	0.681489	0.633716	0.168429
O27	O	0.586209	0.633715	0.168433
O28	O	0.802249	0.633720	0.047634
O29	O	0.586150	0.849777	-0.168423
O30	O	0.681467	0.417660	0.168422
O31	O	0.802256	0.417662	0.168417
O32	O	0.802228	0.417664	0.047626
O33	O	0.465390	0.849773	-0.047628
O34	O	0.586179	0.849775	-0.047632
O35	O	0.669380	0.562615	0.106657
O36	O	0.740470	0.562617	0.035547
O37	O	0.669361	0.704822	-0.035554
O38	O	0.598271	0.704820	0.035557
C39	C	0.633790	0.443649	-0.000008
C40	C	0.633783	0.379142	-0.000010
C41	C	0.686287	0.296356	0.052475
C42	C	0.686292	0.235734	0.052482
C43	C	0.633798	0.257903	-0.000007
C44	C	0.581285	0.340703	-0.052497
C45	C	0.581278	0.401322	-0.052498
N46	N	0.617905	0.201794	-0.062253
N47	N	0.617917	0.144205	-0.062250
C48	C	0.633817	0.075264	-0.000006
N49	N	0.649719	0.066080	0.062237
N50	N	0.649711	0.123673	0.062233
C51	C	0.633800	0.192178	-0.000012
C52	C	0.686329	-0.073258	0.052490
C53	C	0.686329	-0.133879	0.052497
C54	C	0.581325	-0.028908	-0.052487
C55	C	0.581322	0.031710	-0.052489
C56	C	0.633828	0.009530	-0.000000
C57	C	0.443729	0.633715	0.000006
C58	C	0.379217	0.633714	0.000009
C59	C	0.386030	0.559487	0.037115
C60	C	0.325414	0.559486	0.037118
C61	C	0.257986	0.633716	0.000001
C62	C	0.251176	0.707953	-0.037108
C63	C	0.311792	0.707952	-0.037104
N64	N	0.135182	0.688970	-0.060408
N65	N	0.077602	0.688966	-0.060411
C66	C	0.075354	0.633723	-0.000012
N67	N	0.132866	0.578472	0.060389
N68	N	0.190452	0.578474	0.060390
C69	C	0.192255	0.633725	-0.000007
C70	C	0.016443	0.559490	0.037102
C71	C	-0.044175	0.559491	0.037107
C72	C	-0.118413	0.707961	-0.037126
C73	C	-0.057795	0.707957	-0.037124
C74	C	0.009630	0.633719	-0.000012
C75	C	0.823889	0.633721	-0.000008
C76	C	0.888401	0.633723	-0.000010
C77	C	0.633764	0.633721	-0.190084
C78	C	0.633748	0.633723	-0.254597
C79	C	0.633828	0.823787	0.000006
C80	C	0.633834	0.888295	0.000008
C81	C	0.596634	0.707950	-0.322014
C82	C	0.596652	0.707951	-0.382631
C83	C	0.633775	0.633721	-0.375826
C84	C	0.670898	0.559484	-0.308396
C85	C	0.670885	0.559485	-0.247782
N86	N	0.628647	0.578466	-0.443383
N87	N	0.628656	0.578471	-0.500967
C88	C	0.633818	0.633713	-0.558451
N89	N	0.638958	0.688964	-0.556183
N90	N	0.638946	0.688962	-0.498595
C91	C	0.633794	0.633711	-0.441548
C92	C	0.596722	0.707947	-0.691598
C93	C	0.596745	0.707945	-0.752214
C94	C	0.670986	0.559476	-0.677978
C95	C	0.670968	0.559480	-0.617364
C96	C	0.633832	0.633718	-0.624179
C97	C	0.633854	0.633715	0.190083
C98	C	0.633869	0.633714	0.254595
C99	C	0.823870	0.443652	-0.000014
C100	C	0.888375	0.379146	-0.000019
C101	C	0.633835	0.443646	0.190076
C102	C	0.633844	0.379137	0.254586
C103	C	0.823915	0.443649	0.190069
C104	C	0.888436	0.379142	0.254577
C105	C	0.443702	0.823787	-0.190071
C106	C	0.379182	0.888295	-0.254579
C107	C	0.443748	0.823784	0.000013
C108	C	0.379243	0.888291	0.000018
C109	C	0.633783	0.823790	-0.190078
C110	C	0.633774	0.888299	-0.254588
C111	C	0.881542	0.348853	-0.037144
C112	C	0.942145	0.288250	-0.037162
C113	C	1.009581	0.257938	-0.000052
C114	C	1.016414	0.288237	0.037074
C115	C	0.955811	0.348842	0.037088
C116	C	0.670974	0.348843	0.322004
C117	C	0.670979	0.288239	0.382624
C118	C	0.633859	0.257926	0.375825
C119	C	0.596724	0.288225	0.308401
C120	C	0.596715	0.348833	0.247782
C121	C	0.955850	0.348849	0.247752
C122	C	1.016479	0.288246	0.308358
C123	C	1.009693	0.257932	0.375789
C124	C	0.942272	0.288230	0.382613
C125	C	0.881644	0.348836	0.322007
C126	C	0.311768	0.918595	-0.247753
C127	C	0.251139	0.979217	-0.308360
C128	C	0.257925	1.009534	-0.375790
C129	C	0.325346	0.979232	-0.382614
C130	C	0.385974	0.918615	-0.322009
C131	C	0.386076	0.918590	0.037136
C132	C	0.325473	0.979209	0.037138
C133	C	0.258036	1.009524	0.000025
C134	C	0.251204	0.979222	-0.037098
C135	C	0.311807	0.918608	-0.037104
C136	C	0.670902	0.918593	-0.247766
C137	C	0.670907	0.979198	-0.308375
C138	C	0.633780	1.009512	-0.375804
C139	C	0.596651	0.979212	-0.382624
C140	C	0.596651	0.918604	-0.322017
H141	H	0.729079	-0.091319	0.095233
O142	O	0.451632	0.889038	0.073176
C143	C	0.503667	0.829055	0.065204
H144	H	0.480044	0.802538	0.051544
H145	H	0.522617	0.858050	0.020760
C146	C	0.595835	0.792752	0.151763
C147	C	0.566822	0.760179	0.134991
H148	H	0.634794	0.750268	0.194809
H149	H	0.560779	0.833166	0.157132
H150	H	0.611621	0.816915	0.114721
H151	H	0.551029	0.736026	0.172028
H152	H	0.601877	0.719759	0.129630
H153	H	0.701202	0.373518	0.327553
O154	O	0.706911	0.889086	-0.182217
C155	C	0.698972	0.829078	-0.130175
H156	H	0.648832	0.839034	-0.153791
H157	H	0.746924	0.765682	-0.111222
C158	C	0.754840	0.823489	-0.038025
C159	C	0.693254	0.835722	-0.067028
H160	H	0.751316	0.827584	0.000929
H161	H	0.760191	0.863915	-0.073086
H162	H	0.794794	0.770659	-0.022236
H163	H	0.653303	0.888554	-0.082824
H164	H	0.687896	0.795304	-0.031968
H165	H	0.208551	1.058892	-0.425134
O166	O	1.081979	0.258907	0.301750
C167	C	1.119274	0.273718	0.334586
H168	H	1.079948	0.326829	0.337397
H169	H	1.155269	0.216507	0.390489
C170	C	1.212813	0.230203	0.287687
C171	C	1.164512	0.295439	0.291135
H172	H	1.240721	0.243598	0.260887
H173	H	1.187688	0.220221	0.265567
H174	H	1.242802	0.182533	0.334276
H175	H	1.134518	0.343104	0.244548
H176	H	1.189633	0.305429	0.313246
H177	H	0.701141	1.003862	-0.302808
H178	H	0.633787	1.058863	-0.425149
O179	O	0.332245	1.008516	0.073269
C180	C	0.404763	0.968763	0.106015
H181	H	0.437070	0.907332	0.113353
H182	H	0.422630	1.008502	0.071236
C183	C	0.376521	1.030091	0.169841
C184	C	0.416200	0.954637	0.178859
H185	H	0.383577	1.021380	0.214774
H186	H	0.327664	1.056876	0.147778
H187	H	0.391414	1.063199	0.140857
H188	H	0.401300	0.921534	0.207836
H189	H	0.465055	0.927846	0.200929
H190	H	0.306233	0.893940	-0.067328
H191	H	0.208695	1.058879	0.000035
O192	O	0.935813	0.258659	0.448170
C193	C	1.003785	0.198683	0.500191
H194	H	1.043946	0.172197	0.476549
H195	H	1.019235	0.227677	0.519154
C196	C	0.953590	0.162312	0.592371
C197	C	1.002915	0.129776	0.563335
H198	H	0.953054	0.119809	0.631323
H199	H	0.907795	0.202721	0.557325
H200	H	0.966471	0.186473	0.608168
H201	H	0.990029	0.105626	0.547530
H202	H	1.048708	0.089361	0.598380
H203	H	-0.063346	0.768401	-0.067346
H204	H	0.701221	0.263576	0.437518
H205	H	0.633872	0.208575	0.425190
O206	O	0.560595	1.008782	-0.448180
C207	C	0.568575	1.068760	-0.500203
H208	H	0.582263	1.095247	-0.476563
H209	H	0.613004	1.039768	-0.519170
C210	C	0.481972	1.105129	-0.592378
C211	C	0.498778	1.137666	-0.563345
H212	H	0.438920	1.147632	-0.631329
H213	H	0.476597	1.064719	-0.557330
H214	H	0.519002	1.080970	-0.608178
H215	H	0.461753	1.161815	-0.547537
H216	H	0.504144	1.178082	-0.598392
H217	H	0.961388	0.373522	0.192851
H218	H	0.566414	0.893945	-0.327581
H219	H	0.538520	0.468733	-0.095237
O220	O	0.815985	0.378359	-0.073137
C221	C	0.763950	0.438365	-0.065188
H222	H	0.787579	0.428407	-0.015053
H223	H	0.744988	0.501762	-0.113140
C224	C	0.671787	0.443952	-0.121032
C225	C	0.700806	0.431718	-0.059451
H226	H	0.632835	0.439856	-0.117496
H227	H	0.706843	0.403527	-0.126390
H228	H	0.655991	0.496783	-0.160985
H229	H	0.716610	0.378885	-0.019501
H230	H	0.665751	0.472134	-0.054086
H231	H	0.936568	0.263588	-0.067395
H232	H	0.196289	1.003913	-0.067314
O233	O	0.560743	0.258646	0.301929
C234	C	0.568714	0.198664	0.369894
H235	H	0.618843	0.172188	0.410061
H236	H	0.520758	0.227649	0.385337
C237	C	0.512916	0.162274	0.319681
C238	C	0.574489	0.129750	0.369014
H239	H	0.516475	0.119766	0.319138
H240	H	0.507543	0.202687	0.273891
H241	H	0.472959	0.186428	0.332556
H242	H	0.614444	0.105607	0.356133
H243	H	0.579869	0.089331	0.414801
H244	H	0.566484	0.768396	-0.697148
H245	H	0.306229	0.893913	-0.192853
H246	H	0.566482	0.373490	0.192890
O247	O	0.816212	0.378137	0.328769
C248	C	0.823234	0.338391	0.401283
H249	H	0.877333	0.276966	0.433594
H250	H	0.818271	0.378141	0.419145
C251	C	0.698081	0.399699	0.373033
C252	C	0.764525	0.324252	0.412717
H253	H	0.661866	0.390980	0.380087
H254	H	0.693350	0.426479	0.324179
H255	H	0.693956	0.432816	0.387922
H256	H	0.768653	0.291140	0.397822
H257	H	0.769256	0.297466	0.461570
O258	O	0.185705	1.008524	-0.301595
C259	C	0.192724	0.968768	-0.229082
H260	H	0.246819	0.907336	-0.196775
H261	H	0.187772	1.008505	-0.211207
C262	C	0.067568	1.030100	-0.257339
C263	C	0.134006	0.954645	-0.217659
H264	H	0.031346	1.021391	-0.250293
H265	H	0.062838	1.056887	-0.306193
H266	H	0.063451	1.063206	-0.242439
H267	H	0.138125	0.921545	-0.232566
H268	H	0.138735	0.927852	-0.168807
H269	H	1.071328	0.263548	0.067288
O270	O	0.737319	0.274669	0.103534
C271	C	0.783672	0.188596	0.149850
H272	H	0.755398	0.160769	0.147354
H273	H	0.832474	0.166021	0.133319
C274	C	0.841304	0.196837	0.229214
C275	C	0.806575	0.162660	0.226152
H276	H	0.855434	0.180838	0.276280
H277	H	0.810077	0.254827	0.198009
H278	H	0.881968	0.178022	0.215434
H279	H	0.765907	0.181484	0.239923
H280	H	0.837795	0.104672	0.257362
H281	H	0.440927	0.499036	0.067331
O282	O	0.737211	0.155295	0.103523
C283	C	0.705103	0.117072	0.141922
H284	H	0.650668	0.165113	0.136795
H285	H	0.698968	0.085241	0.119840
C286	C	0.818705	-0.005580	0.226918
C287	C	0.751850	0.053424	0.220626
H288	H	0.847542	-0.044844	0.275466
H289	H	0.840337	0.020170	0.201047
H290	H	0.813583	-0.032097	0.208512
H291	H	0.756972	0.079947	0.239023
H292	H	0.730220	0.027677	0.246502
O293	O	0.331805	1.008746	-0.448172
C294	C	0.263832	1.068755	-0.500192
H295	H	0.223668	1.058796	-0.476552
H296	H	0.248394	1.132151	-0.519151
C297	C	0.314024	1.074353	-0.592374
C298	C	0.264694	1.062117	-0.563341
H299	H	0.314555	1.070262	-0.631329
H300	H	0.359819	1.033927	-0.557328
H301	H	0.301152	1.127183	-0.608167
H302	H	0.277571	1.009285	-0.547540
H303	H	0.218901	1.102535	-0.598386
H304	H	0.440863	0.893946	-0.327575
H305	H	0.538544	0.358749	-0.095234
H306	H	1.058922	0.208588	-0.000068
H307	H	1.059066	0.208582	0.425132
O308	O	0.737405	-0.214263	0.103518
C309	C	0.783732	-0.220834	0.149851
H310	H	0.781222	-0.162233	0.121568
H311	H	0.767222	-0.230534	0.198663
C312	C	0.863116	-0.366044	0.207468
C313	C	0.860037	-0.294071	0.172728
H314	H	0.910184	-0.411222	0.221583
H315	H	0.831903	-0.361618	0.176255
H316	H	0.849353	-0.374116	0.248141
H317	H	0.873791	-0.285995	0.132052
H318	H	0.891254	-0.298497	0.203935
H319	H	0.538572	0.099120	-0.095231
O320	O	0.530255	-0.007419	-0.103359
C321	C	0.491862	-0.039325	-0.071173
H322	H	0.525745	-0.094019	-0.013866
H323	H	0.441321	0.009915	-0.072300
C324	C	0.430809	0.000367	-0.182292
C325	C	0.472428	-0.066814	-0.111908
H326	H	0.418818	-0.016586	-0.207420
H327	H	0.456673	0.021866	-0.203977
H328	H	0.388697	0.041394	-0.183221
H329	H	0.514543	-0.107835	-0.110980
H330	H	0.446570	-0.088320	-0.090223
H331	H	0.330962	0.499039	0.067336
O332	O	0.185696	0.780083	-0.073077
C333	C	0.177936	0.825253	-0.045795
H334	H	0.216318	0.781820	0.010783
H335	H	0.189979	0.871536	-0.080209
C336	C	0.054205	0.924091	-0.115427
C337	C	0.101342	0.870745	-0.045934
H338	H	0.006957	0.952155	-0.115515
H339	H	0.059432	0.893661	-0.133809
H340	H	0.064249	0.962652	-0.144097
H341	H	0.091303	0.832179	-0.017267
H342	H	0.096110	0.901169	-0.027546
O343	O	0.081927	0.487359	0.073272
C344	C	0.089698	0.442195	0.145722
H345	H	0.051321	0.485631	0.158860
H346	H	0.077659	0.395906	0.157591
C347	C	0.213428	0.343363	0.174943
C348	C	0.166296	0.396713	0.191081
H349	H	0.260678	0.315304	0.202924
H350	H	0.208193	0.373789	0.126132
H351	H	0.203387	0.304796	0.184835
H352	H	0.176333	0.435284	0.181181
H353	H	0.171535	0.366293	0.239892
O354	O	-0.037684	0.487456	0.073146
C355	C	-0.105642	0.503373	0.065176
H356	H	-0.145816	0.567167	0.051514
H357	H	-0.121097	0.499859	0.020735
C358	C	-0.055388	0.360976	0.151740
C359	C	-0.104729	0.439328	0.134965
H360	H	-0.054825	0.321469	0.194787
H361	H	-0.009603	0.350252	0.157108
H362	H	-0.068273	0.358060	0.114700
H363	H	-0.091839	0.442246	0.172001
H364	H	-0.150512	0.450051	0.129605
O365	O	0.305301	0.779987	-0.073091
C366	C	0.373260	0.764067	-0.065146
H367	H	0.413442	0.700269	-0.015019
H368	H	0.388692	0.767589	-0.113105
C369	C	0.323017	0.906460	-0.120963
C370	C	0.372369	0.828105	-0.059392
H371	H	0.322468	0.945963	-0.117417
H372	H	0.277232	0.917187	-0.126318
H373	H	0.335883	0.909383	-0.160923
H374	H	0.359498	0.825180	-0.019435
H375	H	0.418152	0.817380	-0.054030
O376	O	0.560557	0.780135	-0.328760
C377	C	0.527788	0.845651	-0.401268
H378	H	0.556909	0.823887	-0.433587
H379	H	0.470177	0.868475	-0.419144
C380	C	0.494711	0.942518	-0.372973
C381	C	0.530482	0.915788	-0.412667
H382	H	0.496369	0.985783	-0.380004
H383	H	0.516785	0.898379	-0.324122
H384	H	0.446705	0.961532	-0.387873
H385	H	0.578488	0.896765	-0.397759
H386	H	0.508416	0.959925	-0.461515
O387	O	-0.183853	0.780143	-0.073192
C388	C	-0.176864	0.845660	-0.105962
H389	H	-0.122770	0.823896	-0.076850
H390	H	-0.181841	0.868488	-0.163574
C391	C	-0.302021	0.942523	-0.139017
C392	C	-0.235583	0.915793	-0.103257
H393	H	-0.338243	0.985786	-0.137352
H394	H	-0.306730	0.898383	-0.116942
H395	H	-0.306159	0.961540	-0.187024
H396	H	-0.231443	0.896767	-0.055250
H397	H	-0.230875	0.959931	-0.125324
H398	H	0.566427	0.768398	-0.437532
H399	H	0.701125	0.499045	-0.302859
H400	H	0.961385	0.373499	0.067324
H401	H	0.566524	0.768392	-0.807110
O402	O	0.706947	0.487303	-0.182341
C403	C	0.739736	0.421783	-0.189328
H404	H	0.710637	0.443541	-0.243425
H405	H	0.797350	0.398959	-0.184340
C406	C	0.772777	0.324925	-0.064178
C407	C	0.737032	0.351648	-0.130619
H408	H	0.771112	0.281661	-0.027963
H409	H	0.750689	0.369067	-0.059470
H410	H	0.820785	0.305911	-0.060032
H411	H	0.689023	0.370671	-0.134768
H412	H	0.759112	0.307507	-0.135326
H413	H	0.701187	0.499036	-0.562468
O414	O	0.706987	0.487440	-0.671486
C415	C	0.698990	0.503355	-0.739442
H416	H	0.648832	0.567135	-0.779601
H417	H	0.746916	0.499877	-0.754931
C418	C	0.754875	0.360946	-0.689181
C419	C	0.693266	0.439279	-0.738503
H420	H	0.751347	0.321419	-0.688602
H421	H	0.760265	0.350223	-0.643397
H422	H	0.794807	0.358059	-0.702094
H423	H	0.653336	0.442168	-0.725585
H424	H	0.687869	0.450001	-0.784285
