data_functionalizedCrystal
_audit_creation_method	'MofGen! by Chris Wilmer'
_symmetry_space_group_name_H-M	'P1'
_symmetry_Int_Tables_number	1
_symmetry_cell_setting	triclinic
loop_
_symmetry_equiv_pos_as_xyz
  x,y,z
_cell_length_a	25.639242
_cell_length_b	25.639239
_cell_length_c	14.908294
_cell_angle_alpha	93.262372
_cell_angle_beta	93.277868
_cell_angle_gamma	90.030990
loop_
_atom_site_label
_atom_site_type_symbol
_atom_site_fract_x
_atom_site_fract_y
_atom_site_fract_z
Zn1	Zn	0.782183	-0.225307	-0.510092
Zn2	Zn	0.787147	-0.307702	-0.359229
Zn3	Zn	0.699799	-0.220271	-0.359249
Zn4	Zn	0.694706	-0.312699	-0.510034
O5	O	0.740958	-0.266495	-0.434651
O6	O	0.856006	-0.236253	-0.490096
O7	O	0.779768	-0.291906	-0.232991
O8	O	0.710781	-0.147775	-0.379291
O9	O	0.859653	-0.296788	-0.379257
O10	O	0.771308	-0.151475	-0.490115
O11	O	0.715594	-0.227671	-0.233005
O12	O	0.625958	-0.232516	-0.379235
O13	O	0.702101	-0.305305	-0.636283
O14	O	0.622217	-0.300423	-0.490016
O15	O	0.766370	-0.241098	-0.636326
O16	O	0.774830	-0.381529	-0.379201
O17	O	0.706915	-0.385201	-0.489996
C18	C	0.605117	-0.266466	-0.434622
C19	C	0.547003	-0.266466	-0.434631
C20	C	0.293914	-0.235037	-0.492470
C21	C	0.348518	-0.235032	-0.492465
O22	O	0.375144	-0.208286	-0.541635
N23	N	0.377728	-0.266489	-0.434661
C24	C	0.352329	-0.297958	-0.376866
O25	O	0.382188	-0.324715	-0.327699
C26	C	0.297726	-0.297966	-0.376876
C27	C	0.268519	-0.266502	-0.434677
C28	C	0.264708	-0.203576	-0.550267
C29	C	0.210107	-0.203581	-0.550271
C30	C	0.184713	-0.235046	-0.492477
C31	C	0.213919	-0.266507	-0.434681
C32	C	0.272328	-0.329437	-0.319085
C33	C	0.217721	-0.329442	-0.319101
C34	C	0.188515	-0.297979	-0.376902
C35	C	0.133924	-0.297977	-0.376891
N36	N	0.104714	-0.266519	-0.434695
C37	C	0.130109	-0.235054	-0.492488
C38	C	0.467001	-0.297940	-0.376849
C39	C	0.521603	-0.297930	-0.376834
C40	C	0.517789	-0.235004	-0.492435
C41	C	0.463185	-0.235012	-0.492445
C42	C	0.437791	-0.266483	-0.434653
C43	C	0.015444	-0.235066	-0.492491
C44	C	-0.039161	-0.235072	-0.492487
C45	C	-0.035342	-0.298000	-0.376890
C46	C	0.019259	-0.297992	-0.376890
C47	C	0.044650	-0.266524	-0.434698
O48	O	0.107263	-0.324710	-0.327748
O49	O	0.100244	-0.208307	-0.541654
C50	C	0.740872	-0.402336	-0.434610
C51	C	0.740882	-0.460451	-0.434622
C52	C	0.776406	-0.818894	-0.377058
C53	C	0.776426	-0.873498	-0.377070
O54	O	0.806540	-0.900101	-0.328081
N55	N	0.741048	-0.902736	-0.434711
C56	C	0.705652	-0.877366	-0.492350
O57	O	0.675563	-0.907249	-0.541380
C58	C	0.705635	-0.822763	-0.492342
C59	C	0.741012	-0.793528	-0.434691
C60	C	0.811780	-0.789658	-0.319412
C61	C	0.811759	-0.735058	-0.319399
C62	C	0.776365	-0.709692	-0.377032
C63	C	0.740991	-0.738927	-0.434678
C64	C	0.670242	-0.797394	-0.549984
C65	C	0.670228	-0.742787	-0.549972
C66	C	0.705605	-0.713552	-0.492321
C67	C	0.705576	-0.658960	-0.492297
N68	N	0.740953	-0.629722	-0.434656
C69	C	0.776348	-0.655088	-0.377024
C70	C	0.705691	-0.992037	-0.492364
C71	C	0.705705	-1.046640	-0.492368
C72	C	0.776480	-1.042768	-0.377089
C73	C	0.776463	-0.988164	-0.377081
C74	C	0.741069	-0.962800	-0.434723
C75	C	0.776301	-0.540422	-0.377000
C76	C	0.776276	-0.485816	-0.376990
C77	C	0.705504	-0.489693	-0.492271
C78	C	0.705527	-0.544294	-0.492279
C79	C	0.740930	-0.569657	-0.434640
O80	O	0.675478	-0.632322	-0.541263
O81	O	0.806437	-0.625199	-0.328011
C82	C	0.877330	-0.266525	-0.434681
C83	C	0.935444	-0.266537	-0.434694
C84	C	0.733114	-0.274321	-0.669952
C85	C	0.729771	-0.277656	-0.770224
C86	C	0.741059	-0.130124	-0.434712
C87	C	0.741102	-0.072011	-0.434738
C88	C	0.691599	-0.315779	-0.911530
C89	C	0.694739	-0.312649	-0.817316
C90	C	0.761664	-0.245788	-0.817351
C91	C	0.758524	-0.248918	-0.911565
C92	C	0.723491	-0.283915	-0.958651
C93	C	0.720354	-0.287047	-1.052867
C94	C	0.787276	-0.220184	-1.052900
C95	C	0.790416	-0.217054	-0.958686
C96	C	0.748803	-0.258662	-0.200265
C97	C	0.752247	-0.255180	-0.099994
H98	H	0.186332	-0.177963	-0.597342
C99	C	0.051386	-0.332603	-0.313316
H100	H	0.028439	-0.351346	-0.278902
H101	H	0.074007	-0.311269	-0.274068
H102	H	0.071525	-0.356561	-0.347769
C103	C	0.850715	-0.817552	-0.256005
H104	H	0.871773	-0.792313	-0.221674
H105	H	0.872339	-0.839978	-0.290540
H106	H	0.832047	-0.837566	-0.216662
H107	H	0.641406	-0.722138	-0.596914
H108	H	0.790183	-0.217293	-0.778997
C109	C	0.545729	-0.200399	-0.556017
H110	H	0.582431	-0.204908	-0.547736
H111	H	0.537235	-0.164821	-0.542937
H112	H	0.534765	-0.210129	-0.616609
C113	C	0.304443	-0.364050	-0.255508
H114	H	0.281491	-0.382793	-0.221103
H115	H	0.327058	-0.342714	-0.216252
H116	H	0.324587	-0.388009	-0.289949
H117	H	0.805269	-0.964364	-0.330137
C118	C	0.666749	-0.964141	-0.555763
H119	H	0.645682	-0.989377	-0.590083
H120	H	0.685408	-0.944122	-0.595104
H121	H	0.645126	-0.941720	-0.521208
H122	H	0.818937	-0.188559	-0.920335
C123	C	-0.071286	-0.200464	-0.556075
H124	H	-0.048338	-0.181729	-0.590500
H125	H	-0.091433	-0.176507	-0.521645
H126	H	-0.093898	-0.221811	-0.595325
C127	C	-0.063283	-0.332611	-0.313326
H128	H	-0.099986	-0.328110	-0.321619
H129	H	-0.052322	-0.322894	-0.252732
H130	H	-0.054787	-0.368189	-0.326430
C131	C	0.553725	-0.332537	-0.313248
H132	H	0.530775	-0.351278	-0.278837
H133	H	0.576340	-0.311198	-0.273999
H134	H	0.573868	-0.356496	-0.347689
C135	C	0.815194	-0.453661	-0.313575
H136	H	0.836280	-0.476592	-0.279262
H137	H	0.796519	-0.431078	-0.274229
H138	H	0.836801	-0.433482	-0.348123
H139	H	0.805131	-0.561066	-0.330067
H140	H	0.285378	-0.177953	-0.597334
C141	C	0.822365	-0.185140	-1.104734
H142	H	0.815480	-0.192015	-1.167589
H143	H	0.858001	-0.192292	-1.089288
H144	H	0.815258	-0.149491	-1.089314
C145	C	0.850680	-0.702906	-0.255994
H146	H	0.871763	-0.725840	-0.221684
H147	H	0.832010	-0.680320	-0.216644
H148	H	0.872288	-0.682730	-0.290544
H149	H	0.805302	-1.063431	-0.330165
C150	C	0.666788	-1.078793	-0.555778
H151	H	0.645710	-1.055860	-0.590102
H152	H	0.645181	-1.098975	-0.521243
H153	H	0.685469	-1.101373	-0.595129
H154	H	0.641432	-0.821188	-0.596926
H155	H	0.676722	-0.568099	-0.539226
H156	H	0.668766	-0.338593	-0.778954
C157	C	0.431063	-0.200408	-0.556034
H158	H	0.454012	-0.181672	-0.590453
H159	H	0.410911	-0.176453	-0.521609
H160	H	0.408454	-0.221757	-0.595289
C161	C	0.666575	-0.461784	-0.555666
H162	H	0.671637	-0.425078	-0.547405
H163	H	0.631894	-0.470322	-0.542420
H164	H	0.672188	-0.472728	-0.616296
H165	H	0.036111	-0.209441	-0.539563
C166	C	0.681818	-0.325540	-1.104661
H167	H	0.663271	-0.344064	-1.063100
H168	H	0.700574	-0.349547	-1.141411
H169	H	0.657826	-0.306751	-1.141414
H170	H	0.663077	-0.344278	-0.949869
H171	H	0.446329	-0.323566	-0.329780
H172	H	0.197048	-0.355072	-0.272041
