data_functionalizedCrystal
_audit_creation_method	'MofGen! by Chris Wilmer'
_symmetry_space_group_name_H-M	'P1'
_symmetry_Int_Tables_number	1
_symmetry_cell_setting	triclinic
loop_
_symmetry_equiv_pos_as_xyz
  x,y,z
_cell_length_a	8.559649
_cell_length_b	26.210047
_cell_length_c	8.559649
_cell_angle_alpha	89.994567
_cell_angle_beta	69.778664
_cell_angle_gamma	90.007600
loop_
_atom_site_label
_atom_site_type_symbol
_atom_site_fract_x
_atom_site_fract_y
_atom_site_fract_z
O1	O	2.126898	0.042421	-0.055060
O2	O	1.651413	0.042423	0.028721
O3	O	1.931046	0.042421	-0.250912
O4	O	1.847265	0.042423	0.224573
O5	O	1.930993	-0.042437	-0.250867
O6	O	1.651360	-0.042435	0.028766
O7	O	2.126845	-0.042437	-0.055015
Cu8	Cu	1.889097	-0.050184	-0.013121
Cu9	Cu	1.889160	0.050170	-0.013173
O10	O	1.847212	-0.042435	0.224618
C11	C	1.591077	-0.000006	0.035093
C12	C	1.411378	-0.000005	0.053992
N13	N	1.889065	-0.120768	-0.013086
C14	C	2.012967	-0.473283	-0.136969
C15	C	2.013006	-0.686942	-0.136995
O16	O	2.118288	-0.714564	-0.242311
N17	N	1.889173	-0.713662	-0.013210
C18	C	1.765316	-0.686965	0.110585
O19	O	1.659979	-0.714595	0.215861
C20	C	1.765272	-0.473307	0.110603
C21	C	1.889122	-0.446589	-0.013181
C22	C	2.136807	-0.446565	-0.260743
C23	C	2.136801	-0.393154	-0.260730
C24	C	2.012956	-0.366460	-0.136942
C25	C	1.889117	-0.393178	-0.013167
C26	C	1.641409	-0.446611	0.234390
C27	C	1.641407	-0.393193	0.234381
C28	C	1.765257	-0.366475	0.110597
C29	C	1.765266	-0.313073	0.110634
N30	N	1.889099	-0.286352	-0.013152
C31	C	2.012944	-0.313046	-0.136940
C32	C	1.765349	-0.799138	0.110568
C33	C	1.765362	-0.852552	0.110565
C34	C	2.013050	-0.852525	-0.137017
C35	C	2.013043	-0.799110	-0.137006
C36	C	1.889182	-0.772418	-0.013217
C37	C	2.012923	-0.200878	-0.136902
C38	C	2.012910	-0.147462	-0.136874
C39	C	1.765218	-0.147493	0.110703
C40	C	1.765234	-0.200905	0.110681
C41	C	1.889095	-0.227596	-0.013136
O42	O	1.660028	-0.285417	0.215883
O43	O	2.118243	-0.285407	-0.242222
C44	C	2.012973	-0.526694	-0.136982
C45	C	1.889134	-0.553412	-0.013207
C46	C	1.765289	-0.526719	0.110581
C47	C	1.889146	-0.606826	-0.013210
C48	C	2.012991	-0.633520	-0.136998
C49	C	2.136824	-0.606800	-0.260783
C50	C	2.136818	-0.553388	-0.260770
C51	C	1.641456	-0.553439	0.234366
C52	C	1.641473	-0.606851	0.234344
C53	C	1.765318	-0.633544	0.110556
C54	C	2.187180	-0.000007	-0.061387
C55	C	2.366879	-0.000005	-0.080286
C56	C	1.937369	-0.000007	-0.311198
C57	C	1.956268	-0.000004	-0.490898
N58	N	1.889206	0.120754	-0.013223
C59	C	1.840889	-0.000006	0.284904
C60	C	1.821990	-0.000006	0.464604
H61	H	1.311990	-0.000002	0.183420
O62	O	1.631756	-0.770349	0.244093
H63	H	1.636921	-0.780603	0.368030
O64	O	2.146486	-0.118643	-0.270397
H65	H	2.232588	-0.146182	-0.356486
H66	H	1.692570	-0.000007	-0.436018
O67	O	2.127720	-0.000008	-0.622529
H68	H	2.116165	-0.000009	-0.747753
H69	H	1.540539	-0.371462	0.335184
H70	H	1.466258	-0.000002	-0.209705
H71	H	2.113892	-0.874268	-0.237808
H72	H	1.540620	-0.628601	0.335158
H73	H	2.237646	-0.371403	-0.361529
H74	H	2.237657	-0.468294	-0.361554
O75	O	2.146535	-0.229660	-0.270429
H76	H	2.141416	-0.219396	-0.394377
O77	O	2.146608	-0.770294	-0.270527
H78	H	2.232713	-0.797835	-0.356603
H79	H	1.664526	-0.874302	0.211376
H80	H	1.540558	-0.468357	0.335185
H81	H	1.664398	-0.222659	0.211490
O82	O	1.631609	-0.118698	0.244180
H83	H	1.652401	-0.077068	0.223358
H84	H	2.237668	-0.628542	-0.361572
O85	O	2.270386	-0.524573	-0.394293
H86	H	2.356481	-0.552116	-0.480371
H87	H	1.540605	-0.531709	0.335168
