data_functionalizedCrystal
_audit_creation_method	'MofGen! by Chris Wilmer'
_symmetry_space_group_name_H-M	'P1'
_symmetry_Int_Tables_number	1
_symmetry_cell_setting	triclinic
loop_
_symmetry_equiv_pos_as_xyz
  x,y,z
_cell_length_a	16.120530
_cell_length_b	21.395363
_cell_length_c	21.395355
_cell_angle_alpha	90.003952
_cell_angle_beta	92.920957
_cell_angle_gamma	87.098336
loop_
_atom_site_label
_atom_site_type_symbol
_atom_site_fract_x
_atom_site_fract_y
_atom_site_fract_z
Zn1	Zn	1.274740	-0.298164	0.402855
Zn2	Zn	1.608073	0.035169	0.736188
Zn3	Zn	1.941406	0.368503	1.069521
Zn4	Zn	1.274679	-0.402922	0.298101
Zn5	Zn	1.608013	-0.069588	0.631435
Zn6	Zn	1.941346	0.263745	0.964768
Zn7	Zn	1.135308	-0.292842	0.292783
Zn8	Zn	1.468641	0.040491	0.626116
Zn9	Zn	1.801974	0.373824	0.959450
Zn10	Zn	1.135336	-0.397587	0.397537
Zn11	Zn	1.468669	-0.064254	0.730870
Zn12	Zn	1.802003	0.269080	1.064203
O13	O	1.205016	-0.347879	0.347819
O14	O	1.538349	-0.014545	0.681152
O15	O	1.871682	0.318788	1.014486
O16	O	1.391400	-0.316520	0.393410
O17	O	1.724733	0.016813	0.726743
O18	O	2.058067	0.350147	1.060077
O19	O	1.256154	-0.388325	0.209717
O20	O	1.589488	-0.054991	0.543050
O21	O	1.922821	0.278342	0.876383
O22	O	1.153817	-0.205871	0.307384
O23	O	1.487150	0.127462	0.640717
O24	O	1.820483	0.460796	0.974051
O25	O	1.391356	-0.393485	0.316448
O26	O	1.724689	-0.060152	0.649782
O27	O	2.058022	0.273182	0.983115
O28	O	1.256257	-0.209781	0.388253
O29	O	1.589590	0.123553	0.721586
O30	O	1.922924	0.456886	1.054920
O31	O	1.153758	-0.307450	0.205809
O32	O	1.487092	0.025883	0.539143
O33	O	1.820425	0.359217	0.872476
O34	O	1.018643	-0.302277	0.302228
O35	O	1.351976	0.031056	0.635561
O36	O	1.685310	0.364389	0.968894
O37	O	1.153865	-0.384393	0.485922
O38	O	1.487199	-0.051060	0.819255
O39	O	1.820532	0.282274	1.152588
O40	O	1.018664	-0.379233	0.379190
O41	O	1.351997	-0.045900	0.712523
O42	O	1.685330	0.287434	1.045856
O43	O	1.256285	-0.311347	0.489828
O44	O	1.589618	0.021986	0.823162
O45	O	1.922951	0.355319	1.156495
O46	O	1.256182	-0.489891	0.311292
O47	O	1.589515	-0.156558	0.644625
O48	O	1.922849	0.176775	0.977959
O49	O	1.153807	-0.485972	0.384347
O50	O	1.487140	-0.152639	0.717680
O51	O	1.820474	0.180695	1.051013
C52	C	1.205014	-0.510666	0.347834
C53	C	1.538347	-0.177333	0.681167
C54	C	1.871680	0.156000	1.014501
C55	C	1.205089	-0.580310	0.347864
C56	C	1.538422	-0.246977	0.681198
C57	C	1.871756	0.086356	1.014531
C58	C	0.988402	-0.339599	0.339555
C59	C	1.321736	-0.006266	0.672888
C60	C	1.655069	0.327067	1.006222
C61	C	0.895734	-0.336072	0.336034
C62	C	1.229068	-0.002739	0.669368
C63	C	1.562401	0.330594	1.002701
C64	C	1.205085	-0.347869	0.511245
C65	C	1.538418	-0.014535	0.844578
C66	C	1.871752	0.318798	1.177912
C67	C	1.205114	-0.347864	0.580887
C68	C	1.538448	-0.014531	0.914221
C69	C	1.871781	0.318802	1.247554
C70	C	0.726069	-0.329619	0.329612
C71	C	1.059402	0.003715	0.662945
C72	C	1.392736	0.337048	0.996279
C73	C	0.684803	-0.366185	0.366072
C74	C	1.018136	-0.032852	0.699405
C75	C	1.351470	0.300481	1.032738
C76	C	0.590395	-0.362594	0.362498
C77	C	0.923729	-0.029261	0.695832
C78	C	1.257062	0.304072	1.029165
C79	C	0.820485	-0.333209	0.333185
C80	C	1.153818	0.000125	0.666518
C81	C	1.487152	0.333458	0.999851
C82	C	1.422475	-0.356191	0.356116
C83	C	1.755808	-0.022858	0.689449
C84	C	2.089141	0.310476	1.022782
C85	C	1.515143	-0.359733	0.359651
C86	C	1.848476	-0.026400	0.692985
C87	C	2.181809	0.306933	1.026318
C88	C	1.205040	-0.184456	0.347819
C89	C	1.538374	0.148877	0.681152
C90	C	1.871707	0.482210	1.014485
C91	C	1.205051	-0.114816	0.347818
C92	C	1.538384	0.218518	0.681152
C93	C	1.871718	0.551851	1.014485
C94	C	1.151726	-0.080066	0.305715
C95	C	1.485059	0.253267	0.639049
C96	C	1.818392	0.586600	0.972382
C97	C	1.151725	-0.014631	0.305723
C98	C	1.485058	0.318703	0.639056
C99	C	1.818391	0.652036	0.972389
C100	C	1.205064	0.016052	0.347827
C101	C	1.538397	0.349386	0.681160
C102	C	1.871731	0.682719	1.014494
C103	C	1.258393	-0.018705	0.389938
C104	C	1.591726	0.314628	0.723271
C105	C	1.925060	0.647961	1.056605
C106	C	1.258387	-0.084139	0.389934
C107	C	1.591720	0.249194	0.723267
C108	C	1.925053	0.582528	1.056600
C109	C	1.280191	0.116850	0.355645
C110	C	1.613524	0.450183	0.688979
C111	C	1.946857	0.783517	1.022312
C112	C	1.280199	0.182283	0.355645
C113	C	1.613532	0.515616	0.688979
C114	C	1.946865	0.848949	1.022312
C115	C	1.205083	0.217872	0.347844
C116	C	1.538417	0.551206	0.681178
C117	C	1.871750	0.884539	1.014511
C118	C	1.129958	0.188021	0.340030
C119	C	1.463291	0.521354	0.673363
C120	C	1.796625	0.854688	1.006697
C121	C	1.129952	0.122587	0.340026
C122	C	1.463285	0.455921	0.673359
C123	C	1.796618	0.789254	1.006692
C124	C	1.205077	0.087004	0.347837
C125	C	1.538410	0.420337	0.681170
C126	C	1.871743	0.753671	1.014503
C127	C	1.151753	0.323574	0.305747
C128	C	1.485086	0.656908	0.639080
C129	C	1.818419	0.990241	0.972414
C130	C	1.151750	0.389011	0.305759
C131	C	1.485084	0.722344	0.639092
C132	C	1.818417	1.055678	0.972425
C133	C	1.258426	0.384935	0.389971
C134	C	1.591759	0.718268	0.723304
C135	C	1.925093	1.051602	1.056638
C136	C	1.258421	0.319500	0.389962
C137	C	1.591754	0.652833	0.723296
C138	C	1.925088	0.986167	1.056629
C139	C	1.205085	0.288823	0.347847
C140	C	1.538419	0.622157	0.681180
C141	C	1.871752	0.955490	1.014514
C142	C	1.204995	-0.347845	0.185031
C143	C	1.538328	-0.014512	0.518364
C144	C	1.871661	0.318821	0.851697
C145	C	1.205127	-0.347679	0.115395
C146	C	1.538460	-0.014346	0.448728
C147	C	1.871793	0.318987	0.782061
C148	C	1.258442	-0.309828	0.615636
C149	C	1.591775	0.023506	0.948969
C150	C	1.925108	0.356839	1.282302
C151	C	1.258441	-0.309801	0.681071
C152	C	1.591774	0.023532	1.014404
C153	C	1.925107	0.356866	1.347738
C154	C	1.205121	-0.347822	0.711756
C155	C	1.538454	-0.014489	1.045089
C156	C	1.871787	0.318845	1.378423
C157	C	1.151783	-0.385861	0.676999
C158	C	1.485116	-0.052528	1.010333
C159	C	1.818450	0.280806	1.343666
C160	C	1.151780	-0.385882	0.611565
C161	C	1.485113	-0.052549	0.944898
C162	C	1.818446	0.280784	1.278232
C163	C	1.198537	-0.403986	0.815185
C164	C	1.531870	-0.070653	1.148519
C165	C	1.865204	0.262681	1.481852
C166	C	1.198546	-0.403966	0.880619
C167	C	1.531879	-0.070633	1.213952
C168	C	1.865213	0.262701	1.547285
C169	C	1.205126	-0.347756	0.913577
C170	C	1.538459	-0.014423	1.246910
C171	C	1.871793	0.318911	1.580244
C172	C	1.211714	-0.291565	0.881095
C173	C	1.545048	0.041769	1.214428
C174	C	1.878381	0.375102	1.547761
C175	C	1.211711	-0.291586	0.815660
C176	C	1.545044	0.041747	1.148994
C177	C	1.878378	0.375081	1.482327
C178	C	1.205118	-0.347803	0.782708
C179	C	1.538451	-0.014470	1.116042
C180	C	1.871785	0.318864	1.449375
C181	C	1.258455	-0.309687	1.019278
C182	C	1.591788	0.023647	1.352611
C183	C	1.925122	0.356980	1.685945
C184	C	1.258448	-0.309659	1.084714
C185	C	1.591781	0.023675	1.418048
C186	C	1.925115	0.357008	1.751381
C187	C	1.151795	-0.385725	1.080641
C188	C	1.485128	-0.052391	1.413975
C189	C	1.818461	0.280942	1.747308
C190	C	1.151797	-0.385747	1.015206
C191	C	1.485131	-0.052414	1.348540
C192	C	1.818464	0.280920	1.681873
C193	C	1.205132	-0.347729	0.984529
C194	C	1.538465	-0.014396	1.317862
C195	C	1.871799	0.318937	1.651195
H196	H	0.720377	-0.400187	0.399970
H197	H	1.053710	-0.066854	0.733303
H198	H	1.387043	0.266480	1.066637
F199	F	0.679575	-0.285178	0.285308
F200	F	1.012908	0.048155	0.618641
F201	F	1.346241	0.381489	0.951974
F202	F	1.050009	0.225893	0.331722
F203	F	1.383342	0.559226	0.665055
F204	F	1.716676	0.892559	0.998389
H205	H	1.108367	-0.416816	0.701987
H206	H	1.441700	-0.083483	1.035320
H207	H	1.775034	0.249851	1.368654
F208	F	1.218718	-0.231785	0.781093
F209	F	1.552052	0.101548	1.114426
F210	F	1.885385	0.434882	1.447759
F211	F	1.094986	0.290924	0.260927
F212	F	1.428320	0.624257	0.594260
F213	F	1.761653	0.957591	0.927594
H214	H	1.108294	-0.105039	0.271423
H215	H	1.441628	0.228294	0.604756
H216	H	1.774961	0.561628	0.938089
H217	H	1.301810	-0.112432	0.424221
H218	H	1.635143	0.220901	0.757555
H219	H	1.968477	0.554235	1.090888
H220	H	1.301864	-0.278823	0.709369
H221	H	1.635198	0.054510	1.042702
H222	H	1.968531	0.387843	1.376035
F223	F	1.094970	0.022359	0.260907
F224	F	1.428303	0.355693	0.594240
F225	F	1.761637	0.689026	0.927573
F226	F	1.315202	-0.269363	0.582990
F227	F	1.648535	0.063970	0.916323
F228	F	1.981869	0.397304	1.249657
F229	F	1.315219	-0.269180	1.121697
F230	F	1.648552	0.064153	1.455030
F231	F	1.981886	0.397487	1.788363
H232	H	1.108372	-0.416676	1.105624
H233	H	1.441706	-0.083342	1.438957
H234	H	1.775039	0.249991	1.772291
H235	H	1.108322	0.417305	0.271475
H236	H	1.441655	0.750638	0.604809
H237	H	1.774988	1.083972	0.938142
F238	F	1.050000	0.090820	0.331713
F239	F	1.383333	0.424153	0.665047
F240	F	1.716667	0.757486	0.998380
F241	F	1.315192	0.417586	0.434784
F242	F	1.648525	0.750919	0.768117
F243	F	1.981859	1.084253	1.101450
H244	H	1.301849	0.291206	0.424244
H245	H	1.635182	0.624540	0.757577
H246	H	1.968516	0.957873	1.090910
F247	F	1.315156	0.013951	0.434751
F248	F	1.648490	0.347284	0.768085
F249	F	1.981823	0.680617	1.101418
F250	F	1.360153	0.214046	0.363960
F251	F	1.693486	0.547380	0.697293
F252	F	2.026820	0.880713	1.030626
F253	F	1.360144	0.078979	0.363949
F254	F	1.693478	0.412312	0.697282
F255	F	2.026811	0.745646	1.030615
H256	H	1.217073	-0.245793	0.907928
H257	H	1.550407	0.087540	1.241261
H258	H	1.883740	0.420873	1.574595
H259	H	1.301878	-0.278727	0.994299
H260	H	1.635212	0.054607	1.327632
H261	H	1.968545	0.387940	1.660966
F262	F	1.095041	-0.426234	0.978223
F263	F	1.428375	-0.092901	1.311556
F264	F	1.761708	0.240433	1.644890
H265	H	1.193187	-0.449721	0.907061
H266	H	1.526520	-0.116387	1.240394
H267	H	1.859853	0.216946	1.573727
F268	F	1.191553	-0.463819	0.780115
F269	F	1.524886	-0.130485	1.113449
F270	F	1.858219	0.202848	1.446782
F271	F	1.095019	-0.426368	0.574582
F272	F	1.428352	-0.093035	0.907915
F273	F	1.761686	0.240299	1.241249
