data_functionalizedCrystal
_audit_creation_method	'MofGen! by Chris Wilmer'
_symmetry_space_group_name_H-M	'P1'
_symmetry_Int_Tables_number	1
_symmetry_cell_setting	triclinic
loop_
_symmetry_equiv_pos_as_xyz
  x,y,z
_cell_length_a	18.215405
_cell_length_b	18.215407
_cell_length_c	18.215399
_cell_angle_alpha	90.014769
_cell_angle_beta	89.967040
_cell_angle_gamma	89.979495
loop_
_atom_site_label
_atom_site_type_symbol
_atom_site_fract_x
_atom_site_fract_y
_atom_site_fract_z
Zn1	Zn	-0.293060	-1.125050	-0.416062
Zn2	Zn	-0.416137	-1.124965	-0.292990
Zn3	Zn	-0.293079	-1.001989	-0.293014
Zn4	Zn	-0.416080	-1.001949	-0.416020
O5	O	-0.354589	-1.063488	-0.354521
O6	O	-0.309402	-1.228023	-0.399744
O7	O	-0.399844	-1.108633	-0.190009
O8	O	-0.190092	-1.018366	-0.309364
O9	O	-0.399826	-1.227960	-0.309324
O10	O	-0.190079	-1.108778	-0.399767
O11	O	-0.309435	-1.018283	-0.190026
O12	O	-0.309380	-0.898999	-0.309323
O13	O	-0.399730	-1.018297	-0.519010
O14	O	-0.399748	-0.898970	-0.399695
O15	O	-0.309348	-1.108739	-0.519041
O16	O	-0.519114	-1.108594	-0.309283
O17	O	-0.519072	-1.018214	-0.399672
C18	C	-0.354560	-0.872282	-0.354507
C19	C	-0.354566	-0.790483	-0.354519
C20	C	-0.307573	-0.602321	-0.401674
C21	C	-0.307577	-0.525462	-0.401675
C22	C	-0.401594	-0.525408	-0.307375
C23	C	-0.401586	-0.602265	-0.307370
C24	C	-0.354577	-0.640720	-0.354523
C25	C	-0.354589	-0.487003	-0.354530
C26	C	-0.354593	-0.403670	-0.354532
C27	C	-0.354571	-0.724058	-0.354521
C28	C	-0.545795	-1.063410	-0.354486
C29	C	-0.627594	-1.063445	-0.354496
C30	C	-0.815785	-1.110616	-0.307517
C31	C	-0.892644	-1.110649	-0.307534
C32	C	-0.892641	-1.016455	-0.401579
C33	C	-0.815784	-1.016426	-0.401565
C34	C	-0.777358	-1.063505	-0.354529
C35	C	-0.931074	-1.063567	-0.354562
C36	C	-1.014407	-1.063602	-0.354581
C37	C	-0.694019	-1.063471	-0.354510
C38	C	-0.162636	-1.063586	-0.354573
C39	C	-0.080837	-1.063628	-0.354595
C40	C	-0.354530	-1.063523	-0.546474
C41	C	-0.354505	-1.063538	-0.628273
C42	C	-0.354611	-0.255441	-0.354534
C43	C	-0.354599	-0.337240	-0.354535
C44	C	-0.307397	-1.016532	-0.816477
C45	C	-0.307382	-1.016545	-0.893336
C46	C	-0.401526	-1.110631	-0.893307
C47	C	-0.401544	-1.110614	-0.816450
C48	C	-0.354475	-1.063566	-0.778037
C49	C	-0.354442	-1.063596	-0.931753
C50	C	-0.354427	-1.063610	-1.015087
C51	C	-0.354492	-1.063550	-0.694698
C52	C	-0.354595	-1.063496	-0.163315
C53	C	-0.354412	-1.063624	-0.081517
H54	H	-0.269301	-0.494201	-0.440069
H55	H	-0.439868	-0.494089	-0.268985
C56	C	-0.453296	-0.644506	-0.255499
N57	N	-0.492241	-0.676322	-0.216429
C58	C	-0.773511	-0.964614	-0.453300
N59	N	-0.741671	-0.925597	-0.492272
C60	C	-0.255855	-0.644618	-0.453537
N61	N	-0.216897	-0.676474	-0.492600
C62	C	-0.453323	-1.162371	-0.774163
N63	N	-0.492317	-1.201356	-0.742313
H64	H	-0.784501	-1.148952	-0.269218
C65	C	-0.934911	-1.162471	-0.255814
N66	N	-0.966746	-1.201505	-0.216855
C67	C	-0.934916	-0.964662	-0.453307
N68	N	-0.966758	-0.925647	-0.492267
H69	H	-0.269071	-0.978222	-0.785204
H70	H	-0.269047	-0.978245	-0.924631
H71	H	-0.439847	-1.148937	-0.924593
