data_functionalizedCrystal
_audit_creation_method	'MofGen! by Chris Wilmer'
_symmetry_space_group_name_H-M	'P1'
_symmetry_Int_Tables_number	1
_symmetry_cell_setting	triclinic
loop_
_symmetry_equiv_pos_as_xyz
  x,y,z
_cell_length_a	17.077404
_cell_length_b	18.050589
_cell_length_c	17.077396
_cell_angle_alpha	89.975358
_cell_angle_beta	89.980499
_cell_angle_gamma	90.028446
loop_
_atom_site_label
_atom_site_type_symbol
_atom_site_fract_x
_atom_site_fract_y
_atom_site_fract_z
Zn1	Zn	1.200026	-0.295655	-0.443864
Zn2	Zn	1.199920	-0.419852	-0.312606
Zn3	Zn	1.068757	-0.295681	-0.312612
Zn4	Zn	1.068713	-0.419808	-0.443830
O5	O	1.134354	-0.357749	-0.378228
O6	O	1.309858	-0.312138	-0.426464
O7	O	1.182496	-0.403410	-0.202760
O8	O	1.086233	-0.191753	-0.330039
O9	O	1.309781	-0.403385	-0.330030
O10	O	1.182675	-0.191734	-0.426469
O11	O	1.086131	-0.312182	-0.202764
O12	O	0.958905	-0.312139	-0.330006
O13	O	1.086157	-0.403310	-0.553681
O14	O	0.958872	-0.403335	-0.426412
O15	O	1.182632	-0.312095	-0.553706
O16	O	1.182453	-0.523771	-0.329997
O17	O	1.086056	-0.523739	-0.426407
C18	C	0.930406	-0.357736	-0.378206
C19	C	0.843156	-0.357748	-0.378216
C20	C	0.802170	-0.405305	-0.428333
C21	C	0.720189	-0.405307	-0.428346
C22	C	0.679197	-0.357754	-0.378236
C23	C	0.720189	-0.310192	-0.328116
C24	C	0.802168	-0.310187	-0.328108
C25	C	0.549319	-0.310206	-0.328135
C26	C	0.467335	-0.310212	-0.328142
C27	C	0.467340	-0.405326	-0.428373
C28	C	0.549319	-0.405321	-0.428365
C29	C	0.590306	-0.357760	-0.378244
C30	C	1.134259	-0.550701	-0.378215
C31	C	1.134291	-0.633247	-0.378236
C32	C	1.081921	-0.832707	-0.430645
C33	C	1.062786	-0.882149	-0.359016
C34	C	1.134368	-0.784377	-0.378246
C35	C	1.153541	-0.882017	-0.449883
C36	C	1.134441	-0.930362	-0.378262
C37	C	1.115195	-0.832732	-0.306579
C38	C	1.205984	-0.832596	-0.397495
C39	C	1.186876	-0.882016	-0.325816
C40	C	1.134324	-0.700279	-0.378238
C41	C	1.134485	-1.014459	-0.378262
C42	C	1.339098	-0.357763	-0.378250
C43	C	1.426348	-0.357769	-0.378260
C44	C	1.134402	-0.357694	-0.582972
C45	C	1.134422	-0.357671	-0.670222
C46	C	1.134471	-0.164043	-0.378258
C47	C	1.134520	-0.081498	-0.378271
C48	C	1.184658	-0.310172	-0.711226
C49	C	1.184667	-0.310147	-0.793207
C50	C	1.134444	-0.357626	-0.834182
C51	C	1.084202	-0.405128	-0.793172
C52	C	1.084190	-0.405148	-0.711193
C53	C	1.084234	-0.405083	-0.964042
C54	C	1.084248	-0.405064	-1.046026
C55	C	1.184712	-0.310082	-1.046056
C56	C	1.184699	-0.310102	-0.964077
C57	C	1.134458	-0.357605	-0.923073
C58	C	1.134352	-0.357750	-0.174280
C59	C	1.134484	-0.357564	-0.087031
H60	H	0.686822	-0.444033	-0.469156
H61	H	1.225558	-0.271511	-0.677871
N62	N	1.093654	-0.804180	-0.226317
H63	H	1.083952	-0.847378	-0.189972
H64	H	1.137944	-0.772949	-0.205186
H65	H	1.225577	-0.271470	-0.826589
H66	H	0.835538	-0.271457	-0.287301
H67	H	1.002257	-0.903931	-0.342749
N68	N	1.238868	-0.258888	-0.919889
H69	H	1.206980	-0.224481	-0.885877
H70	H	1.275212	-0.289130	-0.885921
H71	H	0.835540	-0.444030	-0.469136
H72	H	0.433961	-0.271482	-0.287347
H73	H	1.225619	-0.271402	-1.079446
N74	N	1.245662	-0.910526	-0.267065
H75	H	1.286475	-0.941285	-0.294882
H76	H	1.271831	-0.867273	-0.240190
H77	H	1.043307	-0.443783	-0.826540
N78	N	1.030080	-0.456272	-1.090224
H79	H	0.998247	-0.486364	-1.051810
H80	H	0.993783	-0.426026	-1.124239
H81	H	1.043310	-0.443753	-0.930658
H82	H	1.043274	-0.443819	-0.677808
N83	N	1.023084	-0.804018	-0.489249
H84	H	1.023825	-0.748069	-0.489179
H85	H	1.037013	-0.822767	-0.543195
N86	N	1.286144	-0.803743	-0.419079
H87	H	1.300554	-0.821637	-0.473225
H88	H	1.285586	-0.747799	-0.418360
N89	N	1.174983	-0.910699	-0.530120
H90	H	1.184192	-0.867560	-0.566671
H91	H	1.224226	-0.941457	-0.526363
N92	N	0.593536	-0.456615	-0.482403
H93	H	0.555133	-0.486746	-0.514156
H94	H	0.627581	-0.426427	-0.518780
H95	H	0.433965	-0.444050	-0.469186
H96	H	0.582688	-0.271470	-0.287328
H97	H	0.686807	-0.271471	-0.287319
