data_functionalizedCrystal
_audit_creation_method	'MofGen! by Chris Wilmer'
_symmetry_space_group_name_H-M	'P1'
_symmetry_Int_Tables_number	1
_symmetry_cell_setting	triclinic
loop_
_symmetry_equiv_pos_as_xyz
  x,y,z
_cell_length_a	17.077404
_cell_length_b	18.101395
_cell_length_c	17.077396
_cell_angle_alpha	90.027467
_cell_angle_beta	90.019501
_cell_angle_gamma	90.031329
loop_
_atom_site_label
_atom_site_type_symbol
_atom_site_fract_x
_atom_site_fract_y
_atom_site_fract_z
Zn1	Zn	1.200010	-0.294825	0.443848
Zn2	Zn	1.450010	-0.044825	0.693848
Zn3	Zn	1.700010	0.205175	0.943848
Zn4	Zn	1.950010	0.455175	1.193848
Zn5	Zn	1.199898	-0.418674	0.312585
Zn6	Zn	1.449898	-0.168674	0.562585
Zn7	Zn	1.699898	0.081326	0.812585
Zn8	Zn	1.949898	0.331326	1.062585
Zn9	Zn	1.068742	-0.294851	0.312596
Zn10	Zn	1.318742	-0.044851	0.562596
Zn11	Zn	1.568742	0.205149	0.812596
Zn12	Zn	1.818742	0.455149	1.062596
Zn13	Zn	1.068691	-0.418630	0.443808
Zn14	Zn	1.318691	-0.168630	0.693808
Zn15	Zn	1.568691	0.081370	0.943808
Zn16	Zn	1.818691	0.331370	1.193808
O17	O	1.134335	-0.356745	0.378209
O18	O	1.384335	-0.106745	0.628209
O19	O	1.634335	0.143255	0.878209
O20	O	1.884335	0.393255	1.128209
O21	O	1.309842	-0.311261	0.426448
O22	O	1.559842	-0.061261	0.676448
O23	O	1.809842	0.188739	0.926448
O24	O	2.059842	0.438739	1.176448
O25	O	1.182474	-0.402278	0.202739
O26	O	1.432474	-0.152278	0.452739
O27	O	1.682474	0.097722	0.702739
O28	O	1.932474	0.347722	0.952739
O29	O	1.086223	-0.191215	0.330029
O30	O	1.336223	0.058785	0.580029
O31	O	1.586223	0.308785	0.830029
O32	O	1.836223	0.558785	1.080029
O33	O	1.309760	-0.402253	0.330009
O34	O	1.559760	-0.152253	0.580009
O35	O	1.809760	0.097747	0.830009
O36	O	2.059760	0.347747	1.080009
O37	O	1.182665	-0.191196	0.426459
O38	O	1.432665	0.058804	0.676459
O39	O	1.682665	0.308804	0.926459
O40	O	1.932665	0.558804	1.176459
O41	O	1.086114	-0.311306	0.202748
O42	O	1.336114	-0.061306	0.452748
O43	O	1.586114	0.188694	0.702748
O44	O	1.836114	0.438694	0.952748
O45	O	0.958888	-0.311263	0.329990
O46	O	1.208888	-0.061263	0.579990
O47	O	1.458888	0.188737	0.829990
O48	O	1.708888	0.438737	1.079990
O49	O	1.086136	-0.402178	0.553660
O50	O	1.336136	-0.152178	0.803660
O51	O	1.586136	0.097822	1.053660
O52	O	1.836136	0.347822	1.303660
O53	O	0.958851	-0.402203	0.426391
O54	O	1.208851	-0.152203	0.676391
O55	O	1.458851	0.097797	0.926391
O56	O	1.708851	0.347797	1.176391
O57	O	1.182616	-0.311219	0.553690
O58	O	1.432616	-0.061219	0.803690
O59	O	1.682616	0.188781	1.053690
O60	O	1.932616	0.438781	1.303690
O61	O	1.182425	-0.522301	0.329970
O62	O	1.432425	-0.272301	0.579970
O63	O	1.682425	-0.022301	0.829970
O64	O	1.932425	0.227699	1.079970
O65	O	1.086028	-0.522269	0.426379
O66	O	1.336028	-0.272269	0.676379
O67	O	1.586028	-0.022269	0.926379
O68	O	1.836028	0.227731	1.176379
C69	C	0.930387	-0.356732	0.378188
C70	C	1.180387	-0.106732	0.628188
C71	C	1.430387	0.143268	0.878188
C72	C	1.680387	0.393268	1.128188
C73	C	0.843137	-0.356744	0.378197
C74	C	1.093137	-0.106744	0.628197
C75	C	1.343137	0.143256	0.878197
C76	C	1.593137	0.393256	1.128197
C77	C	1.134230	-0.549156	0.378186
C78	C	1.384230	-0.299156	0.628186
C79	C	1.634230	-0.049156	0.878186
C80	C	1.884230	0.200844	1.128186
C81	C	1.134257	-0.631470	0.378203
C82	C	1.384257	-0.381470	0.628203
C83	C	1.634257	-0.131470	0.878203
C84	C	1.884257	0.118530	1.128203
C85	C	0.802148	-0.404167	0.428312
C86	C	1.052148	-0.154167	0.678312
C87	C	1.302148	0.095833	0.928312
C88	C	1.552148	0.345833	1.178312
C89	C	0.720168	-0.404169	0.428325
C90	C	0.970168	-0.154169	0.678325
C91	C	1.220168	0.095831	0.928325
C92	C	1.470168	0.345831	1.178325
C93	C	0.679178	-0.356750	0.378218
C94	C	0.929178	-0.106750	0.628218
C95	C	1.179178	0.143250	0.878218
C96	C	1.429178	0.393250	1.128218
C97	C	0.720173	-0.309321	0.328100
C98	C	0.970173	-0.059321	0.578100
C99	C	1.220173	0.190679	0.828100
C100	C	1.470173	0.440679	1.078100
C101	C	0.802152	-0.309316	0.328092
C102	C	1.052152	-0.059316	0.578092
C103	C	1.302152	0.190684	0.828092
C104	C	1.552152	0.440684	1.078092
C105	C	0.549303	-0.309336	0.328119
C106	C	0.799303	-0.059336	0.578119
C107	C	1.049303	0.190664	0.828119
C108	C	1.299303	0.440664	1.078119
C109	C	0.467318	-0.309341	0.328126
C110	C	0.717318	-0.059341	0.578126
C111	C	0.967318	0.190659	0.828126
C112	C	1.217318	0.440659	1.078126
C113	C	0.467319	-0.404188	0.428352
C114	C	0.717319	-0.154188	0.678352
C115	C	0.967319	0.095812	0.928352
C116	C	1.217319	0.345812	1.178352
C117	C	0.549298	-0.404184	0.428344
C118	C	0.799298	-0.154184	0.678344
C119	C	1.049298	0.095816	0.928344
C120	C	1.299298	0.345816	1.178344
C121	C	0.590287	-0.356755	0.378225
C122	C	0.840287	-0.106755	0.628225
C123	C	1.090287	0.143245	0.878225
C124	C	1.340287	0.393245	1.128225
C125	C	1.134429	-0.930561	0.378245
C126	C	1.384429	-0.680561	0.628245
C127	C	1.634429	-0.430561	0.878245
C128	C	1.884429	-0.180561	1.128245
C129	C	1.073919	-0.899246	0.439054
C130	C	1.323919	-0.649246	0.689054
C131	C	1.573919	-0.399246	0.939054
C132	C	1.823919	-0.149246	1.189054
C133	C	1.073632	-0.813628	0.438863
C134	C	1.323632	-0.563628	0.688863
C135	C	1.573632	-0.313628	0.938863
C136	C	1.823632	-0.063628	1.188863
C137	C	1.134344	-0.782178	0.378225
C138	C	1.384344	-0.532178	0.628225
C139	C	1.634344	-0.282178	0.878225
C140	C	1.884344	-0.032178	1.128225
C141	C	1.111947	-0.813330	0.295495
C142	C	1.361947	-0.563330	0.545495
C143	C	1.611947	-0.313330	0.795495
C144	C	1.861947	-0.063330	1.045495
C145	C	1.111557	-0.898975	0.295859
C146	C	1.361557	-0.648975	0.545859
C147	C	1.611557	-0.398975	0.795859
C148	C	1.861557	-0.148975	1.045859
C149	C	1.217469	-0.898904	0.399437
C150	C	1.467469	-0.648904	0.649437
C151	C	1.717469	-0.398904	0.899437
C152	C	1.967469	-0.148904	1.149437
C153	C	1.216980	-0.813253	0.401252
C154	C	1.466980	-0.563253	0.651252
C155	C	1.716980	-0.313253	0.901252
C156	C	1.966980	-0.063253	1.151252
C157	C	1.134297	-0.698319	0.378208
C158	C	1.384297	-0.448319	0.628208
C159	C	1.634297	-0.198319	0.878208
C160	C	1.884297	0.051681	1.128208
C161	C	1.134474	-1.014420	0.378256
C162	C	1.384474	-0.764420	0.628256
C163	C	1.634474	-0.514420	0.878256
C164	C	1.884474	-0.264420	1.128256
C165	C	1.339079	-0.356759	0.378231
C166	C	1.589079	-0.106759	0.628231
C167	C	1.839079	0.143241	0.878231
C168	C	2.089079	0.393241	1.128231
C169	C	1.426329	-0.356765	0.378241
C170	C	1.676329	-0.106765	0.628241
C171	C	1.926329	0.143235	0.878241
C172	C	2.176329	0.393235	1.128241
C173	C	1.134383	-0.356690	0.582954
C174	C	1.384383	-0.106690	0.832954
C175	C	1.634383	0.143310	1.082954
C176	C	1.884383	0.393310	1.332954
C177	C	1.134403	-0.356667	0.670203
C178	C	1.384403	-0.106667	0.920203
C179	C	1.634403	0.143333	1.170203
C180	C	1.884403	0.393333	1.420203
C181	C	1.134462	-0.163583	0.378250
C182	C	1.384462	0.086417	0.628250
C183	C	1.634462	0.336417	0.878250
C184	C	1.884462	0.586417	1.128250
C185	C	1.134516	-0.081269	0.378267
C186	C	1.384516	0.168731	0.628267
C187	C	1.634516	0.418731	0.878267
C188	C	1.884516	0.668731	1.128267
C189	C	1.134333	-0.356746	0.174261
C190	C	1.384333	-0.106746	0.424261
C191	C	1.634333	0.143254	0.674261
C192	C	1.884333	0.393254	0.924261
C193	C	1.134465	-0.356561	0.087012
C194	C	1.384465	-0.106561	0.337012
C195	C	1.634465	0.143439	0.587012
C196	C	1.884465	0.393439	0.837012
C197	C	1.184642	-0.309301	0.711210
C198	C	1.434642	-0.059301	0.961210
C199	C	1.684642	0.190699	1.211210
C200	C	1.934642	0.440699	1.461210
C201	C	1.184651	-0.309276	0.793191
C202	C	1.434651	-0.059276	1.043191
C203	C	1.684651	0.190724	1.293191
C204	C	1.934651	0.440724	1.543191
C205	C	1.134425	-0.356622	0.834163
C206	C	1.384425	-0.106622	1.084163
C207	C	1.634425	0.143378	1.334163
C208	C	1.884425	0.393378	1.584163
C209	C	1.084181	-0.403990	0.793150
C210	C	1.334181	-0.153990	1.043150
C211	C	1.584181	0.096010	1.293150
C212	C	1.834181	0.346010	1.543150
C213	C	1.084168	-0.404011	0.711171
C214	C	1.334168	-0.154011	0.961171
C215	C	1.584168	0.095989	1.211171
C216	C	1.834168	0.345989	1.461171
C217	C	1.084212	-0.403946	0.964021
C218	C	1.334212	-0.153946	1.214021
C219	C	1.584212	0.096054	1.464021
C220	C	1.834212	0.346054	1.714021
C221	C	1.084226	-0.403927	1.046005
C222	C	1.334226	-0.153927	1.296005
C223	C	1.584226	0.096073	1.546005
C224	C	1.834226	0.346073	1.796005
C225	C	1.184695	-0.309211	1.046040
C226	C	1.434695	-0.059211	1.296040
C227	C	1.684695	0.190789	1.546040
C228	C	1.934695	0.440789	1.796040
C229	C	1.184683	-0.309232	0.964061
C230	C	1.434683	-0.059232	1.214061
C231	C	1.684683	0.190768	1.464061
C232	C	1.934683	0.440768	1.714061
C233	C	1.134439	-0.356601	0.923054
C234	C	1.384439	-0.106601	1.173054
C235	C	1.634439	0.143399	1.423054
C236	C	1.884439	0.393399	1.673054
H237	H	0.835516	-0.442784	0.469113
H238	H	1.085516	-0.192784	0.719113
H239	H	1.335516	0.057216	0.969113
H240	H	1.585516	0.307216	1.219113
F241	F	0.423695	-0.454657	0.481701
F242	F	0.673695	-0.204657	0.731701
F243	F	0.923695	0.045343	0.981701
F244	F	1.173695	0.295343	1.231701
H245	H	1.154633	-0.792959	0.248952
H246	H	1.404633	-0.542959	0.498952
H247	H	1.654633	-0.292959	0.748952
H248	H	1.904633	-0.042959	0.998952
H249	H	1.153718	-0.919692	0.249007
H250	H	1.403718	-0.669692	0.499007
H251	H	1.653718	-0.419692	0.749007
H252	H	1.903718	-0.169692	0.999007
F253	F	1.030723	-0.454377	0.836758
F254	F	1.280723	-0.204377	1.086758
F255	F	1.530723	0.045623	1.336758
F256	F	1.780723	0.295623	1.586758
F257	F	1.238104	-0.258912	0.667612
F258	F	1.488104	-0.008912	0.917612
F259	F	1.738104	0.241088	1.167612
F260	F	1.988104	0.491088	1.417612
F261	F	1.238149	-0.258888	0.836830
F262	F	1.488149	-0.008888	1.086830
F263	F	1.738149	0.241112	1.336830
F264	F	1.988149	0.491112	1.586830
H265	H	1.051888	-0.791945	0.277221
H266	H	1.301888	-0.541945	0.527221
H267	H	1.551888	-0.291945	0.777221
H268	H	1.801888	-0.041945	1.027221
F269	F	1.276398	-0.925383	0.341558
F270	F	1.526398	-0.675383	0.591558
F271	F	1.776398	-0.425383	0.841558
F272	F	2.026398	-0.175383	1.091558
H273	H	1.043287	-0.442508	0.930635
H274	H	1.293287	-0.192508	1.180635
H275	H	1.543287	0.057492	1.430635
H276	H	1.793287	0.307492	1.680635
H277	H	1.012743	-0.920833	0.425192
H278	H	1.262743	-0.670833	0.675192
H279	H	1.512743	-0.420833	0.925192
H280	H	1.762743	-0.170833	1.175192
H281	H	1.043326	-0.442478	1.079363
H282	H	1.293326	-0.192478	1.329363
H283	H	1.543326	0.057522	1.579363
H284	H	1.793326	0.307522	1.829363
H285	H	1.237888	-0.920452	0.458736
H286	H	1.487888	-0.670452	0.708736
H287	H	1.737888	-0.420452	0.958736
H288	H	1.987888	-0.170452	1.208736
H289	H	1.043251	-0.442574	0.677785
H290	H	1.293251	-0.192574	0.927785
H291	H	1.543251	0.057426	1.177785
H292	H	1.793251	0.307426	1.427785
H293	H	0.582674	-0.270708	0.287314
H294	H	0.832674	-0.020708	0.537314
H295	H	1.082674	0.229292	0.787314
H296	H	1.332674	0.479292	1.037314
F297	F	0.676548	-0.454644	0.481665
F298	F	0.926548	-0.204644	0.731665
F299	F	1.176548	0.045356	0.981665
F300	F	1.426548	0.295356	1.231665
H301	H	0.686792	-0.270709	0.287305
H302	H	0.936792	-0.020709	0.537305
H303	H	1.186792	0.229291	0.787305
H304	H	1.436792	0.479291	1.037305
F305	F	0.845775	-0.258840	0.274754
F306	F	1.095775	-0.008840	0.524754
F307	F	1.345775	0.241160	0.774754
F308	F	1.595775	0.491160	1.024754
F309	F	1.239059	-0.786638	0.480832
F310	F	1.489059	-0.536638	0.730832
F311	F	1.739059	-0.286638	0.980832
F312	F	1.989059	-0.036638	1.230832
F313	F	1.238143	-0.258846	0.920457
F314	F	1.488143	-0.008846	1.170457
F315	F	1.738143	0.241154	1.420457
F316	F	1.988143	0.491154	1.670457
F317	F	0.592921	-0.454657	0.481669
F318	F	0.842921	-0.204657	0.731669
F319	F	1.092921	0.045343	0.981669
F320	F	1.342921	0.295343	1.231669
F321	F	0.423695	-0.258876	0.274793
F322	F	0.673695	-0.008876	0.524793
F323	F	0.923695	0.241124	0.774793
F324	F	1.173695	0.491124	1.024793
H325	H	1.087793	-0.919793	0.500595
H326	H	1.337793	-0.669793	0.750595
H327	H	1.587793	-0.419793	1.000595
H328	H	1.837793	-0.169793	1.250595
F329	F	1.091945	-0.786093	0.519044
F330	F	1.341945	-0.536093	0.769044
F331	F	1.591945	-0.286093	1.019044
F332	F	1.841945	-0.036093	1.269044
H333	H	1.012081	-0.793205	0.424826
H334	H	1.262081	-0.543205	0.674826
H335	H	1.512081	-0.293205	0.924826
H336	H	1.762081	-0.043205	1.174826
H337	H	1.050855	-0.919018	0.277907
H338	H	1.300855	-0.669018	0.527907
H339	H	1.550855	-0.419018	0.777907
H340	H	1.800855	-0.169018	1.027907
F341	F	1.279028	-0.785261	0.347586
F342	F	1.529028	-0.535261	0.597586
F343	F	1.779028	-0.285261	0.847586
F344	F	2.029028	-0.035261	1.097586
H345	H	1.225604	-0.270640	1.079432
H346	H	1.475604	-0.020640	1.329432
H347	H	1.725604	0.229360	1.579432
H348	H	1.975604	0.479360	1.829432
