data_functionalizedCrystal
_audit_creation_method	'MofGen! by Chris Wilmer'
_symmetry_space_group_name_H-M	'P1'
_symmetry_Int_Tables_number	1
_symmetry_cell_setting	triclinic
loop_
_symmetry_equiv_pos_as_xyz
  x,y,z
_cell_length_a	6.817900
_cell_length_b	15.301126
_cell_length_c	10.943624
_cell_angle_alpha	93.526548
_cell_angle_beta	108.838799
_cell_angle_gamma	104.177575
loop_
_atom_site_label
_atom_site_type_symbol
_atom_site_fract_x
_atom_site_fract_y
_atom_site_fract_z
V1	V	-4.091711	-0.124735	-0.402943
O2	O	-4.074352	0.006018	-0.394869
O3	O	-4.046281	-0.247352	-0.400576
O4	O	-4.070041	-0.122806	-0.578504
O5	O	-4.050427	-0.119390	-0.215710
V6	V	-4.571490	-0.109097	-0.380502
O7	O	-4.361181	-0.159039	-0.452171
O8	O	-4.752217	-0.074793	-0.331274
O9	O	-4.393714	0.013520	-0.382869
O10	O	-4.706246	-0.239850	-0.388576
O11	O	-4.730171	-0.114442	-0.567735
O12	O	-4.369953	-0.111026	-0.204941
C13	C	-3.891139	-0.277244	-0.394320
C14	C	-3.935460	-0.377485	-0.393554
C15	C	-4.139502	-0.429171	-0.399649
C16	C	-4.181137	-0.523358	-0.398937
C17	C	-4.018724	-0.565857	-0.392121
C18	C	-3.814667	-0.514165	-0.386030
C19	C	-3.773039	-0.419980	-0.386751
C20	C	-3.901445	-0.710476	-0.384525
C21	C	-3.943074	-0.804667	-0.383801
C22	C	-4.309544	-0.813854	-0.396711
C23	C	-4.267915	-0.719669	-0.397432
C24	C	-4.063859	-0.667983	-0.391338
C25	C	-3.921447	-0.118371	-0.621283
C26	C	-3.985033	-0.117605	-0.764807
C27	C	-3.830847	-0.112446	-0.841938
C28	C	-4.005603	-0.189024	-0.948169
C29	C	-3.923600	-0.039671	-0.914312
C30	C	-4.158986	-0.194255	-0.869161
C31	C	-4.076916	-0.044835	-0.835281
C32	C	-4.251805	-0.121434	-0.941482
C33	C	-4.212197	0.043407	-0.389122
C34	C	-4.147116	0.143647	-0.389896
C35	C	-4.181889	-0.115463	-0.162156
C36	C	-4.097541	-0.116225	-0.018630
H37	H	-3.810839	-0.839271	-0.378290
H38	H	-4.430391	-0.125252	-0.984739
H39	H	-4.400166	-0.685068	-0.402974
H40	H	-4.475686	-0.855939	-0.401653
H41	H	-3.735289	-0.668397	-0.379573
H42	H	-3.682434	-0.548776	-0.380489
N43	N	-3.594417	-0.107551	-0.784348
H44	H	-3.515996	-0.050827	-0.717160
H45	H	-3.530918	-0.105417	-0.856059
H46	H	-4.106317	0.016126	-0.786105
N47	N	-3.792620	0.046876	-0.941478
H48	H	-3.837839	0.047047	-1.038896
H49	H	-3.634286	0.050139	-0.905020
N50	N	-4.314683	-0.383335	-0.407012
H51	H	-4.265707	-0.335710	-0.327166
H52	H	-4.450198	-0.430433	-0.410815
H53	H	-4.347286	-0.565437	-0.403902
H54	H	-4.257898	-0.259658	-0.848822
N55	N	-3.552962	-0.364236	-0.380184
H56	H	-3.440206	-0.369862	-0.296803
H57	H	-3.551429	-0.298148	-0.381736
H58	H	-3.976118	-0.249982	-0.997309
