data_functionalizedCrystal
_audit_creation_method	'MofGen! by Chris Wilmer'
_symmetry_space_group_name_H-M	'P1'
_symmetry_Int_Tables_number	1
_symmetry_cell_setting	triclinic
loop_
_symmetry_equiv_pos_as_xyz
  x,y,z
_cell_length_a	6.817900
_cell_length_b	19.452420
_cell_length_c	23.753023
_cell_angle_alpha	96.744546
_cell_angle_beta	100.067528
_cell_angle_gamma	101.696715
loop_
_atom_site_label
_atom_site_type_symbol
_atom_site_fract_x
_atom_site_fract_y
_atom_site_fract_z
V1	V	-3.979838	-0.098071	-0.178671
O2	O	-3.977365	0.003800	-0.174981
O3	O	-3.922904	-0.193581	-0.177726
O4	O	-3.914974	-0.096963	-0.256469
O5	O	-3.985350	-0.093487	-0.095693
V6	V	-4.466705	-0.085839	-0.168712
O7	O	-4.233761	-0.124904	-0.200515
O8	O	-4.662979	-0.059006	-0.146868
O9	O	-4.300432	0.009671	-0.169657
O10	O	-4.586575	-0.187710	-0.172401
O11	O	-4.578590	-0.090424	-0.251690
O12	O	-4.308362	-0.086947	-0.090914
C13	C	-3.766361	-0.216852	-0.174979
C14	C	-3.800988	-0.294935	-0.174724
C15	C	-3.789108	-0.321303	-0.122173
C16	C	-3.821719	-0.394668	-0.121917
C17	C	-3.866170	-0.441663	-0.174214
C18	C	-3.878061	-0.415288	-0.226773
C19	C	-3.845470	-0.341924	-0.227028
N20	N	-3.825173	-0.562294	-0.211046
N21	N	-3.856127	-0.631986	-0.210800
C22	C	-3.964370	-0.662704	-0.173449
N23	N	-4.040460	-0.621096	-0.136344
N24	N	-4.009494	-0.551397	-0.136588
C25	C	-3.901513	-0.521215	-0.173944
C26	C	-3.987850	-0.768623	-0.120617
C27	C	-4.020475	-0.841990	-0.120363
C28	C	-4.076798	-0.862608	-0.225219
C29	C	-4.044193	-0.789242	-0.225472
C30	C	-3.999711	-0.742253	-0.173169
C31	C	-3.756246	-0.093605	-0.275422
C32	C	-3.784440	-0.093331	-0.339024
C33	C	-3.992103	-0.156082	-0.741796
C34	C	-4.018628	-0.155836	-0.801558
O35	O	-4.060131	-0.210448	-0.839576
N36	N	-3.999291	-0.091345	-0.823091
C37	C	-3.953446	-0.027097	-0.784857
O38	O	-3.939435	0.027779	-0.808659
C39	C	-3.926936	-0.027345	-0.725095
C40	C	-3.946256	-0.091839	-0.703567
C41	C	-4.011423	-0.220571	-0.720266
C42	C	-3.984896	-0.220817	-0.660507
C43	C	-3.939049	-0.156574	-0.622278
C44	C	-3.919729	-0.092085	-0.643808
C45	C	-3.881106	0.036902	-0.686863
C46	C	-3.854599	0.036649	-0.627098
C47	C	-3.873919	-0.027846	-0.605569
C48	C	-3.847356	-0.028089	-0.545820
N49	N	-3.866693	-0.092579	-0.524288
C50	C	-3.912540	-0.156822	-0.562517
C51	C	-4.009124	-0.026583	-0.910360
C52	C	-4.035619	-0.026334	-0.970120
C53	C	-4.100803	-0.155073	-0.986818
C54	C	-4.074293	-0.155320	-0.927057
C55	C	-4.028461	-0.091073	-0.888828
C56	C	-3.856827	-0.157334	-0.437019
C57	C	-3.830286	-0.157574	-0.377254
C58	C	-3.765115	-0.028836	-0.360561
C59	C	-3.791642	-0.028595	-0.420321
C60	C	-3.837507	-0.092850	-0.458549
O61	O	-3.805858	0.026496	-0.507768
O62	O	-3.926568	-0.211690	-0.538706
C63	C	-4.120317	0.032938	-0.172403
C64	C	-4.064928	0.111020	-0.172661
C65	C	-4.130433	-0.090307	-0.071958
C66	C	-4.081479	-0.090578	-0.008355
H67	H	-3.894169	-0.209656	-0.468137
H68	H	-4.019856	0.026184	-0.987643
C69	C	-4.163819	-0.299022	-0.605716
C70	C	-4.006213	-0.291690	-0.636813
H71	H	-4.176991	-0.342770	-0.591079
H72	H	-4.288667	-0.298502	-0.630560
H73	H	-4.132665	-0.260769	-0.574413
H74	H	-4.037374	-0.329940	-0.668118
H75	H	-3.881338	-0.292215	-0.611967
H76	H	-3.812040	-0.416141	-0.079122
H77	H	-4.112992	-0.900871	-0.267801
H78	H	-4.053854	-0.767774	-0.268264
C79	C	-3.952997	-0.536904	-0.272938
C80	C	-3.926913	-0.466941	-0.284259
H81	H	-3.983150	-0.568791	-0.308429
H82	H	-4.062659	-0.546974	-0.253192
H83	H	-3.830851	-0.542397	-0.249521
H84	H	-4.049064	-0.461447	-0.307672
H85	H	-3.817241	-0.456868	-0.304013
C86	C	-3.947324	0.100696	-0.899867
C87	C	-3.958703	0.044045	-0.868341
H88	H	-3.916186	0.144298	-0.873927
H89	H	-4.074917	0.095863	-0.925388
H90	H	-3.843122	0.100354	-0.921660
H91	H	-4.062916	0.044385	-0.846551
H92	H	-3.831093	0.048880	-0.842810
C93	C	-4.073146	-0.347842	-0.730751
C94	C	-4.061802	-0.291195	-0.762282
H95	H	-4.104224	-0.391444	-0.756688
H96	H	-4.177353	-0.347512	-0.708967
H97	H	-3.945537	-0.342992	-0.705221
H98	H	-4.189416	-0.296043	-0.787808
H99	H	-3.957588	-0.291527	-0.784076
C100	C	-4.009101	-0.235887	-0.322495
C101	C	-3.851518	-0.228476	-0.353599
H102	H	-4.022194	-0.279658	-0.307893
H103	H	-4.133978	-0.235366	-0.347324
H104	H	-3.977979	-0.197667	-0.291166
H105	H	-3.882647	-0.266694	-0.384930
H106	H	-3.726613	-0.229004	-0.328768
H107	H	-4.090027	-0.207837	-0.909532
H108	H	-3.865353	0.089420	-0.704380
H109	H	-3.775920	0.023921	-0.437850
C110	C	-3.961474	-0.814236	-0.016743
C111	C	-4.007411	-0.870976	-0.062594
H112	H	-3.953397	-0.832132	0.018921
H113	H	-4.065823	-0.788334	-0.020852
H114	H	-3.834027	-0.783767	-0.017199
H115	H	-4.134866	-0.901442	-0.062141
H116	H	-3.903056	-0.896889	-0.058484
H117	H	-3.855153	-0.320457	-0.269822
C118	C	-4.089375	-0.677515	-0.062786
C119	C	-3.938986	-0.716962	-0.063131
H120	H	-4.059200	-0.645620	-0.027299
H121	H	-4.219139	-0.708847	-0.066696
H122	H	-4.091750	-0.651316	-0.094127
H123	H	-3.936622	-0.743165	-0.031793
H124	H	-3.809188	-0.685626	-0.059215
C125	C	-3.792848	0.163927	-0.616601
C126	C	-3.804206	0.107274	-0.585078
H127	H	-3.761722	0.207527	-0.590659
H128	H	-3.920444	0.159091	-0.642121
H129	H	-3.688645	0.163592	-0.638394
H130	H	-3.908420	0.107606	-0.563288
H131	H	-3.676593	0.112111	-0.559547
C132	C	-4.339325	-0.232793	-1.066465
C133	C	-4.151231	-0.225694	-1.028846
H134	H	-4.370458	-0.276391	-1.092409
H135	H	-4.331584	-0.194350	-1.087835
H136	H	-4.443503	-0.232463	-1.044662
H137	H	-4.047050	-0.226018	-1.050649
H138	H	-4.158957	-0.264146	-1.007475
C139	C	-3.736690	-0.308297	-0.018502
C140	C	-3.740226	-0.269654	-0.064683
H141	H	-3.706522	-0.276409	0.016989
H142	H	-3.634682	-0.335055	-0.018754
H143	H	-3.866485	-0.339627	-0.022419
H144	H	-3.610426	-0.238328	-0.060768
H145	H	-3.842240	-0.242884	-0.064430
C146	C	-3.695541	0.027933	-0.261534
C147	C	-3.714724	0.041777	-0.318532
H148	H	-3.664453	0.071528	-0.235587
H149	H	-3.588684	0.003705	-0.253309
H150	H	-3.820496	-0.000813	-0.257048
H151	H	-3.589764	0.070520	-0.323019
H152	H	-3.821590	0.066017	-0.326760
