data_functionalizedCrystal
_audit_creation_method	'MofGen! by Chris Wilmer'
_symmetry_space_group_name_H-M	'P1'
_symmetry_Int_Tables_number	1
_symmetry_cell_setting	triclinic
loop_
_symmetry_equiv_pos_as_xyz
  x,y,z
_cell_length_a	10.540510
_cell_length_b	9.016244
_cell_length_c	19.288865
_cell_angle_alpha	89.988012
_cell_angle_beta	96.175221
_cell_angle_gamma	90.002604
loop_
_atom_site_label
_atom_site_type_symbol
_atom_site_fract_x
_atom_site_fract_y
_atom_site_fract_z
O1	O	1.683726	0.123369	-0.097786
O2	O	1.314102	0.123371	-0.107030
O3	O	1.509594	0.123341	-0.001349
O4	O	1.488233	0.123400	-0.203468
O5	O	1.509586	-0.123340	-0.001341
O6	O	1.314094	-0.123309	-0.107022
O7	O	1.683717	-0.123312	-0.097778
Cu8	Cu	1.498905	-0.145835	-0.102400
Cu9	Cu	1.498914	0.145894	-0.102409
O10	O	1.488225	-0.123281	-0.203460
C11	C	1.266809	0.000031	-0.106337
C12	C	1.125905	0.000031	-0.104276
N13	N	1.498907	-0.351021	-0.102393
C14	C	0.906814	0.000619	-0.177693
C15	C	1.053360	0.000055	-0.179892
C16	C	1.082004	-0.140844	-0.065564
C17	C	0.935280	-0.140953	-0.063902
C18	C	0.935518	0.139568	-0.062336
C19	C	1.081779	0.141422	-0.065922
C20	C	1.603864	-0.586024	-0.046055
C21	C	1.603590	-0.414133	-0.045840
C22	C	1.366568	-0.413451	-0.085915
C23	C	1.367193	-0.585395	-0.085519
C24	C	1.525123	-0.585503	-0.175405
C25	C	1.528129	-0.413548	-0.174928
C26	C	1.731010	0.000032	-0.098471
C27	C	1.871914	0.000042	-0.100532
C28	C	1.508903	-0.000004	0.024536
C29	C	1.506839	-0.000017	0.101654
N30	N	1.498922	0.351080	-0.102411
C31	C	1.488917	0.000067	-0.229345
C32	C	1.490980	0.000090	-0.306462
C33	C	1.621545	-0.000025	0.145591
C34	C	1.619607	-0.000002	0.218051
C35	C	1.502956	-0.000000	0.246570
C36	C	1.388235	0.000016	0.202623
C37	C	1.390177	0.000008	0.130165
C38	C	1.411252	-0.086406	0.355467
C39	C	1.409315	-0.086407	0.427924
C40	C	1.496963	0.000033	0.470055
C41	C	1.586569	0.086455	0.439722
C42	C	1.588510	0.086446	0.367264
C43	C	1.500838	0.000010	0.325138
C44	C	1.609575	0.000053	0.592563
C45	C	1.607632	0.000085	0.665024
C46	C	1.376256	0.000089	0.649594
C47	C	1.378203	0.000071	0.577135
C48	C	1.494866	0.000046	0.548624
H49	H	1.082035	0.101043	-0.210177
H50	H	1.081082	-0.101083	-0.210354
N51	N	1.685145	0.179658	0.334548
H52	H	1.639335	0.253555	0.301366
H53	H	1.740435	0.113346	0.308167
N54	N	0.907858	0.140809	0.012865
H55	H	0.812577	0.144662	0.014937
H56	H	0.949036	0.230688	0.037096
N57	N	1.148396	0.152674	0.007204
H58	H	1.118159	0.244481	0.030523
H59	H	1.243611	0.158892	0.005238
N60	N	1.681118	0.179688	0.485153
H61	H	1.633706	0.253608	0.512096
H62	H	1.738147	0.234327	0.454895
N63	N	1.581438	-0.359653	0.025889
H64	H	1.656464	-0.297436	0.045610
H65	H	1.571778	-0.447408	0.057445
N66	N	1.582064	-0.643268	0.025277
H67	H	1.649879	-0.602334	0.061170
H68	H	1.586500	-0.755164	0.025456
N69	N	1.254486	0.000049	0.529737
H70	H	1.250136	0.091489	0.499318
H71	H	1.180361	-0.000005	0.558843
N72	N	0.850380	0.134439	-0.216727
H73	H	0.801638	0.195990	-0.184774
H74	H	0.790627	0.100722	-0.258174
N75	N	1.733911	-0.358204	-0.058962
H76	H	1.792055	-0.445248	-0.064938
H77	H	1.770601	-0.296156	-0.018042
N78	N	1.122051	-0.279687	-0.101181
H79	H	1.043985	-0.340086	-0.117844
H80	H	1.180400	-0.340235	-0.067158
H81	H	0.862651	-0.099821	-0.206979
N82	N	1.250437	0.000107	0.680343
H83	H	1.266610	0.000116	0.732913
H84	H	1.200252	-0.091340	0.664322
N85	N	1.735397	0.000026	0.561806
H86	H	1.741367	0.091456	0.532069
H87	H	1.741266	-0.091494	0.532139
H88	H	0.894470	-0.246243	-0.090351
N89	N	0.906475	-0.149450	0.011009
H90	H	0.989058	-0.153115	0.042805
H91	H	0.855009	-0.241780	0.017850
H92	H	0.892442	0.246343	-0.086185
N93	N	1.266454	0.000018	0.082769
H94	H	1.192258	0.000027	0.111828
H95	H	1.262216	-0.091437	0.052383
N96	N	1.262412	0.000016	0.233373
H97	H	1.256452	0.091461	0.263083
H98	H	1.256519	-0.091489	0.263065
H99	H	1.336347	-0.156768	0.452615
H100	H	1.702584	-0.627360	-0.055814
H101	H	1.339876	-0.156804	0.321169
H102	H	1.109773	0.245640	-0.094089
N103	N	1.336544	-0.638576	-0.014977
H104	H	1.322754	-0.550323	0.015570
H105	H	1.409850	-0.700064	0.007483
H106	H	1.130634	-0.146099	-0.009898
N107	N	1.650188	-0.642918	-0.196176
H108	H	1.722034	-0.611631	-0.160264
H109	H	1.664992	-0.600833	-0.243162
N110	N	1.423804	-0.639468	-0.230977
H111	H	1.441142	-0.598400	-0.277758
H112	H	1.337279	-0.604767	-0.219673
N113	N	1.260685	-0.640526	-0.137779
H114	H	1.213533	-0.553128	-0.160967
H115	H	1.199696	-0.702654	-0.113067
N116	N	1.260642	-0.359292	-0.138788
H117	H	1.277130	-0.393437	-0.186875
H118	H	1.257424	-0.247375	-0.137678
N119	N	1.657067	-0.359489	-0.191490
H120	H	1.714503	-0.447302	-0.197224
H121	H	1.696299	-0.294739	-0.152160
N122	N	1.335110	-0.356474	-0.016168
H123	H	1.331224	-0.244561	-0.017254
H124	H	1.403277	-0.389526	0.021477
H125	H	1.701043	0.000087	0.700798
H126	H	1.456613	-0.370582	-0.218878
H127	H	1.716541	-0.000041	0.122383
H128	H	1.713017	-0.000003	0.253832
