data_functionalizedCrystal
_audit_creation_method	'MofGen! by Chris Wilmer'
_symmetry_space_group_name_H-M	'P1'
_symmetry_Int_Tables_number	1
_symmetry_cell_setting	triclinic
loop_
_symmetry_equiv_pos_as_xyz
  x,y,z
_cell_length_a	12.759395
_cell_length_b	19.805406
_cell_length_c	19.805399
_cell_angle_alpha	90.014352
_cell_angle_beta	90.016240
_cell_angle_gamma	90.001503
loop_
_atom_site_label
_atom_site_type_symbol
_atom_site_fract_x
_atom_site_fract_y
_atom_site_fract_z
Zn1	Zn	1.606332	-0.269451	0.382722
Zn2	Zn	1.606281	-0.382639	0.269560
Zn3	Zn	1.430643	-0.269473	0.269553
Zn4	Zn	1.430668	-0.382606	0.382713
O5	O	1.518481	-0.326042	0.326137
O6	O	1.753346	-0.284470	0.367717
O7	O	1.582951	-0.367650	0.174842
O8	O	1.453960	-0.174753	0.284566
O9	O	1.753309	-0.367629	0.284577
O10	O	1.583038	-0.174737	0.367710
O11	O	1.453910	-0.284507	0.174837
O12	O	1.283625	-0.284475	0.284557
O13	O	1.454002	-0.367573	0.477431
O14	O	1.283643	-0.367594	0.367696
O15	O	1.583061	-0.284438	0.477437
O16	O	1.582974	-0.477352	0.284569
O17	O	1.453952	-0.477327	0.367702
C18	C	1.245513	-0.326034	0.326125
C19	C	1.128737	-0.326047	0.326136
C20	C	1.518489	-0.501898	0.326150
C21	C	1.518588	-0.577130	0.326178
C22	C	1.518540	-0.326000	0.502680
C23	C	1.518565	-0.325982	0.577912
C24	C	1.128794	-0.412739	0.412568
C25	C	1.073962	-0.456090	0.455786
C26	C	0.964240	-0.456098	0.455794
C27	C	0.909348	-0.412749	0.412581
C28	C	0.964181	-0.369398	0.369364
C29	C	1.073905	-0.369396	0.369358
C30	C	0.964123	-0.282704	0.282936
C31	C	1.073845	-0.282698	0.282923
C32	C	0.909231	-0.239355	0.239723
C33	C	0.964063	-0.196006	0.196501
C34	C	1.073792	-0.196000	0.196494
C35	C	1.128677	-0.239347	0.239706
C36	C	1.792514	-0.326051	0.326149
C37	C	1.909291	-0.326055	0.326154
C38	C	1.518502	-0.149500	0.326138
C39	C	1.518511	-0.074268	0.326139
C40	C	1.451315	-0.038931	0.282852
C41	C	1.451322	0.031758	0.282859
C42	C	1.518530	0.067108	0.326151
C43	C	1.585728	0.031766	0.369443
C44	C	1.585716	-0.038921	0.369438
C45	C	1.585780	0.316839	0.369463
C46	C	1.585790	0.387531	0.369463
C47	C	1.451386	0.387518	0.282884
C48	C	1.451373	0.316831	0.282879
C49	C	1.518567	0.281495	0.326173
C50	C	1.518558	0.204847	0.326166
C51	C	1.518545	0.143755	0.326156
C52	C	1.518483	-0.326036	0.150281
C53	C	1.518661	-0.325864	0.075049
C54	C	1.585768	-0.282691	0.613260
C55	C	1.585779	-0.282672	0.683949
C56	C	1.518591	-0.325946	0.719287
C57	C	1.451381	-0.369239	0.683934
C58	C	1.451365	-0.369254	0.613247
C59	C	1.451440	-0.369176	0.969007
C60	C	1.451463	-0.369158	1.039699
C61	C	1.585853	-0.282593	1.039709
C62	C	1.585838	-0.282608	0.969022
C63	C	1.518624	-0.325898	0.933675
C64	C	1.518612	-0.325918	0.857026
C65	C	1.518608	-0.325930	0.795934
H66	H	1.218135	-0.412741	0.412561
H67	H	0.820007	-0.412754	0.412598
C68	C	1.133456	-0.149042	0.149531
C69	C	1.196441	-0.187300	0.106089
C70	C	1.251426	-0.144065	0.062823
H71	H	1.085169	-0.123213	0.123734
H72	H	1.176335	-0.119597	0.175450
H73	H	1.153566	-0.216734	0.080173
H74	H	1.244748	-0.213128	0.131867
H75	H	1.294305	-0.114620	0.088742
H76	H	1.203131	-0.118238	0.037031
H77	H	1.294175	-0.170017	0.033347
H78	H	1.396671	-0.404471	0.712712
C79	C	1.658716	0.426035	0.416399
C80	C	1.644364	0.495503	0.407120
C81	C	1.711531	0.530994	0.450335
H82	H	1.643413	0.414545	0.461902
H83	H	1.729327	0.414485	0.406495
H84	H	1.573769	0.507049	0.417028
H85	H	1.659675	0.507013	0.361625
H86	H	1.782142	0.519443	0.440432
H87	H	1.696222	0.519498	0.495836
H88	H	1.701809	0.578131	0.444041
C89	C	0.790104	-0.239237	0.239801
C90	C	0.753798	-0.174830	0.257195
C91	C	0.644065	-0.174700	0.257279
H92	H	0.765130	-0.250838	0.196126
H93	H	0.765268	-0.271234	0.271747
H94	H	0.778623	-0.142844	0.225250
H95	H	0.778744	-0.163217	0.300870
H96	H	0.619229	-0.206697	0.289225
H97	H	0.619101	-0.186304	0.213603
H98	H	0.619417	-0.131003	0.269086
C99	C	1.378456	-0.077430	0.235875
C100	C	1.392843	-0.146899	0.245121
C101	C	1.325749	-0.182383	0.201852
H102	H	1.307829	-0.065920	0.245737
H103	H	1.393828	-0.065893	0.190384
H104	H	1.377465	-0.158431	0.290601
H105	H	1.463456	-0.158429	0.235254
H106	H	1.341120	-0.170846	0.156361
H107	H	1.255126	-0.170868	0.211718
H108	H	1.335508	-0.229521	0.208115
H109	H	1.396669	0.416296	0.247633
H110	H	1.640506	0.288077	0.404708
H111	H	1.396605	0.060529	0.247612
H112	H	1.640447	0.060552	0.404695
C113	C	1.378287	0.278573	0.235851
C114	C	1.319419	0.324651	0.197956
C115	C	1.252067	0.289434	0.154635
H116	H	1.418343	0.250987	0.206300
H117	H	1.332459	0.251021	0.261727
H118	H	1.365241	0.352191	0.172082
H119	H	1.279342	0.352239	0.227489
H120	H	1.206239	0.261882	0.180510
H121	H	1.292132	0.261849	0.125088
H122	H	1.212110	0.320692	0.128922
C123	C	1.133749	-0.503129	0.502625
C124	C	1.241575	-0.493860	0.493358
C125	C	1.296678	-0.537186	0.536489
H126	H	1.115921	-0.493333	0.548148
H127	H	1.115824	-0.548607	0.492636
H128	H	1.259492	-0.448392	0.503352
H129	H	1.259434	-0.503661	0.447844
H130	H	1.278753	-0.582664	0.526500
H131	H	1.278842	-0.527387	0.582009
H132	H	1.369843	-0.530907	0.530202
H133	H	0.919596	-0.491395	0.490989
C134	C	1.658778	-0.077168	0.416468
C135	C	1.717655	-0.031082	0.454373
C136	C	1.784973	-0.066289	0.497704
H137	H	1.618697	-0.104733	0.446013
H138	H	1.704602	-0.104740	0.390600
H139	H	1.671837	-0.003521	0.480240
H140	H	1.757757	-0.003515	0.424846
H141	H	1.830797	-0.093861	0.471835
H142	H	1.744885	-0.093853	0.527244
H143	H	1.824936	-0.035025	0.523423
H144	H	1.640483	-0.247454	0.584493
H145	H	1.640505	-0.247422	0.712726
H146	H	1.640553	-0.247372	0.940253
H147	H	1.640578	-0.247342	1.068498
C148	C	1.378391	-0.416167	1.077947
C149	C	1.319502	-0.454068	1.031862
C150	C	1.252173	-0.497371	1.067071
H151	H	1.418464	-0.445715	1.105526
H152	H	1.332574	-0.390278	1.105505
H153	H	1.365312	-0.479955	1.004315
H154	H	1.279407	-0.424538	1.004281
H155	H	1.206357	-0.471482	1.094629
H156	H	1.292255	-0.526914	1.094649
H157	H	1.212202	-0.523087	1.035808
C158	C	1.378635	-0.416219	0.930558
C159	C	1.438090	-0.459608	0.889964
C160	C	1.371051	-0.502950	0.854529
H161	H	1.338609	-0.442050	0.961659
H162	H	1.332864	-0.390352	0.902943
H163	H	1.483843	-0.485472	0.917576
H164	H	1.478114	-0.433796	0.858851
H165	H	1.325280	-0.477084	0.826915
H166	H	1.331028	-0.528777	0.885635
H167	H	1.411380	-0.532391	0.826978
H168	H	0.919362	-0.160712	0.161324
H169	H	1.218018	-0.239348	0.239702
H170	H	1.396631	-0.404499	0.584467
