data_functionalizedCrystal
_audit_creation_method	'MofGen! by Chris Wilmer'
_symmetry_space_group_name_H-M	'P1'
_symmetry_Int_Tables_number	1
_symmetry_cell_setting	triclinic
loop_
_symmetry_equiv_pos_as_xyz
  x,y,z
_cell_length_a	17.019372
_cell_length_b	10.654550
_cell_length_c	9.130313
_cell_angle_alpha	89.998357
_cell_angle_beta	86.128321
_cell_angle_gamma	96.062946
loop_
_atom_site_label
_atom_site_type_symbol
_atom_site_fract_x
_atom_site_fract_y
_atom_site_fract_z
O1	O	1.047541	-0.159947	-0.010214
O2	O	0.817991	-0.180357	0.018716
O3	O	0.938044	0.012670	0.003580
O4	O	0.927488	-0.352974	0.004921
O5	O	0.938032	0.012669	-0.240017
O6	O	0.817979	-0.180359	-0.224882
O7	O	1.047530	-0.159948	-0.253812
Cu8	Cu	0.932753	-0.170154	-0.261589
Cu9	Cu	0.932767	-0.170152	0.026493
O10	O	0.927477	-0.352976	-0.238676
C11	C	0.788592	-0.179586	-0.099379
C12	C	0.701010	-0.177269	-0.088341
C13	C	0.205669	-0.164124	-0.019153
C14	C	0.287961	-0.166301	-0.029544
C15	C	0.329093	-0.167399	-0.167526
C16	C	0.287928	-0.166308	-0.295125
C17	C	0.205638	-0.164122	-0.284733
C18	C	0.577556	-0.173992	-0.205547
C19	C	0.659851	-0.176181	-0.215930
C20	C	0.659879	-0.176172	0.049652
C21	C	0.577587	-0.173993	0.060032
C22	C	0.536430	-0.172896	-0.067567
C23	C	0.413208	-0.169629	-0.178151
C24	C	0.452316	-0.170657	-0.056941
C25	C	0.937263	0.059455	-0.118119
C26	C	0.934944	0.198862	-0.117822
C27	C	1.076928	-0.160720	-0.135714
C28	C	1.164510	-0.163037	-0.146743
N29	N	0.932750	-0.170154	-0.464211
C30	C	0.928257	-0.399761	-0.116974
C31	C	0.930576	-0.539168	-0.117261
C32	C	1.005629	0.279458	-0.126735
C33	C	1.003446	0.410444	-0.126449
C34	C	0.859886	0.380227	-0.108343
C35	C	0.862070	0.249243	-0.108618
C36	C	1.078504	0.229077	-0.135938
C37	C	1.149195	0.309674	-0.144853
C38	C	1.147011	0.440661	-0.144568
C39	C	1.074137	0.491050	-0.135367
C40	C	0.879583	-0.255589	-0.534198
C41	C	0.879598	-0.255586	-0.687537
C42	C	0.985949	-0.084703	-0.700889
C43	C	0.985937	-0.084712	-0.547553
C44	C	0.826395	-0.341030	-0.450856
C45	C	0.773224	-0.426471	-0.520842
C46	C	0.773239	-0.426469	-0.674180
C47	C	0.826426	-0.341025	-0.757533
N48	N	0.932777	-0.170142	0.229114
H49	H	0.544103	-0.173097	0.172391
O50	O	0.327998	-0.167143	0.094348
C51	C	0.429305	-0.060907	0.235646
C52	C	0.384011	-0.059784	0.095291
H53	H	0.474613	0.025869	0.236440
H54	H	0.385816	-0.059676	0.336107
H55	H	0.461054	-0.149811	0.238250
H56	H	0.352260	0.029105	0.092544
H57	H	0.427537	-0.061082	-0.005106
O58	O	0.789168	0.429381	-0.099491
C59	C	0.722182	0.617780	-0.090966
C60	C	0.802324	0.562284	-0.101026
H61	H	0.732791	0.725239	-0.092172
H62	H	0.687196	0.584669	-0.188525
H63	H	0.687221	0.584503	0.015363
H64	H	0.837350	0.595536	-0.207294
H65	H	0.837249	0.595389	-0.003391
O66	O	0.721672	-0.509522	-0.439733
C67	C	0.705794	-0.681104	-0.264688
C68	C	0.764263	-0.587097	-0.356431
H69	H	0.740207	-0.743865	-0.197339
H70	H	0.666099	-0.626989	-0.187820
H71	H	0.667783	-0.742113	-0.341080
H72	H	0.802326	-0.526064	-0.280152
H73	H	0.803904	-0.641289	-0.433314
H74	H	0.693398	-0.177064	0.153535
H75	H	0.804512	0.183619	-0.101363
O76	O	0.721518	-0.509511	-0.741931
C77	C	0.616060	-0.679050	-0.712499
C78	C	0.674584	-0.585056	-0.635588
H79	H	0.578110	-0.740170	-0.626556
H80	H	0.576315	-0.624924	-0.779256
H81	H	0.650474	-0.741703	-0.788646
H82	H	0.640235	-0.522379	-0.559369
H83	H	0.714329	-0.639260	-0.568923
O84	O	1.037569	-0.001526	-0.781690
C85	C	1.082561	0.216888	-0.834327
C86	C	1.024073	0.122822	-0.742700
H87	H	1.071659	0.317444	-0.802859
H88	H	1.145844	0.200692	-0.812112
H89	H	1.073443	0.202154	-0.955934
H90	H	1.033119	0.137499	-0.621065
H91	H	0.960811	0.139041	-0.765040
O92	O	1.220049	0.260940	-0.153724
C93	C	1.362210	0.304738	-0.171725
C94	C	1.282021	0.360092	-0.161657
H95	H	1.412336	0.384876	-0.178172
H96	H	1.366880	0.244211	-0.070347
H97	H	1.366775	0.244132	-0.274225
H98	H	1.277403	0.420755	-0.059219
H99	H	1.277386	0.420548	-0.263107
O100	O	1.215655	0.519003	-0.152956
C101	C	1.296498	0.684464	-0.036986
C102	C	1.218735	0.595798	-0.027277
H103	H	1.299005	0.746593	0.064596
H104	H	1.348984	0.626012	-0.043518
H105	H	1.299048	0.746492	-0.139296
H106	H	1.216107	0.533752	0.075025
H107	H	1.166285	0.654325	-0.020826
H108	H	0.172185	-0.163239	0.093207
H109	H	0.693337	-0.177084	-0.328297
H110	H	0.544057	-0.173079	-0.309448
H111	H	0.321424	-0.167194	-0.407473
H112	H	0.172126	-0.163250	-0.388630
H113	H	0.418824	-0.169758	0.055403
H114	H	1.029231	-0.015144	-0.490571
H115	H	0.446706	-0.170525	-0.290496
O116	O	1.080768	0.101869	-0.136166
C117	C	1.162670	-0.069523	-0.146610
C118	C	1.160222	0.074562	-0.146328
H119	H	1.226903	-0.091646	-0.154857
H120	H	1.131510	-0.111846	-0.040710
H121	H	1.131399	-0.111750	-0.244588
H122	H	1.191502	0.116897	-0.048421
H123	H	1.191357	0.116793	-0.252292
H124	H	1.072364	0.597709	-0.135120
H125	H	0.826376	-0.341038	-0.325999
H126	H	0.826439	-0.341039	-0.882392
