data_functionalizedCrystal
_audit_creation_method	'MofGen! by Chris Wilmer'
_symmetry_space_group_name_H-M	'P1'
_symmetry_Int_Tables_number	1
_symmetry_cell_setting	triclinic
loop_
_symmetry_equiv_pos_as_xyz
  x,y,z
_cell_length_a	17.699083
_cell_length_b	9.730217
_cell_length_c	17.699083
_cell_angle_alpha	90.004134
_cell_angle_beta	83.283015
_cell_angle_gamma	89.995378
loop_
_atom_site_label
_atom_site_type_symbol
_atom_site_fract_x
_atom_site_fract_y
_atom_site_fract_z
O1	O	1.004073	0.114100	0.095710
O2	O	1.504073	0.614100	0.595710
O3	O	0.783694	0.114145	0.108162
O4	O	1.283694	0.614145	0.608162
O5	O	0.900110	0.114109	-0.008253
O6	O	1.400110	0.614109	0.491747
O7	O	0.887657	0.114136	0.212125
O8	O	1.387657	0.614136	0.712125
O9	O	0.900106	-0.114471	-0.008254
O10	O	1.400106	0.385529	0.491746
O11	O	0.783691	-0.114435	0.108161
O12	O	1.283691	0.385565	0.608161
O13	O	1.004069	-0.114480	0.095709
O14	O	1.504069	0.385520	0.595709
Zn15	Zn	0.893879	-0.150749	0.101935
Zn16	Zn	1.393879	0.349251	0.601935
Zn17	Zn	0.893884	0.150415	0.101936
Zn18	Zn	1.393884	0.650415	0.601936
O19	O	0.887654	-0.114444	0.212124
O20	O	1.387654	0.385556	0.712124
C21	C	0.755495	-0.000139	0.107716
C22	C	1.255495	0.499861	0.607716
C23	C	0.671477	-0.000122	0.106377
C24	C	1.171477	0.499878	0.606377
C25	C	0.622856	-0.000114	0.174710
C26	C	1.122856	0.499886	0.674710
C27	C	0.543913	-0.000132	0.173448
C28	C	1.043913	0.499868	0.673448
C29	C	0.513592	-0.000148	0.103852
C30	C	1.013592	0.499852	0.603852
C31	C	0.562219	-0.000160	0.035513
C32	C	1.062219	0.499840	0.535513
C33	C	0.641161	-0.000152	0.036776
C34	C	1.141161	0.499848	0.536776
C35	C	0.243856	-0.000195	0.030418
C36	C	0.743856	0.499805	0.530418
C37	C	0.164908	-0.000199	0.029160
C38	C	0.664908	0.499801	0.529160
C39	C	0.146608	-0.000175	0.167090
C40	C	0.646608	0.499825	0.667090
C41	C	0.225550	-0.000167	0.168353
C42	C	0.725550	0.499833	0.668353
C43	C	0.274170	-0.000186	0.100015
C44	C	0.774170	0.499814	0.600015
C45	C	0.359769	-0.000169	0.101384
C46	C	0.859769	0.499831	0.601384
C47	C	0.427995	-0.000155	0.102481
C48	C	0.927995	0.499845	0.602481
N49	N	0.893882	-0.356286	0.101934
N50	N	1.393882	0.143714	0.601934
C51	C	0.997009	-0.356309	-0.001123
C52	C	1.497009	0.143691	0.498877
C53	C	1.048578	-0.428260	-0.052649
C54	C	1.548578	0.071740	0.447351
C55	C	1.048586	-0.572139	-0.052649
C56	C	1.548586	-0.072139	0.447351
C57	C	0.997018	-0.644071	-0.001120
C58	C	1.497018	-0.144071	0.498880
C59	C	0.945449	-0.572120	0.050406
C60	C	1.445449	-0.072120	0.550406
C61	C	0.945448	-0.428237	0.050403
C62	C	1.445448	0.071763	0.550403
C63	C	0.842319	-0.572098	0.153458
C64	C	1.342319	-0.072098	0.653458
C65	C	0.842313	-0.428218	0.153463
C66	C	1.342313	0.071782	0.653463
C67	C	0.790751	-0.644029	0.204987
C68	C	1.290751	-0.144029	0.704987
C69	C	0.739184	-0.572078	0.256518
C70	C	1.239184	-0.072078	0.756518
C71	C	0.739179	-0.428190	0.256517
C72	C	1.239179	0.071810	0.756517
C73	C	0.790745	-0.356267	0.204989
C74	C	1.290745	0.143733	0.704989
C75	C	1.032268	-0.000193	0.096156
C76	C	1.532268	0.499807	0.596156
C77	C	1.116286	-0.000201	0.097494
C78	C	1.616286	0.499799	0.597494
C79	C	0.899662	-0.000181	-0.036451
C80	C	1.399662	0.499819	0.463549
C81	C	0.898323	-0.000181	-0.120469
C82	C	1.398323	0.499819	0.379531
N83	N	0.893888	0.355951	0.101932
N84	N	1.393888	0.855951	0.601932
C85	C	0.966656	-0.000197	-0.169090
C86	C	1.466656	0.499803	0.330910
C87	C	0.965394	-0.000185	-0.248033
C88	C	1.465394	0.499815	0.251967
C89	C	0.895798	-0.000166	-0.278354
C90	C	1.395798	0.499834	0.221646
C91	C	0.827459	-0.000146	-0.229727
C92	C	1.327459	0.499854	0.270273
C93	C	0.828722	-0.000149	-0.150785
C94	C	1.328722	0.499851	0.349215
C95	C	0.822364	-0.000134	-0.548090
C96	C	1.322364	0.499866	-0.048090
C97	C	0.821106	-0.000135	-0.627038
C98	C	1.321106	0.499865	-0.127038
C99	C	0.959036	-0.000170	-0.645338
C100	C	1.459036	0.499830	-0.145338
C101	C	0.960299	-0.000173	-0.566396
C102	C	1.460299	0.499827	-0.066396
C103	C	0.891961	-0.000145	-0.517776
C104	C	1.391961	0.499855	-0.017776
C105	C	0.893330	-0.000156	-0.432177
C106	C	1.393330	0.499844	0.067823
C107	C	0.894427	-0.000165	-0.363951
C108	C	1.394427	0.499835	0.136049
C109	C	0.888102	-0.000151	0.240322
C110	C	1.388102	0.499849	0.740322
C111	C	0.889440	-0.000142	0.324340
C112	C	1.389440	0.499858	0.824340
H113	H	0.140225	-0.000214	-0.027517
H114	H	0.640225	0.499786	0.472483
O115	O	0.790754	-0.799214	0.204989
O116	O	1.290754	-0.299214	0.704989
H117	H	0.802739	-0.837134	0.261521
H118	H	1.302739	-0.337134	0.761521
H119	H	1.023330	-0.000221	-0.144409
H120	H	1.523330	0.499779	0.355591
O121	O	0.258256	-0.000170	0.243417
O122	O	0.758256	0.499830	0.743417
H123	H	0.211183	-0.000187	0.290723
H124	H	0.711183	0.499813	0.790723
H125	H	0.283434	-0.000212	-0.025228
H126	H	0.783434	0.499788	0.474772
O127	O	0.529522	-0.000182	-0.039555
O128	O	1.029522	0.499818	0.460445
H129	H	0.466461	-0.000174	-0.028955
H130	H	0.966461	0.499826	0.471045
O131	O	1.039096	-0.000200	-0.300478
O132	O	1.539096	0.499800	0.199522
H133	H	1.041811	-0.093356	-0.336892
H134	H	1.541811	0.406644	0.163108
O135	O	0.683543	-0.350596	0.312083
O136	O	1.183543	0.149404	0.812083
H137	H	0.692192	-0.238461	0.303423
H138	H	1.192192	0.261539	0.803423
H139	H	0.790748	-0.239112	0.204986
H140	H	1.290748	0.260888	0.704986
O141	O	0.655551	-0.000105	0.249780
O142	O	1.155551	0.499895	0.749780
H143	H	0.691066	0.093069	0.253664
H144	H	1.191066	0.593069	0.753664
O145	O	0.094169	-0.000184	0.240803
O146	O	0.594169	0.499816	0.740803
H147	H	0.034181	-0.000213	0.228237
H148	H	0.534181	0.499787	0.728237
O149	O	1.035363	-0.000173	-0.533690
O150	O	1.535363	0.499827	-0.033690
H151	H	1.082669	-0.000163	-0.580763
H152	H	1.582669	0.499837	-0.080763
H153	H	0.997014	-0.239154	-0.001121
H154	H	1.497014	0.260846	0.498879
O155	O	0.683578	-0.649657	0.312101
O156	O	1.183578	-0.149657	0.812101
H157	H	0.624595	-0.622051	0.302532
H158	H	1.124595	-0.122051	0.802532
O159	O	1.032748	-0.000195	-0.697778
O160	O	1.532748	0.499805	-0.197778
H161	H	1.035485	0.092976	-0.734173
H162	H	1.535485	0.592976	-0.234173
H163	H	0.680748	-0.000158	-0.018868
H164	H	1.180748	0.499842	0.481132
H165	H	0.764429	-0.000123	-0.651721
H166	H	1.264429	0.499877	-0.151721
O167	O	0.752394	-0.000123	-0.262430
O168	O	1.252394	0.499877	0.237570
H169	H	0.705090	-0.000098	-0.215356
H170	H	1.205090	0.499902	0.284644
O171	O	0.748660	-0.000139	-0.495653
O172	O	1.248660	0.499861	0.004347
H173	H	0.700056	-0.000151	-0.530002
H174	H	1.200056	0.499849	-0.030002
H175	H	1.090563	-0.369680	-0.094605
H176	H	1.590563	0.130320	0.405395
O177	O	0.755019	-0.000150	-0.098341
O178	O	1.255019	0.499850	0.401659
H179	H	0.721702	0.093016	-0.109103
H180	H	1.221702	0.593016	0.390897
O181	O	0.491469	-0.000124	0.247150
O182	O	0.991469	0.499876	0.747150
H183	H	0.525815	-0.000095	0.295756
H184	H	1.025815	0.499905	0.795756
O185	O	1.104209	-0.649758	-0.108216
O186	O	1.604209	-0.149758	0.391784
H187	H	1.140071	-0.575575	-0.144044
H188	H	1.640071	-0.075575	0.355956
H189	H	0.997021	-0.761226	-0.001130
H190	H	1.497021	-0.261226	0.498870
