data_functionalizedCrystal
_audit_creation_method	'MofGen! by Chris Wilmer'
_symmetry_space_group_name_H-M	'P1'
_symmetry_Int_Tables_number	1
_symmetry_cell_setting	triclinic
loop_
_symmetry_equiv_pos_as_xyz
  x,y,z
_cell_length_a	28.938199
_cell_length_b	28.937346
_cell_length_c	28.934044
_cell_angle_alpha	60.005004
_cell_angle_beta	60.009897
_cell_angle_gamma	59.994060
loop_
_atom_site_label
_atom_site_type_symbol
_atom_site_fract_x
_atom_site_fract_y
_atom_site_fract_z
O1	O	0.064043	-0.675186	0.564597
O2	O	0.024124	-0.525682	0.454913
O3	O	0.118795	-0.620275	0.454833
O4	O	-0.030629	-0.580593	0.564678
O5	O	0.150204	-0.588870	0.486157
O6	O	0.055533	-0.494276	0.486238
O7	O	0.095452	-0.643780	0.595921
Cu8	Cu	0.078360	-0.566161	0.543940
Cu9	Cu	0.041215	-0.603301	0.506895
O10	O	0.000780	-0.549187	0.596002
N11	N	0.104487	-0.540042	0.569998
N12	N	0.015094	-0.629425	0.480837
C13	C	0.165467	-0.323909	0.630915
C14	C	0.165587	-0.479117	0.786068
C15	C	0.165481	-0.479095	0.630906
C16	C	0.320696	-0.479083	0.630835
C17	C	0.182557	-0.375118	0.647971
C18	C	0.182626	-0.462038	0.734858
C19	C	0.269485	-0.462018	0.647928
C20	C	0.182566	-0.462025	0.647966
C21	C	0.143714	-0.258726	0.609206
C22	C	0.143738	-0.500820	0.609192
C23	C	0.204309	-0.440300	0.669680
C24	C	0.415481	-0.462740	0.580919
C25	C	0.474732	-0.482485	0.561145
C26	C	0.474757	-0.578356	0.597704
C27	C	0.415508	-0.558609	0.617479
C28	C	0.157989	-0.229089	0.550957
C29	C	0.138212	-0.169834	0.531225
C30	C	0.089890	-0.169857	0.627992
C31	C	0.109667	-0.229112	0.647725
C32	C	0.085482	-0.486515	0.623535
C33	C	0.065722	-0.506265	0.603789
C34	C	0.162467	-0.554625	0.555370
C35	C	0.182230	-0.534875	0.575110
C36	C	0.085661	-0.486557	0.880902
C37	C	0.065952	-0.506323	0.940155
C38	C	0.162734	-0.554693	0.940102
C39	C	0.182441	-0.534928	0.880847
C40	C	0.143904	-0.500859	0.851249
C41	C	0.385871	-0.500801	0.609083
C42	C	-0.110907	-0.668480	0.441278
C43	C	-0.024049	-0.668588	0.441475
C44	C	-0.045729	-0.690282	0.419668
C45	C	-0.062146	-0.785032	0.469507
C46	C	-0.042446	-0.844287	0.489286
C47	C	0.053426	-0.844399	0.452899
C48	C	0.033725	-0.785144	0.433120
C49	C	-0.140617	-0.682751	0.499509
C50	C	-0.199867	-0.662928	0.519152
C51	C	-0.199694	-0.614571	0.422330
C52	C	-0.140443	-0.634393	0.402687
C53	C	-0.038320	-0.610337	0.427144
C54	C	-0.018610	-0.590621	0.446974
C55	C	0.029642	-0.687402	0.495454
C56	C	0.009933	-0.707121	0.475630
C57	C	-0.038148	-0.610347	0.324832
C58	C	-0.018301	-0.590634	0.265579
C59	C	0.030035	-0.687421	0.265643
C60	C	0.010190	-0.707133	0.324897
C61	C	-0.023903	-0.668595	0.354491
C62	C	-0.024062	-0.755463	0.441426
N63	N	0.503527	-0.540005	0.569810
O64	O	0.684453	-0.545211	0.434650
O65	O	0.684643	-0.655237	0.584005
O66	O	0.684567	-0.654986	0.489282
O67	O	0.684529	-0.545462	0.529373
O68	O	0.590438	-0.623674	0.520735
O69	O	0.590513	-0.623924	0.615457
O70	O	0.590323	-0.513899	0.466102
Cu71	Cu	0.581823	-0.566053	0.543652
Cu72	Cu	0.693143	-0.603083	0.506456
O73	O	0.590399	-0.514149	0.560825
N74	N	0.771439	-0.629131	0.480292
N75	N	0.104456	-0.141061	0.570015
O76	O	-0.030629	0.039964	0.564688
O77	O	0.118732	0.039984	0.454661
O78	O	0.023980	0.039958	0.454946
O79	O	0.064123	0.039990	0.564403
O80	O	0.055392	-0.054179	0.486321
O81	O	0.150144	-0.054153	0.486036
O82	O	0.000784	-0.054173	0.596063
Cu83	Cu	0.078332	-0.062759	0.543914
Cu84	Cu	0.041183	0.048570	0.506810
O85	O	0.095535	-0.054147	0.595778
N86	N	0.015053	0.126872	0.480710
N87	N	0.104760	-0.540096	0.968910
O88	O	0.099447	-0.675167	1.149923
O89	O	-0.010552	-0.525757	1.149951
O90	O	-0.010297	-0.620493	1.149918
O91	O	0.099192	-0.580431	1.149956
O92	O	0.021064	-0.589100	1.055785
O93	O	0.020809	-0.494365	1.055818
O94	O	0.130808	-0.643774	1.055790
Cu95	Cu	0.078672	-0.566203	1.047209
Cu96	Cu	0.041584	-0.603328	1.158532
O97	O	0.130553	-0.549038	1.055823
N98	N	0.015495	-0.629442	1.236831
C99	C	0.036087	-0.491140	0.455465
C100	C	0.153325	-0.608283	0.455364
C101	C	0.083488	-0.678322	0.595370
C102	C	-0.033750	-0.561180	0.595470
C103	C	0.637601	-0.654732	0.618548
C104	C	0.637509	-0.654422	0.501245
C105	C	0.637362	-0.514403	0.431560
C106	C	0.637458	-0.514713	0.548862
C107	C	0.153215	-0.006966	0.455158
C108	C	0.035916	-0.007114	0.455550
C109	C	-0.033739	-0.007106	0.595527
C110	C	0.083600	-0.007076	0.595174
C111	C	-0.010020	-0.491238	1.102888
C112	C	-0.009698	-0.608550	1.102828
C113	C	0.130276	-0.678293	1.102853
C114	C	0.129961	-0.560974	1.102892
H115	H	0.018524	-0.494668	0.964293
H116	H	0.054136	-0.458786	0.651283
H117	H	0.637525	-0.688829	0.492664
C118	C	-0.091728	-0.549760	0.642072
C119	C	-0.095601	-0.553885	0.698991
C120	C	-0.153579	-0.542465	0.745592
C121	C	-0.207682	-0.526921	0.735275
C122	C	-0.203811	-0.522796	0.678353
C123	C	-0.145833	-0.534216	0.631752
H124	H	-0.055549	-0.565392	0.706631
H125	H	-0.156444	-0.545519	0.787729
H126	H	-0.250601	-0.518468	0.769772
H127	H	-0.243863	-0.511289	0.670713
H128	H	-0.142968	-0.531162	0.589614
H129	H	0.637450	-0.480310	0.557440
H130	H	0.637300	-0.479859	0.388668
C131	C	0.211041	-0.006601	0.408373
C132	C	0.257640	-0.006408	0.419602
C133	C	0.315465	-0.006043	0.372816
C134	C	0.326692	-0.005872	0.314802
C135	C	0.280092	-0.006066	0.303570
C136	C	0.222266	-0.006430	0.350356
H137	H	0.249330	-0.006534	0.462550
H138	H	0.349962	-0.005900	0.381131
H139	H	0.369498	-0.005602	0.280168
H140	H	0.288402	-0.005939	0.260622
H141	H	0.187770	-0.006574	0.342041
C142	C	0.024309	-0.007125	0.409092
C143	C	-0.033741	-0.007138	0.420696
C144	C	-0.045347	-0.007149	0.374238
C145	C	0.001097	-0.007147	0.316176
C146	C	0.059151	-0.007133	0.304570
C147	C	0.070757	-0.007122	0.351028
H148	H	-0.068125	-0.007140	0.463679
H149	H	-0.088323	-0.007159	0.382830
H150	H	-0.007495	-0.007155	0.281785
H151	H	0.093535	-0.007132	0.261587
H152	H	0.113733	-0.007113	0.342436
C153	C	0.507358	-0.641944	0.606935
C154	C	0.474789	-0.683814	0.637917
C155	C	0.507393	-0.747403	0.647148
C156	C	0.572566	-0.769123	0.625396
C157	C	0.605138	-0.727253	0.594412
C158	C	0.572535	-0.663663	0.585182
H159	H	0.426540	-0.667736	0.654021
H160	H	0.483280	-0.778398	0.670084
H161	H	0.596701	-0.816195	0.632229
H162	H	0.653387	-0.743330	0.578309
H163	H	0.596648	-0.632668	0.562246
H164	H	-0.044080	-0.617108	1.102779
C165	C	-0.091685	-0.007112	0.642194
C166	C	-0.138344	-0.007126	0.630905
C167	C	-0.196291	-0.007132	0.677572
C168	C	-0.207578	-0.007123	0.735527
C169	C	-0.160918	-0.007109	0.746818
C170	C	-0.102971	-0.007103	0.700152
H171	H	-0.129990	-0.007132	0.588001
H172	H	-0.230832	-0.007142	0.669213
H173	H	-0.250473	-0.007127	0.770073
H174	H	-0.169272	-0.007102	0.789723
H175	H	-0.068430	-0.007093	0.708511
C176	C	0.176433	-0.549399	1.102898
C177	C	0.234491	-0.595873	1.102891
C178	C	0.280964	-0.584298	1.102897
C179	C	0.269378	-0.526249	1.102911
C180	C	0.211317	-0.479770	1.102919
C181	C	0.164845	-0.491345	1.102912
H182	H	0.243070	-0.638849	1.102881
H183	H	0.323944	-0.618705	1.102892
H184	H	0.303779	-0.517680	1.102916
H185	H	0.202738	-0.436795	1.102929
H186	H	0.121864	-0.456939	1.102918
C187	C	-0.056677	-0.433271	1.102899
C188	C	-0.045372	-0.386627	1.102918
C189	C	-0.092029	-0.328660	1.102929
C190	C	-0.149991	-0.317336	1.102921
C191	C	-0.161299	-0.363980	1.102901
C192	C	-0.114642	-0.421948	1.102890
H193	H	-0.002462	-0.395009	1.102925
H194	H	-0.083658	-0.294131	1.102944
H195	H	-0.184530	-0.274425	1.102929
H196	H	-0.204208	-0.355599	1.102895
H197	H	-0.123013	-0.456477	1.102876
C198	C	0.095002	-0.736339	0.641911
C199	C	0.090938	-0.740277	0.698831
C200	C	0.102452	-0.798294	0.745372
C201	C	0.118031	-0.852374	0.734993
C202	C	0.122095	-0.848439	0.678070
C203	C	0.110581	-0.790421	0.631529
H204	H	0.079405	-0.700242	0.706517
H205	H	0.099443	-0.801207	0.787511
H206	H	0.126554	-0.895322	0.769445
H207	H	0.133628	-0.888473	0.670384
H208	H	0.113590	-0.787509	0.589390
H209	H	0.092195	-0.007066	0.629560
C210	C	0.052443	-0.137278	0.670362
C211	C	0.030688	-0.072100	0.648659
C212	C	-0.006759	-0.039523	0.691029
C213	C	-0.022452	-0.072124	0.755104
C214	C	-0.000698	-0.137306	0.776810
C215	C	0.036750	-0.169883	0.734440
H216	H	0.042305	-0.047963	0.601224
H217	H	-0.022864	0.008729	0.674960
H218	H	-0.050174	-0.048009	0.786469
H219	H	-0.012314	-0.161443	0.824245
H220	H	0.052855	-0.218135	0.750509
C221	C	0.176933	-0.736261	1.102842
C222	C	0.165628	-0.782904	1.102823
C223	C	0.212285	-0.840872	1.102812
C224	C	0.270247	-0.852196	1.102821
C225	C	0.281555	-0.805551	1.102841
C226	C	0.234898	-0.747584	1.102851
H227	H	0.122719	-0.774523	1.102816
H228	H	0.203914	-0.875401	1.102798
H229	H	0.304786	-0.895107	1.102813
H230	H	0.324464	-0.813933	1.102847
H231	H	0.243269	-0.713055	1.102865
C232	C	0.024572	-0.433125	0.408922
C233	C	-0.033449	-0.386585	0.420415
C234	C	-0.044965	-0.328569	0.373873
C235	C	0.001541	-0.317093	0.315838
C236	C	0.059565	-0.363634	0.304342
C237	C	0.071081	-0.421650	0.350884
H238	H	-0.067879	-0.395079	0.463379
H239	H	-0.087919	-0.294116	0.382383
H240	H	-0.006984	-0.274146	0.281384
H241	H	0.093995	-0.355140	0.261379
H242	H	0.114035	-0.456103	0.342374
C243	C	0.211301	-0.619704	0.408761
C244	C	0.265407	-0.635249	0.419076
C245	C	0.323383	-0.646670	0.372473
C246	C	0.327254	-0.642545	0.315556
C247	C	0.273146	-0.626999	0.305238
C248	C	0.215170	-0.615579	0.351841
H249	H	0.262544	-0.638303	0.461212
H250	H	0.363437	-0.658178	0.380111
H251	H	0.370171	-0.651000	0.281058
H252	H	0.276009	-0.623946	0.263102
H253	H	0.175116	-0.604071	0.344203
C254	C	0.043267	-0.449078	0.848347
C255	C	-0.020800	-0.433346	0.880966
C256	C	-0.063193	-0.395870	0.848411
C257	C	-0.041520	-0.374126	0.783235
C258	C	0.022550	-0.389857	0.750612
C259	C	0.064943	-0.427333	0.783168
H260	H	-0.036846	-0.449442	0.929216
H261	H	-0.110622	-0.384224	0.872561
H262	H	-0.072902	-0.346384	0.759136
H263	H	0.038596	-0.373761	0.702362
H264	H	0.112372	-0.438979	0.759018
C265	C	0.637671	-0.701398	0.676495
C266	C	0.686581	-0.723671	0.697975
C267	C	0.686652	-0.770338	0.755922
C268	C	0.637812	-0.794730	0.792390
C269	C	0.588898	-0.772457	0.770911
C270	C	0.588828	-0.725791	0.712964
H271	H	0.722739	-0.705614	0.670979
H272	H	0.722861	-0.786826	0.771822
H273	H	0.637864	-0.829275	0.835286
H274	H	0.552741	-0.790514	0.797907
H275	H	0.552619	-0.709303	0.697064
C276	C	0.205125	-0.592162	0.972660
C277	C	0.183449	-0.613906	1.037835
C278	C	0.225840	-0.651379	1.070394
C279	C	0.289907	-0.667110	1.037777
C280	C	0.311586	-0.645366	0.972598
C281	C	0.269195	-0.607893	0.940040
H282	H	0.136020	-0.602261	1.061983
H283	H	0.209791	-0.667475	1.118644
H284	H	0.321287	-0.694850	1.061879
H285	H	0.359015	-0.657011	0.948450
H286	H	0.285244	-0.591797	0.891790
C287	C	0.246513	-0.550660	0.848230
C288	C	0.283717	-0.533414	0.856358
C289	C	0.347787	-0.549144	0.823743
C290	C	0.374654	-0.582122	0.782998
C291	C	0.337449	-0.599371	0.774868
C292	C	0.273379	-0.583640	0.807484
H293	H	0.263829	-0.509000	0.886521
H294	H	0.375328	-0.536376	0.829761
H295	H	0.422082	-0.593767	0.758854
H296	H	0.357337	-0.623784	0.744705
H297	H	0.245838	-0.596408	0.801465
H298	H	0.193817	-0.582360	0.527624
C299	C	0.001639	-0.490526	0.619560
C300	C	-0.025281	-0.457526	0.572741
C301	C	-0.089363	-0.441784	0.588511
C302	C	-0.126525	-0.459041	0.651100
C303	C	-0.099605	-0.492043	0.697923
C304	C	-0.035523	-0.507786	0.682153
H305	H	0.002229	-0.444749	0.526406
H306	H	-0.109291	-0.417353	0.553850
H307	H	-0.173962	-0.447388	0.662774
H308	H	-0.127115	-0.504820	0.744258
H309	H	-0.015596	-0.532216	0.716814
C310	C	0.246313	-0.550610	0.559337
C311	C	0.288653	-0.588070	0.521849
C312	C	0.352735	-0.603806	0.506077
C313	C	0.374476	-0.582083	0.527792
C314	C	0.332134	-0.544621	0.565282
C315	C	0.268053	-0.528884	0.581054
H316	H	0.272560	-0.604153	0.505772
H317	H	0.384079	-0.631539	0.478324
H318	H	0.421913	-0.593732	0.516116
H319	H	0.348227	-0.528538	0.581359
H320	H	0.236709	-0.501152	0.608807
C321	C	-0.107762	-0.618702	0.338627
C322	C	-0.067018	-0.665578	0.311790
C323	C	-0.034339	-0.649888	0.247731
C324	C	-0.042405	-0.587321	0.210509
C325	C	-0.083151	-0.540440	0.237346
C326	C	-0.115829	-0.556131	0.301405
H327	H	-0.061045	-0.711898	0.339345
H328	H	-0.004176	-0.684592	0.227865
H329	H	-0.018214	-0.575706	0.163089
H330	H	-0.089123	-0.494121	0.209791
H331	H	-0.145992	-0.521427	0.321271
H332	H	0.391402	-0.589605	0.640414
H333	H	0.498841	-0.451490	0.538213
H334	H	0.185713	-0.253197	0.519589
C335	C	0.382879	-0.399149	0.571687
C336	C	0.390991	-0.356062	0.511225
C337	C	0.358391	-0.292471	0.501991
C338	C	0.317680	-0.271968	0.553218
C339	C	0.309566	-0.315056	0.613684
C340	C	0.342166	-0.378646	0.622918
H341	H	0.421130	-0.371239	0.473300
H342	H	0.364398	-0.260575	0.457231
H343	H	0.293548	-0.224894	0.546383
H344	H	0.279428	-0.299879	0.651609
H345	H	0.336159	-0.410543	0.667679
C346	C	0.153915	-0.137228	0.467148
C347	C	0.191371	-0.169803	0.424779
C348	C	0.207075	-0.137200	0.360702
C349	C	0.185323	-0.072022	0.338994
C350	C	0.147865	-0.039443	0.381364
C351	C	0.132161	-0.072046	0.445441
H352	H	0.207476	-0.218055	0.440848
H353	H	0.234804	-0.161317	0.329337
H354	H	0.196948	-0.047887	0.291560
H355	H	0.131760	0.008809	0.365295
H356	H	0.104432	-0.047929	0.476806
H357	H	0.098041	-0.253238	0.695156
H358	H	-0.029909	-0.543201	0.241439
H359	H	-0.065911	-0.578960	0.348925
H360	H	0.057785	-0.718806	0.241554
H361	H	-0.065985	-0.578958	0.399332
C362	C	0.025862	-0.771210	0.357521
C363	C	0.088418	-0.808472	0.349489
C364	C	0.104090	-0.872547	0.382111
C365	C	0.057205	-0.899361	0.422765
C366	C	-0.005355	-0.862099	0.430799
C367	C	-0.021027	-0.798024	0.398177
H368	H	0.123128	-0.788623	0.319392
H369	H	0.150401	-0.900131	0.376163
H370	H	0.068806	-0.946794	0.446914
H371	H	-0.040065	-0.881948	0.460896
H372	H	-0.067338	-0.770440	0.404125
H373	H	0.057315	-0.718782	0.523258
C374	C	-0.034310	-0.526543	0.431214
C375	C	-0.067356	-0.499626	0.478036
C376	C	-0.083059	-0.435549	0.462276
C377	C	-0.065714	-0.398389	0.399696
C378	C	-0.032665	-0.425305	0.352870
C379	C	-0.016963	-0.489382	0.368629
H380	H	-0.080198	-0.527135	0.524366
H381	H	-0.107523	-0.415624	0.496940
H382	H	-0.077338	-0.350955	0.388030
H383	H	-0.019824	-0.397796	0.306540
H384	H	0.007502	-0.509307	0.333966
C385	C	0.075620	-0.752616	0.402232
C386	C	0.111553	-0.760799	0.432638
C387	C	0.153448	-0.728271	0.401749
C388	C	0.159410	-0.687561	0.340453
C389	C	0.123476	-0.679377	0.310043
C390	C	0.081581	-0.711905	0.340932
H391	H	0.107141	-0.790936	0.478016
H392	H	0.180049	-0.734329	0.424261
H393	H	0.190423	-0.663482	0.317587
H394	H	0.127888	-0.649240	0.264665
H395	H	0.054980	-0.705846	0.318420
C396	C	0.116992	-0.877055	0.443768
C397	C	0.137399	-0.917799	0.495057
C398	C	0.200964	-0.950455	0.485925
C399	C	0.244122	-0.942368	0.425504
C400	C	0.223716	-0.901622	0.374211
C401	C	0.160151	-0.868966	0.383343
H402	H	0.105450	-0.923787	0.539788
H403	H	0.216070	-0.980618	0.523896
H404	H	0.291177	-0.966542	0.418744
H405	H	0.255665	-0.895634	0.329480
H406	H	0.145045	-0.838804	0.345372
H407	H	-0.073458	-0.868361	0.512142
C408	C	-0.108123	-0.720244	0.541956
C409	C	-0.116329	-0.697564	0.584612
C410	C	-0.083836	-0.735057	0.627060
C411	C	-0.043137	-0.795231	0.626853
C412	C	-0.034929	-0.817914	0.584196
C413	C	-0.067422	-0.780421	0.541747
H414	H	-0.146459	-0.653017	0.584767
H415	H	-0.089912	-0.718265	0.658638
H416	H	-0.019083	-0.822986	0.658276
H417	H	-0.004799	-0.862461	0.584041
H418	H	-0.061346	-0.797213	0.510170
C419	C	-0.232193	-0.577086	0.379885
C420	C	-0.223989	-0.599775	0.337239
C421	C	-0.256489	-0.562292	0.294796
C422	C	-0.297193	-0.502118	0.295000
C423	C	-0.305398	-0.479425	0.337648
C424	C	-0.272898	-0.516909	0.380091
H425	H	-0.193857	-0.644322	0.337086
H426	H	-0.250415	-0.579091	0.263225
H427	H	-0.321251	-0.474371	0.263581
H428	H	-0.335531	-0.434879	0.337801
H429	H	-0.278973	-0.500110	0.411662
H430	H	-0.109200	-0.760870	0.476275
H431	H	0.021552	-0.754553	0.487300
H432	H	-0.224058	-0.674545	0.566571
