data_functionalizedCrystal
_audit_creation_method	'MofGen! by Chris Wilmer'
_symmetry_space_group_name_H-M	'P1'
_symmetry_Int_Tables_number	1
_symmetry_cell_setting	triclinic
loop_
_symmetry_equiv_pos_as_xyz
  x,y,z
_cell_length_a	16.098538
_cell_length_b	14.044220
_cell_length_c	14.044220
_cell_angle_alpha	93.188878
_cell_angle_beta	92.971297
_cell_angle_gamma	87.017443
loop_
_atom_site_label
_atom_site_type_symbol
_atom_site_fract_x
_atom_site_fract_y
_atom_site_fract_z
O1	O	0.069171	-1.281077	-0.226267
O2	O	0.069192	-1.004407	-0.217960
O3	O	0.069173	-1.138589	-0.083778
O4	O	0.069189	-1.146895	-0.360449
O5	O	-0.069339	-1.130748	-0.091583
O6	O	-0.069320	-0.996566	-0.225765
O7	O	-0.069341	-1.273236	-0.234072
Zn8	Zn	-0.091322	-1.133656	-0.231158
Zn9	Zn	0.091173	-1.143987	-0.220875
O10	O	-0.069323	-1.139054	-0.368254
C11	C	-0.000062	-0.964865	-0.218227
C12	C	-0.000054	-0.858722	-0.207382
N13	N	-0.215871	-1.126612	-0.238175
C14	C	-0.000083	-1.131033	-0.052059
C15	C	-0.000083	-1.120188	0.054084
C16	C	-0.259464	-1.183589	-0.181247
C17	C	-0.346652	-1.178671	-0.186166
C18	C	-0.390246	-1.116781	-0.248019
C19	C	-0.346647	-1.059798	-0.304950
C20	C	-0.259460	-1.064711	-0.300025
C21	C	-0.653493	-1.098968	-0.265855
C22	C	-0.740686	-1.094061	-0.270778
C23	C	-0.740685	-1.212933	-0.151993
C24	C	-0.653497	-1.217846	-0.147078
C25	C	-0.609905	-1.160859	-0.204004
C26	C	-0.479366	-1.111755	-0.253051
C27	C	-0.520787	-1.165880	-0.198967
N28	N	0.215721	-1.151038	-0.213850
C29	C	-0.000086	-1.312778	-0.233805
C30	C	-0.000088	-1.418921	-0.244650
C31	C	-0.000072	-0.664384	-0.187557
C32	C	-0.000071	-0.613254	-0.264471
C33	C	-0.000081	-0.505117	-0.253440
C34	C	-0.000062	-0.772530	-0.198586
C35	C	-0.000065	-1.146611	-0.399973
C36	C	-0.000059	-1.157455	-0.506116
C37	C	-0.000070	-1.100362	0.248422
C38	C	-0.000073	-1.177277	0.299552
C39	C	-0.000065	-1.166245	0.407689
C40	C	-0.000077	-1.111392	0.140276
H41	H	-0.382145	-1.225066	-0.139810
H42	H	-0.000062	-0.650693	-0.338604
N43	N	-0.785231	-1.030833	-0.333947
N44	N	-0.863075	-1.026460	-0.338334
H45	H	-0.894537	-0.981809	-0.382945
N46	N	-0.000088	-1.007367	0.295383
N47	N	-0.058482	-0.947595	0.278361
H48	H	-0.058502	-0.881918	0.311538
N49	N	-0.608986	-1.040749	-0.324005
N50	N	-0.647922	-0.985495	-0.379225
H51	H	-0.616487	-0.944374	-0.420296
H52	H	-0.223975	-1.233991	-0.130884
N53	N	-0.391187	-0.996575	-0.368119
N54	N	-0.469031	-0.992196	-0.372509
H55	H	-0.500488	-0.947544	-0.417124
N56	N	-0.608983	-1.281247	-0.084068
N57	N	-0.647916	-1.332232	-0.033360
H58	H	-0.616478	-1.377079	0.011074
N59	N	-0.000092	-0.617424	-0.094562
N60	N	-0.058483	-0.559343	-0.073058
H61	H	-0.058496	-0.526167	-0.007381
H62	H	-0.000023	-1.251413	0.262116
H63	H	-0.223968	-1.018314	-0.346381
H64	H	-0.485290	-1.216268	-0.148603
N65	N	-0.785226	-1.271119	-0.093840
N66	N	-0.833890	-1.233074	-0.034749
H67	H	-0.865348	-1.274167	0.006328
N68	N	-0.523901	-1.048528	-0.316220
N69	N	-0.572563	-0.983969	-0.283622
H70	H	-0.604020	-0.939312	-0.328231
