data_functionalizedCrystal
_audit_creation_method	'MofGen! by Chris Wilmer'
_symmetry_space_group_name_H-M	'P1'
_symmetry_Int_Tables_number	1
_symmetry_cell_setting	triclinic
loop_
_symmetry_equiv_pos_as_xyz
  x,y,z
_cell_length_a	30.711274
_cell_length_b	30.700811
_cell_length_c	30.711214
_cell_angle_alpha	90.000085
_cell_angle_beta	60.000209
_cell_angle_gamma	119.999809
loop_
_atom_site_label
_atom_site_type_symbol
_atom_site_fract_x
_atom_site_fract_y
_atom_site_fract_z
O1	O	0.384089	-0.298801	-0.012970
O2	O	0.294923	-0.235461	0.012879
O3	O	0.384081	-0.235458	-0.076285
O4	O	0.294931	-0.298804	0.076194
O5	O	0.311660	-0.307904	-0.076285
O6	O	0.222502	-0.307907	0.012879
O7	O	0.311668	-0.371246	-0.012970
Zn8	Zn	0.255587	-0.351079	-0.000045
Zn9	Zn	0.351004	-0.255629	-0.000046
O10	O	0.222510	-0.371249	0.076194
C11	C	0.071082	-0.031745	0.039161
C12	C	0.018311	-0.058199	0.039528
C13	C	0.071080	-0.110622	0.039164
C14	C	0.018309	-0.136956	0.039531
C15	C	-0.007767	-0.110620	0.039161
C16	C	0.097038	-0.058200	0.039531
C17	C	0.213079	0.158464	0.024884
C18	C	0.242108	0.212330	0.020847
C19	C	0.217193	0.239352	0.018819
C20	C	0.248672	0.297759	0.014432
C21	C	0.163243	0.212504	0.020832
C22	C	0.134213	0.158641	0.024876
C23	C	0.159133	0.131621	0.026902
C24	C	-0.183632	-0.158783	0.024881
C25	C	-0.233442	-0.183609	0.020843
C26	C	-0.258429	-0.235554	0.018816
C27	C	-0.312429	-0.262473	0.014431
C28	C	-0.233605	-0.262675	0.020833
C29	C	-0.183804	-0.237854	0.024879
C30	C	-0.158818	-0.185902	0.026900
C31	C	0.213071	-0.158790	0.024896
C32	C	0.242103	-0.183615	0.020855
C33	C	0.217186	-0.235562	0.018830
C34	C	0.248663	-0.262480	0.014446
C35	C	0.163241	-0.262679	0.020841
C36	C	0.134213	-0.237852	0.024880
C37	C	0.159130	-0.185907	0.026912
C38	C	0.127654	0.073216	0.031283
C39	C	0.102561	0.026661	0.034776
C40	C	0.102557	-0.137538	0.034782
C41	C	0.127648	-0.158993	0.031291
C42	C	-0.061767	-0.137535	0.034776
C43	C	-0.104813	-0.158989	0.031282
O44	O	-0.456748	-0.371241	-0.012984
O45	O	-0.330107	-0.307898	0.012857
O46	O	-0.330106	-0.307900	-0.076303
O47	O	-0.456750	-0.371239	0.076177
O48	O	-0.330105	-0.235453	-0.076306
O49	O	-0.330106	-0.235452	0.012854
O50	O	-0.456747	-0.298795	-0.012987
Zn51	Zn	-0.393426	-0.255621	-0.000067
Zn52	Zn	-0.393428	-0.351072	-0.000063
O53	O	-0.456748	-0.298793	0.076174
C54	C	0.071091	-0.031750	-0.503795
C55	C	0.097048	-0.058205	-0.530120
C56	C	-0.007759	-0.110625	-0.424946
C57	C	0.018318	-0.136960	-0.451390
C58	C	0.071090	-0.110626	-0.503793
C59	C	0.018319	-0.058204	-0.451392
C60	C	0.133515	0.158459	-0.551946
C61	C	0.162369	0.212324	-0.576765
C62	C	0.216324	0.239344	-0.628693
C63	C	0.247619	0.297751	-0.655602
C64	C	0.241421	0.212495	-0.655803
C65	C	0.212562	0.158632	-0.630987
C66	C	0.158607	0.131614	-0.579056
C67	C	0.213085	-0.158793	-0.631510
C68	C	0.242114	-0.183620	-0.656501
C69	C	0.217202	-0.235564	-0.629560
C70	C	0.248676	-0.262485	-0.656649
C71	C	0.163251	-0.262684	-0.577624
C72	C	0.134218	-0.237862	-0.552637
C73	C	0.159144	-0.185911	-0.579586
C74	C	-0.183628	-0.158787	-0.234804
C75	C	-0.233435	-0.183610	-0.180955
C76	C	-0.258421	-0.235556	-0.153942
C77	C	-0.312422	-0.262473	-0.095555
C78	C	-0.233596	-0.262675	-0.180778
C79	C	-0.183790	-0.237849	-0.234625
C80	C	-0.158813	-0.185905	-0.261635
C81	C	0.127321	0.073209	-0.552149
C82	C	0.102381	0.026655	-0.530702
C83	C	-0.061760	-0.137539	-0.366561
C84	C	-0.104807	-0.158993	-0.320022
C85	C	0.102569	-0.137542	-0.530887
C86	C	0.127661	-0.158997	-0.552485
C87	C	0.469494	-0.371909	-0.018862
C88	C	0.523235	-0.345030	-0.015167
C89	C	0.443418	-0.424330	-0.019232
C90	C	0.390641	-0.371912	-0.018856
C91	C	0.360071	-0.345035	-0.015154
C92	C	0.364685	-0.424332	-0.019226
C93	C	0.390645	-0.450785	-0.018862
C94	C	0.360080	-0.508241	-0.015166
C95	C	0.443414	-0.345576	-0.019227
O96	O	0.311680	0.469552	-0.012985
O97	O	0.222518	0.317020	0.012855
O98	O	0.311679	0.406207	-0.076305
O99	O	0.222519	0.380365	0.076175
O100	O	0.384097	0.406206	-0.076302
O101	O	0.294936	0.317018	0.012858
O102	O	0.384098	0.469551	-0.012982
Zn103	Zn	0.351015	0.393284	-0.000062
Zn104	Zn	0.255601	0.393286	-0.000066
O105	O	0.294937	0.380363	0.076178
O106	O	0.311671	-0.371258	-0.692229
O107	O	0.222519	-0.307908	-0.628917
O108	O	0.311674	-0.307911	-0.628911
O109	O	0.222516	-0.371255	-0.692235
O110	O	0.384097	-0.235468	-0.701334
O111	O	0.294942	-0.235465	-0.701340
O112	O	0.384095	-0.298816	-0.764652
Zn113	Zn	0.351017	-0.255639	-0.744494
Zn114	Zn	0.255596	-0.351085	-0.649074
O115	O	0.294940	-0.298813	-0.764657
O116	O	0.383773	0.469546	-0.764325
O117	O	0.294604	0.317011	-0.701009
O118	O	0.383759	0.406194	-0.700998
O119	O	0.294618	0.380363	-0.764336
O120	O	0.311335	0.406194	-0.628581
O121	O	0.222181	0.317011	-0.628592
O122	O	0.311349	0.469546	-0.691908
Zn123	Zn	0.255266	0.393278	-0.648752
Zn124	Zn	0.350688	0.393278	-0.744165
O125	O	0.222195	0.380363	-0.691919
C126	C	0.137120	-0.450798	0.234675
C127	C	0.083383	-0.508254	0.261542
C128	C	0.163198	-0.424344	0.261001
C129	C	0.215965	-0.371920	0.155829
C130	C	0.246530	-0.345039	0.098393
C131	C	0.241923	-0.345586	0.182274
C132	C	0.215968	-0.371923	0.234676
C133	C	0.246536	-0.345046	0.261546
C134	C	0.163195	-0.424341	0.182273
C135	C	-0.609355	-0.371905	0.234659
C136	C	-0.639922	-0.345026	0.261528
C137	C	-0.635312	-0.424326	0.260985
C138	C	-0.530505	-0.371906	0.155811
C139	C	-0.476766	-0.345028	0.098375
C140	C	-0.556583	-0.424327	0.182257
C141	C	-0.609355	-0.450781	0.234660
C142	C	-0.639921	-0.508237	0.261530
C143	C	-0.556583	-0.345571	0.182256
C144	C	0.215979	0.374502	0.234657
C145	C	0.246547	0.378204	0.261526
C146	C	0.163211	0.374139	0.260980
C147	C	0.215975	0.374492	0.155810
C148	C	0.246538	0.378183	0.098376
C149	C	0.163206	0.374129	0.182253
C150	C	0.137133	0.374504	0.234654
C151	C	0.083398	0.378208	0.261520
C152	C	0.241933	0.374126	0.182256
C153	C	0.535491	-0.110272	-0.503768
C154	C	0.588261	-0.057850	-0.530093
C155	C	0.535495	-0.110274	-0.424921
C156	C	0.588265	-0.057853	-0.451366
C157	C	0.614339	-0.031397	-0.503767
C158	C	0.509536	-0.136608	-0.451366
C159	C	0.393493	-0.238034	-0.551916
C160	C	0.364463	-0.263035	-0.576733
C161	C	0.389377	-0.236081	-0.628661
C162	C	0.357897	-0.263182	-0.655568
C163	C	0.443326	-0.184127	-0.655771
C164	C	0.472356	-0.159133	-0.630956
C165	C	0.447437	-0.186089	-0.579026
C166	C	0.790200	0.158814	-0.631482
C167	C	0.840009	0.212680	-0.656474
C168	C	0.864996	0.239702	-0.629533
C169	C	0.918996	0.298108	-0.656622
C170	C	0.840174	0.212853	-0.577599
C171	C	0.790375	0.158987	-0.552612
C172	C	0.765387	0.131971	-0.579559
C173	C	0.393509	-0.238043	-0.234781
C174	C	0.364478	-0.263043	-0.180933
C175	C	0.389396	-0.236092	-0.153921
C176	C	0.357920	-0.263195	-0.095535
C177	C	0.443340	-0.184140	-0.180757
C178	C	0.472367	-0.159142	-0.234603
C179	C	0.447449	-0.186100	-0.261613
C180	C	0.478918	-0.158981	-0.552120
C181	C	0.504011	-0.137375	-0.530674
C182	C	0.504019	-0.137380	-0.366537
C183	C	0.478929	-0.158988	-0.319999
C184	C	0.668339	0.027009	-0.530861
C185	C	0.711384	0.073564	-0.552459
O186	O	-0.063269	-0.682996	0.371077
O187	O	0.063369	-0.530463	0.307760
O188	O	0.063373	-0.619650	0.307753
O189	O	-0.063274	-0.593808	0.371084
O190	O	0.063369	-0.619649	0.235334
O191	O	0.063365	-0.530461	0.235341
O192	O	-0.063273	-0.682994	0.298658
Zn193	Zn	0.000045	-0.606727	0.255501
Zn194	Zn	0.000050	-0.606729	0.350916
O195	O	-0.063278	-0.593807	0.298665
C196	C	0.614008	0.432455	-0.503779
C197	C	0.587930	0.432820	-0.530105
C198	C	0.535166	0.432466	-0.424935
C199	C	0.509207	0.432832	-0.451381
C200	C	0.535161	0.432456	-0.503782
C201	C	0.587935	0.432830	-0.451378
C202	C	0.789868	0.418165	-0.551917
C203	C	0.839676	0.414123	-0.576732
C204	C	0.864658	0.412089	-0.628658
C205	C	0.918656	0.407697	-0.655563
C206	C	0.839832	0.414101	-0.655770
C207	C	0.790034	0.418150	-0.630957
C208	C	0.765052	0.420182	-0.579029
C209	C	0.472730	0.418159	-0.631499
C210	C	0.443875	0.414119	-0.656492
C211	C	0.389923	0.412094	-0.629553
C212	C	0.358627	0.407705	-0.656644
C213	C	0.364830	0.414116	-0.577620
C214	C	0.393690	0.418166	-0.552632
C215	C	0.447642	0.420184	-0.579577
C216	C	0.472754	0.418212	-0.234796
C217	C	0.443899	0.414175	-0.180949
C218	C	0.389946	0.412152	-0.153939
C219	C	0.358655	0.407772	-0.095554
C220	C	0.364849	0.414162	-0.180777
C221	C	0.393704	0.418197	-0.234622
C222	C	0.447661	0.420226	-0.261629
C223	C	0.711049	0.424567	-0.552126
C224	C	0.668006	0.428065	-0.530681
C225	C	0.503880	0.428089	-0.366552
C226	C	0.478943	0.424601	-0.320014
C227	C	0.503870	0.428067	-0.530876
C228	C	0.478929	0.424571	-0.552475
H229	H	-0.003514	-0.180028	0.040124
H230	H	0.284387	-0.302515	0.161041
H231	H	0.322217	-0.445571	-0.019814
H232	H	0.859878	0.412476	-0.554651
N233	N	0.239945	-0.102764	0.027086
H234	H	0.278525	-0.089350	0.025195
H235	H	0.250357	-0.078685	-0.004031
N236	N	0.134298	-0.452477	0.318031
H237	H	0.096847	-0.489773	0.330767
H238	H	0.165108	-0.454373	0.320162
H239	H	0.284404	0.373543	0.161024
N240	N	0.134297	-0.452469	0.154140
H241	H	0.090622	-0.463099	0.174517
H242	H	0.158889	-0.427709	0.116866
H243	H	-0.534756	-0.445564	0.161024
N244	N	-0.691556	-0.452460	0.318019
H245	H	-0.704122	-0.427736	0.330757
H246	H	-0.726398	-0.485417	0.320162
H247	H	-0.534788	-0.302513	0.161012
H248	H	-0.163581	-0.259934	-0.256472
H249	H	0.516289	-0.116841	-0.256450
H250	H	-0.253956	-0.304973	0.019189
N251	N	-0.260203	-0.154353	0.018659
H252	H	-0.256754	-0.150838	-0.015813
H253	H	-0.304959	-0.174963	0.049798
H254	H	0.090290	-0.259946	-0.510354
H255	H	0.465237	-0.302506	-0.019814
N256	N	0.134297	0.373346	0.154131
H257	H	0.158839	0.373171	0.116850
H258	H	0.090625	0.340282	0.174552
N259	N	0.134297	0.373352	0.318013
H260	H	0.158839	0.373180	0.330753
H261	H	0.134054	0.406065	0.320153
H262	H	0.610083	-0.036613	-0.430129
H263	H	0.373213	-0.259995	-0.256769
N264	N	-0.010600	-0.030080	-0.423260
H265	H	0.020152	0.002870	-0.421309
H266	H	-0.023274	-0.019491	-0.443658
H267	H	0.610082	-0.036613	-0.573149
H268	H	0.090285	-0.259938	0.026524
N269	N	0.453285	-0.193658	-0.423238
H270	H	0.440716	-0.206399	-0.447952
H271	H	0.463088	-0.216919	-0.412623
H272	H	-0.163294	-0.116485	0.026529
N273	N	0.153296	-0.030074	-0.587152
H274	H	0.188176	-0.028137	-0.589332
H275	H	0.143477	-0.050480	-0.610408
H276	H	0.320549	-0.305340	-0.159084
H277	H	0.373199	-0.259988	-0.509634
N278	N	0.306280	-0.319065	-0.547496
H279	H	0.294900	-0.332346	-0.510834
H280	H	0.271778	-0.319094	-0.544018
N281	N	0.239947	0.129317	0.027077
H282	H	0.250402	0.115656	-0.004040
H283	H	0.278504	0.154519	0.025210
H284	H	0.463608	-0.162187	-0.698051
H285	H	0.516281	-0.116834	-0.653032
N286	N	-0.157024	-0.267096	0.027047
H287	H	-0.160466	-0.270613	0.061516
H288	H	-0.180420	-0.303753	0.025127
N289	N	0.136362	-0.318707	0.018654
H290	H	0.162934	-0.330323	0.015791
H291	H	0.093328	-0.343686	0.052152
H292	H	0.142959	0.234508	0.019184
H293	H	0.769862	0.136820	-0.653428
N294	N	0.239963	-0.102766	-0.660573
H295	H	0.278541	-0.089355	-0.697264
H296	H	0.208894	-0.102802	-0.663976
H297	H	0.860213	0.234537	-0.698757
N298	N	0.867126	0.241989	-0.548540
H299	H	0.902442	0.280187	-0.572248
H300	H	0.834350	0.241301	-0.514895
H301	H	0.286034	0.234185	0.019207
H302	H	0.770170	0.137129	-0.510329
H303	H	0.463626	-0.162193	-0.158760
H304	H	0.465247	-0.445566	-0.019828
H305	H	-0.003514	-0.180034	-0.430158
N306	N	0.470963	0.412002	-0.152002
H307	H	0.509521	0.413899	-0.177282
H308	H	0.481454	0.443134	-0.138356
N309	N	0.452969	0.433630	-0.423267
H310	H	0.440407	0.433810	-0.385987
H311	H	0.462787	0.466700	-0.443696
N312	N	0.616837	0.433606	-0.587138
H313	H	0.654289	0.433776	-0.599874
H314	H	0.586033	0.400893	-0.589278
H315	H	0.232997	0.136775	-0.653064
N316	N	0.616838	0.433614	-0.423249
H317	H	0.654288	0.433781	-0.447961
H318	H	0.629478	0.466684	-0.412638
N319	N	-0.010594	-0.030064	0.040305
H320	H	-0.048051	-0.054795	0.040483
H321	H	-0.023225	-0.019436	0.073355
N322	N	0.530949	0.420400	-0.263927
H323	H	0.542467	0.418510	-0.238755
H324	H	0.523900	0.389270	-0.277582
H325	H	0.769534	0.419821	-0.509636
N326	N	0.866777	0.411910	-0.711773
H327	H	0.902092	0.409040	-0.723379
H328	H	0.833996	0.379807	-0.712635
N329	N	0.153284	-0.030069	0.040319
H330	H	0.165839	-0.054801	0.040499
H331	H	0.188131	0.002880	0.007612
N332	N	0.763261	0.420323	-0.660196
H333	H	0.786642	0.418420	-0.696855
H334	H	0.718493	0.389195	-0.639564
N335	N	0.530919	0.420339	-0.660558
H336	H	0.542437	0.418446	-0.697247
H337	H	0.565358	0.454822	-0.663964
H338	H	0.464308	0.412471	-0.698774
H339	H	0.320904	0.412475	-0.555688
N340	N	-0.260539	-0.318702	-0.151647
H341	H	-0.295858	-0.330317	-0.113464
H342	H	-0.275974	-0.343683	-0.169710
H343	H	0.090287	0.136784	0.026518
N344	N	0.366633	0.420353	-0.496626
H345	H	0.328076	0.418458	-0.483349
H346	H	0.356141	0.389225	-0.472483
H347	H	0.373264	0.419831	-0.256469
H348	H	0.320915	0.412512	-0.158781
H349	H	-0.253642	-0.161524	-0.159108
N350	N	0.300288	-0.154366	0.018680
H351	H	0.311667	-0.117693	0.020579
H352	H	0.293307	-0.175003	0.049799
H353	H	0.089582	0.136465	-0.509663
N354	N	-0.156685	-0.102761	-0.263937
H355	H	-0.179964	-0.089346	-0.238767
H356	H	-0.111910	-0.078683	-0.277596
H357	H	0.141932	0.234179	-0.554689
H358	H	0.286042	-0.161535	-0.698784
N359	N	0.299606	0.241634	-0.711811
H360	H	0.314080	0.279830	-0.723420
H361	H	0.332565	0.240948	-0.712680
H362	H	0.142962	-0.304982	-0.555690
