data_functionalizedCrystal
_audit_creation_method	'MofGen! by Chris Wilmer'
_symmetry_space_group_name_H-M	'P1'
_symmetry_Int_Tables_number	1
_symmetry_cell_setting	triclinic
loop_
_symmetry_equiv_pos_as_xyz
  x,y,z
_cell_length_a	10.654556
_cell_length_b	11.026607
_cell_length_c	9.130313
_cell_angle_alpha	90.001399
_cell_angle_beta	90.000033
_cell_angle_gamma	96.536713
loop_
_atom_site_label
_atom_site_type_symbol
_atom_site_fract_x
_atom_site_fract_y
_atom_site_fract_z
O1	O	1.704904	0.170801	0.121810
O2	O	1.342956	0.187063	0.121809
O3	O	1.493932	0.002025	0.121804
O4	O	1.553928	0.355838	0.121815
O5	O	1.493933	0.002026	-0.121794
O6	O	1.342957	0.187063	-0.121789
O7	O	1.704904	0.170801	-0.121789
Cu8	Cu	1.523930	0.178932	-0.144032
Cu9	Cu	1.523930	0.178932	0.144052
O10	O	1.553928	0.355838	-0.121784
C11	C	1.295899	0.185867	0.000010
C12	C	1.155680	0.182290	0.000010
C13	C	0.958057	0.177256	0.132807
C14	C	1.089807	0.180610	0.132801
C15	C	1.089794	0.180603	-0.132784
C16	C	0.958046	0.177241	-0.132776
C17	C	0.958066	0.177265	0.286141
C18	C	1.089816	0.180619	0.286134
C19	C	1.482864	-0.043279	0.000007
C20	C	1.449870	-0.178271	0.000012
C21	C	1.540973	-0.251308	0.000014
C22	C	1.506874	-0.390830	0.000019
C23	C	1.751961	0.171996	0.000014
C24	C	1.892181	0.175573	0.000024
C25	C	1.564996	0.401142	0.000017
C26	C	1.597991	0.536134	0.000022
N27	N	1.523940	0.178931	-0.346654
C28	C	1.616916	0.253350	-0.576667
C29	C	1.616919	0.253358	-0.423331
C30	C	1.430943	0.104500	-0.423323
C31	C	1.430935	0.104500	-0.576657
C32	C	1.724291	0.339289	-0.576671
C33	C	1.724295	0.339297	-0.423334
N34	N	1.523928	0.178923	0.346675
H35	H	1.133285	0.266472	0.344995
N36	N	1.370107	-0.444802	0.000034
H37	H	1.365133	-0.536821	0.000038
H38	H	1.326857	-0.416790	-0.090273
N39	N	1.710869	0.466279	-0.631797
H40	H	1.710861	0.466328	-0.742417
H41	H	1.783891	0.524708	-0.594855
N42	N	1.330655	0.024221	-0.340633
H43	H	1.281031	0.076600	-0.277009
H44	H	1.372088	-0.034782	-0.277105
H45	H	1.644215	-0.210546	0.000005
N46	N	1.846893	0.299707	-0.368180
H47	H	1.919967	0.358127	-0.405021
H48	H	1.855799	0.214745	-0.405018
H49	H	1.701240	-0.423110	0.000132
H50	H	1.810573	0.301074	-0.624237
H51	H	1.346628	-0.219034	0.000021
H52	H	1.355207	0.043904	-0.639066
N53	N	0.900485	0.063561	0.364122
H54	H	0.969818	0.015240	0.398909
H55	H	0.843096	0.012102	0.294577
H56	H	1.704657	0.430851	-0.375774
H57	H	0.904412	0.175846	-0.240901
N58	N	0.914458	0.291947	0.349187
H59	H	0.950315	0.364712	0.289185
H60	H	0.944707	0.302562	0.453727
H61	H	1.122726	0.094028	0.333711
H62	H	1.143437	0.181961	-0.240905
