data_functionalizedCrystal
_audit_creation_method	'MofGen! by Chris Wilmer'
_symmetry_space_group_name_H-M	'P1'
_symmetry_Int_Tables_number	1
_symmetry_cell_setting	triclinic
loop_
_symmetry_equiv_pos_as_xyz
  x,y,z
_cell_length_a	12.827893
_cell_length_b	12.759400
_cell_length_c	12.827885
_cell_angle_alpha	90.029377
_cell_angle_beta	90.019272
_cell_angle_gamma	90.013136
loop_
_atom_site_label
_atom_site_type_symbol
_atom_site_fract_x
_atom_site_fract_y
_atom_site_fract_z
Zn1	Zn	1.597686	-0.418216	0.590852
Zn2	Zn	1.597587	-0.593932	0.416113
Zn3	Zn	1.422927	-0.418267	0.416125
Zn4	Zn	1.422919	-0.593854	0.590813
O5	O	1.510280	-0.506067	0.503476
O6	O	1.743909	-0.441537	0.567683
O7	O	1.574380	-0.570684	0.269879
O8	O	1.446154	-0.271240	0.439324
O9	O	1.743836	-0.570634	0.439304
O10	O	1.574548	-0.271202	0.567695
O11	O	1.446058	-0.441624	0.269888
O12	O	1.276690	-0.441548	0.439287
O13	O	1.446141	-0.570501	0.737054
O14	O	1.276684	-0.570550	0.567629
O15	O	1.574541	-0.441461	0.737083
O16	O	1.574372	-0.740942	0.439266
O17	O	1.446044	-0.740885	0.567618
C18	C	1.238770	-0.506047	0.503456
C19	C	1.122617	-0.506064	0.503472
C20	C	1.070857	-0.569998	0.566882
C21	C	0.950806	-0.570017	0.566900
C22	C	1.510225	-0.779035	0.503459
C23	C	1.510297	-0.895811	0.503487
C24	C	1.577119	-0.950574	0.570385
C25	C	1.577167	-1.060298	0.570410
C26	C	1.443570	-1.060487	0.436632
C27	C	1.443517	-0.950765	0.436612
C28	C	1.643899	-0.895620	0.637259
C29	C	1.710727	-0.950383	0.704161
C30	C	1.710775	-1.060107	0.704187
C31	C	1.643996	-1.115068	0.637310
C32	C	1.782850	-0.506088	0.503496
C33	C	1.899003	-0.506097	0.503505
C34	C	1.510351	-0.505966	0.776046
C35	C	1.510381	-0.505923	0.892199
C36	C	1.510363	-0.232034	0.503515
C37	C	1.510399	-0.115257	0.503532
C38	C	1.510269	-0.506092	0.231966
C39	C	1.510441	-0.505839	0.115813
C40	C	1.573925	-0.442058	0.943998
C41	C	1.573957	-0.442012	1.064049
H42	H	0.943509	-0.451362	0.449211
Br43	Br	1.801453	-1.134427	0.794995
H44	H	1.389202	-1.105245	0.382184
H45	H	1.644029	-1.204413	0.637349
H46	H	1.456040	-0.560523	1.071274
Br47	Br	1.419734	-0.596997	0.966408
Br48	Br	1.048353	-0.414841	0.413015
Br49	Br	1.352830	-0.876437	0.345821
Br50	Br	1.801336	-0.875797	0.794933
Br51	Br	1.664532	-0.350944	0.869790
Br52	Br	1.664645	-0.350882	1.138287
H53	H	1.115420	-0.624717	0.621160
H54	H	1.643869	-0.806278	0.637244
Br55	Br	0.876623	-0.661262	0.657381
