data_functionalizedCrystal
_audit_creation_method	'MofGen! by Chris Wilmer'
_symmetry_space_group_name_H-M	'P1'
_symmetry_Int_Tables_number	1
_symmetry_cell_setting	triclinic
loop_
_symmetry_equiv_pos_as_xyz
  x,y,z
_cell_length_a	6.817900
_cell_length_b	11.102188
_cell_length_c	14.125465
_cell_angle_alpha	94.635462
_cell_angle_beta	100.398878
_cell_angle_gamma	108.603875
loop_
_atom_site_label
_atom_site_type_symbol
_atom_site_fract_x
_atom_site_fract_y
_atom_site_fract_z
V1	V	-4.017258	-0.174747	-0.299976
O2	O	-3.978095	0.009521	-0.294266
O3	O	-3.994670	-0.347575	-0.297925
O4	O	-3.952928	-0.171566	-0.430807
O5	O	-4.020126	-0.167706	-0.160465
V6	V	-4.499605	-0.152765	-0.283290
O7	O	-4.281095	-0.222967	-0.336580
O8	O	-4.685966	-0.104545	-0.246686
O9	O	-4.298986	0.020063	-0.285341
O10	O	-4.656165	-0.337033	-0.289000
O11	O	-4.614134	-0.159806	-0.422802
O12	O	-4.340729	-0.155946	-0.152460
C13	C	-3.846466	-0.389722	-0.293193
C14	C	-3.909178	-0.531007	-0.292387
C15	C	-3.906158	-0.579555	-0.203903
C16	C	-3.965106	-0.712309	-0.203150
C17	C	-4.030084	-0.747957	-0.379374
C18	C	-3.971151	-0.615206	-0.380126
C19	C	-3.793218	-0.165204	-0.462695
C20	C	-3.822076	-0.163747	-0.569649
C21	C	-3.874969	-0.161074	-0.765472
C22	C	-4.061262	-0.166435	-0.817794
C23	C	-4.090695	-0.164948	-0.926756
C24	C	-3.845529	-0.162561	-0.656500
C25	C	-4.110534	0.062203	-0.290071
C26	C	-4.027059	0.203487	-0.290882
C27	C	-4.163782	-0.162312	-0.120566
C28	C	-4.114162	-0.163763	-0.013611
H29	H	-4.080545	-0.816527	-0.450807
H30	H	-3.973625	-0.575680	-0.452185
C31	C	-3.641494	-0.042511	-0.860014
C32	C	-3.689520	-0.153385	-0.815473
H33	H	-3.527022	-0.037775	-0.890896
H34	H	-3.602615	0.031109	-0.812215
H35	H	-3.762270	-0.045689	-0.907153
H36	H	-3.568747	-0.150203	-0.768329
H37	H	-3.728388	-0.227024	-0.863277
C38	C	-3.974302	-0.415660	-0.107053
C39	C	-3.838062	-0.486996	-0.107467
H40	H	-3.932256	-0.358516	-0.047518
H41	H	-4.115372	-0.472316	-0.113489
H42	H	-3.967642	-0.367753	-0.159864
H43	H	-3.844733	-0.534912	-0.054659
H44	H	-3.696956	-0.430334	-0.101020
C45	C	-4.294770	-0.285048	-0.723282
C46	C	-4.246756	-0.174160	-0.767806
H47	H	-4.409291	-0.289824	-0.692426
H48	H	-4.174028	-0.281863	-0.676135
H49	H	-4.333589	-0.358663	-0.771096
H50	H	-4.207921	-0.100543	-0.719991
H51	H	-4.367524	-0.177334	-0.814958
C52	C	-3.894926	-0.663728	-0.029039
C53	C	-3.961771	-0.765671	-0.105885
H54	H	-3.892857	-0.696674	0.031011
H55	H	-3.990034	-0.616818	-0.036064
H56	H	-3.756532	-0.608568	-0.029939
H57	H	-4.100172	-0.820827	-0.104989
H58	H	-3.866660	-0.812602	-0.098857
