data_functionalizedCrystal
_audit_creation_method	'MofGen! by Chris Wilmer'
_symmetry_space_group_name_H-M	'P1'
_symmetry_Int_Tables_number	1
_symmetry_cell_setting	triclinic
loop_
_symmetry_equiv_pos_as_xyz
  x,y,z
_cell_length_a	15.944545
_cell_length_b	14.519709
_cell_length_c	13.596369
_cell_angle_alpha	89.998664
_cell_angle_beta	90.003141
_cell_angle_gamma	96.411841
loop_
_atom_site_label
_atom_site_type_symbol
_atom_site_fract_x
_atom_site_fract_y
_atom_site_fract_z
O1	O	1.114702	-0.118908	0.081730
O2	O	1.448036	0.214425	0.415063
O3	O	1.781369	0.547759	0.748397
O4	O	0.870173	-0.133578	0.081746
O5	O	1.203507	0.199755	0.415079
O6	O	1.536840	0.533089	0.748413
O7	O	0.998921	0.008007	0.081729
O8	O	1.332254	0.341340	0.415062
O9	O	1.665588	0.674674	0.748395
O10	O	0.985954	-0.260493	0.081747
O11	O	1.319288	0.072840	0.415081
O12	O	1.652621	0.406174	0.748414
O13	O	0.998905	0.007999	-0.081854
O14	O	1.332239	0.341332	0.251479
O15	O	1.665572	0.674666	0.584812
O16	O	0.870157	-0.133586	-0.081837
O17	O	1.203491	0.199747	0.251496
O18	O	1.536824	0.533081	0.584830
O19	O	1.114686	-0.118916	-0.081853
O20	O	1.448020	0.214418	0.251480
O21	O	1.781353	0.547751	0.584814
Zn22	Zn	0.992419	-0.126252	-0.107817
Zn23	Zn	1.325753	0.207081	0.225516
Zn24	Zn	1.659086	0.540415	0.558849
Zn25	Zn	0.992440	-0.126242	0.107710
Zn26	Zn	1.325774	0.207092	0.441044
Zn27	Zn	1.659107	0.540425	0.774377
O28	O	0.985939	-0.260501	-0.081836
O29	O	1.319272	0.072833	0.251498
O30	O	1.652605	0.406166	0.584831
C31	C	0.838870	-0.132974	-0.000043
C32	C	1.172204	0.200359	0.333290
C33	C	1.505537	0.533693	0.666623
C34	C	0.745621	-0.131151	-0.000038
C35	C	1.078955	0.202182	0.333296
C36	C	1.412288	0.535515	0.666629
C37	C	0.474853	-0.037944	-0.000054
C38	C	0.808187	0.295390	0.333279
C39	C	1.141520	0.628723	0.666612
C40	C	0.525492	-0.082885	-0.080709
C41	C	0.858826	0.250449	0.252625
C42	C	1.192159	0.583782	0.585958
C43	C	0.409968	-0.124651	-0.000055
C44	C	0.743302	0.208683	0.333279
C45	C	1.076635	0.542016	0.666612
C46	C	0.525489	-0.082900	0.080571
C47	C	0.858822	0.250433	0.413905
C48	C	1.192155	0.583766	0.747238
C49	C	0.574886	-0.127840	-0.000045
C50	C	0.908220	0.205493	0.333289
C51	C	1.241553	0.538827	0.666622
C52	C	0.459379	-0.169569	-0.080776
C53	C	0.792712	0.163765	0.252558
C54	C	1.126046	0.497098	0.585891
C55	C	0.459372	-0.169572	0.080577
C56	C	0.792705	0.163762	0.413910
C57	C	1.126038	0.497095	0.747243
C58	C	0.509978	-0.214576	-0.000097
C59	C	0.843311	0.118757	0.333236
C60	C	1.176645	0.452090	0.666570
C61	C	0.314963	-0.122811	-0.000061
C62	C	0.648297	0.210522	0.333272
C63	C	0.981630	0.543856	0.666605
C64	C	0.669888	-0.129686	-0.000045
C65	C	1.003222	0.203647	0.333288
C66	C	1.336555	0.536980	0.666622
C67	C	0.998309	0.042362	-0.000063
C68	C	1.331642	0.375695	0.333270
C69	C	1.664976	0.709028	0.666604
C70	C	0.996498	0.144740	-0.000063
C71	C	1.329831	0.478073	0.333270
C72	C	1.663165	0.811406	0.666603
C73	C	1.145989	-0.119520	-0.000061
C74	C	1.479323	0.213814	0.333272
C75	C	1.812656	0.547147	0.666605
C76	C	1.239238	-0.121343	-0.000061
C77	C	1.572572	0.211991	0.333272
C78	C	1.905905	0.545324	0.666606
C79	C	0.986551	-0.294856	-0.000042
C80	C	1.319884	0.038478	0.333291
C81	C	1.653218	0.371811	0.666625
C82	C	0.988362	-0.397234	-0.000035
C83	C	1.321695	-0.063900	0.333298
C84	C	1.655028	0.269433	0.666632
N85	N	0.992411	-0.126259	-0.254909
N86	N	1.325745	0.207075	0.078424
N87	N	1.659078	0.540408	0.411758
C88	C	0.989831	0.519624	-0.000037
C89	C	1.323165	0.852957	0.333296
C90	C	1.656498	1.186290	0.666629
C91	C	0.991683	0.415319	-0.000045
C92	C	1.325016	0.748652	0.333288
C93	C	1.658349	1.081986	0.666622
C94	C	0.993165	0.332185	-0.000051
C95	C	1.326498	0.665518	0.333282
C96	C	1.659831	0.998852	0.666615
C97	C	0.995016	0.227874	-0.000057
C98	C	1.328350	0.561207	0.333276
C99	C	1.661683	0.894540	0.666610
C100	C	0.992416	-0.126261	-0.343907
C101	C	1.325749	0.207073	-0.010574
C102	C	1.659082	0.540406	0.322760
C103	C	0.992424	-0.126254	-0.455558
C104	C	1.325757	0.207079	-0.122225
C105	C	1.659090	0.540412	0.211108
C106	C	0.992435	-0.126244	-0.544549
C107	C	1.325768	0.207089	-0.211216
C108	C	1.659101	0.540423	0.122118
C109	C	0.992444	-0.126238	-0.656207
C110	C	1.325777	0.207095	-0.322874
C111	C	1.659111	0.540428	0.010459
N112	N	0.992455	-0.126228	0.254802
N113	N	1.325788	0.207105	0.588135
N114	N	1.659122	0.540439	0.921469
H115	H	0.554360	-0.046263	0.148754
H116	H	0.887693	0.287070	0.482087
H117	H	1.221026	0.620403	0.815421
H118	H	0.459092	0.036729	-0.000138
H119	H	0.792425	0.370063	0.333195
H120	H	1.125758	0.703396	0.666529
H121	H	0.554364	-0.046269	-0.148900
H122	H	0.887697	0.287064	0.184433
H123	H	1.221030	0.620397	0.517766
H124	H	0.430616	-0.206163	-0.149036
H125	H	0.763949	0.127170	0.184298
H126	H	1.097283	0.460503	0.517631
H127	H	0.430485	-0.206155	0.148771
H128	H	0.763818	0.127178	0.482104
H129	H	1.097152	0.460512	0.815438
H130	H	0.525578	-0.289307	-0.000139
H131	H	0.858912	0.044026	0.333194
H132	H	1.192245	0.377360	0.666528
