data_functionalizedCrystal
_audit_creation_method	'MofGen! by Chris Wilmer'
_symmetry_space_group_name_H-M	'P1'
_symmetry_Int_Tables_number	1
_symmetry_cell_setting	triclinic
loop_
_symmetry_equiv_pos_as_xyz
  x,y,z
_cell_length_a	14.519709
_cell_length_b	10.654543
_cell_length_c	9.730223
_cell_angle_alpha	89.998625
_cell_angle_beta	89.994652
_cell_angle_gamma	95.918841
loop_
_atom_site_label
_atom_site_type_symbol
_atom_site_fract_x
_atom_site_fract_y
_atom_site_fract_z
O1	O	0.129503	-1.666599	-0.114145
O2	O	0.629503	-1.166599	0.385855
O3	O	0.141850	-1.301000	-0.114181
O4	O	0.641850	-0.801000	0.385819
O5	O	0.001488	-1.493493	-0.114150
O6	O	0.501488	-0.993493	0.385850
O7	O	0.269865	-1.474106	-0.114176
O8	O	0.769865	-0.974106	0.385824
O9	O	0.001484	-1.493481	0.114430
O10	O	0.501484	-0.993481	0.614430
O11	O	0.141846	-1.300988	0.114399
O12	O	0.641846	-0.800988	0.614399
O13	O	0.129499	-1.666586	0.114434
O14	O	0.629499	-1.166586	0.614434
Zn15	Zn	0.135672	-1.483785	0.150709
Zn16	Zn	0.635672	-0.983785	0.650709
Zn17	Zn	0.135677	-1.483802	-0.150455
Zn18	Zn	0.635677	-0.983802	0.349545
O19	O	0.269861	-1.474094	0.114403
O20	O	0.769861	-0.974094	0.614403
C21	C	-0.032878	-1.492583	0.000140
C22	C	0.467122	-0.992583	0.500140
C23	C	-0.135274	-1.489876	0.000141
C24	C	0.364726	-0.989876	0.500141
C25	C	0.140943	-1.254205	0.000105
C26	C	0.640943	-0.754205	0.500105
C27	C	0.138234	-1.114787	0.000092
C28	C	0.638234	-0.614787	0.500092
N29	N	0.135668	-1.483783	0.356245
N30	N	0.635668	-0.983783	0.856245
C31	C	-0.510221	-1.479909	0.000104
C32	C	-0.010221	-0.979909	0.500104
C33	C	-0.405899	-1.482676	0.000115
C34	C	0.094101	-0.982676	0.500115
C35	C	-0.322751	-1.484892	0.000124
C36	C	0.177249	-0.984892	0.500124
C37	C	-0.218422	-1.487660	0.000132
C38	C	0.281578	-0.987660	0.500132
C39	C	0.304227	-1.475004	0.000110
C40	C	0.804227	-0.975004	0.500110
C41	C	0.406622	-1.477711	0.000101
C42	C	0.906622	-0.977711	0.500101
C43	C	0.220877	-1.034507	0.000085
C44	C	0.720877	-0.534507	0.500085
C45	C	0.218326	-0.903510	0.000106
C46	C	0.718326	-0.403510	0.500106
C47	C	0.050484	-0.933087	0.000133
C48	C	0.550484	-0.433087	0.500133
C49	C	0.053035	-1.064081	0.000123
C50	C	0.553035	-0.564081	0.500123
C51	C	0.130410	-0.713381	0.000139
C52	C	0.630410	-0.213381	0.500139
C53	C	0.133132	-0.852796	0.000123
C54	C	0.633132	-0.352796	0.500123
N55	N	0.135674	-1.483813	-0.355992
N56	N	0.635674	-0.983813	0.144008
C57	C	0.073542	-1.569048	0.428185
C58	C	0.573542	-1.069048	0.928185
C59	C	0.073542	-1.569060	0.572068
C60	C	0.573542	-1.069060	1.072068
C61	C	0.197802	-1.398540	0.572059
C62	C	0.697802	-0.898540	1.072059
C63	C	0.197797	-1.398522	0.428178
C64	C	0.697797	-0.898522	0.928178
H65	H	0.290251	-1.075787	0.000070
H66	H	0.790251	-0.575787	0.500070
Br67	Br	-0.010779	-1.684775	0.669698
Br68	Br	0.489221	-1.184775	1.169698
H69	H	0.248388	-1.329084	0.369601
H70	H	0.748388	-0.829084	0.869601
Br71	Br	0.330489	-0.794561	0.000104
Br72	Br	0.830489	-0.294561	0.500104
H73	H	0.248388	-1.329124	0.630641
H74	H	0.748388	-0.829124	1.130641
Br75	Br	-0.065138	-0.864263	0.000170
Br76	Br	0.434862	-0.364263	0.500170
H77	H	-0.014267	-1.129450	0.000132
H78	H	0.485733	-0.629450	0.500132
H79	H	0.022951	-1.638471	0.369620
H80	H	0.522951	-1.138471	0.869620
