data_functionalizedCrystal
_audit_creation_method	'MofGen! by Chris Wilmer'
_symmetry_space_group_name_H-M	'P1'
_symmetry_Int_Tables_number	1
_symmetry_cell_setting	triclinic
loop_
_symmetry_equiv_pos_as_xyz
  x,y,z
_cell_length_a	11.792241
_cell_length_b	11.792241
_cell_length_c	16.776229
_cell_angle_alpha	89.993219
_cell_angle_beta	89.997077
_cell_angle_gamma	84.193416
loop_
_atom_site_label
_atom_site_type_symbol
_atom_site_fract_x
_atom_site_fract_y
_atom_site_fract_z
O1	O	1.506913	0.155571	-0.066211
O2	O	2.006913	0.655571	0.433789
O3	O	1.176572	0.171603	-0.066230
O4	O	1.676572	0.671603	0.433770
O5	O	1.349759	-0.001584	-0.066214
O6	O	1.849759	0.498416	0.433786
O7	O	1.333726	0.328757	-0.066226
O8	O	1.833726	0.828757	0.433774
O9	O	1.349736	-0.001594	0.066362
O10	O	1.849736	0.498406	0.566362
O11	O	1.176549	0.171593	0.066347
O12	O	1.676549	0.671593	0.566347
O13	O	1.506890	0.155560	0.066365
O14	O	2.006890	0.655560	0.566365
Zn15	Zn	1.341715	0.163574	0.087405
Zn16	Zn	1.841715	0.663574	0.587405
Zn17	Zn	1.341746	0.163589	-0.087270
Zn18	Zn	1.841746	0.663589	0.412730
O19	O	1.333703	0.328747	0.066350
O20	O	1.833703	0.828747	0.566350
C21	C	1.134269	0.170591	0.000056
C22	C	1.634269	0.670591	0.500056
C23	C	1.008255	0.167576	0.000049
C24	C	1.508255	0.667576	0.500049
C25	C	0.777543	0.162034	0.000072
C26	C	1.277543	0.662034	0.500072
C27	C	0.905928	0.165113	0.000060
C28	C	1.405928	0.665113	0.500060
C29	C	1.348740	-0.043880	0.000074
C30	C	1.848740	0.456120	0.500074
C31	C	1.345726	-0.169894	0.000073
C32	C	1.845726	0.330106	0.500073
C33	C	1.340183	-0.400606	0.000059
C34	C	1.840183	0.099394	0.500059
C35	C	1.343262	-0.272221	0.000066
C36	C	1.843262	0.227779	0.500066
C37	C	1.549192	0.156572	0.000078
C38	C	2.049192	0.656572	0.500078
C39	C	1.675206	0.159587	0.000079
C40	C	2.175206	0.659587	0.500079
C41	C	1.334721	0.371043	0.000060
C42	C	1.834721	0.871043	0.500060
C43	C	1.337736	0.497057	0.000056
C44	C	1.837736	0.997057	0.500056
N45	N	1.341703	0.163564	0.206617
N46	N	1.841703	0.663564	0.706617
N47	N	1.341767	0.163590	-0.206481
N48	N	1.841767	0.663590	0.293519
C49	C	1.418414	0.086909	0.248341
C50	C	1.918414	0.586909	0.748341
C51	C	1.418420	0.086908	0.331793
C52	C	1.918420	0.586908	0.831793
C53	C	1.341720	0.163568	0.373520
C54	C	1.841720	0.663568	0.873520
C55	C	1.265001	0.240227	0.331790
C56	C	1.765001	0.740227	0.831790
C57	C	1.264990	0.240222	0.248339
C58	C	1.764990	0.740222	0.748339
C59	C	1.265042	0.240250	0.668337
C60	C	1.765042	0.740250	1.168337
C61	C	1.265061	0.240252	0.751794
C62	C	1.765061	0.740252	1.251794
C63	C	1.418472	0.086936	0.751791
C64	C	1.918472	0.586936	1.251791
C65	C	1.418461	0.086930	0.668340
C66	C	1.918461	0.586930	1.168340
C67	C	1.341739	0.163585	0.626618
C68	C	1.841739	0.663585	1.126618
C69	C	1.341731	0.163583	0.536129
C70	C	1.841731	0.663583	1.036129
C71	C	1.341732	0.163576	0.464006
C72	C	1.841732	0.663576	0.964006
H73	H	1.480876	0.024487	0.214372
H74	H	1.980876	0.524487	0.714372
Br75	Br	1.522563	-0.017106	0.611713
Br76	Br	2.022563	0.482894	1.111713
Br77	Br	1.160870	0.344252	0.191714
Br78	Br	1.660870	0.844252	0.691714
H79	H	1.480941	0.024516	0.785770
H80	H	1.980941	0.524516	1.285770
H81	H	1.202544	0.302642	0.365769
H82	H	1.702544	0.802642	0.865769
Br83	Br	1.522525	-0.017130	0.388421
Br84	Br	2.022525	0.482870	0.888421
Br85	Br	1.160962	0.344300	0.808423
Br86	Br	1.660962	0.844300	1.308423
H87	H	1.202574	0.302667	0.634373
H88	H	1.702574	0.802667	1.134373
