data_functionalizedCrystal
_audit_creation_method	'MofGen! by Chris Wilmer'
_symmetry_space_group_name_H-M	'P1'
_symmetry_Int_Tables_number	1
_symmetry_cell_setting	triclinic
loop_
_symmetry_equiv_pos_as_xyz
  x,y,z
_cell_length_a	12.594516
_cell_length_b	12.759401
_cell_length_c	12.759393
_cell_angle_alpha	89.979527
_cell_angle_beta	89.971395
_cell_angle_gamma	90.017577
loop_
_atom_site_label
_atom_site_type_symbol
_atom_site_fract_x
_atom_site_fract_y
_atom_site_fract_z
Zn1	Zn	-0.423641	1.606252	-0.594038
Zn2	Zn	-0.601659	1.606140	-0.418366
Zn3	Zn	-0.423700	1.430552	-0.418373
Zn4	Zn	-0.601583	1.430538	-0.594003
O5	O	-0.512646	1.518370	-0.506195
O6	O	-0.447263	1.753258	-0.570746
O7	O	-0.578109	1.582807	-0.271345
O8	O	-0.274746	1.453911	-0.441693
O9	O	-0.578052	1.753176	-0.441680
O10	O	-0.274703	1.582997	-0.570754
O11	O	-0.447363	1.453803	-0.271351
O12	O	-0.447289	1.283529	-0.441659
O13	O	-0.577922	1.453888	-0.741029
O14	O	-0.577979	1.283519	-0.570694
O15	O	-0.447190	1.582984	-0.741054
O16	O	-0.750595	1.582794	-0.441646
O17	O	-0.750539	1.453780	-0.570686
C18	C	-0.512633	1.245403	-0.506174
C19	C	-0.512653	1.128626	-0.506190
C20	C	-0.789187	1.518302	-0.506185
C21	C	-0.907492	1.518368	-0.506215
C22	C	-0.580807	1.073787	-0.573272
C23	C	-0.580811	0.964063	-0.573293
C24	C	-0.444504	0.964028	-0.439140
C25	C	-0.444496	1.073750	-0.439125
C26	C	-0.619002	0.814165	-0.697155
C27	C	-0.687172	0.759321	-0.764229
C28	C	-0.791045	0.794917	-0.780181
C29	C	-0.826769	0.885353	-0.729045
C30	C	-0.758604	0.940191	-0.661964
C31	C	-0.654716	0.904598	-0.646031
C32	C	-0.406316	1.223650	-0.315262
C33	C	-0.338155	1.278489	-0.248175
C34	C	-0.234281	1.242896	-0.232212
C35	C	-0.198561	1.152456	-0.283330
C36	C	-0.266721	1.097616	-0.350417
C37	C	-0.370595	1.133217	-0.366381
C38	C	-0.976754	1.448191	-0.576351
C39	C	-1.047624	1.422590	-0.480484
C40	C	-1.047421	1.544064	-0.602099
C41	C	-0.976804	1.492717	-0.410297
C42	C	-0.976595	1.614236	-0.531977
C43	C	-1.047433	1.588672	-0.436044
C44	C	-0.235025	1.518468	-0.506228
C45	C	-0.116720	1.518510	-0.506242
C46	C	-0.512541	1.518447	-0.780228
C47	C	-0.512496	1.518479	-0.897005
C48	C	-0.512660	1.792404	-0.506216
C49	C	-0.512666	1.909180	-0.506226
C50	C	-0.444373	1.585726	-1.061613
C51	C	-0.444414	1.585706	-0.951889
C52	C	-0.580550	1.451276	-0.951851
C53	C	-0.580513	1.451302	-1.061573
C54	C	-0.406443	1.709590	-0.801960
C55	C	-0.338380	1.776781	-0.747118
C56	C	-0.234513	1.792958	-0.782748
C57	C	-0.198687	1.741928	-0.873219
C58	C	-0.266744	1.674729	-0.928055
C59	C	-0.370626	1.658572	-0.892426
C60	C	-0.618473	1.327417	-1.211504
C61	C	-0.686525	1.260212	-1.266342
C62	C	-0.790395	1.244024	-1.230714
C63	C	-0.826217	1.295035	-1.140241
C64	C	-0.758164	1.362241	-1.085403
C65	C	-0.654297	1.378430	-1.121038
C66	C	-0.512674	1.518355	-0.233228
C67	C	-0.512418	1.518526	-0.116451
H68	H	-0.636302	1.118464	-0.627883
H69	H	-1.078846	1.341583	-0.458716
H70	H	-0.491023	1.696435	-0.772948
N71	N	-0.160754	1.302042	-0.159860
H72	H	-0.137454	1.254506	-0.100892
H73	H	-0.199195	1.364733	-0.129965
H74	H	-0.945913	1.470947	-0.329198
N75	N	-0.371018	0.904830	-0.366794
H76	H	-0.294981	0.923935	-0.383225
H77	H	-0.381469	0.827020	-0.377017
N78	N	-0.376680	1.376038	-0.193041
H79	H	-0.317741	1.405374	-0.148118
H80	H	-0.439604	1.357974	-0.147375
H81	H	-0.658076	0.685688	-0.805865
N82	N	-0.506963	0.775772	-0.679951
H83	H	-0.467790	0.774671	-0.749031
H84	H	-0.508933	0.702700	-0.649558
H85	H	-0.388925	1.640464	-1.106292
H86	H	-0.945718	1.388738	-0.635576
N87	N	-0.228201	1.000067	-0.405553
H88	H	-0.152053	0.985836	-0.385263
H89	H	-0.232912	1.010570	-0.483870
N90	N	-1.088288	1.667370	-0.357415
H91	H	-1.062461	1.647880	-0.285062
H92	H	-1.168472	1.667398	-0.358373
H93	H	-0.114103	1.755095	-0.902214
N94	N	-0.161101	1.865429	-0.723603
H95	H	-0.199555	1.895298	-0.660888
H96	H	-0.137873	1.924404	-0.771201
H97	H	-0.911357	0.914321	-0.742030
H98	H	-0.635988	1.396543	-0.907155
N99	N	-0.086523	1.114059	-0.266115
H100	H	-0.074240	1.048443	-0.308675
H101	H	-0.075740	1.098070	-0.189327
N102	N	-0.796795	1.417261	-0.987817
H103	H	-0.872923	1.396811	-0.973563
H104	H	-0.792179	1.495592	-0.998292
N105	N	-0.935237	1.721516	-0.560862
H106	H	-0.960876	1.740812	-0.633332
H107	H	-0.855057	1.720753	-0.559897
N108	N	-1.088522	1.572781	-0.709487
H109	H	-1.062812	1.519665	-0.762393
H110	H	-1.061568	1.644643	-0.729390
N111	N	-0.228117	1.619686	-1.025622
H112	H	-0.151984	1.640123	-1.039873
H113	H	-0.273879	1.640742	-1.087097
N114	N	-0.377026	1.831809	-0.649542
H115	H	-0.439969	1.877428	-0.667497
H116	H	-0.318086	1.876767	-0.620244
H117	H	-0.910796	1.281857	-1.111232
H118	H	-0.490897	1.252645	-0.328263
N119	N	-0.863793	1.171527	-1.289851
H120	H	-0.825341	1.141657	-1.352568
H121	H	-0.928167	1.211924	-1.314210
N122	N	-0.647891	1.205184	-1.363922
H123	H	-0.571766	1.225640	-1.378179
H124	H	-0.693666	1.226232	-1.425391
H125	H	-0.533896	1.340598	-1.240525
H126	H	-0.846550	0.750256	-0.834795
N127	N	-0.797121	1.037723	-0.606804
H128	H	-0.873273	1.051950	-0.627081
H129	H	-0.751360	1.099224	-0.627930
