data_functionalizedCrystal
_audit_creation_method	'MofGen! by Chris Wilmer'
_symmetry_space_group_name_H-M	'P1'
_symmetry_Int_Tables_number	1
_symmetry_cell_setting	triclinic
loop_
_symmetry_equiv_pos_as_xyz
  x,y,z
_cell_length_a	25.639242
_cell_length_b	25.639239
_cell_length_c	25.639243
_cell_angle_alpha	90.014050
_cell_angle_beta	90.011922
_cell_angle_gamma	90.030990
loop_
_atom_site_label
_atom_site_type_symbol
_atom_site_fract_x
_atom_site_fract_y
_atom_site_fract_z
Zn1	Zn	0.799212	-0.208346	0.295633
Zn2	Zn	0.799140	-0.295758	0.208197
Zn3	Zn	0.711792	-0.208326	0.208209
Zn4	Zn	0.711734	-0.295740	0.295599
O5	O	0.755470	-0.252043	0.251910
O6	O	0.872368	-0.219957	0.284044
O7	O	0.787547	-0.284159	0.135034
O8	O	0.723444	-0.135164	0.219825
O9	O	0.872314	-0.284178	0.219805
O10	O	0.787671	-0.135178	0.284055
O11	O	0.723373	-0.219923	0.135042
O12	O	0.638620	-0.219907	0.219792
O13	O	0.723344	-0.284149	0.368769
O14	O	0.638576	-0.284129	0.283997
O15	O	0.787614	-0.219940	0.368794
O16	O	0.787490	-0.368921	0.219772
O17	O	0.723273	-0.368908	0.283986
C18	C	0.619627	-0.252014	0.251893
C19	C	0.561513	-0.252015	0.251898
C20	C	0.310355	-0.218662	0.285420
C21	C	0.364960	-0.218657	0.285417
O22	O	0.393227	-0.190277	0.313914
N23	N	0.392239	-0.252037	0.251916
C24	C	0.364911	-0.285427	0.218419
O25	O	0.393129	-0.313819	0.189924
C26	C	0.310308	-0.285435	0.218425
C27	C	0.283031	-0.252049	0.251925
C28	C	0.283079	-0.185280	0.318917
C29	C	0.228478	-0.185284	0.318919
C30	C	0.201154	-0.218671	0.285424
C31	C	0.228431	-0.252054	0.251927
C32	C	0.282981	-0.318827	0.184932
C33	C	0.228374	-0.318832	0.184941
C34	C	0.201098	-0.285447	0.218440
C35	C	0.146506	-0.285445	0.218434
N36	N	0.119227	-0.252066	0.251935
C37	C	0.146551	-0.218679	0.285430
C38	C	0.479582	-0.285410	0.218410
C39	C	0.534184	-0.285400	0.218401
C40	C	0.534229	-0.218630	0.285399
C41	C	0.479626	-0.218638	0.285405
C42	C	0.452303	-0.252030	0.251911
C43	C	0.031886	-0.218691	0.285432
C44	C	-0.022719	-0.218697	0.285429
C45	C	-0.022759	-0.285468	0.218433
C46	C	0.031841	-0.285460	0.218433
C47	C	0.059163	-0.252070	0.251937
O48	O	0.118205	-0.313813	0.189952
O49	O	0.118327	-0.190297	0.313925
C50	C	0.755382	-0.387885	0.251886
C51	C	0.755392	-0.445999	0.251893
C52	C	0.788994	-0.806356	0.218531
C53	C	0.789015	-0.860961	0.218538
O54	O	0.817494	-0.889192	0.190145
N55	N	0.755561	-0.888282	0.251944
C56	C	0.722090	-0.860996	0.285350
O57	O	0.693637	-0.889248	0.313766
C58	C	0.722072	-0.806392	0.285345
C59	C	0.755524	-0.779074	0.251933
C60	C	0.822444	-0.779038	0.185121
C61	C	0.822423	-0.724437	0.185113
C62	C	0.788952	-0.697155	0.218516
C63	C	0.755503	-0.724473	0.251925
C64	C	0.688603	-0.779107	0.318753
C65	C	0.688589	-0.724500	0.318746
C66	C	0.722041	-0.697182	0.285333
C67	C	0.722011	-0.642591	0.285320
N68	N	0.755465	-0.615270	0.251913
C69	C	0.788935	-0.642552	0.218511
C70	C	0.722129	-0.975666	0.285358
C71	C	0.722143	-1.030269	0.285361
C72	C	0.789069	-1.030230	0.218549
C73	C	0.789052	-0.975626	0.218544
C74	C	0.755582	-0.948345	0.251951
C75	C	0.788888	-0.527887	0.218497
C76	C	0.788862	-0.473281	0.218491
C77	C	0.721939	-0.473325	0.285305
C78	C	0.721962	-0.527926	0.285309
C79	C	0.755441	-0.555205	0.251904
O80	O	0.693549	-0.614324	0.313699
O81	O	0.817387	-0.614293	0.190104
C82	C	0.891843	-0.252071	0.251927
C83	C	0.949957	-0.252084	0.251934
C84	C	0.755481	-0.252045	0.388283
C85	C	0.755485	-0.252045	0.446397
C86	C	0.755572	-0.115670	0.251945
C87	C	0.755616	-0.057556	0.251960
C88	C	0.788883	-0.285496	0.697578
C89	C	0.788884	-0.285497	0.642974
O90	O	0.817286	-0.313951	0.614727
N91	N	0.755475	-0.252051	0.615671
C92	C	0.722059	-0.218606	0.642975
O93	O	0.693642	-0.190158	0.614737
C94	C	0.722056	-0.218608	0.697578
C95	C	0.755470	-0.252053	0.724878
C96	C	0.822294	-0.318938	0.724879
C97	C	0.822293	-0.318936	0.779479
C98	C	0.788881	-0.285493	0.806779
C99	C	0.755469	-0.252051	0.779479
C100	C	0.688637	-0.185166	0.724881
C101	C	0.688636	-0.185172	0.779488
C102	C	0.722051	-0.218616	0.806788
C103	C	0.722056	-0.218606	0.861379
N104	N	0.755465	-0.252051	0.888683
C105	C	0.788877	-0.285495	0.861383
C106	C	0.722069	-0.218605	0.528304
C107	C	0.722075	-0.218600	0.473702
C108	C	0.788899	-0.285491	0.473705
C109	C	0.788895	-0.285493	0.528308
C110	C	0.755478	-0.252051	0.555607
C111	C	0.788873	-0.285488	0.976048
C112	C	0.788871	-0.285482	1.030653
C113	C	0.722045	-0.218593	1.030645
C114	C	0.722049	-0.218597	0.976045
C115	C	0.755465	-0.252049	0.948747
O116	O	0.693668	-0.190167	0.889661
O117	O	0.817284	-0.313943	0.889627
C118	C	0.755457	-0.252049	1.116067
C119	C	0.755459	-0.252039	1.057953
H120	H	0.457339	-0.312601	0.191130
F121	F	-0.051849	-0.320998	0.182786
H122	H	0.694858	-0.191367	0.550528
F123	F	0.824437	-0.321079	1.059705
F124	F	0.563319	-0.183097	0.321048
H125	H	0.661427	-0.157933	0.702662
F126	F	0.686350	-0.557001	0.320861
F127	F	0.686320	-0.444280	0.320853
H128	H	0.816291	-0.953387	0.191337
F129	F	0.857859	-0.354537	0.695832
H130	H	0.694871	-0.191360	0.451478
H131	H	0.816103	-0.451041	0.191281
H132	H	0.816104	-0.312727	0.550532
H133	H	0.054125	-0.191501	0.312713
H134	H	0.694843	-0.191362	1.052883
H135	H	0.206131	-0.346026	0.157666
H136	H	0.816151	-0.550091	0.191296
H137	H	0.816324	-1.052453	0.191353
H138	H	0.457421	-0.191452	0.312683
H139	H	0.849702	-0.801245	0.157921
H140	H	0.661423	-0.157938	0.801712
H141	H	0.054051	-0.312641	0.191151
F142	F	0.858033	-0.695370	0.149557
H143	H	0.694899	-1.052506	0.312564
F144	F	0.311999	-0.354355	0.149270
H145	H	0.694870	-0.953456	0.312561
F146	F	0.824438	-0.321092	0.947003
H147	H	0.661361	-0.801340	0.345959
F148	F	0.857853	-0.354537	0.808527
F149	F	0.824458	-0.321087	0.444640
F150	F	0.686491	-0.182996	0.946989
H151	H	0.661335	-0.702290	0.345952
H152	H	-0.044926	-0.191508	0.312709
H153	H	0.206275	-0.158101	0.346200
H154	H	0.305320	-0.158092	0.346195
H155	H	0.556388	-0.312580	0.191116
