data_functionalizedCrystal
_audit_creation_method	'MofGen! by Chris Wilmer'
_symmetry_space_group_name_H-M	'P1'
_symmetry_Int_Tables_number	1
_symmetry_cell_setting	triclinic
loop_
_symmetry_equiv_pos_as_xyz
  x,y,z
_cell_length_a	15.944545
_cell_length_b	15.021413
_cell_length_c	10.540539
_cell_angle_alpha	90.003442
_cell_angle_beta	95.989168
_cell_angle_gamma	89.990408
loop_
_atom_site_label
_atom_site_type_symbol
_atom_site_fract_x
_atom_site_fract_y
_atom_site_fract_z
O1	O	1.115490	0.073970	-0.163665
O2	O	0.871060	0.073984	-0.183857
O3	O	0.998852	0.073976	0.011021
O4	O	0.987699	0.073979	-0.358544
O5	O	0.998867	-0.074089	0.011009
O6	O	0.871075	-0.074080	-0.183869
O7	O	1.115505	-0.074094	-0.163677
Zn8	Zn	0.993293	-0.097595	-0.173775
Zn9	Zn	0.993273	0.097486	-0.173759
O10	O	0.987714	-0.074086	-0.358556
C11	C	0.839769	-0.000046	-0.183026
C12	C	0.746507	-0.000041	-0.180518
N13	N	0.993312	-0.230733	-0.173785
C14	C	0.475110	-0.000051	-0.052226
C15	C	0.526068	-0.073056	-0.114084
C16	C	0.410810	-0.000056	-0.171570
C17	C	0.526033	0.072923	-0.114104
C18	C	0.575750	-0.000047	-0.175960
C19	C	0.460540	-0.073121	-0.233396
C20	C	0.460502	0.072924	-0.233399
C21	C	0.511427	-0.000099	-0.295344
C22	C	0.315793	-0.000062	-0.169038
C23	C	0.670764	-0.000047	-0.178501
C24	C	1.052415	-0.470396	-0.083653
C25	C	0.976368	-0.529721	-0.058996
C26	C	0.993293	-0.412340	-0.173769
C27	C	1.069321	-0.529757	-0.198351
C28	C	0.993281	-0.587764	-0.173751
C29	C	0.917207	-0.470358	-0.149056
C30	C	1.010210	-0.470389	-0.288460
C31	C	0.934109	-0.529687	-0.263853
C32	C	0.993301	-0.311283	-0.173777
C33	C	0.993264	-0.688819	-0.173745
C34	C	1.146797	-0.000062	-0.164508
C35	C	1.240058	-0.000061	-0.167017
C36	C	0.998023	-0.000055	0.058307
C37	C	0.995520	-0.000050	0.199221
N38	N	0.993260	0.230623	-0.173739
C39	C	0.988543	-0.000053	-0.405841
C40	C	0.991045	-0.000052	-0.546755
C41	C	0.899633	0.000288	0.381339
C42	C	0.902170	-0.000045	0.234755
C43	C	1.040454	-0.084604	0.261485
C44	C	1.037268	-0.084675	0.407986
C45	C	1.039149	0.083701	0.408544
C46	C	1.040009	0.084819	0.261574
H47	H	0.458844	-0.000123	0.050555
H48	H	1.102359	-0.444362	-0.007402
Br49	Br	0.810008	-0.427062	-0.114203
Br50	Br	0.573724	0.175786	-0.030058
Br51	Br	0.988454	-0.189477	0.189771
H52	H	0.962048	-0.555784	0.038003
H53	H	0.884051	-0.555556	-0.340059
Br54	Br	0.573794	-0.175932	-0.030092
Br55	Br	1.176489	-0.573253	-0.233014
Br56	Br	1.154718	-0.089856	0.225794
H57	H	1.004073	-0.147878	0.435727
H58	H	0.866579	-0.060755	0.192508
Br59	Br	0.538269	-0.000160	-0.466785
H60	H	0.432037	-0.134908	-0.283766
Br61	Br	0.412742	0.175800	-0.317327
H62	H	0.862751	0.060924	0.409441
H63	H	1.024554	-0.444307	-0.385430
Br64	Br	0.843243	0.100979	0.162944
H65	H	1.007131	0.147370	0.220272
H66	H	0.862913	-0.060004	0.411040
Br67	Br	1.149163	-0.091086	0.489471
H68	H	1.008930	0.147788	0.439690
Br69	Br	1.153446	0.093332	0.222745
Br70	Br	1.151531	0.084645	0.488789
