data_functionalizedCrystal
_audit_creation_method	'MofGen! by Chris Wilmer'
_symmetry_space_group_name_H-M	'P1'
_symmetry_Int_Tables_number	1
_symmetry_cell_setting	triclinic
loop_
_symmetry_equiv_pos_as_xyz
  x,y,z
_cell_length_a	14.971486
_cell_length_b	14.971493
_cell_length_c	14.048226
_cell_angle_alpha	90.010449
_cell_angle_beta	89.993876
_cell_angle_gamma	83.615656
loop_
_atom_site_label
_atom_site_type_symbol
_atom_site_fract_x
_atom_site_fract_y
_atom_site_fract_z
O1	O	-1.186939	-0.116572	-0.079049
O2	O	-0.926540	-0.130531	-0.079075
O3	O	-1.063715	0.006648	-0.079057
O4	O	-1.049764	-0.253751	-0.079067
O5	O	-1.063720	0.006672	0.079264
O6	O	-0.926545	-0.130507	0.079246
O7	O	-1.186944	-0.116548	0.079272
Zn8	Zn	-1.056745	-0.123524	0.104396
Zn9	Zn	-1.056739	-0.123555	-0.104199
O10	O	-1.049769	-0.253727	0.079255
C11	C	-0.893217	-0.129895	0.000083
C12	C	-0.793920	-0.128024	0.000073
C13	C	-1.063093	0.039985	0.000102
C14	C	-1.061219	0.139281	0.000099
C15	C	-1.220267	-0.117184	0.000113
C16	C	-1.319564	-0.119055	0.000116
C17	C	-0.736697	-0.208613	0.000071
C18	C	-0.643398	-0.206850	0.000085
C19	C	-0.607323	-0.124497	0.000094
C20	C	-0.664554	-0.043902	0.000099
C21	C	-0.757851	-0.045666	0.000091
C22	C	-0.470091	-0.040231	0.000112
C23	C	-0.376787	-0.038466	0.000118
C24	C	-0.355637	-0.201415	0.000106
C25	C	-0.448935	-0.203179	0.000099
C26	C	-0.506159	-0.122583	0.000101
C27	C	-1.060339	0.185913	-0.086202
C28	C	-1.058573	0.279213	-0.086202
C29	C	-1.057694	0.325879	0.000100
C30	C	-1.058572	0.279240	0.086408
C31	C	-1.060332	0.185942	0.086407
C32	C	-1.054907	0.473703	0.086405
C33	C	-1.053149	0.567008	0.086406
C34	C	-1.053148	0.566974	-0.086205
C35	C	-1.054907	0.473676	-0.086206
C36	C	-1.055787	0.427044	0.000102
C37	C	-1.050392	0.712936	0.000097
C38	C	-1.052268	0.613640	0.000104
N39	N	-1.056735	-0.123569	-0.246560
C40	C	-1.002547	-0.069111	-0.296374
C41	C	-1.002555	-0.069093	-0.396031
C42	C	-1.056746	-0.123539	-0.445873
C43	C	-1.110939	-0.178000	-0.396052
C44	C	-1.110936	-0.178012	-0.296396
C45	C	-1.110941	-0.177972	-0.603766
C46	C	-1.110944	-0.177961	-0.703429
C47	C	-1.002560	-0.069053	-0.703401
C48	C	-1.002557	-0.069065	-0.603745
C49	C	-1.056749	-0.123527	-0.553931
N50	N	-1.056756	-0.123503	0.246757
H51	H	-0.766061	-0.275674	0.000063
F52	F	-0.944865	-0.011165	-0.243337
F53	F	-0.944883	-0.011090	-0.756418
H54	H	-0.596810	-0.272474	0.000083
H55	H	-1.155067	-0.222327	-0.436641
F56	F	-0.530991	0.045549	0.000118
H57	H	-0.478303	-0.270238	0.000082
H58	H	-0.309041	-0.267039	0.000108
H59	H	-1.057859	0.317177	-0.156477
H60	H	-1.155068	-0.222299	-0.744008
H61	H	-1.052430	0.604946	-0.156481
H62	H	-1.057851	0.317242	0.156677
H63	H	-1.055603	0.435735	0.156686
H64	H	-1.061036	0.147973	0.156683
H65	H	-1.155073	-0.222319	-0.563211
F66	F	-1.168613	-0.235971	-0.243381
F67	F	-1.052215	0.616672	0.178259
H68	H	-0.347418	0.028593	0.000126
F69	F	-0.818753	0.040108	0.000097
H70	H	-1.055630	0.435684	-0.156481
H71	H	-0.958433	-0.024745	-0.436585
H72	H	-0.635174	0.023152	0.000120
H73	H	-0.958425	-0.024735	-0.563167
H74	H	-1.061059	0.147925	-0.156480
