data_functionalizedCrystal
_audit_creation_method	'MofGen! by Chris Wilmer'
_symmetry_space_group_name_H-M	'P1'
_symmetry_Int_Tables_number	1
_symmetry_cell_setting	triclinic
loop_
_symmetry_equiv_pos_as_xyz
  x,y,z
_cell_length_a	21.395362
_cell_length_b	11.169416
_cell_length_c	21.395355
_cell_angle_alpha	89.989073
_cell_angle_beta	89.956060
_cell_angle_gamma	90.026221
loop_
_atom_site_label
_atom_site_type_symbol
_atom_site_fract_x
_atom_site_fract_y
_atom_site_fract_z
Zn1	Zn	0.957948	-0.477437	-0.354619
Zn2	Zn	0.957888	-0.678108	-0.249855
Zn3	Zn	0.853163	-0.477493	-0.249820
Zn4	Zn	0.853169	-0.678133	-0.354560
O5	O	0.905542	-0.577793	-0.302213
O6	O	1.045618	-0.504023	-0.340761
O7	O	0.943968	-0.651509	-0.162172
O8	O	0.867086	-0.309536	-0.263732
O9	O	1.045574	-0.651455	-0.263792
O10	O	0.944071	-0.309495	-0.340727
O11	O	0.867027	-0.504118	-0.162147
O12	O	0.765486	-0.504142	-0.263675
O13	O	0.867096	-0.651497	-0.442246
O14	O	0.765491	-0.651551	-0.340627
O15	O	0.944077	-0.504047	-0.442289
O16	O	0.943974	-0.846061	-0.263734
O17	O	0.867038	-0.846079	-0.340661
C18	C	0.742754	-0.577856	-0.302141
C19	C	0.673113	-0.577912	-0.302124
C20	C	0.640419	-0.654770	-0.342133
C21	C	0.574984	-0.654741	-0.342161
C22	C	0.542245	-0.577866	-0.302169
C23	C	0.574947	-0.500994	-0.262157
C24	C	0.640381	-0.501017	-0.262135
C25	C	0.438518	-0.568198	-0.245763
C26	C	0.373085	-0.568183	-0.245784
C27	C	0.340424	-0.577788	-0.302238
C28	C	0.373204	-0.587433	-0.358673
C29	C	0.438638	-0.587456	-0.358650
C30	C	0.471293	-0.577832	-0.302189
C31	C	0.236777	-0.654618	-0.342281
C32	C	0.171341	-0.654580	-0.342310
C33	C	0.171306	-0.500839	-0.262300
C34	C	0.236741	-0.500871	-0.262277
C35	C	0.269473	-0.577766	-0.302266
C36	C	0.905517	-0.889618	-0.302209
C37	C	0.905564	-1.023018	-0.302228
C38	C	1.068965	-0.577730	-0.302287
C39	C	1.138607	-0.577703	-0.302318
C40	C	0.905594	-0.577769	-0.465637
C41	C	0.905616	-0.577758	-0.535278
C42	C	0.905584	-0.264751	-0.302232
C43	C	0.905602	-0.131351	-0.302240
C44	C	0.945698	-0.500978	-0.568015
C45	C	0.945697	-0.500926	-0.633450
C46	C	0.905621	-0.577676	-0.666146
C47	C	0.865531	-0.654462	-0.633402
C48	C	0.865529	-0.654503	-0.567968
C49	C	0.900665	-0.685744	-0.769818
C50	C	0.900672	-0.685705	-0.835251
C51	C	0.905625	-0.577550	-0.867967
C52	C	0.910584	-0.469429	-0.835243
C53	C	0.910582	-0.469470	-0.769809
C54	C	0.905619	-0.577640	-0.737099
C55	C	0.945708	-0.500707	-0.971656
C56	C	0.945703	-0.500653	-1.037093
C57	C	0.865540	-0.654200	-1.037044
C58	C	0.865542	-0.654243	-0.971608
C59	C	0.905630	-0.577498	-0.938919
C60	C	0.905526	-0.577731	-0.139426
C61	C	0.905626	-0.577403	-0.069785
H62	H	0.144650	-0.438241	-0.229741
H63	H	0.548287	-0.438400	-0.229597
C64	C	0.948174	-0.820046	-0.908863
C65	C	0.895234	-0.804557	-0.871211
H66	H	0.944821	-0.893428	-0.931057
H67	H	0.951122	-0.755643	-0.937713
H68	H	0.984484	-0.821589	-0.883351
H69	H	0.858925	-0.803006	-0.896724
H70	H	0.892280	-0.868976	-0.842358
H71	H	0.832903	-0.716679	-1.063664
H72	H	0.346401	-0.560337	-0.199832
H73	H	0.832907	-0.716773	-0.944954
C74	C	0.890773	-0.899512	-0.776398
C75	C	0.895149	-0.804629	-0.733859
H76	H	0.887349	-0.972898	-0.754198
H77	H	0.854896	-0.888875	-0.801918
H78	H	0.927113	-0.901120	-0.801921
H79	H	0.858807	-0.803015	-0.708340
H80	H	0.931030	-0.815268	-0.708329
C81	C	0.633772	-0.349054	-0.183050
C82	C	0.676323	-0.416539	-0.218149
H83	H	0.655963	-0.296909	-0.155892
H84	H	0.608301	-0.303210	-0.210398
H85	H	0.608202	-0.401279	-0.159051
H86	H	0.701890	-0.364315	-0.242152
H87	H	0.701805	-0.462387	-0.190798
C88	C	1.024934	-0.349199	-0.574641
C89	C	0.989755	-0.416608	-0.532083
H90	H	1.052129	-0.297107	-0.552456
H91	H	1.048894	-0.401467	-0.600181
H92	H	0.997636	-0.303291	-0.600143
H93	H	1.017053	-0.462522	-0.506584
H94	H	0.965793	-0.364333	-0.506533
H95	H	0.832899	-0.716949	-0.660027
H96	H	0.144722	-0.717164	-0.374894
H97	H	0.978336	-0.438396	-0.660110
H98	H	0.832887	-0.717026	-0.541314
H99	H	0.263361	-0.438291	-0.229694
C100	C	1.024939	-0.348918	-0.978275
C101	C	0.989763	-0.416337	-0.935719
H102	H	1.052133	-0.296827	-0.956089
H103	H	1.048899	-0.401179	-1.003818
H104	H	0.997638	-0.303009	-1.003774
H105	H	1.017064	-0.462253	-0.910223
H106	H	0.965801	-0.364069	-0.910166
H107	H	0.548359	-0.717327	-0.374744
C108	C	0.379901	-0.606422	-0.470261
C109	C	0.337312	-0.597963	-0.420735
H110	H	0.357740	-0.612925	-0.508573
H111	H	0.405454	-0.536879	-0.471115
H112	H	0.405387	-0.675215	-0.464687
H113	H	0.311829	-0.529165	-0.426307
H114	H	0.311750	-0.667514	-0.419882
C115	C	0.633876	-0.806733	-0.421220
C116	C	0.676397	-0.739281	-0.386095
H117	H	0.656090	-0.858899	-0.448363
H118	H	0.608312	-0.852553	-0.393889
H119	H	0.608396	-0.754487	-0.445238
H120	H	0.701874	-0.791526	-0.362074
H121	H	0.701972	-0.693458	-0.413430
C122	C	0.431829	-0.549214	-0.134174
C123	C	0.474416	-0.557659	-0.183702
H124	H	0.453991	-0.542719	-0.095862
H125	H	0.406341	-0.480435	-0.139743
H126	H	0.406278	-0.618773	-0.133323
H127	H	0.499964	-0.488096	-0.184557
H128	H	0.499914	-0.626445	-0.178132
C129	C	0.920370	-0.255682	-0.776365
C130	C	0.916023	-0.350631	-0.733837
H131	H	0.923723	-0.182316	-0.754156
H132	H	0.956276	-0.266194	-0.801911
H133	H	0.884051	-0.254135	-0.801864
H134	H	0.952344	-0.352183	-0.708342
H135	H	0.880113	-0.340116	-0.708281
C136	C	0.257031	-0.713373	-0.448320
C137	C	0.272764	-0.739121	-0.386242
H138	H	0.279250	-0.765537	-0.475459
H139	H	0.213387	-0.724363	-0.454058
H140	H	0.267796	-0.632759	-0.457544
H141	H	0.261995	-0.819732	-0.377017
H142	H	0.316418	-0.728141	-0.380501
H143	H	0.914618	-0.381359	-0.861879
C144	C	0.512333	-0.496668	-0.428852
C145	C	0.474670	-0.598034	-0.420680
H146	H	0.534579	-0.503198	-0.467146
H147	H	0.486828	-0.427110	-0.429733
H148	H	0.541144	-0.490965	-0.395222
H149	H	0.445856	-0.603732	-0.454308
H150	H	0.500178	-0.667611	-0.419804
H151	H	0.978342	-0.438122	-1.063746
