data_functionalizedCrystal
_audit_creation_method	'MofGen! by Chris Wilmer'
_symmetry_space_group_name_H-M	'P1'
_symmetry_Int_Tables_number	1
_symmetry_cell_setting	triclinic
loop_
_symmetry_equiv_pos_as_xyz
  x,y,z
_cell_length_a	14.519709
_cell_length_b	11.792241
_cell_length_c	10.868271
_cell_angle_alpha	89.994719
_cell_angle_beta	90.001299
_cell_angle_gamma	83.936780
loop_
_atom_site_label
_atom_site_type_symbol
_atom_site_fract_x
_atom_site_fract_y
_atom_site_fract_z
O1	O	1.224412	0.148781	-0.102162
O2	O	1.474412	0.398781	0.147838
O3	O	1.724412	0.648781	0.397838
O4	O	1.974412	0.898781	0.647838
O5	O	0.955999	0.166302	-0.102200
O6	O	1.205999	0.416302	0.147800
O7	O	1.455999	0.666302	0.397800
O8	O	1.705999	0.916302	0.647800
O9	O	1.096719	-0.007665	-0.102172
O10	O	1.346719	0.242335	0.147828
O11	O	1.596719	0.492335	0.397828
O12	O	1.846719	0.742335	0.647828
O13	O	1.083692	0.322748	-0.102191
O14	O	1.333692	0.572748	0.147809
O15	O	1.583692	0.822748	0.397809
O16	O	1.833692	1.072748	0.647809
O17	O	1.096707	-0.007672	0.102473
O18	O	1.346707	0.242328	0.352473
O19	O	1.596707	0.492328	0.602473
O20	O	1.846707	0.742328	0.852473
O21	O	0.955987	0.166295	0.102445
O22	O	1.205987	0.416295	0.352445
O23	O	1.455987	0.666295	0.602445
O24	O	1.705987	0.916295	0.852445
O25	O	1.224400	0.148774	0.102482
O26	O	1.474400	0.398774	0.352482
O27	O	1.724400	0.648774	0.602482
O28	O	1.974400	0.898774	0.852482
Zn29	Zn	1.090192	0.157533	0.134955
Zn30	Zn	1.340192	0.407533	0.384955
Zn31	Zn	1.590192	0.657533	0.634955
Zn32	Zn	1.840192	0.907533	0.884955
Zn33	Zn	1.090207	0.157542	-0.134673
Zn34	Zn	1.340207	0.407542	0.115327
Zn35	Zn	1.590207	0.657542	0.365327
Zn36	Zn	1.840207	0.907542	0.615327
O37	O	1.083680	0.322741	0.102454
O38	O	1.333680	0.572741	0.352454
O39	O	1.583680	0.822741	0.602454
O40	O	1.833680	1.072741	0.852454
C41	C	0.921630	0.165482	0.000117
C42	C	1.171630	0.415482	0.250117
C43	C	1.421630	0.665482	0.500117
C44	C	1.671630	0.915482	0.750117
C45	C	0.819240	0.163035	0.000103
C46	C	1.069240	0.413035	0.250103
C47	C	1.319240	0.663035	0.500103
C48	C	1.569240	0.913035	0.750103
C49	C	1.095895	-0.049955	0.000150
C50	C	1.345895	0.200045	0.250150
C51	C	1.595895	0.450045	0.500150
C52	C	1.845895	0.700045	0.750150
C53	C	1.093446	-0.175955	0.000149
C54	C	1.343446	0.074045	0.250149
C55	C	1.593446	0.324045	0.500149
C56	C	1.843446	0.574045	0.750149
C57	C	1.088942	-0.406642	0.000127
C58	C	1.338942	-0.156642	0.250127
C59	C	1.588942	0.093358	0.500127
C60	C	1.838942	0.343358	0.750127
C61	C	1.091444	-0.278271	0.000139
C62	C	1.341444	-0.028271	0.250139
C63	C	1.591444	0.221729	0.500139
C64	C	1.841444	0.471729	0.750139
C65	C	0.444311	0.154027	0.000160
C66	C	0.694311	0.404027	0.250160
C67	C	0.944311	0.654027	0.500160
C68	C	1.194311	0.904027	0.750160
C69	C	0.548628	0.156528	0.000144
C70	C	0.798628	0.406528	0.250144
C71	C	1.048628	0.656528	0.500144
C72	C	1.298628	0.906528	0.750144
C73	C	0.631772	0.158531	0.000130
C74	C	0.881772	0.408531	0.250130
C75	C	1.131772	0.658531	0.500130
C76	C	1.381772	0.908531	0.750130
C77	C	0.736096	0.161033	0.000117
C78	C	0.986096	0.411033	0.250117
C79	C	1.236096	0.661033	0.500117
C80	C	1.486096	0.911033	0.750117
C81	C	1.258769	0.149594	0.000162
C82	C	1.508769	0.399594	0.250162
C83	C	1.758769	0.649594	0.500162
C84	C	2.008769	0.899594	0.750162
C85	C	1.361159	0.152041	0.000168
C86	C	1.611159	0.402041	0.250168
C87	C	1.861159	0.652041	0.500168
C88	C	2.111159	0.902041	0.750168
C89	C	1.084504	0.365031	0.000129
C90	C	1.334504	0.615031	0.250129
C91	C	1.584504	0.865031	0.500129
C92	C	1.834504	1.115031	0.750129
C93	C	1.086954	0.491031	0.000123
C94	C	1.336954	0.741031	0.250123
C95	C	1.586954	0.991031	0.500123
C96	C	1.836954	1.241031	0.750123
N97	N	1.090188	0.157527	0.318969
N98	N	1.340188	0.407527	0.568969
N99	N	1.590188	0.657527	0.818969
N100	N	1.840188	0.907527	1.068969
N101	N	1.090218	0.157540	-0.318687
N102	N	1.340218	0.407540	-0.068687
N103	N	1.590218	0.657540	0.181313
N104	N	1.840218	0.907540	0.431313
C105	C	1.090202	0.157540	0.569975
C106	C	1.340202	0.407540	0.819975
C107	C	1.590202	0.657540	1.069975
C108	C	1.840202	0.907540	1.319975
C109	C	1.090191	0.157536	0.430298
C110	C	1.340191	0.407536	0.680298
C111	C	1.590191	0.657536	0.930298
C112	C	1.840191	0.907536	1.180298
