data_functionalizedCrystal
_audit_creation_method	'MofGen! by Chris Wilmer'
_symmetry_space_group_name_H-M	'P1'
_symmetry_Int_Tables_number	1
_symmetry_cell_setting	triclinic
loop_
_symmetry_equiv_pos_as_xyz
  x,y,z
_cell_length_a	14.044220
_cell_length_b	14.853567
_cell_length_c	13.101039
_cell_angle_alpha	93.370803
_cell_angle_beta	86.340132
_cell_angle_gamma	88.411904
loop_
_atom_site_label
_atom_site_type_symbol
_atom_site_fract_x
_atom_site_fract_y
_atom_site_fract_z
O1	O	-1.263194	-0.212822	0.085089
O2	O	-0.987216	-0.204977	0.085116
O3	O	-1.132577	-0.078254	0.085105
O4	O	-1.117833	-0.339545	0.085100
O5	O	-1.122147	-0.087362	-0.085324
O6	O	-0.976786	-0.214086	-0.085313
O7	O	-1.252764	-0.221931	-0.085340
Zn8	Zn	-1.113119	-0.219454	-0.112386
Zn9	Zn	-1.126861	-0.207453	0.112162
O10	O	-1.107403	-0.348654	-0.085329
C11	C	-0.946682	-0.206098	-0.000095
C12	C	-0.841444	-0.195855	-0.000085
C13	C	-1.293298	-0.220810	-0.000126
C14	C	-1.398537	-0.231052	-0.000130
C15	C	-0.648756	-0.177132	-0.000105
C16	C	-0.591218	-0.249771	-0.000110
C17	C	-0.484001	-0.239353	-0.000121
C18	C	-0.755984	-0.187549	-0.000093
C19	C	-1.126694	-0.049166	-0.000106
C20	C	-1.124693	0.051076	-0.000097
C21	C	-1.113286	-0.377741	-0.000115
C22	C	-1.115288	-0.477984	-0.000117
N23	N	-1.103748	-0.227645	-0.265634
C24	C	-1.029882	0.471121	-0.000108
C25	C	-1.202574	0.478719	-0.000124
C26	C	-1.204456	0.384537	-0.000118
C27	C	-1.119050	0.333642	-0.000109
C28	C	-1.031762	0.376930	-0.000105
C29	C	-1.291743	0.341241	-0.000133
C30	C	-1.293629	0.247053	-0.000128
C31	C	-1.208222	0.196157	-0.000111
C32	C	-1.120930	0.239451	-0.000106
C33	C	-1.035524	0.188556	-0.000096
C34	C	-0.948231	0.231848	-0.000084
C35	C	-0.946355	0.326034	-0.000088
C36	C	-1.210099	0.101971	-0.000107
C37	C	-1.037404	0.094364	-0.000094
C38	C	-1.090998	-0.238796	-0.474675
C39	C	-1.148986	-0.188108	-0.525555
C40	C	-1.141892	-0.194312	-0.641873
C41	C	-1.098091	-0.232593	-0.358347
N42	N	-1.136239	-0.199256	0.265410
H43	H	-0.617495	-0.107126	-0.000109
H44	H	-0.967855	0.052932	-0.000081
H45	H	-1.203959	-0.140052	-0.481757
H46	H	-1.272107	0.520163	-0.000140
O47	O	-1.025378	-0.296008	-0.527031
C48	C	-0.962999	-0.246342	-0.589077
H49	H	-0.999581	-0.179618	-0.605010
H50	H	-0.943598	-0.286745	-0.664582
H51	H	-0.895378	-0.232501	-0.547815
H52	H	-1.364708	0.211813	-0.000137
H53	H	-0.622482	-0.319783	-0.000107
H54	H	-0.878694	0.190397	-0.000083
H55	H	-0.875286	0.361291	-0.000079
H56	H	-0.958810	0.506374	-0.000094
O57	O	-1.374769	0.390592	-0.000005
C58	C	-1.433153	0.374629	0.088268
H59	H	-1.411777	0.306732	0.117694
H60	H	-1.510993	0.373833	0.068408
H61	H	-1.423900	0.430412	0.150079
O62	O	-1.294917	0.059967	0.000065
C63	C	-1.352401	0.090035	0.088309
H64	H	-1.305141	0.117009	0.150007
H65	H	-1.394615	0.031404	0.117939
H66	H	-1.403929	0.146006	0.068341
