data_functionalizedCrystal
_audit_creation_method	'MofGen! by Chris Wilmer'
_symmetry_space_group_name_H-M	'P1'
_symmetry_Int_Tables_number	1
_symmetry_cell_setting	triclinic
loop_
_symmetry_equiv_pos_as_xyz
  x,y,z
_cell_length_a	19.188933
_cell_length_b	19.188930
_cell_length_c	9.130313
_cell_angle_alpha	90.008113
_cell_angle_beta	90.002300
_cell_angle_gamma	83.145175
loop_
_atom_site_label
_atom_site_type_symbol
_atom_site_fract_x
_atom_site_fract_y
_atom_site_fract_z
O1	O	0.926143	0.087172	0.121767
O2	O	1.426143	0.587172	0.621767
O3	O	0.722832	0.098905	0.121783
O4	O	1.222832	0.598905	0.621783
O5	O	0.830355	-0.008617	0.121746
O6	O	1.330355	0.491383	0.621746
O7	O	0.818621	0.194694	0.121804
O8	O	1.318621	0.694694	0.621804
O9	O	0.830347	-0.008617	-0.121853
O10	O	1.330347	0.491383	0.378147
O11	O	0.722824	0.098905	-0.121816
O12	O	1.222824	0.598905	0.378184
O13	O	0.926135	0.087172	-0.121832
O14	O	1.426135	0.587172	0.378168
Cu15	Cu	0.824479	0.093039	-0.144067
Cu16	Cu	1.324479	0.593039	0.355933
Cu17	Cu	0.824489	0.093039	0.144017
Cu18	Cu	1.324489	0.593039	0.644017
O19	O	0.818613	0.194694	-0.121795
O20	O	1.318613	0.694694	0.378205
C21	C	0.696817	0.098525	-0.000015
C22	C	1.196817	0.598525	0.499985
C23	C	0.619313	0.097384	-0.000010
C24	C	1.119313	0.597384	0.499990
C25	C	0.066062	0.089239	0.132757
C26	C	0.566062	0.589239	0.632757
C27	C	0.138886	0.090307	0.132763
C28	C	0.638886	0.590307	0.632763
C29	C	0.175299	0.090844	-0.000022
C30	C	0.675299	0.590844	0.499978
C31	C	0.138883	0.090295	-0.132823
C32	C	0.638883	0.590295	0.367177
C33	C	0.066061	0.089220	-0.132825
C34	C	0.566061	0.589220	0.367175
N35	N	0.284315	0.132263	-0.098848
N36	N	0.784315	0.632263	0.401152
N37	N	0.353493	0.133285	-0.098837
N38	N	0.853493	0.633285	0.401163
C39	C	0.394707	0.094082	-0.000023
C40	C	0.894707	0.594082	0.499977
N41	N	0.364129	0.053826	0.098801
N42	N	0.864129	0.553826	0.598801
N43	N	0.294945	0.052806	0.098794
N44	N	0.794945	0.552806	0.598794
C45	C	0.254262	0.092009	-0.000034
C46	C	0.754262	0.592009	0.499966
C47	C	0.510079	0.095784	0.132776
C48	C	1.010079	0.595784	0.632776
C49	C	0.582905	0.096848	0.132776
C50	C	1.082905	0.596848	0.632776
C51	C	0.582900	0.096843	-0.132814
C52	C	1.082900	0.596843	0.367186
C53	C	0.510076	0.095772	-0.132810
C54	C	1.010076	0.595772	0.367190
C55	C	0.473669	0.095246	-0.000012
C56	C	0.973669	0.595246	0.499988
C57	C	0.829971	-0.034628	-0.000058
C58	C	1.329971	0.465372	0.499942
C59	C	0.828830	-0.112132	-0.000070
C60	C	1.328830	0.387868	0.499930
C61	C	0.891921	-0.157056	-0.000082
C62	C	1.391921	0.342944	0.499918
C63	C	0.890849	-0.229880	-0.000059
C64	C	1.390849	0.270120	0.499941
C65	C	0.826683	-0.257777	-0.000053
C66	C	1.326683	0.242223	0.499947
C67	C	0.763584	-0.212843	-0.000032
C68	C	1.263584	0.287157	0.499968
C69	C	0.764658	-0.140021	-0.000041
C70	C	1.264658	0.359979	0.499959
N71	N	0.777633	-0.365782	-0.082950
N72	N	1.277633	0.134218	0.417050
N73	N	0.776618	-0.434961	-0.082945
N74	N	1.276618	0.065039	0.417055
C75	C	0.823445	-0.477185	-0.000023
C76	C	1.323445	0.022815	0.499977
N77	N	0.871337	-0.447620	0.082875
N78	N	1.371337	0.052380	0.582875
N79	N	0.872354	-0.378435	0.082864
N80	N	1.372354	0.121565	0.582864
C81	C	0.825512	-0.336739	-0.000042
C82	C	1.325512	0.163261	0.499958
C83	C	0.885378	-0.601073	-0.000007
C84	C	1.385378	-0.101073	0.499993
C85	C	0.884304	-0.673898	0.000026
C86	C	1.384304	-0.173898	0.500026
C87	C	0.757037	-0.656860	0.000037
C88	C	1.257037	-0.156860	0.500037
C89	C	0.758113	-0.584037	0.000019
C90	C	1.258113	-0.084037	0.500019
C91	C	0.822286	-0.556148	-0.000010
C92	C	1.322286	-0.056148	0.499990
C93	C	0.952150	0.087553	-0.000031
C94	C	1.452150	0.587553	0.499969
C95	C	1.029655	0.088694	-0.000026
C96	C	1.529655	0.588694	0.499974
C97	C	0.818997	0.220705	0.000012
C98	C	1.318997	0.720705	0.500012
C99	C	0.820137	0.298210	0.000034
C100	C	1.320137	0.798210	0.500034
N101	N	0.824477	0.093039	-0.346689
N102	N	1.324477	0.593039	0.153311
C103	C	0.866692	0.135282	-0.423326
C104	C	1.366692	0.635282	0.076674
C105	C	0.866703	0.135278	-0.576663
C106	C	1.366703	0.635278	-0.076663
C107	C	0.782280	0.050785	-0.576712
C108	C	1.282280	0.550785	-0.076712
C109	C	0.782273	0.050786	-0.423378
C110	C	1.282273	0.550786	0.076622
N111	N	0.824496	0.093034	0.346640
N112	N	1.324496	0.593034	0.846640
H113	H	0.036419	0.088779	-0.240957
H114	H	0.536419	0.588779	0.259043
H115	H	0.747896	0.016383	-0.360978
H116	H	1.247896	0.516383	0.139022
H117	H	0.747917	0.016386	-0.639171
H118	H	1.247917	0.516386	-0.139171
H119	H	0.901079	0.169676	-0.639054
H120	H	1.401079	0.669676	-0.139054
H121	H	0.706738	-0.547459	0.000021
H122	H	1.206738	-0.047459	0.500021
H123	H	0.168534	0.090754	0.240895
H124	H	0.668534	0.590754	0.740895
H125	H	0.704792	-0.679573	0.000049
H126	H	1.204792	-0.179573	0.500049
H127	H	0.168535	0.090732	-0.240937
H128	H	0.668535	0.590732	0.259063
H129	H	0.036424	0.088807	0.240893
H130	H	0.536424	0.588807	0.740893
H131	H	0.480435	0.095353	0.240908
H132	H	0.980435	0.595353	0.740908
H133	H	0.711340	-0.235562	-0.000024
H134	H	1.211340	0.264438	0.499976
H135	H	0.612547	0.097286	0.240909
H136	H	1.112547	0.597286	0.740909
H137	H	0.612547	0.097278	-0.240930
H138	H	1.112547	0.597278	0.259070
H139	H	0.944175	-0.134354	-0.000101
H140	H	1.444175	0.365646	0.499899
H141	H	0.480433	0.095331	-0.240937
H142	H	0.980433	0.595331	0.259063
H143	H	0.942227	-0.266463	-0.000063
H144	H	1.442227	0.233537	0.499937
H145	H	0.713280	-0.103444	-0.000032
H146	H	1.213280	0.396556	0.499968
H147	H	0.937631	-0.578365	-0.000024
H148	H	1.437631	-0.078365	0.499976
H149	H	0.935682	-0.710475	0.000024
H150	H	1.435682	-0.210475	0.500024
H151	H	0.901058	0.169686	-0.360891
H152	H	1.401058	0.669686	0.139109
