data_functionalizedCrystal
_audit_creation_method	'MofGen! by Chris Wilmer'
_symmetry_space_group_name_H-M	'P1'
_symmetry_Int_Tables_number	1
_symmetry_cell_setting	triclinic
loop_
_symmetry_equiv_pos_as_xyz
  x,y,z
_cell_length_a	17.077404
_cell_length_b	16.120484
_cell_length_c	16.120339
_cell_angle_alpha	89.785998
_cell_angle_beta	92.864510
_cell_angle_gamma	92.925780
loop_
_atom_site_label
_atom_site_type_symbol
_atom_site_fract_x
_atom_site_fract_y
_atom_site_fract_z
Zn1	Zn	1.162271	-0.306898	-0.486961
Zn2	Zn	1.495604	0.026436	-0.153628
Zn3	Zn	1.828938	0.359769	0.179706
Zn4	Zn	1.161459	-0.453100	-0.354947
Zn5	Zn	1.494792	-0.119767	-0.021614
Zn6	Zn	1.828125	0.213566	0.311720
Zn7	Zn	1.037261	-0.314067	-0.347919
Zn8	Zn	1.370594	0.019267	-0.014585
Zn9	Zn	1.703928	0.352600	0.318748
Zn10	Zn	1.023996	-0.445913	-0.493958
Zn11	Zn	1.357329	-0.112580	-0.160625
Zn12	Zn	1.690662	0.220754	0.172709
O13	O	1.096247	-0.379994	-0.420946
O14	O	1.429580	-0.046661	-0.087613
O15	O	1.762913	0.286672	0.245720
O16	O	1.272009	-0.326300	-0.469462
O17	O	1.605342	0.007034	-0.136129
O18	O	1.938676	0.340367	0.197205
O19	O	1.150196	-0.440665	-0.237649
O20	O	1.483529	-0.107332	0.095685
O21	O	1.816862	0.226001	0.429018
O22	O	1.059735	-0.196751	-0.360493
O23	O	1.393069	0.136582	-0.027160
O24	O	1.726402	0.469915	0.306173
O25	O	1.271412	-0.433714	-0.372472
O26	O	1.604746	-0.100381	-0.039139
O27	O	1.938079	0.232953	0.294195
O28	O	1.151580	-0.191484	-0.462647
O29	O	1.484913	0.141849	-0.129314
O30	O	1.818246	0.475182	0.204020
O31	O	1.058948	-0.338518	-0.232485
O32	O	1.392281	-0.005185	0.100849
O33	O	1.725615	0.328149	0.434182
O34	O	0.925655	-0.331549	-0.367278
O35	O	1.258989	0.001785	-0.033945
O36	O	1.592322	0.335118	0.299389
O37	O	1.037126	-0.421464	-0.609396
O38	O	1.370460	-0.088131	-0.276063
O39	O	1.703793	0.245203	0.057271
O40	O	0.915909	-0.428415	-0.474573
O41	O	1.249243	-0.095082	-0.141239
O42	O	1.582576	0.238251	0.192094
O43	O	1.138717	-0.319330	-0.604255
O44	O	1.472050	0.014003	-0.270922
O45	O	1.805383	0.347336	0.062411
O46	O	1.137332	-0.568511	-0.379257
O47	O	1.470666	-0.235178	-0.045924
O48	O	1.803999	0.098155	0.287410
O49	O	1.036339	-0.563231	-0.481388
O50	O	1.369672	-0.229897	-0.148054
O51	O	1.703005	0.103436	0.185279
C52	C	0.892301	-0.379981	-0.420922
C53	C	1.225634	-0.046647	-0.087589
C54	C	1.558967	0.286686	0.245744
C55	C	0.805050	-0.379994	-0.420933
C56	C	1.138383	-0.046660	-0.087600
C57	C	1.471716	0.286673	0.245734
C58	C	1.085328	-0.596042	-0.431862
C59	C	1.418662	-0.262709	-0.098529
C60	C	1.751995	0.070625	0.234804
C61	C	1.080728	-0.688467	-0.436560
C62	C	1.414062	-0.355133	-0.103227
C63	C	1.747395	-0.021800	0.230106
C64	C	0.759005	-0.430517	-0.476720
C65	C	1.092338	-0.097183	-0.143387
C66	C	1.425672	0.236150	0.189947
C67	C	0.677024	-0.430518	-0.476734
C68	C	1.010357	-0.097185	-0.143400
C69	C	1.343690	0.236149	0.189933
C70	C	0.641089	-0.380000	-0.420955
C71	C	0.974422	-0.046666	-0.087622
C72	C	1.307756	0.286667	0.245711
C73	C	0.687140	-0.329471	-0.365166
C74	C	1.020473	0.003863	-0.031832
C75	C	1.353806	0.337196	0.301501
C76	C	0.769119	-0.329466	-0.365157
C77	C	1.102453	0.003868	-0.031823
C78	C	1.435786	0.337201	0.301510
C79	C	0.516268	-0.329486	-0.365186
C80	C	0.849601	0.003847	-0.031853
C81	C	1.182935	0.337181	0.301480
C82	C	0.434283	-0.329492	-0.365194
C83	C	0.767616	0.003841	-0.031861
C84	C	1.100949	0.337175	0.301473
C85	C	0.424172	-0.430538	-0.476763
C86	C	0.757506	-0.097205	-0.143430
C87	C	1.090839	0.236128	0.189904
C88	C	0.506152	-0.430533	-0.476754
C89	C	0.839485	-0.097200	-0.143421
C90	C	1.172819	0.236133	0.189912
C91	C	0.552197	-0.380005	-0.420963
C92	C	0.885531	-0.046672	-0.087630
C93	C	1.218864	0.286661	0.245703
C94	C	1.072333	-0.857687	-0.445154
C95	C	1.405667	-0.524354	-0.111821
C96	C	1.739000	-0.191021	0.221512
C97	C	1.120300	-0.901460	-0.396752
C98	C	1.453633	-0.568127	-0.063418
C99	C	1.786967	-0.234794	0.269915
C100	C	1.115629	-0.995620	-0.401533
C101	C	1.448962	-0.662287	-0.068200
C102	C	1.782296	-0.328954	0.265133
C103	C	1.077003	-0.763519	-0.440374
C104	C	1.410336	-0.430185	-0.107040
C105	C	1.743670	-0.096852	0.226293
C106	C	1.300989	-0.380009	-0.420971
C107	C	1.634322	-0.046676	-0.087637
C108	C	1.967656	0.286658	0.245696
C109	C	1.388238	-0.380015	-0.420981
C110	C	1.721571	-0.046682	-0.087648
C111	C	2.054905	0.286652	0.245686
C112	C	1.086532	-0.368796	-0.637842
C113	C	1.419866	-0.035462	-0.304509
C114	C	1.753199	0.297871	0.028825
C115	C	1.082393	-0.364023	-0.730270
C116	C	1.415726	-0.030690	-0.396937
C117	C	1.749059	0.302643	-0.063603
C118	C	1.107228	-0.163102	-0.410006
C119	C	1.440561	0.170231	-0.076672
C120	C	1.773895	0.503565	0.256661
C121	C	1.111907	-0.070676	-0.405343
C122	C	1.445241	0.262658	-0.072010
C123	C	1.778574	0.595991	0.261323
C124	C	1.105971	-0.391090	-0.204891
C125	C	1.439305	-0.057756	0.128442
C126	C	1.772638	0.275577	0.461775
C127	C	1.110275	-0.395627	-0.112452
C128	C	1.443608	-0.062294	0.220881
C129	C	1.776942	0.271039	0.554215
C130	C	1.074532	-0.355744	0.100482
C131	C	1.407865	-0.022410	0.433815
C132	C	1.741198	0.310923	0.767148
C133	C	1.118133	-0.403905	0.056791
C134	C	1.451467	-0.070572	0.390124
C135	C	1.784800	0.262762	0.723458
C136	C	1.113760	-0.399298	-0.037384
C137	C	1.447093	-0.065965	0.295949
C138	C	1.780426	0.267369	0.629282
C139	C	1.078905	-0.360349	0.194666
C140	C	1.412238	-0.027016	0.527999
C141	C	1.745571	0.306317	0.861333
H142	H	0.788257	-0.471658	-0.522139
H143	H	1.121590	-0.138324	-0.188805
H144	H	1.454923	0.195009	0.144528
Cl145	Cl	1.189116	-0.850143	-0.327224
Cl146	Cl	1.522450	-0.516809	0.006109
Cl147	Cl	1.855783	-0.183476	0.339442
H148	H	1.027762	-0.890926	-0.490180
H149	H	1.361096	-0.557593	-0.156847
H150	H	1.694429	-0.224260	0.176486
Cl151	Cl	0.574152	-0.265964	-0.295048
Cl152	Cl	0.907485	0.067369	0.038285
Cl153	Cl	1.240819	0.400703	0.371619
H154	H	1.033921	-0.311056	0.067160
H155	H	1.367254	0.022278	0.400494
H156	H	1.700588	0.355611	0.733827
Cl157	Cl	0.619142	-0.494036	-0.546869
Cl158	Cl	0.952476	-0.160702	-0.213536
Cl159	Cl	1.285809	0.172631	0.119798
Cl160	Cl	0.551326	-0.494049	-0.546871
Cl161	Cl	0.884660	-0.160715	-0.213538
Cl162	Cl	1.217993	0.172618	0.119795
Cl163	Cl	0.366288	-0.494047	-0.546911
Cl164	Cl	0.699621	-0.160713	-0.213578
Cl165	Cl	1.032955	0.172620	0.119755
H166	H	0.405027	-0.288345	-0.319784
H167	H	0.738360	0.044988	0.013550
H168	H	1.071694	0.378322	0.346883
H169	H	0.657875	-0.288334	-0.319753
H170	H	0.991208	0.044999	0.013580
H171	H	1.324542	0.378333	0.346913
H172	H	1.158747	-0.448597	0.090115
H173	H	1.492080	-0.115264	0.423448
H174	H	1.825413	0.218069	0.756781
H175	H	0.806608	-0.288320	-0.319733
H176	H	1.139942	0.045013	0.013600
H177	H	1.473275	0.378347	0.346933
