data_functionalizedCrystal
_audit_creation_method	'MofGen! by Chris Wilmer'
_symmetry_space_group_name_H-M	'P1'
_symmetry_Int_Tables_number	1
_symmetry_cell_setting	triclinic
loop_
_symmetry_equiv_pos_as_xyz
  x,y,z
_cell_length_a	34.490303
_cell_length_b	34.489386
_cell_length_c	34.485816
_cell_angle_alpha	60.004462
_cell_angle_beta	60.008900
_cell_angle_gamma	59.994399
loop_
_atom_site_label
_atom_site_type_symbol
_atom_site_fract_x
_atom_site_fract_y
_atom_site_fract_z
O1	O	0.053846	-0.566517	0.473678
O2	O	0.553846	-0.066517	0.973678
O3	O	0.020329	-0.441078	0.381663
O4	O	0.520329	0.058922	0.881663
O5	O	0.099768	-0.520436	0.381578
O6	O	0.599768	-0.020436	0.881578
O7	O	-0.025592	-0.487159	0.473762
O8	O	0.474408	0.012841	0.973762
O9	O	0.126127	-0.494082	0.407849
O10	O	0.626127	0.005918	0.907849
O11	O	0.046689	-0.414724	0.407933
O12	O	0.546689	0.085276	0.907933
O13	O	0.080206	-0.540163	0.499949
O14	O	0.580206	-0.040163	0.999949
Zn15	Zn	0.067632	-0.473259	0.458112
Zn16	Zn	0.567632	0.026741	0.958112
Zn17	Zn	0.032903	-0.507982	0.423499
Zn18	Zn	0.532903	-0.007982	0.923499
O19	O	0.000767	-0.460805	0.500033
O20	O	0.500767	0.039195	1.000033
N21	N	0.091336	-0.449565	0.481736
N22	N	0.591336	0.050435	0.981736
N23	N	0.009203	-0.531680	0.399875
N24	N	0.509203	-0.031680	0.899875
C25	C	0.142510	-0.268211	0.532817
C26	C	0.642510	0.231789	1.032817
C27	C	0.142641	-0.398441	0.662987
C28	C	0.642641	0.101559	1.162987
C29	C	0.142524	-0.398421	0.532817
C30	C	0.642524	0.101579	1.032817
C31	C	0.272762	-0.398394	0.532723
C32	C	0.772762	0.101606	1.032723
C33	C	0.156853	-0.311177	0.547124
C34	C	0.656853	0.188823	1.047124
C35	C	0.156928	-0.384109	0.620020
C36	C	0.656928	0.115891	1.120020
C37	C	0.229794	-0.384081	0.547073
C38	C	0.729794	0.115919	1.047073
C39	C	0.156863	-0.384097	0.547124
C40	C	0.656863	0.115903	1.047124
C41	C	0.124253	-0.213522	0.514606
C42	C	0.624253	0.286478	1.014606
C43	C	0.124277	-0.416652	0.514606
C44	C	0.624277	0.083348	1.014606
C45	C	0.175110	-0.365866	0.565335
C46	C	0.675110	0.134134	1.065335
C47	C	0.352285	-0.384669	0.490824
C48	C	0.852285	0.115331	0.990824
C49	C	0.401998	-0.401229	0.474223
C50	C	0.901998	0.098771	0.974223
C51	C	0.402027	-0.481671	0.504898
C52	C	0.902027	0.018329	1.004898
C53	C	0.352316	-0.465109	0.521500
C54	C	0.852316	0.034891	1.021500
C55	C	0.136220	-0.188652	0.465734
C56	C	0.636220	0.311348	0.965734
C57	C	0.119621	-0.138936	0.449181
C58	C	0.619621	0.361064	0.949181
C59	C	0.079092	-0.138961	0.530374
C60	C	0.579092	0.361039	1.030374
C61	C	0.095691	-0.188678	0.546927
C62	C	0.595691	0.311322	1.046927
C63	C	0.075398	-0.404656	0.526651
C64	C	0.575398	0.095344	1.026651
C65	C	0.058814	-0.421229	0.510091
C66	C	0.558814	0.078771	1.010091
C67	C	0.139984	-0.461794	0.469452
C68	C	0.639984	0.038206	0.969452
C69	C	0.156570	-0.445221	0.486007
C70	C	0.656570	0.054779	0.986007
C71	C	0.075593	-0.404694	0.742565
C72	C	0.575593	0.095306	1.242565
C73	C	0.059066	-0.421281	0.792280
C74	C	0.559066	0.078719	1.292280
C75	C	0.140274	-0.461856	0.792215
C76	C	0.640274	0.038144	1.292215
C77	C	0.156800	-0.445269	0.742499
C78	C	0.656800	0.054731	1.242499
C79	C	0.124458	-0.416687	0.717675
C80	C	0.624458	0.083313	1.217675
C81	C	0.327446	-0.416608	0.514460
C82	C	0.827446	0.083392	1.014460
C83	C	-0.023585	-0.564792	0.161919
C84	C	0.476415	-0.064792	0.661919
C85	C	-0.023910	-0.769260	0.366530
C86	C	0.476090	-0.269260	0.866530
C87	C	-0.023880	-0.564780	0.366623
C88	C	0.476120	-0.064780	0.866623
C89	C	-0.228325	-0.564561	0.366222
C90	C	0.271675	-0.064561	0.866222
C91	C	-0.129610	-0.597564	0.333467
C92	C	0.370390	-0.097564	0.833467
C93	C	-0.056729	-0.597644	0.333613
C94	C	0.443271	-0.097644	0.833613
C95	C	-0.074925	-0.615849	0.315324
C96	C	0.425075	-0.115849	0.815324
C97	C	-0.088689	-0.695351	0.357144
C98	C	0.411311	-0.195351	0.857144
C99	C	-0.072155	-0.745068	0.373736
C100	C	0.427845	-0.245068	0.873736
C101	C	0.008283	-0.745150	0.343188
C102	C	0.508283	-0.245150	0.843188
C103	C	-0.008252	-0.695435	0.326596
C104	C	0.491748	-0.195435	0.826596
C105	C	-0.154529	-0.609541	0.382326
C106	C	0.345471	-0.109541	0.882326
C107	C	-0.204241	-0.592916	0.398818
C108	C	0.295759	-0.092916	0.898818
C109	C	-0.204114	-0.552341	0.317588
C110	C	0.295886	-0.052341	0.817588
C111	C	-0.154401	-0.568966	0.301096
C112	C	0.345599	-0.068966	0.801096
C113	C	-0.068707	-0.548770	0.321590
C114	C	0.431293	-0.048770	0.821590
C115	C	-0.052166	-0.532225	0.338221
C116	C	0.447834	-0.032225	0.838221
C117	C	-0.011669	-0.613425	0.378886
C118	C	0.488331	-0.113425	0.878886
C119	C	-0.028210	-0.629972	0.362261
C120	C	0.471790	-0.129972	0.862261
C121	C	-0.068581	-0.548777	0.235758
C122	C	0.431419	-0.048777	0.735758
C123	C	-0.051939	-0.532234	0.186043
C124	C	0.448061	-0.032234	0.686043
C125	C	-0.011379	-0.613438	0.186090
C126	C	0.488621	-0.113438	0.686090
C127	C	-0.028020	-0.629981	0.235806
C128	C	0.471980	-0.129981	0.735806
C129	C	-0.056622	-0.597649	0.260639
C130	C	0.443378	-0.097649	0.760639
C131	C	-0.056739	-0.670537	0.333576
C132	C	0.443261	-0.170537	0.833576
C133	C	-0.005614	-0.545951	0.107238
C134	C	0.494386	-0.045951	0.607238
C135	C	-0.006360	-0.823943	0.385033
C136	C	0.493640	-0.323943	0.885033
C137	C	-0.005995	-0.545937	0.384582
C138	C	0.494005	-0.045937	0.884582
C139	C	-0.283006	-0.545971	0.383725
C140	C	0.216994	-0.045971	0.883725
N141	N	0.426163	-0.449489	0.481488
N142	N	0.926163	0.050511	0.981488
O143	O	0.588601	-0.457377	0.364497
O144	O	1.088601	0.042623	0.864497
O145	O	0.588789	-0.549696	0.489801
O146	O	1.088789	-0.049696	0.989801
O147	O	0.588709	-0.549485	0.410335
O148	O	1.088709	-0.049485	0.910335
O149	O	0.588681	-0.457588	0.443963
O150	O	1.088681	0.042412	0.943963
O151	O	0.509731	-0.523223	0.436741
O152	O	1.009731	-0.023223	0.936741
O153	O	0.509811	-0.523434	0.516207
O154	O	1.009811	-0.023434	1.016207
O155	O	0.509624	-0.431115	0.390903
O156	O	1.009624	0.068885	0.890903
Zn157	Zn	0.497178	-0.473105	0.457747
Zn158	Zn	0.997178	0.026895	0.957747
Zn159	Zn	0.601234	-0.507706	0.422956
Zn160	Zn	1.101234	-0.007706	0.922956
O161	O	0.509704	-0.431326	0.470368
O162	O	1.009704	0.068674	0.970368
N163	N	0.672250	-0.531322	0.399211
N164	N	1.172250	-0.031322	0.899211
N165	N	0.091303	-0.114798	0.481730
N166	N	0.591303	0.385202	0.981730
O167	O	-0.025603	0.047729	0.473733
O168	O	0.474397	0.547729	0.973733
O169	O	0.099703	0.047764	0.381394
O170	O	0.599703	0.547764	0.881394
O171	O	0.020199	0.047731	0.381655
O172	O	0.520199	0.547731	0.881655
O173	O	0.053901	0.047761	0.473472
O174	O	0.553901	0.547761	0.973472
O175	O	0.046564	-0.031252	0.407974
O176	O	0.546564	0.468748	0.907974
O177	O	0.126068	-0.031219	0.407713
O178	O	0.626068	0.468781	0.907713
O179	O	0.000762	-0.031254	0.500052
O180	O	0.500762	0.468746	1.000052
Zn181	Zn	0.067601	-0.043777	0.458061
Zn182	Zn	0.567601	0.456223	0.958061
Zn183	Zn	0.032864	0.060287	0.423385
Zn184	Zn	0.532864	0.560287	0.923385
O185	O	0.080266	-0.031222	0.499791
O186	O	0.580266	0.468778	0.999791
N187	N	0.009156	0.131307	0.399717
N188	N	0.509156	0.631307	0.899717
N189	N	0.091635	-0.449614	0.816396
N190	N	0.591635	0.050386	1.316396
O191	O	0.083664	-0.566502	0.978913
O192	O	0.583664	-0.066502	1.478913
O193	O	-0.008637	-0.441152	0.978954
O194	O	0.491363	0.058848	1.478954
O195	O	-0.008421	-0.520640	0.978930
O196	O	0.491579	-0.020640	1.478930
O197	O	0.083448	-0.487013	0.978936
O198	O	0.583448	0.012987	1.478936
O199	O	0.017877	-0.494296	0.899950
O200	O	0.517877	0.005704	1.399950
O201	O	0.017661	-0.414807	0.899974
O202	O	0.517661	0.085193	1.399974
O203	O	0.109961	-0.540157	0.899933
O204	O	0.609961	-0.040157	1.399933
Zn205	Zn	0.067986	-0.473299	0.887414
Zn206	Zn	0.567986	0.026701	1.387414
Zn207	Zn	0.033338	-0.508010	0.991473
Zn208	Zn	0.533338	-0.008010	1.491473
O209	O	0.109746	-0.460669	0.899956
O210	O	0.609746	0.039331	1.399956
N211	N	0.009689	-0.531700	1.062491
N212	N	0.509689	-0.031700	1.562491
C213	C	0.030367	-0.412095	0.382120
C214	C	0.530367	0.087905	0.882120
C215	C	0.128741	-0.510370	0.382016
C216	C	0.628741	-0.010370	0.882016
C217	C	0.070168	-0.569147	0.499490
C218	C	0.570168	-0.069147	0.999490
C219	C	-0.028207	-0.470871	0.499595
C220	C	0.471793	0.029129	0.999595
C221	C	0.549323	-0.549278	0.518791
C222	C	1.049323	-0.049278	1.018791
C223	C	0.549225	-0.549017	0.420381
C224	C	1.049225	-0.049017	0.920381
C225	C	0.549087	-0.431532	0.361914
C226	C	1.049087	0.068468	0.861914
C227	C	0.549188	-0.431794	0.460322
C228	C	1.049188	0.068206	0.960322
C229	C	0.128638	0.008374	0.381806
C230	C	0.628638	0.508374	0.881806
C231	C	0.030215	0.008236	0.382161
C232	C	0.530215	0.508236	0.882161
C233	C	-0.028206	0.008233	0.499608
C234	C	0.471794	0.508233	0.999608
C235	C	0.070250	0.008272	0.499285
C236	C	0.570250	0.508272	0.999285
C237	C	-0.008199	-0.412187	0.939469
C238	C	0.491801	0.087813	1.439469
C239	C	-0.007927	-0.510619	0.939425
C240	C	0.492073	-0.010619	1.439425
C241	C	0.109523	-0.569121	0.939417
C242	C	0.609523	-0.069121	1.439417
C243	C	0.109257	-0.470684	0.939444
C244	C	0.609257	0.029316	1.439444
H245	H	0.049253	-0.381417	0.722357
H246	H	0.549253	0.118583	1.222357
O247	O	-0.071140	-0.462502	0.534176
O248	O	0.428860	0.037498	1.034176
C249	C	-0.119834	-0.493767	0.614251
C250	C	0.380166	0.006233	1.114251
C251	C	-0.071196	-0.503312	0.575127
C252	C	0.428804	-0.003312	1.075127
H253	H	-0.119893	-0.526752	0.647373
H254	H	0.380107	-0.026752	1.147373
H255	H	-0.148845	-0.484782	0.601213
H256	H	0.351155	0.015218	1.101213
H257	H	-0.126764	-0.462681	0.623141
H258	H	0.373236	0.037319	1.123141
H259	H	-0.064221	-0.534403	0.566220
H260	H	0.435779	-0.034403	1.066220
H261	H	-0.042212	-0.512269	0.588186
H262	H	0.457788	-0.012269	1.088186
H263	H	0.077330	-0.605181	0.528391
H264	H	0.577330	-0.105181	1.028391
O265	O	-0.042713	-0.369201	0.939420
O266	O	0.457287	0.130799	1.439420
C267	C	-0.065676	-0.284717	0.898510
C268	C	0.434324	0.215283	1.398510
C269	C	-0.026545	-0.333367	0.898512
C270	C	0.473455	0.166633	1.398512
H271	H	-0.052623	-0.255734	0.865435
H272	H	0.447377	0.244266	1.365435
H273	H	-0.074631	-0.277728	0.931545
H274	H	0.425369	0.222272	1.431545
H275	H	-0.098761	-0.284678	0.898535
H276	H	0.401239	0.215322	1.398535
H277	H	0.006565	-0.333442	0.898471
H278	H	0.506565	0.166558	1.398471
H279	H	-0.017631	-0.340337	0.865480
H280	H	0.482369	0.159663	1.365480
O281	O	0.549115	-0.397294	0.468866
O282	O	1.049115	0.102706	0.968866
C283	C	0.508140	-0.318237	0.473382
C284	C	1.008140	0.181763	0.973382
C285	C	0.508168	-0.357263	0.463685
C286	C	1.008168	0.142737	0.963685
H287	H	0.475033	-0.285866	0.469208
H288	H	0.975033	0.214134	0.969208
H289	H	0.541141	-0.307787	0.447057
H290	H	1.041141	0.192213	0.947057
H291	H	0.508213	-0.332182	0.511099
H292	H	1.008213	0.167818	1.011099
H293	H	0.508079	-0.343351	0.425983
H294	H	1.008079	0.156649	0.925983
H295	H	0.475170	-0.367707	0.490040
H296	H	0.975170	0.132293	0.990040
H297	H	0.166612	-0.485121	0.812425
H298	H	0.666612	0.014879	1.312425
O299	O	0.549405	-0.583811	0.561742
O300	O	1.049405	-0.083811	1.061742
C301	C	0.549462	-0.605881	0.639962
C302	C	1.049462	-0.105881	1.139962
C303	C	0.549380	-0.566735	0.591338
C304	C	1.049380	-0.066735	1.091338
H305	H	0.549431	-0.592087	0.663907
H306	H	1.049431	-0.092087	1.163907
H307	H	0.582541	-0.638255	0.634971
H308	H	1.082541	-0.138255	1.134971
H309	H	0.516437	-0.616275	0.657017
H310	H	1.016437	-0.116275	1.157017
H311	H	0.582382	-0.556302	0.574257
H312	H	1.082382	-0.056302	1.074257
H313	H	0.516279	-0.534388	0.596360
H314	H	1.016279	-0.034388	1.096360
O315	O	0.171657	-0.518832	0.347436
O316	O	0.671657	-0.018832	0.847436
C317	C	0.214073	-0.523065	0.268273
C318	C	0.714073	-0.023065	0.768273
C319	C	0.165442	-0.513481	0.307398
C320	C	0.665442	-0.013481	0.807398
H321	H	0.209064	-0.518733	0.235889
H322	H	0.709064	-0.018733	0.735889
H323	H	0.238002	-0.560790	0.282050
H324	H	0.738002	-0.060790	0.782050
H325	H	0.231154	-0.496733	0.257906
H326	H	0.731154	0.003267	0.757906
H327	H	0.148320	-0.539784	0.317782
H328	H	0.648320	-0.039784	0.817782
H329	H	0.141546	-0.475744	0.293600
H330	H	0.641546	0.024256	0.793600
H331	H	0.077468	0.008281	0.528131
H332	H	0.577468	0.508281	1.028131
H333	H	0.138119	-0.463487	0.939440
H334	H	0.638119	0.036513	1.439440
O335	O	-0.096434	-0.517382	0.259896
O336	O	0.403566	-0.017382	0.759896
C337	C	-0.172143	-0.488904	0.315946
C338	C	0.327857	0.011096	0.815946
C339	C	-0.140657	-0.524476	0.288633
C340	C	0.359343	-0.024476	0.788633
H341	H	-0.207900	-0.494634	0.339194
H342	H	0.292100	0.005366	0.839194
H343	H	-0.177870	-0.451124	0.289640
H344	H	0.322130	0.048876	0.789640
H345	H	-0.153951	-0.494643	0.339250
H346	H	0.346049	0.005357	0.839250
H347	H	-0.158822	-0.518782	0.265329
H348	H	0.341178	-0.018782	0.765329
H349	H	-0.134929	-0.562244	0.314966
H350	H	0.365071	-0.062244	0.814966
H351	H	0.549027	-0.402547	0.325928
H352	H	1.049027	0.097453	0.825928
O353	O	0.171462	0.008620	0.347091
O354	O	0.671462	0.508620	0.847091
C355	C	0.219937	0.009025	0.266893
C356	C	0.719937	0.509025	0.766893
C357	C	0.171419	0.008741	0.306166
C358	C	0.671419	0.508741	0.806166
H359	H	0.219914	0.009133	0.233793
H360	H	0.719914	0.509133	0.733793
H361	H	0.249095	-0.023960	0.279764
H362	H	0.749095	0.476040	0.779764
H363	H	0.226708	0.042148	0.258040
H364	H	0.726708	0.542148	0.758040
H365	H	0.164603	-0.024360	0.315037
H366	H	0.664603	0.475640	0.815037
H367	H	0.142287	0.041748	0.293275
H368	H	0.642287	0.541748	0.793275
O369	O	0.016329	-0.644828	0.161951
O370	O	0.516329	-0.144828	0.661951
C371	C	0.025266	-0.673226	0.105768
C372	C	0.525266	-0.173226	0.605768
C373	C	-0.006164	-0.637657	0.133084
C374	C	0.493836	-0.137657	0.633084
H375	H	0.007097	-0.667433	0.082415
H376	H	0.507097	-0.167433	0.582415
H377	H	0.030941	-0.711007	0.132073
H378	H	0.530941	-0.211007	0.632073
H379	H	0.061051	-0.667548	0.082569
H380	H	0.561051	-0.167548	0.582569
H381	H	-0.041966	-0.643291	0.156284
H382	H	0.458034	-0.143291	0.656284
H383	H	-0.011800	-0.599888	0.106754
H384	H	0.488200	-0.099888	0.606754
H385	H	0.549237	-0.577886	0.413185
H386	H	1.049237	-0.077886	0.913185
O387	O	-0.042286	-0.519256	0.939361
O388	O	0.457714	-0.019256	1.439361
C389	C	-0.063992	-0.575665	0.939315
C390	C	0.436008	-0.075665	1.439315
C391	C	-0.025035	-0.565943	0.939375
C392	C	0.474965	-0.065943	1.439375
H393	H	-0.050062	-0.613414	0.939336
H394	H	0.449938	-0.113414	1.439336
H395	H	-0.074358	-0.549391	0.906248
H396	H	0.425642	-0.049391	1.406248
H397	H	-0.096415	-0.571395	0.972354
H398	H	0.403585	-0.071395	1.472354
H399	H	0.007413	-0.570220	0.906359
H400	H	0.507413	-0.070220	1.406359
H401	H	-0.014710	-0.592216	0.972464
H402	H	0.485290	-0.092216	1.472464
H403	H	0.022995	0.008233	0.353314
H404	H	0.522995	0.508233	0.853314
O405	O	-0.071172	0.008251	0.534130
O406	O	0.428828	0.508251	1.034130
C407	C	-0.149400	0.008213	0.556252
C408	C	0.350600	0.508213	1.056252
C409	C	-0.100765	0.008198	0.517112
C410	C	0.399235	0.508198	1.017112
H411	H	-0.173336	0.008160	0.542510
H412	H	0.326664	0.508160	1.042510
H413	H	-0.166478	0.041280	0.566595
H414	H	0.333522	0.541280	1.066595
H415	H	-0.144376	-0.024828	0.588643
H416	H	0.355624	0.475172	1.088643
H417	H	-0.105747	0.041217	0.484695
H418	H	0.394253	0.541217	0.984695
H419	H	-0.083704	-0.024891	0.506809
H420	H	0.416296	0.475109	1.006809
O421	O	0.144038	-0.612101	0.939421
O422	O	0.644038	-0.112101	1.439421
C423	C	0.166131	-0.690321	0.939361
C424	C	0.666131	-0.190321	1.439361
C425	C	0.126998	-0.641673	0.939370
C426	C	0.626998	-0.141673	1.439370
H427	H	0.152373	-0.714240	0.939309
H428	H	0.652373	-0.214240	1.439309
H429	H	0.176498	-0.707415	0.972419
H430	H	0.676498	-0.207415	1.472419
H431	H	0.198511	-0.685308	0.906313
H432	H	0.698511	-0.185308	1.406313
H433	H	0.094594	-0.646644	0.972396
H434	H	0.594594	-0.146644	1.472396
H435	H	0.116672	-0.624596	0.906290
H436	H	0.616672	-0.124596	1.406290
H437	H	0.196592	-0.455039	0.722237
H438	H	0.696592	0.044961	1.222237
O439	O	0.011585	-0.409642	0.816401
O440	O	0.511585	0.090358	1.316401
C441	C	-0.062876	-0.413463	0.831682
C442	C	0.437124	0.086537	1.331682
C443	C	-0.009112	-0.426662	0.804328
C444	C	0.490888	0.073338	1.304328
H445	H	-0.079624	-0.427226	0.821939
H446	H	0.420376	0.072774	1.321939
H447	H	-0.079675	-0.373208	0.821913
H448	H	0.420325	0.126792	1.321913
H449	H	-0.069125	-0.430212	0.871477
H450	H	0.430875	0.069788	1.371477
H451	H	-0.002821	-0.409944	0.764527
H452	H	0.497179	0.090056	1.264527
H453	H	0.007660	-0.466921	0.814136
H454	H	0.507660	0.033079	1.314136
O455	O	0.044009	-0.376833	0.554357
O456	O	0.544009	0.123167	1.054357
C457	C	-0.020344	-0.303684	0.560759
C458	C	0.479656	0.196316	1.060759
C459	C	0.015187	-0.335142	0.529328
C460	C	0.515187	0.164858	1.029328
H461	H	-0.043663	-0.269974	0.540539
H462	H	0.456337	0.230026	1.040539
H463	H	-0.000121	-0.293858	0.570518
H464	H	0.499879	0.206142	1.070518
H465	H	-0.043575	-0.323951	0.594509
H466	H	0.456425	0.176049	1.094509
H467	H	0.038426	-0.314903	0.495559
H468	H	0.538426	0.185097	0.995559
H469	H	-0.005066	-0.344970	0.519608
H470	H	0.494934	0.155030	1.019608
O471	O	0.011329	-0.409639	0.521871
O472	O	0.511329	0.090361	1.021871
C473	C	-0.063089	-0.413449	0.584944
C474	C	0.436911	0.086551	1.084944
C475	C	-0.009319	-0.426612	0.571668
C476	C	0.490681	0.073388	1.071668
H477	H	-0.079801	-0.427157	0.625204
H478	H	0.420199	0.072843	1.125204
H479	H	-0.069420	-0.430215	0.568229
H480	H	0.430580	0.069785	1.068229
H481	H	-0.079860	-0.373193	0.571221
H482	H	0.420140	0.126807	1.071221
H483	H	0.007487	-0.466861	0.585388
H484	H	0.507487	0.033139	1.085388
H485	H	-0.003022	-0.409812	0.588376
H486	H	0.496978	0.090188	1.088376
H487	H	0.166284	-0.485062	0.446169
H488	H	0.666284	0.014938	0.946169
H489	H	0.196371	-0.454985	0.476195
H490	H	0.696371	0.045015	0.976195
H491	H	0.332093	-0.491119	0.540748
H492	H	0.832093	0.008881	1.040748
H493	H	0.422274	-0.521162	0.510626
H494	H	0.922274	-0.021162	1.010626
O495	O	0.021912	-0.369128	0.347594
O496	O	0.521912	0.130872	0.847594
C497	C	0.053029	-0.320304	0.267537
C498	C	0.553029	0.179696	0.767537
C499	C	0.062672	-0.368981	0.306599
C500	C	0.562672	0.131019	0.806599
H501	H	0.085973	-0.320173	0.234380
H502	H	0.585973	0.179827	0.734380
H503	H	0.044031	-0.291319	0.280615
H504	H	0.544031	0.208681	0.780615
H505	H	0.021926	-0.313396	0.258688
H506	H	0.521926	0.186604	0.758688
H507	H	0.093781	-0.375935	0.315465
H508	H	0.593781	0.124065	0.815465
H509	H	0.071642	-0.397940	0.293501
H510	H	0.571642	0.102060	0.793501
O511	O	0.426057	-0.370137	0.451251
O512	O	0.926057	0.129863	0.951251
C513	C	0.420788	-0.288606	0.422593
C514	C	0.920788	0.211394	0.922593
C515	C	0.393481	-0.323764	0.448611
C516	C	0.893481	0.176236	0.948611
H517	H	0.394462	-0.251108	0.420459
H518	H	0.894462	0.248892	0.920459
H519	H	0.444021	-0.290085	0.385196
H520	H	0.944021	0.209915	0.885196
H521	H	0.444102	-0.298608	0.442895
H522	H	0.944102	0.201392	0.942895
H523	H	0.370142	-0.313787	0.428349
H524	H	0.870142	0.186213	0.928349
H525	H	0.370278	-0.322279	0.486010
H526	H	0.870278	0.177721	0.986010
H527	H	0.332037	-0.345175	0.485091
H528	H	0.832037	0.154825	0.985091
H529	H	0.159477	-0.208876	0.439413
H530	H	0.659477	0.291124	0.939413
H531	H	0.055841	-0.118733	0.556693
H532	H	0.555841	0.381267	1.056693
O533	O	0.131304	-0.114848	0.401690
O534	O	0.631304	0.385152	0.901690
C535	C	0.173227	-0.120068	0.322903
C536	C	0.673227	0.379932	0.822903
C537	C	0.160043	-0.147404	0.376674
C538	C	0.660043	0.352596	0.876674
H539	H	0.196455	-0.146378	0.302662
H540	H	0.696455	0.353622	0.802662
H541	H	0.193487	-0.096794	0.313074
H542	H	0.693487	0.403206	0.813074
H543	H	0.139464	-0.096788	0.313167
H544	H	0.639464	0.403212	0.813167
H545	H	0.193781	-0.170709	0.386449
H546	H	0.693781	0.329291	0.886449
H547	H	0.139764	-0.170648	0.386474
H548	H	0.639764	0.329352	0.886474
H549	H	0.085944	-0.208923	0.586721
H550	H	0.585944	0.291077	1.086721
H551	H	-0.061683	-0.492436	0.165791
H552	H	0.438317	0.007564	0.665791
H553	H	-0.018278	-0.669778	0.256062
H554	H	0.481722	-0.169778	0.756062
H555	H	-0.061921	-0.492427	0.328433
H556	H	0.438079	0.007573	0.828433
O557	O	0.016085	-0.644875	0.406656
O558	O	0.516085	-0.144875	0.906656
C559	C	0.089217	-0.709235	0.413118
C560	C	0.589217	-0.209235	0.913118
C561	C	0.057828	-0.673650	0.381621
C562	C	0.557828	-0.173650	0.881621
H563	H	0.122977	-0.732502	0.392887
H564	H	0.622977	-0.232502	0.892887
H565	H	0.068966	-0.732514	0.446824
H566	H	0.568966	-0.232514	0.946824
H567	H	0.098958	-0.689006	0.422953
H568	H	0.598958	-0.189006	0.922953
H569	H	0.048077	-0.693840	0.371750
H570	H	0.548077	-0.193840	0.871750
H571	H	0.078096	-0.650371	0.347938
H572	H	0.578096	-0.150371	0.847938
O573	O	-0.016595	-0.677457	0.374003
O574	O	0.483405	-0.177457	0.874003
C575	C	-0.020505	-0.751899	0.437006
C576	C	0.479495	-0.251899	0.937006
C577	C	-0.033681	-0.698134	0.423787
C578	C	0.466319	-0.198134	0.923787
H579	H	-0.034321	-0.768632	0.477255
H580	H	0.465679	-0.268632	0.977255
H581	H	0.019748	-0.768724	0.423376
H582	H	0.519748	-0.268724	0.923376
H583	H	-0.037217	-0.758140	0.420164
H584	H	0.462783	-0.258140	0.920164
H585	H	-0.017001	-0.691851	0.440624
H586	H	0.482999	-0.191851	0.940624
H587	H	-0.073938	-0.681336	0.437407
H588	H	0.426062	-0.181336	0.937407
H589	H	0.017768	-0.675232	0.307405
H590	H	0.517768	-0.175232	0.807405
O591	O	0.055399	-0.769319	0.336327
O592	O	0.555399	-0.269319	0.836327
C593	C	0.134493	-0.784592	0.279561
C594	C	0.634493	-0.284592	0.779561
C595	C	0.081149	-0.757200	0.287265
C596	C	0.581149	-0.257200	0.787265
H597	H	0.155328	-0.774796	0.239897
H598	H	0.655328	-0.274796	0.739897
H599	H	0.140852	-0.824393	0.295434
H600	H	0.640852	-0.324393	0.795434
H601	H	0.146791	-0.774840	0.297656
H602	H	0.646791	-0.274840	0.797656
H603	H	0.068814	-0.766912	0.269170
H604	H	0.568814	-0.266912	0.769170
H605	H	0.074820	-0.717405	0.271404
H606	H	0.574820	-0.217405	0.771404
O607	O	-0.103266	-0.769100	0.396695
O608	O	0.396734	-0.269100	0.896695
C609	C	-0.184810	-0.763774	0.425349
C610	C	0.315190	-0.263774	0.925349
C611	C	-0.149624	-0.736497	0.399314
C612	C	0.350376	-0.236497	0.899314
H613	H	-0.222297	-0.737426	0.427466
H614	H	0.277703	-0.237426	0.927466
H615	H	-0.183340	-0.786996	0.462753
H616	H	0.316660	-0.286996	0.962753
H617	H	-0.174833	-0.787099	0.405071
H618	H	0.325167	-0.287099	0.905071
H619	H	-0.159578	-0.713146	0.419552
H620	H	0.340422	-0.213146	0.919552
H621	H	-0.151100	-0.713304	0.361908
H622	H	0.348900	-0.213304	0.861908
H623	H	-0.128170	-0.675084	0.362831
H624	H	0.371830	-0.175084	0.862831
O625	O	-0.130497	-0.637368	0.413814
O626	O	0.369503	-0.137368	0.913814
C627	C	-0.115379	-0.710542	0.478163
C628	C	0.384621	-0.210542	0.978163
C629	C	-0.142632	-0.679069	0.442536
C630	C	0.357368	-0.179069	0.942536
H631	H	-0.125172	-0.744268	0.501387
H632	H	0.374828	-0.244268	1.001387
H633	H	-0.125187	-0.690327	0.501478
H634	H	0.374813	-0.190327	1.001478
H635	H	-0.075570	-0.720342	0.457972
H636	H	0.424430	-0.220342	0.957972
H637	H	-0.182447	-0.669260	0.462688
H638	H	0.317553	-0.169260	0.962688
H639	H	-0.132784	-0.699302	0.419221
H640	H	0.367216	-0.199302	0.919221
O641	O	-0.228505	-0.604569	0.446271
O642	O	0.271495	-0.104569	0.946271
C643	C	-0.284693	-0.642772	0.512017
C644	C	0.215307	-0.142772	1.012017
C645	C	-0.257253	-0.629595	0.458270
C646	C	0.242747	-0.129595	0.958270
H647	H	-0.307936	-0.663016	0.521736
H648	H	0.192064	-0.163016	1.021736
H649	H	-0.308000	-0.609036	0.521799
H650	H	0.192000	-0.109036	1.021799
H651	H	-0.258428	-0.666049	0.532312
H652	H	0.241572	-0.166049	1.032312
H653	H	-0.283484	-0.606330	0.437938
H654	H	0.216516	-0.106330	0.937938
H655	H	-0.233940	-0.663350	0.448524
H656	H	0.266060	-0.163350	0.948524
H657	H	-0.224299	-0.529059	0.291228
H658	H	0.275701	-0.029059	0.791228
O659	O	-0.130212	-0.557391	0.253627
O660	O	0.369788	-0.057391	0.753627
C661	C	-0.114915	-0.561175	0.179132
C662	C	0.385085	-0.061175	0.679132
C663	C	-0.142330	-0.574322	0.232885
C664	C	0.357670	-0.074322	0.732885
H665	H	-0.124710	-0.574849	0.162345
H666	H	0.375290	-0.074849	0.662345
H667	H	-0.075121	-0.577984	0.172879
H668	H	0.424879	-0.077984	0.672879
H669	H	-0.124644	-0.520922	0.162374
H670	H	0.375356	-0.020922	0.662374
H671	H	-0.132641	-0.614568	0.249679
H672	H	0.367359	-0.114568	0.749679
H673	H	-0.182118	-0.557480	0.239104
H674	H	0.317882	-0.057480	0.739104
H675	H	-0.091926	-0.522444	0.298262
H676	H	0.408074	-0.022444	0.798262
