data_functionalizedCrystal
_audit_creation_method	'MofGen! by Chris Wilmer'
_symmetry_space_group_name_H-M	'P1'
_symmetry_Int_Tables_number	1
_symmetry_cell_setting	triclinic
loop_
_symmetry_equiv_pos_as_xyz
  x,y,z
_cell_length_a	11.169417
_cell_length_b	11.169416
_cell_length_c	11.169406
_cell_angle_alpha	89.956706
_cell_angle_beta	90.032821
_cell_angle_gamma	89.996714
loop_
_atom_site_label
_atom_site_type_symbol
_atom_site_fract_x
_atom_site_fract_y
_atom_site_fract_z
Zn1	Zn	-1.835139	-0.477586	-0.678638
Zn2	Zn	-1.585139	-0.227586	-0.428638
Zn3	Zn	-1.335139	0.022414	-0.178638
Zn4	Zn	-1.085139	0.272414	0.071362
Zn5	Zn	-1.835007	-0.678380	-0.477970
Zn6	Zn	-1.585007	-0.428380	-0.227970
Zn7	Zn	-1.335007	-0.178380	0.022030
Zn8	Zn	-1.085007	0.071620	0.272030
Zn9	Zn	-1.634385	-0.477703	-0.477965
Zn10	Zn	-1.384385	-0.227703	-0.227965
Zn11	Zn	-1.134385	0.022297	0.022035
Zn12	Zn	-0.884385	0.272297	0.272035
Zn13	Zn	-1.634451	-0.678219	-0.678608
Zn14	Zn	-1.384451	-0.428219	-0.428608
Zn15	Zn	-1.134451	-0.178219	-0.178608
Zn16	Zn	-0.884451	0.071781	0.071392
O17	O	-1.734746	-0.577972	-0.578295
O18	O	-1.484746	-0.327972	-0.328295
O19	O	-1.234746	-0.077972	-0.078295
O20	O	-0.984746	0.172028	0.171705
O21	O	-2.003071	-0.504240	-0.652033
O22	O	-1.753071	-0.254240	-0.402033
O23	O	-1.503071	-0.004240	-0.152033
O24	O	-1.253071	0.245760	0.097967
O25	O	-1.808312	-0.651876	-0.310019
O26	O	-1.558312	-0.401876	-0.060019
O27	O	-1.308312	-0.151876	0.189981
O28	O	-1.058312	0.098124	0.439981
O29	O	-1.661043	-0.309738	-0.504596
O30	O	-1.411043	-0.059738	-0.254596
O31	O	-1.161043	0.190262	-0.004596
O32	O	-0.911043	0.440262	0.245404
O33	O	-2.002975	-0.651762	-0.504603
O34	O	-1.752975	-0.401762	-0.254603
O35	O	-1.502975	-0.151762	-0.004603
O36	O	-1.252975	0.098238	0.245397
O37	O	-1.808536	-0.309652	-0.652029
O38	O	-1.558536	-0.059652	-0.402029
O39	O	-1.308536	0.190348	-0.152029
O40	O	-1.058536	0.440348	0.097971
O41	O	-1.660916	-0.504440	-0.310016
O42	O	-1.410916	-0.254440	-0.060016
O43	O	-1.160916	-0.004440	0.189984
O44	O	-0.910916	0.245560	0.439984
O45	O	-1.466444	-0.504284	-0.504567
O46	O	-1.216444	-0.254284	-0.254567
O47	O	-0.966444	-0.004284	-0.004567
O48	O	-0.716444	0.245716	0.245433
O49	O	-1.661154	-0.651489	-0.846562
O50	O	-1.411154	-0.401489	-0.596562
O51	O	-1.161154	-0.151489	-0.346562
O52	O	-0.911154	0.098511	-0.096562
O53	O	-1.466492	-0.651602	-0.651978
O54	O	-1.216492	-0.401602	-0.401978
O55	O	-0.966492	-0.151602	-0.151978
O56	O	-0.716492	0.098398	0.098022
O57	O	-1.808599	-0.504084	-0.846584
O58	O	-1.558599	-0.254084	-0.596584
O59	O	-1.308599	-0.004084	-0.346584
O60	O	-1.058599	0.245916	-0.096584
O61	O	-1.808375	-0.846308	-0.504574
O62	O	-1.558375	-0.596308	-0.254574
O63	O	-1.308375	-0.346308	-0.004574
O64	O	-1.058375	-0.096308	0.245426
O65	O	-1.661027	-0.846190	-0.651982
O66	O	-1.411027	-0.596190	-0.401982
O67	O	-1.161027	-0.346190	-0.151982
O68	O	-0.911027	-0.096190	0.098018
C69	C	-1.422921	-0.577939	-0.578270
C70	C	-1.172921	-0.327939	-0.328270
C71	C	-0.922921	-0.077939	-0.078270
C72	C	-0.672921	0.172061	0.171730
C73	C	-1.289521	-0.577954	-0.578287
C74	C	-1.039521	-0.327954	-0.328287
C75	C	-0.789521	-0.077954	-0.078287
C76	C	-0.539521	0.172046	0.171713
C77	C	-1.734727	-0.889797	-0.578302
C78	C	-1.484727	-0.639797	-0.328302
C79	C	-1.234727	-0.389797	-0.078302
C80	C	-0.984727	-0.139797	0.171698
C81	C	-1.734828	-1.023197	-0.578345
C82	C	-1.484828	-0.773197	-0.328345
C83	C	-1.234828	-0.523197	-0.078345
C84	C	-0.984828	-0.273197	0.171655
C85	C	-1.734899	-0.577755	-0.891338
C86	C	-1.484899	-0.327755	-0.641338
C87	C	-1.234899	-0.077755	-0.391338
C88	C	-0.984899	0.172245	-0.141338
C89	C	-1.734964	-0.577663	-1.024738
C90	C	-1.484964	-0.327663	-0.774738
C91	C	-1.234964	-0.077663	-0.524738
C92	C	-0.984964	0.172337	-0.274738
C93	C	-1.047788	-0.577994	-0.578313
C94	C	-0.797788	-0.327994	-0.328313
C95	C	-0.547788	-0.077994	-0.078313
C96	C	-0.297788	0.172006	0.171687
C97	C	-1.181188	-0.577974	-0.578301
C98	C	-0.931188	-0.327974	-0.328301
C99	C	-0.681188	-0.077974	-0.078301
C100	C	-0.431188	0.172026	0.171699
C101	C	-1.734797	-0.264930	-0.578315
C102	C	-1.484797	-0.014930	-0.328315
C103	C	-1.234797	0.235070	-0.078315
C104	C	-0.984797	0.485070	0.171685
C105	C	-1.734819	-0.131530	-0.578323
C106	C	-1.484819	0.118470	-0.328323
C107	C	-1.234819	0.368470	-0.078323
C108	C	-0.984819	0.618470	0.171677
C109	C	-1.734662	-0.578101	-0.266470
C110	C	-1.484662	-0.328101	-0.016470
C111	C	-1.234662	-0.078101	0.233530
C112	C	-0.984662	0.171899	0.483530
C113	C	-1.734829	-0.577856	-0.133071
C114	C	-1.484829	-0.327856	0.116929
C115	C	-1.234829	-0.077856	0.366929
C116	C	-0.984829	0.172144	0.616929
