data_functionalizedCrystal
_audit_creation_method	'MofGen! by Chris Wilmer'
_symmetry_space_group_name_H-M	'P1'
_symmetry_Int_Tables_number	1
_symmetry_cell_setting	triclinic
loop_
_symmetry_equiv_pos_as_xyz
  x,y,z
_cell_length_a	16.109301
_cell_length_b	16.109304
_cell_length_c	9.730223
_cell_angle_alpha	89.998411
_cell_angle_beta	89.999429
_cell_angle_gamma	83.462059
loop_
_atom_site_label
_atom_site_type_symbol
_atom_site_fract_x
_atom_site_fract_y
_atom_site_fract_z
O1	O	1.103132	0.106867	-0.114194
O2	O	1.436465	0.440200	0.219139
O3	O	1.769798	0.773533	0.552472
O4	O	0.861070	0.120166	-0.114215
O5	O	1.194403	0.453499	0.219118
O6	O	1.527736	0.786833	0.552452
O7	O	0.988749	-0.007514	-0.114205
O8	O	1.322082	0.325819	0.219128
O9	O	1.655416	0.659152	0.552462
O10	O	0.975452	0.234547	-0.114204
O11	O	1.308786	0.567881	0.219129
O12	O	1.642119	0.901214	0.552462
O13	O	0.988741	-0.007518	0.114375
O14	O	1.322074	0.325815	0.447708
O15	O	1.655408	0.659149	0.781042
O16	O	0.861062	0.120163	0.114365
O17	O	1.194395	0.453496	0.447698
O18	O	1.527728	0.786829	0.781032
O19	O	1.103123	0.106863	0.114386
O20	O	1.436457	0.440197	0.447719
O21	O	1.769790	0.773530	0.781052
Zn22	Zn	0.982091	0.113512	0.150667
Zn23	Zn	1.315424	0.446846	0.484001
Zn24	Zn	1.648758	0.780179	0.817334
Zn25	Zn	0.982102	0.113517	-0.150497
Zn26	Zn	1.315435	0.446850	0.182837
Zn27	Zn	1.648769	0.780184	0.516170
O28	O	0.975444	0.234544	0.114375
O29	O	1.308777	0.567877	0.447709
O30	O	1.642111	0.901210	0.781042
C31	C	0.830091	0.119626	0.000072
C32	C	1.163424	0.452959	0.333405
C33	C	1.496757	0.786292	0.666739
C34	C	0.737795	0.118010	0.000064
C35	C	1.071129	0.451344	0.333397
C36	C	1.404462	0.784677	0.666731
C37	C	0.515524	0.190018	0.000080
C38	C	0.848857	0.523351	0.333413
C39	C	1.182190	0.856685	0.666747
C40	C	0.428803	0.188494	0.000089
C41	C	0.762137	0.521827	0.333422
C42	C	1.095470	0.855161	0.666755
C43	C	0.448676	0.037005	0.000083
C44	C	0.782009	0.370339	0.333416
C45	C	1.115343	0.703672	0.666749
C46	C	0.535395	0.038530	0.000084
C47	C	0.868728	0.371864	0.333417
C48	C	1.202062	0.705197	0.666750
C49	C	0.568816	0.115039	0.000075
C50	C	0.902149	0.448372	0.333409
C51	C	1.235483	0.781706	0.666742
C52	C	0.395377	0.111990	0.000083
C53	C	0.728710	0.445324	0.333417
C54	C	1.062044	0.778657	0.666750
C55	C	0.301351	0.110337	0.000093
C56	C	0.634684	0.443670	0.333426
C57	C	0.968018	0.777004	0.666759
C58	C	0.662848	0.116693	0.000068
C59	C	0.996181	0.450026	0.333402
C60	C	1.329515	0.783359	0.666735
C61	C	0.988206	-0.038491	0.000082
C62	C	1.321539	0.294842	0.333415
C63	C	1.654873	0.628176	0.666749
C64	C	0.986590	-0.130786	0.000072
C65	C	1.319923	0.202547	0.333406
C66	C	1.653257	0.535880	0.666739
C67	C	0.982861	-0.343122	-0.124522
C68	C	1.316194	-0.009788	0.208812
C69	C	1.649527	0.323545	0.542145
C70	C	0.981335	-0.429842	-0.124521
C71	C	1.314668	-0.096508	0.208813
C72	C	1.648001	0.236825	0.542146
C73	C	0.981330	-0.429843	0.124690
C74	C	1.314663	-0.096509	0.458023
C75	C	1.647997	0.236824	0.791357
C76	C	0.982850	-0.343123	0.124687
C77	C	1.316183	-0.009790	0.458021
C78	C	1.649517	0.323543	0.791354
C79	C	0.983620	-0.299766	0.000077
C80	C	1.316953	0.033568	0.333411
C81	C	1.650286	0.366901	0.666744
C82	C	0.980573	-0.473205	0.000081
C83	C	1.313907	-0.139872	0.333414
C84	C	1.647240	0.193462	0.666748
C85	C	0.978919	-0.567231	0.000083
C86	C	1.312252	-0.233898	0.333417
C87	C	1.645585	0.099436	0.666750
C88	C	0.985273	-0.205734	0.000075
C89	C	1.318606	0.127600	0.333408
C90	C	1.651940	0.460933	0.666741
C91	C	1.134102	0.107404	0.000095
C92	C	1.467436	0.440737	0.333429
C93	C	1.800769	0.774070	0.666762
C94	C	1.226398	0.109019	0.000095
C95	C	1.559731	0.442352	0.333428
C96	C	1.893064	0.775686	0.666761
C97	C	0.975987	0.265520	0.000086
C98	C	1.309320	0.598854	0.333419
C99	C	1.642654	0.932187	0.666752
C100	C	0.977603	0.357816	0.000086
C101	C	1.310937	0.691149	0.333419
C102	C	1.644270	1.024482	0.666753
N103	N	0.982090	0.113509	0.356204
N104	N	1.315423	0.446842	0.689537
N105	N	1.648757	0.780175	1.022870
N106	N	0.982110	0.113514	-0.356033
N107	N	1.315443	0.446847	-0.022700
N108	N	1.648776	0.780181	0.310634
C109	C	1.038645	0.056996	0.428134
C110	C	1.371979	0.390329	0.761467
C111	C	1.705312	0.723662	1.094801
C112	C	1.038654	0.056996	0.572017
C113	C	1.371987	0.390329	0.905350
C114	C	1.705320	0.723662	1.238684
C115	C	0.925548	0.170030	0.572026
C116	C	1.258882	0.503363	0.905360
C117	C	1.592215	0.836697	1.238693
C118	C	0.925537	0.170025	0.428146
C119	C	1.258870	0.503358	0.761479
C120	C	1.592203	0.836692	1.094813
H121	H	0.578788	-0.022530	0.000084
H122	H	0.912121	0.310803	0.333417
H123	H	1.245455	0.644136	0.666751
H124	H	0.385416	0.249550	0.000095
H125	H	0.718749	0.582883	0.333429
H126	H	1.052082	0.916216	0.666762
H127	H	0.542732	0.252316	0.000083
H128	H	0.876065	0.585650	0.333417
H129	H	1.209399	0.918983	0.666750
H130	H	0.983485	-0.307822	-0.225987
H131	H	1.316818	0.025511	0.107346
H132	H	1.650152	0.358845	0.440680
H133	H	0.879478	0.216045	0.369576
H134	H	1.212812	0.549379	0.702910
H135	H	1.546145	0.882712	1.036243
H136	H	1.084705	0.010977	0.630579
H137	H	1.418038	0.344310	0.963912
H138	H	1.751372	0.677643	1.297246
Br139	Br	0.848802	0.246729	0.669667
Br140	Br	1.182135	0.580063	1.003000
Br141	Br	1.515469	0.913396	1.336334
H142	H	0.980715	-0.465138	-0.225982
H143	H	1.314048	-0.131805	0.107352
H144	H	1.647382	0.201528	0.440685
Br145	Br	0.403313	-0.066823	0.000089
Br146	Br	0.736646	0.266511	0.333422
Br147	Br	1.069980	0.599844	0.666756
H148	H	0.980705	-0.465155	0.226143
H149	H	1.314038	-0.131822	0.559476
H150	H	1.647372	0.201511	0.892809
Br151	Br	1.115394	-0.019706	0.330503
Br152	Br	1.448728	0.313627	0.663836
Br153	Br	1.782061	0.646960	0.997170
H154	H	0.983463	-0.307821	0.226157
H155	H	1.316797	0.025512	0.559490
H156	H	1.650130	0.358846	0.892824
