data_functionalizedCrystal
_audit_creation_method	'MofGen! by Chris Wilmer'
_symmetry_space_group_name_H-M	'P1'
_symmetry_Int_Tables_number	1
_symmetry_cell_setting	triclinic
loop_
_symmetry_equiv_pos_as_xyz
  x,y,z
_cell_length_a	21.395362
_cell_length_b	19.077068
_cell_length_c	19.077314
_cell_angle_alpha	90.121627
_cell_angle_beta	87.737128
_cell_angle_gamma	92.343691
loop_
_atom_site_label
_atom_site_type_symbol
_atom_site_fract_x
_atom_site_fract_y
_atom_site_fract_z
Zn1	Zn	0.933787	-0.263507	0.408882
Zn2	Zn	1.267120	0.069826	0.742215
Zn3	Zn	1.600453	0.403159	1.075548
Zn4	Zn	0.933369	-0.385736	0.296088
Zn5	Zn	1.266702	-0.052403	0.629422
Zn6	Zn	1.600036	0.280931	0.962755
Zn7	Zn	0.833046	-0.268278	0.291352
Zn8	Zn	1.166379	0.065056	0.624685
Zn9	Zn	1.499713	0.398389	0.958018
Zn10	Zn	0.824608	-0.381017	0.413515
Zn11	Zn	1.157942	-0.047684	0.746848
Zn12	Zn	1.491275	0.285650	1.080181
O13	O	0.881203	-0.324635	0.352459
O14	O	1.214536	0.008699	0.685792
O15	O	1.547869	0.342032	1.019126
O16	O	1.021408	-0.279700	0.393963
O17	O	1.354742	0.053634	0.727296
O18	O	1.688075	0.386967	1.060629
O19	O	0.923417	-0.374126	0.197130
O20	O	1.256751	-0.040793	0.530463
O21	O	1.590084	0.292540	0.863797
O22	O	0.850115	-0.169310	0.303021
O23	O	1.183449	0.164023	0.636354
O24	O	1.516782	0.497357	0.969688
O25	O	1.021102	-0.369501	0.311094
O26	O	1.354435	-0.036167	0.644427
O27	O	1.687768	0.297166	0.977760
O28	O	0.924129	-0.165805	0.389370
O29	O	1.257463	0.167528	0.722703
O30	O	1.590796	0.500861	1.056036
O31	O	0.849710	-0.287830	0.193650
O32	O	1.183044	0.045503	0.526983
O33	O	1.516377	0.378836	0.860317
O34	O	0.744250	-0.283254	0.307514
O35	O	1.077583	0.050079	0.640847
O36	O	1.410916	0.383412	0.974180
O37	O	0.835735	-0.361457	0.511230
O38	O	1.169068	-0.028124	0.844563
O39	O	1.502401	0.305209	1.177897
O40	O	0.738050	-0.366083	0.397266
O41	O	1.071384	-0.032750	0.730599
O42	O	1.404717	0.300583	1.063933
O43	O	0.915948	-0.275124	0.507826
O44	O	1.249281	0.058210	0.841160
O45	O	1.582614	0.391543	1.174493
O46	O	0.915236	-0.483445	0.315586
O47	O	1.248569	-0.150112	0.648920
O48	O	1.581902	0.183222	0.982253
O49	O	0.835330	-0.479978	0.401859
O50	O	1.168663	-0.146644	0.735192
O51	O	1.501996	0.186689	1.068526
C52	C	0.718416	-0.324675	0.352379
C53	C	1.051750	0.008658	0.685712
C54	C	1.385083	0.341992	1.019046
C55	C	0.648774	-0.324709	0.352362
C56	C	0.982108	0.008625	0.685695
C57	C	1.315441	0.341958	1.019029
C58	C	0.612850	-0.367900	0.399031
C59	C	0.946183	-0.034566	0.732365
C60	C	1.279517	0.298767	1.065698
C61	C	0.547414	-0.367881	0.399062
C62	C	0.880747	-0.034548	0.732395
C63	C	1.214081	0.298785	1.065729
C64	C	0.517905	-0.324679	0.352411
C65	C	0.851239	0.008654	0.685744
C66	C	1.184572	0.341987	1.019078
C67	C	0.553838	-0.281480	0.305738
C68	C	0.887172	0.051854	0.639072
C69	C	1.220505	0.385187	0.972405
C70	C	0.619273	-0.281494	0.305714
C71	C	0.952606	0.051839	0.639047
C72	C	1.285939	0.385173	0.972381
C73	C	0.416568	-0.321569	0.288926
C74	C	0.749902	0.011765	0.622259
C75	C	1.083235	0.345098	0.955592
C76	C	0.351135	-0.321559	0.288949
C77	C	0.684468	0.011774	0.622283
C78	C	1.017802	0.345108	0.955616
C79	C	0.316084	-0.324630	0.352487
C80	C	0.649417	0.008703	0.685820
C81	C	0.982750	0.342036	1.019154
C82	C	0.346473	-0.327726	0.416003
C83	C	0.679807	0.005607	0.749337
C84	C	1.013140	0.338940	1.082670
C85	C	0.411908	-0.327741	0.415979
C86	C	0.745241	0.005593	0.749312
C87	C	1.078575	0.338926	1.082646
C88	C	0.446953	-0.324659	0.352433
C89	C	0.780286	0.008675	0.685766
C90	C	1.113620	0.342008	1.019099
C91	C	0.209206	-0.367804	0.399193
C92	C	0.542539	-0.034471	0.732527
C93	C	0.875873	0.298863	1.065860
C94	C	0.143769	-0.367780	0.399225
C95	C	0.477103	-0.034447	0.732558
C96	C	0.810436	0.298886	1.065891
C97	C	0.150195	-0.281383	0.305895
C98	C	0.483528	0.051951	0.639228
C99	C	0.816861	0.385284	0.972562
C100	C	0.215630	-0.281402	0.305870
C101	C	0.548964	0.051931	0.639203
C102	C	0.882297	0.385264	0.972536
C103	C	0.245132	-0.324617	0.352518
C104	C	0.578465	0.008717	0.685851
C105	C	0.911799	0.342050	1.019184
C106	C	0.874338	-0.507208	0.359755
C107	C	1.207672	-0.173875	0.693088
C108	C	1.541005	0.159459	1.026421
C109	C	0.871458	-0.585313	0.362899
C110	C	1.204792	-0.251979	0.696233
C111	C	1.538125	0.081354	1.029566
C112	C	0.911738	-0.623787	0.319496
C113	C	1.245071	-0.290453	0.652830
C114	C	1.578404	0.042880	0.986163
C115	C	0.909032	-0.697174	0.322458
C116	C	1.242366	-0.363841	0.655791
C117	C	1.575699	-0.030507	0.989125
C118	C	0.866044	-0.732086	0.368820
C119	C	1.199377	-0.398753	0.702153
C120	C	1.532711	-0.065419	1.035486
C121	C	0.825763	-0.693607	0.412227
C122	C	1.159096	-0.360273	0.745561
C123	C	1.492429	-0.026940	1.078894
C124	C	0.828472	-0.620221	0.409269
C125	C	1.161805	-0.286887	0.742602
C126	C	1.495138	0.046446	1.075935
C127	C	0.853481	-0.951376	0.382485
C128	C	1.186815	-0.618043	0.715818
C129	C	1.520148	-0.284709	1.049151
C130	C	0.850774	-1.024768	0.385439
C131	C	1.184108	-0.691434	0.718772
C132	C	1.517441	-0.358101	1.052105
C133	C	0.934045	-1.028330	0.295670
C134	C	1.267378	-0.694996	0.629003
C135	C	1.600712	-0.361663	0.962337
C136	C	0.936747	-0.954942	0.292712
C137	C	1.270081	-0.621609	0.626046
C138	C	1.603414	-0.288275	0.959379
C139	C	0.896468	-0.916469	0.336123
C140	C	1.229802	-0.583136	0.669456
C141	C	1.563135	-0.249802	1.002789
N142	N	0.863277	-0.807100	0.371847
N143	N	1.196610	-0.473766	0.705180
N144	N	1.529943	-0.140433	1.038513
N145	N	0.899239	-0.841457	0.333099
N146	N	1.232573	-0.508123	0.666432
N147	N	1.565906	-0.174790	0.999765
C148	C	1.044624	-0.324594	0.352540
C149	C	1.377958	0.008739	0.685873
C150	C	1.711291	0.342072	1.019206
C151	C	1.114265	-0.324577	0.352574
C152	C	1.447598	0.008756	0.685908
C153	C	1.780932	0.342089	1.019241
C154	C	0.874947	-0.317232	0.535737
C155	C	1.208280	0.016101	0.869070
C156	C	1.541613	0.349435	1.202404
C157	C	0.872281	-0.314078	0.613839
C158	C	1.205614	0.019256	0.947172
C159	C	1.538947	0.352589	1.280506
C160	C	0.888110	-0.141348	0.345150
C161	C	1.221444	0.191986	0.678484
C162	C	1.554777	0.525319	1.011817
C163	C	0.891054	-0.063242	0.342036
C164	C	1.224387	0.270092	0.675369
C165	C	1.557720	0.603425	1.008702
C166	C	0.887472	-0.331957	0.169892
C167	C	1.220805	0.001376	0.503225
C168	C	1.554139	0.334709	0.836559
C169	C	0.890267	-0.334914	0.091783
C170	C	1.223600	-0.001581	0.425116
C171	C	1.556933	0.331753	0.758449
C172	C	0.909400	-0.357523	0.652346
C173	C	1.242734	-0.024190	0.985679
C174	C	1.576067	0.309144	1.319013
C175	C	0.906896	-0.354550	0.725731
C176	C	1.240229	-0.021217	1.059064
C177	C	1.573562	0.312116	1.392398
C178	C	0.867268	-0.308135	0.760608
C179	C	1.200601	0.025198	1.093941
C180	C	1.533934	0.358531	1.427274
C181	C	0.830146	-0.264685	0.722095
C182	C	1.163480	0.068648	1.055429
C183	C	1.496813	0.401981	1.388762
C184	C	0.832655	-0.267655	0.648712
C185	C	1.165988	0.065678	0.982045
C186	C	1.499321	0.399012	1.315378
C187	C	0.855654	-0.294433	0.979886
C188	C	1.188987	0.038900	1.313220
C189	C	1.522321	0.372233	1.646553
C190	C	0.853147	-0.291469	1.053275
C191	C	1.186480	0.041865	1.386609
C192	C	1.519814	0.375198	1.719942
C193	C	0.929898	-0.381333	1.056906
C194	C	1.263231	-0.048000	1.390240
C195	C	1.596564	0.285334	1.723573
C196	C	0.932400	-0.384301	0.983521
C197	C	1.265733	-0.050968	1.316854
C198	C	1.599066	0.282365	1.650188
C199	C	0.895281	-0.340849	0.945015
C200	C	1.228614	-0.007515	1.278348
C201	C	1.561948	0.325818	1.611682
N202	N	0.864705	-0.305098	0.835619
N203	N	1.198038	0.028236	1.168952
N204	N	1.531372	0.361569	1.502285
N205	N	0.897847	-0.343884	0.870005
N206	N	1.231180	-0.010550	1.203338
N207	N	1.564514	0.322783	1.536672
H208	H	0.317936	-0.330226	0.467742
H209	H	0.651269	0.003107	0.801075
H210	H	0.984603	0.336441	1.134409
N211	N	0.815631	-0.247558	0.938360
N212	N	1.148964	0.085776	1.271693
N213	N	1.482298	0.419109	1.605027
H214	H	0.790149	-0.217703	0.971591
H215	H	1.123483	0.115630	1.304925
H216	H	1.456816	0.448964	1.638258
H217	H	0.786595	-0.277386	0.909030
H218	H	1.119928	0.055947	1.242363
H219	H	1.453262	0.389281	1.575697
N220	N	0.785021	-0.578727	0.456080
N221	N	1.118354	-0.245394	0.789414
N222	N	1.451688	0.087940	1.122747
H223	H	0.758105	-0.549482	0.426258
H224	H	1.091438	-0.216148	0.759591
H225	H	1.424772	0.117185	1.092925
H226	H	0.810515	-0.546958	0.487445
H227	H	1.143848	-0.213625	0.820778
H228	H	1.477181	0.119708	1.154111
N229	N	0.105021	-0.414373	0.449561
N230	N	0.438354	-0.081039	0.782894
N231	N	0.771687	0.252294	1.116227
H232	H	0.059091	-0.407805	0.442501
H233	H	0.392424	-0.074472	0.775835
H234	H	0.725758	0.258861	1.109168
H235	H	0.115194	-0.401495	0.499326
H236	H	0.448528	-0.068162	0.832659
H237	H	0.781861	0.265171	1.165992
H238	H	0.820683	-0.920057	0.417830
H239	H	1.154017	-0.586724	0.751163
H240	H	1.487350	-0.253390	1.084496
H241	H	0.797883	-0.226890	0.750497
H242	H	1.131216	0.106443	1.083831
H243	H	1.464550	0.439776	1.417164
N244	N	0.792623	-0.220791	0.607175
N245	N	1.125957	0.112542	0.940508
N246	N	1.459290	0.445875	1.273842
H247	H	0.767138	-0.190937	0.640403
H248	H	1.100472	0.142397	0.973736
H249	H	1.433805	0.475730	1.307070
H250	H	0.763590	-0.250630	0.577851
H251	H	1.096924	0.082703	0.911184
H252	H	1.430257	0.416036	1.244518
N253	N	0.975142	-0.434363	0.945907
N254	N	1.308476	-0.101030	1.279240
N255	N	1.641809	0.232304	1.612574
H256	H	1.019884	-0.422922	0.958264
H257	H	1.353218	-0.089588	1.291598
H258	H	1.686551	0.243745	1.624931
H259	H	0.971044	-0.429628	0.893588
H260	H	1.304377	-0.096295	1.226921
H261	H	1.637711	0.237038	1.560255
N262	N	0.810399	-0.241416	1.090905
N263	N	1.143733	0.091918	1.424238
N264	N	1.477066	0.425251	1.757572
H265	H	0.822453	-0.191715	1.076152
H266	H	1.155786	0.141618	1.409485
H267	H	1.489120	0.474951	1.742818
H268	H	0.814466	-0.246206	1.143224
H269	H	1.147800	0.087127	1.476557
H270	H	1.481133	0.420460	1.809890
H271	H	0.941832	-0.728497	0.287114
H272	H	1.275165	-0.395163	0.620448
H273	H	1.608499	-0.061830	0.953781
H274	H	0.790763	-0.722038	0.449979
H275	H	1.124097	-0.388704	0.783313
H276	H	1.457430	-0.055371	1.116646
N277	N	0.644670	-0.414507	0.449343
N278	N	0.978003	-0.081174	0.782676
N279	N	1.311336	0.252160	1.116009
H280	H	0.611978	-0.441866	0.478913
H281	H	0.945311	-0.108533	0.812246
H282	H	1.278645	0.224801	1.145579
H283	H	0.671816	-0.384647	0.480759
H284	H	1.005149	-0.051314	0.814092
H285	H	1.338483	0.282020	1.147426
H286	H	0.436649	-0.330259	0.467696
H287	H	0.769982	0.003074	0.801030
H288	H	1.103315	0.336407	1.134363
N289	N	0.508656	-0.414466	0.449401
N290	N	0.841989	-0.081133	0.782734
N291	N	1.175323	0.252200	1.116068
H292	H	0.537274	-0.441843	0.478949
H293	H	0.870608	-0.108510	0.812282
H294	H	1.203941	0.224824	1.145616
H295	H	0.481231	-0.448089	0.422047
H296	H	0.814564	-0.114756	0.755381
H297	H	1.147897	0.218578	1.088714
H298	H	0.233228	-0.402988	0.437180
H299	H	0.566561	-0.069655	0.770514
H300	H	0.899894	0.263679	1.103847
N301	N	0.952139	-0.407590	0.614734
N302	N	1.285472	-0.074257	0.948067
N303	N	1.618806	0.259076	1.281400
H304	H	0.975274	-0.434659	0.650268
H305	H	1.308607	-0.101326	0.983601
H306	H	1.641940	0.232007	1.316934
H307	H	0.983254	-0.380213	0.583159
H308	H	1.316587	-0.046880	0.916492
H309	H	1.649921	0.286453	1.249826
H310	H	0.937123	-0.389928	0.757080
H311	H	1.270456	-0.056595	1.090414
H312	H	1.603789	0.276739	1.423747
N313	N	0.118377	-0.234779	0.255582
N314	N	0.451711	0.098554	0.588916
N315	N	0.785044	0.431887	0.922249
H316	H	0.071473	-0.241322	0.262680
H317	H	0.404806	0.092012	0.596013
H318	H	0.738140	0.425345	0.929347
H319	H	0.131079	-0.247668	0.205809
H320	H	0.464412	0.085666	0.539142
H321	H	0.797745	0.418999	0.872476
H322	H	0.960119	-0.416708	1.088266
H323	H	1.293452	-0.083375	1.421599
H324	H	1.626785	0.249958	1.754932
N325	N	0.983119	-0.917288	0.242715
N326	N	1.316452	-0.583954	0.576048
N327	N	1.649786	-0.250621	0.909381
H328	H	1.012278	-0.885637	0.270088
H329	H	1.345612	-0.552304	0.603422
H330	H	1.678945	-0.218970	0.936755
H331	H	0.959869	-0.888241	0.208902
H332	H	1.293202	-0.554907	0.542235
H333	H	1.626536	-0.221574	0.875568
H334	H	0.244881	-0.246235	0.267863
H335	H	0.578214	0.087099	0.601196
H336	H	0.911547	0.420432	0.934530
H337	H	0.326397	-0.319043	0.237230
H338	H	0.659730	0.014291	0.570564
H339	H	0.993063	0.347624	0.903897
H340	H	0.529808	-0.246303	0.267756
H341	H	0.863141	0.087030	0.601089
H342	H	1.196475	0.420364	0.934423
N343	N	0.454371	-0.318252	0.220392
N344	N	0.787704	0.015081	0.553725
N345	N	1.121038	0.348414	0.887059
H346	H	0.425192	-0.316295	0.180160
H347	H	0.758525	0.017038	0.513493
H348	H	1.091859	0.350371	0.846827
H349	H	0.480112	-0.361330	0.215499
H350	H	0.813446	-0.027997	0.548832
H351	H	1.146779	0.305337	0.882166
H352	H	0.648523	-0.246320	0.267710
H353	H	0.981856	0.087013	0.601043
H354	H	1.315189	0.420346	0.934377
H355	H	0.946741	-0.595366	0.281741
H356	H	1.280074	-0.262033	0.615074
H357	H	1.613407	0.071300	0.948407
H358	H	0.966839	-1.059662	0.260329
H359	H	1.300172	-0.726329	0.593662
H360	H	1.633505	-0.392996	0.926995
H361	H	0.815775	-1.053190	0.423204
H362	H	1.149108	-0.719857	0.756538
H363	H	1.482442	-0.386524	1.089871
