data_functionalizedCrystal
_audit_creation_method	'MofGen! by Chris Wilmer'
_symmetry_space_group_name_H-M	'P1'
_symmetry_Int_Tables_number	1
_symmetry_cell_setting	triclinic
loop_
_symmetry_equiv_pos_as_xyz
  x,y,z
_cell_length_a	18.215407
_cell_length_b	15.299816
_cell_length_c	18.215399
_cell_angle_alpha	80.342622
_cell_angle_beta	90.017368
_cell_angle_gamma	80.347944
loop_
_atom_site_label
_atom_site_type_symbol
_atom_site_fract_x
_atom_site_fract_y
_atom_site_fract_z
Zn1	Zn	1.175778	-0.359136	0.466830
Zn2	Zn	1.675778	0.140864	0.966830
Zn3	Zn	1.196982	-0.509965	0.365082
Zn4	Zn	1.696982	-0.009965	0.865082
Zn5	Zn	1.052713	-0.359157	0.343785
Zn6	Zn	1.552713	0.140843	0.843785
Zn7	Zn	1.073963	-0.509907	0.488104
Zn8	Zn	1.573963	-0.009907	0.988104
O9	O	1.124859	-0.434541	0.415951
O10	O	1.624859	0.065459	0.915951
O11	O	1.281577	-0.379159	0.453342
O12	O	1.781577	0.120841	0.953342
O13	O	1.177825	-0.489993	0.259278
O14	O	1.677825	0.010007	0.759278
O15	O	1.051271	-0.232943	0.342291
O16	O	1.551271	0.267057	0.842291
O17	O	1.297155	-0.489972	0.378589
O18	O	1.797155	0.010028	0.878589
O19	O	1.141686	-0.232927	0.432691
O20	O	1.641686	0.267073	0.932691
O21	O	1.071832	-0.379196	0.243631
O22	O	1.571832	0.120804	0.743631
O23	O	0.952546	-0.379139	0.362920
O24	O	1.452546	0.120861	0.862920
O25	O	1.087489	-0.489873	0.588262
O26	O	1.587489	0.010127	1.088262
O27	O	0.968158	-0.489894	0.468951
O28	O	1.468158	0.010106	0.968951
O29	O	1.162291	-0.379103	0.572631
O30	O	1.662291	0.120897	1.072631
O31	O	1.198430	-0.636169	0.399218
O32	O	1.698430	-0.136169	0.899218
O33	O	1.108049	-0.636126	0.489602
O34	O	1.608049	-0.136126	0.989602
C35	C	0.933649	-0.434514	0.415934
C36	C	1.433649	0.065486	0.915934
C37	C	0.851851	-0.434523	0.415947
C38	C	1.351851	0.065477	0.915947
C39	C	0.655562	-0.376942	0.454962
C40	C	1.155562	0.123058	0.954962
C41	C	0.578704	-0.376949	0.454966
C42	C	1.078704	0.123051	0.954966
C43	C	0.594912	-0.492166	0.376955
C44	C	1.094912	0.007834	0.876955
C45	C	0.671768	-0.492153	0.376948
C46	C	1.171768	0.007847	0.876948
C47	C	0.702091	-0.434542	0.415956
C48	C	1.202091	0.065458	0.915956
C49	C	0.548377	-0.434563	0.415967
C50	C	1.048377	0.065437	0.915967
C51	C	0.465045	-0.434572	0.415970
C52	C	0.965045	0.065428	0.915970
C53	C	0.785428	-0.434532	0.415951
C54	C	1.285428	0.065468	0.915951
C55	C	1.157866	-0.668873	0.449046
C56	C	1.657866	-0.168873	0.949046
C57	C	1.172054	-0.769121	0.463228
C58	C	1.672054	-0.269121	0.963228
C59	C	1.023938	-1.052035	0.314834
C60	C	1.523938	-0.552035	0.814834
C61	C	1.010604	-0.957847	0.301510
C62	C	1.510604	-0.457847	0.801510
C63	C	1.050966	-0.910661	0.341938
C64	C	1.550966	-0.410661	0.841938
C65	C	1.104663	-0.957672	0.395693
C66	C	1.604663	-0.457672	0.895693
C67	C	1.117994	-1.051869	0.409022
C68	C	1.617994	-0.551869	0.909022
C69	C	1.145022	-0.910495	0.436126
C70	C	1.645022	-0.410495	0.936126
C71	C	1.198720	-0.957506	0.489881
C72	C	1.698720	-0.457506	0.989881
C73	C	1.212049	-1.051694	0.503207
C74	C	1.712049	-0.551694	1.003207
C75	C	1.171687	-1.098881	0.462779
C76	C	1.671687	-0.598881	0.962779
C77	C	1.131691	-0.816298	0.422797
C78	C	1.631691	-0.316298	0.922797
C79	C	1.225747	-0.816132	0.516986
C80	C	1.725747	-0.316132	1.016986
C81	C	1.239081	-0.910320	0.530309
C82	C	1.739081	-0.410320	1.030309
C83	C	1.316816	-0.434570	0.415968
C84	C	1.816816	0.065430	0.915968
C85	C	1.398617	-0.434582	0.415975
C86	C	1.898617	0.065418	0.915975
C87	C	1.124895	-0.434479	0.607895
C88	C	1.624895	0.065521	1.107895
C89	C	1.124910	-0.434453	0.689690
C90	C	1.624910	0.065547	1.189690
C91	C	1.091743	-0.199295	0.382742
C92	C	1.591743	0.300705	0.882742
C93	C	1.077631	-0.099046	0.368591
C94	C	1.577631	0.400954	0.868591
C95	C	1.124856	-0.434538	0.224744
C96	C	1.624856	0.065462	0.724744
C97	C	1.124948	-0.434311	0.142913
C98	C	1.624948	0.065689	0.642913
C99	C	1.163870	-0.376720	0.869739
C100	C	1.663870	0.123280	1.369739
C101	C	1.163875	-0.376694	0.946594
C102	C	1.663875	0.123306	1.446594
C103	C	1.085984	-0.492045	0.962859
C104	C	1.585984	0.007955	1.462859
C105	C	1.085975	-0.492067	0.886005
C106	C	1.585975	0.007933	1.386005
C107	C	1.124922	-0.434405	0.839447
C108	C	1.624922	0.065595	1.339447
C109	C	1.124936	-0.434358	0.993156
C110	C	1.624936	0.065642	1.493156
C111	C	1.124941	-0.434330	1.076486
C112	C	1.624941	0.065670	1.576486
C113	C	1.124916	-0.434432	0.756112
C114	C	1.624916	0.065568	1.256112
H115	H	1.040106	-0.833969	0.331086
H116	H	1.540106	-0.333969	0.831086
H117	H	1.195580	-0.329766	0.831832
H118	H	1.695580	0.170234	1.331832
H119	H	1.282802	-0.948610	0.574077
H120	H	1.782802	-0.448610	1.074077
H121	H	0.680247	-0.330028	0.486722
H122	H	1.180247	0.169972	0.986722
H123	H	1.054276	-0.538993	1.000776
H124	H	1.554276	-0.038993	1.500776
N125	N	1.269929	-1.102402	0.561219
N126	N	1.769929	-0.602402	1.061219
H127	H	1.293468	-1.058221	0.584816
H128	H	1.793468	-0.558221	1.084816
H129	H	1.309545	-1.141494	0.536850
H130	H	1.809545	-0.641494	1.036850
H131	H	0.709653	-0.539060	0.345180
H132	H	1.209653	-0.039060	0.845180
H133	H	1.195588	-0.329720	0.971253
H134	H	1.695588	0.170280	1.471253
N135	N	1.186055	-1.200472	0.477162
N136	N	1.686055	-0.700472	0.977162
H137	H	1.226190	-1.223096	0.517355
H138	H	1.726190	-0.723096	1.017355
H139	H	1.202793	-1.223126	0.429872
H140	H	1.702793	-0.723126	0.929872
H141	H	1.087969	-0.778030	0.379030
H142	H	1.587969	-0.278030	0.879030
N143	N	1.043948	-0.554268	0.853324
N144	N	1.543948	-0.054268	1.353324
H145	H	1.019276	-0.590793	0.894479
H146	H	1.519276	-0.090793	1.394479
H147	H	1.079766	-0.596023	0.827324
H148	H	1.579766	-0.096023	1.327324
N149	N	0.528525	-0.314812	0.497033
N150	N	1.028525	0.185188	0.997033
H151	H	0.543904	-0.328897	0.551586
H152	H	1.043904	0.171103	1.051586
H153	H	0.475250	-0.323578	0.491061
H154	H	0.975250	0.176422	0.991061
N155	N	0.562206	-0.554299	0.334882
N156	N	1.062206	-0.054299	0.834882
H157	H	0.506458	-0.545569	0.340805
H158	H	1.006458	-0.045569	0.840805
H159	H	0.584728	-0.618729	0.355348
H160	H	1.084728	-0.118729	0.855348
N161	N	0.952696	-0.907144	0.243534
N162	N	1.452696	-0.407144	0.743534
H163	H	0.929152	-0.951326	0.219942
H164	H	1.429152	-0.451326	0.719942
H165	H	0.977144	-0.868063	0.203974
H166	H	1.477144	-0.368063	0.703974
H167	H	0.991078	-1.090463	0.281927
H168	H	1.491078	-0.590463	0.781927
H169	H	1.258612	-0.777714	0.549907
H170	H	1.758612	-0.277714	1.049907
