data_functionalizedCrystal
_audit_creation_method	'MofGen! by Chris Wilmer'
_symmetry_space_group_name_H-M	'P1'
_symmetry_Int_Tables_number	1
_symmetry_cell_setting	triclinic
loop_
_symmetry_equiv_pos_as_xyz
  x,y,z
_cell_length_a	15.995292
_cell_length_b	15.995292
_cell_length_c	15.072220
_cell_angle_alpha	89.997939
_cell_angle_beta	90.013670
_cell_angle_gamma	83.468616
loop_
_atom_site_label
_atom_site_type_symbol
_atom_site_fract_x
_atom_site_fract_y
_atom_site_fract_z
O1	O	1.111004	0.107692	0.073800
O2	O	1.611004	0.607692	0.573800
O3	O	0.867219	0.121071	0.073796
O4	O	1.367219	0.621071	0.573796
O5	O	0.995801	-0.007511	0.073799
O6	O	1.495801	0.492489	0.573799
O7	O	0.982422	0.236274	0.073797
O8	O	1.482422	0.736274	0.573797
O9	O	0.995769	-0.007504	-0.073766
O10	O	1.495769	0.492496	0.426234
O11	O	0.867187	0.121078	-0.073769
O12	O	1.367187	0.621078	0.426231
O13	O	1.110972	0.107699	-0.073765
O14	O	1.610972	0.607699	0.426235
Zn15	Zn	0.989075	0.114390	-0.097196
Zn16	Zn	1.489075	0.614390	0.402804
Zn17	Zn	0.989116	0.114380	0.097227
Zn18	Zn	1.489116	0.614380	0.597227
O19	O	0.982390	0.236281	-0.073769
O20	O	1.482390	0.736281	0.426231
C21	C	0.836008	0.120530	0.000013
C22	C	1.336008	0.620530	0.500013
C23	C	0.743055	0.118898	0.000012
C24	C	1.243055	0.618898	0.500012
C25	C	0.405318	0.112896	0.000022
C26	C	0.905318	0.612896	0.500022
C27	C	0.428611	0.205703	0.000350
C28	C	0.928611	0.705703	0.500350
C29	C	0.525286	0.207467	0.000014
C30	C	1.025286	0.707467	0.500014
C31	C	0.572873	0.115874	0.000017
C32	C	1.072873	0.615874	0.500017
C33	C	0.543763	0.069479	-0.084246
C34	C	1.043763	0.569479	0.415754
C35	C	0.446973	0.068362	-0.084313
C36	C	0.946973	0.568362	0.415687
C37	C	0.447154	0.066459	0.083496
C38	C	0.947154	0.566459	0.583496
C39	C	0.543646	0.069898	0.084606
C40	C	1.043646	0.569898	0.584606
C41	C	0.667569	0.117552	0.000012
C42	C	1.167569	0.617552	0.500012
C43	C	0.310622	0.111215	0.000021
C44	C	0.810622	0.611215	0.500021
C45	C	0.995240	-0.038703	0.000019
C46	C	1.495240	0.461297	0.500019
C47	C	0.993608	-0.131655	0.000026
C48	C	1.493608	0.368345	0.500026
C49	C	0.987607	-0.469393	0.000018
C50	C	1.487607	0.030607	0.500018
C51	C	1.080413	-0.446100	-0.000310
C52	C	1.580413	0.053900	0.499690
C53	C	1.082177	-0.349424	0.000025
C54	C	1.582177	0.150576	0.500025
C55	C	0.990584	-0.301837	0.000021
C56	C	1.490584	0.198163	0.500021
C57	C	0.944204	-0.330933	0.084284
C58	C	1.444204	0.169067	0.584284
C59	C	0.943086	-0.427723	0.084352
C60	C	1.443086	0.072277	0.584352
C61	C	0.941155	-0.427572	-0.083457
C62	C	1.441155	0.072428	0.416543
C63	C	0.944594	-0.331080	-0.084568
C64	C	1.444594	0.168920	0.415432
C65	C	0.992263	-0.207141	0.000026
C66	C	1.492263	0.292859	0.500026
C67	C	0.985926	-0.564088	0.000019
C68	C	1.485926	-0.064088	0.500019
C69	C	1.142183	0.108240	0.000020
C70	C	1.642183	0.608240	0.500020
C71	C	1.235136	0.109873	0.000027
C72	C	1.735136	0.609873	0.500027
C73	C	0.982951	0.267473	0.000014
C74	C	1.482951	0.767473	0.500014
C75	C	0.984583	0.360426	0.000013
C76	C	1.484583	0.860426	0.500013
N77	N	0.989052	0.114396	-0.229885
N78	N	1.489052	0.614396	0.270115
C79	C	0.989115	0.114377	-0.589087
C80	C	1.489115	0.614377	-0.089087
C81	C	0.920082	0.182948	-0.551482
C82	C	1.420082	0.682948	-0.051482
C83	C	0.920240	0.183198	-0.448656
C84	C	1.420240	0.683198	0.051344
C85	C	0.989083	0.114386	-0.410883
C86	C	1.489083	0.614386	0.089117
C87	C	1.076446	0.133450	-0.448173
C88	C	1.576446	0.633450	0.051827
C89	C	1.076059	0.133938	-0.551030
C90	C	1.576059	0.633938	-0.051030
C91	C	0.971563	0.026539	-0.551186
C92	C	1.471563	0.526539	-0.051186
C93	C	0.969558	0.027125	-0.448323
C94	C	1.469558	0.527125	0.051677
C95	C	0.989070	0.114390	-0.310169
C96	C	1.489070	0.614390	0.189831
C97	C	0.989133	0.114375	-0.689800
C98	C	1.489133	0.614375	-0.189800
N99	N	0.989146	0.114368	0.229916
N100	N	1.489146	0.614368	0.729916
H101	H	0.575645	0.002079	-0.087377
H102	H	1.075645	0.502079	0.412623
C103	C	0.853156	-0.287860	0.088524
C104	C	1.353156	0.212140	0.588524
H105	H	0.842597	-0.251660	0.038825
H106	H	1.342597	0.248340	0.538825
H107	H	0.815208	-0.329423	0.087740
H108	H	1.315208	0.170577	0.587740
H109	H	0.845500	-0.255906	0.141620
H110	H	1.345500	0.244094	0.641620
C111	C	0.550992	0.256642	0.081547
C112	C	1.050992	0.756642	0.581547
H113	H	0.610242	0.257814	0.081434
H114	H	1.110242	0.757814	0.581434
H115	H	0.523736	0.312558	0.079375
H116	H	1.023736	0.812558	0.579375
H117	H	0.534862	0.229909	0.134121
H118	H	1.034862	0.729909	0.634121
C119	C	0.987673	-0.303746	0.169004
C120	C	1.487673	0.196254	0.669004
H121	H	1.034089	-0.274686	0.153204
H122	H	1.534089	0.225314	0.653204
H123	H	0.948713	-0.267673	0.203012
H124	H	1.448713	0.232327	0.703012
H125	H	1.007031	-0.352083	0.203055
H126	H	1.507031	0.147917	0.703055
H127	H	1.021905	-0.024489	-0.575503
H128	H	1.521905	0.475511	-0.075503
H129	H	0.909242	0.008203	-0.577177
H130	H	1.409242	0.508203	-0.077177
C131	C	0.389389	0.253771	-0.080824
C132	C	0.889389	0.753771	0.419176
H133	H	0.403765	0.309784	-0.080113
H134	H	0.903765	0.809784	0.419887
H135	H	0.410273	0.226432	-0.133595
H136	H	0.910273	0.726432	0.366405
H137	H	0.329922	0.254763	-0.078832
H138	H	0.829922	0.754763	0.421168
H139	H	1.016573	-0.026291	-0.422613
H140	H	1.516573	0.473709	0.077387
H141	H	0.418834	0.095464	0.147363
H142	H	0.918834	0.595464	0.647363
C143	C	0.427324	-0.023556	-0.089493
C144	C	0.927324	0.476444	0.410507
H145	H	0.368092	-0.024860	-0.089566
H146	H	0.868092	0.475140	0.410434
H147	H	0.450572	-0.048645	-0.142439
H148	H	0.950572	0.451355	0.357561
H149	H	0.451179	-0.053865	-0.039661
H150	H	0.951179	0.446135	0.460339
H151	H	0.931446	0.248382	-0.424042
H152	H	1.431446	0.748382	0.075958
H153	H	0.872842	-0.441548	-0.084028
H154	H	1.372842	0.058452	0.415972
H155	H	1.129032	0.085962	-0.575904
H156	H	1.629032	0.585962	-0.075904
C157	C	0.390789	0.254033	0.081975
C158	C	0.890789	0.754033	0.581975
H159	H	0.360448	0.218049	0.116585
H160	H	0.860448	0.718049	0.616585
H161	H	0.434751	0.272504	0.116674
H162	H	0.934751	0.772504	0.616674
H163	H	0.353813	0.301359	0.063020
H164	H	0.853813	0.801359	0.563020
C165	C	0.935010	0.270512	-0.586378
C166	C	1.435010	0.770512	-0.086378
H167	H	0.983132	0.265463	-0.623763
H168	H	1.483132	0.765463	-0.123763
H169	H	0.887207	0.293835	-0.619126
H170	H	1.387207	0.793835	-0.119126
H171	H	0.943919	0.306255	-0.537767
H172	H	1.443919	0.806255	-0.037767
C173	C	0.588242	-0.020397	0.091526
C174	C	1.088242	0.479603	0.591526
H175	H	0.569407	-0.046632	0.143211
H176	H	1.069407	0.453368	0.643211
H177	H	0.575528	-0.051563	0.040586
H178	H	1.075528	0.448437	0.540586
H179	H	0.647324	-0.018696	0.095073
H180	H	1.147324	0.481304	0.595073
C181	C	1.131577	-0.324565	0.081763
C182	C	1.631577	0.175435	0.581763
H183	H	1.132835	-0.265329	0.082242
H184	H	1.632835	0.234671	0.582242
H185	H	1.104919	-0.341157	0.134182
H186	H	1.604919	0.158843	0.634182
H187	H	1.187467	-0.351867	0.079281
H188	H	1.687467	0.148133	0.579281
H189	H	1.116000	-0.475128	0.059781
H190	H	1.616000	0.024872	0.559781
C191	C	0.570821	0.113013	-0.168966
C192	C	1.070821	0.613013	0.331034
H193	H	0.599850	0.159455	-0.153166
H194	H	1.099850	0.659455	0.346834
H195	H	0.606881	0.074115	-0.203059
H196	H	1.106881	0.574115	0.296941
H197	H	0.522416	0.132345	-0.202932
H198	H	1.022416	0.632345	0.297068
C199	C	0.980410	-0.465744	-0.169739
C200	C	1.480410	0.034256	0.330261
H201	H	1.025501	-0.507548	-0.155657
H202	H	1.525501	-0.007548	0.344343
H203	H	0.938937	-0.490496	-0.202644
H204	H	1.438937	0.009504	0.297356
H205	H	1.001029	-0.422735	-0.204137
H206	H	1.501029	0.077265	0.295863
H207	H	0.562222	0.103678	0.146943
H208	H	1.062222	0.603678	0.646943
C209	C	0.428267	-0.025822	0.084276
C210	C	0.928267	0.474178	0.584276
H211	H	0.395051	-0.036034	0.034008
H212	H	0.895051	0.463966	0.534008
H213	H	0.479620	-0.062008	0.082428
H214	H	0.979620	0.437992	0.582428
H215	H	0.398456	-0.036346	0.136870
H216	H	0.898456	0.463654	0.636870
H217	H	0.855301	0.171843	-0.423446
H218	H	1.355301	0.671843	0.076554
H219	H	0.543669	0.244027	-0.060494
H220	H	1.043669	0.744027	0.439506
H221	H	0.420135	0.100499	-0.147304
H222	H	0.920135	0.600499	0.352696
H223	H	1.118503	-0.330404	-0.060376
H224	H	1.618503	0.169596	0.439624
C225	C	1.128723	-0.483918	-0.081947
C226	C	1.628723	0.016082	0.418053
H227	H	1.092732	-0.514260	-0.116561
H228	H	1.592732	-0.014260	0.383439
H229	H	1.147179	-0.439951	-0.116636
H230	H	1.647179	0.060049	0.383364
H231	H	1.176058	-0.520891	-0.063009
H232	H	1.676058	-0.020891	0.436991
H233	H	0.975234	-0.454549	0.147343
H234	H	1.475234	0.045451	0.647343
C235	C	0.851169	-0.447366	0.089540
C236	C	1.351169	0.052634	0.589540
H237	H	0.814675	-0.396211	0.091603
H238	H	1.314675	0.103789	0.591603
H239	H	0.838435	-0.478704	0.038732
H240	H	1.338435	0.021296	0.538732
H241	H	0.843688	-0.479289	0.141509
H242	H	1.343688	0.020711	0.641509
C243	C	0.990207	-0.305998	-0.168783
C244	C	1.490207	0.194002	0.331217
H245	H	1.037081	-0.277818	-0.152470
H246	H	1.537081	0.222182	0.347530
H247	H	1.009125	-0.355066	-0.201872
H248	H	1.509125	0.144934	0.298128
H249	H	0.952554	-0.269616	-0.203954
H250	H	1.452554	0.230384	0.296046
H251	H	0.877739	-0.298096	-0.089660
H252	H	1.377739	0.201904	0.410340
H253	H	1.091529	0.197997	-0.575012
H254	H	1.591529	0.697997	-0.075012
C255	C	0.832070	0.167873	-0.584942
C256	C	1.332070	0.667873	-0.084942
H257	H	0.836633	0.119629	-0.622150
H258	H	1.336633	0.619629	-0.122150
H259	H	0.796984	0.159129	-0.535746
H260	H	1.296984	0.659129	-0.035746
H261	H	0.808300	0.215561	-0.617594
H262	H	1.308300	0.715561	-0.117594
C263	C	1.147503	0.067784	-0.415112
C264	C	1.647503	0.567784	0.084888
H265	H	1.124465	0.028065	-0.378182
H266	H	1.624465	0.528065	0.121818
H267	H	1.174733	0.039588	-0.464485
H268	H	1.674733	0.539588	0.035515
H269	H	1.187141	0.095190	-0.382255
H270	H	1.687141	0.595190	0.117745
C271	C	1.097845	0.219003	-0.413371
C272	C	1.597845	0.719003	0.086629
H273	H	1.053658	0.243213	-0.376127
H274	H	1.553658	0.743213	0.123873
H275	H	1.148808	0.211102	-0.380494
H276	H	1.648808	0.711102	0.119506
H277	H	1.104254	0.255485	-0.462030
H278	H	1.604254	0.755485	0.037970
H279	H	0.905293	0.012657	-0.423952
H280	H	1.405293	0.512657	0.076048
