data_functionalizedCrystal
_audit_creation_method	'MofGen! by Chris Wilmer'
_symmetry_space_group_name_H-M	'P1'
_symmetry_Int_Tables_number	1
_symmetry_cell_setting	triclinic
loop_
_symmetry_equiv_pos_as_xyz
  x,y,z
_cell_length_a	16.959455
_cell_length_b	16.120484
_cell_length_c	16.959447
_cell_angle_alpha	87.133462
_cell_angle_beta	90.014322
_cell_angle_gamma	92.922454
loop_
_atom_site_label
_atom_site_type_symbol
_atom_site_fract_x
_atom_site_fract_y
_atom_site_fract_z
Zn1	Zn	1.192394	-0.331957	0.462851
Zn2	Zn	1.692394	0.168043	0.962851
Zn3	Zn	1.185600	-0.471386	0.337369
Zn4	Zn	1.685600	0.028614	0.837369
Zn5	Zn	1.060221	-0.331984	0.330690
Zn6	Zn	1.560221	0.168016	0.830690
Zn7	Zn	1.053474	-0.471323	0.469504
Zn8	Zn	1.553474	0.028677	0.969504
O9	O	1.122922	-0.401662	0.400103
O10	O	1.622922	0.098338	0.900103
O11	O	1.302103	-0.350468	0.446216
O12	O	1.802103	0.149532	0.946216
O13	O	1.168949	-0.452931	0.225874
O14	O	1.668949	0.047069	0.725874
O15	O	1.083421	-0.215315	0.342642
O16	O	1.583421	0.284685	0.842642
O17	O	1.297112	-0.452905	0.354025
O18	O	1.797112	0.047095	0.854025
O19	O	1.180528	-0.215296	0.439740
O20	O	1.680528	0.284704	0.939740
O21	O	1.076833	-0.350513	0.220967
O22	O	1.576833	0.149487	0.720967
O23	O	0.948716	-0.350452	0.349093
O24	O	1.448716	0.149548	0.849093
O25	O	1.071921	-0.452799	0.579231
O26	O	1.571921	0.047201	1.079231
O27	O	0.943759	-0.452824	0.451079
O28	O	1.443759	0.047176	0.951079
O29	O	1.173985	-0.350408	0.574343
O30	O	1.673985	0.149592	1.074343
O31	O	1.162407	-0.588043	0.360476
O32	O	1.662407	-0.088043	0.860476
O33	O	1.065334	-0.587997	0.457556
O34	O	1.565334	-0.087997	0.957556
C35	C	0.917557	-0.401635	0.400084
C36	C	1.417557	0.098365	0.900084
C37	C	0.829700	-0.401643	0.400095
C38	C	1.329700	0.098357	0.900095
C39	C	0.460783	-0.348314	0.347103
C40	C	0.960783	0.151686	0.847103
C41	C	0.455662	-0.455080	0.453153
C42	C	0.955662	0.044920	0.953153
C43	C	0.538208	-0.455068	0.453147
C44	C	1.038208	0.044932	0.953147
C45	C	0.582046	-0.401679	0.400118
C46	C	1.082046	0.098321	0.900118
C47	C	0.543337	-0.348302	0.347094
C48	C	1.043337	0.151698	0.847094
C49	C	0.576923	-0.508450	0.506165
C50	C	1.076923	-0.008450	1.006165
C51	C	0.659474	-0.508441	0.506161
C52	C	1.159474	-0.008441	1.006161
C53	C	0.703314	-0.455047	0.453135
C54	C	1.203314	0.044953	0.953135
C55	C	0.664600	-0.401667	0.400109
C56	C	1.164600	0.098333	0.900109
C57	C	0.708437	-0.348278	0.347080
C58	C	1.208437	0.151722	0.847080
C59	C	0.669725	-0.294893	0.294058
C60	C	1.169725	0.205107	0.794058
C61	C	0.587176	-0.294908	0.294068
C62	C	1.087176	0.205092	0.794068
C63	C	0.785863	-0.455032	0.453125
C64	C	1.285863	0.044968	0.953125
C65	C	0.790991	-0.348266	0.347071
C66	C	1.290991	0.151734	0.847071
C67	C	1.112422	-0.618270	0.410480
C68	C	1.612422	-0.118270	0.910480
C69	C	1.108003	-0.710935	0.414945
C70	C	1.608003	-0.210935	0.914945
C71	C	1.099938	-0.880596	0.423114
C72	C	1.599938	-0.380596	0.923114
C73	C	1.146048	-0.921888	0.377106
C74	C	1.646048	-0.421888	0.877106
C75	C	1.141561	-1.016293	0.381651
C76	C	1.641561	-0.516293	0.881651
C77	C	1.104424	-0.786182	0.418570
C78	C	1.604424	-0.286182	0.918570
C79	C	1.329089	-0.401691	0.400123
C80	C	1.829089	0.098309	0.900123
C81	C	1.416945	-0.401703	0.400132
C82	C	1.916945	0.098297	0.900132
C83	C	1.122959	-0.401593	0.606268
C84	C	1.622959	0.098407	1.106268
C85	C	1.122974	-0.401564	0.694124
C86	C	1.622974	0.098436	1.194124
C87	C	1.133485	-0.184209	0.389704
C88	C	1.633485	0.315791	0.889704
C89	C	1.137986	-0.091544	0.385272
C90	C	1.637986	0.408456	0.885272
C91	C	1.122935	-0.401671	0.194738
C92	C	1.622935	0.098329	0.694738
C93	C	1.123084	-0.401466	0.106872
C94	C	1.623084	0.098534	0.606872
C95	C	1.069933	-0.454787	1.068143
C96	C	1.569933	0.045213	1.568143
C97	C	1.176213	-0.348166	1.063048
C98	C	1.676213	0.151834	1.563048
C99	C	1.176191	-0.348183	0.980503
C100	C	1.676191	0.151817	1.480503
C101	C	1.123040	-0.401504	0.941774
C102	C	1.623040	0.098496	1.441774
C103	C	1.069911	-0.454808	0.985590
C104	C	1.569911	0.045192	1.485590
C105	C	1.229324	-0.294887	0.936681
C106	C	1.729324	0.205113	1.436681
C107	C	1.229305	-0.294903	0.854130
C108	C	1.729305	0.205097	1.354130
C109	C	1.176150	-0.348221	0.815400
C110	C	1.676150	0.151779	1.315400
C111	C	1.123018	-0.401525	0.859221
C112	C	1.623018	0.098475	1.359221
C113	C	1.069867	-0.454846	0.820492
C114	C	1.569867	0.045154	1.320492
C115	C	1.016731	-0.508148	0.864312
C116	C	1.516731	-0.008148	1.364312
C117	C	1.016755	-0.508125	0.946860
C118	C	1.516755	-0.008125	1.446860
C119	C	1.176125	-0.348243	0.732853
C120	C	1.676125	0.151757	1.232853
C121	C	1.069845	-0.454867	0.737940
C122	C	1.569845	0.045133	1.237940
H123	H	0.429260	-0.304847	0.303935
H124	H	0.929260	0.195153	0.803935
H125	H	0.541224	-0.551923	0.549333
H126	H	1.041224	-0.051923	1.049333
O127	O	1.227656	-0.296355	0.690316
O128	O	1.727656	0.203645	1.190316
C129	C	1.272950	-0.154560	0.658323
C130	C	1.772950	0.345440	1.158323
C131	C	1.214531	-0.213231	0.706526
C132	C	1.714531	0.286769	1.206526
H133	H	1.262370	-0.087342	0.671424
H134	H	1.762370	0.412658	1.171424
H135	H	1.263803	-0.163659	0.592658
H136	H	1.763803	0.336341	1.092658
H137	H	1.335971	-0.169254	0.675243
H138	H	1.835971	0.330746	1.175243
H139	H	1.151488	-0.198573	0.689673
H140	H	1.651488	0.301427	1.189673
H141	H	1.223747	-0.204120	0.772178
H142	H	1.723747	0.295880	1.272178
O143	O	1.197228	-0.879614	0.326017
O144	O	1.697228	-0.379614	0.826017
C145	C	1.297111	-0.888560	0.226204
C146	C	1.797111	-0.388560	0.726204
C147	C	1.239205	-0.936542	0.284039
C148	C	1.739205	-0.436542	0.784039
H149	H	1.331054	-0.934565	0.192239
H150	H	1.831054	-0.434565	0.692239
H151	H	1.340376	-0.847744	0.260561
H152	H	1.840376	-0.347744	0.760561
H153	H	1.262727	-0.847837	0.182956
H154	H	1.762727	-0.347837	0.682956
H155	H	1.273524	-0.977310	0.327301
H156	H	1.773524	-0.477310	0.827301
H157	H	1.195941	-0.977305	0.249631
H158	H	1.695941	-0.477305	0.749631
H159	H	0.690987	-0.551910	0.549336
H160	H	1.190987	-0.051910	1.049336
O161	O	0.549697	-0.242981	0.242532
O162	O	1.049697	0.257019	0.742532
C163	C	0.563483	-0.137122	0.137305
C164	C	1.063483	0.362878	0.637305
C165	C	0.606032	-0.195867	0.195640
C166	C	1.106032	0.304133	0.695640
H167	H	0.609009	-0.099028	0.099366
H168	H	1.109009	0.400972	0.599366
H169	H	0.526971	-0.093527	0.171536
H170	H	1.026971	0.406473	0.671536
H171	H	0.522955	-0.175370	0.097787
H172	H	1.022955	0.324630	0.597787
H173	H	0.646599	-0.157686	0.235172
H174	H	1.146599	0.342314	0.735172
H175	H	0.642493	-0.239464	0.161360
H176	H	1.142493	0.260536	0.661360
H177	H	1.026555	-0.498281	0.706413
H178	H	1.526555	0.001719	1.206413
H179	H	0.419964	-0.498552	0.496322
H180	H	0.919964	0.001448	0.996322
H181	H	1.057096	-0.916143	0.465913
H182	H	1.557096	-0.416143	0.965913
H183	H	1.219490	-0.304759	1.094586
H184	H	1.719490	0.195241	1.594586
H185	H	0.973458	-0.551565	0.832769
H186	H	1.473458	-0.051565	1.332769
H187	H	0.817378	-0.498500	0.496292
H188	H	1.317378	0.001500	0.996292
O189	O	0.965220	-0.559872	0.989546
O190	O	1.465220	-0.059872	1.489546
C191	C	0.918125	-0.607054	1.118974
C192	C	1.418125	-0.107054	1.618974
C193	C	0.976540	-0.548423	1.070726
C194	C	1.476540	-0.048423	1.570726
H195	H	0.927246	-0.597805	1.184616
H196	H	1.427246	-0.097805	1.684616
H197	H	0.928733	-0.674304	1.106015
H198	H	1.428733	-0.174304	1.606015
H199	H	0.855104	-0.592416	1.102001
H200	H	1.355104	-0.092416	1.602001
H201	H	1.039584	-0.562986	1.087671
H202	H	1.539584	-0.062986	1.587671
H203	H	0.965864	-0.481190	1.083690
H204	H	1.465864	0.018810	1.583690
H205	H	0.826679	-0.304784	0.303892
H206	H	1.326679	0.195216	0.803892
O207	O	1.280883	-0.243129	0.974424
O208	O	1.780883	0.256871	1.474424
C209	C	1.328056	-0.195896	1.099344
C210	C	1.828056	0.304104	1.599344
C211	C	1.269607	-0.254539	1.056695
C212	C	1.769607	0.245461	1.556695
H213	H	1.318971	-0.205113	1.165867
H214	H	1.818971	0.294887	1.665867
H215	H	1.317449	-0.128651	1.079965
H216	H	1.817449	0.371349	1.579965
H217	H	1.391065	-0.210552	1.083766
H218	H	1.891065	0.289448	1.583766
H219	H	1.206575	-0.239959	1.072252
H220	H	1.706575	0.260041	1.572252
H221	H	1.280283	-0.321766	1.076076
H222	H	1.780283	0.178234	1.576076
O223	O	1.018394	-0.506535	1.110824
O224	O	1.518394	-0.006535	1.610824
C225	C	0.971281	-0.553719	1.240245
C226	C	1.471281	-0.053719	1.740245
C227	C	1.029703	-0.495087	1.192006
C228	C	1.529703	0.004913	1.692006
H229	H	0.980392	-0.544471	1.305889
H230	H	1.480392	-0.044471	1.805889
H231	H	0.981892	-0.620969	1.227287
H232	H	1.481892	-0.120969	1.727287
H233	H	0.908262	-0.539082	1.223263
H234	H	1.408262	-0.039082	1.723263
H235	H	1.092744	-0.509649	1.208960
H236	H	1.592744	-0.009649	1.708960
H237	H	1.019023	-0.427855	1.204969
H238	H	1.519023	0.072145	1.704969
O239	O	1.280943	-0.243046	0.811686
O240	O	1.780943	0.256954	1.311686
C241	C	1.386391	-0.137321	0.815353
C242	C	1.886391	0.362679	1.315353
C243	C	1.327944	-0.195995	0.863518
C244	C	1.827944	0.304005	1.363518
H245	H	1.424418	-0.099278	0.857239
H246	H	1.924418	0.400722	1.357239
H247	H	1.352247	-0.093675	0.774648
H248	H	1.852247	0.406325	1.274648
H249	H	1.425817	-0.175622	0.778509
H250	H	1.925817	0.324378	1.278509
H251	H	1.288504	-0.157761	0.900408
H252	H	1.788504	0.342239	1.400408
H253	H	1.362138	-0.239643	0.904174
H254	H	1.862138	0.260357	1.404174
H255	H	0.705428	-0.251427	0.250878
H256	H	1.205428	0.248573	0.750878
