data_functionalizedCrystal
_audit_creation_method	'MofGen! by Chris Wilmer'
_symmetry_space_group_name_H-M	'P1'
_symmetry_Int_Tables_number	1
_symmetry_cell_setting	triclinic
loop_
_symmetry_equiv_pos_as_xyz
  x,y,z
_cell_length_a	12.759401
_cell_length_b	12.759400
_cell_length_c	12.759393
_cell_angle_alpha	89.968385
_cell_angle_beta	89.980163
_cell_angle_gamma	90.016209
loop_
_atom_site_label
_atom_site_type_symbol
_atom_site_fract_x
_atom_site_fract_y
_atom_site_fract_z
Zn1	Zn	1.606255	-0.418161	-0.594020
Zn2	Zn	1.606150	-0.593880	-0.418340
Zn3	Zn	1.430557	-0.418220	-0.418355
Zn4	Zn	1.430546	-0.593803	-0.593978
O5	O	1.518377	-0.506016	-0.506173
O6	O	1.753262	-0.441478	-0.570727
O7	O	1.582818	-0.570635	-0.271321
O8	O	1.453913	-0.271191	-0.441682
O9	O	1.753185	-0.570578	-0.441656
O10	O	1.582997	-0.271148	-0.570742
O11	O	1.453811	-0.441579	-0.271332
O12	O	1.283535	-0.441505	-0.441640
O13	O	1.453893	-0.570447	-0.741004
O14	O	1.283526	-0.570504	-0.570669
O15	O	1.582986	-0.441403	-0.741036
O16	O	1.582806	-0.740891	-0.441615
O17	O	1.453791	-0.740834	-0.570655
C18	C	1.245410	-0.506003	-0.506152
C19	C	1.128633	-0.506023	-0.506168
C20	C	1.518315	-0.778984	-0.506151
C21	C	1.518384	-0.895760	-0.506177
C22	C	1.073794	-0.573296	-0.573248
C23	C	0.964070	-0.573300	-0.573269
C24	C	0.964033	-0.438756	-0.439122
C25	C	1.073755	-0.438747	-0.439107
C26	C	1.585637	-0.950617	-0.439060
C27	C	1.585701	-1.060341	-0.439093
C28	C	1.451251	-1.060342	-0.573362
C29	C	1.451193	-0.950620	-0.573334
C30	C	1.652828	-0.895757	-0.371904
C31	C	1.720086	-0.950613	-0.304781
C32	C	1.720150	-1.060338	-0.304813
C33	C	1.652957	-1.115205	-0.371969
C34	C	1.792410	-0.506030	-0.506195
C35	C	1.909187	-0.506036	-0.506204
C36	C	1.518450	-0.505910	-0.780207
C37	C	1.518482	-0.505865	-0.896984
C38	C	1.518468	-0.231983	-0.506218
C39	C	1.518507	-0.115206	-0.506238
C40	C	1.451332	-0.438653	-0.951851
C41	C	1.451356	-0.438620	-1.061575
C42	C	1.585689	-0.573015	-1.061555
C43	C	1.585659	-0.573052	-0.951833
C44	C	1.518364	-0.506046	-0.233206
C45	C	1.518537	-0.505796	-0.116430
H46	H	1.118472	-0.628073	-0.627857
H47	H	1.396545	-1.105024	-0.628036
H48	H	1.118406	-0.383959	-0.384482
H49	H	1.653023	-1.204550	-0.371998
H50	H	1.396430	-0.905955	-0.627988
C51	C	1.652764	-0.775065	-0.371869
H52	H	1.702416	-0.750247	-0.322268
H53	H	1.584960	-0.750315	-0.353642
H54	H	1.670895	-0.750174	-0.439679
C55	C	1.659529	-0.646987	-0.891475
H56	H	1.699552	-0.686985	-0.939854
H57	H	1.619310	-0.692773	-0.848659
H58	H	1.705310	-0.606807	-0.848685
H59	H	1.774798	-0.905935	-0.250111
C60	C	0.903747	-0.647299	-0.647053
H61	H	0.830540	-0.637663	-0.637468
H62	H	0.921704	-0.717870	-0.631552
H63	H	0.921770	-0.631999	-0.717671
C64	C	1.377424	-0.364768	-0.891520
H65	H	1.337426	-0.324744	-0.939916
H66	H	1.417605	-0.319003	-0.848724
H67	H	1.331620	-0.404984	-0.848712
C68	C	1.377480	-0.364703	-1.121929
H69	H	1.387103	-0.374313	-1.195132
H70	H	1.392862	-0.294114	-1.103975
H71	H	1.306881	-0.380100	-1.103927
C72	C	0.903665	-0.364770	-0.365348
H73	H	0.830464	-0.374417	-0.374954
H74	H	0.921665	-0.294195	-0.380838
H75	H	0.921614	-0.380073	-0.294727
H76	H	1.774922	-1.104999	-0.250166
C77	C	1.659588	-0.646904	-1.121892
H78	H	1.649998	-0.637249	-1.195097
H79	H	1.644187	-0.717501	-1.103897
H80	H	1.730181	-0.631529	-1.103915
