data_functionalizedCrystal
_audit_creation_method	'MofGen! by Chris Wilmer'
_symmetry_space_group_name_H-M	'P1'
_symmetry_Int_Tables_number	1
_symmetry_cell_setting	triclinic
loop_
_symmetry_equiv_pos_as_xyz
  x,y,z
_cell_length_a	16.120530
_cell_length_b	16.120484
_cell_length_c	16.120256
_cell_angle_alpha	95.616173
_cell_angle_beta	90.128265
_cell_angle_gamma	90.167327
loop_
_atom_site_label
_atom_site_type_symbol
_atom_site_fract_x
_atom_site_fract_y
_atom_site_fract_z
Zn1	Zn	1.224986	-0.422281	-0.554816
Zn2	Zn	1.558319	-0.088948	-0.221483
Zn3	Zn	1.891653	0.244385	0.111850
Zn4	Zn	1.224882	-0.554961	-0.422121
Zn5	Zn	1.558215	-0.221628	-0.088787
Zn6	Zn	1.891548	0.111705	0.244546
Zn7	Zn	1.093725	-0.408193	-0.408058
Zn8	Zn	1.427059	-0.074859	-0.074725
Zn9	Zn	1.760392	0.258474	0.258608
Zn10	Zn	1.078879	-0.554198	-0.554054
Zn11	Zn	1.412212	-0.220864	-0.220720
Zn12	Zn	1.745545	0.112469	0.112613
O13	O	1.155618	-0.484908	-0.484762
O14	O	1.488951	-0.151575	-0.151429
O15	O	1.822285	0.181758	0.181904
O16	O	1.341008	-0.446097	-0.543418
O17	O	1.674341	-0.112764	-0.210085
O18	O	2.007674	0.220569	0.123248
O19	O	1.213653	-0.529915	-0.303622
O20	O	1.546987	-0.196582	0.029712
O21	O	1.880320	0.136751	0.363045
O22	O	1.117394	-0.293431	-0.421960
O23	O	1.450728	0.039903	-0.088627
O24	O	1.784061	0.373236	0.244707
O25	O	1.340931	-0.543577	-0.445927
O26	O	1.674265	-0.210243	-0.112594
O27	O	2.007598	0.123090	0.220739
O28	O	1.213831	-0.303782	-0.529783
O29	O	1.547164	0.029552	-0.196449
O30	O	1.880498	0.362885	0.136884
O31	O	1.117293	-0.422085	-0.293290
O32	O	1.450627	-0.088752	0.040043
O33	O	1.783960	0.244582	0.373376
O34	O	0.975720	-0.421345	-0.421221
O35	O	1.309054	-0.088011	-0.087887
O36	O	1.642387	0.245322	0.245446
O37	O	1.092090	-0.542275	-0.670788
O38	O	1.425424	-0.208942	-0.337455
O39	O	1.758757	0.124391	-0.004122
O40	O	0.964812	-0.528614	-0.528483
O41	O	1.298146	-0.195281	-0.195150
O42	O	1.631479	0.138053	0.138184
O43	O	1.199435	-0.445357	-0.671349
O44	O	1.532768	-0.112024	-0.338015
O45	O	1.866101	0.221310	-0.004682
O46	O	1.199257	-0.671491	-0.445188
O47	O	1.532590	-0.338157	-0.111854
O48	O	1.865924	-0.004824	0.221479
O49	O	1.091989	-0.670930	-0.542119
O50	O	1.425322	-0.337597	-0.208785
O51	O	1.758656	-0.004263	0.124548
C52	C	0.940179	-0.473368	-0.473243
C53	C	1.273513	-0.140035	-0.139910
C54	C	1.606846	0.193298	0.193423
C55	C	0.848012	-0.468453	-0.468336
C56	C	1.181345	-0.135119	-0.135003
C57	C	1.514678	0.198214	0.198330
C58	C	0.679260	-0.459459	-0.459384
C59	C	1.012594	-0.126125	-0.126050
C60	C	1.345927	0.207208	0.207283
C61	C	0.632809	-0.510422	-0.510204
C62	C	0.966143	-0.177089	-0.176871
C63	C	1.299476	0.156244	0.156462
C64	C	0.538910	-0.505418	-0.505223
C65	C	0.872244	-0.172085	-0.171890
C66	C	1.205577	0.161249	0.161443
C67	C	0.773168	-0.464462	-0.464364
C68	C	1.106501	-0.131128	-0.131031
C69	C	1.439835	0.202205	0.202303
C70	C	1.144022	-0.701453	-0.495116
C71	C	1.477356	-0.368120	-0.161782
C72	C	1.810689	-0.034787	0.171551
C73	C	1.139136	-0.794098	-0.499577
C74	C	1.472469	-0.460764	-0.166244
C75	C	1.805803	-0.127431	0.167090
C76	C	1.130219	-0.963721	-0.507739
C77	C	1.463552	-0.630388	-0.174406
C78	C	1.796885	-0.297054	0.158927
C79	C	1.181165	-1.005263	-0.461807
C80	C	1.514498	-0.671930	-0.128473
C81	C	1.847832	-0.338597	0.204860
C82	C	1.176203	-1.099648	-0.466348
C83	C	1.509537	-0.766314	-0.133015
C84	C	1.842870	-0.432981	0.200318
C85	C	1.135179	-0.869328	-0.503199
C86	C	1.468513	-0.535995	-0.169865
C87	C	1.801846	-0.202662	0.163468
C88	C	1.371898	-0.496494	-0.496326
C89	C	1.705231	-0.163160	-0.162993
C90	C	2.038564	0.170173	0.170340
C91	C	1.464063	-0.501431	-0.501254
C92	C	1.797396	-0.168098	-0.167921
C93	C	2.130730	0.165236	0.165412
C94	C	1.144118	-0.495303	-0.702156
C95	C	1.477451	-0.161969	-0.368822
C96	C	1.810785	0.171364	-0.035489
C97	C	1.139217	-0.499732	-0.794796
C98	C	1.472551	-0.166399	-0.461463
C99	C	1.805884	0.166935	-0.128129
C100	C	1.167280	-0.267520	-0.474388
C101	C	1.500614	0.065814	-0.141054
C102	C	1.833947	0.399147	0.192279
C103	C	1.172250	-0.174881	-0.469967
C104	C	1.505584	0.158452	-0.136633
C105	C	1.838917	0.491785	0.196700
C106	C	1.181174	-0.461788	-1.005960
C107	C	1.514507	-0.128454	-0.672627
C108	C	1.847840	0.204879	-0.339294
C109	C	1.130244	-0.507783	-0.964402
C110	C	1.463577	-0.174450	-0.631069
C111	C	1.796911	0.158884	-0.297735
C112	C	1.135238	-0.503302	-0.870024
C113	C	1.468572	-0.169969	-0.536691
C114	C	1.801905	0.163365	-0.203358
C115	C	1.176181	-0.466268	-1.100346
C116	C	1.509514	-0.132934	-0.767013
C117	C	1.842847	0.200399	-0.433680
C118	C	1.167124	-0.474497	-0.268214
C119	C	1.500457	-0.141163	0.065119
C120	C	1.833791	0.192170	0.398453
C121	C	1.172198	-0.469841	-0.175572
C122	C	1.505531	-0.136508	0.157762
C123	C	1.838865	0.196826	0.491095
H124	H	0.648510	-0.412073	-0.412137
H125	H	0.981843	-0.078740	-0.078804
H126	H	1.315177	0.254594	0.254530
C127	C	1.066286	-0.565539	-1.012086
C128	C	1.399620	-0.232206	-0.678752
C129	C	1.732953	0.101127	-0.345419
H130	H	1.071286	-0.561023	-1.070183
H131	H	1.404619	-0.227690	-0.736850
H132	H	1.737952	0.105644	-0.403517
H133	H	1.011960	-0.549710	-0.994304
H134	H	1.345293	-0.216377	-0.660971
H135	H	1.678626	0.116956	-0.327637
H136	H	1.076174	-0.621527	-1.001200
H137	H	1.409507	-0.288194	-0.667867
H138	H	1.742840	0.045140	-0.334533
H139	H	1.082879	-0.999038	-0.550470
H140	H	1.416213	-0.665705	-0.217137
H141	H	1.749546	-0.332372	0.116197
H142	H	1.228507	-0.969944	-0.419071
H143	H	1.561840	-0.636610	-0.085738
H144	H	1.895174	-0.303277	0.247595
H145	H	1.228523	-0.419049	-0.970662
H146	H	1.561857	-0.085715	-0.637328
H147	H	1.895190	0.247618	-0.303995
H148	H	0.663562	-0.557811	-0.557456
H149	H	0.996895	-0.224478	-0.224122
H150	H	1.330228	0.108856	0.109211
