data_functionalizedCrystal
_audit_creation_method	'MofGen! by Chris Wilmer'
_symmetry_space_group_name_H-M	'P1'
_symmetry_Int_Tables_number	1
_symmetry_cell_setting	triclinic
loop_
_symmetry_equiv_pos_as_xyz
  x,y,z
_cell_length_a	29.839134
_cell_length_b	29.839133
_cell_length_c	16.625539
_cell_angle_alpha	89.978203
_cell_angle_beta	89.969685
_cell_angle_gamma	90.024465
loop_
_atom_site_label
_atom_site_type_symbol
_atom_site_fract_x
_atom_site_fract_y
_atom_site_fract_z
Zn1	Zn	0.686794	-0.178914	-0.456155
Zn2	Zn	1.186794	0.321086	0.043845
Zn3	Zn	0.686730	-0.254045	-0.321338
Zn4	Zn	1.186730	0.245955	0.178662
Zn5	Zn	0.611665	-0.178923	-0.321313
Zn6	Zn	1.111665	0.321077	0.178687
Zn7	Zn	0.611640	-0.254011	-0.456105
Zn8	Zn	1.111640	0.245989	0.043895
O9	O	0.649207	-0.216473	-0.388728
O10	O	1.149207	0.283527	0.111272
O11	O	0.749652	-0.188891	-0.438303
O12	O	1.249652	0.311109	0.061697
O13	O	0.676757	-0.244098	-0.208502
O14	O	1.176757	0.255902	0.291498
O15	O	0.621669	-0.116055	-0.339211
O16	O	1.121669	0.383945	0.160789
O17	O	0.749606	-0.244089	-0.339253
O18	O	1.249606	0.255911	0.160747
O19	O	0.676865	-0.116048	-0.438279
O20	O	1.176865	0.383952	0.061721
O21	O	0.621607	-0.188906	-0.208484
O22	O	1.121607	0.311094	0.291516
O23	O	0.548795	-0.188873	-0.339162
O24	O	1.048795	0.311127	0.160838
O25	O	0.621625	-0.244031	-0.568944
O26	O	1.121625	0.255969	-0.068944
O27	O	0.548776	-0.244040	-0.438193
O28	O	1.048776	0.255960	0.061807
O29	O	0.676840	-0.188858	-0.568981
O30	O	1.176840	0.311142	-0.068981
O31	O	0.676732	-0.316908	-0.339204
O32	O	1.176732	0.183092	0.160796
O33	O	0.621563	-0.316883	-0.438217
O34	O	1.121563	0.183117	0.061783
C35	C	0.532485	-0.216454	-0.388670
C36	C	1.032485	0.283546	0.111330
C37	C	0.482550	-0.216457	-0.388664
C38	C	0.982550	0.283543	0.111336
C39	C	0.649150	-0.333196	-0.388725
C40	C	1.149150	0.166804	0.111275
C41	C	0.649167	-0.383130	-0.388751
C42	C	1.149167	0.116870	0.111249
C43	C	0.677964	-0.739679	-0.440372
C44	C	1.177964	-0.239679	0.059628
C45	C	0.677922	-0.552006	-0.440371
C46	C	1.177922	-0.052006	0.059629
O47	O	0.702348	-0.527709	-0.484248
O48	O	1.202348	-0.027709	0.015752
N49	N	0.649202	-0.528575	-0.388750
N50	N	1.149202	-0.028575	0.111250
C51	C	0.620493	-0.552066	-0.337121
C52	C	1.120493	-0.052066	0.162879
O53	O	0.596068	-0.527831	-0.293208
O54	O	1.096068	-0.027831	0.206792
C55	C	0.620539	-0.739738	-0.337119
C56	C	1.120539	-0.239738	0.162881
C57	C	0.649257	-0.763166	-0.388749
C58	C	1.149257	-0.263166	0.111251
C59	C	0.706681	-0.763107	-0.491997
C60	C	1.206681	-0.263107	0.008003
C61	C	0.706689	-0.810023	-0.492000
C62	C	1.206689	-0.310023	0.008000
C63	C	0.677982	-0.833510	-0.440377
C64	C	1.177982	-0.333510	0.059623
C65	C	0.649265	-0.810082	-0.388752
C66	C	1.149265	-0.310082	0.111248
C67	C	0.591832	-0.763228	-0.285487
C68	C	1.091832	-0.263228	0.214513
C69	C	0.591847	-0.810149	-0.285489
C70	C	1.091847	-0.310149	0.214511
C71	C	0.620565	-0.833577	-0.337120
C72	C	1.120565	-0.333577	0.162880
C73	C	0.620566	-0.880484	-0.337132
C74	C	1.120566	-0.380484	0.162868
N75	N	0.649286	-0.903915	-0.388753
N76	N	1.149286	-0.403915	0.111247
C77	C	0.677994	-0.880428	-0.440376
C78	C	1.177994	-0.380428	0.059624
C79	C	0.620471	-0.453535	-0.337127
C80	C	1.120471	0.046465	0.162873
C81	C	0.620459	-0.406617	-0.337129
C82	C	1.120459	0.093383	0.162871
C83	C	0.677888	-0.406561	-0.440378
C84	C	1.177888	0.093439	0.059622
C85	C	0.677898	-0.453479	-0.440379
C86	C	1.177898	0.046521	0.059621
C87	C	0.649191	-0.476966	-0.388748
C88	C	1.149191	0.023034	0.111252
C89	C	0.678009	-0.978954	-0.440378
C90	C	1.178009	-0.478954	0.059622
C91	C	0.678014	-1.025873	-0.440379
C92	C	1.178014	-0.525873	0.059621
C93	C	0.620587	-1.025926	-0.337128
C94	C	1.120587	-0.525926	0.162872
C95	C	0.620580	-0.979010	-0.337130
C96	C	1.120580	-0.479010	0.162870
C97	C	0.649295	-0.955525	-0.388758
C98	C	1.149295	-0.455525	0.111242
O99	O	0.596156	-0.904811	-0.293271
O100	O	1.096156	-0.404811	0.206729
O101	O	0.702422	-0.904671	-0.484270
O102	O	1.202422	-0.404671	0.015730
C103	C	0.677956	-0.692764	-0.440369
C104	C	1.177956	-0.192764	0.059631
C105	C	0.649240	-0.669335	-0.388743
C106	C	1.149240	-0.169335	0.111257
C107	C	0.620532	-0.692823	-0.337121
C108	C	1.120532	-0.192823	0.162879
C109	C	0.649228	-0.622418	-0.388745
C110	C	1.149228	-0.122418	0.111255
C111	C	0.677935	-0.598930	-0.440368
C112	C	1.177935	-0.098930	0.059632
C113	C	0.706655	-0.622361	-0.491989
C114	C	1.206655	-0.122361	0.008011
C115	C	0.706663	-0.669276	-0.491992
C116	C	1.206663	-0.169276	0.008008
C117	C	0.591812	-0.669392	-0.285500
C118	C	1.091812	-0.169392	0.214500
C119	C	0.591806	-0.622477	-0.285502
C120	C	1.091806	-0.122477	0.214498
C121	C	0.620513	-0.598989	-0.337124
C122	C	1.120513	-0.098989	0.162876
C123	C	0.172906	-0.245241	-0.440230
C124	C	0.672906	0.254759	0.059770
C125	C	-0.014767	-0.245254	-0.440266
C126	C	0.485233	0.254746	0.059734
O127	O	-0.039032	-0.269706	-0.484075
O128	O	0.460968	0.230294	0.015925
N129	N	-0.038235	-0.216490	-0.388789
N130	N	0.461765	0.283510	0.111211
C131	C	-0.014782	-0.187718	-0.337302
C132	C	0.485218	0.312282	0.162698
O133	O	-0.039049	-0.163250	-0.293524
O134	O	0.460951	0.336750	0.206476
C135	C	0.172890	-0.187704	-0.337271
C136	C	0.672890	0.312296	0.162729
C137	C	0.196356	-0.216473	-0.388746
C138	C	0.696356	0.283527	0.111254
C139	C	0.196372	-0.274008	-0.491702
C140	C	0.696372	0.225992	0.008298
C141	C	0.243288	-0.274006	-0.491689
C142	C	0.743288	0.225994	0.008311
C143	C	0.266737	-0.245238	-0.440205
C144	C	0.766737	0.254762	0.059795
C145	C	0.243271	-0.216471	-0.388733
C146	C	0.743271	0.283529	0.111267
C147	C	0.196342	-0.158931	-0.285789
C148	C	0.696342	0.341069	0.214211
C149	C	0.243263	-0.158929	-0.285788
C150	C	0.743263	0.341071	0.214212
C151	C	0.266729	-0.187698	-0.337263
C152	C	0.766729	0.312302	0.162737
C153	C	0.313637	-0.187701	-0.337237
C154	C	0.813637	0.312299	0.162763
N155	N	0.337105	-0.216465	-0.388714
N156	N	0.837105	0.283535	0.111286
C157	C	0.313655	-0.245233	-0.440198
C158	C	0.813655	0.254767	0.059802
C159	C	-0.113313	-0.187729	-0.337321
C160	C	0.386687	0.312271	0.162679
C161	C	-0.160230	-0.187733	-0.337328
C162	C	0.339770	0.312267	0.162672
C163	C	-0.160212	-0.245268	-0.440293
C164	C	0.339788	0.254732	0.059707
C165	C	-0.113293	-0.245266	-0.440281
C166	C	0.386707	0.254734	0.059719
C167	C	-0.089844	-0.216493	-0.388799
C168	C	0.410156	0.283507	0.111201
C169	C	0.412181	-0.245228	-0.440167
C170	C	0.912181	0.254772	0.059833
C171	C	0.459101	-0.245225	-0.440148
C172	C	0.959101	0.254775	0.059852
C173	C	0.459078	-0.187689	-0.337186
C174	C	0.959078	0.312311	0.162814
C175	C	0.412162	-0.187693	-0.337202
C176	C	0.912162	0.312307	0.162798
C177	C	0.388715	-0.216464	-0.388700
C178	C	0.888715	0.283536	0.111300
O179	O	0.337931	-0.163258	-0.293457
O180	O	0.837931	0.336742	0.206543
O181	O	0.337931	-0.269691	-0.483982
O182	O	0.837931	0.230309	0.016018
C183	C	0.125991	-0.245243	-0.440243
C184	C	0.625991	0.254757	0.059757
C185	C	0.102525	-0.216476	-0.388771
C186	C	0.602525	0.283524	0.111229
C187	C	0.125975	-0.187708	-0.337287
C188	C	0.625975	0.312292	0.162713
C189	C	0.055607	-0.216481	-0.388778
C190	C	0.555607	0.283519	0.111222
C191	C	0.032158	-0.245249	-0.440262
C192	C	0.532158	0.254751	0.059738
C193	C	0.055626	-0.274013	-0.491739
C194	C	0.555626	0.225987	0.008261
C195	C	0.102541	-0.274011	-0.491727
C196	C	0.602541	0.225989	0.008273
C197	C	0.102506	-0.158944	-0.285810
C198	C	0.602506	0.341056	0.214190
C199	C	0.055591	-0.158949	-0.285826
C200	C	0.555591	0.341051	0.214174
C201	C	0.032141	-0.187717	-0.337310
C202	C	0.532141	0.312283	0.162690
C203	C	0.766386	-0.216493	-0.388787
C204	C	1.266386	0.283507	0.111213
C205	C	0.816320	-0.216501	-0.388812
C206	C	1.316320	0.283499	0.111188
C207	C	0.649236	-0.216440	-0.599037
C208	C	1.149236	0.283560	-0.099037
C209	C	0.649249	-0.216426	-0.688658
C210	C	1.149249	0.283574	-0.188658
C211	C	0.649277	-0.099295	-0.388748
C212	C	1.149277	0.400705	0.111252
C213	C	0.649306	-0.049360	-0.388756
C214	C	1.149306	0.450640	0.111244
C215	C	0.649270	-0.216375	-1.016834
C216	C	1.149270	0.283625	-0.516834
C217	C	0.649263	-0.216391	-0.925525
C218	C	1.149263	0.283609	-0.425525
C219	C	0.649259	-0.216401	-0.852749
C220	C	1.149259	0.283599	-0.352749
C221	C	0.649252	-0.216415	-0.761434
C222	C	1.149252	0.283585	-0.261434
C223	C	0.649204	-0.216474	-0.179237
C224	C	1.149204	0.283526	0.320763
C225	C	0.649279	-0.216362	-0.089616
C226	C	1.149279	0.283638	0.410384
H227	H	0.701399	-1.044946	-0.482428
H228	H	1.201399	-0.544946	0.017572
F229	F	0.590013	-0.954076	-0.282182
F230	F	1.090013	-0.454076	0.217818
H231	H	0.568435	-0.688511	-0.243460
H232	H	1.068435	-0.188511	0.256540
F233	F	0.387188	-0.157081	-0.282406
F234	F	0.887188	0.342919	0.217594
F235	F	0.590032	-1.050931	-0.282195
F236	F	1.090032	-0.550931	0.217805
H237	H	-0.094225	-0.164298	-0.295394
H238	H	0.405775	0.335702	0.204606
F239	F	0.127457	-0.128322	-0.231012
F240	F	0.627457	0.371678	0.268988
H241	H	0.262389	-0.297432	-0.533607
H242	H	0.762389	0.202568	-0.033607
H243	H	0.478179	-0.164268	-0.295267
H244	H	0.978179	0.335732	0.204733
F245	F	0.484072	-0.275847	-0.494935
F246	F	0.984072	0.224153	0.005065
F247	F	0.737255	-0.834951	-0.546954
F248	F	1.237255	-0.334951	-0.046954
H249	H	0.036525	-0.297438	-0.533657
H250	H	0.536525	0.202562	-0.033657
H251	H	0.177244	-0.135505	-0.243871
H252	H	0.677244	0.364495	0.256129
F253	F	0.561263	-0.738304	-0.230538
F254	F	1.061263	-0.238304	0.269462
H255	H	0.701392	-0.959837	-0.482418
H256	H	1.201392	-0.459837	0.017582
F257	F	0.127510	-0.304631	-0.546514
F258	F	0.627510	0.195369	-0.046514
H259	H	0.701281	-0.472551	-0.482425
H260	H	1.201281	0.027449	0.017575
F261	F	0.737238	-0.738117	-0.546946
F262	F	1.237238	-0.238117	-0.046946
F263	F	0.708442	-0.381556	-0.495317
F264	F	1.208442	0.118444	0.004683
F265	F	0.268216	-0.128303	-0.230992
F266	F	0.768216	0.371697	0.269008
F267	F	-0.185199	-0.157118	-0.282531
F268	F	0.314801	0.342882	0.217469
H269	H	0.036489	-0.135522	-0.243902
H270	H	0.536489	0.364478	0.256098
F271	F	-0.185177	-0.275883	-0.495090
F272	F	0.314823	0.224117	0.004910
F273	F	0.589887	-0.381689	-0.282189
F274	F	1.089887	0.118311	0.217811
H275	H	0.597093	-0.472654	-0.295081
H276	H	1.097093	0.027346	0.204919
F277	F	0.561293	-0.835142	-0.230533
F278	F	1.061293	-0.335142	0.269467
F279	F	0.737229	-0.694204	-0.546945
F280	F	1.237229	-0.194204	-0.046945
F281	F	0.737206	-0.597356	-0.546933
F282	F	1.237206	-0.097356	-0.046933
H283	H	0.568416	-0.603405	-0.243460
H284	H	1.068416	-0.103405	0.256540
H285	H	0.393096	-0.268655	-0.482103
H286	H	0.893096	0.231345	0.017897
F287	F	0.171422	-0.304629	-0.546504
F288	F	0.671422	0.195371	-0.046504
F289	F	-0.088323	-0.275885	-0.495069
F290	F	0.411677	0.224115	0.004931
