data_functionalizedCrystal
_audit_creation_method	'MofGen! by Chris Wilmer'
_symmetry_space_group_name_H-M	'P1'
_symmetry_Int_Tables_number	1
_symmetry_cell_setting	triclinic
loop_
_symmetry_equiv_pos_as_xyz
  x,y,z
_cell_length_a	11.792241
_cell_length_b	11.792241
_cell_length_c	9.730223
_cell_angle_alpha	90.003985
_cell_angle_beta	89.996370
_cell_angle_gamma	95.806585
loop_
_atom_site_label
_atom_site_type_symbol
_atom_site_fract_x
_atom_site_fract_y
_atom_site_fract_z
O1	O	-0.155563	1.506902	-0.114140
O2	O	-0.171596	1.176561	-0.114170
O3	O	0.001591	1.349748	-0.114163
O4	O	-0.328750	1.333715	-0.114148
O5	O	0.001587	1.349746	0.114417
O6	O	-0.171600	1.176559	0.114409
O7	O	-0.155567	1.506900	0.114440
Zn8	Zn	-0.163584	1.341729	0.150717
Zn9	Zn	-0.163579	1.341732	-0.150447
O10	O	-0.328754	1.333713	0.114432
C11	C	-0.170591	1.134269	0.000115
C12	C	-0.167576	1.008255	0.000103
C13	C	-0.162034	0.777543	0.000142
C14	C	-0.165113	0.905928	0.000121
C15	C	-0.371043	1.334721	0.000144
C16	C	-0.497057	1.337736	0.000151
C17	C	-0.727769	1.343279	0.000116
C18	C	-0.599384	1.340199	0.000135
C19	C	0.043880	1.348740	0.000122
C20	C	0.169894	1.345726	0.000107
C21	C	-0.156572	1.549192	0.000151
C22	C	-0.159587	1.675206	0.000154
N23	N	-0.163588	1.341736	0.356253
N24	N	-0.163566	1.341734	-0.355984
C25	C	-0.086927	1.418443	0.428182
C26	C	-0.086913	1.418440	0.572065
C27	C	-0.240231	1.265019	0.572077
C28	C	-0.240239	1.265018	0.428196
C29	C	-0.010276	1.495161	0.356239
C30	C	0.066391	1.571875	0.428169
C31	C	0.066405	1.571872	0.572052
C32	C	-0.010248	1.495155	0.644005
H33	H	-0.010282	1.495173	0.239082
H34	H	0.128806	1.634329	0.369577
H35	H	0.128837	1.634328	0.630615
C36	C	-0.010228	1.495156	0.802281
N37	N	-0.010218	1.495164	0.921494
H38	H	-0.302640	1.202560	0.630671
C39	C	-0.324545	1.180611	0.349070
N40	N	-0.388035	1.117022	0.289471
