data_functionalizedCrystal
_audit_creation_method	'MofGen! by Chris Wilmer'
_symmetry_space_group_name_H-M	'P1'
_symmetry_Int_Tables_number	1
_symmetry_cell_setting	triclinic
loop_
_symmetry_equiv_pos_as_xyz
  x,y,z
_cell_length_a	14.044220
_cell_length_b	11.026607
_cell_length_c	12.503572
_cell_angle_alpha	85.706536
_cell_angle_beta	86.156832
_cell_angle_gamma	79.112553
loop_
_atom_site_label
_atom_site_type_symbol
_atom_site_fract_x
_atom_site_fract_y
_atom_site_fract_z
O1	O	0.400024	-1.660464	0.089338
O2	O	0.353975	-1.302173	0.089337
O3	O	0.238098	-1.475940	0.089327
O4	O	0.515901	-1.486697	0.089348
O5	O	0.246831	-1.462874	-0.089314
O6	O	0.362709	-1.289107	-0.089304
O7	O	0.408757	-1.647398	-0.089303
Cu8	Cu	0.386530	-1.467059	-0.105615
Cu9	Cu	0.376202	-1.482512	0.105649
O10	O	0.524634	-1.473631	-0.089293
C11	C	0.349847	-1.249510	0.000017
C12	C	0.324523	-1.112054	0.000016
C13	C	0.206347	-1.464699	0.000006
C14	C	0.098725	-1.450655	0.000005
N15	N	0.393795	-1.456200	-0.254207
C16	C	-0.098319	-1.424981	0.000020
C17	C	-0.138956	-1.524585	0.000023
C18	C	-0.248598	-1.510300	0.000032
C19	C	0.011333	-1.439264	0.000011
C20	C	0.556386	-1.484873	0.000030
C21	C	0.664007	-1.498917	0.000039
C22	C	0.412885	-1.700062	0.000020
C23	C	0.438209	-1.837517	0.000027
C24	C	0.394447	-1.045818	0.000022
C25	C	0.368275	-0.903751	0.000021
C26	C	0.404491	-1.440226	-0.473321
C27	C	0.358238	-1.509350	-0.526652
C28	C	0.364189	-1.500462	-0.648575
C29	C	0.398540	-1.449113	-0.351387
N30	N	0.368931	-1.493380	0.254241
H31	H	-0.145868	-1.328985	0.000022
O32	O	-0.082141	-1.639066	0.000154
C33	C	-0.027712	-1.660043	0.092680
H34	H	-0.020878	-1.567529	0.123533
H35	H	-0.065964	-1.714758	0.157465
C36	C	0.065788	-1.847647	0.026662
C37	C	0.074190	-1.734019	0.064552
H38	H	0.128645	-1.893283	0.009314
H39	H	0.029117	-1.833517	-0.035673
H40	H	0.033908	-1.893227	0.080656
H41	H	0.106058	-1.688434	0.010553
H42	H	0.110869	-1.748142	0.126877
O43	O	0.488931	-1.103829	0.000072
C44	C	0.494029	-1.232760	0.000039
H45	H	0.422140	-1.257232	0.033857
H46	H	0.508983	-1.262899	-0.085666
C47	C	0.664805	-1.269772	0.028559
C48	C	0.576512	-1.299830	0.070103
H49	H	0.715686	-1.311145	0.071773
H50	H	0.661372	-1.182908	0.028577
H51	H	0.677253	-1.294888	-0.042861
H52	H	0.564059	-1.274699	0.141516
H53	H	0.579945	-1.386691	0.070099
H54	H	0.289028	-0.855288	0.000043
H55	H	0.517456	-0.885980	0.000026
O56	O	0.229940	-1.054436	-0.000036
C57	C	0.170004	-1.143608	-0.000012
H58	H	0.213588	-1.231718	-0.033830
H59	H	0.142048	-1.165170	0.085691
C60	C	0.029892	-0.984646	-0.028535
C61	C	0.083421	-1.092861	-0.070080
H62	H	-0.023519	-0.953342	-0.071753
H63	H	0.070271	-0.924568	-0.028548
H64	H	0.006605	-1.002629	0.042883
H65	H	0.106717	-1.074873	-0.141492
H66	H	0.043044	-1.152935	-0.070081
H67	H	0.314172	-1.575205	-0.480743
O68	O	0.456930	-1.361599	-0.528200
C69	C	0.395380	-1.274924	-0.593247
H70	H	0.328954	-1.314620	-0.609951
H71	H	0.371236	-1.185918	-0.550005
C72	C	0.532074	-1.198102	-0.679636
C73	C	0.450493	-1.246861	-0.700159
H74	H	0.566070	-1.180785	-0.745582
H75	H	0.573542	-1.256493	-0.635810
H76	H	0.511943	-1.123936	-0.643598
H77	H	0.470625	-1.321033	-0.736184
H78	H	0.409029	-1.188482	-0.743994
