data_functionalizedCrystal
_audit_creation_method	'MofGen! by Chris Wilmer'
_symmetry_space_group_name_H-M	'P1'
_symmetry_Int_Tables_number	1
_symmetry_cell_setting	triclinic
loop_
_symmetry_equiv_pos_as_xyz
  x,y,z
_cell_length_a	19.288840
_cell_length_b	10.908878
_cell_length_c	18.366186
_cell_angle_alpha	89.993183
_cell_angle_beta	89.983729
_cell_angle_gamma	71.605404
loop_
_atom_site_label
_atom_site_type_symbol
_atom_site_fract_x
_atom_site_fract_y
_atom_site_fract_z
O1	O	0.903136	0.160148	-0.060667
O2	O	0.698408	0.181806	-0.060641
O3	O	0.827911	-0.016117	-0.060655
O4	O	0.773633	0.358070	-0.060654
O5	O	0.827894	-0.016126	0.060444
O6	O	0.698391	0.181796	0.060458
O7	O	0.903119	0.160138	0.060432
Zn8	Zn	0.800752	0.170966	0.079672
Zn9	Zn	0.800775	0.170978	-0.079881
O10	O	0.773616	0.358061	0.060446
C11	C	0.672601	0.181110	-0.000089
C12	C	0.595733	0.179034	-0.000079
C13	C	0.559652	0.178042	-0.066092
C14	C	0.487429	0.176077	-0.066101
C15	C	0.451294	0.175078	-0.000093
C16	C	0.487382	0.176078	0.065929
C17	C	0.559602	0.178056	0.065936
C18	C	0.350883	0.096675	0.050468
C19	C	0.278666	0.094689	0.050458
C20	C	0.228544	0.168984	-0.000112
C21	C	0.250651	0.245249	-0.050685
C22	C	0.322870	0.247226	-0.050678
C23	C	0.372984	0.172935	-0.000093
C24	C	0.114150	0.165864	-0.066139
C25	C	0.041924	0.163907	-0.066145
C26	C	0.041881	0.163895	0.065886
C27	C	0.114103	0.165864	0.065891
C28	C	0.150235	0.166843	-0.000124
C29	C	0.832975	-0.063993	-0.000107
C30	C	0.848082	-0.206636	-0.000111
C31	C	0.792961	-0.255316	-0.000106
C32	C	0.808573	-0.402745	-0.000110
C33	C	0.928925	0.160835	-0.000122
C34	C	1.005794	0.162910	-0.000137
C35	C	0.768551	0.405937	-0.000104
C36	C	0.753445	0.548580	-0.000104
N37	N	0.800742	0.170956	0.188563
N38	N	0.800791	0.170978	-0.188773
C39	C	0.858097	0.083359	0.226658
C40	C	0.858102	0.083353	0.302886
C41	C	0.800756	0.170967	0.341016
C42	C	0.743392	0.258571	0.302912
C43	C	0.743385	0.258565	0.226686
C44	C	0.778131	0.288052	0.461777
C45	C	0.778143	0.288059	0.538002
C46	C	0.800774	0.170983	0.576124
C47	C	0.823409	0.053895	0.538010
C48	C	0.823402	0.053890	0.461784
C49	C	0.800757	0.170982	0.423671
C50	C	0.858138	0.083372	0.696873
C51	C	0.858138	0.083365	0.773102
C52	C	0.743430	0.258593	0.773128
C53	C	0.743428	0.258590	0.696900
C54	C	0.800785	0.170980	0.658777
H55	H	0.340866	0.309326	-0.091854
H56	H	0.759717	0.383399	0.569028
N57	N	0.681521	0.353062	0.185601
H58	H	0.701500	0.409830	0.153962
H59	H	0.656444	0.304014	0.154030
H60	H	0.759690	0.383395	0.430746
H61	H	0.696699	0.329905	0.333962
N62	N	0.675618	-0.362073	-0.000087
H63	H	0.675495	-0.269420	-0.000084
H64	H	0.649657	-0.378568	-0.044977
H65	H	0.143567	0.166674	-0.119892
N66	N	0.003004	0.162841	-0.137349
H67	H	0.036855	0.163756	-0.179164
H68	H	-0.012122	0.082378	-0.140221
H69	H	0.143482	0.166664	0.119646
H70	H	0.458046	0.175271	-0.119858
H71	H	0.867326	-0.470209	-0.000115
H72	H	0.588978	0.178864	0.119694
N73	N	0.925902	-0.295998	-0.000116
H74	H	0.934660	-0.352296	-0.045008
H75	H	0.960494	-0.243170	-0.000090
N76	N	0.598623	0.179092	-0.137290
H77	H	0.564803	0.178163	-0.179111
H78	H	0.613752	0.259553	-0.140169
H79	H	0.904799	0.012020	0.195620
H80	H	0.260674	0.032584	0.091634
H81	H	0.734213	-0.187848	-0.000094
H82	H	0.904808	0.012018	0.333908
H83	H	0.696726	0.329925	0.665881
H84	H	0.841829	-0.041447	0.430755
H85	H	0.841837	-0.041440	0.569047
N86	N	0.196602	0.325385	-0.105236
H87	H	0.147496	0.312568	-0.097566
H88	H	0.191736	0.419612	-0.098462
H89	H	0.391688	0.036171	0.091652
N90	N	0.002919	0.162807	0.137082
H91	H	-0.041886	0.241623	0.140026
H92	H	-0.012155	0.082290	0.139972
N93	N	0.448568	0.174177	0.137123
H94	H	0.397394	0.172492	0.127101
H95	H	0.476254	0.094611	0.165620
H96	H	0.904840	0.012031	0.665832
H97	H	0.904842	0.012026	0.804119
H98	H	0.696736	0.329925	0.804173
