data_functionalizedCrystal
_audit_creation_method	'MofGen! by Chris Wilmer'
_symmetry_space_group_name_H-M	'P1'
_symmetry_Int_Tables_number	1
_symmetry_cell_setting	triclinic
loop_
_symmetry_equiv_pos_as_xyz
  x,y,z
_cell_length_a	10.654550
_cell_length_b	9.130313
_cell_length_c	10.654551
_cell_angle_alpha	89.998768
_cell_angle_beta	95.514820
_cell_angle_gamma	90.000488
loop_
_atom_site_label
_atom_site_type_symbol
_atom_site_fract_x
_atom_site_fract_y
_atom_site_fract_z
O1	O	1.667841	0.121684	-0.176396
O2	O	1.302362	0.121710	-0.193202
O3	O	1.493504	0.121693	-0.002060
O4	O	1.476699	0.121701	-0.367538
O5	O	1.493489	-0.121906	-0.002060
O6	O	1.302348	-0.121889	-0.193202
O7	O	1.667826	-0.121915	-0.176396
Cu8	Cu	1.485086	-0.144144	-0.184799
Cu9	Cu	1.485103	0.143939	-0.184799
O10	O	1.476685	-0.121898	-0.367538
C11	C	1.255557	-0.000086	-0.191968
C12	C	1.116114	-0.000076	-0.188276
N13	N	1.485083	-0.346767	-0.184798
C14	C	1.036629	-0.000078	-0.300818
C15	C	0.905608	-0.000103	-0.297341
C16	C	0.933570	-0.000119	-0.068772
C17	C	1.064589	-0.000104	-0.072249
C18	C	1.561914	-0.423418	-0.261680
C19	C	1.561935	-0.576754	-0.261673
C20	C	1.408281	-0.576777	-0.107899
C21	C	1.408268	-0.423443	-0.107900
C22	C	1.714632	-0.000116	-0.177630
C23	C	1.854075	-0.000116	-0.181322
C24	C	1.492262	-0.000104	0.044738
C25	C	1.488570	-0.000097	0.184181
N26	N	1.485116	0.346562	-0.184790
C27	C	1.477926	-0.000098	-0.414336
C28	C	1.481619	-0.000095	-0.553779
C29	C	1.486845	0.132690	0.249685
C30	C	1.483365	0.132692	0.380706
C31	C	1.483340	-0.132893	0.380707
C32	C	1.486811	-0.132893	0.249688
H33	H	1.078576	-0.000066	-0.395294
H34	H	0.840896	-0.000108	-0.388984
C35	C	1.646450	-0.661065	-0.346249
C36	C	1.790474	-0.639948	-0.329088
C37	C	1.874997	-0.724256	-0.413666
C38	C	1.815496	-0.829681	-0.515405
C39	C	1.671465	-0.850803	-0.532570
C40	C	1.586942	-0.766495	-0.447992
H41	H	1.834527	-0.561902	-0.253771
H42	H	1.981619	-0.708620	-0.400959
H43	H	1.878065	-0.892091	-0.578014
H44	H	1.627412	-0.928849	-0.607887
H45	H	1.480320	-0.782132	-0.460699
C46	C	1.481398	-0.278971	0.452755
C47	C	1.590714	-0.388554	0.448046
C48	C	1.588765	-0.534639	0.520085
C49	C	1.477500	-0.571141	0.596833
C50	C	1.368175	-0.461555	0.601545
C51	C	1.370124	-0.315470	0.529507
H52	H	1.673086	-0.361536	0.391230
H53	H	1.669694	-0.615762	0.516596
H54	H	1.476057	-0.679282	0.650160
H55	H	1.285803	-0.488573	0.658361
H56	H	1.289195	-0.234347	0.532995
C57	C	1.646419	-0.339073	-0.346254
C58	C	1.730940	-0.423395	-0.430815
C59	C	1.815451	-0.339055	-0.515387
C60	C	1.815443	-0.170393	-0.515398
C61	C	1.730920	-0.086062	-0.430833
C62	C	1.646408	-0.170402	-0.346261
H63	H	1.730949	-0.548256	-0.430811
H64	H	1.878021	-0.401483	-0.577988
H65	H	1.878003	-0.107960	-0.578003
H66	H	1.730910	0.038799	-0.430837
H67	H	1.583838	-0.107974	-0.283660
C68	C	1.488711	-0.278968	0.177622
C69	C	1.599955	-0.315493	0.100855
C70	C	1.601849	-0.461559	0.028787
C71	C	1.492499	-0.571100	0.033486
C72	C	1.381247	-0.534578	0.110257
C73	C	1.379353	-0.388512	0.182325
H74	H	1.680910	-0.234401	0.097374
H75	H	1.684206	-0.488594	-0.028044
H76	H	1.493901	-0.679227	-0.019863
H77	H	1.300292	-0.615670	0.113738
H78	H	1.296996	-0.361476	0.239155
C79	C	0.876885	-0.000133	0.058851
C80	C	0.790661	-0.126633	0.092670
C81	C	0.733979	-0.126642	0.220295
C82	C	0.763521	-0.000151	0.314102
C83	C	0.849749	0.126358	0.280285
C84	C	0.906432	0.126367	0.152660
H85	H	0.768788	-0.220278	0.023226
H86	H	0.670146	-0.220294	0.245328
H87	H	0.721561	-0.000158	0.408578
H88	H	0.871622	0.220003	0.349729
H89	H	0.970264	0.220019	0.127628
H90	H	1.129309	-0.000106	0.019401
H91	H	1.345740	-0.639224	-0.045293
C92	C	1.323745	-0.339115	-0.023327
C93	C	1.239238	-0.423448	0.061244
C94	C	1.154723	-0.339119	0.145816
C95	C	1.154714	-0.170458	0.145816
C96	C	1.239223	-0.086115	0.061241
C97	C	1.323739	-0.170444	-0.023331
H98	H	1.239242	-0.548309	0.061247
H99	H	1.092163	-0.401556	0.208424
H100	H	1.092150	-0.108033	0.208421
H101	H	1.239219	0.038746	0.061238
H102	H	1.386298	-0.108007	-0.085939
H103	H	1.488273	0.240822	0.196353
H104	H	1.481957	0.240821	0.434033
