data_functionalizedCrystal
_audit_creation_method	'MofGen! by Chris Wilmer'
_symmetry_space_group_name_H-M	'P1'
_symmetry_Int_Tables_number	1
_symmetry_cell_setting	triclinic
loop_
_symmetry_equiv_pos_as_xyz
  x,y,z
_cell_length_a	19.077105
_cell_length_b	12.645329
_cell_length_c	19.076919
_cell_angle_alpha	87.725138
_cell_angle_beta	89.923776
_cell_angle_gamma	87.714464
loop_
_atom_site_label
_atom_site_type_symbol
_atom_site_fract_x
_atom_site_fract_y
_atom_site_fract_z
Zn1	Zn	1.058308	-0.512860	0.440436
Zn2	Zn	1.558308	-0.012860	0.940436
Zn3	Zn	1.062961	-0.683310	0.322935
Zn4	Zn	1.562961	-0.183310	0.822935
Zn5	Zn	0.945525	-0.498658	0.318229
Zn6	Zn	1.445525	0.001342	0.818229
Zn7	Zn	0.940782	-0.682671	0.435688
Zn8	Zn	1.440782	-0.182671	0.935688
O9	O	1.001894	-0.594375	0.379322
O10	O	1.501894	-0.094375	0.879322
O11	O	1.157257	-0.541681	0.428806
O12	O	1.657257	-0.041681	0.928806
O13	O	1.051314	-0.653140	0.223980
O14	O	1.551314	-0.153140	0.723980
O15	O	0.960524	-0.352198	0.334457
O16	O	1.460524	0.147802	0.834457
O17	O	1.160676	-0.666910	0.342479
O18	O	1.660676	-0.166910	0.842479
O19	O	1.043385	-0.362632	0.424243
O20	O	1.543385	0.137368	0.924243
O21	O	0.965035	-0.517477	0.220522
O22	O	1.465035	-0.017477	0.720522
O23	O	0.846564	-0.516857	0.329853
O24	O	1.346564	-0.016857	0.829853
O25	O	0.952440	-0.665821	0.534649
O26	O	1.452440	-0.165821	1.034649
O27	O	0.843079	-0.652050	0.416150
O28	O	1.343079	-0.152050	0.916150
O29	O	1.038786	-0.541061	0.538138
O30	O	1.538786	-0.041061	1.038138
O31	O	1.046716	-0.831569	0.337875
O32	O	1.546716	-0.331569	0.837875
O33	O	0.956952	-0.831100	0.420714
O34	O	1.456952	-0.331100	0.920714
C35	C	0.819325	-0.582844	0.371976
C36	C	1.319325	-0.082844	0.871976
C37	C	0.741220	-0.577938	0.368850
C38	C	1.241220	-0.077938	0.868850
C39	C	0.702734	-0.646119	0.412241
C40	C	1.202734	-0.146119	0.912241
C41	C	0.629346	-0.641495	0.409307
C42	C	1.129346	-0.141495	0.909307
C43	C	0.594447	-0.568695	0.362979
C44	C	1.094447	-0.068695	0.862979
C45	C	0.632938	-0.500507	0.319586
C46	C	1.132938	-0.000507	0.819586
C47	C	0.706324	-0.505126	0.322524
C48	C	1.206324	-0.005126	0.822524
C49	C	0.375158	-0.547316	0.349385
C50	C	0.875158	-0.047316	0.849385
C51	C	0.301766	-0.542704	0.346449
C52	C	0.801766	-0.042704	0.846449
C53	C	0.298179	-0.683691	0.436172
C54	C	0.798179	-0.183691	0.936172
C55	C	0.371567	-0.688309	0.439102
C56	C	0.871567	-0.188309	0.939102
C57	C	0.410052	-0.620117	0.395713
C58	C	0.910052	-0.120117	0.895713
N59	N	0.519433	-0.563969	0.359977
N60	N	1.019433	-0.063969	0.859977
N61	N	0.485065	-0.624838	0.398718
N62	N	0.985065	-0.124838	0.898718
C63	C	1.001842	-0.869800	0.379306
C64	C	1.501842	-0.369800	0.879306
C65	C	1.001884	-0.987634	0.379325
C66	C	1.501884	-0.487634	0.879325
C67	C	0.945389	-1.032262	0.431406
C68	C	1.445389	-0.532262	0.931406
C69	C	0.945604	-1.154849	0.431651
C70	C	1.445604	-0.654849	0.931651
C71	C	1.075269	-1.161238	0.402258
C72	C	1.575269	-0.661238	0.902258
C73	C	1.074875	-1.038638	0.402614
C74	C	1.574875	-0.538638	0.902614
C75	C	0.985781	-1.027400	0.304253
C76	C	1.485781	-0.527400	0.804253
C77	C	0.984195	-1.149933	0.304609
C78	C	1.484195	-0.649933	0.804609
C79	C	1.185176	-0.605951	0.386697
C80	C	1.685176	-0.105951	0.886697
C81	C	1.263280	-0.610884	0.389840
C82	C	1.763280	-0.110884	0.889840
C83	C	0.994565	-0.604954	0.562603
C84	C	1.494565	-0.104954	1.062603
C85	C	0.991442	-0.609462	0.640706
C86	C	1.491442	-0.109462	1.140706
C87	C	1.001964	-0.317876	0.379355
C88	C	1.501964	0.182124	0.879355
C89	C	1.001994	-0.200048	0.379369
C90	C	1.501994	0.299952	0.879369
C91	C	1.009235	-0.583763	0.196756
C92	C	1.509235	-0.083763	0.696756
C93	C	1.012494	-0.578965	0.118659
C94	C	1.512494	-0.078965	0.618659
C95	C	1.034928	-0.546627	0.679216
C96	C	1.534928	-0.046627	1.179216
C97	C	1.031985	-0.550859	0.752602
C98	C	1.531985	-0.050859	1.252602
C99	C	0.985559	-0.617931	0.787477
C100	C	1.485559	-0.117931	1.287477
C101	C	0.942068	-0.680768	0.748961
C102	C	1.442068	-0.180768	1.248961
C103	C	0.945008	-0.676530	0.675576
C104	C	1.445008	-0.176530	1.175576
C105	C	0.971943	-0.637564	1.006758
C106	C	1.471943	-0.137564	1.506758
C107	C	0.969008	-0.641800	1.080148
C108	C	1.469008	-0.141800	1.580148
C109	C	1.058924	-0.511888	1.083785
C110	C	1.558924	-0.011888	1.583785
C111	C	1.061863	-0.507661	1.010398
C112	C	1.561863	-0.007661	1.510398
C113	C	1.018369	-0.570494	0.971889
C114	C	1.518369	-0.070494	1.471889
N115	N	0.982552	-0.622260	0.862489
N116	N	1.482552	-0.122260	1.362489
N117	N	1.021374	-0.566159	0.896878
N118	N	1.521374	-0.066159	1.396878
H119	H	0.266837	-0.739208	0.471498
H120	H	0.766837	-0.239208	0.971498
O121	O	1.085008	-0.474292	0.641605
O122	O	1.585008	0.025708	1.141605
H123	H	1.054914	-0.416445	0.606903
H124	H	1.554914	0.083555	1.106903
H125	H	0.933384	-0.992172	0.283946
H126	H	1.433384	-0.492172	0.783946
H127	H	0.904265	-0.735376	0.777361
H128	H	1.404265	-0.235376	1.277361
O129	O	0.959022	-0.996621	0.504588
O130	O	1.459022	-0.496621	1.004588
H131	H	0.968443	-1.067042	0.540428
H132	H	1.468443	-0.567042	1.040428
O133	O	1.105813	-0.444088	1.125317
O134	O	1.605813	0.055912	1.625317
H135	H	1.095962	-0.458284	1.182204
H136	H	1.595962	0.041716	1.682204
O137	O	0.918920	-0.714129	1.117765
O138	O	1.418920	-0.214129	1.617765
H139	H	0.949013	-0.771990	1.152458
H140	H	1.449013	-0.271990	1.652458
H141	H	0.936538	-0.688744	0.975413
H142	H	1.436538	-0.188744	1.475413
O143	O	1.078892	-0.483094	0.794141
O144	O	1.578892	0.016906	1.294141
H145	H	1.111676	-0.435755	0.757563
H146	H	1.611676	0.064245	1.257563
H147	H	0.930283	-1.174813	0.287397
H148	H	1.430283	-0.674813	0.787397
H149	H	1.099670	-0.453047	0.982009
H150	H	1.599670	0.046953	1.482009
O151	O	0.898094	-0.744290	0.634040
O152	O	1.398094	-0.244290	1.134040
H153	H	0.909554	-0.829068	0.648590
H154	H	1.409554	-0.329068	1.148590
H155	H	0.890756	-0.998697	0.416882
H156	H	1.390756	-0.498697	0.916882
O157	O	1.132326	-1.200960	0.353861
O158	O	1.632326	-0.700960	0.853861
H159	H	1.121164	-1.170578	0.299471
H160	H	1.621164	-0.670578	0.799471
O161	O	0.740375	-0.724635	0.462213
O162	O	1.240375	-0.224635	0.962213
H163	H	0.701280	-0.771260	0.491898
H164	H	1.201280	-0.271260	0.991898
H165	H	0.598013	-0.697016	0.444640
H166	H	1.098013	-0.197016	0.944640
H167	H	0.399977	-0.747593	0.476827
H168	H	0.899977	-0.247593	0.976827
O169	O	0.416653	-0.473790	0.302564
O170	O	0.916653	0.026210	0.802564
H171	H	0.402092	-0.390428	0.314130
H172	H	0.902092	0.109572	0.814130
H173	H	1.026960	-0.998496	0.265414
H174	H	1.526960	-0.498496	0.765414
H175	H	0.273353	-0.483409	0.308727
H176	H	0.773353	0.016591	0.808727
O177	O	0.959473	-1.198917	0.505267
O178	O	1.459473	-0.698917	1.005267
H179	H	1.011202	-1.173320	0.523284
H180	H	1.511202	-0.673320	1.023284
H181	H	0.604517	-0.441227	0.281867
H182	H	1.104517	0.058773	0.781867
H183	H	0.737659	-0.449600	0.287194
H184	H	1.237659	0.050400	0.787194
H185	H	1.088851	-1.014141	0.457575
H186	H	1.588851	-0.514141	0.957575
O187	O	0.873516	-1.189306	0.412253
O188	O	1.373516	-0.689306	0.912253
H189	H	0.838185	-1.118359	0.402615
H190	H	1.338185	-0.618359	0.902615
H191	H	1.118254	-1.009370	0.366482
H192	H	1.618254	-0.509370	0.866482
H193	H	1.089581	-1.196026	0.456646
H194	H	1.589581	-0.696026	0.956646
H195	H	1.022591	-1.180383	0.263513
H196	H	1.522591	-0.680383	0.763513
