data_functionalizedCrystal
_audit_creation_method	'MofGen! by Chris Wilmer'
_symmetry_space_group_name_H-M	'P1'
_symmetry_Int_Tables_number	1
_symmetry_cell_setting	triclinic
loop_
_symmetry_equiv_pos_as_xyz
  x,y,z
_cell_length_a	14.971486
_cell_length_b	10.654550
_cell_length_c	13.448316
_cell_angle_alpha	89.994587
_cell_angle_beta	89.998199
_cell_angle_gamma	84.049516
loop_
_atom_site_label
_atom_site_type_symbol
_atom_site_fract_x
_atom_site_fract_y
_atom_site_fract_z
O1	O	1.187838	0.163659	-0.082575
O2	O	0.927544	0.183258	-0.082602
O3	O	1.063676	-0.009345	-0.082584
O4	O	1.051707	0.356262	-0.082593
O5	O	1.063659	-0.009357	0.082800
O6	O	0.927527	0.183246	0.082782
O7	O	1.187821	0.163647	0.082809
Cu8	Cu	1.057672	0.173445	0.097896
Cu9	Cu	1.057693	0.173460	-0.097689
O10	O	1.051689	0.356250	0.082791
C11	C	0.894206	0.182375	0.000087
C12	C	0.794895	0.179749	0.000077
C13	C	0.738285	0.292898	0.000075
C14	C	0.644972	0.290422	0.000090
C15	C	0.608271	0.174797	0.000099
C16	C	0.664888	0.061639	0.000104
C17	C	0.758199	0.064116	0.000096
C18	C	0.470397	0.056485	0.000117
C19	C	0.377080	0.054007	0.000123
C20	C	0.357171	0.282791	0.000112
C21	C	0.450482	0.285268	0.000104
C22	C	0.507092	0.172110	0.000106
C23	C	1.062788	-0.056139	0.000107
C24	C	1.060159	-0.195555	0.000103
C25	C	1.140311	-0.275900	0.000114
C26	C	1.137835	-0.406894	0.000107
C27	C	0.975048	-0.377185	0.000081
C28	C	0.977525	-0.246193	0.000082
C29	C	1.234295	-0.293054	0.000133
C30	C	1.231819	-0.424048	0.000126
C31	C	1.221159	0.164530	0.000118
C32	C	1.320470	0.167156	0.000122
C33	C	1.052577	0.403044	0.000098
C34	C	1.055206	0.542460	0.000096
N35	N	1.057664	0.173435	0.235461
N36	N	1.057708	0.173460	-0.235253
C37	C	1.117962	0.088185	0.287509
C38	C	1.117968	0.088184	0.391612
C39	C	1.057679	0.173440	0.443665
C40	C	0.997375	0.258693	0.391610
C41	C	0.997365	0.258687	0.287509
C42	C	0.997400	0.258702	0.608590
C43	C	0.997410	0.258710	0.712698
C44	C	1.118002	0.088199	0.712694
C45	C	1.117993	0.088193	0.608592
C46	C	1.057689	0.173448	0.556544
H47	H	0.347201	-0.040145	0.000132
H48	H	0.598884	0.382560	0.000088
H49	H	0.480361	0.379420	0.000087
H50	H	1.167089	0.018778	0.566211
C51	C	0.931038	0.352466	0.230252
C52	C	0.864752	0.446290	0.287505
C53	C	0.798419	0.540067	0.230251
C54	C	0.798372	0.540020	0.115743
C55	C	0.864660	0.446193	0.058484
C56	C	0.930993	0.352416	0.115738
H57	H	0.864785	0.446328	0.372276
H58	H	0.749348	0.609524	0.272638
H59	H	0.749268	0.609440	0.073360
H60	H	0.864627	0.446155	-0.026287
H61	H	0.980064	0.282959	0.073351
C62	C	1.184333	-0.005587	0.769945
C63	C	1.184341	-0.005589	0.884452
C64	C	1.250672	-0.099366	0.941710
C65	C	1.316996	-0.193140	0.884460
C66	C	1.316991	-0.193142	0.769946
C67	C	1.250659	-0.099365	0.712689
H68	H	1.135242	0.063831	0.926838
H69	H	1.250675	-0.099364	1.026481
H70	H	1.366098	-0.262559	0.926846
H71	H	1.366090	-0.262562	0.727561
H72	H	1.250656	-0.099367	0.627918
C73	C	1.274718	-0.245355	0.096602
C74	C	1.218346	-0.149649	0.163011
C75	C	1.258766	-0.101950	0.259481
C76	C	1.355559	-0.149958	0.289544
C77	C	1.411938	-0.245669	0.223134
C78	C	1.371517	-0.293368	0.126663
H79	H	1.146688	-0.114106	0.140758
H80	H	1.217031	-0.031097	0.308642
H81	H	1.385481	-0.114648	0.360957
H82	H	1.483595	-0.281212	0.245387
H83	H	1.413252	-0.364221	0.077503
H84	H	0.768160	0.387053	0.000067
H85	H	1.167060	0.018766	0.245134
C86	C	0.532672	-0.067988	0.000118
C87	C	0.528063	-0.162710	0.085998
C88	C	0.590339	-0.287178	0.085993
C89	C	0.657224	-0.316923	0.000108
C90	C	0.661836	-0.222197	-0.085777
C91	C	0.599560	-0.097730	-0.085773
H92	H	0.478549	-0.140694	0.149580
H93	H	0.586925	-0.357300	0.149571
H94	H	0.703325	-0.409061	0.000105
H95	H	0.711350	-0.244214	-0.149360
H96	H	0.602974	-0.027608	-0.149351
H97	H	0.634998	-0.032505	0.000125
H98	H	0.311074	0.374929	0.000114
H99	H	0.804290	-0.028022	0.000096
H100	H	0.912257	-0.180779	0.000059
C101	C	1.270196	-0.486127	-0.096333
C102	C	1.305632	-0.404363	-0.178982
C103	C	1.344004	-0.466444	-0.275440
C104	C	1.346940	-0.610289	-0.289250
C105	C	1.311503	-0.692062	-0.206598
C106	C	1.273131	-0.629981	-0.110140
H107	H	1.303460	-0.297873	-0.168761
H108	H	1.370237	-0.405910	-0.336624
H109	H	1.375346	-0.656245	-0.360654
H110	H	1.313675	-0.798552	-0.216819
H111	H	1.246898	-0.690515	-0.048956
H112	H	0.907770	-0.418431	0.000063
H113	H	1.271063	-0.264085	-0.069071
H114	H	1.267223	-0.466193	0.069341
H115	H	1.167067	0.018767	0.433989
H116	H	0.948315	0.328132	0.755075
H117	H	0.948291	0.328122	0.566216
H118	H	0.948282	0.328106	0.433998
