data_functionalizedCrystal
_audit_creation_method	'MofGen! by Chris Wilmer'
_symmetry_space_group_name_H-M	'P1'
_symmetry_Int_Tables_number	1
_symmetry_cell_setting	triclinic
loop_
_symmetry_equiv_pos_as_xyz
  x,y,z
_cell_length_a	14.971486
_cell_length_b	14.853567
_cell_length_c	13.448316
_cell_angle_alpha	89.997194
_cell_angle_beta	89.998199
_cell_angle_gamma	83.624529
loop_
_atom_site_label
_atom_site_type_symbol
_atom_site_fract_x
_atom_site_fract_y
_atom_site_fract_z
O1	O	1.186969	0.117488	-0.082569
O2	O	0.926571	0.131557	-0.082595
O3	O	1.063725	-0.006709	-0.082584
O4	O	1.049814	0.255753	-0.082580
O5	O	1.063708	-0.006717	0.082800
O6	O	0.926554	0.131549	0.082789
O7	O	1.186951	0.117479	0.082815
Cu8	Cu	1.056751	0.124513	0.097903
Cu9	Cu	1.056771	0.124523	-0.097683
O10	O	1.049797	0.255745	0.082804
C11	C	0.893238	0.130924	0.000093
C12	C	0.793940	0.129038	0.000083
C13	C	1.063087	-0.040301	0.000105
C14	C	1.061198	-0.140385	0.000096
C15	C	0.736730	0.210265	0.000086
C16	C	0.643430	0.208488	0.000101
C17	C	0.607342	0.125483	0.000106
C18	C	0.664560	0.044249	0.000106
C19	C	0.757858	0.046027	0.000098
C20	C	0.470097	0.040549	0.000119
C21	C	0.376793	0.038771	0.000125
C22	C	0.355669	0.203010	0.000122
C23	C	0.448967	0.204788	0.000114
C24	C	0.506178	0.123554	0.000113
C25	C	0.971740	-0.552902	0.000106
C26	C	1.134683	-0.574213	0.000122
C27	C	1.136459	-0.480180	0.000116
C28	C	1.055874	-0.422503	0.000107
C29	C	0.973514	-0.458860	0.000103
C30	C	1.218818	-0.443816	0.000130
C31	C	1.220597	-0.349777	0.000126
C32	C	1.140012	-0.292099	0.000109
C33	C	1.057648	-0.328461	0.000104
C34	C	0.977064	-0.270784	0.000095
C35	C	0.894699	-0.307144	0.000083
C36	C	0.892928	-0.401181	0.000087
C37	C	1.141782	-0.198061	0.000105
C38	C	0.978837	-0.176741	0.000092
C39	C	1.220285	0.118113	0.000124
C40	C	1.319582	0.119998	0.000128
C41	C	1.050436	0.289338	0.000113
C42	C	1.052325	0.389421	0.000115
N43	N	1.056743	0.124505	0.235467
N44	N	1.056786	0.124524	-0.235247
C45	C	1.117494	0.063307	0.287512
C46	C	1.117500	0.063306	0.391615
C47	C	1.056758	0.124509	0.443672
C48	C	0.996001	0.185711	0.391619
C49	C	0.995991	0.185707	0.287518
C50	C	0.996025	0.185717	0.608599
C51	C	0.996036	0.185723	0.712708
C52	C	1.117534	0.063316	0.712697
C53	C	1.117525	0.063312	0.608595
C54	C	1.056768	0.124515	0.556550
H55	H	0.766104	0.277858	0.000081
H56	H	1.166967	0.013473	0.433990
C57	C	0.308935	0.342455	-0.084898
C58	C	0.292787	0.292307	0.000127
H59	H	0.270108	0.397578	-0.084899
H60	H	0.369658	0.355387	-0.084899
H61	H	0.297976	0.308413	-0.142559
H62	H	0.303753	0.326347	0.057789
H63	H	0.232050	0.279377	0.000138
H64	H	0.635171	-0.023335	0.000124
H65	H	0.347414	-0.028819	0.000130
C66	C	1.227219	-0.692330	-0.084880
C67	C	1.223258	-0.637609	0.000133
H68	H	1.281907	-0.731466	-0.084875
H69	H	1.177921	-0.727438	-0.084873
H70	H	1.224530	-0.655194	-0.142550
H71	H	1.225940	-0.674745	0.057803
H72	H	1.272570	-0.602498	0.000135
H73	H	0.825871	-0.430795	0.000078
H74	H	0.913214	-0.129786	0.000080
H75	H	1.166989	0.013480	0.566211
C76	C	1.295672	-0.215093	0.000120
C77	C	1.311129	-0.309813	0.000129
H78	H	1.351564	-0.190422	0.000124
H79	H	1.262498	-0.195313	-0.057553
H80	H	1.262484	-0.195308	0.057794
H81	H	1.344312	-0.329598	-0.057549
H82	H	1.344318	-0.329601	0.057807
H83	H	0.596852	0.274632	0.000102
H84	H	0.516677	-0.025600	0.000120
H85	H	1.208842	-0.168461	0.000122
H86	H	0.804439	-0.020116	0.000095
C87	C	1.237582	-0.057692	0.297969
C88	C	1.184263	-0.003973	0.230297
H89	H	1.278798	-0.099233	0.262646
H90	H	1.269803	-0.020109	0.338559
H91	H	1.200305	-0.090177	0.338584
H92	H	1.221539	0.028518	0.189686
H93	H	1.152040	-0.041561	0.189689
C94	C	0.541612	0.302063	-0.084944
C95	C	0.488626	0.296033	0.000088
H96	H	0.566088	0.358398	-0.084965
H97	H	0.589037	0.253950	-0.084934
H98	H	0.505638	0.297944	-0.142601
H99	H	0.524602	0.300146	0.057745
H100	H	0.441195	0.344159	0.000087
C101	C	1.169898	-0.092675	0.744736
C102	C	1.184322	-0.003963	0.769894
H103	H	1.211136	-0.134203	0.780046
H104	H	1.110206	-0.102568	0.761815
H105	H	1.178583	-0.101419	0.675285
H106	H	1.175630	0.004784	0.839345
H107	H	1.244028	0.005934	0.752822
C108	C	0.875908	0.306687	0.702268
C109	C	0.929251	0.252980	0.769931
H110	H	0.834672	0.348201	0.737598
H111	H	0.913161	0.339194	0.661663
H112	H	0.843704	0.269086	0.661666
H113	H	0.961461	0.290581	0.810528
H114	H	0.891994	0.220471	0.810553
C115	C	0.825080	-0.153525	0.000075
C116	C	0.806121	-0.243739	0.000071
H117	H	0.770397	-0.114381	0.000061
H118	H	0.858832	-0.142505	0.057750
H119	H	0.858857	-0.142503	-0.057596
H120	H	0.772350	-0.254763	0.057746
H121	H	0.772355	-0.254763	-0.057611
C122	C	0.896661	-0.687584	0.000101
C123	C	0.881207	-0.592864	0.000098
H124	H	0.840768	-0.712253	0.000102
H125	H	0.929843	-0.707366	-0.057566
H126	H	0.929840	-0.707369	0.057780
H127	H	0.848034	-0.573079	-0.057586
H128	H	0.848011	-0.573073	0.057771
C129	C	1.380059	-0.455442	0.000153
C130	C	1.307393	-0.507212	0.000140
H131	H	1.434742	-0.494586	0.000162
H132	H	1.377370	-0.418319	-0.057514
H133	H	1.377352	-0.418323	0.057832
H134	H	1.310096	-0.544327	-0.057544
H135	H	1.310083	-0.544351	0.057813
H136	H	0.946548	0.235552	0.566228
C137	C	0.874317	0.205073	0.508717
C138	C	0.929233	0.252985	0.448842
H139	H	0.833102	0.246609	0.544047
H140	H	0.842096	0.167499	0.468116
H141	H	0.910512	0.168628	0.554607
H142	H	0.893038	0.289425	0.402947
H143	H	0.961456	0.290575	0.489447
H144	H	0.946521	0.235540	0.245144
