data_functionalizedCrystal
_audit_creation_method	'MofGen! by Chris Wilmer'
_symmetry_space_group_name_H-M	'P1'
_symmetry_Int_Tables_number	1
_symmetry_cell_setting	triclinic
loop_
_symmetry_equiv_pos_as_xyz
  x,y,z
_cell_length_a	10.723022
_cell_length_b	14.853559
_cell_length_c	9.198806
_cell_angle_alpha	89.999007
_cell_angle_beta	89.996352
_cell_angle_gamma	84.049340
loop_
_atom_site_label
_atom_site_type_symbol
_atom_site_fract_x
_atom_site_fract_y
_atom_site_fract_z
O1	O	1.655905	0.126439	-0.120875
O2	O	1.292629	0.138544	-0.120880
O3	O	1.483976	0.001312	-0.120876
O4	O	1.464558	0.263670	-0.120879
O5	O	1.483961	0.001312	0.120909
O6	O	1.292614	0.138543	0.120906
O7	O	1.655889	0.126439	0.120910
Cu8	Cu	1.474250	0.132491	0.142985
Cu9	Cu	1.474268	0.132491	-0.142954
O10	O	1.464542	0.263670	0.120906
C11	C	1.246131	0.137663	0.000012
C12	C	1.107603	0.135028	0.000011
C13	C	0.888672	0.209091	0.000007
C14	C	1.031848	0.211816	0.000009
C15	C	1.483090	-0.032281	0.000014
C16	C	1.480460	-0.132379	0.000006
C17	C	1.469307	-0.555613	-0.131792
C18	C	1.469290	-0.555608	0.131812
C19	C	1.471772	-0.461562	0.131813
C20	C	1.473020	-0.414536	0.000010
C21	C	1.471785	-0.461558	-0.131794
C22	C	1.472994	-0.414532	0.263615
C23	C	1.475475	-0.320480	0.263622
C24	C	1.476732	-0.273454	0.131817
C25	C	1.475499	-0.320481	0.000007
C26	C	1.476746	-0.273456	-0.131796
C27	C	1.475522	-0.320482	-0.263607
C28	C	1.473042	-0.414531	-0.263599
C29	C	1.479212	-0.179405	0.131809
C30	C	1.479225	-0.179400	-0.131799
C31	C	1.702388	0.127319	0.000015
C32	C	1.840915	0.129954	0.000007
C33	C	1.465428	0.297264	0.000013
C34	C	1.468059	0.397362	0.000012
N35	N	1.474247	0.132490	0.344098
N36	N	1.474282	0.132485	-0.344068
C37	C	1.554590	0.074617	0.416297
C38	C	1.554610	0.074613	0.583709
H39	H	0.823562	0.274825	-0.000003
H40	H	1.405471	0.182033	0.406225
H41	H	1.480247	-0.141120	-0.239130
O42	O	1.081103	0.292576	-0.000065
C43	C	1.213090	0.277317	-0.000029
H44	H	1.243414	0.207129	-0.045792
H45	H	1.249335	0.281882	0.115967
C46	C	1.230098	0.435505	-0.038655
C47	C	1.267342	0.349301	-0.094873
H48	H	1.263565	0.479909	-0.097153
H49	H	1.141176	0.445786	-0.038674
H50	H	1.260305	0.439296	0.058007
H51	H	1.237122	0.345508	-0.191526
H52	H	1.356261	0.339021	-0.094872
H53	H	0.906025	0.064220	-0.000001
H54	H	1.066488	0.067269	-0.000027
H55	H	1.468266	-0.593901	0.239120
O56	O	1.392338	0.191727	0.581948
C57	C	1.413071	0.281061	0.619062
H58	H	1.512975	0.281983	0.660977
H59	H	1.343971	0.307266	0.707314
C60	C	1.271404	0.340870	0.432288
C61	C	1.394111	0.342003	0.483757
H62	H	1.259704	0.378463	0.348829
H63	H	1.257431	0.280684	0.407287
H64	H	1.213835	0.362705	0.505845
H65	H	1.451677	0.320158	0.410208
H66	H	1.408093	0.402187	0.508743
H67	H	1.476477	-0.282200	0.370950
H68	H	1.476529	-0.282181	-0.370921
H69	H	1.471972	-0.452827	0.370922
O70	O	1.480214	-0.133800	0.259920
C71	C	1.371586	-0.147215	0.340058
H72	H	1.333801	-0.212324	0.302586
H73	H	1.297366	-0.087602	0.321751
C74	C	1.450637	-0.074473	0.548968
C75	C	1.404235	-0.154446	0.502953
H76	H	1.470773	-0.078930	0.649451
H77	H	1.523820	-0.065432	0.494977
H78	H	1.388779	-0.024804	0.533701
H79	H	1.466098	-0.204112	0.518204
H80	H	1.331063	-0.163496	0.556951
H81	H	1.472044	-0.452828	-0.370913
H82	H	1.468315	-0.593906	-0.239109
O83	O	1.636492	0.015503	0.342001
C84	C	1.569304	-0.040374	0.253957
H85	H	1.471786	-0.004943	0.231357
H86	H	1.560573	-0.107087	0.312476
C87	C	1.759210	-0.102668	0.137017
C88	C	1.639440	-0.059148	0.109249
H89	H	1.802475	-0.114253	0.047757
H90	H	1.804477	-0.065025	0.196337
H91	H	1.751918	-0.158257	0.185786
H92	H	1.646734	-0.003555	0.060498
H93	H	1.594175	-0.096781	0.049917
O94	O	1.636791	0.015463	0.657543
C95	C	1.711450	-0.038363	0.557875
H96	H	1.713145	-0.001465	0.449337
H97	H	1.670557	-0.105509	0.541748
C98	C	1.843871	-0.101615	0.750710
C99	C	1.845961	-0.056294	0.617406
H100	H	1.926842	-0.112680	0.787432
H101	H	1.793569	-0.065355	0.817860
H102	H	1.809788	-0.157565	0.737252
H103	H	1.880029	-0.000341	0.630868
H104	H	1.896272	-0.092546	0.550259
