data_functionalizedCrystal
_audit_creation_method	'MofGen! by Chris Wilmer'
_symmetry_space_group_name_H-M	'P1'
_symmetry_Int_Tables_number	1
_symmetry_cell_setting	triclinic
loop_
_symmetry_equiv_pos_as_xyz
  x,y,z
_cell_length_a	10.686220
_cell_length_b	18.050582
_cell_length_c	10.686203
_cell_angle_alpha	94.388161
_cell_angle_beta	89.645579
_cell_angle_gamma	94.355462
loop_
_atom_site_label
_atom_site_type_symbol
_atom_site_fract_x
_atom_site_fract_y
_atom_site_fract_z
Zn1	Zn	1.956062	-0.315837	0.352152
Zn2	Zn	2.456062	0.184163	0.852152
Zn3	Zn	1.972049	-0.181476	0.561918
Zn4	Zn	2.472049	0.318524	1.061918
Zn5	Zn	1.746309	-0.200394	0.368286
Zn6	Zn	2.246309	0.299606	0.868286
Zn7	Zn	1.762353	-0.314357	0.577976
Zn8	Zn	2.262353	0.185643	1.077976
O9	O	1.859193	-0.253016	0.465083
O10	O	2.359193	0.246984	0.965083
O11	O	2.133724	-0.290716	0.366506
O12	O	2.633724	0.209284	0.866506
O13	O	1.942080	-0.080060	0.536265
O14	O	2.442080	0.419940	1.036265
O15	O	1.760728	-0.224244	0.190601
O16	O	2.260728	0.275756	0.690601
O17	O	2.145470	-0.192002	0.520620
O18	O	2.645470	0.307998	1.020620
O19	O	1.914833	-0.309060	0.178748
O20	O	2.414833	0.190940	0.678748
O21	O	1.776230	-0.093959	0.394003
O22	O	2.276230	0.406041	0.894003
O23	O	1.572896	-0.222809	0.409574
O24	O	2.072896	0.277191	0.909574
O25	O	1.788073	-0.418479	0.547988
O26	O	2.288073	0.081521	1.047988
O27	O	1.584684	-0.306537	0.563632
O28	O	2.084684	0.193463	1.063632
O29	O	1.930391	-0.419566	0.382076
O30	O	2.430391	0.080434	0.882076
O31	O	1.957638	-0.190566	0.739593
O32	O	2.457638	0.309434	1.239593
O33	O	1.803575	-0.288194	0.751390
O34	O	2.303575	0.211806	1.251390
C35	C	1.533274	-0.266566	0.490097
C36	C	2.033274	0.233434	0.990097
C37	C	1.393847	-0.272379	0.500828
C38	C	1.893847	0.227621	1.000828
C39	C	1.859238	-0.446722	0.465024
C40	C	2.359238	0.053278	0.965024
C41	C	1.859257	-0.529269	0.464998
C42	C	2.359257	-0.029269	0.964998
C43	C	1.781921	-0.728131	0.555102
C44	C	2.281921	-0.228131	1.055102
C45	C	1.898726	-0.771269	0.576972
C46	C	2.398726	-0.271269	1.076972
C47	C	1.859312	-0.680401	0.464898
C48	C	2.359312	-0.180401	0.964898
C49	C	1.742567	-0.784343	0.442988
C50	C	2.242567	-0.284343	0.942988
C51	C	1.859355	-0.826389	0.464804
C52	C	2.359355	-0.326389	0.964804
C53	C	1.976182	-0.722447	0.486824
C54	C	2.476182	-0.222447	0.986824
C55	C	1.819942	-0.735522	0.352792
C56	C	2.319942	-0.235522	0.852792
C57	C	1.936823	-0.778637	0.374613
C58	C	2.436823	-0.278637	0.874613
C59	C	1.859286	-0.596301	0.464955
C60	C	2.359286	-0.096301	0.964955
C61	C	1.859394	-0.910486	0.464745
C62	C	2.359394	-0.410486	0.964745
C63	C	2.186386	-0.239414	0.439972
C64	C	2.686386	0.260586	0.939972
C65	C	2.325815	-0.233617	0.429272
C66	C	2.825815	0.266383	0.929272
C67	C	1.884116	-0.237181	0.791005
C68	C	2.384116	0.262819	1.291005
C69	C	1.894893	-0.230427	0.930427
C70	C	2.394893	0.269573	1.430427
C71	C	1.859214	-0.060065	0.465046
C72	C	2.359214	0.439935	0.965046
C73	C	1.859411	0.022474	0.464699
C74	C	2.359411	0.522474	0.964699
C75	C	1.834169	-0.268921	1.137889
C76	C	2.334169	0.231079	1.637889
C77	C	1.823406	-0.275683	0.998465
C78	C	2.323406	0.224317	1.498465
H79	H	1.345420	-0.310008	0.570312
H80	H	1.845420	0.189992	1.070312
H81	H	1.716547	-0.705966	0.631472
H82	H	2.216547	-0.205966	1.131472
H83	H	1.964332	-0.186509	0.978840
H84	H	2.464332	0.313491	1.478840
H85	H	1.932052	-0.787196	0.671737
H86	H	2.432052	-0.287196	1.171737
C87	C	1.729591	-0.335016	0.933068
C88	C	2.229591	0.164984	1.433068
H89	H	1.734421	-0.331934	0.844795
H90	H	2.234421	0.168066	1.344795
H91	H	1.646960	-0.326584	0.961030
H92	H	2.146960	0.173416	1.461030
H93	H	1.749538	-0.383141	0.953017
H94	H	2.249538	0.116859	1.453017
C95	C	1.774881	-0.713977	0.224818
C96	C	2.274881	-0.213977	0.724818
H97	H	1.691858	-0.735295	0.209411
H98	H	2.191858	-0.235295	0.709411
H99	H	1.829025	-0.732067	0.160561
H100	H	2.329025	-0.232067	0.660561
H101	H	1.775930	-0.661273	0.225544
H102	H	2.275930	-0.161273	0.725544
H103	H	2.074966	-0.695552	0.505425
H104	H	2.574966	-0.195552	1.005425
H105	H	1.374237	-0.195985	0.359800
H106	H	1.874237	0.304015	0.859800
H107	H	1.643819	-0.811323	0.424494
H108	H	2.143819	-0.311323	0.924494
H109	H	2.002370	-0.800657	0.298284
H110	H	2.502370	-0.300657	0.798284
