data_functionalizedCrystal
_audit_creation_method	'MofGen! by Chris Wilmer'
_symmetry_space_group_name_H-M	'P1'
_symmetry_Int_Tables_number	1
_symmetry_cell_setting	triclinic
loop_
_symmetry_equiv_pos_as_xyz
  x,y,z
_cell_length_a	12.759401
_cell_length_b	12.759400
_cell_length_c	12.759393
_cell_angle_alpha	90.031564
_cell_angle_beta	90.019125
_cell_angle_gamma	90.014328
loop_
_atom_site_label
_atom_site_type_symbol
_atom_site_fract_x
_atom_site_fract_y
_atom_site_fract_z
Zn1	Zn	1.606256	-0.418214	0.593999
Zn2	Zn	1.606150	-0.593933	0.418319
Zn3	Zn	1.430557	-0.418268	0.418336
Zn4	Zn	1.430546	-0.593851	0.593959
O5	O	1.518377	-0.506066	0.506153
O6	O	1.753263	-0.441536	0.570704
O7	O	1.582818	-0.570688	0.271300
O8	O	1.453913	-0.271240	0.441663
O9	O	1.753185	-0.570636	0.441633
O10	O	1.582998	-0.271200	0.570721
O11	O	1.453811	-0.441627	0.271313
O12	O	1.283535	-0.441547	0.441623
O13	O	1.453894	-0.570495	0.740985
O14	O	1.283527	-0.570547	0.570652
O15	O	1.582987	-0.441456	0.741015
O16	O	1.582807	-0.740943	0.441594
O17	O	1.453791	-0.740883	0.570636
C18	C	1.245410	-0.506045	0.506136
C19	C	1.128633	-0.506061	0.506154
C20	C	0.964020	-0.438825	0.439097
C21	C	1.073744	-0.438803	0.439087
C22	C	1.073793	-0.573338	0.573243
C23	C	0.964071	-0.573354	0.573258
C24	C	0.909136	-0.371570	0.372018
C25	C	0.963969	-0.304291	0.304930
C26	C	1.073693	-0.304269	0.304919
C27	C	1.128584	-0.371526	0.371997
C28	C	1.518315	-0.779034	0.506131
C29	C	1.518384	-0.895810	0.506157
C30	C	1.585637	-0.950669	0.439039
C31	C	1.585702	-1.060393	0.439072
C32	C	1.451252	-1.060390	0.573343
C33	C	1.451193	-0.950668	0.573315
C34	C	1.652828	-0.895811	0.371882
C35	C	1.720086	-0.950670	0.304758
C36	C	1.720150	-1.060394	0.304790
C37	C	1.652957	-1.115260	0.371947
C38	C	1.792410	-0.506089	0.506171
C39	C	1.909187	-0.506099	0.506179
C40	C	1.518451	-0.505960	0.780187
C41	C	1.518482	-0.505915	0.896963
C42	C	1.518468	-0.232033	0.506198
C43	C	1.518507	-0.115257	0.506217
C44	C	1.518364	-0.506096	0.233186
C45	C	1.518537	-0.505845	0.116410
C46	C	1.585710	-0.438718	0.951843
C47	C	1.585735	-0.438680	1.061567
C48	C	1.451301	-0.573046	1.061523
C49	C	1.451272	-0.573077	0.951801
C50	C	1.652920	-0.371556	0.897005
C51	C	1.720155	-0.304354	0.951885
C52	C	1.720180	-0.304316	1.061609
C53	C	1.652970	-0.371480	1.116454
H54	H	0.819793	-0.371582	0.372017
N55	N	1.792682	-1.119571	0.232396
H56	H	1.841376	-1.165020	0.275142
H57	H	1.835165	-1.068103	0.189863
N58	N	1.378776	-1.119570	0.645756
H59	H	1.303709	-1.100545	0.629367
H60	H	1.395128	-1.100386	0.720806
H61	H	1.774917	-0.249590	1.106289
H62	H	1.653024	-1.204604	0.371976
H63	H	1.118494	-0.628095	0.627854
H64	H	1.396431	-0.906002	0.627969
H65	H	0.919269	-0.249527	0.250324
H66	H	1.652910	-0.371582	0.807663
H67	H	0.919425	-0.628131	0.627885
N68	N	1.246930	-0.371496	0.371978
H69	H	1.273346	-0.443540	0.352538
H70	H	1.273313	-0.352217	0.444094
N71	N	1.652984	-0.371431	1.234799
H72	H	1.705768	-0.318666	1.261246
H73	H	1.672244	-0.443531	1.261135
N74	N	1.792644	-0.231922	0.892735
H75	H	1.835234	-0.189345	0.944153
H76	H	1.749887	-0.183311	0.847215
N77	N	1.378804	-0.645471	1.120671
H78	H	1.389022	-0.635251	1.198507
H79	H	1.395112	-0.720517	1.101481
H80	H	1.396513	-0.627779	0.907117
H81	H	1.652780	-0.806469	0.371845
N82	N	1.132837	-0.231692	0.232583
H83	H	1.081416	-0.189088	0.190098
H84	H	1.178343	-0.274385	0.183883
H85	H	1.774798	-0.905993	0.250087
