data_functionalizedCrystal
_audit_creation_method	'MofGen! by Chris Wilmer'
_symmetry_space_group_name_H-M	'P1'
_symmetry_Int_Tables_number	1
_symmetry_cell_setting	triclinic
loop_
_symmetry_equiv_pos_as_xyz
  x,y,z
_cell_length_a	19.188905
_cell_length_b	14.971486
_cell_length_c	14.048226
_cell_angle_alpha	89.993360
_cell_angle_beta	90.013588
_cell_angle_gamma	96.625658
loop_
_atom_site_label
_atom_site_type_symbol
_atom_site_fract_x
_atom_site_fract_y
_atom_site_fract_z
O1	O	0.926517	-0.111564	0.079318
O2	O	1.426517	0.388436	0.579318
O3	O	0.723252	-0.126620	0.079286
O4	O	1.223252	0.373380	0.579286
O5	O	0.830332	0.011138	0.079296
O6	O	1.330332	0.511138	0.579296
O7	O	0.819436	-0.249321	0.079308
O8	O	1.319436	0.250679	0.579308
O9	O	0.830319	0.011146	-0.079025
O10	O	1.330319	0.511146	0.420975
O11	O	0.723239	-0.126612	-0.079036
O12	O	1.223239	0.373388	0.420964
O13	O	0.926504	-0.111556	-0.079003
O14	O	1.426504	0.388444	0.420997
Zn15	Zn	0.824869	-0.119082	-0.104157
Zn16	Zn	1.324869	0.380918	0.395843
Zn17	Zn	0.824886	-0.119093	0.104439
Zn18	Zn	1.324886	0.380907	0.604439
O19	O	0.819423	-0.249313	-0.079014
O20	O	1.319423	0.250687	0.420986
C21	C	0.697232	-0.126132	0.000121
C22	C	1.197232	0.373868	0.500121
C23	C	0.619722	-0.124679	0.000108
C24	C	1.119722	0.375321	0.500108
C25	C	0.583335	-0.123986	0.086412
C26	C	1.083335	0.376014	0.586412
C27	C	0.510507	-0.122612	0.086423
C28	C	1.010507	0.377388	0.586423
C29	C	0.474071	-0.121912	0.000127
C30	C	0.974071	0.378088	0.500127
C31	C	0.510466	-0.122611	-0.086188
C32	C	1.010466	0.377389	0.413812
C33	C	0.583292	-0.123994	-0.086197
C34	C	1.083292	0.376006	0.413803
N35	N	0.364874	-0.068836	-0.064098
N36	N	0.864874	0.431164	0.435902
N37	N	0.295693	-0.067519	-0.064083
N38	N	0.795693	0.432481	0.435917
C39	C	0.254651	-0.117745	0.000150
C40	C	0.754651	0.382255	0.500150
N41	N	0.285404	-0.169326	0.064381
N42	N	0.785404	0.330674	0.564381
N43	N	0.354592	-0.170639	0.064369
N44	N	0.854592	0.329361	0.564369
C45	C	0.395103	-0.120412	0.000127
C46	C	0.895103	0.379588	0.500127
C47	C	0.139295	-0.115563	0.086472
C48	C	0.639295	0.384437	0.586472
C49	C	0.066465	-0.114194	0.086480
C50	C	0.566465	0.385806	0.586480
C51	C	0.066426	-0.114184	-0.086134
C52	C	0.566426	0.385816	0.413866
C53	C	0.139254	-0.115562	-0.086140
C54	C	0.639254	0.384438	0.413860
C55	C	0.175684	-0.116247	0.000166
C56	C	0.675684	0.383753	0.500166
C57	C	0.829839	0.044464	0.000135
C58	C	1.329839	0.544464	0.500135
C59	C	0.828378	0.143753	0.000136
C60	C	1.328378	0.643753	0.500136
C61	C	0.952523	-0.112044	0.000164
C62	C	1.452523	0.387956	0.500164
C63	C	1.030033	-0.113496	0.000182
C64	C	1.530033	0.386504	0.500182
C65	C	0.819917	-0.282639	0.000149
C66	C	1.319917	0.217361	0.500149
C67	C	0.821377	-0.381928	0.000155
C68	C	1.321377	0.118072	0.500155
N69	N	0.824863	-0.119075	-0.246517
N70	N	1.324863	0.380925	0.253483
C71	C	0.891285	0.201318	0.000145
C72	C	1.391285	0.701318	0.500145
C73	C	0.889909	0.294610	0.000155
C74	C	1.389909	0.794610	0.500155
C75	C	0.825625	0.330335	0.000148
C76	C	1.325625	0.830335	0.500148
C77	C	0.762713	0.272763	0.000141
C78	C	1.262713	0.772763	0.500141
C79	C	0.764090	0.179473	0.000139
C80	C	1.264090	0.679473	0.500139
C81	C	0.759848	0.467210	0.000144
C82	C	1.259848	0.967210	0.500144
C83	C	0.758470	0.560507	0.000145
C84	C	1.258470	1.060507	0.500145
C85	C	0.885666	0.582347	0.000160
C86	C	1.385666	1.082347	0.500160
C87	C	0.887043	0.489057	0.000158
C88	C	1.387043	0.989057	0.500158
C89	C	0.824131	0.431491	0.000149
C90	C	1.324131	0.931491	0.500149
C91	C	0.872293	-0.058101	-0.296331
C92	C	1.372293	0.441899	0.203669
C93	C	0.872298	-0.058100	-0.395988
C94	C	1.372298	0.441900	0.104012
C95	C	0.824875	-0.119079	-0.445831
C96	C	1.324875	0.380921	0.054169
C97	C	0.777440	-0.180055	-0.396010
C98	C	1.277440	0.319945	0.103990
C99	C	0.777432	-0.180051	-0.296354
C100	C	1.277432	0.319949	0.203646
C101	C	0.777460	-0.180062	-0.603724
C102	C	1.277460	0.319938	-0.103724
C103	C	0.777468	-0.180068	-0.703387
C104	C	1.277468	0.319932	-0.203387
C105	C	0.872325	-0.058111	-0.703358
C106	C	1.372325	0.441889	-0.203358
C107	C	0.872318	-0.058107	-0.603703
C108	C	1.372318	0.441893	-0.103703
C109	C	0.824883	-0.119085	-0.553889
C110	C	1.324883	0.380915	-0.053889
N111	N	0.824898	-0.119094	0.246799
N112	N	1.324898	0.380906	0.746799
H113	H	0.480875	-0.122048	0.156704
H114	H	0.980875	0.377952	0.656704
C115	C	-0.045222	-0.112041	-0.162764
C116	C	0.454778	0.387959	0.337236
C117	C	0.026385	-0.113405	-0.180995
C118	C	0.526385	0.386595	0.319005
H119	H	-0.069942	-0.111554	-0.221330
H120	H	0.430058	0.388446	0.278670
H121	H	-0.062435	-0.163964	-0.127313
H122	H	0.437565	0.336036	0.372687
H123	H	-0.051851	-0.059668	-0.127296
H124	H	0.448149	0.440332	0.372704
H125	H	0.033014	-0.165782	-0.216457
H126	H	0.533014	0.334218	0.283543
H127	H	0.043603	-0.061476	-0.216460
H128	H	0.543603	0.438524	0.283540
H129	H	0.910918	-0.008450	-0.436546
H130	H	1.410918	0.491550	0.063454
H131	H	0.168881	-0.116121	-0.156417
H132	H	0.668881	0.383879	0.343583
H133	H	0.738824	-0.229702	-0.436598
H134	H	1.238824	0.270298	0.063402
C135	C	0.398812	-0.120468	-0.162815
C136	C	0.898812	0.379532	0.337185
C137	C	0.470418	-0.121836	-0.181047
C138	C	0.970418	0.378164	0.318953
H139	H	0.374091	-0.119986	-0.221381
H140	H	0.874091	0.380014	0.278619
H141	H	0.381599	-0.172387	-0.127359
H142	H	0.881599	0.327613	0.372641
H143	H	0.392185	-0.068091	-0.127353
H144	H	0.892185	0.431909	0.372647
H145	H	0.477046	-0.174216	-0.216504
H146	H	0.977046	0.325784	0.283496
H147	H	0.487637	-0.069911	-0.216519
H148	H	0.987637	0.430089	0.283481
C149	C	-0.023195	-0.189518	0.186643
C150	C	0.476805	0.310482	0.686643
C151	C	0.026467	-0.113436	0.181354
C152	C	0.526467	0.386564	0.681354
H153	H	-0.047885	-0.189051	0.245219
H154	H	0.452115	0.310949	0.745219
H155	H	-0.055315	-0.188906	0.135257
H156	H	0.444685	0.311094	0.635257
H157	H	-0.000063	-0.242197	0.183056
H158	H	0.499937	0.257803	0.683056
H159	H	0.003334	-0.060756	0.184934
H160	H	0.503334	0.439244	0.684934
H161	H	0.058591	-0.114040	0.232754
H162	H	0.558591	0.385960	0.732754
H163	H	0.910913	-0.008449	-0.255756
H164	H	1.410913	0.491551	0.244244
H165	H	0.612992	-0.124544	0.156688
H166	H	1.112992	0.375456	0.656688
H167	H	0.943633	0.172238	0.000145
H168	H	1.443633	0.672238	0.500145
H169	H	0.910936	-0.008458	-0.563121
H170	H	1.410936	0.491542	-0.063121
C171	C	0.962166	0.412169	0.081564
C172	C	1.462166	0.912169	0.581564
C173	C	0.959061	0.357881	0.000168
C174	C	1.459061	0.857881	0.500168
H175	H	1.004863	0.451224	0.081575
H176	H	1.504863	0.951224	0.581575
H177	H	0.923692	0.446798	0.081555
H178	H	1.423692	0.946798	0.581555
H179	H	0.960061	0.375300	0.136762
H180	H	1.460061	0.875300	0.636762
H181	H	0.961161	0.394749	-0.055031
H182	H	1.461161	0.894749	0.444969
H183	H	0.997545	0.323248	0.000168
H184	H	1.497545	0.823248	0.500168
H185	H	0.939389	0.459973	0.000156
H186	H	1.439389	0.959973	0.500156
C187	C	0.657372	-0.202415	-0.186343
C188	C	1.157372	0.297585	0.313657
C189	C	0.623293	-0.124749	-0.181069
C190	C	1.123293	0.375251	0.318931
H191	H	0.682065	-0.202879	-0.244917
H192	H	1.182065	0.297121	0.255083
H193	H	0.689490	-0.203018	-0.134954
H194	H	1.189490	0.296982	0.365046
H195	H	0.623670	-0.254020	-0.182751
H196	H	1.123670	0.245980	0.317249
H197	H	0.656996	-0.073144	-0.184654
H198	H	1.156996	0.426856	0.315346
H199	H	0.591173	-0.124138	-0.232472
H200	H	1.091173	0.375862	0.267528
C201	C	0.887399	0.063686	-0.815425
C202	C	1.387399	0.563686	-0.315425
C203	C	0.924466	0.008925	-0.758104
C204	C	1.424466	0.508925	-0.258104
H205	H	0.919590	0.105071	-0.849218
H206	H	1.419590	0.605071	-0.349218
H207	H	0.859164	0.027375	-0.859370
H208	H	1.359164	0.527375	-0.359370
H209	H	0.858312	0.095764	-0.776555
H210	H	1.358312	0.595764	-0.276555
H211	H	0.953549	-0.023158	-0.796975
H212	H	1.453549	0.476842	-0.296975
H213	H	0.952713	0.045241	-0.714154
H214	H	1.452713	0.545241	-0.214154
H215	H	0.168957	-0.116130	0.156747
H216	H	0.668957	0.383870	0.656747
H217	H	0.738851	-0.229722	-0.743964
H218	H	1.238851	0.270278	-0.243964
H219	H	0.936892	0.629222	0.000170
H220	H	1.436892	1.129222	0.500170
C221	C	0.683703	-0.300624	-0.613758
C222	C	1.183703	0.199376	-0.113758
C223	C	0.725323	-0.247094	-0.548967
C224	C	1.225323	0.252906	-0.048967
H225	H	0.651523	-0.342012	-0.579951
H226	H	1.151523	0.157988	-0.079951
H227	H	0.658561	-0.263478	-0.652641
H228	H	1.158561	0.236522	-0.152641
H229	H	0.712803	-0.332699	-0.652612
H230	H	1.212803	0.167301	-0.152612
H231	H	0.696224	-0.215015	-0.510118
H232	H	1.196224	0.284985	-0.010118
H233	H	0.750467	-0.284246	-0.510068
H234	H	1.250467	0.215754	-0.010068
C235	C	0.649654	0.570624	0.081547
C236	C	1.149654	1.070624	0.581547
C237	C	0.687812	0.599786	0.000155
C238	C	1.187812	1.099786	0.500155
H239	H	0.606035	0.594880	0.081556
H240	H	1.106035	1.094880	0.581556
H241	H	0.641464	0.506833	0.081538
H242	H	1.141464	1.006833	0.581538
H243	H	0.675582	0.590395	0.136747
H244	H	1.175582	1.090395	0.636747
H245	H	0.661886	0.580008	-0.055046
H246	H	1.161886	1.080008	0.444954
H247	H	0.696000	0.663589	0.000155
H248	H	1.196000	1.163589	0.500155
C249	C	0.687606	0.349615	0.081520
C250	C	1.187606	0.849615	0.581520
C251	C	0.690694	0.403931	0.000135
C252	C	1.190694	0.903931	0.500135
H253	H	0.644913	0.310554	0.081512
H254	H	1.144913	0.810554	0.581512
H255	H	0.726084	0.314993	0.081519
H256	H	1.226084	0.814993	0.581519
H257	H	0.689716	0.386465	0.136726
H258	H	1.189716	0.886465	0.636726
H259	H	0.688590	0.367081	-0.055071
H260	H	1.188590	0.867081	0.444929
H261	H	0.652206	0.438556	0.000128
H262	H	1.152206	0.938556	0.500128
C263	C	0.638225	0.167249	0.000117
C264	C	1.138225	0.667249	0.500117
C265	C	0.694941	0.116194	0.000126
C266	C	1.194941	0.616194	0.500126
H267	H	0.595535	0.128182	0.000107
H268	H	1.095535	0.628182	0.500107
H269	H	0.640339	0.204083	0.055324
H270	H	1.140339	0.704083	0.555324
H271	H	0.640332	0.204097	-0.055097
H272	H	1.140332	0.704097	0.444903
H273	H	0.692836	0.079350	0.055344
H274	H	1.192836	0.579350	0.555344
H275	H	0.692825	0.079344	-0.055086
H276	H	1.192825	0.579344	0.444914
H277	H	0.710372	0.301858	0.000142
H278	H	1.210372	0.801858	0.500142
H279	H	0.738809	-0.229701	-0.255797
H280	H	1.238809	0.270299	0.244203
