data_functionalizedCrystal
_audit_creation_method	'MofGen! by Chris Wilmer'
_symmetry_space_group_name_H-M	'P1'
_symmetry_Int_Tables_number	1
_symmetry_cell_setting	triclinic
loop_
_symmetry_equiv_pos_as_xyz
  x,y,z
_cell_length_a	10.540539
_cell_length_b	19.188930
_cell_length_c	9.616153
_cell_angle_alpha	89.992615
_cell_angle_beta	89.995174
_cell_angle_gamma	83.835137
loop_
_atom_site_label
_atom_site_type_symbol
_atom_site_fract_x
_atom_site_fract_y
_atom_site_fract_z
O1	O	1.683724	0.098389	-0.115598
O2	O	1.314107	0.107659	-0.115617
O3	O	1.509582	0.001439	-0.115579
O4	O	1.488249	0.204608	-0.115635
O5	O	1.509555	0.001441	0.115712
O6	O	1.314080	0.107661	0.115675
O7	O	1.683697	0.098391	0.115694
Zn8	Zn	1.498885	0.103026	0.152407
Zn9	Zn	1.498920	0.103023	-0.152330
O10	O	1.488222	0.204610	0.115657
C11	C	1.266806	0.106965	0.000027
C12	C	1.125904	0.104885	0.000021
C13	C	1.508878	-0.024575	0.000070
C14	C	1.506804	-0.102094	0.000082
C15	C	0.944233	0.025184	0.000583
C16	C	1.090805	0.027292	0.000047
C17	C	1.063423	0.142224	-0.132063
C18	C	0.916937	0.139576	-0.132158
C19	C	0.916384	0.141157	0.130863
C20	C	1.063350	0.141872	0.132594
C21	C	1.621502	-0.146253	0.000095
C22	C	1.619554	-0.219090	0.000072
C23	C	1.502901	-0.247764	0.000065
C24	C	1.388187	-0.203595	0.000045
C25	C	1.390139	-0.130760	0.000053
N26	N	1.413724	-0.356363	0.078774
N27	N	1.411878	-0.425554	0.078769
C28	C	1.497014	-0.467212	0.000037
N29	N	1.584085	-0.437067	-0.078672
N30	N	1.585935	-0.367870	-0.078661
C31	C	1.500772	-0.326741	0.000055
C32	C	1.609608	-0.590350	0.000023
C33	C	1.607655	-0.663188	-0.000008
C34	C	1.376285	-0.647691	-0.000021
C35	C	1.378241	-0.574855	-0.000004
C36	C	1.494906	-0.546189	0.000025
C37	C	1.730998	0.099085	0.000047
C38	C	1.871901	0.101165	0.000044
C39	C	1.488927	0.230625	0.000004
C40	C	1.491000	0.308143	-0.000017
N41	N	1.498870	0.103028	0.360381
N42	N	1.498945	0.103016	-0.360304
C43	C	1.393992	0.159658	0.580731
C44	C	1.394216	0.159870	0.419564
C45	C	1.631228	0.119601	0.418832
C46	C	1.630655	0.120002	0.580050
C47	C	1.472715	0.029640	0.580311
C48	C	1.469658	0.030115	0.419084
H49	H	1.134055	-0.002088	0.094731
H50	H	1.712958	-0.255051	0.000077
N51	N	1.747337	-0.115344	0.000096
H52	H	1.753314	-0.085466	-0.085644
H53	H	1.753232	-0.085511	0.085892
H54	H	1.704603	-0.567009	0.000040
H55	H	1.284841	-0.538899	-0.000006
H56	H	1.410467	0.213788	0.621216
H57	H	0.885379	0.116047	0.230981
H58	H	1.701060	-0.699142	-0.000005
N59	N	0.852200	0.215395	0.132034
H60	H	0.794584	0.223115	0.048284
H61	H	0.799939	0.223476	0.219715
H62	H	0.916312	-0.005469	0.095309
H63	H	1.281303	-0.671037	-0.000034
H64	H	1.295284	0.149839	0.619541
H65	H	1.653830	0.173535	0.617625
H66	H	1.293208	-0.226946	0.000036
H67	H	1.295819	0.149898	0.380047
N68	N	1.347666	0.008752	0.634225
H69	H	1.306750	0.046648	0.697701
H70	H	1.288902	0.002277	0.553387
H71	H	1.133213	-0.002297	-0.094785
N72	N	1.266430	-0.083120	0.000050
H73	H	1.215523	-0.092396	-0.085695
H74	H	1.215606	-0.092438	0.085841
N75	N	0.880370	0.103014	-0.262909
H76	H	0.906150	0.129771	-0.346931
H77	H	0.925439	0.053845	-0.264997
H78	H	1.410915	0.214309	0.380970
N79	N	1.564370	-0.028403	0.365748
H80	H	1.610966	-0.052913	0.446788
H81	H	1.517678	-0.063063	0.312214
N82	N	1.737139	0.067458	0.631729
H83	H	1.784251	0.044144	0.549778
H84	H	1.798169	0.092281	0.689942
N85	N	1.574095	-0.026208	0.630812
H86	H	1.636720	-0.004126	0.691859
H87	H	1.532753	-0.062466	0.685945
N88	N	1.737125	0.066448	0.368067
H89	H	1.700231	0.031030	0.306540
H90	H	1.800884	0.091092	0.313376
N91	N	1.662678	0.189708	0.365318
H92	H	1.591383	0.210829	0.303227
H93	H	1.672895	0.222070	0.446424
N94	N	1.091381	0.217700	-0.138620
H95	H	1.055883	0.243384	-0.053071
H96	H	1.186698	0.219550	-0.142891
H97	H	1.372296	0.017553	0.380883
N98	N	1.093776	0.216808	0.143147
H99	H	1.148782	0.227892	0.061773
H100	H	1.011827	0.249334	0.142013
H101	H	0.914709	-0.005341	-0.093599
H102	H	0.867739	0.195380	-0.138168
H103	H	1.106595	0.116284	-0.230348
H104	H	1.104902	0.114594	0.230309
