data_functionalizedCrystal
_audit_creation_method	'MofGen! by Chris Wilmer'
_symmetry_space_group_name_H-M	'P1'
_symmetry_Int_Tables_number	1
_symmetry_cell_setting	triclinic
loop_
_symmetry_equiv_pos_as_xyz
  x,y,z
_cell_length_a	13.635800
_cell_length_b	10.943867
_cell_length_c	19.551833
_cell_angle_alpha	85.538949
_cell_angle_beta	101.663477
_cell_angle_gamma	71.156739
loop_
_atom_site_label
_atom_site_type_symbol
_atom_site_fract_x
_atom_site_fract_y
_atom_site_fract_z
V1	V	2.016954	-0.179987	0.217850
O2	O	1.996566	0.007256	0.213711
O3	O	2.006226	-0.355544	0.216352
O4	O	1.988135	-0.177829	0.312866
O5	O	2.014782	-0.171689	0.116530
V6	V	2.257620	-0.157518	0.205732
O7	O	2.149984	-0.229273	0.244431
O8	O	2.349689	-0.108231	0.179151
O9	O	2.156745	0.018039	0.207230
O10	O	2.336706	-0.344761	0.209871
O11	O	2.318491	-0.165816	0.307052
O12	O	2.174836	-0.159675	0.110717
V13	V	2.516954	-0.179987	0.217850
O14	O	2.496566	0.007256	0.213711
O15	O	2.506226	-0.355544	0.216352
O16	O	2.488135	-0.177829	0.312866
O17	O	2.514782	-0.171689	0.116530
V18	V	2.757620	-0.157518	0.205732
O19	O	2.649984	-0.229273	0.244431
O20	O	2.849689	-0.108231	0.179151
O21	O	2.656745	0.018039	0.207230
O22	O	2.836706	-0.344761	0.209871
O23	O	2.818491	-0.165816	0.307052
O24	O	2.674836	-0.159675	0.110717
C25	C	1.932153	-0.398322	0.212914
C26	C	1.963994	-0.541846	0.212323
C27	C	2.078099	-0.632750	0.215613
C28	C	2.066215	-0.732212	0.271315
C29	C	2.032606	-0.698121	0.155581
C30	C	1.951704	-0.639432	0.268080
C31	C	1.918092	-0.605319	0.152295
C32	C	1.906135	-0.704742	0.208008
C33	C	1.909076	-0.171628	0.336025
C34	C	1.926245	-0.171025	0.413701
C35	C	2.062490	0.060810	0.210667
C36	C	2.020268	0.204333	0.211262
C37	C	2.085566	-0.165881	0.087554
C38	C	2.058016	-0.166477	0.009877
C39	C	2.432153	-0.398322	0.212914
C40	C	2.463994	-0.541846	0.212323
C41	C	2.409076	-0.171628	0.336025
C42	C	2.426245	-0.171025	0.413701
C43	C	2.025695	-0.177223	0.453748
C44	C	2.041827	-0.176657	0.526732
C45	C	1.958510	-0.169920	0.559669
C46	C	1.859044	-0.163714	0.519612
C47	C	1.842911	-0.164266	0.446628
C48	C	1.932495	-0.240120	0.678978
C49	C	1.948633	-0.239576	0.751961
C50	C	2.008262	-0.168208	0.784776
C51	C	2.051772	-0.097403	0.744600
C52	C	2.035639	-0.097956	0.671615
C53	C	1.975992	-0.169319	0.638807
C54	C	2.125210	-0.173791	0.903961
C55	C	2.141336	-0.173217	0.976946
C56	C	1.958553	-0.160286	0.969825
C57	C	1.942426	-0.160847	0.896841
C58	C	2.025760	-0.167606	0.863914
C59	C	2.562490	0.060810	0.210667
C60	C	2.520268	0.204333	0.211262
C61	C	2.585566	-0.165881	0.087554
C62	C	2.558016	-0.166477	0.009877
C63	C	2.525699	-0.177202	0.453739
C64	C	2.541841	-0.176619	0.526723
C65	C	2.458529	-0.169869	0.559667
C66	C	2.359066	-0.163688	0.519623
C67	C	2.342923	-0.164262	0.446640
C68	C	2.459096	-0.173213	-0.023049
C69	C	2.433191	-0.173757	-0.096035
C70	C	2.506211	-0.167575	-0.136092
C71	C	2.605139	-0.160835	-0.103161
C72	C	2.631039	-0.160282	-0.030178
C73	C	2.387169	-0.618975	0.208347
C74	C	2.437160	-0.691273	0.151945
C75	C	2.470751	-0.725285	0.267679
C76	C	2.513551	-0.612239	0.155880
C77	C	2.547143	-0.646258	0.271666
C78	C	2.597190	-0.718518	0.215252
H79	H	2.150490	-0.600934	0.218905
H80	H	2.261936	-0.159235	0.414046
H81	H	1.861448	-0.155814	0.864235
H82	H	2.593549	-0.182702	0.426926
H83	H	1.890711	-0.154789	0.996641
H84	H	2.711594	-0.154804	-0.003374
H85	H	2.471688	-0.169403	0.619095
H86	H	2.399625	-0.178246	0.009557
H87	H	2.129136	-0.787274	0.321630
H88	H	1.833651	-0.736342	0.204804
H89	H	2.122815	-0.181711	0.559345
H90	H	2.664584	-0.155799	-0.135788
H91	H	2.531324	-0.563176	0.108585
H92	H	1.855200	-0.550231	0.101979
H93	H	2.291239	-0.158193	0.546457
H94	H	2.352635	-0.179245	-0.122836
H95	H	2.298068	-0.575472	0.205361
H96	H	2.193064	-0.179290	0.877150
H97	H	2.686279	-0.761761	0.218152
H98	H	2.593270	-0.625782	0.322290
H99	H	2.485113	-0.168043	-0.195519
H100	H	2.390992	-0.711716	0.101321
H101	H	2.067145	-0.724358	0.108036
H102	H	2.452947	-0.774500	0.314911
H103	H	1.917263	-0.613374	0.315681
H104	H	2.093552	-0.182721	0.426943
H105	H	2.071065	-0.040302	0.638907
H106	H	2.100329	-0.039292	0.771315
H107	H	2.222320	-0.178255	1.009551
H108	H	1.883927	-0.298228	0.652265
H109	H	1.913210	-0.297238	0.784668
H110	H	1.791206	-0.158224	0.546433
H111	H	1.761924	-0.159210	0.414020
H112	H	2.622836	-0.181657	0.559317
