data_functionalizedCrystal
_audit_creation_method	'MofGen! by Chris Wilmer'
_symmetry_space_group_name_H-M	'P1'
_symmetry_Int_Tables_number	1
_symmetry_cell_setting	triclinic
loop_
_symmetry_equiv_pos_as_xyz
  x,y,z
_cell_length_a	11.169417
_cell_length_b	19.805399
_cell_length_c	11.169416
_cell_angle_alpha	89.978277
_cell_angle_beta	90.011219
_cell_angle_gamma	89.987406
loop_
_atom_site_label
_atom_site_type_symbol
_atom_site_fract_x
_atom_site_fract_y
_atom_site_fract_z
Zn1	Zn	1.834877	-0.382676	-0.477790
Zn2	Zn	2.334877	0.117324	0.022210
Zn3	Zn	1.834791	-0.269502	-0.678499
Zn4	Zn	2.334791	0.230498	-0.178499
Zn5	Zn	1.634188	-0.269509	-0.477831
Zn6	Zn	2.134188	0.230491	0.022169
Zn7	Zn	1.634170	-0.382658	-0.678433
Zn8	Zn	2.134170	0.117342	-0.178433
O9	O	1.734506	-0.326086	-0.578138
O10	O	2.234506	0.173914	-0.078138
O11	O	2.002815	-0.367668	-0.504425
O12	O	2.502815	0.132332	-0.004425
O13	O	1.808153	-0.174787	-0.651924
O14	O	2.308153	0.325213	-0.151924
O15	O	1.660853	-0.284532	-0.309876
O16	O	2.160853	0.215468	0.190124
O17	O	2.002752	-0.284520	-0.651885
O18	O	2.502752	0.215480	-0.151885
O19	O	1.808298	-0.367675	-0.309846
O20	O	2.308298	0.132325	0.190154
O21	O	1.660770	-0.174792	-0.504495
O22	O	2.160770	0.325208	-0.004495
O23	O	1.466236	-0.284514	-0.504431
O24	O	1.966236	0.215486	-0.004431
O25	O	1.660822	-0.477377	-0.651773
O26	O	2.160822	0.022623	-0.151773
O27	O	1.466223	-0.367643	-0.651813
O28	O	1.966223	0.132357	-0.151813
O29	O	1.808281	-0.477390	-0.504361
O30	O	2.308281	0.022610	-0.004361
O31	O	1.808135	-0.284502	-0.846440
O32	O	2.308135	0.215498	-0.346440
O33	O	1.660740	-0.367637	-0.846391
O34	O	2.160740	0.132363	-0.346391
C35	C	1.422682	-0.326078	-0.578120
C36	C	1.922682	0.173922	-0.078120
C37	C	1.289282	-0.326090	-0.578141
C38	C	1.789282	0.173910	-0.078141
C39	C	1.734559	-0.502629	-0.578055
C40	C	2.234559	-0.002629	-0.078055
C41	C	1.734582	-0.577861	-0.578020
C42	C	2.234582	-0.077861	-0.078020
C43	C	1.657861	-0.613208	-0.501246
C44	C	2.157861	-0.113208	-0.001246
C45	C	1.657878	-0.683896	-0.501222
C46	C	2.157878	-0.183896	-0.001222
C47	C	1.734622	-0.719237	-0.577968
C48	C	2.234622	-0.219237	-0.077968
C49	C	1.811345	-0.683886	-0.654750
C50	C	2.311345	-0.183886	-0.154750
C51	C	1.811322	-0.613198	-0.654778
C52	C	2.311322	-0.113198	-0.154778
C53	C	1.811440	-0.968959	-0.654638
C54	C	2.311440	-0.468959	-0.154638
C55	C	1.811460	-1.039651	-0.654601
C56	C	2.311460	-0.539651	-0.154601
C57	C	1.657996	-1.039657	-0.501082
C58	C	2.157996	-0.539657	-0.001082
C59	C	1.657973	-0.968969	-0.501110
C60	C	2.157973	-0.468969	-0.001110
C61	C	1.734692	-0.933624	-0.577896
C62	C	2.234692	-0.433624	-0.077896
C63	C	1.734671	-0.856976	-0.577922
C64	C	2.234671	-0.356976	-0.077922
C65	C	1.734649	-0.795884	-0.577936
C66	C	2.234649	-0.295884	-0.077936
C67	C	2.047549	-0.326096	-0.578157
C68	C	2.547549	0.173904	-0.078157
C69	C	2.180949	-0.326099	-0.578166
C70	C	2.680949	0.173901	-0.078166
C71	C	1.734459	-0.326081	-0.889963
C72	C	2.234459	0.173919	-0.389963
C73	C	1.734548	-0.326102	-1.023363
C74	C	2.234548	0.173898	-0.523363
C75	C	1.734523	-0.150230	-0.578135
C76	C	2.234523	0.349770	-0.078135
C77	C	1.734733	-0.074999	-0.577832
C78	C	2.234733	0.425001	-0.077832
C79	C	1.734587	-0.326106	-0.265096
C80	C	2.234587	0.173894	0.234904
C81	C	1.734621	-0.326115	-0.131696
C82	C	2.234621	0.173885	0.368304
H83	H	1.595400	-0.712672	-0.438710
H84	H	2.095400	-0.212672	0.061290
N85	N	1.575216	-0.930852	-0.418320
N86	N	2.075216	-0.430852	0.081680
H87	H	1.526617	-0.963970	-0.369677
H88	H	2.026617	-0.463970	0.130323
H89	H	1.519650	-0.901515	-0.467174
H90	H	2.019650	-0.401515	0.032826
H91	H	1.873896	-0.940190	-0.717175
H92	H	2.373896	-0.440190	-0.217175
N93	N	1.575091	-0.575099	-0.418456
N94	N	2.075091	-0.075099	0.081544
H95	H	1.489338	-0.587397	-0.437085
H96	H	1.989338	-0.087397	0.062915
H97	H	1.586816	-0.524966	-0.430151
H98	H	2.086816	-0.024966	0.069849
H99	H	1.595525	-1.068443	-0.438562
H100	H	2.095525	-0.568443	0.061438
N101	N	1.894107	-0.721999	-0.737541
N102	N	2.394107	-0.221999	-0.237541
H103	H	1.882482	-0.772143	-0.725875
H104	H	2.382482	-0.272143	-0.225875
H105	H	1.979825	-0.709648	-0.718881
H106	H	2.479825	-0.209648	-0.218881
N107	N	1.894236	-1.077772	-0.737380
N108	N	2.394236	-0.577772	-0.237380
H109	H	1.942832	-1.044655	-0.786032
H110	H	2.442832	-0.544655	-0.286032
H111	H	1.845370	-1.107097	-0.792897
H112	H	2.345370	-0.607097	-0.292897
N113	N	1.894065	-0.575073	-0.737591
N114	N	2.394065	-0.075073	-0.237591
H115	H	1.942686	-0.608188	-0.786202
H116	H	2.442686	-0.108188	-0.286202
H117	H	1.949613	-0.545748	-0.688758
H118	H	2.449613	-0.045748	-0.188758
