data_functionalizedCrystal
_audit_creation_method	'MofGen! by Chris Wilmer'
_symmetry_space_group_name_H-M	'P1'
_symmetry_Int_Tables_number	1
_symmetry_cell_setting	triclinic
loop_
_symmetry_equiv_pos_as_xyz
  x,y,z
_cell_length_a	19.805407
_cell_length_b	29.839131
_cell_length_c	29.839125
_cell_angle_alpha	89.974637
_cell_angle_beta	89.986802
_cell_angle_gamma	90.035228
loop_
_atom_site_label
_atom_site_type_symbol
_atom_site_fract_x
_atom_site_fract_y
_atom_site_fract_z
Zn1	Zn	1.034652	-0.178916	-0.253996
Zn2	Zn	1.367985	0.154417	0.079337
Zn3	Zn	1.701318	0.487750	0.412671
Zn4	Zn	1.034562	-0.254028	-0.178856
Zn5	Zn	1.367895	0.079305	0.154478
Zn6	Zn	1.701228	0.412638	0.487811
Zn7	Zn	0.921479	-0.178913	-0.178877
Zn8	Zn	1.254812	0.154420	0.154456
Zn9	Zn	1.588145	0.487754	0.487790
Zn10	Zn	0.921412	-0.254020	-0.253956
Zn11	Zn	1.254746	0.079313	0.079378
Zn12	Zn	1.588079	0.412647	0.412711
O13	O	0.978026	-0.216469	-0.216421
O14	O	1.311359	0.116864	0.116912
O15	O	1.644693	0.450197	0.450246
O16	O	1.129356	-0.188885	-0.244036
O17	O	1.462690	0.144448	0.089297
O18	O	1.796023	0.477782	0.422630
O19	O	1.019551	-0.244066	-0.115991
O20	O	1.352884	0.089267	0.217342
O21	O	1.686218	0.422600	0.550675
O22	O	0.936557	-0.116046	-0.188867
O23	O	1.269890	0.217287	0.144466
O24	O	1.603224	0.550620	0.477799
O25	O	1.129290	-0.244069	-0.188831
O26	O	1.462623	0.089264	0.144502
O27	O	1.795957	0.422597	0.477835
O28	O	1.019704	-0.116049	-0.244057
O29	O	1.353038	0.217285	0.089276
O30	O	1.686371	0.550618	0.422610
O31	O	0.936470	-0.188880	-0.116007
O32	O	1.269803	0.144454	0.217326
O33	O	1.603136	0.477787	0.550660
O34	O	0.826753	-0.188871	-0.188828
O35	O	1.160087	0.144462	0.144505
O36	O	1.493420	0.477795	0.477838
O37	O	0.936444	-0.244055	-0.316828
O38	O	1.269777	0.089278	0.016505
O39	O	1.603110	0.422611	0.349838
O40	O	0.826705	-0.244052	-0.243988
O41	O	1.160038	0.089281	0.089345
O42	O	1.493371	0.422615	0.422678
O43	O	1.019640	-0.188877	-0.316858
O44	O	1.352973	0.144457	0.016476
O45	O	1.686307	0.477790	0.349809
O46	O	1.019487	-0.316894	-0.188792
O47	O	1.352820	0.016439	0.144541
O48	O	1.686153	0.349772	0.477874
O49	O	0.936356	-0.316888	-0.243968
O50	O	1.269690	0.016445	0.089365
O51	O	1.603023	0.349778	0.422699
C52	C	0.802170	-0.216461	-0.216407
C53	C	1.135503	0.116872	0.116927
C54	C	1.468837	0.450206	0.450260
C55	C	0.726938	-0.216468	-0.216411
C56	C	1.060271	0.116865	0.116922
C57	C	1.393605	0.450199	0.450256
C58	C	0.691586	-0.245244	-0.245086
C59	C	1.024920	0.088090	0.088247
C60	C	1.358253	0.421423	0.421580
C61	C	0.620898	-0.245245	-0.245093
C62	C	0.954231	0.088089	0.088241
C63	C	1.287564	0.421422	0.421574
C64	C	0.585562	-0.216472	-0.216421
C65	C	0.918896	0.116862	0.116912
C66	C	1.252229	0.450195	0.450246
C67	C	0.620919	-0.187693	-0.187745
C68	C	0.954253	0.145641	0.145589
C69	C	1.287586	0.478974	0.478922
C70	C	0.691606	-0.187690	-0.187741
C71	C	1.024940	0.145644	0.145593
C72	C	1.358273	0.478977	0.478926
C73	C	0.335846	-0.187702	-0.187759
C74	C	0.669179	0.145631	0.145574
C75	C	1.002513	0.478964	0.478907
C76	C	0.265154	-0.187708	-0.187764
C77	C	0.598487	0.145625	0.145569
C78	C	0.931821	0.478958	0.478902
C79	C	0.265137	-0.245257	-0.245111
C80	C	0.598471	0.088076	0.088222
C81	C	0.931804	0.421409	0.421555
C82	C	0.335824	-0.245255	-0.245108
C83	C	0.669158	0.088079	0.088226
C84	C	1.002491	0.421412	0.421559
C85	C	0.371175	-0.216474	-0.216433
C86	C	0.704508	0.116859	0.116901
C87	C	1.037842	0.450193	0.450234
C88	C	0.447824	-0.216473	-0.216427
C89	C	0.781157	0.116860	0.116906
C90	C	1.114490	0.450194	0.450240
C91	C	0.508915	-0.216475	-0.216424
C92	C	0.842249	0.116859	0.116909
C93	C	1.175582	0.450192	0.450242
C94	C	0.977923	-0.333192	-0.216383
C95	C	1.311256	0.000141	0.116950
C96	C	1.644590	0.333475	0.450283
C97	C	0.977941	-0.383126	-0.216382
C98	C	1.311274	-0.049793	0.116951
C99	C	1.644607	0.283540	0.450285
C100	C	1.021312	-0.692736	-0.245199
C101	C	1.354645	-0.359403	0.088134
C102	C	1.687978	-0.026069	0.421467
C103	C	1.021385	-0.880409	-0.245226
C104	C	1.354718	-0.547076	0.088107
C105	C	1.688052	-0.213743	0.421440
O106	O	1.058159	-0.904645	-0.269700
O107	O	1.391493	-0.571312	0.063634
O108	O	1.724826	-0.237979	0.396967
N109	N	0.978141	-0.903912	-0.216471
N110	N	1.311474	-0.570578	0.116862
N111	N	1.644808	-0.237245	0.450196
C112	C	0.934872	-0.880493	-0.187709
C113	C	1.268206	-0.547159	0.145624
C114	C	1.601539	-0.213826	0.478958
O115	O	0.898088	-0.904789	-0.163255
O116	O	1.231421	-0.571456	0.170079
O117	O	1.564754	-0.238122	0.503412
C118	C	0.934796	-0.692821	-0.187685
C119	C	1.268129	-0.359487	0.145649
C120	C	1.601463	-0.026154	0.478982
C121	C	0.978048	-0.669321	-0.216439
C122	C	1.311381	-0.335987	0.116895
C123	C	1.644714	-0.002654	0.450228
C124	C	1.064559	-0.669236	-0.273951
C125	C	1.397892	-0.335903	0.059382
C126	C	1.731226	-0.002570	0.392715
C127	C	1.064543	-0.622321	-0.273942
C128	C	1.397876	-0.288987	0.059391
C129	C	1.731210	0.044346	0.392724
C130	C	1.021279	-0.598905	-0.245182
C131	C	1.354612	-0.265572	0.088152
C132	C	1.687946	0.067761	0.421485
C133	C	0.978032	-0.622405	-0.216430
C134	C	1.311365	-0.289072	0.116904
C135	C	1.644698	0.044261	0.450237
C136	C	0.891525	-0.669403	-0.158925
C137	C	1.224858	-0.336069	0.174408
C138	C	1.558191	-0.002736	0.507742
C139	C	0.891508	-0.622482	-0.158922
C140	C	1.224841	-0.289148	0.174411
C141	C	1.558175	0.044185	0.507744
C142	C	0.934760	-0.598982	-0.187676
C143	C	1.268093	-0.265648	0.145657
C144	C	1.601426	0.067685	0.478990
C145	C	0.934752	-0.552074	-0.187660
C146	C	1.268085	-0.218741	0.145673
C147	C	1.601418	0.114592	0.479006
N148	N	0.977996	-0.528572	-0.216416
N149	N	1.311329	-0.195239	0.116918
N150	N	1.644662	0.138095	0.450251
C151	C	1.021259	-0.551987	-0.245176
C152	C	1.354593	-0.218654	0.088157
C153	C	1.687926	0.114679	0.421490
C154	C	0.934917	-0.979023	-0.187723
C155	C	1.268250	-0.645690	0.145610
C156	C	1.601583	-0.312357	0.478944
C157	C	0.934936	-1.025941	-0.187729
C158	C	1.268270	-0.692608	0.145605
C159	C	1.601603	-0.359274	0.478938
C160	C	1.021448	-1.025854	-0.245247
C161	C	1.354782	-0.692521	0.088087
C162	C	1.688115	-0.359188	0.421420
C163	C	1.021431	-0.978936	-0.245239
C164	C	1.354765	-0.645602	0.088095
C165	C	1.688098	-0.312269	0.421428
C166	C	0.978161	-0.955521	-0.216478
C167	C	1.311494	-0.622188	0.116855
C168	C	1.644827	-0.288854	0.450188
C169	C	1.021222	-0.453462	-0.245155
C170	C	1.354556	-0.120128	0.088178
C171	C	1.687889	0.213205	0.421511
C172	C	1.021204	-0.406542	-0.245143
C173	C	1.354538	-0.073209	0.088191
C174	C	1.687871	0.260125	0.421524
C175	C	0.934690	-0.406633	-0.187627
C176	C	1.268024	-0.073299	0.145707
C177	C	1.601357	0.260034	0.479040
C178	C	0.934711	-0.453548	-0.187637
C179	C	1.268044	-0.120215	0.145696
C180	C	1.601377	0.213118	0.479029
C181	C	0.977979	-0.476962	-0.216405
C182	C	1.311312	-0.143628	0.116928
C183	C	1.644646	0.189705	0.450261
O184	O	0.897991	-0.527809	-0.163203
O185	O	1.231324	-0.194476	0.170130
O186	O	1.564658	0.138858	0.503463
O187	O	1.058028	-0.527683	-0.269634
O188	O	1.391361	-0.194350	0.063699
O189	O	1.724695	0.138984	0.397033
C190	C	1.021328	-0.739652	-0.245208
C191	C	1.354661	-0.406318	0.088125
C192	C	1.687994	-0.072985	0.421459
C193	C	0.978080	-0.763152	-0.216456
C194	C	1.311413	-0.429818	0.116877
C195	C	1.644747	-0.096485	0.450211
C196	C	0.934816	-0.739736	-0.187695
C197	C	1.268150	-0.406403	0.145638
C198	C	1.601483	-0.073069	0.478971
C199	C	0.978100	-0.810069	-0.216461
C200	C	1.311433	-0.476736	0.116872
C201	C	1.644767	-0.143403	0.450205
C202	C	1.021364	-0.833485	-0.245222
C203	C	1.354697	-0.500152	0.088111
C204	C	1.688030	-0.166818	0.421444
C205	C	1.064608	-0.809983	-0.273978
C206	C	1.397941	-0.476649	0.059356
C207	C	1.731274	-0.143316	0.392689
C208	C	1.064592	-0.763067	-0.273969
C209	C	1.397925	-0.429734	0.059365
C210	C	1.731258	-0.096400	0.392698
C211	C	0.891572	-0.763238	-0.158940
C212	C	1.224906	-0.429905	0.174393
C213	C	1.558239	-0.096572	0.507727
C214	C	0.891593	-0.810154	-0.158951
C215	C	1.224926	-0.476820	0.174383
C216	C	1.558259	-0.143487	0.507716
C217	C	0.934856	-0.833569	-0.187712
C218	C	1.268190	-0.500236	0.145622
C219	C	1.601523	-0.166903	0.478955
C220	C	1.154569	-0.216478	-0.216436
C221	C	1.487902	0.116855	0.116897
C222	C	1.821235	0.450188	0.450231
C223	C	1.229801	-0.216482	-0.216442
C224	C	1.563134	0.116851	0.116891
C225	C	1.896467	0.450184	0.450224
C226	C	0.978044	-0.216465	-0.333599
C227	C	1.311378	0.116868	-0.000266
C228	C	1.644711	0.450201	0.333067
C229	C	0.978052	-0.216464	-0.383534
C230	C	1.311386	0.116870	-0.050201
C231	C	1.644719	0.450203	0.283133
C232	C	0.978148	-0.099291	-0.216469
C233	C	1.311481	0.234042	0.116864
C234	C	1.644815	0.567376	0.450198
C235	C	0.978200	-0.049357	-0.216489
C236	C	1.311533	0.283977	0.116844
C237	C	1.644867	0.617310	0.450177
C238	C	1.021418	-0.187657	-0.693196
C239	C	1.354751	0.145676	-0.359862
C240	C	1.688085	0.479010	-0.026529
C241	C	1.021452	-0.187619	-0.880869
C242	C	1.354785	0.145715	-0.547536
C243	C	1.688118	0.479048	-0.214202
O244	O	1.058273	-0.163169	-0.905149
O245	O	1.391606	0.170164	-0.571816
O246	O	1.724939	0.503498	-0.238483
N247	N	0.978142	-0.216343	-0.904319
N248	N	1.311475	0.116990	-0.570986
N249	N	1.644809	0.450323	-0.237653
C250	C	0.934818	-0.245078	-0.880848
C251	C	1.268151	0.088256	-0.547515
C252	C	1.601484	0.421589	-0.214182
O253	O	0.897976	-0.269505	-0.905101
O254	O	1.231309	0.063828	-0.571767
O255	O	1.564643	0.397161	-0.238434
C256	C	0.934781	-0.245113	-0.693176
C257	C	1.268114	0.088220	-0.359843
C258	C	1.601448	0.421553	-0.026509
C259	C	0.978099	-0.216390	-0.669728
C260	C	1.311432	0.116943	-0.336395
C261	C	1.644765	0.450277	-0.003062
C262	C	1.064731	-0.158936	-0.669748
C263	C	1.398065	0.174398	-0.336415
C264	C	1.731398	0.507731	-0.003081
C265	C	1.064725	-0.158947	-0.622832
C266	C	1.398059	0.174386	-0.289499
C267	C	1.731392	0.507719	0.043834
C268	C	1.021406	-0.187680	-0.599365
C269	C	1.354739	0.145653	-0.266032
C270	C	1.688072	0.478986	0.067302
C271	C	0.978092	-0.216402	-0.622813
C272	C	1.311426	0.116932	-0.289479
C273	C	1.644759	0.450265	0.043854
C274	C	0.891454	-0.273845	-0.669706
C275	C	1.224787	0.059489	-0.336373
C276	C	1.558120	0.392822	-0.003039
C277	C	0.891447	-0.273850	-0.622785
C278	C	1.224781	0.059483	-0.289452
C279	C	1.558114	0.392816	0.043882
C280	C	0.934765	-0.245127	-0.599337
C281	C	1.268098	0.088206	-0.266004
C282	C	1.601431	0.421540	0.067329
C283	C	0.934766	-0.245146	-0.552430
C284	C	1.268100	0.088187	-0.219096
C285	C	1.601433	0.421521	0.114237
N286	N	0.978076	-0.216421	-0.528979
N287	N	1.311410	0.116912	-0.195646
N288	N	1.644743	0.450245	0.137687
C289	C	1.021396	-0.187689	-0.552447
C290	C	1.354729	0.145645	-0.219114
C291	C	1.688062	0.478978	0.114220
C292	C	0.934841	-0.245057	-0.979379
C293	C	1.268174	0.088276	-0.646046
C294	C	1.601507	0.421609	-0.312712
C295	C	0.934851	-0.245049	-1.026297
C296	C	1.268184	0.088284	-0.692964
C297	C	1.601517	0.421618	-0.359630
C298	C	1.021484	-0.187590	-1.026314
C299	C	1.354817	0.145744	-0.692981
C300	C	1.688151	0.479077	-0.359648
C301	C	1.021477	-0.187601	-0.979396
C302	C	1.354810	0.145733	-0.646062
C303	C	1.688144	0.479066	-0.312729
C304	C	0.978150	-0.216333	-0.955929
C305	C	1.311484	0.117001	-0.622595
C306	C	1.644817	0.450334	-0.289262
C307	C	1.021380	-0.187715	-0.453921
C308	C	1.354713	0.145618	-0.120588
C309	C	1.688047	0.478951	0.212746
C310	C	1.021372	-0.187731	-0.407002
C311	C	1.354705	0.145603	-0.073668
C312	C	1.688038	0.478936	0.259665
C313	C	0.934736	-0.245188	-0.406988
C314	C	1.268070	0.088145	-0.073655
C315	C	1.601403	0.421478	0.259678
C316	C	0.934746	-0.245175	-0.453904
C317	C	1.268080	0.088159	-0.120570
C318	C	1.601413	0.421492	0.212763
C319	C	0.978071	-0.216435	-0.477369
C320	C	1.311404	0.116899	-0.144036
C321	C	1.644737	0.450232	0.189298
O322	O	0.897960	-0.269580	-0.528120
O323	O	1.231293	0.063754	-0.194787
O324	O	1.564626	0.397087	0.138546
O325	O	1.058221	-0.163257	-0.528187
O326	O	1.391555	0.170076	-0.194853
O327	O	1.724888	0.503409	0.138480
C328	C	1.021424	-0.187646	-0.740111
C329	C	1.354758	0.145688	-0.406778
C330	C	1.688091	0.479021	-0.073445
C331	C	0.978111	-0.216367	-0.763559
C332	C	1.311444	0.116967	-0.430226
C333	C	1.644778	0.450300	-0.096893
C334	C	0.934791	-0.245100	-0.740092
C335	C	1.268125	0.088234	-0.406758
C336	C	1.601458	0.421567	-0.073425
C337	C	0.978121	-0.216359	-0.810477
C338	C	1.311454	0.116975	-0.477144
C339	C	1.644787	0.450308	-0.143810
C340	C	1.021440	-0.187626	-0.833945
C341	C	1.354774	0.145708	-0.500611
C342	C	1.688107	0.479041	-0.167278
C343	C	1.064750	-0.158901	-0.810494
C344	C	1.398083	0.174432	-0.477161
C345	C	1.731417	0.507766	-0.143828
C346	C	1.064744	-0.158913	-0.763579
C347	C	1.398077	0.174421	-0.430246
C348	C	1.731411	0.507754	-0.096912
C349	C	0.891482	-0.273824	-0.763542
C350	C	1.224815	0.059509	-0.430209
C351	C	1.558148	0.392842	-0.096875
C352	C	0.891492	-0.273811	-0.810457
C353	C	1.224825	0.059523	-0.477124
C354	C	1.558159	0.392856	-0.143791
C355	C	0.934812	-0.245078	-0.833925
C356	C	1.268145	0.088256	-0.500592
C357	C	1.601478	0.421589	-0.167258
C358	C	0.978047	-0.216441	-0.099699
C359	C	1.311380	0.116892	0.233635
C360	C	1.644713	0.450226	0.566968
C361	C	0.978170	-0.216316	-0.049764
C362	C	1.311504	0.117017	0.283569
C363	C	1.644837	0.450350	0.616902
H364	H	0.236386	-0.164275	-0.164416
H365	H	0.569719	0.169058	0.168917
H366	H	0.903053	0.502392	0.502250
C367	C	1.069118	-0.156001	-0.953607
C368	C	1.402452	0.177333	-0.620274
C369	C	1.735785	0.510666	-0.286940
H370	H	1.094914	-0.138886	-0.974307
H371	H	1.428247	0.194447	-0.640974
H372	H	1.761580	0.527780	-0.307641
H373	H	1.098590	-0.173186	-0.935299
H374	H	1.431923	0.160147	-0.601966
H375	H	1.765256	0.493481	-0.268632
H376	H	1.043237	-0.136425	-0.935311
H377	H	1.376571	0.196909	-0.601978
H378	H	1.709904	0.530242	-0.268645
H379	H	0.856373	-0.829283	-0.135532
H380	H	1.189706	-0.495950	0.197802
H381	H	1.523040	-0.162617	0.531135
C382	C	1.068780	-0.380693	-0.276773
C383	C	1.402114	-0.047359	0.056560
C384	C	1.735447	0.285974	0.389893
H385	H	1.062582	-0.349396	-0.272648
H386	H	1.395915	-0.016062	0.060685
H387	H	1.729248	0.317271	0.394018
H388	H	1.058846	-0.388369	-0.306953
H389	H	1.392179	-0.055036	0.026380
H390	H	1.725512	0.278297	0.359713
H391	H	1.114269	-0.388362	-0.270225
H392	H	1.447602	-0.055028	0.063108
H393	H	1.780936	0.278305	0.396442
H394	H	0.899679	-0.959962	-0.164302
H395	H	1.233013	-0.626629	0.169031
H396	H	1.566346	-0.293295	0.502365
H397	H	0.856341	-0.744177	-0.135520
H398	H	1.189674	-0.410844	0.197813
H399	H	1.523007	-0.077510	0.531147
H400	H	0.364620	-0.164271	-0.164407
H401	H	0.697953	0.169062	0.168926
H402	H	1.031287	0.502396	0.502259
H403	H	0.592144	-0.164263	-0.164402
H404	H	0.925477	0.169070	0.168932
H405	H	1.258810	0.502404	0.502265
H406	H	1.056451	-0.472519	-0.268584
H407	H	1.389784	-0.139186	0.064749
H408	H	1.723118	0.194148	0.398082
C409	C	0.730494	-0.156036	-0.156199
C410	C	1.063827	0.177298	0.177135
C411	C	1.397160	0.510631	0.510468
H412	H	0.699326	-0.138902	-0.139121
H413	H	1.032660	0.194431	0.194212
H414	H	1.365993	0.527765	0.527546
H415	H	0.758092	-0.136487	-0.173423
H416	H	1.091425	0.196846	0.159910
H417	H	1.424758	0.530179	0.493244
H418	H	0.758046	-0.173191	-0.136587
H419	H	1.091379	0.160143	0.196747
H420	H	1.424713	0.493476	0.530080
C421	C	1.069034	-1.051617	-0.276885
C422	C	1.402368	-0.718284	0.056449
C423	C	1.735701	-0.384950	0.389782
H424	H	1.062844	-1.082925	-0.272770
H425	H	1.396177	-0.749591	0.060564
H426	H	1.729511	-0.416258	0.393897
H427	H	1.114518	-1.043908	-0.270343
H428	H	1.447852	-0.710575	0.062990
H429	H	1.781185	-0.377242	0.396323
H430	H	1.059083	-1.043918	-0.307064
H431	H	1.392416	-0.710585	0.026269
H432	H	1.725750	-0.377252	0.359603
H433	H	0.856305	-0.688528	-0.135510
H434	H	1.189638	-0.355195	0.197823
H435	H	1.522971	-0.021861	0.531156
H436	H	0.899497	-0.472683	-0.164220
H437	H	1.232830	-0.139350	0.169113
H438	H	1.566164	0.193984	0.502447
H439	H	1.099998	-0.135557	-0.603745
H440	H	1.433331	0.197776	-0.270412
H441	H	1.766664	0.531110	0.062921
H442	H	1.099760	-0.603190	-0.297358
H443	H	1.433093	-0.269857	0.035976
H444	H	1.766427	0.063477	0.369309
C445	C	0.887364	-1.051786	-0.156097
C446	C	1.220697	-0.718453	0.177237
C447	C	1.554031	-0.385119	0.510570
H448	H	0.861592	-1.031117	-0.138972
H449	H	1.194925	-0.697783	0.194362
H450	H	1.528259	-0.364450	0.527695
H451	H	0.913278	-1.070086	-0.136539
H452	H	1.246612	-0.736752	0.196795
H453	H	1.579945	-0.403419	0.530128
H454	H	0.857857	-1.070094	-0.173269
H455	H	1.191191	-0.736761	0.160065
H456	H	1.524524	-0.403428	0.493398
H457	H	1.056648	-0.164340	-0.387912
H458	H	1.389982	0.168993	-0.054579
H459	H	1.723315	0.502326	0.278754
C460	C	0.843789	-0.305456	-0.596972
C461	C	1.177122	0.027877	-0.263639
C462	C	1.510456	0.361210	0.069695
H463	H	0.849981	-0.301349	-0.565671
H464	H	1.183315	0.031984	-0.232337
H465	H	1.516648	0.365318	0.100996
H466	H	0.853661	-0.335640	-0.604657
H467	H	1.186994	-0.002307	-0.271323
H468	H	1.520327	0.331026	0.062010
H469	H	0.798319	-0.298872	-0.604660
H470	H	1.131652	0.034461	-0.271327
H471	H	1.464986	0.367795	0.062007
C472	C	0.374693	-0.276911	-0.276638
C473	C	0.708026	0.056423	0.056695
C474	C	1.041359	0.389756	0.390028
H475	H	0.421855	-0.272792	-0.272524
H476	H	0.755188	0.060541	0.060809
H477	H	1.088521	0.393874	0.394142
H478	H	0.363134	-0.270389	-0.306839
H479	H	0.696467	0.062944	0.026494
H480	H	1.029801	0.396277	0.359828
H481	H	0.363075	-0.307086	-0.269996
H482	H	0.696409	0.026248	0.063338
H483	H	1.029742	0.359581	0.396671
C484	C	0.226253	-0.276897	-0.276674
C485	C	0.559586	0.056437	0.056659
C486	C	0.892920	0.389770	0.389992
H487	H	0.257422	-0.294030	-0.293750
H488	H	0.590756	0.039303	0.039583
H489	H	0.924089	0.372636	0.372916
H490	H	0.198715	-0.259728	-0.296280
H491	H	0.532048	0.073605	0.037053
H492	H	0.865382	0.406938	0.370387
H493	H	0.198641	-0.296453	-0.259465
H494	H	0.531974	0.036880	0.073869
H495	H	0.865307	0.370214	0.407202
H496	H	1.056656	-0.164311	-0.473021
H497	H	1.389990	0.169022	-0.139688
H498	H	1.723323	0.502356	0.193646
C499	C	1.112158	-0.694986	-0.305588
C500	C	1.445491	-0.361653	0.027745
C501	C	1.778824	-0.028320	0.361079
H502	H	1.137911	-0.674265	-0.322706
H503	H	1.471244	-0.340931	0.010628
H504	H	1.804577	-0.007598	0.343961
H505	H	1.086264	-0.713295	-0.325153
H506	H	1.419597	-0.379962	0.008181
H507	H	1.752930	-0.046629	0.341514
H508	H	1.141680	-0.713278	-0.288420
H509	H	1.475014	-0.379944	0.044914
H510	H	1.808347	-0.046611	0.378247
C511	C	1.112195	-0.835746	-0.305615
C512	C	1.445528	-0.502412	0.027719
C513	C	1.778862	-0.169079	0.361052
H514	H	1.106002	-0.867053	-0.301501
H515	H	1.439335	-0.533720	0.031833
H516	H	1.772669	-0.200386	0.365166
H517	H	1.157679	-0.828038	-0.299071
H518	H	1.491012	-0.494705	0.034263
H519	H	1.824345	-0.161372	0.367596
H520	H	1.102248	-0.828046	-0.335794
H521	H	1.435581	-0.494713	-0.002461
H522	H	1.768914	-0.161379	0.330873
C523	C	1.112391	-0.127329	-0.695555
C524	C	1.445725	0.206004	-0.362222
C525	C	1.779058	0.539337	-0.028889
H526	H	1.138185	-0.110231	-0.674865
H527	H	1.471518	0.223103	-0.341531
H528	H	1.804852	0.556436	-0.008198
H529	H	1.086535	-0.107746	-0.713864
H530	H	1.419868	0.225587	-0.380530
H531	H	1.753201	0.558920	-0.047197
H532	H	1.141874	-0.144517	-0.713852
H533	H	1.475207	0.188817	-0.380519
H534	H	1.808540	0.522150	-0.047185
H535	H	0.592117	-0.268677	-0.268443
H536	H	0.925451	0.064656	0.064891
H537	H	1.258784	0.397989	0.398224
C538	C	0.843911	-0.596726	-0.127286
C539	C	1.177244	-0.263393	0.206047
C540	C	1.510577	0.069941	0.539381
H541	H	0.850088	-0.565417	-0.131400
H542	H	1.183421	-0.232084	0.201934
H543	H	1.516754	0.101250	0.535267
H544	H	0.853847	-0.604429	-0.097108
H545	H	1.187181	-0.271095	0.236225
H546	H	1.520514	0.062238	0.569558
H547	H	0.798428	-0.604438	-0.133840
H548	H	1.131762	-0.271105	0.199494
H549	H	1.465095	0.062228	0.532827
H550	H	0.899559	-0.268458	-0.960277
H551	H	1.232893	0.064876	-0.626943
H552	H	1.566226	0.398209	-0.293610
H553	H	1.056650	-0.959805	-0.268653
H554	H	1.389983	-0.626471	0.064681
H555	H	1.723317	-0.293138	0.398014
H556	H	0.720351	-0.268676	-0.268433
H557	H	1.053684	0.064658	0.064901
H558	H	1.387018	0.397991	0.398234
H559	H	0.899469	-0.268583	-0.387872
H560	H	1.232802	0.064750	-0.054539
H561	H	1.566135	0.398083	0.278794
C562	C	0.843798	-0.305437	-0.695489
C563	C	1.177131	0.027896	-0.362155
C564	C	1.510464	0.361230	-0.028822
H565	H	0.817994	-0.322543	-0.674786
H566	H	1.151327	0.010791	-0.341453
H567	H	1.484661	0.344124	-0.008119
H568	H	0.869659	-0.325014	-0.713791
H569	H	1.202993	0.008320	-0.380458
H570	H	1.536326	0.341653	-0.047124
H571	H	0.814324	-0.288241	-0.713790
H572	H	1.147658	0.045092	-0.380456
H573	H	1.480991	0.378426	-0.047123
H574	H	0.899467	-0.387561	-0.164209
H575	H	1.232801	-0.054227	0.169125
H576	H	1.566134	0.279106	0.502458
C577	C	1.112401	-0.127296	-0.836315
C578	C	1.445734	0.206037	-0.502981
C579	C	1.779068	0.539370	-0.169648
H580	H	1.106193	-0.131405	-0.867615
H581	H	1.439527	0.201929	-0.534281
H582	H	1.772860	0.535262	-0.200948
H583	H	1.157872	-0.133873	-0.828631
H584	H	1.491205	0.199461	-0.495298
H585	H	1.824538	0.532794	-0.161964
H586	H	1.102521	-0.097110	-0.828634
H587	H	1.435855	0.236223	-0.495301
H588	H	1.769188	0.569557	-0.161968
C589	C	1.069136	-0.155985	-1.052134
C590	C	1.402470	0.177348	-0.718801
C591	C	1.735803	0.510681	-0.385468
H592	H	1.062932	-0.160095	-1.083434
H593	H	1.396265	0.173238	-0.750101
H594	H	1.729599	0.506571	-0.416768
H595	H	1.114606	-0.162561	-1.044448
H596	H	1.447940	0.170772	-0.711115
H597	H	1.781273	0.504106	-0.377781
H598	H	1.059255	-0.125799	-1.044456
H599	H	1.392588	0.207534	-0.711122
H600	H	1.725922	0.540868	-0.377789
C601	C	0.887206	-0.276648	-1.052085
C602	C	1.220540	0.056686	-0.718751
C603	C	1.553873	0.390019	-0.385418
H604	H	0.861403	-0.293756	-1.031384
H605	H	1.194736	0.039577	-0.698051
H606	H	1.528069	0.372910	-0.364718
H607	H	0.913076	-0.296222	-1.070385
H608	H	1.246409	0.037112	-0.737052
H609	H	1.579742	0.370445	-0.403718
H610	H	0.857732	-0.259455	-1.070388
H611	H	1.191065	0.073879	-0.737054
H612	H	1.524399	0.407212	-0.403721
H613	H	0.899480	-0.268568	-0.472996
H614	H	1.232814	0.064765	-0.139663
H615	H	1.566147	0.398099	0.193671
C616	C	0.843838	-0.305408	-0.836245
C617	C	1.177172	0.027926	-0.502912
C618	C	1.510505	0.361259	-0.169578
H619	H	0.818035	-0.322517	-0.815545
H620	H	1.151369	0.010817	-0.482211
H621	H	1.484702	0.344150	-0.148878
H622	H	0.869703	-0.324982	-0.854549
H623	H	1.203036	0.008352	-0.521215
H624	H	1.536369	0.341685	-0.187882
H625	H	0.814364	-0.288211	-0.854545
H626	H	1.147697	0.045122	-0.521212
H627	H	1.481031	0.378455	-0.187878
H628	H	1.099811	-0.743937	-0.297383
H629	H	1.433144	-0.410604	0.035950
H630	H	1.766478	-0.077270	0.369284
H631	H	1.100017	-0.135523	-0.744492
H632	H	1.433350	0.197810	-0.411158
H633	H	1.766684	0.531144	-0.077825
H634	H	0.856206	-0.297223	-0.744439
H635	H	1.189539	0.036110	-0.411106
H636	H	1.522872	0.369444	-0.077773
