data_functionalizedCrystal
_audit_creation_method	'MofGen! by Chris Wilmer'
_symmetry_space_group_name_H-M	'P1'
_symmetry_Int_Tables_number	1
_symmetry_cell_setting	triclinic
loop_
_symmetry_equiv_pos_as_xyz
  x,y,z
_cell_length_a	12.759395
_cell_length_b	12.594516
_cell_length_c	12.759387
_cell_angle_alpha	90.028490
_cell_angle_beta	90.020509
_cell_angle_gamma	90.017589
loop_
_atom_site_label
_atom_site_type_symbol
_atom_site_fract_x
_atom_site_fract_y
_atom_site_fract_z
Zn1	Zn	1.606259	-0.423642	0.594022
Zn2	Zn	2.106259	0.076358	1.094022
Zn3	Zn	1.606145	-0.601660	0.418349
Zn4	Zn	2.106145	-0.101660	0.918349
Zn5	Zn	1.430557	-0.423700	0.418359
Zn6	Zn	1.930557	0.076300	0.918359
Zn7	Zn	1.430545	-0.601584	0.593989
Zn8	Zn	1.930545	-0.101584	1.093989
O9	O	1.518377	-0.512647	0.506180
O10	O	2.018377	-0.012647	1.006180
O11	O	1.753265	-0.447264	0.570729
O12	O	2.253265	0.052736	1.070729
O13	O	1.582811	-0.578109	0.271330
O14	O	2.082811	-0.078109	0.771330
O15	O	1.453917	-0.274747	0.441679
O16	O	1.953917	0.225253	0.941679
O17	O	1.753181	-0.578053	0.441663
O18	O	2.253181	-0.078053	0.941663
O19	O	1.583004	-0.274704	0.570738
O20	O	2.083004	0.225296	1.070738
O21	O	1.453807	-0.447363	0.271336
O22	O	1.953807	0.052637	0.771336
O23	O	1.283534	-0.447290	0.441646
O24	O	1.783534	0.052710	0.941646
O25	O	1.453897	-0.577924	0.741014
O26	O	1.953897	-0.077924	1.241014
O27	O	1.283526	-0.577980	0.570681
O28	O	1.783526	-0.077980	1.070681
O29	O	1.582993	-0.447191	0.741039
O30	O	2.082993	0.052809	1.241039
O31	O	1.582799	-0.750595	0.441631
O32	O	2.082799	-0.250595	0.941631
O33	O	1.453786	-0.750540	0.570672
O34	O	1.953786	-0.250540	1.070672
C35	C	1.245409	-0.512634	0.506162
C36	C	1.745409	-0.012634	1.006162
C37	C	1.128632	-0.512654	0.506179
C38	C	1.628632	-0.012654	1.006179
C39	C	1.128662	-0.648962	0.640325
C40	C	1.628662	-0.148962	1.140325
C41	C	1.073816	-0.717124	0.707401
C42	C	1.573816	-0.217124	1.207401
C43	C	0.964094	-0.717137	0.707414
C44	C	1.464094	-0.217137	1.207414
C45	C	0.909216	-0.648978	0.640346
C46	C	1.409216	-0.148978	1.140346
C47	C	0.964062	-0.580816	0.573270
C48	C	1.464062	-0.080816	1.073270
C49	C	1.073786	-0.580812	0.573262
C50	C	1.573786	-0.080812	1.073262
C51	C	0.964033	-0.444504	0.439130
C52	C	1.464033	0.055496	0.939130
C53	C	1.073754	-0.444495	0.439111
C54	C	1.573754	0.055505	0.939111
C55	C	0.909155	-0.376345	0.372062
C56	C	1.409155	0.123655	0.872062
C57	C	0.964001	-0.308186	0.304979
C58	C	1.464001	0.191814	0.804979
C59	C	1.073729	-0.308177	0.304968
C60	C	1.573729	0.191823	0.804968
C61	C	1.128600	-0.376332	0.372034
C62	C	1.628600	0.123668	0.872034
C63	C	1.518308	-0.789188	0.506169
C64	C	2.018308	-0.289188	1.006169
C65	C	1.518374	-0.907493	0.506200
C66	C	2.018374	-0.407493	1.006200
C67	C	1.448198	-0.976755	0.576336
C68	C	1.948198	-0.476755	1.076336
C69	C	1.422596	-1.047624	0.480469
C70	C	1.922596	-0.547624	0.980469
C71	C	1.544072	-1.047422	0.602083
C72	C	2.044072	-0.547422	1.102083
C73	C	1.492722	-0.976805	0.410282
C74	C	1.992722	-0.476805	0.910282
C75	C	1.614242	-0.976596	0.531961
C76	C	2.114242	-0.476596	1.031961
C77	C	1.588677	-1.047434	0.436028
C78	C	2.088677	-0.547434	0.936028
C79	C	1.792410	-0.512660	0.506198
C80	C	2.292410	-0.012660	1.006198
C81	C	1.909187	-0.512666	0.506206
C82	C	2.409187	-0.012666	1.006206
C83	C	1.518456	-0.512542	0.780213
C84	C	2.018456	-0.012542	1.280213
C85	C	1.518490	-0.512498	0.896990
C86	C	2.018490	-0.012498	1.396990
C87	C	1.518474	-0.235026	0.506213
C88	C	2.018474	0.264974	1.006213
C89	C	1.518516	-0.116720	0.506227
C90	C	2.018516	0.383280	1.006227
C91	C	1.518358	-0.512674	0.233212
C92	C	2.018358	-0.012674	0.733212
C93	C	1.518528	-0.512418	0.116436
C94	C	2.018528	-0.012418	0.616436
C95	C	1.652927	-0.376375	0.897035
C96	C	2.152927	0.123625	1.397035
C97	C	1.720160	-0.308297	0.951919
C98	C	2.220160	0.191703	1.451919
C99	C	1.720185	-0.308258	1.061641
C100	C	2.220185	0.191742	1.561641
C101	C	1.652968	-0.376302	1.116481
C102	C	2.152968	0.123698	1.616481
C103	C	1.585735	-0.444380	1.061598
C104	C	2.085735	0.055620	1.561598
C105	C	1.585719	-0.444413	0.951874
C106	C	2.085719	0.055587	1.451874
C107	C	1.451295	-0.580496	1.061553
C108	C	1.951295	-0.080496	1.561553
C109	C	1.451273	-0.580542	0.951831
C110	C	1.951273	-0.080542	1.451831
C111	C	1.384078	-0.648540	1.116393
C112	C	1.884078	-0.148540	1.616393
C113	C	1.316848	-0.716624	1.061510
C114	C	1.816848	-0.216624	1.561510
C115	C	1.316826	-0.716661	0.951781
C116	C	1.816826	-0.216661	1.451781
C117	C	1.384040	-0.648619	0.896947
C118	C	1.884040	-0.148619	1.396947
H119	H	1.118378	-0.252663	0.250354
H120	H	1.618378	0.247337	0.750354
H121	H	1.217941	-0.376334	0.372029
H122	H	1.717941	0.123666	0.872029
C123	C	1.794094	-0.233451	0.891586
C124	C	2.294094	0.266549	1.391586
N125	N	1.849779	-0.177076	0.846146
N126	N	2.349779	0.322924	1.346146
H127	H	1.774926	-0.252817	1.106327
H128	H	2.274926	0.247183	1.606327
H129	H	1.388745	-0.945719	0.635562
H130	H	1.888745	-0.445719	1.135562
H131	H	1.648084	-1.078273	0.376659
H132	H	2.148084	-0.578273	0.876659
C133	C	1.313153	-1.089773	0.451041
C134	C	1.813153	-0.589773	0.951041
N135	N	1.230718	-1.121516	0.428882
N136	N	1.730718	-0.621516	0.928882
H137	H	1.652922	-0.376409	0.807694
H138	H	2.152922	0.123591	1.307694
H139	H	1.384099	-0.648499	1.205734
H140	H	1.884099	-0.148499	1.705734
H141	H	1.118510	-0.772616	0.762008
H142	H	1.618510	-0.272616	1.262008
H143	H	1.695232	-0.945377	0.553774
H144	H	2.195232	-0.445377	1.053774
H145	H	1.652986	-0.376255	1.205822
H146	H	2.152986	0.123745	1.705822
H147	H	1.565749	-1.078442	0.683160
H148	H	2.065749	-0.578442	1.183160
C149	C	1.249359	-0.648955	0.640316
C150	C	1.749359	-0.148955	1.140316
N151	N	1.340269	-0.648949	0.640314
N152	N	1.840269	-0.148949	1.140314
H153	H	0.919439	-0.772635	0.762038
H154	H	1.419439	-0.272635	1.262038
C155	C	1.242910	-0.791456	1.121841
C156	C	1.742910	-0.291456	1.621841
N157	N	1.187217	-0.847819	1.167287
N158	N	1.687217	-0.347819	1.667287
H159	H	1.262065	-0.772087	0.907102
H160	H	1.762065	-0.272087	1.407102
H161	H	0.819875	-0.648985	0.640371
H162	H	1.319875	-0.148985	1.140371
H163	H	1.470951	-0.945913	0.329184
H164	H	1.970951	-0.445913	0.829184
C165	C	0.788458	-0.376351	0.372089
C166	C	1.288458	0.123649	0.872089
N167	N	0.697547	-0.376353	0.372107
N168	N	1.197547	0.123647	0.872107
H169	H	1.384033	-0.648647	0.807606
H170	H	1.884033	-0.148647	1.307606
H171	H	0.919310	-0.252692	0.250383
H172	H	1.419310	0.247308	0.750383
