data_functionalizedCrystal
_audit_creation_method	'MofGen! by Chris Wilmer'
_symmetry_space_group_name_H-M	'P1'
_symmetry_Int_Tables_number	1
_symmetry_cell_setting	triclinic
loop_
_symmetry_equiv_pos_as_xyz
  x,y,z
_cell_length_a	10.723022
_cell_length_b	12.503572
_cell_length_c	10.723024
_cell_angle_alpha	86.442056
_cell_angle_beta	84.467548
_cell_angle_gamma	93.551559
loop_
_atom_site_label
_atom_site_type_symbol
_atom_site_fract_x
_atom_site_fract_y
_atom_site_fract_z
O1	O	1.664323	0.089311	0.167861
O2	O	1.301171	0.089314	0.184616
O3	O	1.491123	0.089308	-0.005337
O4	O	1.474371	0.089317	0.357814
O5	O	1.476838	-0.089333	0.008972
O6	O	1.286886	-0.089327	0.198925
O7	O	1.650038	-0.089331	0.182170
Cu8	Cu	1.467157	-0.105640	0.191855
Cu9	Cu	1.484051	0.105624	0.174932
O10	O	1.460085	-0.089325	0.372124
C11	C	1.247529	-0.000006	0.190552
C12	C	1.108974	-0.000005	0.186905
C13	C	0.890796	-0.000000	0.289421
C14	C	1.033999	-0.000002	0.293192
N15	N	1.455284	-0.254232	0.203756
C16	C	1.437818	-0.473347	0.221275
C17	C	1.513397	-0.526676	0.145506
C18	C	1.503678	-0.648599	0.155253
C19	C	1.447535	-0.351413	0.211529
C20	C	1.703680	-0.000008	0.176234
C21	C	1.842235	-0.000002	0.179881
C22	C	1.482762	-0.000011	-0.044682
C23	C	1.479114	-0.000007	-0.183237
N24	N	1.495935	0.254216	0.163020
C25	C	1.585402	-0.000007	-0.258220
C26	C	1.581635	-0.000003	-0.401424
C27	C	1.468447	-0.000003	0.411469
C28	C	1.472095	0.000000	0.550023
H29	H	0.906678	0.000002	0.088892
H30	H	1.365820	-0.519252	0.293459
C31	C	1.609482	-0.465475	0.049316
C32	C	1.730285	-0.492591	0.072438
C33	C	1.818772	-0.436180	-0.016154
H34	H	1.603374	-0.390485	0.055484
H35	H	1.593679	-0.483822	-0.032642
H36	H	1.746084	-0.474236	0.154375
H37	H	1.736434	-0.567570	0.066260
H38	H	1.802969	-0.454528	-0.098112
H39	H	1.812653	-0.361194	-0.009979
H40	H	1.900746	-0.454578	-0.000485
H41	H	1.679187	-0.000014	-0.216398
C42	C	1.703080	0.000166	-0.487193
C43	C	1.779822	0.092059	-0.471337
C44	C	1.891718	0.092245	-0.550317
H45	H	1.684604	0.000224	-0.572069
H46	H	1.745417	-0.062098	-0.466629
H47	H	1.737494	0.154308	-0.491910
H48	H	1.798333	0.092022	-0.386478
H49	H	1.934055	0.029981	-0.529752
H50	H	1.873230	0.092300	-0.635188
H51	H	1.943806	0.154588	-0.539561
H52	H	1.381099	-0.000008	-0.385551
H53	H	1.385329	0.000001	-0.225059
H54	H	0.826355	0.000008	0.380409
H55	H	1.067173	0.000022	0.093111
C56	C	1.089984	0.000063	0.418125
C57	C	1.220892	0.000091	0.397026
C58	C	1.272511	0.000170	0.512086
H59	H	1.058153	-0.062211	0.469344
H60	H	1.068045	0.062390	0.459263
H61	H	1.242821	-0.062229	0.355907
H62	H	1.252758	0.062361	0.345826
H63	H	1.250572	0.062496	0.553223
H64	H	1.240671	-0.062106	0.563296
H65	H	1.361338	0.000198	0.497785
