data_functionalizedCrystal
_audit_creation_method	'MofGen! by Chris Wilmer'
_symmetry_space_group_name_H-M	'P1'
_symmetry_Int_Tables_number	1
_symmetry_cell_setting	triclinic
loop_
_symmetry_equiv_pos_as_xyz
  x,y,z
_cell_length_a	10.967926
_cell_length_b	19.188924
_cell_length_c	9.482900
_cell_angle_alpha	99.300357
_cell_angle_beta	92.549900
_cell_angle_gamma	83.944562
loop_
_atom_site_label
_atom_site_type_symbol
_atom_site_fract_x
_atom_site_fract_y
_atom_site_fract_z
O1	O	1.609558	0.123228	0.282342
O2	O	1.260336	0.124759	0.194848
O3	O	1.445026	0.022634	0.241137
O4	O	1.424867	0.225354	0.236052
O5	O	1.407511	0.043465	0.473527
O6	O	1.222821	0.145590	0.427238
O7	O	1.572042	0.144060	0.514732
Cu8	Cu	1.394006	0.146727	0.492204
Cu9	Cu	1.438372	0.122092	0.217376
O10	O	1.387352	0.246185	0.468442
C11	C	1.196900	0.133489	0.299849
C12	C	1.063773	0.128459	0.266496
C13	C	0.984987	0.137008	0.372011
C14	C	0.847393	0.131809	0.337541
C15	C	1.425617	0.007020	0.357170
C16	C	1.423660	-0.070542	0.356684
C17	C	1.443197	-0.118323	0.229779
C18	C	1.441344	-0.191201	0.229304
C19	C	1.419977	-0.216296	0.355747
C20	C	1.400431	-0.168504	0.482666
C21	C	1.402272	-0.095627	0.483135
N22	N	1.470110	-0.325598	0.466400
N23	N	1.468365	-0.394829	0.465946
C24	C	1.414424	-0.435868	0.354341
N25	N	1.362313	-0.405064	0.243189
N26	N	1.364065	-0.335828	0.243640
C27	C	1.417977	-0.295317	0.355252
C28	C	1.431951	-0.562672	0.226912
C29	C	1.430089	-0.635550	0.226440
C30	C	1.389188	-0.612853	0.479809
C31	C	1.391038	-0.539976	0.480274
C32	C	1.412426	-0.514890	0.353823
C33	C	1.635479	0.135329	0.409727
C34	C	1.768607	0.140359	0.443071
C35	C	1.406762	0.261799	0.352406
C36	C	1.408720	0.339360	0.352883
N37	N	1.362810	0.164054	0.685505
N38	N	1.469578	0.104759	0.024077
C39	C	1.429162	0.127199	0.774335
C40	C	1.403216	0.141621	0.935249
H41	H	0.803013	0.151525	0.558934
H42	H	1.029361	0.117290	0.150642
Cl43	Cl	1.366475	-0.479905	0.639821
Cl44	Cl	1.546259	0.061832	0.707770
H45	H	1.019401	0.148171	0.487865
Cl46	Cl	1.587205	0.039709	0.957654
H47	H	1.327190	0.183851	0.978319
H48	H	1.286790	0.206282	0.728582
Cl49	Cl	1.470076	-0.086790	0.070810
Cl50	Cl	0.794281	0.114560	0.158658
H51	H	1.457246	-0.230111	0.125958
H52	H	1.371781	-0.633284	0.582759
H53	H	1.383030	-0.188941	0.585616
H54	H	1.445993	-0.674454	0.123093
H55	H	1.449359	-0.542246	0.123946
Cl56	Cl	1.377708	-0.035556	0.642686
