data_functionalizedCrystal
_audit_creation_method	'MofGen! by Chris Wilmer'
_symmetry_space_group_name_H-M	'P1'
_symmetry_Int_Tables_number	1
_symmetry_cell_setting	triclinic
loop_
_symmetry_equiv_pos_as_xyz
  x,y,z
_cell_length_a	12.827892
_cell_length_b	18.215407
_cell_length_c	18.215399
_cell_angle_alpha	90.016824
_cell_angle_beta	89.973753
_cell_angle_gamma	89.984160
loop_
_atom_site_label
_atom_site_type_symbol
_atom_site_fract_x
_atom_site_fract_y
_atom_site_fract_z
Zn1	Zn	-0.416006	-1.125099	-0.416137
Zn2	Zn	0.083994	-0.625099	0.083863
Zn3	Zn	-0.590773	-1.125034	-0.293079
Zn4	Zn	-0.090773	-0.625034	0.206921
Zn5	Zn	-0.416048	-1.002038	-0.293084
Zn6	Zn	0.083952	-0.502038	0.206916
Zn7	Zn	-0.590707	-1.002017	-0.416104
Zn8	Zn	-0.090707	-0.502017	0.083896
O9	O	-0.503384	-1.063547	-0.354601
O10	O	-0.003384	-0.563547	0.145399
O11	O	-0.439200	-1.228074	-0.399825
O12	O	0.060800	-0.728074	0.100175
O13	O	-0.567640	-1.108700	-0.190096
O14	O	-0.067640	-0.608700	0.309904
O15	O	-0.269806	-1.018398	-0.309423
O16	O	0.230194	-0.518398	0.190577
O17	O	-0.567600	-1.228027	-0.309415
O18	O	-0.067600	-0.728027	0.190585
O19	O	-0.269776	-1.108810	-0.399829
O20	O	0.230224	-0.608810	0.100171
O21	O	-0.439270	-1.018335	-0.190099
O22	O	0.060730	-0.518335	0.309901
O23	O	-0.439207	-0.899051	-0.309392
O24	O	0.060793	-0.399051	0.190608
O25	O	-0.567488	-1.018363	-0.519093
O26	O	-0.067488	-0.518363	-0.019093
O27	O	-0.567528	-0.899036	-0.399774
O28	O	-0.067528	-0.399036	0.100226
O29	O	-0.439136	-1.108790	-0.519117
O30	O	0.060864	-0.608790	-0.019117
O31	O	-0.737000	-1.108680	-0.309383
O32	O	-0.237000	-0.608680	0.190617
O33	O	-0.736952	-1.018300	-0.399769
O34	O	-0.236952	-0.518300	0.100231
C35	C	-0.503366	-0.872341	-0.354580
C36	C	-0.003366	-0.372341	0.145420
C37	C	-0.503383	-0.790542	-0.354589
C38	C	-0.003383	-0.290542	0.145411
C39	C	-0.774894	-1.063501	-0.354588
C40	C	-0.274894	-0.563501	0.145412
C41	C	-0.891047	-1.063549	-0.354607
C42	C	-0.391047	-0.563549	0.145393
C43	C	-0.503300	-1.063582	-0.546554
C44	C	-0.003300	-0.563582	-0.046554
C45	C	-0.503265	-1.063596	-0.628353
C46	C	-0.003265	-0.563596	-0.128353
C47	C	-0.942821	-1.108324	-0.309931
C48	C	-0.442821	-0.608324	0.190069
C49	C	-1.062871	-1.108375	-0.309950
C50	C	-0.562871	-0.608375	0.190050
C51	C	-0.230814	-1.063613	-0.354630
C52	C	0.269186	-0.563613	0.145370
C53	C	-0.114660	-1.063641	-0.354643
C54	C	0.385340	-0.563641	0.145357
C55	C	-0.503402	-1.255500	-0.354623
C56	C	-0.003402	-0.755500	0.145377
C57	C	-0.503410	-1.337299	-0.354632
C58	C	-0.003410	-0.837299	0.145368
C59	C	-0.570305	-0.602359	-0.401592
C60	C	-0.070305	-0.102359	0.098408
C61	C	-0.570309	-0.525501	-0.401601
C62	C	-0.070309	-0.025501	0.098399
C63	C	-0.436481	-0.525486	-0.307627
C64	C	0.063519	-0.025486	0.192373
C65	C	-0.436473	-0.602344	-0.307622
C66	C	0.063527	-0.102344	0.192378
C67	C	-0.503391	-0.640778	-0.354603
C68	C	-0.003391	-0.140778	0.145397
C69	C	-0.503402	-0.487062	-0.354617
C70	C	-0.003402	0.012938	0.145383
C71	C	-0.503405	-0.403729	-0.354627
C72	C	-0.003405	0.096271	0.145373
C73	C	-0.503387	-0.724117	-0.354595
C74	C	-0.003387	-0.224117	0.145405
C75	C	-0.436377	-1.016583	-0.816550
C76	C	0.063623	-0.516583	-0.316550
C77	C	-0.436356	-1.016596	-0.893409
C78	C	0.063644	-0.516596	-0.393409
C79	C	-0.570027	-1.110698	-0.893394
C80	C	-0.070027	-0.610698	-0.393394
C81	C	-0.570053	-1.110681	-0.816537
C82	C	-0.070053	-0.610681	-0.316537
C83	C	-0.503222	-1.063625	-0.778117
C84	C	-0.003222	-0.563625	-0.278117
C85	C	-0.503175	-1.063654	-0.931833
C86	C	-0.003175	-0.563654	-0.431833
C87	C	-0.503153	-1.063669	-1.015167
C88	C	-0.003153	-0.563669	-0.515167
C89	C	-0.503245	-1.063609	-0.694778
C90	C	-0.003245	-0.563609	-0.194778
C91	C	-0.503391	-1.063555	-0.163395
C92	C	-0.003391	-0.563555	0.336605
C93	C	-0.503133	-1.063682	-0.081597
C94	C	-0.003133	-0.563682	0.418403
H95	H	-0.898272	-1.146625	-0.271671
H96	H	-0.398272	-0.646625	0.228329
H97	H	-0.382000	-0.494184	-0.269375
H98	H	0.118000	0.005816	0.230625
O99	O	-1.061607	-1.017800	-0.400202
O100	O	-0.561607	-0.517800	0.099798
C101	C	-1.028179	-0.892605	-0.435820
C102	C	-0.528179	-0.392605	0.064180
C103	C	-1.088317	-0.944435	-0.384167
C104	C	-0.588317	-0.444435	0.115833
H105	H	-1.049769	-0.833279	-0.422885
H106	H	-0.549769	-0.333279	0.077115
H107	H	-0.940809	-0.900648	-0.427673
H108	H	-0.440809	-0.400648	0.072327
H109	H	-1.049494	-0.905528	-0.495185
H110	H	-0.549494	-0.405528	0.004815
H111	H	-1.067090	-0.931544	-0.324783
H112	H	-0.567090	-0.431544	0.175217
H113	H	-1.175672	-0.936382	-0.392377
H114	H	-0.675672	-0.436382	0.107623
H115	H	-0.624490	-1.148989	-0.785244
H116	H	-0.124490	-0.648989	-0.285244
O117	O	-0.944300	-1.017961	-0.400294
O118	O	-0.444300	-0.517961	0.099706
C119	C	-1.067524	-1.008132	-0.499617
C120	C	-0.567524	-0.508132	0.000383
C121	C	-1.007302	-1.059843	-0.447909
C122	C	-0.507302	-0.559843	0.052091
H123	H	-1.118459	-1.041974	-0.538137
H124	H	-0.618459	-0.541974	-0.038137
H125	H	-1.118778	-0.969739	-0.465810
H126	H	-0.618778	-0.469739	0.034190
H127	H	-1.009852	-0.974395	-0.533217
H128	H	-0.509852	-0.474395	-0.033217
H129	H	-1.064899	-1.093628	-0.414298
H130	H	-0.564899	-0.593628	0.085702
H131	H	-0.956033	-1.098188	-0.481758
H132	H	-0.456033	-0.598188	0.018242
H133	H	-0.381977	-0.633625	-0.269358
H134	H	0.118023	-0.133625	0.230642
O135	O	-0.634840	-1.156385	-0.930831
O136	O	-0.134840	-0.656385	-0.430831
C137	C	-0.694087	-1.198086	-1.049227
C138	C	-0.194087	-0.698086	-0.549227
C139	C	-0.620617	-1.146318	-1.006925
C140	C	-0.120617	-0.646318	-0.506925
H141	H	-0.682629	-1.189954	-1.110756
H142	H	-0.182629	-0.689954	-0.610756
H143	H	-0.675743	-1.257445	-1.034177
H144	H	-0.175743	-0.757445	-0.534177
H145	H	-0.778344	-1.185148	-1.034058
H146	H	-0.278344	-0.685148	-0.534058
H147	H	-0.536336	-1.159190	-1.022071
H148	H	-0.036336	-0.659190	-0.522071
H149	H	-0.639050	-1.086975	-1.021978
H150	H	-0.139050	-0.586975	-0.521978
H151	H	-0.624792	-0.633650	-0.439849
H152	H	-0.124792	-0.133650	0.060151
O153	O	-0.371436	-0.970800	-0.779342
O154	O	0.128564	-0.470800	-0.279342
C155	C	-0.238818	-0.877489	-0.787472
C156	C	0.261182	-0.377489	-0.287472
C157	C	-0.312325	-0.929293	-0.829698
C158	C	0.187675	-0.429293	-0.329698
H159	H	-0.190992	-0.843928	-0.828166
H160	H	0.309008	-0.343928	-0.328166
H161	H	-0.286760	-0.838942	-0.751500
H162	H	0.213240	-0.338942	-0.251500
H163	H	-0.184231	-0.911288	-0.751479
H164	H	0.315769	-0.411288	-0.251479
H165	H	-0.366927	-0.895553	-0.865731
H166	H	0.133073	-0.395553	-0.365731
H167	H	-0.264318	-0.967842	-0.865624
H168	H	0.235682	-0.467842	-0.365624
O169	O	-0.635410	-0.488295	-0.447267
O170	O	-0.135410	0.011705	0.052733
C171	C	-0.768106	-0.496425	-0.540505
C172	C	-0.268106	0.003575	-0.040505
C173	C	-0.694449	-0.538651	-0.488809
C174	C	-0.194449	-0.038651	0.011191
H175	H	-0.815843	-0.537120	-0.574116
H176	H	-0.315843	-0.037120	-0.074116
H177	H	-0.822762	-0.460440	-0.506692
H178	H	-0.322762	0.039560	-0.006692
H179	H	-0.720182	-0.460445	-0.579015
H180	H	-0.220182	0.039555	-0.079015
H181	H	-0.742289	-0.574670	-0.450289
H182	H	-0.242289	-0.074670	0.049711
H183	H	-0.639790	-0.574590	-0.522668
H184	H	-0.139790	-0.074590	-0.022668
H185	H	-0.381926	-0.978290	-0.924698
H186	H	0.118074	-0.478290	-0.424698
H187	H	-1.107395	-1.146707	-0.271699
H188	H	-0.607395	-0.646707	0.228301
