data_functionalizedCrystal
_audit_creation_method	'MofGen! by Chris Wilmer'
_symmetry_space_group_name_H-M	'P1'
_symmetry_Int_Tables_number	1
_symmetry_cell_setting	triclinic
loop_
_symmetry_equiv_pos_as_xyz
  x,y,z
_cell_length_a	15.995350
_cell_length_b	14.519709
_cell_length_c	12.996460
_cell_angle_alpha	89.999966
_cell_angle_beta	89.996086
_cell_angle_gamma	96.413740
loop_
_atom_site_label
_atom_site_type_symbol
_atom_site_fract_x
_atom_site_fract_y
_atom_site_fract_z
O1	O	0.109760	-1.223669	-0.085428
O2	O	0.122686	-0.955169	-0.085458
O3	O	-0.005654	-1.096759	-0.085441
O4	O	0.238099	-1.082080	-0.085445
O5	O	-0.005661	-1.096744	0.085693
O6	O	0.122678	-0.955154	0.085675
O7	O	0.109753	-1.223655	0.085706
Cu8	Cu	0.116215	-1.089403	0.101317
Cu9	Cu	0.116224	-1.089421	-0.101069
O10	O	0.238092	-1.082065	0.085689
C11	C	-0.036853	-1.096145	0.000124
C12	C	-0.129806	-1.094325	0.000118
C13	C	0.122080	-0.920803	0.000104
C14	C	0.120275	-0.818425	0.000092
C15	C	0.110359	-1.258021	0.000141
C16	C	0.112164	-1.360399	0.000146
C17	C	-0.467563	-1.087791	0.000120
C18	C	-0.420280	-0.986954	-0.000275
C19	C	-0.323587	-0.988773	0.000111
C20	C	-0.299998	-1.091032	0.000118
C21	C	-0.341005	-1.140761	0.097848
C22	C	-0.437645	-1.138227	0.097930
C23	C	-0.437992	-1.140327	-0.096681
C24	C	-0.341046	-1.140303	-0.097973
C25	C	-0.205298	-1.092869	0.000121
C26	C	-0.562264	-1.085957	0.000125
C27	C	0.269292	-1.082679	0.000122
C28	C	0.362245	-1.084498	0.000121
N29	N	0.116209	-1.089398	0.243664
C30	C	0.113629	-0.443541	0.000139
C31	C	0.115475	-0.547846	0.000126
C32	C	0.116952	-0.630980	0.000115
C33	C	0.118797	-0.735291	0.000104
N34	N	0.116223	-1.089433	-0.243416
C35	C	0.116224	-1.089419	0.663478
C36	C	0.116223	-1.089411	0.546673
C37	C	0.116217	-1.089409	0.453575
C38	C	0.116214	-1.089399	0.336762
H39	H	-0.295221	-0.949683	-0.069946
O40	O	-0.307364	-1.099542	0.184682
C41	C	-0.333247	-1.018582	0.341329
C42	C	-0.371456	-1.065259	0.243047
H43	H	-0.385045	-0.990835	0.388533
H44	H	-0.302315	-1.071417	0.388856
H45	H	-0.284075	-0.958877	0.319314
H46	H	-0.420661	-1.124958	0.264969
H47	H	-0.402335	-1.012366	0.195545
H48	H	-0.326767	-1.215887	0.101488
H49	H	-0.469641	-1.214674	-0.097333
H50	H	-0.458578	-1.107365	-0.170754
H51	H	-0.313849	-1.103946	-0.170271
H52	H	-0.469782	-1.212261	0.102369
O53	O	-0.442318	-0.938889	-0.083961
C54	C	-0.395273	-0.856910	-0.238306
C55	C	-0.370196	-0.911343	-0.143584
H56	H	-0.336974	-0.834607	-0.286525
H57	H	-0.442690	-0.902815	-0.286546
H58	H	-0.424722	-0.792948	-0.211924
H59	H	-0.340711	-0.975307	-0.169874
H60	H	-0.322815	-0.865373	-0.095364
O61	O	-0.322448	-1.229208	-0.105154
C62	C	-0.257904	-1.341410	-0.205800
C63	C	-0.278922	-1.240700	-0.197796
H64	H	-0.222726	-1.350739	-0.280705
H65	H	-0.216823	-1.357481	-0.137883
H66	H	-0.318666	-1.390590	-0.204763
H67	H	-0.218205	-1.191454	-0.198862
H68	H	-0.320037	-1.224706	-0.265709
O69	O	-0.443871	-0.939131	0.082826
C70	C	-0.557943	-0.879882	0.173439
C71	C	-0.531342	-0.934070	0.079292
H72	H	-0.628661	-0.875756	0.170601
H73	H	-0.541562	-0.916823	0.246916
H74	H	-0.523277	-0.806887	0.172461
H75	H	-0.565993	-1.007070	0.080170
H76	H	-0.547706	-0.897057	0.005856
O77	O	-0.290501	-0.941696	0.083789
C78	C	-0.271746	-0.795971	0.174222
C79	C	-0.309274	-0.849179	0.079413
H80	H	-0.286895	-0.721157	0.170705
H81	H	-0.299898	-0.830225	0.247204
H82	H	-0.200602	-0.797134	0.174911
H83	H	-0.380417	-0.848034	0.078625
H84	H	-0.281057	-0.814909	0.006474
O85	O	-0.459614	-1.095093	0.185137
C86	C	-0.540758	-1.107302	0.341738
C87	C	-0.515939	-1.156275	0.243030
H88	H	-0.586314	-1.156740	0.388561
H89	H	-0.482043	-1.085515	0.389410
H90	H	-0.572336	-1.043361	0.320276
H91	H	-0.484380	-1.220248	0.264399
H92	H	-0.574682	-1.177993	0.195383
