data_functionalizedCrystal
_audit_creation_method	'MofGen! by Chris Wilmer'
_symmetry_space_group_name_H-M	'P1'
_symmetry_Int_Tables_number	1
_symmetry_cell_setting	triclinic
loop_
_symmetry_equiv_pos_as_xyz
  x,y,z
_cell_length_a	11.026607
_cell_length_b	10.967954
_cell_length_c	10.066280
_cell_angle_alpha	92.227217
_cell_angle_beta	97.677864
_cell_angle_gamma	83.618715
loop_
_atom_site_label
_atom_site_type_symbol
_atom_site_fract_x
_atom_site_fract_y
_atom_site_fract_z
O1	O	1.582398	-0.483600	-0.227202
O2	O	1.230498	-0.426353	-0.213742
O3	O	1.420349	-0.282294	-0.179861
O4	O	1.392548	-0.627658	-0.261083
O5	O	1.451164	-0.320571	0.038112
O6	O	1.261313	-0.464629	0.004231
O7	O	1.613214	-0.521876	-0.009229
Zn8	Zn	1.442156	-0.499330	0.032109
Zn9	Zn	1.401556	-0.448899	-0.255080
O10	O	1.423363	-0.665935	-0.043110
C11	C	1.200954	-0.434930	-0.102273
C12	C	1.067014	-0.403447	-0.094870
C13	C	1.436061	-0.256531	-0.060318
C14	C	1.436953	-0.122734	-0.028861
N15	N	1.469874	-0.533749	0.228107
C16	C	0.991072	-0.490376	-0.115315
C17	C	0.852637	-0.457839	-0.107665
C18	C	1.642757	-0.513299	-0.120701
C19	C	1.776696	-0.544781	-0.128112
C20	C	1.422315	0.095028	-0.095239
C21	C	1.421388	-0.043255	-0.127761
C22	C	1.407649	0.308302	-0.162657
C23	C	1.406752	0.174508	-0.194125
C24	C	1.432533	-0.487361	0.463976
C25	C	1.411170	-0.460857	0.313052
N26	N	1.373838	-0.414480	0.548922
H27	H	0.815167	-0.359315	-0.084529
C28	C	1.440801	0.140978	0.049697
C29	C	1.338154	0.221028	0.075635
C30	C	1.355150	0.263390	0.209132
H31	H	1.450402	0.073308	0.107667
H32	H	1.512355	0.183109	0.064681
H33	H	1.266620	0.178898	0.060664
H34	H	1.328535	0.288718	0.017698
H35	H	1.426703	0.305521	0.224117
H36	H	1.364753	0.195713	0.267091
H37	H	1.285513	0.317717	0.226745
H38	H	1.407366	-0.077578	-0.236505
C39	C	1.322976	-0.351461	0.261314
C40	C	1.272944	-0.289376	0.368927
C41	C	1.191684	-0.188607	0.321314
H42	H	1.366102	-0.297471	0.218253
H43	H	1.258647	-0.379216	0.199089
H44	H	1.337262	-0.261620	0.431129
H45	H	1.229796	-0.343331	0.411999
H46	H	1.127356	-0.216362	0.259089
H47	H	1.234820	-0.134628	0.278253
H48	H	1.157719	-0.146477	0.394319
C49	C	1.455408	-0.076809	0.116091
C50	C	1.352744	0.003224	0.142009
C51	C	1.369697	0.045562	0.275518
H52	H	1.464997	-0.144492	0.174043
H53	H	1.526957	-0.034673	0.131115
H54	H	1.281216	-0.038911	0.126999
H55	H	1.343138	0.070927	0.084091
H56	H	1.441245	0.087698	0.290542
H57	H	1.379287	-0.022128	0.333458
H58	H	1.300048	0.099877	0.293118
C59	C	1.520807	-0.596659	0.515817
C60	C	1.638544	-0.584159	0.484052
C61	C	1.719893	-0.684829	0.531767
H62	H	1.523618	-0.600042	0.610340
H63	H	1.493321	-0.670050	0.475184
H64	H	1.666024	-0.510788	0.524689
H65	H	1.635773	-0.580792	0.389537
H66	H	1.692407	-0.758220	0.491134
H67	H	1.722692	-0.688204	0.626288
H68	H	1.799783	-0.676367	0.510210
C69	C	1.387850	0.128620	-0.339062
C70	C	1.282286	0.066685	-0.360716
C71	C	1.264824	0.024399	-0.494216
H72	H	1.378117	0.196318	-0.397007
H73	H	1.457345	0.074227	-0.356980
H74	H	1.212807	0.121076	-0.342812
H75	H	1.291992	-0.001028	-0.302803
H76	H	1.334319	-0.029995	-0.512134
H77	H	1.255096	0.092104	-0.552150
H78	H	1.193205	-0.017638	-0.508922
C79	C	1.558153	-0.643054	0.279932
C80	C	1.675888	-0.630553	0.248162
C81	C	1.757237	-0.731227	0.295865
H82	H	1.560968	-0.646444	0.374456
H83	H	1.530664	-0.716442	0.239295
H84	H	1.703370	-0.557185	0.288804
H85	H	1.673112	-0.627179	0.153647
H86	H	1.729748	-0.804615	0.255227
H87	H	1.760041	-0.734608	0.390386
H88	H	1.837126	-0.722764	0.274305
H89	H	1.028544	-0.588888	-0.138475
H90	H	0.814161	-0.643300	-0.151273
C91	C	1.016818	-0.272147	-0.064064
C92	C	0.889483	-0.265971	-0.062646
C93	C	0.843202	-0.145032	-0.034290
H94	H	1.055016	-0.246521	0.021091
H95	H	1.033585	-0.219924	-0.130967
H96	H	0.872726	-0.318176	0.004253
H97	H	0.851252	-0.291572	-0.147789
H98	H	0.859970	-0.092809	-0.101193
H99	H	0.881409	-0.119416	0.050863
H100	H	0.756800	-0.140823	-0.033337
H101	H	1.307767	-0.332467	0.509913
