data_functionalizedCrystal
_audit_creation_method	'MofGen! by Chris Wilmer'
_symmetry_space_group_name_H-M	'P1'
_symmetry_Int_Tables_number	1
_symmetry_cell_setting	triclinic
loop_
_symmetry_equiv_pos_as_xyz
  x,y,z
_cell_length_a	12.759395
_cell_length_b	19.120786
_cell_length_c	12.759387
_cell_angle_alpha	92.476434
_cell_angle_beta	90.019431
_cell_angle_gamma	92.465113
loop_
_atom_site_label
_atom_site_type_symbol
_atom_site_fract_x
_atom_site_fract_y
_atom_site_fract_z
Zn1	Zn	1.588347	-0.279597	0.576089
Zn2	Zn	2.088347	0.220403	1.076089
Zn3	Zn	1.580708	-0.397073	0.392895
Zn4	Zn	2.080708	0.102927	0.892895
Zn5	Zn	1.412643	-0.279632	0.400427
Zn6	Zn	1.912643	0.220368	0.900427
Zn7	Zn	1.405111	-0.397019	0.568541
Zn8	Zn	1.905111	0.102981	1.068541
O9	O	1.496703	-0.338330	0.484488
O10	O	1.996703	0.161670	0.984488
O11	O	1.734355	-0.295189	0.551795
O12	O	2.234355	0.204811	1.051795
O13	O	1.558369	-0.381531	0.246871
O14	O	2.058369	0.118469	0.746871
O15	O	1.442300	-0.181337	0.430041
O16	O	1.942300	0.318663	0.930041
O17	O	1.728742	-0.381497	0.417203
O18	O	2.228742	0.118503	0.917203
O19	O	1.571389	-0.181311	0.559099
O20	O	2.071389	0.318689	1.059099
O21	O	1.434893	-0.295248	0.252405
O22	O	1.934893	0.204752	0.752405
O23	O	1.264624	-0.295196	0.422721
O24	O	1.764624	0.204804	0.922721
O25	O	1.429463	-0.381406	0.716566
O26	O	1.929463	0.118594	1.216566
O27	O	1.259090	-0.381440	0.546234
O28	O	1.759090	0.118560	1.046234
O29	O	1.564086	-0.295137	0.722112
O30	O	2.064086	0.204863	1.222112
O31	O	1.551066	-0.495357	0.409884
O32	O	2.051066	0.004643	0.909884
O33	O	1.422056	-0.495317	0.538930
O34	O	1.922056	0.004683	1.038930
C35	C	1.223736	-0.338317	0.484476
C36	C	1.723736	0.161683	0.984476
C37	C	1.106959	-0.338327	0.484495
C38	C	1.606959	0.161673	0.984495
C39	C	1.112774	-0.248600	0.624853
C40	C	1.612774	0.251400	1.124853
C41	C	1.060821	-0.203744	0.695041
C42	C	1.560821	0.296256	1.195041
C43	C	0.951098	-0.203757	0.695053
C44	C	1.451098	0.296243	1.195053
C45	C	0.893327	-0.248628	0.624868
C46	C	1.393327	0.251372	1.124868
C47	C	0.945280	-0.293483	0.554681
C48	C	1.445280	0.206517	1.054681
C49	C	1.055005	-0.293467	0.554679
C50	C	1.555005	0.206533	1.054679
C51	C	0.939465	-0.383207	0.414319
C52	C	1.439465	0.116793	0.914319
C53	C	1.049187	-0.383199	0.414310
C54	C	1.549187	0.116801	0.914310
C55	C	0.881693	-0.428078	0.344135
C56	C	1.381693	0.071922	0.844135
C57	C	0.933646	-0.472938	0.273951
C58	C	1.433646	0.027062	0.773951
C59	C	1.043376	-0.472924	0.273942
C60	C	1.543376	0.027076	0.773942
C61	C	1.101140	-0.428054	0.344123
C62	C	1.601140	0.071946	0.844123
C63	C	1.484943	-0.520823	0.472793
C64	C	1.984943	-0.020823	0.972793
C65	C	1.480008	-0.598893	0.467825
C66	C	1.980008	-0.098893	0.967825
C67	C	1.544850	-0.635498	0.532739
C68	C	2.044850	-0.135498	1.032739
C69	C	1.540209	-0.708854	0.528073
C70	C	2.040209	-0.208854	1.028073
C71	C	1.470731	-0.745604	0.458487
C72	C	1.970731	-0.245604	0.958487
C73	C	1.405883	-0.708995	0.393570
C74	C	1.905883	-0.208995	0.893570
C75	C	1.410519	-0.635640	0.398242
C76	C	1.910519	-0.135640	0.898242
C77	C	1.453368	-0.967091	0.441020
C78	C	1.953368	-0.467091	0.941020
C79	C	1.448738	-1.040451	0.436351
C80	C	1.948738	-0.540451	0.936351
C81	C	1.583064	-1.040304	0.570856
C82	C	2.083064	-0.540304	1.070856
C83	C	1.587698	-0.966949	0.575518
C84	C	2.087698	-0.466949	1.075518
C85	C	1.522846	-0.930346	0.510605
C86	C	2.022846	-0.430346	1.010605
C87	C	1.465988	-0.820585	0.453713
C88	C	1.965988	-0.320585	0.953713
C89	C	1.527585	-0.855365	0.515384
C90	C	2.027585	-0.355365	1.015384
C91	C	1.770735	-0.338345	0.484501
C92	C	2.270735	0.161655	0.984501
C93	C	1.887511	-0.338351	0.484506
C94	C	2.387511	0.161649	0.984506
C95	C	1.496786	-0.338262	0.758526
C96	C	1.996786	0.161738	1.258526
C97	C	1.496822	-0.338232	0.875305
C98	C	1.996822	0.161768	1.375305
C99	C	1.508537	-0.155126	0.496252
C100	C	2.008537	0.344874	0.996252
C101	C	1.513580	-0.077055	0.501265
C102	C	2.013580	0.422945	1.001265
C103	C	1.496683	-0.338348	0.211520
C104	C	1.996683	0.161652	0.711520
C105	C	1.496863	-0.338180	0.094754
C106	C	1.996863	0.161820	0.594754
C107	C	1.637013	-0.248406	0.881099
C108	C	2.137013	0.251594	1.381099
C109	C	1.707124	-0.203482	0.938858
C110	C	2.207124	0.296518	1.438858
C111	C	1.707151	-0.203457	1.048581
C112	C	2.207151	0.296543	1.548581
C113	C	1.637058	-0.248358	1.100548
C114	C	2.137058	0.251642	1.600548
C115	C	1.566947	-0.293282	1.042790
C116	C	2.066947	0.206718	1.542790
C117	C	1.566930	-0.293304	0.933064
C118	C	2.066930	0.206696	1.433064
C119	C	1.426752	-0.383104	1.036996
C120	C	1.926752	0.116896	1.536996
C121	C	1.426729	-0.383134	0.927272
C122	C	1.926729	0.116866	1.427272
C123	C	1.356659	-0.428005	1.088963
C124	C	1.856659	0.071995	1.588963
C125	C	1.286551	-0.472933	1.031204
C126	C	1.786551	0.027067	1.531204
C127	C	1.286528	-0.472958	0.921474
C128	C	1.786528	0.027042	1.421474
C129	C	1.356618	-0.428058	0.869513
C130	C	1.856618	0.071942	1.369513
H131	H	0.908798	-0.167227	0.752199
H132	H	1.408798	0.332773	1.252199
Cl133	Cl	1.328999	-0.589623	0.316633
Cl134	Cl	1.828999	-0.089623	0.816633
Cl135	Cl	1.675044	-0.920753	0.663003
Cl136	Cl	2.175044	-0.420753	1.163003
H137	H	0.803986	-0.248628	0.624877
H138	H	1.303986	0.251372	1.124877
H139	H	1.764191	-0.166923	0.896534
H140	H	2.264191	0.333077	1.396534
H141	H	1.593018	-0.738653	0.580925
H142	H	2.093018	-0.238653	1.080925
H143	H	1.635861	-1.070114	0.623706
H144	H	2.135861	-0.570114	1.123706
H145	H	1.190483	-0.428035	0.344118
H146	H	1.690483	0.071965	0.844118
Cl147	Cl	1.637085	-0.248318	1.238488
Cl148	Cl	2.137085	0.251682	1.738488
Cl149	Cl	1.356693	-0.427973	1.226901
Cl150	Cl	1.856693	0.072027	1.726901
Cl151	Cl	1.361392	-1.086650	0.348860
Cl152	Cl	1.861392	-0.586650	0.848860
Cl153	Cl	1.198377	-0.529433	0.848872
Cl154	Cl	1.698377	-0.029433	1.348872
H155	H	1.202117	-0.248582	0.624846
H156	H	1.702117	0.251418	1.124846
H157	H	0.886601	-0.509466	0.216808
H158	H	1.386601	-0.009466	0.716808
Cl159	Cl	1.378641	-0.866792	0.366242
Cl160	Cl	1.878641	-0.366792	0.866242
H161	H	1.085669	-0.509449	0.216784
H162	H	1.585669	-0.009449	0.716784
Cl163	Cl	1.614919	-0.809164	0.602867
Cl164	Cl	2.114919	-0.309164	1.102867
Cl165	Cl	1.636999	-0.248444	0.743160
Cl166	Cl	2.136999	0.251556	1.243160
Cl167	Cl	1.795276	-0.146970	1.121196
Cl168	Cl	2.295276	0.353030	1.621196
H169	H	1.400564	-0.937295	0.388163
H170	H	1.900564	-0.437295	0.888163
Cl171	Cl	1.318528	-0.755195	0.306100
Cl172	Cl	1.818528	-0.255195	0.806100
H173	H	1.229482	-0.509485	1.073524
H174	H	1.729482	-0.009485	1.573524
Cl175	Cl	1.632203	-0.589304	0.620219
Cl176	Cl	2.132203	-0.089304	1.120219
Cl177	Cl	1.133452	-0.147337	0.783267
Cl178	Cl	1.633452	0.352663	1.283267
Cl179	Cl	0.743756	-0.428091	0.344146
Cl180	Cl	1.243756	0.071909	0.844146
H181	H	1.356610	-0.428076	0.780171
H182	H	1.856610	0.071924	1.280171
