data_functionalizedCrystal
_audit_creation_method	'MofGen! by Chris Wilmer'
_symmetry_space_group_name_H-M	'P1'
_symmetry_Int_Tables_number	1
_symmetry_cell_setting	triclinic
loop_
_symmetry_equiv_pos_as_xyz
  x,y,z
_cell_length_a	16.959455
_cell_length_b	29.839131
_cell_length_c	16.959447
_cell_angle_alpha	89.970174
_cell_angle_beta	89.977004
_cell_angle_gamma	90.038723
loop_
_atom_site_label
_atom_site_type_symbol
_atom_site_fract_x
_atom_site_fract_y
_atom_site_fract_z
Zn1	Zn	1.208285	-0.178880	-0.447039
Zn2	Zn	1.708285	0.321120	0.052961
Zn3	Zn	1.208152	-0.254013	-0.314862
Zn4	Zn	1.708152	0.245987	0.185138
Zn5	Zn	1.076108	-0.178894	-0.314863
Zn6	Zn	1.576108	0.321106	0.185137
Zn7	Zn	1.076029	-0.253980	-0.446987
Zn8	Zn	1.576029	0.246020	0.053013
O9	O	1.142144	-0.216442	-0.380938
O10	O	1.642144	0.283558	0.119062
O11	O	1.318879	-0.188854	-0.429528
O12	O	1.818879	0.311146	0.070472
O13	O	1.190613	-0.244069	-0.204251
O14	O	1.690613	0.255931	0.295749
O15	O	1.093730	-0.116025	-0.332419
O16	O	1.593730	0.383975	0.167581
O17	O	1.318781	-0.244055	-0.332417
O18	O	1.818781	0.255945	0.167583
O19	O	1.190841	-0.116015	-0.429528
O20	O	1.690841	0.383985	0.070472
O21	O	1.093601	-0.188879	-0.204252
O22	O	1.593601	0.311121	0.295748
O23	O	0.965486	-0.188846	-0.332368
O24	O	1.465486	0.311154	0.167632
O25	O	1.093596	-0.243997	-0.557605
O26	O	1.593596	0.256003	-0.057605
O27	O	0.965428	-0.244011	-0.429439
O28	O	1.465428	0.255989	0.070561
O29	O	1.190764	-0.188822	-0.557643
O30	O	1.690764	0.311178	-0.057643
O31	O	1.190537	-0.316876	-0.332366
O32	O	1.690537	0.183124	0.167634
O33	O	1.093466	-0.316851	-0.429438
O34	O	1.593466	0.183149	0.070562
C35	C	0.936777	-0.216427	-0.380898
C36	C	1.436777	0.283573	0.119102
C37	C	0.848921	-0.216432	-0.380900
C38	C	1.348921	0.283568	0.119100
C39	C	0.477383	-0.245156	-0.330347
C40	C	0.977383	0.254844	0.169653
C41	C	0.477507	-0.187765	-0.431625
C42	C	0.977507	0.312235	0.068375
C43	C	0.560053	-0.187757	-0.431606
C44	C	1.060053	0.312243	0.068394
C45	C	0.601268	-0.216450	-0.380957
C46	C	1.101268	0.283550	0.119043
C47	C	0.559937	-0.245150	-0.330328
C48	C	1.059937	0.254850	0.169672
C49	C	0.601390	-0.159061	-0.482240
C50	C	1.101390	0.340939	0.017760
C51	C	0.683941	-0.159053	-0.482223
C52	C	1.183941	0.340947	0.017777
C53	C	0.725157	-0.187744	-0.431570
C54	C	1.225157	0.312256	0.068430
C55	C	0.683821	-0.216445	-0.380938
C56	C	1.183821	0.283555	0.119062
C57	C	0.725036	-0.245137	-0.330289
C58	C	1.225036	0.254863	0.169711
C59	C	0.683702	-0.273836	-0.279653
C60	C	1.183702	0.226164	0.220347
C61	C	0.601153	-0.273841	-0.279674
C62	C	1.101153	0.226159	0.220326
C63	C	0.807706	-0.187739	-0.431548
C64	C	1.307706	0.312261	0.068452
C65	C	0.807590	-0.245132	-0.330270
C66	C	1.307590	0.254868	0.169730
C67	C	1.142000	-0.333164	-0.380914
C68	C	1.642000	0.166836	0.119086
C69	C	1.142011	-0.383099	-0.380930
C70	C	1.642011	0.116901	0.119070
C71	C	1.091631	-0.739689	-0.431480
C72	C	1.591631	-0.239689	0.068520
C73	C	1.091527	-0.552016	-0.431455
C74	C	1.591527	-0.052016	0.068545
O75	O	1.048521	-0.527753	-0.474419
O76	O	1.548521	-0.027753	0.025581
N77	N	1.142094	-0.528544	-0.380953
N78	N	1.642094	-0.028544	0.119047
C79	C	1.192695	-0.551993	-0.330458
C80	C	1.692695	-0.051993	0.169542
O81	O	1.235708	-0.527723	-0.287509
O82	O	1.735708	-0.027723	0.212491
C83	C	1.192803	-0.739665	-0.330487
C84	C	1.692803	-0.239665	0.169513
C85	C	1.142226	-0.763135	-0.380986
C86	C	1.642226	-0.263135	0.119014
C87	C	1.041060	-0.763158	-0.481975
C88	C	1.541060	-0.263158	0.018025
C89	C	1.041084	-0.810073	-0.481978
C90	C	1.541084	-0.310073	0.018022
C91	C	1.091679	-0.833520	-0.431485
C92	C	1.591679	-0.333520	0.068515
C93	C	1.142250	-0.810050	-0.380989
C94	C	1.642250	-0.310050	0.119011
C95	C	1.243406	-0.763114	-0.279997
C96	C	1.743406	-0.263114	0.220003
C97	C	1.243430	-0.810035	-0.280010
C98	C	1.743430	-0.310035	0.219990
C99	C	1.192854	-0.833504	-0.330509
C100	C	1.692854	-0.333504	0.169491
C101	C	1.192869	-0.880412	-0.330499
C102	C	1.692869	-0.380412	0.169501
N103	N	1.142301	-0.903883	-0.381000
N104	N	1.642301	-0.403883	0.119000
C105	C	1.091706	-0.880437	-0.431493
C106	C	1.591706	-0.380437	0.068507
C107	C	1.192633	-0.453463	-0.330445
C108	C	1.692633	0.046537	0.169555
C109	C	1.192606	-0.406545	-0.330437
C110	C	1.692606	0.093455	0.169563
C111	C	1.091439	-0.406570	-0.431435
C112	C	1.591439	0.093430	0.068565
C113	C	1.091463	-0.453489	-0.431439
C114	C	1.591463	0.046511	0.068561
C115	C	1.142066	-0.476934	-0.380947
C116	C	1.642066	0.023066	0.119053
C117	C	1.091759	-0.978963	-0.431495
C118	C	1.591759	-0.478963	0.068505
C119	C	1.091785	-1.025883	-0.431490
C120	C	1.591785	-0.525883	0.068510
C121	C	1.192954	-1.025853	-0.330496
C122	C	1.692954	-0.525853	0.169504
C123	C	1.192926	-0.978938	-0.330496
C124	C	1.692926	-0.478938	0.169504
C125	C	1.142326	-0.955494	-0.381002
C126	C	1.642326	-0.455494	0.118998
O127	O	1.235859	-0.904703	-0.287563
O128	O	1.735859	-0.404703	0.212437
O129	O	1.048711	-0.904716	-0.474449
O130	O	1.548711	-0.404716	0.025551
C131	C	1.091608	-0.692773	-0.431477
C132	C	1.591608	-0.192773	0.068523
C133	C	1.142179	-0.669304	-0.380981
C134	C	1.642179	-0.169304	0.119019
C135	C	1.192774	-0.692750	-0.330488
C136	C	1.692774	-0.192750	0.169512
C137	C	1.142151	-0.622386	-0.380973
C138	C	1.642151	-0.122386	0.119027
C139	C	1.091556	-0.598940	-0.431466
C140	C	1.591556	-0.098940	0.068534
C141	C	1.040989	-0.622412	-0.481967
C142	C	1.540989	-0.122412	0.018033
C143	C	1.041013	-0.669327	-0.481970
C144	C	1.541013	-0.169327	0.018030
C145	C	1.243341	-0.669278	-0.279987
C146	C	1.743341	-0.169278	0.220013
C147	C	1.243313	-0.622363	-0.279987
C148	C	1.743313	-0.122363	0.220013
C149	C	1.192718	-0.598917	-0.330481
C150	C	1.692718	-0.098917	0.169519
C151	C	1.348312	-0.216457	-0.380978
C152	C	1.848312	0.283543	0.119022
C153	C	1.436168	-0.216463	-0.380996
C154	C	1.936168	0.283537	0.119004
C155	C	1.142186	-0.216404	-0.587106
C156	C	1.642186	0.283596	-0.087106
C157	C	1.142204	-0.216388	-0.674963
C158	C	1.642204	0.283612	-0.174963
C159	C	1.142309	-0.099263	-0.380980
C160	C	1.642309	0.400737	0.119020
C161	C	1.142380	-0.049329	-0.380997
C162	C	1.642380	0.450671	0.119003
C163	C	1.091764	-0.187606	-1.046445
C164	C	1.591764	0.312394	-0.546445
C165	C	1.192783	-0.245076	-1.046432
C166	C	1.692783	0.254924	-0.546432
C167	C	1.192770	-0.245086	-0.963886
C168	C	1.692770	0.254914	-0.463886
C169	C	1.142251	-0.216357	-0.922616
C170	C	1.642251	0.283643	-0.422616
C171	C	1.091747	-0.187617	-0.963892
C172	C	1.591747	0.312383	-0.463892
C173	C	1.243268	-0.273829	-0.922604
C174	C	1.743268	0.226171	-0.422604
C175	C	1.243255	-0.273841	-0.840053
C176	C	1.743255	0.226159	-0.340053
C177	C	1.192740	-0.245109	-0.798782
C178	C	1.692740	0.254891	-0.298782
C179	C	1.142235	-0.216367	-0.840062
C180	C	1.642235	0.283633	-0.340062
C181	C	1.091716	-0.187638	-0.798792
C182	C	1.591716	0.312362	-0.298792
C183	C	1.041214	-0.158894	-0.840071
C184	C	1.541214	0.341106	-0.340071
C185	C	1.041232	-0.158885	-0.922620
C186	C	1.541232	0.341115	-0.422620
C187	C	1.192722	-0.245118	-0.716233
C188	C	1.692722	0.254882	-0.216233
C189	C	1.091699	-0.187648	-0.716239
C190	C	1.591699	0.312352	-0.216239
C191	C	1.142147	-0.216446	-0.175572
C192	C	1.642147	0.283554	0.324428
C193	C	1.142282	-0.216336	-0.087715
C194	C	1.642282	0.283664	0.412285
H195	H	1.050598	-1.044989	-0.472615
H196	H	1.550598	-0.544989	0.027385
H197	H	0.841356	-0.164373	-0.472778
H198	H	1.341356	0.335627	0.027222
Br199	Br	0.545053	-0.312787	-0.210960
Br200	Br	1.045053	0.187213	0.289040
Br201	Br	1.261247	-0.284129	-0.660214
Br202	Br	1.761247	0.215871	-0.160214
Br203	Br	0.421291	-0.284100	-0.261623
Br204	Br	0.921291	0.215900	0.238377
Br205	Br	0.421572	-0.148833	-0.500370
Br206	Br	0.921572	0.351167	-0.000370
Br207	Br	1.312113	-0.841851	-0.211484
Br208	Br	1.812113	-0.341851	0.288516
Br209	Br	0.545452	-0.120131	-0.550987
Br210	Br	1.045452	0.379869	-0.050987
H211	H	1.233907	-0.268469	-1.080039
H212	H	1.733907	0.231531	-0.580039
Br213	Br	0.972372	-0.701171	-0.550510
Br214	Br	1.472372	-0.201171	-0.050510
H215	H	0.999790	-0.603314	-0.523078
H216	H	1.499790	-0.103314	-0.023078
Br217	Br	0.972655	-0.119906	-0.784052
Br218	Br	1.472655	0.380094	-0.284052
H219	H	1.050557	-0.959881	-0.472622
H220	H	1.550557	-0.459881	0.027378
H221	H	1.284590	-0.744012	-0.238876
H222	H	1.784590	-0.244012	0.261124
H223	H	1.284388	-0.297224	-0.956213
H224	H	1.784388	0.202776	-0.456213
H225	H	1.050648	-0.164202	-1.080058
H226	H	1.550648	0.335798	-0.580058
Br227	Br	0.740030	-0.120105	-0.550943
Br228	Br	1.240030	0.379895	-0.050943
H229	H	0.999898	-0.829178	-0.523098
H230	H	1.499898	-0.329178	-0.023098
H231	H	0.999860	-0.744072	-0.523096
H232	H	1.499860	-0.244072	-0.023096
Br233	Br	1.022821	-0.485335	-0.499975
Br234	Br	1.522821	0.014665	0.000025
Br235	Br	1.311957	-0.590517	-0.211444
Br236	Br	1.811957	-0.090517	0.288556
H237	H	1.284543	-0.688363	-0.238869
H238	H	1.784543	-0.188363	0.261131
Br239	Br	1.261236	-0.374699	-0.261888
Br240	Br	1.761236	0.125301	0.238112
Br241	Br	0.863518	-0.284070	-0.261522
Br242	Br	1.363518	0.215930	0.238478
Br243	Br	1.022772	-0.374742	-0.499958
Br244	Br	1.522772	0.125258	0.000042
Br245	Br	1.261316	-0.485274	-0.261913
Br246	Br	1.761316	0.014726	0.238087
H247	H	1.284377	-0.297247	-0.806451
H248	H	1.784377	0.202753	-0.306451
Br249	Br	1.261619	-1.057682	-0.261976
Br250	Br	1.761619	-0.557682	0.238024
H251	H	1.000114	-0.135483	-0.956237
H252	H	1.500114	0.364517	-0.456237
Br253	Br	1.261546	-0.947085	-0.261942
Br254	Br	1.761546	-0.447085	0.238058
H255	H	0.717270	-0.297201	-0.238419
H256	H	1.217270	0.202799	0.261581
H257	H	1.050564	-0.164251	-0.682642
H258	H	1.550564	0.335749	-0.182642
