data_functionalizedCrystal
_audit_creation_method	'MofGen! by Chris Wilmer'
_symmetry_space_group_name_H-M	'P1'
_symmetry_Int_Tables_number	1
_symmetry_cell_setting	triclinic
loop_
_symmetry_equiv_pos_as_xyz
  x,y,z
_cell_length_a	12.827893
_cell_length_b	18.101395
_cell_length_c	12.827885
_cell_angle_alpha	89.967625
_cell_angle_beta	89.980728
_cell_angle_gamma	90.031075
loop_
_atom_site_label
_atom_site_type_symbol
_atom_site_fract_x
_atom_site_fract_y
_atom_site_fract_z
Zn1	Zn	1.597556	-0.294794	-0.590830
Zn2	Zn	1.930889	0.038539	-0.257496
Zn3	Zn	2.264222	0.371872	0.075837
Zn4	Zn	1.597402	-0.418654	-0.416082
Zn5	Zn	1.930735	-0.085320	-0.082749
Zn6	Zn	2.264068	0.248013	0.250584
Zn7	Zn	1.422797	-0.294830	-0.416103
Zn8	Zn	1.756130	0.038503	-0.082770
Zn9	Zn	2.089464	0.371836	0.250563
Zn10	Zn	1.422734	-0.418598	-0.590782
Zn11	Zn	1.756068	-0.085265	-0.257449
Zn12	Zn	2.089401	0.248068	0.075884
O13	O	1.510122	-0.356719	-0.503449
O14	O	1.843455	-0.023386	-0.170116
O15	O	2.176789	0.309947	0.163217
O16	O	1.743771	-0.311233	-0.567660
O17	O	2.077104	0.022101	-0.234327
O18	O	2.410438	0.355434	0.099006
O19	O	1.574202	-0.402266	-0.269849
O20	O	1.907535	-0.068933	0.063484
O21	O	2.240868	0.264400	0.396818
O22	O	1.446070	-0.191193	-0.439310
O23	O	1.779403	0.142141	-0.105977
O24	O	2.112736	0.475474	0.227357
O25	O	1.743658	-0.402231	-0.439274
O26	O	2.076991	-0.068898	-0.105941
O27	O	2.410325	0.264435	0.227393
O28	O	1.574464	-0.191166	-0.567681
O29	O	1.907797	0.142167	-0.234347
O30	O	2.241131	0.475500	0.098986
O31	O	1.445920	-0.311294	-0.269865
O32	O	1.779254	0.022039	0.063469
O33	O	2.112587	0.355373	0.396802
O34	O	1.276553	-0.311241	-0.439264
O35	O	1.609886	0.022093	-0.105931
O36	O	1.943219	0.355426	0.227403
O37	O	1.445963	-0.402137	-0.737025
O38	O	1.779296	-0.068804	-0.403691
O39	O	2.112630	0.264529	-0.070358
O40	O	1.276507	-0.402172	-0.567600
O41	O	1.609840	-0.068839	-0.234266
O42	O	1.943173	0.264494	0.099067
O43	O	1.574403	-0.311179	-0.737060
O44	O	1.907737	0.022154	-0.403726
O45	O	2.241070	0.355488	-0.070393
O46	O	1.574141	-0.522279	-0.439228
O47	O	1.907474	-0.188946	-0.105894
O48	O	2.240808	0.144387	0.227439
O49	O	1.445814	-0.522239	-0.567579
O50	O	1.779147	-0.188905	-0.234246
O51	O	2.112480	0.144428	0.099088
C52	C	1.238612	-0.356705	-0.503430
C53	C	1.571946	-0.023372	-0.170096
C54	C	1.905279	0.309962	0.163237
C55	C	1.122459	-0.356717	-0.503446
C56	C	1.455792	-0.023383	-0.170112
C57	C	1.789126	0.309950	0.163221
C58	C	1.070679	-0.401783	-0.566852
C59	C	1.404012	-0.068450	-0.233519
C60	C	1.737346	0.264884	0.099814
C61	C	0.950629	-0.401796	-0.566871
C62	C	1.283962	-0.068463	-0.233537
C63	C	1.617295	0.264871	0.099796
C64	C	1.509982	-0.549130	-0.503419
C65	C	1.843316	-0.215796	-0.170085
C66	C	2.176649	0.117537	0.163248
C67	C	1.510018	-0.631444	-0.503440
C68	C	1.843351	-0.298111	-0.170107
C69	C	2.176685	0.035223	0.163226
C70	C	1.510247	-0.930535	-0.503497
C71	C	1.843581	-0.597201	-0.170163
C72	C	2.176914	-0.263868	0.163170
C73	C	1.429695	-0.899215	-0.584452
C74	C	1.763028	-0.565882	-0.251119
C75	C	2.096361	-0.232548	0.082214
C76	C	1.429312	-0.813597	-0.584199
C77	C	1.762645	-0.480264	-0.250866
C78	C	2.095978	-0.146930	0.082467
C79	C	1.510134	-0.782152	-0.503470
C80	C	1.843467	-0.448819	-0.170136
C81	C	2.176800	-0.115486	0.163197
C82	C	1.480314	-0.813311	-0.393335
C83	C	1.813647	-0.479977	-0.060002
C84	C	2.146981	-0.146644	0.273331
C85	C	1.479795	-0.898956	-0.393820
C86	C	1.813128	-0.565622	-0.060486
C87	C	2.146461	-0.232289	0.272847
C88	C	1.620796	-0.898877	-0.531706
C89	C	1.954130	-0.565543	-0.198373
C90	C	2.287463	-0.232210	0.134961
C91	C	1.620146	-0.813226	-0.534121
C92	C	1.953480	-0.479892	-0.200788
C93	C	2.286813	-0.146559	0.132545
C94	C	1.510071	-0.698293	-0.503448
C95	C	1.843404	-0.364959	-0.170114
C96	C	2.176738	-0.031626	0.163219
C97	C	1.510307	-1.014394	-0.503511
C98	C	1.843641	-0.681061	-0.170178
C99	C	2.176974	-0.347728	0.163155
C100	C	1.782692	-0.356734	-0.503470
C101	C	2.116026	-0.023401	-0.170137
C102	C	2.449359	0.309933	0.163197
C103	C	1.898845	-0.356740	-0.503479
C104	C	2.232179	-0.023407	-0.170145
C105	C	2.565512	0.309926	0.163188
C106	C	1.510193	-0.356648	-0.776020
C107	C	1.843527	-0.023315	-0.442686
C108	C	2.176860	0.310019	-0.109353
C109	C	1.510224	-0.356618	-0.892173
C110	C	1.843557	-0.023284	-0.558840
C111	C	2.176890	0.310049	-0.225506
C112	C	1.510291	-0.163557	-0.503503
C113	C	1.843624	0.169776	-0.170170
C114	C	2.176958	0.503109	0.163164
C115	C	1.510363	-0.081243	-0.503526
C116	C	1.843696	0.252090	-0.170193
C117	C	2.177030	0.585424	0.163141
C118	C	1.573787	-0.311600	-0.943975
C119	C	1.907120	0.021733	-0.610642
C120	C	2.240454	0.355067	-0.277308
C121	C	1.573820	-0.311568	-1.064025
C122	C	1.907153	0.021766	-0.730692
C123	C	2.240486	0.355099	-0.397359
C124	C	1.510111	-0.356737	-0.231940
C125	C	1.843445	-0.023403	0.101394
C126	C	2.176778	0.309930	0.434727
C127	C	1.510284	-0.356558	-0.115787
C128	C	1.843617	-0.023225	0.217546
C129	C	2.176950	0.310108	0.550880
H130	H	1.447969	-0.792528	-0.665863
H131	H	1.781302	-0.459194	-0.332529
H132	H	2.114635	-0.125861	0.000804
N133	N	1.438188	-0.407605	-1.056781
N134	N	1.771521	-0.074272	-0.723447
N135	N	2.104855	0.259061	-0.390114
H136	H	1.363522	-0.396101	-1.075719
H137	H	1.696856	-0.062768	-0.742386
H138	H	2.030189	0.270566	-0.409053
H139	H	1.454438	-0.460510	-1.075722
H140	H	1.787771	-0.127176	-0.742389
H141	H	2.121104	0.206157	-0.409055
N142	N	0.891653	-0.452905	-0.638782
N143	N	1.224986	-0.119572	-0.305449
N144	N	1.558319	0.213762	0.027884
H145	H	0.942710	-0.482971	-0.681083
H146	H	1.276043	-0.149638	-0.347750
H147	H	1.609376	0.183696	-0.014416
H148	H	0.846329	-0.487117	-0.596122
H149	H	1.179663	-0.153783	-0.262789
H150	H	1.512996	0.179550	0.070544
H151	H	1.115225	-0.440353	-0.621127
H152	H	1.448559	-0.107020	-0.287794
H153	H	1.781892	0.226313	0.045539
H154	H	1.455822	-0.395130	-0.936700
H155	H	1.789156	-0.061797	-0.603367
H156	H	2.122489	0.271536	-0.270033
H157	H	1.448166	-0.919757	-0.666380
H158	H	1.781500	-0.586424	-0.333047
H159	H	2.114833	-0.253091	0.000286
H160	H	1.628178	-0.273080	-0.899448
H161	H	1.961511	0.060254	-0.566115
H162	H	2.294844	0.393587	-0.232781
H163	H	0.943368	-0.318158	-0.449188
H164	H	1.276701	0.015175	-0.115854
H165	H	1.610035	0.348509	0.217479
H166	H	1.348251	-0.920803	-0.566002
H167	H	1.681585	-0.587469	-0.232669
H168	H	2.014918	-0.254136	0.100664
N169	N	1.063463	-0.305623	-0.431548
N170	N	1.396797	0.027710	-0.098215
N171	N	1.730130	0.361043	0.235119
H172	H	1.082366	-0.317052	-0.356837
H173	H	1.415699	0.016281	-0.023503
H174	H	1.749032	0.349614	0.309830
H175	H	1.082464	-0.252729	-0.447973
H176	H	1.415797	0.080604	-0.114640
H177	H	1.749130	0.413938	0.218694
N178	N	1.645895	-0.260504	-1.123027
N179	N	1.979229	0.072830	-0.789694
N180	N	2.312562	0.406163	-0.456360
H181	H	1.688288	-0.230482	-1.071984
H182	H	2.021621	0.102851	-0.738651
H183	H	2.354955	0.436184	-0.405318
H184	H	1.694205	-0.290663	-1.168312
H185	H	2.027538	0.042670	-0.834978
H186	H	2.360871	0.376003	-0.501645
H187	H	1.398984	-0.919000	-0.369923
H188	H	1.732317	-0.585667	-0.036590
H189	H	2.065651	-0.252333	0.296743
H190	H	1.347370	-0.793175	-0.565514
H191	H	1.680704	-0.459842	-0.232180
H192	H	2.014037	-0.126508	0.101153
H193	H	1.535921	-0.919677	-0.331445
H194	H	1.869254	-0.586344	0.001888
H195	H	2.202587	-0.253010	0.335222
N196	N	1.555578	-0.786339	-0.311250
N197	N	1.888912	-0.453005	0.022083
N198	N	2.222245	-0.119672	0.355416
H199	H	1.609859	-0.753583	-0.344747
H200	H	1.943192	-0.420249	-0.011413
H201	H	2.276525	-0.086916	0.321920
H202	H	1.516302	-0.757358	-0.256654
H203	H	1.849635	-0.424024	0.076680
H204	H	2.182969	-0.090691	0.410013
N205	N	1.374408	-0.784989	-0.361103
N206	N	1.707741	-0.451656	-0.027769
N207	N	2.041074	-0.118323	0.305564
H208	H	1.345594	-0.751984	-0.417673
H209	H	1.678927	-0.418651	-0.084340
H210	H	2.012261	-0.085318	0.248993
H211	H	1.325721	-0.828122	-0.349786
H212	H	1.659054	-0.494789	-0.016453
H213	H	1.992387	-0.161455	0.316880
H214	H	1.647982	-0.920420	-0.610647
H215	H	1.981316	-0.587086	-0.277314
H216	H	2.314649	-0.253753	0.056019
H217	H	1.642633	-0.792857	-0.615174
H218	H	1.975967	-0.459524	-0.281841
H219	H	2.309300	-0.126191	0.051492
H220	H	1.683338	-0.791817	-0.479455
H221	H	2.016671	-0.458483	-0.146122
H222	H	2.350004	-0.125150	0.187212
N223	N	1.700298	-0.925699	-0.453608
N224	N	2.033631	-0.592366	-0.120274
N225	N	2.366965	-0.259033	0.213059
H226	H	1.664937	-0.958198	-0.400208
H227	H	1.998271	-0.624865	-0.066875
H228	H	2.331604	-0.291531	0.266458
H229	H	1.756046	-0.954915	-0.490868
H230	H	2.089380	-0.621582	-0.157535
H231	H	2.422713	-0.288248	0.175799
