data_functionalizedCrystal
_audit_creation_method	'MofGen! by Chris Wilmer'
_symmetry_space_group_name_H-M	'P1'
_symmetry_Int_Tables_number	1
_symmetry_cell_setting	triclinic
loop_
_symmetry_equiv_pos_as_xyz
  x,y,z
_cell_length_a	23.532407
_cell_length_b	23.532407
_cell_length_c	22.010155
_cell_angle_alpha	89.999577
_cell_angle_beta	89.994271
_cell_angle_gamma	82.848712
loop_
_atom_site_label
_atom_site_type_symbol
_atom_site_fract_x
_atom_site_fract_y
_atom_site_fract_z
O1	O	0.755264	0.069127	-0.050493
O2	O	0.589400	0.079130	-0.050503
O3	O	0.677334	-0.008803	-0.050487
O4	O	0.667330	0.157061	-0.050510
O5	O	0.677318	-0.008790	0.050564
O6	O	0.589384	0.079144	0.050547
O7	O	0.755248	0.069141	0.050557
Cu8	Cu	0.672315	0.074143	0.059779
Cu9	Cu	0.672333	0.074128	-0.059725
O10	O	0.667314	0.157074	0.050541
C11	C	0.568176	0.078882	0.000021
C12	C	0.504959	0.078116	0.000017
C13	C	0.238792	0.022921	0.000041
C14	C	0.298192	0.023632	0.000041
O15	O	0.334937	-0.020153	0.000068
N16	N	0.320818	0.075909	0.000030
C17	C	0.284041	0.127477	0.000025
O18	O	0.308740	0.172007	0.000016
C19	C	0.224642	0.126765	0.000029
C20	C	0.202019	0.074485	0.000035
C21	C	0.216168	-0.029354	0.000047
C22	C	0.156772	-0.030066	0.000046
C23	C	0.119999	0.021499	0.000039
C24	C	0.142623	0.073774	0.000034
C25	C	0.187865	0.178333	0.000029
C26	C	0.128463	0.177616	0.000034
C27	C	0.105840	0.125336	0.000039
C28	C	0.046454	0.124627	0.000026
N29	N	0.023828	0.072351	0.000037
C30	C	0.060600	0.020787	0.000044
C31	C	0.408783	0.128968	0.000016
C32	C	0.468181	0.129681	0.000007
C33	C	0.482328	0.025836	0.000025
C34	C	0.422929	0.025124	0.000029
C35	C	0.386157	0.076692	0.000027
C36	C	-0.064136	0.019297	0.000042
C37	C	-0.123538	0.018590	0.000038
C38	C	-0.137680	0.122435	0.000024
C39	C	-0.078284	0.123142	0.000024
C40	C	-0.041512	0.071568	0.000035
O41	O	0.009675	0.168390	0.000001
O42	O	0.035892	-0.023737	0.000061
C43	C	0.677071	-0.030012	0.000040
C44	C	0.676305	-0.093229	0.000045
C45	C	0.723538	-0.492332	0.000014
C46	C	0.722827	-0.551733	0.000010
O47	O	0.766613	-0.588477	-0.000010
N48	N	0.670551	-0.574359	0.000007
C49	C	0.618982	-0.537581	0.000002
O50	O	0.574452	-0.562281	-0.000001
C51	C	0.619695	-0.478182	0.000003
C52	C	0.671974	-0.455559	0.000012
C53	C	0.775814	-0.469709	0.000023
C54	C	0.776525	-0.410313	0.000028
C55	C	0.724961	-0.373540	0.000026
C56	C	0.672685	-0.396163	0.000018
C57	C	0.568127	-0.441406	-0.000006
C58	C	0.568843	-0.382003	-0.000006
C59	C	0.621123	-0.359381	0.000003
C60	C	0.621832	-0.299994	0.000021
N61	N	0.674109	-0.277368	0.000024
C62	C	0.725673	-0.314141	0.000026
C63	C	0.617491	-0.662324	0.000001
C64	C	0.616778	-0.721722	0.000005
C65	C	0.720623	-0.735869	0.000011
C66	C	0.721335	-0.676470	0.000011
C67	C	0.669767	-0.639698	0.000004
C68	C	0.727163	-0.189404	0.000039
C69	C	0.727869	-0.130002	0.000047
C70	C	0.624025	-0.115860	0.000038
C71	C	0.623318	-0.175257	0.000033
C72	C	0.674891	-0.212028	0.000031
O73	O	0.578069	-0.263215	0.000038
O74	O	0.770196	-0.289433	0.000022
C75	C	0.776472	0.069389	0.000032
C76	C	0.839689	0.070155	0.000032
C77	C	0.667577	0.178283	0.000013
C78	C	0.668343	0.241500	0.000004
N79	N	0.672305	0.074154	0.143831
N80	N	0.672347	0.074113	-0.143777
C81	C	0.711273	0.035196	0.563618
C82	C	0.711275	0.035192	0.627226
O83	O	0.744383	0.002077	0.660123
N84	N	0.672333	0.074116	0.659038
C85	C	0.633382	0.113042	0.627240
O86	O	0.600259	0.146148	0.660140
C87	C	0.633377	0.113042	0.563634
C88	C	0.672326	0.074120	0.531824
C89	C	0.750217	-0.003723	0.531809
C90	C	0.750215	-0.003718	0.468205
C91	C	0.711268	0.035206	0.436412
C92	C	0.672323	0.074125	0.468221
C93	C	0.594424	0.151965	0.531837
C94	C	0.594422	0.151962	0.468226
C95	C	0.633370	0.113040	0.436417
C96	C	0.633374	0.113054	0.372824
N97	N	0.672316	0.074131	0.341012
C98	C	0.711263	0.035207	0.372805
C99	C	0.633395	0.113037	0.760818
C100	C	0.633402	0.113039	0.824423
C101	C	0.711294	0.035189	0.824404
C102	C	0.711290	0.035189	0.760798
C103	C	0.672337	0.074113	0.729005
C104	C	0.711256	0.035220	0.239234
C105	C	0.711252	0.035230	0.175625
C106	C	0.633358	0.113078	0.175650
C107	C	0.633364	0.113070	0.239253
C108	C	0.672315	0.074137	0.271043
O109	O	0.600282	0.146151	0.339886
O110	O	0.744376	0.002101	0.339898
H111	H	-0.059864	0.165712	0.000019
H112	H	0.763906	-0.658055	0.000018
H113	H	-0.167631	0.164417	0.000016
H114	H	0.601654	0.144769	0.265153
C115	C	0.785379	-0.105121	0.000054
H116	H	0.815985	-0.135532	0.000048
H117	H	0.787813	-0.082245	0.035293
H118	H	0.787820	-0.082243	-0.035188
C119	C	0.754130	-0.007633	0.859386
H120	H	0.748547	-0.002061	0.901822
H121	H	0.792105	-0.001647	0.848961
H122	H	0.748155	-0.045613	0.848962
H123	H	0.562708	0.183659	0.557727
C124	C	0.567309	-0.075403	0.000032
H125	H	0.575224	-0.036788	0.000029
H126	H	0.545846	-0.082226	0.035265
H127	H	0.545869	-0.082228	-0.035217
C128	C	0.510618	-0.466278	-0.000021
H129	H	0.480016	-0.435863	-0.000031
H130	H	0.508166	-0.489157	0.035214
H131	H	0.508189	-0.489151	-0.035268
C132	C	0.754104	-0.007604	0.274195
H133	H	0.777298	-0.030776	0.246133
H134	H	0.733760	-0.031214	0.299010
H135	H	0.777698	0.012765	0.299003
C136	C	0.590518	0.155892	0.140671
H137	H	0.567324	0.179076	0.168722
H138	H	0.566932	0.135521	0.115861
H139	H	0.610871	0.179498	0.115857
C140	C	0.793066	-0.046540	0.566772
H141	H	0.816258	-0.069712	0.538709
H142	H	0.772726	-0.070151	0.591592
H143	H	0.816661	-0.026169	0.591576
C144	C	0.783892	-0.229844	0.000042
H145	H	0.815123	-0.207856	0.000054
H146	H	0.785787	-0.253310	-0.035196
H147	H	0.785768	-0.253309	0.035285
C148	C	0.559273	-0.746603	0.000002
H149	H	0.566228	-0.787246	0.000003
H150	H	0.538062	-0.733957	-0.035237
H151	H	0.538053	-0.733961	0.035245
C152	C	0.793070	-0.046519	0.433220
H153	H	0.787503	-0.040942	0.390783
H154	H	0.787118	-0.084504	0.443639
H155	H	0.831037	-0.040507	0.443651
C156	C	0.256610	-0.086080	0.000049
H157	H	0.234621	-0.117310	0.000049
H158	H	0.280079	-0.087967	0.035283
H159	H	0.280074	-0.087966	-0.035198
H160	H	0.601676	0.144737	0.734936
C161	C	0.512117	-0.341557	-0.000012
H162	H	0.480883	-0.363541	-0.000013
H163	H	0.510241	-0.318088	-0.035248
H164	H	0.510228	-0.318094	0.035233
H165	H	0.819097	-0.391900	0.000033
H166	H	0.762610	-0.765821	0.000011
H167	H	0.580747	-0.193677	0.000042
H168	H	0.817806	-0.499644	0.000022
H169	H	0.575496	-0.632386	-0.000000
H170	H	0.562700	0.183658	0.442344
H171	H	0.486595	0.172252	-0.000006
C172	C	0.368338	0.185697	0.000001
H173	H	0.390325	0.216929	-0.000012
H174	H	0.344867	0.187590	0.035239
H175	H	0.344878	0.187572	-0.035243
H176	H	0.742971	0.003535	0.149728
C177	C	0.754128	-0.007628	0.725813
H178	H	0.777320	-0.030810	0.753864
H179	H	0.777717	0.012735	0.700993
H180	H	0.733772	-0.031237	0.701008
C181	C	0.522784	-0.030886	0.000037
H182	H	0.500807	-0.062125	0.000038
H183	H	0.546246	-0.032757	0.035274
H184	H	0.546252	-0.032769	-0.035207
H185	H	0.206274	0.220904	0.000022
H186	H	0.601692	0.144739	0.850318
H187	H	-0.141954	-0.023984	0.000041
H188	H	-0.034204	-0.022699	0.000050
H189	H	0.098525	0.219610	0.000035
H190	H	0.138359	-0.072637	0.000053
H191	H	0.404515	-0.017447	0.000034
