data_functionalizedCrystal
_audit_creation_method	'MofGen! by Chris Wilmer'
_symmetry_space_group_name_H-M	'P1'
_symmetry_Int_Tables_number	1
_symmetry_cell_setting	triclinic
loop_
_symmetry_equiv_pos_as_xyz
  x,y,z
_cell_length_a	13.897449
_cell_length_b	16.625545
_cell_length_c	13.897441
_cell_angle_alpha	90.031157
_cell_angle_beta	90.020733
_cell_angle_gamma	90.026837
loop_
_atom_site_label
_atom_site_type_symbol
_atom_site_fract_x
_atom_site_fract_y
_atom_site_fract_z
Zn1	Zn	1.474650	-0.320948	0.545377
Zn2	Zn	1.724650	-0.070948	0.795377
Zn3	Zn	1.974650	0.179052	1.045377
Zn4	Zn	2.224650	0.429052	1.295377
Zn5	Zn	1.474522	-0.455799	0.384077
Zn6	Zn	1.724522	-0.205799	0.634077
Zn7	Zn	1.974522	0.044201	0.884077
Zn8	Zn	2.224522	0.294201	1.134077
Zn9	Zn	1.313339	-0.320987	0.384096
Zn10	Zn	1.563339	-0.070987	0.634096
Zn11	Zn	1.813339	0.179013	0.884096
Zn12	Zn	2.063339	0.429013	1.134096
Zn13	Zn	1.313299	-0.455746	0.545330
Zn14	Zn	1.563299	-0.205746	0.795330
Zn15	Zn	1.813299	0.044254	1.045330
Zn16	Zn	2.063299	0.294254	1.295330
O17	O	1.393952	-0.388370	0.464720
O18	O	1.643952	-0.138370	0.714720
O19	O	1.893952	0.111630	0.964720
O20	O	2.143952	0.361630	1.214720
O21	O	1.609615	-0.338843	0.523993
O22	O	1.859615	-0.088843	0.773993
O23	O	2.109615	0.161157	1.023993
O24	O	2.359615	0.411157	1.273993
O25	O	1.453104	-0.437954	0.249098
O26	O	1.703104	-0.187954	0.499098
O27	O	1.953104	0.062046	0.749098
O28	O	2.203104	0.312046	0.999098
O29	O	1.334808	-0.208149	0.405518
O30	O	1.584808	0.041851	0.655518
O31	O	1.834808	0.291851	0.905518
O32	O	2.084808	0.541851	1.155518
O33	O	1.609520	-0.437917	0.405486
O34	O	1.859520	-0.187917	0.655486
O35	O	2.109520	0.062083	0.905486
O36	O	2.359520	0.312083	1.155486
O37	O	1.453322	-0.208121	0.524011
O38	O	1.703322	0.041879	0.774011
O39	O	1.953322	0.291879	1.024011
O40	O	2.203322	0.541879	1.274011
O41	O	1.334684	-0.338908	0.249112
O42	O	1.584684	-0.088908	0.499112
O43	O	1.834684	0.161092	0.749112
O44	O	2.084684	0.411092	0.999112
O45	O	1.178352	-0.338857	0.405472
O46	O	1.428352	-0.088857	0.655472
O47	O	1.678352	0.161143	0.905472
O48	O	1.928352	0.411143	1.155472
O49	O	1.334739	-0.437826	0.680318
O50	O	1.584739	-0.187826	0.930318
O51	O	1.834739	0.062174	1.180318
O52	O	2.084739	0.312174	1.430318
O53	O	1.178322	-0.437864	0.523930
O54	O	1.428322	-0.187864	0.773930
O55	O	1.678322	0.062136	1.023930
O56	O	1.928322	0.312136	1.273930
O57	O	1.453283	-0.338791	0.680353
O58	O	1.703283	-0.088791	0.930353
O59	O	1.953283	0.161209	1.180353
O60	O	2.203283	0.411209	1.430353
O61	O	1.453065	-0.568624	0.405440
O62	O	1.703065	-0.318624	0.655440
O63	O	1.953065	-0.068624	0.905440
O64	O	2.203065	0.181376	1.155440
O65	O	1.334615	-0.568585	0.523912
O66	O	1.584615	-0.318585	0.773912
O67	O	1.834615	-0.068585	1.023912
O68	O	2.084615	0.181415	1.273912
C69	C	1.143338	-0.388359	0.464698
C70	C	1.393338	-0.138359	0.714698
C71	C	1.643338	0.111641	0.964698
C72	C	1.893338	0.361641	1.214698
C73	C	1.036124	-0.388374	0.464712
C74	C	1.286124	-0.138374	0.714712
C75	C	1.536124	0.111626	0.964712
C76	C	1.786124	0.361626	1.214712
C77	C	1.393848	-0.597861	0.464690
C78	C	1.643848	-0.347861	0.714690
C79	C	1.893848	-0.097861	0.964690
C80	C	2.143848	0.152139	1.214690
C81	C	1.393891	-0.687482	0.464709
C82	C	1.643891	-0.437482	0.714709
C83	C	1.893891	-0.187482	0.964709
C84	C	2.143891	0.062518	1.214709
C85	C	0.839829	-0.388377	0.464737
C86	C	1.089829	-0.138377	0.714737
C87	C	1.339829	0.111623	0.964737
C88	C	1.589829	0.361623	1.214737
C89	C	0.949061	-0.388373	0.464720
C90	C	1.199061	-0.138373	0.714720
C91	C	1.449061	0.111627	0.964720
C92	C	1.699061	0.361627	1.214720
C93	C	1.393928	-0.760264	0.464728
C94	C	1.643928	-0.510264	0.714728
C95	C	1.893928	-0.260264	0.964728
C96	C	2.143928	-0.010264	1.214728
C97	C	1.393985	-0.851573	0.464749
C98	C	1.643985	-0.601573	0.714749
C99	C	1.893985	-0.351573	0.964749
C100	C	2.143985	-0.101573	1.214749
C101	C	1.394035	-0.924349	0.464762
C102	C	1.644035	-0.674349	0.714762
C103	C	1.894035	-0.424349	0.964762
C104	C	2.144035	-0.174349	1.214762
C105	C	1.394090	-1.015663	0.464781
C106	C	1.644090	-0.765663	0.714781
C107	C	1.894090	-0.515663	0.964781
C108	C	2.144090	-0.265663	1.214781
C109	C	1.645545	-0.388381	0.464743
C110	C	1.895545	-0.138381	0.714743
C111	C	2.145545	0.111619	0.964743
C112	C	2.395545	0.361619	1.214743
C113	C	1.752759	-0.388386	0.464752
C114	C	2.002759	-0.138386	0.714752
C115	C	2.252759	0.111614	0.964752
C116	C	2.502759	0.361614	1.214752
C117	C	1.394021	-0.388299	0.716313
C118	C	1.644021	-0.138299	0.966313
C119	C	1.894021	0.111701	1.216313
C120	C	2.144021	0.361701	1.466313
C121	C	1.394050	-0.388268	0.823527
C122	C	1.644050	-0.138268	1.073527
C123	C	1.894050	0.111732	1.323527
C124	C	2.144050	0.361732	1.573527
C125	C	1.394084	-0.178061	0.464772
C126	C	1.644084	0.071939	0.714772
C127	C	1.894084	0.321939	0.964772
C128	C	2.144084	0.571939	1.214772
C129	C	1.394140	-0.088440	0.464794
C130	C	1.644140	0.161560	0.714794
C131	C	1.894140	0.411560	0.964794
C132	C	2.144140	0.661560	1.214794
C133	C	1.393940	-0.388383	0.214106
C134	C	1.643940	-0.138383	0.464106
C135	C	1.893940	0.111617	0.714106
C136	C	2.143940	0.361617	0.964106
C137	C	1.394097	-0.388186	0.106892
C138	C	1.644097	-0.138186	0.356892
C139	C	1.894097	0.111814	0.606892
C140	C	2.144097	0.361814	0.856892
C141	C	1.394076	-0.388214	1.019822
C142	C	1.644076	-0.138214	1.269822
C143	C	1.894076	0.111786	1.519822
C144	C	2.144076	0.361786	1.769822
C145	C	1.394059	-0.388246	0.910590
C146	C	1.644059	-0.138246	1.160590
C147	C	1.894059	0.111754	1.410590
C148	C	2.144059	0.361754	1.660590
