data_functionalizedCrystal
_audit_creation_method	'MofGen! by Chris Wilmer'
_symmetry_space_group_name_H-M	'P1'
_symmetry_Int_Tables_number	1
_symmetry_cell_setting	triclinic
loop_
_symmetry_equiv_pos_as_xyz
  x,y,z
_cell_length_a	30.570277
_cell_length_b	30.570279
_cell_length_c	30.570330
_cell_angle_alpha	59.997668
_cell_angle_beta	89.998668
_cell_angle_gamma	60.000192
loop_
_atom_site_label
_atom_site_type_symbol
_atom_site_fract_x
_atom_site_fract_y
_atom_site_fract_z
O1	O	-0.372836	-0.313095	0.013011
O2	O	-0.309225	-0.223519	-0.012953
O3	O	-0.309223	-0.313094	0.076622
O4	O	-0.372839	-0.223520	-0.076564
O5	O	-0.236468	-0.385848	0.076622
O6	O	-0.236471	-0.296273	-0.012953
O7	O	-0.300082	-0.385850	0.013011
Zn8	Zn	-0.256725	-0.352613	0.000029
Zn9	Zn	-0.352582	-0.256756	0.000029
O10	O	-0.300084	-0.296275	-0.076564
C11	C	-0.188654	-0.082303	-0.027139
C12	C	-0.215647	-0.028318	-0.023422
C13	C	-0.136009	-0.108501	-0.027507
C14	C	-0.188656	-0.161512	-0.027144
C15	C	-0.215651	-0.192218	-0.023433
C16	C	-0.136010	-0.187591	-0.027512
C17	C	-0.109441	-0.161515	-0.027139
C18	C	-0.051740	-0.192225	-0.023422
C19	C	-0.215103	-0.108498	-0.027512
C20	C	-0.005122	-0.217036	-0.020418
C21	C	-0.237454	0.015296	-0.020418
C22	C	-0.237459	-0.217026	-0.020433
C23	C	0.053362	-0.248162	-0.016650
C24	C	-0.264813	0.070012	-0.016651
C25	C	-0.264819	-0.248149	-0.016672
C26	C	-0.528835	-0.481158	0.031534
C27	C	-0.502268	-0.534173	0.031905
C28	C	-0.449624	-0.481155	0.031530
C29	C	-0.423176	-0.534171	0.031901
C30	C	-0.449623	-0.560370	0.031533
C31	C	-0.502268	-0.455079	0.031901
C32	C	-0.614448	-0.395339	0.025106
C33	C	-0.668545	-0.366177	0.021050
C34	C	-0.695677	-0.391210	0.019017
C35	C	-0.754333	-0.359592	0.014617
C36	C	-0.668716	-0.445410	0.021045
C37	C	-0.614621	-0.474572	0.025103
C38	C	-0.587489	-0.449534	0.027131
C39	C	-0.449828	-0.639557	0.025109
C40	C	-0.424894	-0.689598	0.021053
C41	C	-0.372730	-0.714694	0.019016
C42	C	-0.345693	-0.768949	0.014615
C43	C	-0.345492	-0.689758	0.021040
C44	C	-0.370425	-0.639721	0.025098
C45	C	-0.422593	-0.614621	0.027130
C46	C	-0.449831	-0.395334	0.025098
C47	C	-0.424899	-0.366164	0.021031
C48	C	-0.372736	-0.391195	0.018994
C49	C	-0.345699	-0.359574	0.014590
C50	C	-0.345499	-0.445391	0.021019
C51	C	-0.370429	-0.474560	0.025084
C52	C	-0.422594	-0.449529	0.027123
C53	C	-0.449629	-0.128223	-0.400622
C54	C	-0.502274	-0.075208	-0.427071
C55	C	-0.449630	-0.128223	-0.321410
C56	C	-0.502275	-0.075207	-0.347979
C57	C	-0.528843	-0.049010	-0.400624
C58	C	-0.423182	-0.154300	-0.347977
C59	C	-0.370237	-0.214043	-0.400414
C60	C	-0.345131	-0.243207	-0.425348
C61	C	-0.372198	-0.218175	-0.477512
C62	C	-0.344980	-0.249795	-0.504549
C63	C	-0.424371	-0.163975	-0.504752
C64	C	-0.449476	-0.134812	-0.479820
C65	C	-0.422408	-0.159848	-0.427652
C66	C	-0.614455	0.030175	-0.480016
C67	C	-0.668553	0.080216	-0.505123
C68	C	-0.695686	0.105313	-0.478056
C69	C	-0.754343	0.159568	-0.505274
C70	C	-0.668725	0.080378	-0.425883
C71	C	-0.614630	0.030342	-0.400778
C72	C	-0.587497	0.005241	-0.427845
C73	C	-0.370239	-0.214042	-0.235795
C74	C	-0.345135	-0.243209	-0.181695
C75	C	-0.372203	-0.218177	-0.154563
C76	C	-0.344985	-0.249796	-0.095906
C77	C	-0.424374	-0.163982	-0.181523
C78	C	-0.449480	-0.134814	-0.235621
C79	C	-0.422410	-0.159847	-0.262755
O80	O	0.226322	-0.385862	0.013031
O81	O	0.073137	-0.296286	-0.012932
O82	O	0.162706	-0.385864	0.076642
O83	O	0.136754	-0.296283	-0.076544
O84	O	0.162707	-0.313113	0.076647
O85	O	0.073139	-0.223534	-0.012927
O86	O	0.226324	-0.313110	0.013035
Zn87	Zn	0.149732	-0.256772	0.000055
Zn88	Zn	0.149729	-0.352625	0.000048
O89	O	0.136756	-0.223532	-0.076539
O90	O	-0.300077	0.213289	0.013034
O91	O	-0.236463	0.086067	-0.012928
O92	O	-0.236466	0.086060	0.076646
O93	O	-0.300074	0.213297	-0.076541
O94	O	-0.309222	0.086062	0.076641
O95	O	-0.309219	0.086070	-0.012933
O96	O	-0.372833	0.213292	0.013029
Zn97	Zn	-0.352577	0.149681	0.000047
Zn98	Zn	-0.256718	0.149678	0.000053
O99	O	-0.372830	0.213300	-0.076546
O100	O	-0.926872	0.304555	-0.541036
O101	O	-0.773688	0.177328	-0.477419
O102	O	-0.863257	0.177325	-0.477417
O103	O	-0.837303	0.304558	-0.541038
O104	O	-0.863255	0.177323	-0.550170
O105	O	-0.773686	0.177326	-0.550173
O106	O	-0.926870	0.304553	-0.613790
Zn107	Zn	-0.850278	0.240939	-0.593533
Zn108	Zn	-0.850280	0.240942	-0.497676
O109	O	-0.837301	0.304556	-0.613792
O110	O	-0.309222	-0.313094	-0.613776
O111	O	-0.372836	-0.223523	-0.550164
O112	O	-0.372834	-0.313097	-0.550160
O113	O	-0.309224	-0.223521	-0.613781
O114	O	-0.300079	-0.385852	-0.477404
O115	O	-0.300081	-0.296279	-0.477409
O116	O	-0.236467	-0.385850	-0.541021
Zn117	Zn	-0.256722	-0.352616	-0.497663
Zn118	Zn	-0.352581	-0.256757	-0.593522
O119	O	-0.236469	-0.296276	-0.541025
C120	C	-0.109443	-0.527076	0.338416
C121	C	-0.051741	-0.581062	0.365410
C122	C	-0.136011	-0.500878	0.364863
C123	C	-0.188656	-0.447863	0.259202
C124	C	-0.215650	-0.417154	0.201500
C125	C	-0.215104	-0.421785	0.285770
C126	C	-0.188656	-0.447863	0.338415
C127	C	-0.215649	-0.417155	0.365408
C128	C	-0.136011	-0.500878	0.285771
C129	C	-0.237457	-0.392345	0.387215
C130	C	-0.005124	-0.624677	0.387218
C131	C	-0.237457	-0.392344	0.154883
C132	C	-0.264816	-0.361220	0.414573
C133	C	0.053360	-0.679395	0.414577
C134	C	-0.264817	-0.361219	0.096399
C135	C	0.176900	-0.447894	0.338441
C136	C	0.173185	-0.417189	0.365437
C137	C	0.177268	-0.500910	0.364887
C138	C	0.176902	-0.447889	0.259226
C139	C	0.173189	-0.417178	0.201523
C140	C	0.177270	-0.500904	0.285792
C141	C	0.176898	-0.527104	0.338437
C142	C	0.173181	-0.581091	0.365429
C143	C	0.177272	-0.421814	0.285795
C144	C	0.170177	-0.624706	0.387234
C145	C	0.170183	-0.392382	0.387246
C146	C	0.170189	-0.392365	0.154906
C147	C	0.166409	-0.679423	0.414591
C148	C	0.166417	-0.361260	0.414607
C149	C	0.166425	-0.361238	0.096422
C150	C	-0.188656	-0.161565	0.338427
C151	C	-0.215650	-0.192274	0.365416
C152	C	-0.136010	-0.187647	0.364876
C153	C	-0.188655	-0.082342	0.259219
C154	C	-0.215648	-0.028347	0.201519
C155	C	-0.136009	-0.108545	0.285789
C156	C	-0.109441	-0.161568	0.338432
C157	C	-0.051739	-0.192281	0.365427
C158	C	-0.215103	-0.108542	0.285783
C159	C	-0.005121	-0.217095	0.387236
C160	C	-0.237458	-0.217086	0.387220
C161	C	-0.237456	0.015274	0.154902
C162	C	0.053363	-0.248225	0.414596
C163	C	-0.264818	-0.248212	0.414575
C164	C	-0.264815	0.070001	0.096420
C165	C	0.118261	-0.049006	-0.400600
C166	C	0.117891	-0.075201	-0.427049
C167	C	0.118257	-0.128221	-0.321388
C168	C	0.117887	-0.154296	-0.347958
C169	C	0.118259	-0.128216	-0.400603
C170	C	0.117889	-0.075206	-0.347955
C171	C	0.124691	0.030176	-0.400391
C172	C	0.128750	0.080217	-0.425324
C173	C	0.130788	0.105316	-0.477489
C174	C	0.135192	0.159570	-0.504524
C175	C	0.128762	0.080383	-0.504729
C176	C	0.124700	0.030348	-0.479798
C177	C	0.122667	0.005244	-0.427629
C178	C	0.124689	-0.134434	-0.479996
C179	C	0.128747	-0.163423	-0.505104
C180	C	0.130780	-0.217623	-0.478038
C181	C	0.135182	-0.249059	-0.505257
C182	C	0.128752	-0.242837	-0.425864
C183	C	0.124692	-0.213848	-0.400759
C184	C	0.122664	-0.159648	-0.427825
C185	C	0.124683	-0.134448	-0.235773
C186	C	0.128745	-0.163447	-0.181672
C187	C	0.130779	-0.217647	-0.154541
C188	C	0.135178	-0.249089	-0.095884
C189	C	0.128755	-0.242857	-0.181502
C190	C	0.124695	-0.213862	-0.235600
C191	C	0.122659	-0.159658	-0.262733
O192	O	0.136720	-0.296316	0.522623
O193	O	0.162693	-0.385890	0.459012
O194	O	0.073116	-0.296315	0.459000
O195	O	0.226297	-0.385891	0.522635
O196	O	0.073125	-0.223561	0.386249
O197	O	0.162702	-0.313136	0.386260
O198	O	0.136728	-0.223562	0.449871
Zn199	Zn	0.149716	-0.256798	0.406515
Zn200	Zn	0.149705	-0.352654	0.502368
O201	O	0.226306	-0.313137	0.449883
C202	C	-0.528835	0.518896	-0.400596
C203	C	-0.502267	0.544976	-0.427040
C204	C	-0.449621	0.439671	-0.321383
C205	C	-0.423173	0.465871	-0.347947
C206	C	-0.449621	0.518894	-0.400591
C207	C	-0.502267	0.465874	-0.347953
C208	C	-0.614449	0.525120	-0.400395
C209	C	-0.668547	0.554117	-0.425332
C210	C	-0.695679	0.608323	-0.477494
C211	C	-0.754336	0.639767	-0.504533
C212	C	-0.668718	0.633538	-0.504729
C213	C	-0.614622	0.604542	-0.479795
C214	C	-0.587490	0.550335	-0.427628
C215	C	-0.449826	0.604722	-0.479976
C216	C	-0.424890	0.633887	-0.505078
C217	C	-0.372726	0.608850	-0.478008
C218	C	-0.345687	0.640471	-0.505221
C219	C	-0.345487	0.554643	-0.425836
C220	C	-0.370420	0.525478	-0.400737
C221	C	-0.422590	0.550520	-0.427807
C222	C	-0.449827	0.360475	-0.235774
C223	C	-0.424895	0.310431	-0.181675
C224	C	-0.372730	0.285329	-0.154541
C225	C	-0.345693	0.231066	-0.095885
C226	C	-0.345493	0.310267	-0.181496
C227	C	-0.370424	0.360310	-0.235593
C228	C	-0.422591	0.385412	-0.262730
H229	H	-0.379922	-0.556092	0.032492
C230	C	-0.288108	-0.717365	0.018797
C231	C	-0.277011	-0.717856	-0.030147
C232	C	-0.219628	-0.745461	-0.032388
C233	C	-0.173342	-0.772575	0.014316
C234	C	-0.184438	-0.772085	0.063263
C235	C	-0.241821	-0.744480	0.065504
H236	H	-0.311276	-0.697784	-0.064723
H237	H	-0.211414	-0.745824	-0.068622
H238	H	-0.130863	-0.793010	0.012657
H239	H	-0.150173	-0.792157	0.097839
H240	H	-0.250035	-0.744118	0.101739
H241	H	-0.690492	-0.322048	0.019398
H242	H	0.123059	0.010043	-0.501975
H243	H	-0.258358	-0.086616	0.264453
C244	C	0.178073	-0.530520	0.256974
C245	C	0.132209	-0.536583	0.248676
C246	C	0.133011	-0.566196	0.219859
C247	C	0.179676	-0.589747	0.199340
C248	C	0.225543	-0.583685	0.207638
C249	C	0.224741	-0.554071	0.236455
H250	H	0.097662	-0.519148	0.263865
H251	H	0.099057	-0.570684	0.213716
H252	H	0.180269	-0.611669	0.178009
H253	H	0.260090	-0.601119	0.192449
H254	H	0.258695	-0.549583	0.242598
C255	C	0.122467	-0.241579	-0.343369
C256	C	0.169181	-0.307510	-0.297171
C257	C	0.166958	-0.335242	-0.239780
C258	C	0.118021	-0.297042	-0.228587
C259	C	0.071303	-0.231107	-0.274787
C260	C	0.073526	-0.203376	-0.332178
H261	H	0.205410	-0.335791	-0.305455
H262	H	0.201541	-0.384051	-0.205580
H263	H	0.116376	-0.317571	-0.186103
H264	H	0.035074	-0.202826	-0.266503
H265	H	0.038943	-0.154566	-0.366378
C266	C	-0.107189	-0.245285	0.423310
C267	C	-0.098879	-0.305515	0.437667
C268	C	-0.070058	-0.363151	0.496098
C269	C	-0.049546	-0.360557	0.540171
C270	C	-0.057856	-0.300325	0.525815
C271	C	-0.086677	-0.242689	0.467384
H272	H	-0.114064	-0.307437	0.405040
H273	H	-0.063906	-0.407738	0.506725
H274	H	-0.028211	-0.403223	0.583425
H275	H	-0.042671	-0.298403	0.558441
H276	H	-0.092829	-0.198102	0.456757
C277	C	0.130978	-0.135688	-0.562491
C278	C	0.179916	-0.173893	-0.573680
C279	C	0.182147	-0.146162	-0.631068
C280	C	0.135441	-0.080226	-0.677267
C281	C	0.086501	-0.042017	-0.666080
C282	C	0.084269	-0.069748	-0.608692
H283	H	0.214493	-0.222707	-0.539479
H284	H	0.218377	-0.174447	-0.639349
H285	H	0.137093	-0.059698	-0.719749
H286	H	0.051923	0.006797	-0.700281
H287	H	0.048040	-0.041463	-0.600411
C288	C	-0.107197	-0.245235	-0.028295
C289	C	-0.055279	-0.305457	0.017586
C290	C	-0.026467	-0.363108	0.016815
C291	C	-0.049572	-0.360536	-0.029837
C292	C	-0.101493	-0.300311	-0.075721
C293	C	-0.130305	-0.242661	-0.074950
H294	H	-0.038172	-0.307363	0.052123
H295	H	0.011968	-0.407690	0.050781
H296	H	-0.028244	-0.403212	-0.030408
H297	H	-0.118600	-0.298406	-0.110258
H298	H	-0.168740	-0.198079	-0.108916
C299	C	0.130974	-0.135721	-0.152013
C300	C	0.087623	-0.115559	-0.127061
C301	C	0.089858	-0.087839	-0.097396
C302	C	0.135443	-0.080281	-0.092684
C303	C	0.178797	-0.100445	-0.117637
C304	C	0.176563	-0.128165	-0.147302
H305	H	0.053875	-0.121152	-0.130549
H306	H	0.057764	-0.072913	-0.078924
H307	H	0.137098	-0.059761	-0.070724
H308	H	0.212546	-0.094851	-0.114149
H309	H	0.208656	-0.143091	-0.165774
H310	H	0.123031	0.009743	-0.357914
H311	H	-0.592670	-0.518703	0.026754
C312	C	0.117072	-0.045578	-0.319145
C313	C	0.070391	-0.022011	-0.298650
C314	C	0.069568	0.007621	-0.269845
C315	C	0.115428	0.013686	-0.261535
C316	C	0.162113	-0.009881	-0.282031
C317	C	0.162935	-0.039513	-0.310836
H318	H	0.036440	-0.026501	-0.304801
H319	H	0.035009	0.025067	-0.254672
H320	H	0.114819	0.035622	-0.240212
H321	H	0.196063	-0.005391	-0.275880
H322	H	0.197495	-0.056959	-0.326008
H323	H	0.177854	-0.522830	0.408140
H324	H	0.117290	-0.196956	-0.326627
H325	H	-0.114673	-0.522795	0.264437
C326	C	-0.364744	-0.211925	-0.319149
C327	C	-0.320692	-0.209299	-0.298645
C328	C	-0.262256	-0.266918	-0.269813
C329	C	-0.247872	-0.327164	-0.261486
C330	C	-0.291925	-0.329793	-0.281990
C331	C	-0.350361	-0.272173	-0.310822
H332	H	-0.331339	-0.164699	-0.304810
H333	H	-0.229645	-0.264972	-0.254635
H334	H	-0.204614	-0.369817	-0.240143
H335	H	-0.281278	-0.374392	-0.275826
H336	H	-0.382972	-0.274119	-0.326001
C337	C	-0.107188	-0.078931	0.256978
C338	C	-0.049156	-0.107756	0.286201
C339	C	-0.020333	-0.078147	0.257391
C340	C	-0.049543	-0.019713	0.199358
C341	C	-0.107578	0.009114	0.170131
C342	C	-0.136400	-0.020495	0.198941
H343	H	-0.027531	-0.151015	0.329164
H344	H	0.022628	-0.099487	0.279027
H345	H	-0.028206	0.002205	0.178031
H346	H	-0.129203	0.052373	0.127169
H347	H	-0.179362	0.000846	0.177305
C348	C	0.122449	-0.074809	-0.509773
C349	C	0.076853	-0.016845	-0.562872
C350	C	0.074617	0.042778	-0.592648
C351	C	0.117978	0.044436	-0.569326
C352	C	0.163578	-0.013530	-0.516225
C353	C	0.165813	-0.073152	-0.486448
H354	H	0.044751	-0.018071	-0.580139
H355	H	0.040860	0.085688	-0.631958
H356	H	0.116322	0.088573	-0.591368
H357	H	0.195679	-0.012304	-0.498957
H358	H	0.199570	-0.116063	-0.447139
C359	C	0.130983	0.107638	-0.395362
C360	C	0.176574	0.066765	-0.342223
C361	C	0.178805	0.094191	-0.312262
C362	C	0.135444	0.162489	-0.335441
C363	C	0.089850	0.203366	-0.388582
C364	C	0.087619	0.175940	-0.418543
H365	H	0.208676	0.016203	-0.325063
H366	H	0.212557	0.063931	-0.272923
H367	H	0.137095	0.182791	-0.313262
H368	H	0.057748	0.253928	-0.405742
H369	H	0.053867	0.206200	-0.457882
H370	H	0.117296	-0.053271	-0.470306
H371	H	-0.303007	0.534258	-0.403799
C372	C	-0.531074	-0.563801	0.032709
C373	C	-0.551590	-0.587364	0.079375
C374	C	-0.580392	-0.616993	0.080178
C375	C	-0.588678	-0.623061	0.034315
C376	C	-0.568162	-0.599498	-0.012355
C377	C	-0.539360	-0.569868	-0.013157
H378	H	-0.545456	-0.582873	0.113329
H379	H	-0.595579	-0.634436	0.114726
H380	H	-0.609999	-0.644995	0.034909
H381	H	-0.574296	-0.603989	-0.046308
H382	H	-0.524173	-0.552425	-0.047705
C383	C	-0.506862	-0.075194	-0.509781
C384	C	-0.518051	-0.015063	-0.520525
C385	C	-0.575438	0.044555	-0.550487
C386	C	-0.621637	0.044042	-0.569706
C387	C	-0.610449	-0.016091	-0.558962
C388	C	-0.553062	-0.075709	-0.529000
H389	H	-0.483851	-0.014682	-0.506298
H390	H	-0.583719	0.089069	-0.558440
H391	H	-0.664118	0.088175	-0.591886
H392	H	-0.644649	-0.016472	-0.573189
H393	H	-0.544781	-0.120224	-0.521047
C394	C	-0.273539	-0.364156	0.256960
C395	C	-0.317610	-0.366752	0.236446
C396	C	-0.376042	-0.309125	0.207640
C397	C	-0.390404	-0.248902	0.199347
C398	C	-0.346332	-0.246303	0.219861
C399	C	-0.287899	-0.303930	0.248667
H400	H	-0.306979	-0.411335	0.242585
H401	H	-0.408667	-0.311049	0.192455
H402	H	-0.433660	-0.206243	0.178023
H403	H	-0.356963	-0.201721	0.213723
H404	H	-0.255275	-0.302006	0.263853
H405	H	0.123023	-0.090311	-0.257863
C406	C	-0.107194	-0.530504	0.423299
C407	C	-0.098894	-0.492944	0.437668
C408	C	-0.070077	-0.522571	0.496102
C409	C	-0.049560	-0.589757	0.540168
C410	C	-0.057859	-0.627321	0.525800
C411	C	-0.086676	-0.597694	0.467366
H412	H	-0.114083	-0.443206	0.405047
H413	H	-0.063934	-0.494764	0.506738
H414	H	-0.028228	-0.611689	0.583424
H415	H	-0.042671	-0.677059	0.558421
H416	H	-0.092819	-0.625501	0.456730
H417	H	-0.114681	-0.086573	-0.028104
H418	H	0.177867	-0.379153	0.264468
H419	H	-0.690817	0.677680	-0.547206
H420	H	-0.348193	-0.234430	-0.357937
H421	H	0.130421	0.100827	-0.547207
H422	H	0.130406	-0.286972	-0.403829
C423	C	-0.287751	-0.302827	-0.152045
C424	C	-0.241549	-0.302320	-0.171773
C425	C	-0.184166	-0.361945	-0.142121
C426	C	-0.172985	-0.422077	-0.092740
C427	C	-0.219189	-0.422586	-0.073008
C428	C	-0.276572	-0.362961	-0.102661
H429	H	-0.249825	-0.257804	-0.208331
H430	H	-0.149963	-0.361568	-0.156728
H431	H	-0.130507	-0.466216	-0.070789
H432	H	-0.210913	-0.467102	-0.036451
H433	H	-0.310774	-0.363338	-0.088054
H434	H	0.123049	-0.234393	-0.257550
H435	H	0.130414	-0.286994	-0.159406
H436	H	-0.446416	-0.143601	-0.159427
H437	H	-0.379918	0.443941	-0.326613
H438	H	-0.523597	0.587640	-0.470296
C439	C	-0.507213	-0.367798	0.027340
C440	C	-0.519579	-0.360290	0.072933
C441	C	-0.576964	-0.332751	0.075170
C442	C	-0.621983	-0.312719	0.031813
C443	C	-0.609619	-0.320226	-0.013783
C444	C	-0.552234	-0.347766	-0.016020
H445	H	-0.486252	-0.375120	0.105031
H446	H	-0.586117	-0.327193	0.108923
H447	H	-0.664463	-0.292332	0.033469
H448	H	-0.642946	-0.305397	-0.045881
H449	H	-0.543081	-0.353323	-0.049774
C450	C	-0.531077	0.436246	-0.319135
C451	C	-0.551595	0.412698	-0.342252
C452	C	-0.580401	0.383068	-0.313432
C453	C	-0.588689	0.376988	-0.261497
C454	C	-0.568170	0.400537	-0.238378
C455	C	-0.539364	0.430166	-0.267197
H456	H	-0.545461	0.417198	-0.380700
H457	H	-0.595591	0.365636	-0.330547
H458	H	-0.610012	0.355054	-0.240163
H459	H	-0.574304	0.396036	-0.199930
H460	H	-0.524174	0.447598	-0.250083
C461	C	-0.454855	0.283000	-0.152029
C462	C	-0.474068	0.256022	-0.171768
C463	C	-0.504029	0.228590	-0.142119
C464	C	-0.514778	0.228136	-0.092730
C465	C	-0.495565	0.255115	-0.072987
C466	C	-0.465603	0.282547	-0.102637
H467	H	-0.466111	0.256357	-0.208332
H468	H	-0.518251	0.208619	-0.156734
H469	H	-0.536957	0.207830	-0.070782
H470	H	-0.503521	0.254780	-0.036424
H471	H	-0.451381	0.302518	-0.088022
H472	H	-0.592359	-0.374950	0.026761
H473	H	-0.690815	-0.465790	0.019388
H474	H	-0.302652	-0.287333	-0.403167
H475	H	-0.492303	0.380909	-0.257867
H476	H	-0.592359	0.480981	-0.357920
C477	C	-0.698203	0.526383	-0.395376
C478	C	-0.678466	0.460451	-0.376158
C479	C	-0.708124	0.432717	-0.346204
C480	C	-0.757519	0.470914	-0.335468
C481	C	-0.777258	0.536850	-0.354686
C482	C	-0.747600	0.564585	-0.384640
H483	H	-0.641899	0.432172	-0.384105
H484	H	-0.693512	0.383907	-0.331978
H485	H	-0.779473	0.450384	-0.313295
H486	H	-0.813825	0.565130	-0.346739
H487	H	-0.762213	0.613395	-0.398866
H488	H	-0.348242	0.481343	-0.358259
C489	C	-0.273540	-0.078879	-0.028325
C490	C	-0.287909	-0.116447	0.017530
C491	C	-0.346345	-0.086830	0.016714
C492	C	-0.390411	-0.019647	-0.029956
C493	C	-0.376043	0.017925	-0.075815
C494	C	-0.317607	-0.011692	-0.074999
H495	H	-0.255288	-0.166184	0.052081
H496	H	-0.356981	-0.114644	0.050662
H497	H	-0.433668	0.002277	-0.030560
H498	H	-0.408664	0.067662	-0.110366
H499	H	-0.306971	0.016121	-0.108947
C500	C	-0.454856	-0.717024	0.018826
C501	C	-0.431676	-0.785323	0.062191
C502	C	-0.461634	-0.812754	0.059965
C503	C	-0.514772	-0.771885	0.014374
C504	C	-0.537955	-0.703582	-0.028993
C505	C	-0.507997	-0.676151	-0.026767
H506	H	-0.392337	-0.815581	0.095942
H507	H	-0.444472	-0.863317	0.092068
H508	H	-0.536949	-0.792191	0.012726
H509	H	-0.577294	-0.673325	-0.062745
H510	H	-0.525159	-0.625588	-0.058871
H511	H	-0.592670	0.625071	-0.501973
H512	H	-0.492302	0.625111	-0.502024
C513	C	-0.454853	0.693510	-0.562463
C514	C	-0.507990	0.751369	-0.574727
C515	C	-0.537948	0.810992	-0.632114
C516	C	-0.514771	0.812758	-0.677235
C517	C	-0.461631	0.754898	-0.664972
C518	C	-0.431672	0.695274	-0.607586
H519	H	-0.525150	0.750063	-0.541325
H520	H	-0.577286	0.853824	-0.641191
H521	H	-0.536948	0.856895	-0.719716
H522	H	-0.444471	0.756203	-0.698375
H523	H	-0.392335	0.652442	-0.598508
H524	H	-0.447080	-0.322039	0.019384
C525	C	-0.340466	0.387743	-0.265247
C526	C	-0.321242	0.414711	-0.245503
C527	C	-0.291284	0.442145	-0.275156
C528	C	-0.280549	0.442611	-0.324554
C529	C	-0.299772	0.415643	-0.344300
C530	C	-0.329731	0.388209	-0.314646
H531	H	-0.329189	0.414367	-0.208934
H532	H	-0.277053	0.462109	-0.260539
H533	H	-0.258372	0.462919	-0.346505
H534	H	-0.291826	0.415987	-0.380869
H535	H	-0.343961	0.368245	-0.329264
H536	H	-0.303016	0.289827	-0.159398
H537	H	-0.523602	-0.412416	0.032492
H538	H	-0.492305	-0.619125	0.026767
C539	C	-0.454148	-0.136441	-0.562136
C540	C	-0.464753	-0.174782	-0.573230
C541	C	-0.494532	-0.147245	-0.630613
C542	C	-0.513706	-0.081367	-0.676903
C543	C	-0.503102	-0.043022	-0.665811
C544	C	-0.473323	-0.070560	-0.608427
H545	H	-0.450558	-0.223552	-0.538962
H546	H	-0.502381	-0.175630	-0.638824
H547	H	-0.535750	-0.060982	-0.719381
H548	H	-0.517296	0.005748	-0.700078
H549	H	-0.465473	-0.042174	-0.600216
H550	H	-0.348250	-0.518687	0.026730
C551	C	-0.340470	-0.612289	0.027326
C552	C	-0.287329	-0.653158	0.072912
C553	C	-0.257374	-0.625724	0.075141
C554	C	-0.280561	-0.557421	0.031782
C555	C	-0.333705	-0.516548	-0.013808
C556	C	-0.363660	-0.543982	-0.016036
H557	H	-0.270162	-0.703724	0.105012
H558	H	-0.218034	-0.655982	0.108890
H559	H	-0.258387	-0.537113	0.033431
H560	H	-0.350872	-0.465982	-0.045908
H561	H	-0.403000	-0.513724	-0.049785
H562	H	-0.523604	-0.053284	-0.326647
C563	C	-0.288115	-0.472931	0.018779
C564	C	-0.275750	-0.480436	-0.026816
C565	C	-0.218365	-0.507975	-0.029053
C566	C	-0.173345	-0.528009	0.014304
C567	C	-0.185709	-0.520504	0.059902
C568	C	-0.243093	-0.492965	0.062140
H569	H	-0.309077	-0.465605	-0.058914
H570	H	-0.209213	-0.513531	-0.062808
H571	H	-0.130866	-0.548395	0.012648
H572	H	-0.152381	-0.535335	0.092001
H573	H	-0.252246	-0.487410	0.095894
H574	H	-0.523599	-0.053278	-0.470330
C575	C	-0.584965	0.002914	-0.343394
C576	C	-0.560014	-0.065389	-0.298273
C577	C	-0.530346	-0.092817	-0.240889
C578	C	-0.525629	-0.051943	-0.228626
C579	C	-0.550581	0.016365	-0.273748
C580	C	-0.580249	0.043793	-0.331132
H581	H	-0.563506	-0.095651	-0.307349
H582	H	-0.511876	-0.143383	-0.207486
H583	H	-0.503667	-0.072247	-0.186147
H584	H	-0.547089	0.046626	-0.264671
H585	H	-0.598719	0.094359	-0.364534
H586	H	-0.592365	0.009742	-0.502060
C587	C	-0.698207	0.107639	-0.562510
C588	C	-0.702928	0.066768	-0.574776
C589	C	-0.732586	0.094197	-0.632163
C590	C	-0.757523	0.162496	-0.677285
C591	C	-0.752802	0.203371	-0.665020
C592	C	-0.723144	0.175942	-0.607632
H593	H	-0.684467	0.016206	-0.541373
H594	H	-0.736080	0.063938	-0.641242
H595	H	-0.779477	0.182800	-0.719767
H596	H	-0.771263	0.253934	-0.698423
H597	H	-0.719650	0.206201	-0.598553
H598	H	-0.348193	-0.234426	-0.257886
C599	C	-0.698575	0.107987	-0.396107
C600	C	-0.748010	0.108477	-0.385499
C601	C	-0.777855	0.136083	-0.355722
C602	C	-0.758266	0.163199	-0.336552
C603	C	-0.708829	0.162710	-0.347159
C604	C	-0.678983	0.135104	-0.376937
H605	H	-0.762513	0.088403	-0.399690
H606	H	-0.814452	0.136445	-0.347869
H607	H	-0.780360	0.183635	-0.314509
H608	H	-0.694326	0.182783	-0.332969
H609	H	-0.642387	0.134741	-0.384789
H610	H	-0.491961	-0.090687	-0.257571
