data_functionalizedCrystal
_audit_creation_method	'MofGen! by Chris Wilmer'
_symmetry_space_group_name_H-M	'P1'
_symmetry_Int_Tables_number	1
_symmetry_cell_setting	triclinic
loop_
_symmetry_equiv_pos_as_xyz
  x,y,z
_cell_length_a	19.805407
_cell_length_b	12.645330
_cell_length_c	19.805398
_cell_angle_alpha	89.979943
_cell_angle_beta	89.984135
_cell_angle_gamma	90.017692
loop_
_atom_site_label
_atom_site_type_symbol
_atom_site_fract_x
_atom_site_fract_y
_atom_site_fract_z
Zn1	Zn	1.034752	-0.422081	-0.382747
Zn2	Zn	1.534752	0.077919	0.117253
Zn3	Zn	1.034691	-0.599354	-0.269571
Zn4	Zn	1.534691	-0.099354	0.230429
Zn5	Zn	0.921574	-0.422105	-0.269572
Zn6	Zn	1.421574	0.077895	0.230428
Zn7	Zn	0.921547	-0.599303	-0.382717
Zn8	Zn	1.421547	-0.099303	0.117283
O9	O	0.978141	-0.510711	-0.326152
O10	O	1.478141	-0.010711	0.173848
O11	O	1.129460	-0.445608	-0.367746
O12	O	1.629460	0.054392	0.132254
O13	O	1.019672	-0.575873	-0.174854
O14	O	1.519672	-0.075873	0.325146
O15	O	0.936624	-0.273755	-0.284598
O16	O	1.436624	0.226245	0.215402
O17	O	1.129416	-0.575850	-0.284596
O18	O	1.629416	-0.075850	0.215404
O19	O	1.019775	-0.273737	-0.367747
O20	O	1.519775	0.226263	0.132253
O21	O	0.936565	-0.445649	-0.174855
O22	O	1.436565	0.054351	0.325145
O23	O	0.826854	-0.445600	-0.284569
O24	O	1.326854	0.054400	0.215431
O25	O	0.936578	-0.575763	-0.477438
O26	O	1.436578	-0.075763	0.022562
O27	O	0.826834	-0.575786	-0.367696
O28	O	1.326834	-0.075786	0.132304
O29	O	1.019749	-0.445559	-0.477460
O30	O	1.519749	0.054441	0.022540
O31	O	1.019646	-0.747695	-0.284567
O32	O	1.519646	-0.247695	0.215433
O33	O	0.936520	-0.747657	-0.367695
O34	O	1.436520	-0.247657	0.132305
C35	C	0.802285	-0.510691	-0.326130
C36	C	1.302285	-0.010691	0.173870
C37	C	0.727053	-0.510708	-0.326137
C38	C	1.227053	-0.010708	0.173863
C39	C	0.978092	-0.786141	-0.326142
C40	C	1.478092	-0.286141	0.173858
C41	C	0.978132	-0.903971	-0.326161
C42	C	1.478132	-0.403971	0.173839
C43	C	0.691716	-0.578598	-0.369351
C44	C	1.191716	-0.078598	0.130649
C45	C	0.621028	-0.578600	-0.369361
C46	C	1.121028	-0.078600	0.130639
C47	C	0.585678	-0.510716	-0.326152
C48	C	1.085678	-0.010716	0.173848
C49	C	0.621019	-0.442818	-0.282935
C50	C	1.121019	0.057182	0.217065
C51	C	0.691706	-0.442812	-0.282930
C52	C	1.191706	0.057188	0.217070
C53	C	0.335946	-0.442842	-0.282958
C54	C	0.835946	0.057158	0.217042
C55	C	0.265254	-0.442856	-0.282965
C56	C	0.765254	0.057144	0.217035
C57	C	0.265268	-0.578629	-0.369388
C58	C	0.765268	-0.078629	0.130612
C59	C	0.335955	-0.578623	-0.369383
C60	C	0.835955	-0.078623	0.130617
C61	C	0.371290	-0.510722	-0.326169
C62	C	0.871290	-0.010722	0.173831
C63	C	0.447939	-0.510719	-0.326160
C64	C	0.947939	-0.010719	0.173840
C65	C	0.509030	-0.510723	-0.326157
C66	C	1.009030	-0.010723	0.173843
C67	C	0.926053	-1.071555	-0.378618
C68	C	1.426053	-0.571555	0.121382
C69	C	0.925787	-0.948996	-0.378450
C70	C	1.425787	-0.448996	0.121550
C71	C	0.958831	-0.948556	-0.254828
C72	C	1.458831	-0.448556	0.245172
C73	C	0.958513	-1.071154	-0.255147
C74	C	1.458513	-0.571154	0.244853
C75	C	1.049832	-1.071063	-0.344457
C76	C	1.549832	-0.571063	0.155543
C77	C	1.049392	-0.948456	-0.346017
C78	C	1.549392	-0.448456	0.153983
C79	C	1.154684	-0.510732	-0.326174
C80	C	1.654684	-0.010732	0.173826
C81	C	1.229916	-0.510741	-0.326184
C82	C	1.729916	-0.010741	0.173816
C83	C	0.978168	-0.510652	-0.502695
C84	C	1.478168	-0.010652	-0.002695
C85	C	0.978179	-0.510627	-0.577927
C86	C	1.478179	-0.010627	-0.077927
C87	C	0.978209	-0.234206	-0.326176
C88	C	1.478209	0.265794	0.173824
C89	C	0.978238	-0.116376	-0.326186
C90	C	1.478238	0.383624	0.173814
C91	C	1.021568	-0.442642	-1.039730
C92	C	1.521568	0.057358	-0.539730
C93	C	1.021557	-0.442675	-0.969042
C94	C	1.521557	0.057325	-0.469042
C95	C	0.978248	-0.510480	-0.933688
C96	C	1.478248	-0.010480	-0.433688
C97	C	0.934952	-0.578264	-0.969027
C98	C	1.434952	-0.078264	-0.469027
C99	C	0.934967	-0.578237	-1.039714
C100	C	1.434967	-0.078237	-0.539714
C101	C	0.934893	-0.578379	-0.683954
C102	C	1.434893	-0.078379	-0.183954
C103	C	0.934881	-0.578400	-0.613262
C104	C	1.434881	-0.078400	-0.113262
C105	C	1.021484	-0.442818	-0.613281
C106	C	1.521484	0.057182	-0.113281
C107	C	1.021498	-0.442790	-0.683968
C108	C	1.521498	0.057210	-0.183968
C109	C	0.978205	-0.510578	-0.719301
C110	C	1.478205	-0.010578	-0.219301
C111	C	0.978218	-0.510543	-0.795949
C112	C	1.478218	-0.010543	-0.295949
C113	C	0.978232	-0.510510	-0.857041
C114	C	1.478232	-0.010510	-0.357041
C115	C	0.978154	-0.510693	-0.150296
C116	C	1.478154	-0.010693	0.349704
C117	C	0.978273	-0.510419	-0.075064
C118	C	1.478273	-0.010419	0.424936
H119	H	0.720494	-0.633880	-0.404534
H120	H	1.220494	-0.133880	0.095466
H121	H	0.364734	-0.633905	-0.404566
H122	H	0.864734	-0.133905	0.095434
H123	H	0.720476	-0.387523	-0.247744
H124	H	1.220476	0.112477	0.252256
N125	N	0.582892	-0.369608	-0.236327
N126	N	1.082892	0.130392	0.263673
H127	H	0.616006	-0.326598	-0.208950
H128	H	1.116006	0.173402	0.291050
H129	H	0.553579	-0.320610	-0.263932
H130	H	1.053579	0.179390	0.236068
H131	H	0.236489	-0.633914	-0.404578
H132	H	0.736489	-0.133914	0.095422
N133	N	0.888159	-0.651534	-0.575137
N134	N	1.388159	-0.151534	-0.075137
H135	H	0.898656	-0.727276	-0.587430
H136	H	1.398656	-0.227276	-0.087430
H137	H	0.894734	-0.641173	-0.525007
H138	H	1.394734	-0.141173	-0.025007
N139	N	0.888235	-0.651395	-0.930903
N140	N	1.388235	-0.151395	-0.430903
H141	H	0.898732	-0.727136	-0.943199
H142	H	1.398732	-0.227136	-0.443199
H143	H	0.894812	-0.641039	-0.880772
H144	H	1.394812	-0.141039	-0.380772
N145	N	0.941776	-0.909052	-0.448510
N146	N	1.441776	-0.409052	0.051490
H147	H	0.949062	-0.971084	-0.479782
H148	H	1.449062	-0.471084	0.020218
H149	H	0.902894	-0.864845	-0.465575
H150	H	1.402894	-0.364845	0.034425
N151	N	0.941891	-1.110526	-0.448912
N152	N	1.441891	-0.610526	0.051088
H153	H	0.983046	-1.157615	-0.447456
H154	H	1.483046	-0.657615	0.052544
H155	H	0.902151	-1.151887	-0.466903
H156	H	1.402151	-0.651887	0.033097
N157	N	1.073172	-1.111925	-0.412181
N158	N	1.573172	-0.611925	0.087819
H159	H	1.040052	-1.089636	-0.448244
H160	H	1.540052	-0.589636	0.051756
H161	H	1.119206	-1.081850	-0.422836
H162	H	1.619206	-0.581850	0.077164
N163	N	0.856184	-1.112476	-0.362795
N164	N	1.356184	-0.612476	0.137205
H165	H	0.858188	-1.159921	-0.321810
H166	H	1.358188	-0.659921	0.178190
H167	H	0.825102	-1.050913	-0.353391
H168	H	1.325102	-0.550913	0.146609
N169	N	0.888274	-0.651343	-1.077828
N170	N	1.388274	-0.151343	-0.577828
H171	H	0.860835	-0.694301	-1.044707
H172	H	1.360835	-0.194301	-0.544707
H173	H	0.856967	-0.608180	-1.107159
H174	H	1.356967	-0.108180	-0.607159
N175	N	0.582914	-0.651839	-0.415960
N176	N	1.082914	-0.151839	0.084040
H177	H	0.616035	-0.694852	-0.443325
H178	H	1.116035	-0.194852	0.056675
H179	H	0.553572	-0.700833	-0.388346
H180	H	1.053572	-0.200833	0.111654
N181	N	0.227123	-0.369636	-0.236359
N182	N	0.727123	0.130364	0.263641
H183	H	0.260233	-0.326617	-0.208983
H184	H	0.760233	0.173383	0.291017
H185	H	0.197809	-0.320646	-0.263969
H186	H	0.697809	0.179354	0.236031
N187	N	0.374052	-0.369593	-0.236362
N188	N	0.874052	0.130407	0.263638
H189	H	0.340930	-0.326590	-0.208993
H190	H	0.840930	0.173410	0.291007
H191	H	0.403371	-0.412654	-0.204985
H192	H	0.903371	0.087346	0.295015
N193	N	0.855486	-0.910254	-0.362408
N194	N	1.355486	-0.410254	0.137592
H195	H	0.822933	-0.937106	-0.397710
H196	H	1.322933	-0.437106	0.102290
H197	H	0.841462	-0.937324	-0.316516
H198	H	1.341462	-0.437324	0.183484
H199	H	0.899641	-0.633575	-0.712713
H200	H	1.399641	-0.133575	-0.212713
H201	H	1.056762	-0.387572	-0.712750
H202	H	1.556762	0.112428	-0.212750
N203	N	1.007578	-0.909933	-0.201662
N204	N	1.507578	-0.409933	0.298338
H205	H	1.042726	-0.863049	-0.223356
H206	H	1.542726	-0.363049	0.276644
H207	H	0.982136	-0.868439	-0.166298
H208	H	1.482136	-0.368439	0.333702
N209	N	0.889188	-1.109156	-0.234650
N210	N	1.389188	-0.609156	0.265350
H211	H	0.869135	-1.152981	-0.272262
H212	H	1.369135	-0.652981	0.227738
H213	H	0.892909	-1.153630	-0.192449
H214	H	1.392909	-0.653630	0.307551
N215	N	1.006671	-1.110443	-0.201636
N216	N	1.506671	-0.610443	0.298364
H217	H	1.028010	-1.048118	-0.177943
H218	H	1.528010	-0.548118	0.322057
H219	H	0.981142	-1.154792	-0.167746
H220	H	1.481142	-0.654792	0.332254
H221	H	0.907041	-0.917942	-0.239071
H222	H	1.407041	-0.417942	0.260929
H223	H	1.063948	-0.919312	-0.398514
H224	H	1.563948	-0.419312	0.101486
H225	H	1.090319	-0.917801	-0.310610
H226	H	1.590319	-0.417801	0.189390
H227	H	1.088711	-1.100046	-0.306269
H228	H	1.588711	-0.600046	0.193731
N229	N	1.068273	-0.369498	-1.077859
N230	N	1.568273	0.130502	-0.577859
H231	H	1.095698	-0.326567	-1.044746
H232	H	1.595698	0.173433	-0.544746
H233	H	1.099593	-0.412637	-1.107189
H234	H	1.599593	0.087363	-0.607189
H235	H	1.056813	-0.387487	-0.940276
H236	H	1.556813	0.112513	-0.440276
H237	H	1.056737	-0.387624	-0.584505
H238	H	1.556737	0.112376	-0.084505
