data_functionalizedCrystal
_audit_creation_method	'MofGen! by Chris Wilmer'
_symmetry_space_group_name_H-M	'P1'
_symmetry_Int_Tables_number	1
_symmetry_cell_setting	triclinic
loop_
_symmetry_equiv_pos_as_xyz
  x,y,z
_cell_length_a	19.288864
_cell_length_b	9.482944
_cell_length_c	19.288865
_cell_angle_alpha	100.460747
_cell_angle_beta	83.136245
_cell_angle_gamma	100.516125
loop_
_atom_site_label
_atom_site_type_symbol
_atom_site_fract_x
_atom_site_fract_y
_atom_site_fract_z
O1	O	0.931067	0.121386	0.096311
O2	O	1.431067	0.621386	0.596311
O3	O	0.728798	0.121289	0.107992
O4	O	1.228798	0.621289	0.607992
O5	O	0.835775	0.121312	0.001019
O6	O	1.335775	0.621312	0.501019
O7	O	0.824090	0.121364	0.203284
O8	O	1.324090	0.621364	0.703284
O9	O	0.816406	-0.120495	-0.018234
O10	O	1.316406	0.379505	0.481766
O11	O	0.709430	-0.120518	0.088739
O12	O	1.209430	0.379482	0.588739
O13	O	0.911698	-0.120421	0.077058
O14	O	1.411698	0.379579	0.577058
Cu15	Cu	0.808795	-0.142548	0.081140
Cu16	Cu	1.308795	0.357452	0.581140
Cu17	Cu	0.831701	0.143417	0.103910
Cu18	Cu	1.331701	0.643417	0.603910
O19	O	0.804722	-0.120443	0.184031
O20	O	1.304722	0.379557	0.684031
C21	C	0.693236	0.000373	0.097988
C22	C	1.193236	0.500373	0.597988
C23	C	0.616130	0.000334	0.096856
C24	C	1.116130	0.500334	0.596856
N25	N	0.792690	-0.343681	0.065125
N26	N	1.292690	0.156319	0.565125
C27	C	0.571437	0.000373	0.159627
C28	C	1.071437	0.500373	0.659627
C29	C	0.498991	0.000389	0.158568
C30	C	0.998991	0.500389	0.658568
C31	C	0.471244	0.000395	0.094736
C32	C	0.971244	0.500395	0.594736
C33	C	0.515946	0.000348	0.031956
C34	C	1.015946	0.500348	0.531956
C35	C	0.588389	0.000317	0.033016
C36	C	1.088389	0.500317	0.533016
C37	C	0.369770	0.085147	0.051305
C38	C	0.869770	0.585147	0.551305
C39	C	0.297329	0.085186	0.050249
C40	C	0.797329	0.585186	0.550249
C41	C	0.247805	0.000482	0.091463
C42	C	0.747805	0.500482	0.591463
C43	C	0.270731	-0.084242	0.133748
C44	C	0.770731	0.415758	0.633748
C45	C	0.343174	-0.084273	0.134809
C46	C	0.843174	0.415727	0.634809
C47	C	0.392692	0.000427	0.093580
C48	C	0.892692	0.500427	0.593580
C49	C	0.124557	0.000536	0.153090
C50	C	0.624557	0.500536	0.653090
C51	C	0.052110	0.000543	0.152027
C52	C	0.552110	0.500543	0.652027
C53	C	0.069068	0.000516	0.025415
C54	C	0.569068	0.500516	0.525415
C55	C	0.141512	0.000495	0.026478
C56	C	0.641512	0.500495	0.526478
C57	C	0.169253	0.000512	0.090318
C58	C	0.669253	0.500512	0.590318
C59	C	0.826946	-0.415854	0.099185
C60	C	1.326946	0.084146	0.599185
C61	C	0.813551	-0.583282	0.085854
C62	C	1.313551	-0.083282	0.585854
C63	C	0.947260	0.000499	0.087062
C64	C	1.447260	0.500499	0.587062
C65	C	1.024367	0.000547	0.088195
C66	C	1.524367	0.500547	0.588195
C67	C	0.825714	0.000404	-0.034484
C68	C	1.325714	0.500404	0.465516
C69	C	0.824584	0.000390	-0.111589
C70	C	1.324584	0.500390	0.388411
N71	N	0.847812	0.344549	0.119919
N72	N	1.347812	0.844549	0.619919
C73	C	0.887354	0.000413	-0.156283
C74	C	1.387354	0.500413	0.343717
C75	C	0.886295	0.000436	-0.228729
C76	C	1.386295	0.500436	0.271271
C77	C	0.822460	0.000406	-0.256479
C78	C	1.322460	0.500406	0.243521
C79	C	0.759683	0.000391	-0.211774
C80	C	1.259683	0.500391	0.288226
C81	C	0.760745	0.000383	-0.139329
C82	C	1.260745	0.500383	0.360671
C83	C	0.765494	-0.084318	-0.371512
C84	C	1.265494	0.415682	0.128488
C85	C	0.764434	-0.084319	-0.443956
C86	C	1.264434	0.415681	0.056044
C87	C	0.819183	0.000437	-0.479922
C88	C	1.319183	0.500437	0.020078
C89	C	0.875002	0.085175	-0.443436
C90	C	1.375002	0.585175	0.056564
C91	C	0.876064	0.085167	-0.370992
C92	C	1.376064	0.585167	0.129008
C93	C	0.821302	0.000416	-0.335032
C94	C	1.321302	0.500416	0.164968
C95	C	0.880809	0.000487	-0.603170
C96	C	1.380809	0.500487	-0.103170
C97	C	0.879748	0.000518	-0.675616
C98	C	1.379748	0.500518	-0.175616
C99	C	0.753133	0.000459	-0.658660
C100	C	1.253133	0.500459	-0.158660
C101	C	0.754197	0.000442	-0.586215
C102	C	1.254197	0.500442	-0.086215
C103	C	0.818036	0.000449	-0.558475
C104	C	1.318036	0.500449	-0.058475
C105	C	0.814783	0.000468	0.219534
C106	C	1.314783	0.500468	0.719534
C107	C	0.815913	0.000491	0.296640
C108	C	1.315913	0.500491	0.796640
H109	H	0.594018	0.000390	0.211611
H110	H	1.094018	0.500390	0.711611
C111	C	0.955341	0.000451	-0.277905
C112	C	1.455341	0.500451	0.222095
H113	H	0.945565	0.000462	-0.325023
H114	H	1.445565	0.500462	0.174977
H115	H	0.974768	-0.083866	-0.276237
H116	H	1.474768	0.416134	0.223763
H117	H	0.988285	0.084791	-0.262797
H118	H	1.488285	0.584791	0.237203
H119	H	0.709628	0.000364	-0.102938
H120	H	1.209628	0.500364	0.397062
C121	C	0.948799	0.000541	-0.724780
C122	C	1.448799	0.500541	-0.224780
H123	H	0.986967	0.000529	-0.697882
H124	H	1.486967	0.500529	-0.197882
H125	H	0.957777	0.084869	-0.746672
H126	H	1.457777	0.584869	-0.246672
H127	H	0.944254	-0.083789	-0.760115
H128	H	1.444254	0.416211	-0.260115
C129	C	0.449821	0.000454	0.227620
C130	C	0.949821	0.500454	0.727620
H131	H	0.476719	0.000472	0.265793
H132	H	0.976719	0.500472	0.765793
H133	H	0.414432	-0.083848	0.223133
H134	H	0.914432	0.416152	0.723133
H135	H	0.427989	0.084809	0.236542
H136	H	0.927989	0.584809	0.736542
C137	C	0.879960	-0.331894	0.151914
C138	C	1.379960	0.168106	0.651914
H139	H	0.882003	-0.230378	0.153961
H140	H	1.382003	0.269622	0.653961
H141	H	0.925526	-0.356728	0.136794
H142	H	1.425526	0.143272	0.636794
H143	H	0.865046	-0.356765	0.197525
H144	H	1.365046	0.143235	0.697525
C145	C	0.637555	0.000292	-0.036033
C146	C	1.137555	0.500292	0.463967
H147	H	0.610658	0.000305	-0.074202
H148	H	1.110658	0.500305	0.425798
H149	H	0.659401	-0.084037	-0.044967
H150	H	1.159401	0.415963	0.455033
H151	H	0.672935	0.084620	-0.031533
H152	H	1.172935	0.584620	0.468467
C153	C	0.739669	-0.427634	0.012401
C154	C	1.239669	0.072366	0.512401
H155	H	0.719917	-0.360642	-0.007242
H156	H	1.219917	0.139358	0.492758
H157	H	0.702958	-0.487037	0.036324
H158	H	1.202958	0.012963	0.536324
H159	H	0.763429	-0.487000	-0.024416
H160	H	1.263429	0.013000	0.475584
H161	H	0.718981	-0.153309	-0.473656
H162	H	1.218981	0.346691	0.026344
H163	H	0.939337	0.000424	-0.133702
H164	H	1.439337	0.500424	0.366298
H165	H	0.361838	-0.153263	0.169236
H166	H	0.861838	0.346737	0.669236
C167	C	0.682917	0.000431	-0.689176
C168	C	1.182917	0.500431	-0.189176
H169	H	0.691273	0.000433	-0.738724
H170	H	1.191273	0.500433	-0.238724
H171	H	0.663834	0.084740	-0.667097
H172	H	1.163834	0.584740	-0.167097
H173	H	0.650326	-0.083918	-0.680545
H174	H	1.150326	0.416082	-0.180545
C175	C	0.760528	-0.667230	0.033128
C176	C	1.260528	-0.167230	0.533128
H177	H	0.740776	-0.600237	0.013485
H178	H	1.240776	-0.100237	0.513485
H179	H	0.723817	-0.726632	0.057050
H180	H	1.223817	-0.226632	0.557050
H181	H	0.784288	-0.726596	-0.003689
H182	H	1.284288	-0.226596	0.496311
C183	C	0.937453	0.178387	-0.330858
C184	C	1.437453	0.678387	0.169142
H185	H	0.969907	0.228877	-0.362647
H186	H	1.469907	0.728877	0.137353
H187	H	0.961022	0.117328	-0.311218
H188	H	1.461022	0.617328	0.188782
H189	H	0.919300	0.246494	-0.293953
H190	H	1.419300	0.746494	0.206047
C191	C	0.216267	-0.177427	0.179087
C192	C	0.716267	0.322573	0.679087
H193	H	0.240297	-0.227879	0.204424
H194	H	0.740297	0.272121	0.704424
H195	H	0.185755	-0.245544	0.149236
H196	H	0.685755	0.254456	0.649236
H197	H	0.189155	-0.116328	0.211586
H198	H	0.689155	0.383672	0.711586
C199	C	0.951029	0.000511	-0.572651
C200	C	1.451029	0.500511	-0.072651
H201	H	0.988264	0.000549	-0.609647
H202	H	1.488264	0.500549	-0.109647
H203	H	0.947322	-0.083817	-0.551467
H204	H	1.447322	0.416183	-0.051467
H205	H	0.960828	0.084840	-0.538019
H206	H	1.460828	0.584840	-0.038019
H207	H	0.887060	-0.593297	0.158951
H208	H	1.387060	-0.093297	0.658951
H209	H	0.046484	0.000611	-0.026551
H210	H	0.546484	0.500611	0.473449
H211	H	0.919583	0.154192	-0.472717
H212	H	1.419583	0.654192	0.027283
H213	H	0.703083	0.000415	-0.549824
H214	H	1.203083	0.500415	-0.049824
H215	H	0.720909	-0.153344	-0.342236
H216	H	1.220909	0.346656	0.157764
H217	H	0.707709	0.000370	-0.234372
H218	H	1.207709	0.500370	0.265628
H219	H	0.147143	0.000529	0.205070
H220	H	0.647143	0.500529	0.705070
H221	H	0.015720	0.000566	0.203144
H222	H	0.515720	0.500566	0.703144
C223	C	0.190679	0.000475	-0.042569
C224	C	0.690679	0.500475	0.457431
H225	H	0.163781	0.000493	-0.080737
H226	H	0.663781	0.500493	0.419263
H227	H	0.212522	-0.083858	-0.051503
H228	H	0.712522	0.416142	0.448497
H229	H	0.226061	0.084800	-0.038069
H230	H	0.726061	0.584800	0.461931
H231	H	0.410089	0.154132	0.017742
H232	H	0.910089	0.654132	0.517742
C233	C	0.272112	0.178384	0.003744
C234	C	0.772112	0.678384	0.503744
H235	H	0.221876	0.166289	0.009022
H236	H	0.721876	0.666289	0.509022
H237	H	0.287744	0.148582	-0.044411
H238	H	0.787744	0.648582	0.455589
H239	H	0.291154	0.277795	0.017941
H240	H	0.791154	0.777795	0.517941
C241	C	0.485428	0.000363	-0.038256
C242	C	0.985428	0.500363	0.461744
H243	H	0.435883	0.000403	-0.029896
H244	H	0.935883	0.500403	0.470104
H245	H	0.494009	-0.083970	-0.070809
H246	H	0.994009	0.416030	0.429191
H247	H	0.507559	0.084687	-0.057375
H248	H	1.007559	0.584687	0.442625
