data_functionalizedCrystal
_audit_creation_method	'MofGen! by Chris Wilmer'
_symmetry_space_group_name_H-M	'P1'
_symmetry_Int_Tables_number	1
_symmetry_cell_setting	triclinic
loop_
_symmetry_equiv_pos_as_xyz
  x,y,z
_cell_length_a	17.019292
_cell_length_b	17.038272
_cell_length_c	22.610064
_cell_angle_alpha	89.985903
_cell_angle_beta	93.879878
_cell_angle_gamma	87.242323
loop_
_atom_site_label
_atom_site_type_symbol
_atom_site_fract_x
_atom_site_fract_y
_atom_site_fract_z
O1	O	-1.053360	-0.099562	-0.004489
O2	O	-0.824548	-0.112274	0.007172
O3	O	-0.937594	0.007896	0.001406
O4	O	-0.940314	-0.219732	0.001277
O5	O	-0.937591	0.007921	-0.096963
O6	O	-0.824544	-0.112249	-0.091197
O7	O	-1.053357	-0.099537	-0.102858
Zn8	Zn	-0.938950	-0.105889	-0.112646
Zn9	Zn	-0.938955	-0.105922	0.016960
O10	O	-0.940311	-0.219707	-0.097092
C11	C	-0.795125	-0.111781	-0.040513
C12	C	-0.707457	-0.110341	-0.036046
C13	C	-0.666274	-0.109649	-0.087570
C14	C	-0.583902	-0.108283	-0.083374
C15	C	-0.542715	-0.107615	-0.027654
C16	C	-0.583904	-0.108305	0.023874
C17	C	-0.666275	-0.109665	0.019677
C18	C	-0.294009	-0.103504	-0.012300
C19	C	-0.211632	-0.102146	-0.008108
C20	C	-0.211636	-0.102123	-0.115355
C21	C	-0.294008	-0.103487	-0.119547
C22	C	-0.335190	-0.104173	-0.068020
C23	C	-0.458517	-0.106221	-0.023363
C24	C	-0.419387	-0.105561	-0.072311
C25	C	-0.082781	-0.100026	-0.055170
C26	C	-0.170449	-0.101454	-0.059631
C27	C	-0.935119	0.037035	-0.047652
C28	C	-0.927738	0.123821	-0.047276
C29	C	-0.942786	-0.248845	-0.048032
C30	C	-0.950166	-0.335632	-0.048405
C31	C	-0.995499	0.173997	-0.050730
C32	C	-0.988559	0.255541	-0.050370
C33	C	-0.913859	0.286908	-0.046562
C34	C	-0.846094	0.236726	-0.043106
C35	C	-0.853034	0.155183	-0.043461
C36	C	-0.889341	0.532644	-0.045304
C37	C	-0.882406	0.614193	-0.044951
C38	C	-1.024872	0.633002	-0.052214
C39	C	-1.031806	0.551457	-0.052573
C40	C	-0.964041	0.501282	-0.049114
C41	C	-0.906764	0.370259	-0.046196
C42	C	-0.971136	0.417933	-0.049475
N43	N	-0.938957	-0.105938	0.105412
N44	N	-0.938953	-0.105866	-0.201098
C45	C	-0.989894	-0.153391	0.387662
C46	C	-0.989895	-0.153396	0.325742
O47	O	-1.033221	-0.193764	0.291514
N48	N	-0.938968	-0.105914	0.297364
C49	C	-0.888042	-0.058417	0.330908
O50	O	-0.844725	-0.018029	0.301084
C51	C	-0.888046	-0.058408	0.392827
C52	C	-0.938971	-0.105900	0.421202
C53	C	-1.040816	-0.200879	0.416038
C54	C	-1.040814	-0.200875	0.477954
C55	C	-0.989890	-0.153383	0.511494
C56	C	-0.938969	-0.105896	0.483118
C57	C	-0.837125	-0.010908	0.426370
C58	C	-0.837133	-0.010903	0.488293
C59	C	-0.888058	-0.058395	0.516668
C60	C	-0.888044	-0.058401	0.578574
N61	N	-0.938971	-0.105884	0.606952
C62	C	-0.989894	-0.153375	0.573412
C63	C	-0.888039	-0.058438	0.200875
C64	C	-0.888031	-0.058450	0.138958
C65	C	-0.989885	-0.153428	0.133796
C66	C	-0.989889	-0.153420	0.195715
C67	C	-0.938966	-0.105920	0.229253
C68	C	-0.989886	-0.153363	0.703440
C69	C	-0.989877	-0.153357	0.765362
C70	C	-0.888026	-0.058376	0.770518
C71	C	-0.888031	-0.058385	0.708602
C72	C	-0.938968	-0.105881	0.675064
O73	O	-0.844742	-0.018052	0.612840
O74	O	-1.033211	-0.193748	0.603244
H75	H	-0.178099	-0.101604	0.037269
H76	H	-0.795657	0.027766	0.403278
H77	H	-0.550375	-0.107706	-0.125330
H78	H	-1.031356	-0.192092	0.218814
H79	H	-0.846565	-0.019761	0.228179
H80	H	-1.031349	-0.192099	0.106476
H81	H	-0.327529	-0.104059	0.029657
H82	H	-0.452925	-0.106101	-0.117678
H83	H	-0.797856	0.114330	-0.040648
H84	H	-0.699803	-0.110199	-0.132943
H85	H	-0.821573	0.639728	-0.041859
H86	H	-1.031957	0.392390	-0.052563
H87	H	-0.845943	0.395807	-0.043096
H88	H	-0.699805	-0.110230	0.061633
H89	H	-0.550363	-0.107755	0.069242
H90	H	-1.056328	0.148464	-0.053835
H91	H	-0.327537	-0.104028	-0.164920
H92	H	-0.795666	0.027778	0.515597
H93	H	-0.846555	-0.019723	0.685498
H94	H	-1.031346	-0.192035	0.788462
H95	H	-1.092635	0.525924	-0.055674
H96	H	-0.178097	-0.101563	-0.157306
H97	H	-1.031363	-0.192038	0.676141
H98	H	-0.846563	-0.019712	0.797837
H99	H	-1.082288	-0.239552	0.388736
H100	H	-0.846554	-0.019787	0.115860
H101	H	-1.043737	0.296391	-0.053184
H102	H	-0.424973	-0.105677	0.022004
H103	H	-1.080043	0.673863	-0.055029
H104	H	-0.834162	0.491801	-0.042488
H105	H	-0.785271	0.262271	-0.040001
H106	H	-1.082285	-0.239544	0.501051
