data_functionalizedCrystal
_audit_creation_method	'MofGen! by Chris Wilmer'
_symmetry_space_group_name_H-M	'P1'
_symmetry_Int_Tables_number	1
_symmetry_cell_setting	triclinic
loop_
_symmetry_equiv_pos_as_xyz
  x,y,z
_cell_length_a	14.971475
_cell_length_b	14.048226
_cell_length_c	14.971486
_cell_angle_alpha	90.008738
_cell_angle_beta	96.388096
_cell_angle_gamma	90.002917
loop_
_atom_site_label
_atom_site_type_symbol
_atom_site_fract_x
_atom_site_fract_y
_atom_site_fract_z
O1	O	-1.186942	0.079142	0.116522
O2	O	-0.926540	0.079148	0.130491
O3	O	-1.063720	0.079138	-0.006694
O4	O	-1.049761	0.079152	0.253707
O5	O	-1.063727	-0.079184	-0.006710
O6	O	-0.926547	-0.079173	0.130475
O7	O	-1.186948	-0.079180	0.116506
Zn8	Zn	-1.056748	-0.104313	0.123488
Zn9	Zn	-1.056740	0.104282	0.123509
O10	O	-1.049768	-0.079170	0.253691
C11	C	-0.893218	-0.000012	0.129860
C12	C	-0.793921	-0.000010	0.127993
C13	C	-0.747280	-0.086312	0.127105
C14	C	-0.653981	-0.086312	0.125337
C15	C	-0.607324	-0.000010	0.124463
C16	C	-0.653972	0.086298	0.125348
C17	C	-0.747270	0.086298	0.127110
C18	C	-0.459510	0.086293	0.121678
C19	C	-0.366205	0.086294	0.119918
C20	C	-0.366220	-0.086317	0.119905
C21	C	-0.459518	-0.086317	0.121667
C22	C	-0.506160	-0.000009	0.122554
C23	C	-1.063099	-0.000023	-0.040026
C24	C	-1.061228	-0.000022	-0.139323
C25	C	-0.220269	-0.000016	0.117144
C26	C	-0.319564	-0.000008	0.119030
N27	N	-1.056735	0.246642	0.123517
N28	N	-1.056761	-0.246674	0.123473
C29	C	-1.110946	0.703510	0.177927
C30	C	-1.110946	0.603852	0.177933
C31	C	-1.056754	0.554012	0.123488
C32	C	-1.002566	0.603835	0.069027
C33	C	-1.002572	0.703491	0.069018
C34	C	-1.002556	0.396121	0.069052
C35	C	-1.002549	0.296458	0.069063
C36	C	-1.110930	0.296482	0.177967
C37	C	-1.110936	0.396138	0.177958
C38	C	-1.056746	0.445954	0.123498
C39	C	-1.141818	-0.000024	-0.196552
C40	C	-1.140055	-0.000015	-0.289851
C41	C	-1.057701	-0.000009	-0.325920
C42	C	-0.977106	-0.000004	-0.268685
C43	C	-0.978870	-0.000007	-0.175387
C44	C	-0.973434	-0.000000	-0.463147
C45	C	-0.971670	0.000001	-0.556451
C46	C	-1.134620	-0.000008	-0.577611
C47	C	-1.136384	-0.000011	-0.484314
C48	C	-1.055788	-0.000007	-0.427084
C49	C	-1.050389	-0.000007	0.287024
C50	C	-1.052260	-0.000002	0.386321
H51	H	-0.615978	0.156567	0.124630
H52	H	-0.907804	0.000005	-0.416552
H53	H	-0.328220	0.156569	0.119207
H54	H	-0.958448	0.744050	0.024676
H55	H	-0.910052	0.000007	-0.298059
H56	H	-0.913245	-0.000004	-0.128792
H57	H	-1.203443	-0.000022	-0.454950
H58	H	-0.904610	-0.000010	-0.585815
H59	H	-1.200244	-0.000008	-0.624212
H60	H	-0.785260	-0.156589	0.127824
H61	H	-0.785244	0.156574	0.127835
H62	H	-0.616012	-0.156588	0.124599
O63	O	-1.221896	0.000015	-0.161667
C64	C	-1.292647	-0.000006	-0.232190
H65	H	-1.267500	0.029967	-0.295588
H66	H	-1.350135	0.045961	-0.212629
H67	H	-1.317517	-0.075960	-0.245379
H68	H	-0.958447	0.563248	0.024693
O69	O	-0.504709	-0.170235	0.122476
C70	C	-0.443535	-0.246413	0.121337
H71	H	-0.380701	-0.221121	0.091787
H72	H	-0.476136	-0.306775	0.078450
H73	H	-0.424304	-0.272944	0.192851
O74	O	-0.320905	-0.170137	0.118870
C75	C	-0.276983	-0.175298	0.040449
H76	H	-0.312123	-0.126319	-0.013113
H77	H	-0.279315	-0.251629	0.014434
H78	H	-0.203996	-0.152120	0.056609
H79	H	-0.497482	0.156575	0.122401
H80	H	-1.205679	-0.000019	-0.336444
H81	H	-1.155071	0.563296	0.222273
O82	O	-1.163671	0.751772	0.230841
C83	C	-1.211480	0.686428	0.278921
H84	H	-1.216724	0.615380	0.241908
H85	H	-1.281795	0.715214	0.284711
H86	H	-1.174583	0.675850	0.349019
H87	H	-1.155059	0.436715	0.222296
O88	O	-1.163681	0.248056	0.230731
C89	C	-1.224732	0.190379	0.176398
H90	H	-1.234392	0.220392	0.105238
H91	H	-1.292068	0.189256	0.205223
H92	H	-1.197104	0.114851	0.174798
O93	O	-0.950015	0.248089	0.016036
C94	C	-0.974828	0.272472	-0.074683
H95	H	-1.046940	0.299886	-0.083090
H96	H	-0.969665	0.206936	-0.118729
H97	H	-0.927943	0.330308	-0.095588
O98	O	-0.949782	0.444473	0.016255
C99	C	-0.858997	0.420120	0.040720
H100	H	-0.850292	0.392743	0.112839
H101	H	-0.815012	0.485662	0.035352
H102	H	-0.838273	0.362266	-0.006249
