data_functionalizedCrystal
_audit_creation_method	'MofGen! by Chris Wilmer'
_symmetry_space_group_name_H-M	'P1'
_symmetry_Int_Tables_number	1
_symmetry_cell_setting	triclinic
loop_
_symmetry_equiv_pos_as_xyz
  x,y,z
_cell_length_a	23.532407
_cell_length_b	23.532407
_cell_length_c	22.610064
_cell_angle_alpha	90.000603
_cell_angle_beta	89.997161
_cell_angle_gamma	97.151322
loop_
_atom_site_label
_atom_site_type_symbol
_atom_site_fract_x
_atom_site_fract_y
_atom_site_fract_z
O1	O	0.755263	-0.069127	-0.049117
O2	O	0.589400	-0.079130	-0.049135
O3	O	0.677333	0.008803	-0.049114
O4	O	0.667330	-0.157060	-0.049137
O5	O	0.677318	0.008790	0.049255
O6	O	0.589385	-0.079143	0.049234
O7	O	0.755248	-0.069140	0.049252
Zn8	Zn	0.672314	-0.074144	0.064862
Zn9	Zn	0.672334	-0.074127	-0.064744
O10	O	0.667315	-0.157073	0.049232
C11	C	0.568176	-0.078882	0.000048
C12	C	0.504959	-0.078116	0.000041
C13	C	0.105856	-0.125350	0.000061
C14	C	0.046456	-0.124638	0.000065
O15	O	0.009711	-0.168424	0.000081
N16	N	0.023830	-0.072362	0.000071
C17	C	0.060607	-0.020794	0.000080
O18	O	0.035908	0.023737	0.000086
C19	C	0.120006	-0.021506	0.000080
C20	C	0.142629	-0.073785	0.000068
C21	C	0.128479	-0.177625	0.000050
C22	C	0.187876	-0.178336	0.000045
C23	C	0.224649	-0.126772	0.000052
C24	C	0.202025	-0.074497	0.000063
C25	C	0.156783	0.030062	0.000093
C26	C	0.216185	0.029345	0.000094
C27	C	0.238808	-0.022934	0.000082
C28	C	0.298194	-0.023643	0.000065
N29	N	0.320820	-0.075920	0.000059
C30	C	0.284048	-0.127484	0.000052
C31	C	-0.064135	-0.019302	0.000080
C32	C	-0.123533	-0.018589	0.000075
C33	C	-0.137680	-0.122434	0.000061
C34	C	-0.078281	-0.123146	0.000062
C35	C	-0.041509	-0.071578	0.000074
C36	C	0.408784	-0.128974	0.000042
C37	C	0.468186	-0.129680	0.000034
C38	C	0.482329	-0.025836	0.000051
C39	C	0.422932	-0.025129	0.000055
C40	C	0.386160	-0.076702	0.000052
O41	O	0.334974	0.020119	0.000052
O42	O	0.308755	-0.172007	0.000054
C43	C	0.677071	0.030013	0.000072
C44	C	0.676305	0.093230	0.000076
C45	C	0.776472	-0.069388	0.000069
C46	C	0.839689	-0.070154	0.000071
C47	C	0.667577	-0.178283	0.000045
C48	C	0.668343	-0.241500	0.000036
N49	N	0.672304	-0.074155	0.153314
C50	C	0.723539	0.492333	0.000049
C51	C	0.722827	0.551733	0.000044
O52	O	0.766613	0.588478	0.000027
N53	N	0.670551	0.574359	0.000039
C54	C	0.618983	0.537582	0.000032
O55	O	0.574452	0.562281	0.000027
C56	C	0.619695	0.478182	0.000033
C57	C	0.671974	0.455560	0.000044
C58	C	0.775814	0.469710	0.000060
C59	C	0.776525	0.410313	0.000065
C60	C	0.724961	0.373540	0.000060
C61	C	0.672685	0.396164	0.000050
C62	C	0.568127	0.441406	0.000022
C63	C	0.568844	0.382004	0.000021
C64	C	0.621123	0.359381	0.000033
C65	C	0.621832	0.299995	0.000050
N66	N	0.674109	0.277368	0.000056
C67	C	0.725673	0.314141	0.000061
C68	C	0.617491	0.662324	0.000031
C69	C	0.616778	0.721722	0.000034
C70	C	0.720623	0.735869	0.000045
C71	C	0.721335	0.676470	0.000046
C72	C	0.669767	0.639698	0.000036
C73	C	0.727163	0.189405	0.000073
C74	C	0.727869	0.130003	0.000081
C75	C	0.624025	0.115860	0.000067
C76	C	0.623318	0.175257	0.000062
C77	C	0.674891	0.212029	0.000063
O78	O	0.578070	0.263215	0.000065
O79	O	0.770196	0.289433	0.000058
N80	N	0.672349	-0.074111	-0.153196
C81	C	0.711273	-0.035196	0.561965
C82	C	0.711276	-0.035192	0.623884
O83	O	0.744384	-0.002076	0.655911
N84	N	0.672334	-0.074115	0.654851
C85	C	0.633383	-0.113041	0.623895
O86	O	0.600259	-0.146147	0.655920
C87	C	0.633377	-0.113042	0.561976
C88	C	0.672326	-0.074120	0.531013
C89	C	0.750218	0.003724	0.531001
C90	C	0.750215	0.003719	0.469085
C91	C	0.711268	-0.035206	0.438133
C92	C	0.672323	-0.074125	0.469097
C93	C	0.594424	-0.151965	0.531021
C94	C	0.594422	-0.151962	0.469098
C95	C	0.633370	-0.113040	0.438134
C96	C	0.633374	-0.113054	0.376229
N97	N	0.672316	-0.074131	0.345262
C98	C	0.711263	-0.035207	0.376214
C99	C	0.633396	-0.113035	0.753928
C100	C	0.633403	-0.113037	0.815846
C101	C	0.711296	-0.035187	0.815831
C102	C	0.711291	-0.035188	0.753913
C103	C	0.672338	-0.074112	0.722962
C104	C	0.711255	-0.035220	0.246187
C105	C	0.711251	-0.035230	0.184266
C106	C	0.633357	-0.113078	0.184286
C107	C	0.633363	-0.113071	0.246202
C108	C	0.672314	-0.074137	0.277151
O109	O	0.600281	-0.146152	0.344163
O110	O	0.744376	-0.002101	0.344182
H111	H	0.512280	0.016146	0.000054
C112	C	0.556361	-0.190029	0.190505
C113	C	0.590547	-0.155863	0.150256
H114	H	0.529933	-0.216442	0.169494
H115	H	0.536014	-0.166425	0.214656
H116	H	0.579952	-0.210397	0.214655
H117	H	0.566956	-0.135492	0.126109
H118	H	0.610896	-0.179470	0.126095
H119	H	0.404512	0.017441	0.000056
C120	C	0.829881	0.197406	0.000093
C121	C	0.783853	0.229818	0.000079
H122	H	0.864878	0.222356	0.000103
H123	H	0.828003	0.173945	-0.034208
H124	H	0.827982	0.173943	0.034399
H125	H	0.785750	0.253278	-0.034230
H126	H	0.785731	0.253289	0.034383
C127	C	0.723958	0.042409	0.114725
C128	C	0.754025	0.007633	0.150275
H129	H	0.750353	0.068890	0.093753
H130	H	0.700331	0.062695	0.138912
H131	H	0.700806	0.019225	0.087393
H132	H	0.777174	0.030816	0.177610
H133	H	0.777662	-0.012655	0.126086
H134	H	0.763906	0.658056	0.000054
H135	H	0.762610	0.765821	0.000047
C136	C	0.556409	-0.189994	0.760172
C137	C	0.590583	-0.155832	0.719910
H138	H	0.529981	-0.216417	0.739172
H139	H	0.536062	-0.166389	0.784322
H140	H	0.580010	-0.210353	0.784322
H141	H	0.566982	-0.135471	0.695763
H142	H	0.610931	-0.179440	0.695750
C143	C	0.558032	0.587318	0.050596
C144	C	0.560803	0.621904	0.000029
H145	H	0.523037	0.562365	0.050591
H146	H	0.559909	0.610785	0.084892
H147	H	0.589267	0.565341	0.050592
H148	H	0.529570	0.643884	0.000034
H149	H	0.558921	0.598434	-0.034277
C150	C	0.562285	0.233847	-0.050518
C151	C	0.565854	0.200132	0.000055
H152	H	0.526810	0.249203	-0.050523
H153	H	0.564723	0.210962	-0.084811
H154	H	0.592897	0.264247	-0.050512
H155	H	0.535245	0.169729	0.000047
H156	H	0.563410	0.223017	0.034356
C157	C	0.150582	0.118811	-0.050445
C158	C	0.131930	0.087532	0.000112
H159	H	0.135243	0.154294	-0.050429
H160	H	0.137931	0.097607	-0.084748
H161	H	0.191222	0.125751	-0.050440
H162	H	0.091290	0.080589	0.000105
H163	H	0.144578	0.108740	0.034424
C164	C	0.313522	0.074373	0.000102
C165	C	0.256606	0.086032	0.000106
H166	H	0.338473	0.109369	0.000111
H167	H	0.320349	0.052935	-0.034205
H168	H	0.320344	0.052917	0.034403
H169	H	0.249782	0.107485	-0.034198
H170	H	0.249776	0.107480	0.034416
C171	C	0.448226	-0.232257	0.000025
C172	C	0.493052	-0.187150	0.000025
H173	H	0.463577	-0.267735	0.000024
H174	H	0.425355	-0.229816	-0.034275
H175	H	0.425353	-0.229817	0.034332
H176	H	0.515923	-0.189588	-0.034285
H177	H	0.515933	-0.189593	0.034328
H178	H	-0.167632	-0.164421	0.000059
H179	H	0.817806	0.499645	0.000061
C180	C	0.784236	0.102490	0.550044
C181	C	0.793036	0.046512	0.565015
H182	H	0.810677	0.128904	0.571037
H183	H	0.746273	0.108485	0.560207
H184	H	0.789798	0.108046	0.508733
H185	H	0.787469	0.040955	0.606326
H186	H	0.831008	0.040515	0.554856
C187	C	0.528057	0.727938	-0.050545
C188	C	0.559312	0.746586	0.000027
H189	H	0.492579	0.743290	-0.050552
H190	H	0.521107	0.687304	-0.050537
H191	H	0.549284	0.740584	-0.084842
H192	H	0.538085	0.733936	0.034324
H193	H	0.566260	0.787228	0.000025
C194	C	0.620599	-0.190616	0.885476
C195	C	0.590594	-0.155827	0.849877
H196	H	0.594167	-0.217033	0.906480
H197	H	0.643786	-0.167435	0.912775
H198	H	0.644187	-0.210980	0.861314
H199	H	0.567010	-0.135459	0.874039
H200	H	0.567398	-0.179010	0.822575
H201	H	0.525555	0.459814	0.000009
H202	H	0.742973	-0.003516	0.271379
H203	H	0.562709	-0.183658	0.556223
C204	C	0.879096	0.430282	0.000070
C205	C	0.833993	0.385452	0.000070
H206	H	0.914576	0.414935	0.000067
H207	H	0.876652	0.453153	0.034371
H208	H	0.876653	0.453155	-0.034237
H209	H	0.836434	0.362581	0.034378
H210	H	0.836439	0.362571	-0.034235
H211	H	0.526850	0.352066	0.000013
C212	C	-0.019697	-0.184203	0.050617
C213	C	-0.053414	-0.180611	0.000051
H214	H	-0.004345	-0.219680	0.050607
H215	H	-0.042579	-0.181774	0.084914
H216	H	0.010706	-0.153594	0.050618
H217	H	-0.083820	-0.211218	0.000053
H218	H	-0.030532	-0.183046	-0.034255
H219	H	0.770443	0.111587	0.000092
H220	H	0.582043	0.085909	0.000065
H221	H	0.781929	0.035414	0.443878
C222	C	0.517426	-0.228913	0.475337
C223	C	0.551605	-0.194753	0.435078
H224	H	0.490997	-0.255332	0.454334
H225	H	0.497080	-0.205306	0.499485
H226	H	0.541022	-0.249274	0.499488
H227	H	0.528009	-0.174388	0.410929
H228	H	0.571953	-0.218363	0.410919
H229	H	0.743005	-0.003494	0.728706
C230	C	0.724092	0.042390	0.885461
C231	C	0.754104	0.007606	0.849860
H232	H	0.750520	0.068809	0.906467
H233	H	0.700904	0.019207	0.912758
H234	H	0.700505	0.062753	0.861300
H235	H	0.777689	-0.012760	0.874022
H236	H	0.777302	0.030792	0.822560
H237	H	0.098544	-0.219617	0.000046
C238	C	0.555794	-0.125814	0.315845
C239	C	0.590556	-0.155854	0.280245
H240	H	0.529367	-0.152226	0.336862
H241	H	0.535446	-0.102220	0.291686
H242	H	0.578996	-0.102631	0.343137
H243	H	0.567354	-0.179035	0.252950
H244	H	0.610905	-0.179458	0.304407
H245	H	0.378851	-0.170970	0.000041
H246	H	0.206289	-0.220908	0.000035
H247	H	-0.034198	0.022693	0.000084
C248	C	-0.103568	0.083983	0.000089
C249	C	-0.148396	0.038878	0.000083
H250	H	-0.118917	0.119461	0.000100
H251	H	-0.080697	0.081548	-0.034215
H252	H	-0.080694	0.081533	0.034392
H253	H	-0.171267	0.041325	-0.034223
H254	H	-0.171276	0.041314	0.034390
