data_functionalizedCrystal
_audit_creation_method	'MofGen! by Chris Wilmer'
_symmetry_space_group_name_H-M	'P1'
_symmetry_Int_Tables_number	1
_symmetry_cell_setting	triclinic
loop_
_symmetry_equiv_pos_as_xyz
  x,y,z
_cell_length_a	29.839134
_cell_length_b	29.839131
_cell_length_c	29.839125
_cell_angle_alpha	89.982291
_cell_angle_beta	90.024313
_cell_angle_gamma	89.965835
loop_
_atom_site_label
_atom_site_type_symbol
_atom_site_fract_x
_atom_site_fract_y
_atom_site_fract_z
Zn1	Zn	0.686720	0.179003	0.254153
Zn2	Zn	0.936720	0.429003	0.504153
Zn3	Zn	1.186720	0.679003	0.754153
Zn4	Zn	1.436720	0.929003	1.004153
Zn5	Zn	0.686652	0.254115	0.179023
Zn6	Zn	0.936652	0.504115	0.429023
Zn7	Zn	1.186652	0.754115	0.679023
Zn8	Zn	1.436652	1.004115	0.929023
Zn9	Zn	0.611602	0.178991	0.179019
Zn10	Zn	0.861602	0.428991	0.429019
Zn11	Zn	1.111602	0.678991	0.679019
Zn12	Zn	1.361602	0.928991	0.929019
Zn13	Zn	0.611550	0.254097	0.254108
Zn14	Zn	0.861550	0.504097	0.504108
Zn15	Zn	1.111550	0.754097	0.754108
Zn16	Zn	1.361550	1.004097	1.004108
O17	O	0.649131	0.216552	0.216576
O18	O	0.899131	0.466552	0.466576
O19	O	1.149131	0.716552	0.716576
O20	O	1.399131	0.966552	0.966576
O21	O	0.749578	0.188980	0.244207
O22	O	0.999578	0.438980	0.494207
O23	O	1.249578	0.688980	0.744207
O24	O	1.499578	0.938980	0.994207
O25	O	0.676690	0.244152	0.116155
O26	O	0.926690	0.494152	0.366155
O27	O	1.176690	0.744152	0.616155
O28	O	1.426690	0.994152	0.866155
O29	O	0.621617	0.116125	0.189003
O30	O	0.871617	0.366125	0.439003
O31	O	1.121617	0.616125	0.689003
O32	O	1.371617	0.866125	0.939003
O33	O	0.749528	0.244164	0.189009
O34	O	0.999528	0.494164	0.439009
O35	O	1.249528	0.744164	0.689009
O36	O	1.499528	0.994164	0.939009
O37	O	0.676805	0.116134	0.244204
O38	O	0.926805	0.366134	0.494204
O39	O	1.176805	0.616134	0.744204
O40	O	1.426805	0.866134	0.994204
O41	O	0.621551	0.188958	0.116153
O42	O	0.871551	0.438958	0.366153
O43	O	1.121551	0.688958	0.616153
O44	O	1.371551	0.938958	0.866153
O45	O	0.548728	0.188941	0.188960
O46	O	0.798728	0.438941	0.438960
O47	O	1.048728	0.688941	0.688960
O48	O	1.298728	0.938941	0.938960
O49	O	0.621528	0.244134	0.316981
O50	O	0.871528	0.494134	0.566981
O51	O	1.121528	0.744134	0.816981
O52	O	1.371528	0.994134	1.066981
O53	O	0.548690	0.244122	0.244127
O54	O	0.798690	0.494122	0.494127
O55	O	1.048690	0.744122	0.744127
O56	O	1.298690	0.994122	0.994127
O57	O	0.676755	0.188962	0.317014
O58	O	0.926755	0.438962	0.567014
O59	O	1.176755	0.688962	0.817014
O60	O	1.426755	0.938962	1.067014
O61	O	0.676639	0.316980	0.188966
O62	O	0.926639	0.566980	0.438966
O63	O	1.176639	0.816980	0.688966
O64	O	1.426639	1.066980	0.938966
O65	O	0.621462	0.316967	0.244131
O66	O	0.871462	0.566967	0.494131
O67	O	1.121462	0.816967	0.744131
O68	O	1.371462	1.066967	0.994131
C69	C	0.532408	0.216528	0.216539
C70	C	0.782408	0.466528	0.466539
C71	C	1.032408	0.716528	0.716539
C72	C	1.282408	0.966528	0.966539
C73	C	0.482474	0.216529	0.216534
C74	C	0.732474	0.466529	0.466534
C75	C	0.982474	0.716529	0.716534
C76	C	1.232474	0.966529	0.966534
C77	C	0.125894	0.187777	0.187909
C78	C	0.375894	0.437777	0.437909
C79	C	0.625894	0.687777	0.687909
C80	C	0.875894	0.937777	0.937909
C81	C	0.313567	0.187764	0.187882
C82	C	0.563567	0.437764	0.437882
C83	C	0.813567	0.687764	0.687882
C84	C	1.063567	0.937764	0.937882
O85	O	0.337838	0.163279	0.163502
O86	O	0.587838	0.413279	0.413502
O87	O	0.837838	0.663279	0.663502
O88	O	1.087838	0.913279	0.913502
N89	N	0.337029	0.216536	0.216556
N90	N	0.587029	0.466536	0.466556
N91	N	0.837029	0.716536	0.716556
N92	N	1.087029	0.966536	0.966556
C93	C	0.313569	0.245312	0.245242
C94	C	0.563569	0.495312	0.495242
C95	C	0.813569	0.745312	0.745242
C96	C	1.063569	0.995312	0.995242
O97	O	0.337831	0.269781	0.269634
O98	O	0.587831	0.519781	0.519634
O99	O	0.837831	0.769781	0.769634
O100	O	1.087831	1.019781	1.019634
C101	C	0.125897	0.245322	0.245271
C102	C	0.375897	0.495322	0.495271
C103	C	0.625897	0.745322	0.745271
C104	C	0.875897	0.995322	0.995271
C105	C	0.102438	0.216551	0.216591
C106	C	0.352438	0.466551	0.466591
C107	C	0.602438	0.716551	0.716591
C108	C	0.852438	0.966551	0.966591
C109	C	0.102435	0.159007	0.159232
C110	C	0.352435	0.409007	0.409232
C111	C	0.602435	0.659007	0.659232
C112	C	0.852435	0.909007	0.909232
C113	C	0.055520	0.159013	0.159237
C114	C	0.305520	0.409013	0.409237
C115	C	0.555520	0.659013	0.659237
C116	C	0.805520	0.909013	0.909237
C117	C	0.032063	0.187787	0.187920
C118	C	0.282063	0.437787	0.437920
C119	C	0.532063	0.687787	0.687920
C120	C	0.782063	0.937787	0.937920
C121	C	0.055522	0.216556	0.216597
C122	C	0.305522	0.466556	0.466597
C123	C	0.555522	0.716556	0.716597
C124	C	0.805522	0.966556	0.966597
C125	C	0.102438	0.274095	0.273958
C126	C	0.352438	0.524095	0.523958
C127	C	0.602438	0.774095	0.773958
C128	C	0.852438	1.024095	1.023958
C129	C	0.055517	0.274094	0.273964
C130	C	0.305517	0.524094	0.523964
C131	C	0.555517	0.774094	0.773964
C132	C	0.805517	1.024094	1.023964
C133	C	0.032058	0.245323	0.245284
C134	C	0.282058	0.495323	0.495284
C135	C	0.532058	0.745323	0.745284
C136	C	0.782058	0.995323	0.995284
C137	C	-0.014849	0.245336	0.245284
C138	C	0.235151	0.495336	0.495284
C139	C	0.485151	0.745336	0.745284
C140	C	0.735151	0.995336	0.995284
N141	N	-0.038311	0.216563	0.216610
N142	N	0.211689	0.466563	0.466610
N143	N	0.461689	0.716563	0.716610
N144	N	0.711689	0.966563	0.966610
C145	C	-0.014854	0.187789	0.187927
C146	C	0.235146	0.437789	0.437927
C147	C	0.485146	0.687789	0.687927
C148	C	0.735146	0.937789	0.937927
C149	C	0.412100	0.245305	0.245224
C150	C	0.662100	0.495305	0.495224
C151	C	0.912100	0.745305	0.745224
C152	C	1.162100	0.995305	0.995224
C153	C	0.459018	0.245303	0.245216
C154	C	0.709018	0.495303	0.495216
C155	C	0.959018	0.745303	0.745216
C156	C	1.209018	0.995303	0.995216
C157	C	0.459013	0.187755	0.187856
C158	C	0.709013	0.437755	0.437856
C159	C	0.959013	0.687755	0.687856
C160	C	1.209013	0.937755	0.937856
C161	C	0.412094	0.187759	0.187862
C162	C	0.662094	0.437759	0.437862
C163	C	0.912094	0.687759	0.687862
C164	C	1.162094	0.937759	0.937862
C165	C	0.388638	0.216533	0.216549
C166	C	0.638638	0.466533	0.466549
C167	C	0.888638	0.716533	0.716549
C168	C	1.138638	0.966533	0.966549
C169	C	-0.113380	0.187802	0.187941
C170	C	0.136620	0.437802	0.437941
C171	C	0.386620	0.687802	0.687941
C172	C	0.636620	0.937802	0.937941
C173	C	-0.160300	0.187811	0.187947
C174	C	0.089700	0.437811	0.437947
C175	C	0.339700	0.687811	0.687947
C176	C	0.589700	0.937811	0.937947
C177	C	-0.160291	0.245358	0.245308
C178	C	0.089709	0.495358	0.495308
C179	C	0.339709	0.745358	0.745308
C180	C	0.589709	0.995358	0.995308
C181	C	-0.113375	0.245351	0.245300
C182	C	0.136625	0.495351	0.495300
C183	C	0.386625	0.745351	0.745300
C184	C	0.636625	0.995351	0.995300
C185	C	-0.089921	0.216569	0.216615
C186	C	0.160079	0.466569	0.466615
C187	C	0.410079	0.716569	0.716615
C188	C	0.660079	0.966569	0.966615
O189	O	-0.039149	0.269804	0.269654
O190	O	0.210851	0.519804	0.519654
O191	O	0.460851	0.769804	0.769654
O192	O	0.710851	1.019804	1.019654
O193	O	-0.039124	0.163316	0.163546
O194	O	0.210876	0.413316	0.413546
O195	O	0.460876	0.663316	0.663546
O196	O	0.710876	0.913316	0.913546
C197	C	0.172810	0.187771	0.187904
C198	C	0.422810	0.437771	0.437904
C199	C	0.672810	0.687771	0.687904
C200	C	0.922810	0.937771	0.937904
C201	C	0.196269	0.216541	0.216580
C202	C	0.446269	0.466541	0.466580
C203	C	0.696269	0.716541	0.716580
C204	C	0.946269	0.966541	0.966580
C205	C	0.172812	0.245315	0.245263
C206	C	0.422812	0.495315	0.495263
C207	C	0.672812	0.745315	0.745263
C208	C	0.922812	0.995315	0.995263
C209	C	0.243187	0.216539	0.216573
C210	C	0.493187	0.466539	0.466573
C211	C	0.743187	0.716539	0.716573
C212	C	0.993187	0.966539	0.966573
C213	C	0.266643	0.187764	0.187890
C214	C	0.516643	0.437764	0.437890
C215	C	0.766643	0.687764	0.687890
C216	C	1.016643	0.937764	0.937890
C217	C	0.243182	0.158992	0.159216
C218	C	0.493182	0.408992	0.409216
C219	C	0.743182	0.658992	0.659216
C220	C	0.993182	0.908992	0.909216
C221	C	0.196266	0.158997	0.159221
C222	C	0.446266	0.408997	0.409221
C223	C	0.696266	0.658997	0.659221
C224	C	0.946266	0.908997	0.909221
C225	C	0.196274	0.274087	0.273937
C226	C	0.446274	0.524087	0.523937
C227	C	0.696274	0.774087	0.773937
C228	C	0.946274	1.024087	1.023937
C229	C	0.243189	0.274080	0.273929
C230	C	0.493189	0.524080	0.523929
C231	C	0.743189	0.774080	0.773929
C232	C	0.993189	1.024080	1.023929
C233	C	0.266646	0.245306	0.245247
C234	C	0.516646	0.495306	0.495247
C235	C	0.766646	0.745306	0.745247
C236	C	1.016646	0.995306	0.995247
C237	C	0.649050	0.333274	0.216554
C238	C	0.899050	0.583274	0.466554
C239	C	1.149050	0.833274	0.716554
C240	C	1.399050	1.083274	0.966554
C241	C	0.649056	0.383209	0.216559
C242	C	0.899056	0.633209	0.466559
C243	C	1.149056	0.883209	0.716559
C244	C	1.399056	1.133209	0.966559
C245	C	0.649143	0.216548	0.333754
C246	C	0.899143	0.466548	0.583754
C247	C	1.149143	0.716548	0.833754
C248	C	1.399143	0.966548	1.083754
C249	C	0.649148	0.216546	0.383689
C250	C	0.899148	0.466546	0.633689
C251	C	1.149148	0.716546	0.883689
C252	C	1.399148	0.966546	1.133689
C253	C	0.766309	0.216575	0.216613
C254	C	1.016309	0.466575	0.466613
C255	C	1.266309	0.716575	0.716613
C256	C	1.516309	0.966575	0.966613
C257	C	0.816244	0.216586	0.216629
C258	C	1.066244	0.466586	0.466629
C259	C	1.316244	0.716586	0.716629
C260	C	1.566244	0.966586	0.966629
C261	C	0.649225	0.099373	0.216608
C262	C	0.899225	0.349373	0.466608
C263	C	1.149225	0.599373	0.716608
C264	C	1.399225	0.849373	0.966608
C265	C	0.649265	0.049439	0.216622
C266	C	0.899265	0.299439	0.466622
C267	C	1.149265	0.549439	0.716622
C268	C	1.399265	0.799439	0.966622
C269	C	0.677914	0.692846	0.187894
C270	C	0.927914	0.942846	0.437894
C271	C	1.177914	1.192846	0.687894
C272	C	1.427914	1.442846	0.937894
C273	C	0.677969	0.880519	0.187911
C274	C	0.927969	1.130519	0.437911
C275	C	1.177969	1.380519	0.687911
C276	C	1.427969	1.630519	0.937911
O277	O	0.702441	0.904779	0.163521
O278	O	0.952441	1.154779	0.413521
O279	O	1.202441	1.404779	0.663521
O280	O	1.452441	1.654779	0.913521
N281	N	0.649224	0.903994	0.216610
N282	N	0.899224	1.153994	0.466610
N283	N	1.149224	1.403994	0.716610
N284	N	1.399224	1.653994	0.966610
C285	C	0.620465	0.880547	0.245308
C286	C	0.870465	1.130547	0.495308
C287	C	1.120465	1.380547	0.745308
C288	C	1.370465	1.630547	0.995308
O289	O	0.596020	0.904820	0.269722
O290	O	0.846020	1.154820	0.519722
O291	O	1.096020	1.404820	0.769722
O292	O	1.346020	1.654820	1.019722
C293	C	0.620412	0.692875	0.245293
C294	C	0.870412	0.942875	0.495293
C295	C	1.120412	1.192875	0.745293
C296	C	1.370412	1.442875	0.995293
C297	C	0.649156	0.669403	0.216589
C298	C	0.899156	0.919403	0.466589
C299	C	1.149156	1.169403	0.716589
C300	C	1.399156	1.419403	0.966589
C301	C	0.706656	0.669374	0.159192
C302	C	0.956656	0.919374	0.409192
C303	C	1.206656	1.169374	0.659192
C304	C	1.456656	1.419374	0.909192
C305	C	0.706640	0.622459	0.159187
C306	C	0.956640	0.872459	0.409187
C307	C	1.206640	1.122459	0.659187
C308	C	1.456640	1.372459	0.909187
C309	C	0.677882	0.599015	0.187882
C310	C	0.927882	0.849015	0.437882
C311	C	1.177882	1.099015	0.687882
C312	C	1.427882	1.349015	0.937882
C313	C	0.649140	0.622487	0.216583
C314	C	0.899140	0.872487	0.466583
C315	C	1.149140	1.122487	0.716583
C316	C	1.399140	1.372487	0.966583
C317	C	0.591656	0.669429	0.273993
C318	C	0.841656	0.919429	0.523993
C319	C	1.091656	1.169429	0.773993
C320	C	1.341656	1.419429	1.023993
C321	C	0.591646	0.622508	0.273988
C322	C	0.841646	0.872508	0.523988
C323	C	1.091646	1.122508	0.773988
C324	C	1.341646	1.372508	1.023988
C325	C	0.620390	0.599036	0.245284
C326	C	0.870390	0.849036	0.495284
C327	C	1.120390	1.099036	0.745284
C328	C	1.370390	1.349036	0.995284
C329	C	0.620367	0.552128	0.245273
C330	C	0.870367	0.802128	0.495273
C331	C	1.120367	1.052128	0.745273
C332	C	1.370367	1.302128	0.995273
N333	N	0.649112	0.528654	0.216574
N334	N	0.899112	0.778654	0.466574
N335	N	1.149112	1.028654	0.716574
N336	N	1.399112	1.278654	0.966574
C337	C	0.677869	0.552097	0.187879
C338	C	0.927869	0.802097	0.437879
C339	C	1.177869	1.052097	0.687879
C340	C	1.427869	1.302097	0.937879
C341	C	0.620494	0.979078	0.245314
C342	C	0.870494	1.229078	0.495314
C343	C	1.120494	1.479078	0.745314
C344	C	1.370494	1.729078	0.995314
C345	C	0.620507	1.025995	0.245317
C346	C	0.870507	1.275995	0.495317
C347	C	1.120507	1.525995	0.745317
C348	C	1.370507	1.775995	0.995317
C349	C	0.678012	1.025964	0.187920
C350	C	0.928012	1.275964	0.437920
C351	C	1.178012	1.525964	0.687920
C352	C	1.428012	1.775964	0.937920
C353	C	0.677996	0.979046	0.187915
C354	C	0.927996	1.229046	0.437915
C355	C	1.177996	1.479046	0.687915
C356	C	1.427996	1.729046	0.937915
C357	C	0.649239	0.955603	0.216615
C358	C	0.899239	1.205603	0.466615
C359	C	1.149239	1.455603	0.716615
C360	C	1.399239	1.705603	0.966615
C361	C	0.677834	0.453572	0.187868
C362	C	0.927834	0.703572	0.437868
C363	C	1.177834	0.953572	0.687868
C364	C	1.427834	1.203572	0.937868
C365	C	0.677814	0.406652	0.187864
C366	C	0.927814	0.656652	0.437864
C367	C	1.177814	0.906652	0.687864
C368	C	1.427814	1.156652	0.937864
C369	C	0.620311	0.406687	0.245262
C370	C	0.870311	0.656687	0.495262
C371	C	1.120311	0.906687	0.745262
C372	C	1.370311	1.156687	0.995262
C373	C	0.620329	0.453603	0.245265
C374	C	0.870329	0.703603	0.495265
C375	C	1.120329	0.953603	0.745265
C376	C	1.370329	1.203603	0.995265
C377	C	0.649094	0.477044	0.216567
C378	C	0.899094	0.727044	0.466567
C379	C	1.149094	0.977044	0.716567
C380	C	1.399094	1.227044	0.966567
O381	O	0.595912	0.527840	0.269653
O382	O	0.845912	0.777840	0.519653
O383	O	1.095912	1.027840	0.769653
O384	O	1.345912	1.277840	1.019653
O385	O	0.702318	0.527817	0.163475
O386	O	0.952318	0.777817	0.413475
O387	O	1.202318	1.027817	0.663475
O388	O	1.452318	1.277817	0.913475
C389	C	0.677930	0.739762	0.187899
C390	C	0.927930	0.989762	0.437899
C391	C	1.177930	1.239762	0.687899
C392	C	1.427930	1.489762	0.937899
C393	C	0.649188	0.763234	0.216601
C394	C	0.899188	1.013234	0.466601
C395	C	1.149188	1.263234	0.716601
C396	C	1.399188	1.513234	0.966601
C397	C	0.620430	0.739790	0.245296
C398	C	0.870430	0.989790	0.495296
C399	C	1.120430	1.239790	0.745296
C400	C	1.370430	1.489790	0.995296
C401	C	0.649200	0.810152	0.216604
C402	C	0.899200	1.060152	0.466604
C403	C	1.149200	1.310152	0.716604
C404	C	1.399200	1.560152	0.966604
C405	C	0.677958	0.833595	0.187909
C406	C	0.927958	1.083595	0.437909
C407	C	1.177958	1.333595	0.687909
C408	C	1.427958	1.583595	0.937909
C409	C	0.706703	0.810120	0.159210
C410	C	0.956703	1.060120	0.409210
C411	C	1.206703	1.310120	0.659210
C412	C	1.456703	1.560120	0.909210
C413	C	0.706687	0.763205	0.159204
C414	C	0.956687	1.013205	0.409204
C415	C	1.206687	1.263205	0.659204
C416	C	1.456687	1.513205	0.909204
C417	C	0.591685	0.763265	0.273995
C418	C	0.841685	1.013265	0.523995
C419	C	1.091685	1.263265	0.773995
C420	C	1.341685	1.513265	1.023995
C421	C	0.591703	0.810180	0.273998
C422	C	0.841703	1.060180	0.523998
C423	C	1.091703	1.310180	0.773998
C424	C	1.341703	1.560180	1.023998
C425	C	0.620461	0.833624	0.245302
C426	C	0.870461	1.083624	0.495302
C427	C	1.120461	1.333624	0.745302
C428	C	1.370461	1.583624	0.995302
C429	C	0.649145	0.216523	0.099853
C430	C	0.899145	0.466523	0.349853
C431	C	1.149145	0.716523	0.599853
C432	C	1.399145	0.966523	0.849853
C433	C	0.649227	0.216398	0.049919
C434	C	0.899227	0.466398	0.299919
C435	C	1.149227	0.716398	0.549919
C436	C	1.399227	0.966398	0.799919
C437	C	0.677935	0.187743	0.693352
C438	C	0.927935	0.437743	0.943352
C439	C	1.177935	0.687743	1.193352
C440	C	1.427935	0.937743	1.443352
C441	C	0.677957	0.187705	0.881026
C442	C	0.927957	0.437705	1.131026
C443	C	1.177957	0.687705	1.381026
C444	C	1.427957	0.937705	1.631026
O445	O	0.702399	0.163258	0.905307
O446	O	0.952399	0.413258	1.155307
O447	O	1.202399	0.663258	1.405307
O448	O	1.452399	0.913258	1.655307
N449	N	0.649208	0.216426	0.904474
N450	N	0.899208	0.466426	1.154474
N451	N	1.149208	0.716426	1.404474
N452	N	1.399208	0.966426	1.654474
C453	C	0.620449	0.245156	0.881001
C454	C	0.870449	0.495156	1.131001
C455	C	1.120449	0.745156	1.381001
C456	C	1.370449	0.995156	1.631001
O457	O	0.595993	0.269581	0.905252
O458	O	0.845993	0.519581	1.155252
O459	O	1.095993	0.769581	1.405252
O460	O	1.345993	1.019581	1.655252
C461	C	0.620424	0.245192	0.693329
C462	C	0.870424	0.495192	0.943329
C463	C	1.120424	0.745192	1.193329
C464	C	1.370424	0.995192	1.443329
C465	C	0.649179	0.216472	0.669883
C466	C	0.899179	0.466472	0.919883
C467	C	1.149179	0.716472	1.169883
C468	C	1.399179	0.966472	1.419883
C469	C	0.706687	0.159025	0.669906
C470	C	0.956687	0.409025	0.919906
C471	C	1.206687	0.659025	1.169906
C472	C	1.456687	0.909025	1.419906
C473	C	0.706683	0.159037	0.622991
C474	C	0.956683	0.409037	0.872991
C475	C	1.206683	0.659037	1.122991
C476	C	1.456683	0.909037	1.372991
C477	C	0.677927	0.187766	0.599521
C478	C	0.927927	0.437766	0.849521
C479	C	1.177927	0.687766	1.099521
C480	C	1.427927	0.937766	1.349521
C481	C	0.649175	0.216484	0.622968
C482	C	0.899175	0.466484	0.872968
C483	C	1.149175	0.716484	1.122968
C484	C	1.399175	0.966484	1.372968
C485	C	0.591663	0.273920	0.669857
C486	C	0.841663	0.523920	0.919857
C487	C	1.091663	0.773920	1.169857
C488	C	1.341663	1.023920	1.419857
C489	C	0.591659	0.273925	0.622936
C490	C	0.841659	0.523925	0.872936
C491	C	1.091659	0.773925	1.122936
C492	C	1.341659	1.023925	1.372936
C493	C	0.620414	0.245206	0.599490
C494	C	0.870414	0.495206	0.849490
C495	C	1.120414	0.745206	1.099490
C496	C	1.370414	0.995206	1.349490
C497	C	0.620415	0.245225	0.552583
C498	C	0.870415	0.495225	0.802583
C499	C	1.120415	0.745225	1.052583
C500	C	1.370415	0.995225	1.302583
N501	N	0.649164	0.216504	0.529134
N502	N	0.899164	0.466504	0.779134
N503	N	1.149164	0.716504	1.029134
N504	N	1.399164	0.966504	1.279134
C505	C	0.677920	0.187774	0.552604
C506	C	0.927920	0.437774	0.802604
C507	C	1.177920	0.687774	1.052604
C508	C	1.427920	0.937774	1.302604
C509	C	0.620464	0.245136	0.979532
C510	C	0.870464	0.495136	1.229532
C511	C	1.120464	0.745136	1.479532
C512	C	1.370464	0.995136	1.729532
C513	C	0.620471	0.245128	1.026450
C514	C	0.870471	0.495128	1.276450
C515	C	1.120471	0.745128	1.526450
C516	C	1.370471	0.995128	1.776450
C517	C	0.677979	0.187675	1.026471
C518	C	0.927979	0.437675	1.276471
C519	C	1.177979	0.687675	1.526471
C520	C	1.427979	0.937675	1.776471
C521	C	0.677974	0.187686	0.979552
C522	C	0.927974	0.437686	1.229552
C523	C	1.177974	0.687686	1.479552
C524	C	1.427974	0.937686	1.729552
C525	C	0.649214	0.216415	0.956084
C526	C	0.899214	0.466415	1.206084
C527	C	1.149214	0.716415	1.456084
C528	C	1.399214	0.966415	1.706084
C529	C	0.677910	0.187801	0.454078
C530	C	0.927910	0.437801	0.704078
C531	C	1.177910	0.687801	0.954078
C532	C	1.427910	0.937801	1.204078
C533	C	0.677904	0.187817	0.407158
C534	C	0.927904	0.437817	0.657158
C535	C	1.177904	0.687817	0.907158
C536	C	1.427904	0.937817	1.157158
C537	C	0.620395	0.245267	0.407141
C538	C	0.870395	0.495267	0.657141
C539	C	1.120395	0.745267	0.907141
C540	C	1.370395	0.995267	1.157141
C541	C	0.620401	0.245253	0.454057
C542	C	0.870401	0.495253	0.704057
C543	C	1.120401	0.745253	0.954057
C544	C	1.370401	0.995253	1.204057
C545	C	0.649161	0.216517	0.477524
C546	C	0.899161	0.466517	0.727524
C547	C	1.149161	0.716517	0.977524
C548	C	1.399161	0.966517	1.227524
O549	O	0.595982	0.269655	0.528272
O550	O	0.845982	0.519655	0.778272
O551	O	1.095982	0.769655	1.028272
O552	O	1.345982	1.019655	1.278272
O553	O	0.702366	0.163346	0.528345
O554	O	0.952366	0.413346	0.778345
O555	O	1.202366	0.663346	1.028345
O556	O	1.452366	0.913346	1.278345
C557	C	0.677939	0.187731	0.740268
C558	C	0.927939	0.437731	0.990268
C559	C	1.177939	0.687731	1.240268
C560	C	1.427939	0.937731	1.490268
C561	C	0.649187	0.216449	0.763714
C562	C	0.899187	0.466449	1.013714
C563	C	1.149187	0.716449	1.263714
C564	C	1.399187	0.966449	1.513714
C565	C	0.620431	0.245178	0.740245
C566	C	0.870431	0.495178	0.990245
C567	C	1.120431	0.745178	1.240245
C568	C	1.370431	0.995178	1.490245
C569	C	0.649194	0.216441	0.810632
C570	C	0.899194	0.466441	1.060632
C571	C	1.149194	0.716441	1.310632
C572	C	1.399194	0.966441	1.560632
C573	C	0.677950	0.187711	0.834101
C574	C	0.927950	0.437711	1.084101
C575	C	1.177950	0.687711	1.334101
C576	C	1.427950	0.937711	1.584101
C577	C	0.706699	0.158990	0.810653
C578	C	0.956699	0.408990	1.060653
C579	C	1.206699	0.658990	1.310653
C580	C	1.456699	0.908990	1.560653
C581	C	0.706695	0.159002	0.763737
C582	C	0.956695	0.409002	1.013737
C583	C	1.206695	0.659002	1.263737
C584	C	1.456695	0.909002	1.513737
C585	C	0.591682	0.273899	0.763693
C586	C	0.841682	0.523899	1.013693
C587	C	1.091682	0.773899	1.263693
C588	C	1.341682	1.023899	1.513693
C589	C	0.591689	0.273886	0.810609
C590	C	0.841689	0.523886	1.060609
C591	C	1.091689	0.773886	1.310609
C592	C	1.341689	1.023886	1.560609
C593	C	0.620445	0.245156	0.834078
C594	C	0.870445	0.495156	1.084078
C595	C	1.120445	0.745156	1.334078
C596	C	1.370445	0.995156	1.584078
H597	H	0.262286	0.297513	0.297283
H598	H	0.512286	0.547513	0.547283
H599	H	0.762286	0.797513	0.797283
H600	H	1.012286	1.047513	1.047283
H601	H	0.568265	0.297295	0.744589
H602	H	0.818265	0.547295	0.994589
H603	H	1.068265	0.797295	1.244589
H604	H	1.318265	1.047295	1.494589
H605	H	0.121528	0.135573	0.135875
H606	H	0.371528	0.385573	0.385875
H607	H	0.621528	0.635573	0.635875
H608	H	0.871528	0.885573	0.885875
H609	H	0.701258	0.472652	0.164500
H610	H	0.951258	0.722652	0.414500
H611	H	1.201258	0.972652	0.664500
H612	H	1.451258	1.222652	0.914500
Br613	Br	-0.192134	0.148763	0.149021
Br614	Br	0.057866	0.398763	0.399021
Br615	Br	0.307866	0.648763	0.649021
Br616	Br	0.557866	0.898763	0.899021
H617	H	0.730093	0.744097	0.135831
H618	H	0.980093	0.994097	0.385831
H619	H	1.230093	1.244097	0.635831
H620	H	1.480093	1.494097	0.885831
Br621	Br	0.745658	0.590611	0.120236
Br622	Br	0.995658	0.840611	0.370236
Br623	Br	1.245658	1.090611	0.620236
Br624	Br	1.495658	1.340611	0.870236
Br625	Br	0.581463	0.947269	0.284268
Br626	Br	0.831463	1.197269	0.534268
Br627	Br	1.081463	1.447269	0.784268
Br628	Br	1.331463	1.697269	1.034268
Br629	Br	0.717005	0.148686	1.058331
Br630	Br	0.967005	0.398686	1.308331
Br631	Br	1.217005	0.648686	1.558331
Br632	Br	1.467005	0.898686	1.808331
Br633	Br	0.581489	1.057844	0.284267
Br634	Br	0.831489	1.307844	0.534267
Br635	Br	1.081489	1.557844	0.784267
Br636	Br	1.331489	1.807844	1.034267
Br637	Br	0.552618	0.590696	0.312942
Br638	Br	0.802618	0.840696	0.562942
Br639	Br	1.052618	1.090696	0.812942
Br640	Br	1.302618	1.340696	1.062942
Br641	Br	0.745722	0.120024	0.731925
Br642	Br	0.995722	0.370024	0.981925
Br643	Br	1.245722	0.620024	1.231925
Br644	Br	1.495722	0.870024	1.481925
Br645	Br	0.275025	0.119943	0.120288
Br646	Br	0.525025	0.369943	0.370288
Br647	Br	0.775025	0.619943	0.620288
Br648	Br	1.025025	0.869943	0.870288
H649	H	0.701388	0.164300	0.960465
H650	H	0.951388	0.414300	1.210465
H651	H	1.201388	0.664300	1.460465
H652	H	1.451388	0.914300	1.710465
H653	H	0.597044	0.268533	0.960428
H654	H	0.847044	0.518533	1.210428
H655	H	1.097044	0.768533	1.460428
H656	H	1.347044	1.018533	1.710428
Br657	Br	0.490849	0.284359	0.284132
Br658	Br	0.740849	0.534359	0.534132
Br659	Br	0.990849	0.784359	0.784132
Br660	Br	1.240849	1.034359	1.034132
H661	H	0.596895	0.387592	0.268624
H662	H	0.846895	0.637592	0.518624
H663	H	1.096895	0.887592	0.768624
H664	H	1.346895	1.137592	1.018624
Br665	Br	-0.081557	0.148741	0.149010
Br666	Br	0.168443	0.398741	0.399010
Br667	Br	0.418443	0.648741	0.649010
Br668	Br	0.668443	0.898741	0.899010
Br669	Br	0.552665	0.312870	0.842423
Br670	Br	0.802665	0.562870	1.092423
Br671	Br	1.052665	0.812870	1.342423
Br672	Br	1.302665	1.062870	1.592423
Br673	Br	0.164448	0.313142	0.312867
Br674	Br	0.414448	0.563142	0.562867
Br675	Br	0.664448	0.813142	0.812867
Br676	Br	0.914448	1.063142	1.062867
H677	H	0.568248	0.297306	0.688939
H678	H	0.818248	0.547306	0.938939
H679	H	1.068248	0.797306	1.188939
H680	H	1.318248	1.047306	1.438939
Br681	Br	0.745690	0.701181	0.120244
Br682	Br	0.995690	0.951181	0.370244
Br683	Br	1.245690	1.201181	0.620244
Br684	Br	1.495690	1.451181	0.870244
H685	H	0.121530	0.297524	0.297312
H686	H	0.371530	0.547524	0.547312
H687	H	0.621530	0.797524	0.797312
H688	H	0.871530	1.047524	1.047312
Br689	Br	0.717038	1.057789	0.148975
Br690	Br	0.967038	1.307789	0.398975
Br691	Br	1.217038	1.557789	0.648975
Br692	Br	1.467038	1.807789	0.898975
Br693	Br	0.581453	0.284114	1.058264
Br694	Br	0.831453	0.534114	1.308264
Br695	Br	1.081453	0.784114	1.558264
Br696	Br	1.331453	1.034114	1.808264
Br697	Br	0.552623	0.312915	0.591089
Br698	Br	0.802623	0.562915	0.841089
Br699	Br	1.052623	0.812915	1.091089
Br700	Br	1.302623	1.062915	1.341089
Br701	Br	0.717007	0.947196	0.148958
Br702	Br	0.967007	1.197196	0.398958
Br703	Br	1.217007	1.447196	0.648958
Br704	Br	1.467007	1.697196	0.898958
Br705	Br	0.023690	0.119959	0.120318
Br706	Br	0.273690	0.369959	0.370318
Br707	Br	0.523690	0.619959	0.620318
Br708	Br	0.773690	0.869959	0.870318
H709	H	0.392997	0.164329	0.164510
H710	H	0.642997	0.414329	0.414510
H711	H	0.892997	0.664329	0.664510
H712	H	1.142997	0.914329	0.914510
H713	H	0.568248	0.688532	0.297365
H714	H	0.818248	0.938532	0.547365
H715	H	1.068248	1.188532	0.797365
H716	H	1.318248	1.438532	1.047365
H717	H	0.730115	0.135600	0.829770
H718	H	0.980115	0.385600	1.079770
H719	H	1.230115	0.635600	1.329770
H720	H	1.480115	0.885600	1.579770
H721	H	0.036422	0.297524	0.297326
H722	H	0.286422	0.547524	0.547326
H723	H	0.536422	0.797524	0.797326
H724	H	0.786422	1.047524	1.047326
H725	H	0.478119	0.164326	0.164502
H726	H	0.728119	0.414326	0.414502
H727	H	0.978119	0.664326	0.664502
H728	H	1.228119	0.914326	0.914502
H729	H	0.393007	0.268738	0.268585
H730	H	0.643007	0.518738	0.518585
H731	H	0.893007	0.768738	0.768585
H732	H	1.143007	1.018738	1.018585
Br733	Br	0.745729	0.841946	0.120264
Br734	Br	0.995729	1.091946	0.370264
Br735	Br	1.245729	1.341946	0.620264
Br736	Br	1.495729	1.591946	0.870264
H737	H	0.701220	0.387543	0.164488
H738	H	0.951220	0.637543	0.414488
H739	H	1.201220	0.887543	0.664488
H740	H	1.451220	1.137543	0.914488
Br741	Br	0.581308	0.485459	0.284210
Br742	Br	0.831308	0.735459	0.534210
Br743	Br	1.081308	0.985459	0.784210
Br744	Br	1.331308	1.235459	1.034210
Br745	Br	0.552688	0.842029	0.312956
Br746	Br	0.802688	1.092029	0.562956
Br747	Br	1.052688	1.342029	0.812956
Br748	Br	1.302688	1.592029	1.062956
H749	H	-0.094274	0.268782	0.268650
H750	H	0.155726	0.518782	0.518650
H751	H	0.405726	0.768782	0.768650
H752	H	0.655726	1.018782	1.018650
Br753	Br	0.552654	0.731456	0.312944
Br754	Br	0.802654	0.981456	0.562944
Br755	Br	1.052654	1.231456	0.812944
Br756	Br	1.302654	1.481456	1.062944
Br757	Br	0.164436	0.119948	0.120297
Br758	Br	0.414436	0.369948	0.370297
Br759	Br	0.664436	0.619948	0.620297
Br760	Br	0.914436	0.869948	0.870297
Br761	Br	0.716933	0.148839	0.375341
Br762	Br	0.966933	0.398839	0.625341
Br763	Br	1.216933	0.648839	0.875341
Br764	Br	1.466933	0.898839	1.125341
Br765	Br	0.716937	0.148798	0.485919
Br766	Br	0.966937	0.398798	0.735919
Br767	Br	1.216937	0.648798	0.985919
Br768	Br	1.466937	0.898798	1.235919
H769	H	-0.179397	0.268787	0.268659
H770	H	0.070603	0.518787	0.518659
H771	H	0.320603	0.768787	0.768659
H772	H	0.570603	1.018787	1.018659
Br773	Br	0.581381	0.284233	0.485878
Br774	Br	0.831381	0.534233	0.735878
Br775	Br	1.081381	0.784233	0.985878
Br776	Br	1.331381	1.034233	1.235878
H777	H	0.730097	0.135650	0.603905
H778	H	0.980097	0.385650	0.853905
H779	H	1.230097	0.635650	1.103905
H780	H	1.480097	0.885650	1.353905
Br781	Br	0.581370	0.284254	0.375281
Br782	Br	0.831370	0.534254	0.625281
Br783	Br	1.081370	0.784254	0.875281
Br784	Br	1.331370	1.034254	1.125281
H785	H	0.730104	0.135628	0.689010
H786	H	0.980104	0.385628	0.939010
H787	H	1.230104	0.635628	1.189010
H788	H	1.480104	0.885628	1.439010
