data_functionalizedCrystal
_audit_creation_method	'MofGen! by Chris Wilmer'
_symmetry_space_group_name_H-M	'P1'
_symmetry_Int_Tables_number	1
_symmetry_cell_setting	triclinic
loop_
_symmetry_equiv_pos_as_xyz
  x,y,z
_cell_length_a	8.559649
_cell_length_b	27.731996
_cell_length_c	7.088929
_cell_angle_alpha	83.823571
_cell_angle_beta	95.325015
_cell_angle_gamma	76.200026
loop_
_atom_site_label
_atom_site_type_symbol
_atom_site_fract_x
_atom_site_fract_y
_atom_site_fract_z
O1	O	2.104003	-0.010832	-0.158952
O2	O	1.638165	0.014156	-0.158973
O3	O	1.885599	-0.069244	-0.158921
O4	O	1.856568	0.072568	-0.159004
O5	O	1.918667	-0.080412	0.159062
O6	O	1.671232	0.002988	0.159009
O7	O	2.137071	-0.022000	0.159030
Cu8	Cu	1.907171	-0.010526	0.188054
Cu9	Cu	1.868064	0.002682	-0.187997
O10	O	1.889636	0.061400	0.158978
C11	C	1.595120	0.010466	0.000016
C12	C	1.417597	0.016102	0.000010
C13	C	1.901538	-0.092815	0.000077
C14	C	1.899744	-0.146409	0.000097
C15	C	1.870411	-0.472640	-0.173329
C16	C	1.863588	-0.674060	-0.173363
O17	O	1.847308	-0.694920	-0.320777
N18	N	1.880767	-0.705335	-0.000033
C19	C	1.899641	-0.686252	0.173318
O20	O	1.914079	-0.717474	0.320746
C21	C	1.906452	-0.484833	0.173350
C22	C	1.889289	-0.453561	0.000008
C23	C	1.853248	-0.441369	-0.346657
C24	C	1.854962	-0.391018	-0.346647
C25	C	1.873840	-0.371938	-0.173309
C26	C	1.891003	-0.403210	0.000019
C27	C	1.925315	-0.465750	0.346699
C28	C	1.927012	-0.415391	0.346692
C29	C	1.909849	-0.384119	0.173350
C30	C	1.911596	-0.333779	0.173367
N31	N	1.894418	-0.302504	0.000036
C32	C	1.875540	-0.321583	-0.173302
C33	C	1.896067	-0.792000	0.173289
C34	C	1.894367	-0.842355	0.173282
C35	C	1.858312	-0.830159	-0.173401
C36	C	1.860023	-0.779804	-0.173391
C37	C	1.878889	-0.760725	-0.000041
C38	C	1.879143	-0.215843	-0.173267
C39	C	1.880866	-0.165489	-0.173241
C40	C	1.916913	-0.177688	0.173440
C41	C	1.915199	-0.228039	0.173415
C42	C	1.896307	-0.247114	0.000047
O43	O	1.927851	-0.312884	0.320703
O44	O	1.861069	-0.290351	-0.320707
C45	C	1.868697	-0.522992	-0.173340
C46	C	1.885860	-0.554263	-0.000012
C47	C	1.904738	-0.535183	0.173326
C48	C	1.884160	-0.604618	-0.000020
C49	C	1.865282	-0.623697	-0.173357
C50	C	1.848104	-0.592422	-0.346688
C51	C	1.849819	-0.542071	-0.346678
C52	C	1.921916	-0.566459	0.346656
C53	C	1.920202	-0.616809	0.346632
C54	C	1.901324	-0.635889	0.173294
C55	C	2.180114	-0.018309	0.000037
C56	C	2.357637	-0.023946	0.000031
C57	C	1.873697	0.084971	-0.000024
C58	C	1.875490	0.138566	-0.000056
N59	N	1.934688	-0.019816	0.452548
N60	N	1.840560	0.011968	-0.452491
H61	H	1.442112	-0.062544	0.000044
O62	O	1.940468	-0.547888	0.514922
C63	C	2.102018	-0.508780	0.716202
C64	C	2.081165	-0.529780	0.525542
H65	H	2.215784	-0.494144	0.724868
H66	H	1.991839	-0.476899	0.724920
H67	H	2.113918	-0.539787	0.840039
H68	H	2.069309	-0.498807	0.401595
H69	H	2.191351	-0.561673	0.516990
H70	H	1.840980	-0.365560	-0.487800
O71	O	1.724337	0.051319	0.450181
C72	C	1.622428	0.141073	0.388617
C73	C	1.754174	0.096553	0.498940
H74	H	1.646486	0.177655	0.428028
H75	H	1.624666	0.140354	0.228385
H76	H	1.498516	0.138163	0.427864
H77	H	1.878150	0.099433	0.459853
H78	H	1.751792	0.097287	0.659144
O79	O	1.316632	0.062138	-0.000278
C80	C	1.087648	0.125835	-0.165123
C81	C	1.201848	0.073690	-0.165011
H82	H	0.994838	0.135195	-0.298315
H83	H	1.022264	0.125865	-0.032146
H84	H	1.161385	0.155067	-0.165043
H85	H	1.128231	0.044429	-0.165158
H86	H	1.267237	0.073702	-0.297975
O87	O	2.050993	-0.059168	0.549765
C88	C	2.152777	-0.148924	0.611512
C89	C	2.020989	-0.104404	0.501261
H90	H	2.128545	-0.185509	0.572367
H91	H	2.276735	-0.146083	0.572203
H92	H	2.150553	-0.148137	0.771710
H93	H	2.023062	-0.105163	0.341037
H94	H	1.897091	-0.107262	0.540728
O95	O	1.863870	-0.135117	-0.341708
C96	C	1.694954	-0.098721	-0.638064
C97	C	1.713998	-0.133111	-0.447319
H98	H	1.573804	-0.097096	-0.723522
H99	H	1.699291	-0.059430	-0.608473
H100	H	1.797745	-0.114206	-0.723467
H101	H	1.611235	-0.117671	-0.361820
H102	H	1.709731	-0.172397	-0.477044
H103	H	1.863752	-0.231367	-0.314440
O104	O	1.834635	-0.459900	-0.515003
C105	C	1.673258	-0.499069	-0.716238
C106	C	1.694106	-0.478094	-0.525524
H107	H	1.559665	-0.513795	-0.724789
H108	H	1.661173	-0.468073	-0.840174
H109	H	1.783590	-0.530903	-0.724882
H110	H	1.583813	-0.446268	-0.516693
H111	H	1.706265	-0.509120	-0.401679
O112	O	1.843036	-0.749429	-0.341834
C113	C	1.674147	-0.713026	-0.638201
C114	C	1.693174	-0.747422	-0.447474
H115	H	1.553005	-0.711400	-0.723682
H116	H	1.678474	-0.673736	-0.608585
H117	H	1.776949	-0.728507	-0.723594
H118	H	1.590399	-0.731986	-0.361985
H119	H	1.688916	-0.786707	-0.477224
O120	O	1.829517	-0.610889	-0.515185
C121	C	1.659463	-0.605281	-0.811393
C122	C	1.680349	-0.584309	-0.620680
H123	H	1.538852	-0.583807	-0.896722
H124	H	1.762772	-0.600947	-0.897040
H125	H	1.661265	-0.646646	-0.781535
H126	H	1.678508	-0.542939	-0.650364
H127	H	1.577042	-0.588681	-0.535091
H128	H	1.842942	-0.845702	-0.314539
H129	H	1.908368	-0.867814	0.314434
O130	O	1.914613	-0.773429	0.341569
C131	C	2.076142	-0.734316	0.542853
C132	C	2.055301	-0.755316	0.352192
H133	H	2.189901	-0.719676	0.551521
H134	H	1.965955	-0.702438	0.551570
H135	H	2.088050	-0.765324	0.666690
H136	H	2.043437	-0.724343	0.228246
H137	H	2.165495	-0.787206	0.343641
H138	H	1.939293	-0.491203	0.487853
H139	H	1.942351	-0.399858	0.487858
O140	O	1.932185	-0.258460	0.341753
C141	C	2.089755	-0.333026	0.542910
C142	C	2.070738	-0.298618	0.352213
H143	H	2.201750	-0.365507	0.551412
H144	H	2.103668	-0.310767	0.666862
H145	H	1.977836	-0.348295	0.551574
H146	H	2.182618	-0.283340	0.343362
H147	H	2.056750	-0.320900	0.228352
H148	H	1.932290	-0.162145	0.314567
H149	H	1.835842	-0.516613	-0.487830
H150	H	1.934192	-0.642269	0.487798
