data_functionalizedCrystal
_audit_creation_method	'MofGen! by Chris Wilmer'
_symmetry_space_group_name_H-M	'P1'
_symmetry_Int_Tables_number	1
_symmetry_cell_setting	triclinic
loop_
_symmetry_equiv_pos_as_xyz
  x,y,z
_cell_length_a	11.169417
_cell_length_b	18.101395
_cell_length_c	11.169406
_cell_angle_alpha	89.949046
_cell_angle_beta	89.969003
_cell_angle_gamma	90.031983
loop_
_atom_site_label
_atom_site_type_symbol
_atom_site_fract_x
_atom_site_fract_y
_atom_site_fract_z
Zn1	Zn	1.834922	-0.294641	-0.678515
Zn2	Zn	1.834699	-0.418540	-0.477820
Zn3	Zn	1.634168	-0.294719	-0.477850
Zn4	Zn	1.634142	-0.418447	-0.678465
O5	O	1.734483	-0.356587	-0.578163
O6	O	2.002842	-0.311082	-0.651901
O7	O	1.808016	-0.402187	-0.309874
O8	O	1.660903	-0.191075	-0.504501
O9	O	2.002678	-0.402111	-0.504452
O10	O	1.808395	-0.191018	-0.651930
O11	O	1.660687	-0.311216	-0.309896
O12	O	1.466215	-0.311125	-0.504453
O13	O	1.660858	-0.401952	-0.846422
O14	O	1.466196	-0.402028	-0.651845
O15	O	1.808370	-0.310992	-0.846459
O16	O	1.807991	-0.522161	-0.504403
O17	O	1.660642	-0.522092	-0.651816
C18	C	1.422658	-0.356575	-0.578147
C19	C	1.289258	-0.356588	-0.578169
C20	C	1.734322	-0.548997	-0.578127
C21	C	1.734363	-0.631311	-0.578152
C22	C	1.734627	-0.930402	-0.578217
C23	C	1.642134	-0.899065	-0.671195
C24	C	1.641695	-0.813447	-0.670905
C25	C	1.734496	-0.782020	-0.578186
C26	C	1.700220	-0.813203	-0.451699
C27	C	1.699623	-0.898849	-0.452256
C28	C	1.861598	-0.898736	-0.610612
C29	C	1.860852	-0.813085	-0.613386
C30	C	1.734424	-0.698160	-0.578161
C31	C	1.734696	-1.014262	-0.578234
C32	C	2.047525	-0.356598	-0.578179
C33	C	2.180925	-0.356603	-0.578186
C34	C	1.734636	-0.356453	-0.891205
C35	C	1.734701	-0.356396	-1.024606
C36	C	1.734677	-0.163425	-0.578224
C37	C	1.734759	-0.081110	-0.578251
C38	C	1.734399	-0.356666	-0.266338
C39	C	1.734566	-0.356515	-0.132938
H40	H	1.663143	-0.792358	-0.764694
H41	H	1.933412	-0.791687	-0.550601
H42	H	1.547581	-0.793030	-0.649447
C43	C	1.954695	-0.926120	-0.519132
N44	N	2.024806	-0.946750	-0.450227
C45	C	1.574231	-0.925938	-0.415190
N46	N	1.479780	-0.946338	-0.387276
H47	H	1.663371	-0.919588	-0.765288
C48	C	1.515759	-0.928225	-0.642564
N49	N	1.420574	-0.950187	-0.620991
H50	H	1.764067	-0.919583	-0.380617
H51	H	1.765466	-0.792851	-0.380534
C52	C	1.576151	-0.784333	-0.413964
N53	N	1.482698	-0.762589	-0.385549
C54	C	1.903803	-0.927810	-0.733097
N55	N	1.935578	-0.949708	-0.825359
H56	H	1.886699	-0.792698	-0.706473
