data_functionalizedCrystal
_audit_creation_method	'MofGen! by Chris Wilmer'
_symmetry_space_group_name_H-M	'P1'
_symmetry_Int_Tables_number	1
_symmetry_cell_setting	triclinic
loop_
_symmetry_equiv_pos_as_xyz
  x,y,z
_cell_length_a	10.654558
_cell_length_b	10.654550
_cell_length_c	9.130313
_cell_angle_alpha	89.999890
_cell_angle_beta	90.000369
_cell_angle_gamma	84.486610
loop_
_atom_site_label
_atom_site_type_symbol
_atom_site_fract_x
_atom_site_fract_y
_atom_site_fract_z
O1	O	1.667828	0.176443	-0.121775
O2	O	1.302351	0.193238	-0.121782
O3	O	1.493492	0.002102	-0.121773
O4	O	1.476686	0.367580	-0.121784
O5	O	1.493490	0.002107	0.121826
O6	O	1.302348	0.193243	0.121817
O7	O	1.667826	0.176448	0.121824
Cu8	Cu	1.485087	0.184846	0.144063
Cu9	Cu	1.485090	0.184840	-0.144021
O10	O	1.476684	0.367585	0.121815
C11	C	1.255552	0.192005	0.000017
C12	C	1.116109	0.188309	0.000014
C13	C	0.919572	0.183111	-0.132772
C14	C	1.050594	0.186573	-0.132773
C15	C	1.050596	0.186571	0.132811
C16	C	0.919577	0.183101	0.132811
C17	C	0.854062	0.181387	-0.265568
C18	C	0.919567	0.183122	-0.398366
C19	C	1.050590	0.186584	-0.398368
C20	C	1.116108	0.188310	-0.265571
C21	C	1.492257	-0.044694	0.000025
C22	C	1.488565	-0.184137	0.000020
C23	C	1.601106	-0.263620	0.000026
C24	C	1.597630	-0.394641	0.000016
C25	C	1.369061	-0.366684	-0.000001
C26	C	1.372539	-0.235666	-0.000002
C27	C	1.717133	-0.212091	0.000047
C28	C	1.829683	-0.291575	0.000056
C29	C	1.826207	-0.422596	0.000045
C30	C	1.710180	-0.474133	0.000027
C31	C	1.714625	0.177681	0.000022
C32	C	1.854067	0.181377	0.000015
C33	C	1.477919	0.414380	0.000014
C34	C	1.481611	0.553823	0.000010
N35	N	1.485094	0.184850	0.346686
N36	N	1.485092	0.184827	-0.346644
C37	C	1.569753	0.100243	0.423342
C38	C	1.569750	0.100228	0.576678
C39	C	1.400424	0.269437	0.576690
C40	C	1.400422	0.269445	0.423356
C41	C	1.667516	0.002556	0.423336
C42	C	1.667513	0.002541	0.576673
H43	H	1.103921	0.187985	-0.506498
Br44	Br	1.285504	0.384248	0.319319
Br45	Br	0.830672	0.180722	0.313025
Br46	Br	1.987140	-0.221635	0.000054
Br47	Br	1.293929	0.192984	-0.265576
H48	H	0.747377	0.178572	-0.265582
Br49	Br	1.285514	0.384236	0.680749
Br50	Br	1.631781	-0.158334	0.353956
H51	H	1.280898	-0.170948	-0.000005
Br52	Br	1.978949	-0.530464	0.000035
Br53	Br	1.139512	0.188920	0.313023
Br54	Br	1.828368	0.038394	0.646053
H55	H	1.707358	-0.580820	0.000003
Br56	Br	1.721857	-0.034279	0.000072
H57	H	0.866215	0.181708	-0.506484
Br58	Br	1.211607	-0.436628	-0.000027
H59	H	1.758700	0.033147	0.375779
H60	H	1.637000	-0.088683	0.624222
