data_functionalizedCrystal
_audit_creation_method	'MofGen! by Chris Wilmer'
_symmetry_space_group_name_H-M	'P1'
_symmetry_Int_Tables_number	1
_symmetry_cell_setting	triclinic
loop_
_symmetry_equiv_pos_as_xyz
  x,y,z
_cell_length_a	13.897449
_cell_length_b	19.120904
_cell_length_c	13.897448
_cell_angle_alpha	87.585296
_cell_angle_beta	89.981028
_cell_angle_gamma	92.423877
loop_
_atom_site_label
_atom_site_type_symbol
_atom_site_fract_x
_atom_site_fract_y
_atom_site_fract_z
Zn1	Zn	1.451391	-0.397102	0.407269
Zn2	Zn	1.458180	-0.279657	0.561695
Zn3	Zn	1.296974	-0.279670	0.400420
Zn4	Zn	1.290064	-0.397068	0.568526
O5	O	1.374152	-0.338374	0.484477
O6	O	1.587273	-0.381531	0.427762
O7	O	1.442528	-0.181376	0.534576
O8	O	1.317509	-0.295267	0.266348
O9	O	1.592260	-0.295246	0.541218
O10	O	1.430958	-0.381543	0.271380
O11	O	1.324091	-0.181386	0.416088
O12	O	1.161076	-0.295234	0.422711
O13	O	1.305731	-0.495355	0.552860
O14	O	1.155999	-0.381486	0.546218
O15	O	1.424258	-0.495380	0.434386
O16	O	1.435828	-0.295213	0.697581
O17	O	1.312314	-0.381474	0.702600
C18	C	1.123539	-0.338358	0.484463
C19	C	1.016324	-0.338368	0.484482
C20	C	1.363467	-0.521564	0.495149
C21	C	1.358913	-0.599628	0.499697
C22	C	0.820028	-0.338387	0.484486
C23	C	0.929261	-0.338374	0.484481
C24	C	1.418481	-0.636317	0.440153
C25	C	1.414191	-0.709667	0.444422
C26	C	1.350337	-0.746327	0.508241
C27	C	1.290762	-0.709633	0.567787
C28	C	1.295048	-0.636284	0.563512
C29	C	1.334304	-0.967791	0.524230
C30	C	1.330024	-1.041145	0.528502
C31	C	1.453452	-1.041174	0.405135
C32	C	1.457736	-0.967824	0.400870
C33	C	1.398158	-0.931136	0.460413
C34	C	1.345952	-0.821302	0.512608
C35	C	1.402539	-0.856162	0.456039
C36	C	1.625744	-0.338391	0.484492
C37	C	1.732958	-0.338398	0.484498
C38	C	1.374083	-0.338354	0.735090
C39	C	1.374140	-0.338369	0.842305
C40	C	1.384852	-0.155898	0.473777
C41	C	1.389592	-0.077834	0.468958
C42	C	1.374247	-0.338410	0.232886
C43	C	1.374287	-0.338425	0.125673
C44	C	1.374239	-0.338413	1.038603
C45	C	1.374181	-0.338391	0.929369
H46	H	1.470481	-0.606474	0.388187
C47	C	1.268762	-0.927444	0.589726
N48	N	1.219392	-0.897053	0.639060
C49	C	1.220512	-0.749961	0.637979
N50	N	1.167599	-0.780336	0.690849
H51	H	1.246532	-0.606413	0.611990
H52	H	1.501955	-1.071053	0.356658
C53	C	1.259774	-1.081469	0.598708
N54	N	1.206864	-1.111841	0.651584
H55	H	1.462699	-0.739536	0.395937
C56	C	1.472776	-0.815835	0.385840
N57	N	1.525682	-0.785453	0.332969
H58	H	1.509736	-0.937981	0.348904
H59	H	1.293966	-0.851159	0.564574
