data_functionalizedCrystal
_audit_creation_method	'MofGen! by Chris Wilmer'
_symmetry_space_group_name_H-M	'P1'
_symmetry_Int_Tables_number	1
_symmetry_cell_setting	triclinic
loop_
_symmetry_equiv_pos_as_xyz
  x,y,z
_cell_length_a	19.805407
_cell_length_b	29.839131
_cell_length_c	19.805399
_cell_angle_alpha	90.029565
_cell_angle_beta	90.019573
_cell_angle_gamma	90.041420
loop_
_atom_site_label
_atom_site_type_symbol
_atom_site_fract_x
_atom_site_fract_y
_atom_site_fract_z
Zn1	Zn	1.034665	-0.178864	0.382710
Zn2	Zn	1.534665	0.321136	0.882710
Zn3	Zn	1.034550	-0.253991	0.269518
Zn4	Zn	1.534550	0.246009	0.769518
Zn5	Zn	0.921480	-0.178876	0.269535
Zn6	Zn	1.421480	0.321124	0.769535
Zn7	Zn	0.921414	-0.253967	0.382665
Zn8	Zn	1.421414	0.246033	0.882665
O9	O	0.978027	-0.216425	0.326107
O10	O	1.478027	0.283575	0.826107
O11	O	1.129366	-0.188834	0.367707
O12	O	1.629366	0.311166	0.867707
O13	O	1.019531	-0.244042	0.174804
O14	O	1.519531	0.255958	0.674804
O15	O	0.936570	-0.116007	0.284574
O16	O	1.436570	0.383993	0.784574
O17	O	1.129282	-0.244030	0.284545
O18	O	1.629282	0.255970	0.784545
O19	O	1.019727	-0.115998	0.367723
O20	O	1.519727	0.384002	0.867723
O21	O	0.936458	-0.188856	0.174816
O22	O	1.436458	0.311144	0.674816
O23	O	0.826754	-0.188832	0.284530
O24	O	1.326754	0.311168	0.784530
O25	O	0.936457	-0.243990	0.477388
O26	O	1.436457	0.256010	0.977388
O27	O	0.826706	-0.244002	0.367646
O28	O	1.326706	0.255998	0.867646
O29	O	1.019662	-0.188811	0.477421
O30	O	1.519662	0.311189	0.977421
O31	O	1.019467	-0.316855	0.284501
O32	O	1.519467	0.183145	0.784501
O33	O	0.936346	-0.316838	0.367630
O34	O	1.436346	0.183162	0.867630
C35	C	0.802171	-0.216416	0.326085
C36	C	1.302171	0.283584	0.826085
C37	C	0.726939	-0.216423	0.326092
C38	C	1.226939	0.283577	0.826092
C39	C	0.977905	-0.333147	0.326073
C40	C	1.477905	0.166853	0.826073
C41	C	0.977915	-0.383082	0.326082
C42	C	1.477915	0.116918	0.826082
C43	C	0.691587	-0.245193	0.369300
C44	C	1.191587	0.254807	0.869300
C45	C	0.620899	-0.245194	0.369310
C46	C	1.120899	0.254806	0.869310
C47	C	0.585564	-0.216427	0.326107
C48	C	1.085564	0.283573	0.826107
C49	C	0.620920	-0.187654	0.282897
C50	C	1.120920	0.312346	0.782897
C51	C	0.691607	-0.187651	0.282891
C52	C	1.191607	0.312349	0.782891
C53	C	0.335847	-0.187664	0.282919
C54	C	0.835847	0.312336	0.782919
C55	C	0.265155	-0.187669	0.282927
C56	C	0.765155	0.312331	0.782927
C57	C	0.265139	-0.245207	0.369338
C58	C	0.765139	0.254793	0.869338
C59	C	0.335826	-0.245204	0.369332
C60	C	0.835826	0.254796	0.869332
C61	C	0.371176	-0.216429	0.326125
C62	C	0.871176	0.283571	0.826125
C63	C	0.447825	-0.216428	0.326116
C64	C	0.947825	0.283572	0.826116
C65	C	0.508916	-0.216430	0.326112
C66	C	1.008916	0.283570	0.826112
C67	C	1.021387	-0.692722	0.282885
C68	C	1.521387	-0.192722	0.782885
C69	C	1.021471	-0.880395	0.282912
C70	C	1.521471	-0.380395	0.782912
O71	O	1.058335	-0.904656	0.246159
O72	O	1.558335	-0.404656	0.746159
N73	N	0.978168	-0.903867	0.326158
N74	N	1.478168	-0.403867	0.826158
C75	C	0.934844	-0.880418	0.369404
C76	C	1.434844	-0.380418	0.869404
O77	O	0.898019	-0.904688	0.406194
O78	O	1.398019	-0.404688	0.906194
C79	C	0.934764	-0.692746	0.369381
C80	C	1.434764	-0.192746	0.869381
C81	C	0.978065	-0.669276	0.326127
C82	C	1.478065	-0.169276	0.826127
C83	C	1.064685	-0.669252	0.239635
C84	C	1.564685	-0.169252	0.739635
C85	C	1.064661	-0.622336	0.239626
C86	C	1.564661	-0.122336	0.739626
C87	C	1.021339	-0.598891	0.282868
C88	C	1.521339	-0.098891	0.782868
C89	C	0.978041	-0.622360	0.326118
C90	C	1.478041	-0.122360	0.826118
C91	C	0.891444	-0.669297	0.412630
C92	C	1.391444	-0.169297	0.912630
C93	C	0.891429	-0.622376	0.412621
C94	C	1.391429	-0.122376	0.912621
C95	C	0.934730	-0.598907	0.369367
C96	C	1.434730	-0.098907	0.869367
C97	C	0.934695	-0.551999	0.369351
C98	C	1.434695	-0.051999	0.869351
N99	N	0.977998	-0.528527	0.326104
N100	N	1.477998	-0.028527	0.826104
C101	C	1.021320	-0.551973	0.282863
C102	C	1.521320	-0.051973	0.782863
C103	C	0.934888	-0.978948	0.369412
C104	C	1.434888	-0.478948	0.869412
C105	C	0.934907	-1.025866	0.369418
C106	C	1.434907	-0.525866	0.869418
C107	C	1.021534	-1.025840	0.282926
C108	C	1.521534	-0.525840	0.782926
C109	C	1.021512	-0.978921	0.282918
C110	C	1.521512	-0.478921	0.782918
C111	C	0.978191	-0.955476	0.326166
C112	C	1.478191	-0.455476	0.826166
C113	C	1.021266	-0.453447	0.282847
C114	C	1.521266	0.046553	0.782847
C115	C	1.021237	-0.406527	0.282840
C116	C	1.521237	0.093473	0.782840
C117	C	0.934611	-0.406558	0.369334
C118	C	1.434611	0.093442	0.869334
C119	C	0.934638	-0.453473	0.369339
C120	C	1.434638	0.046527	0.869339
C121	C	0.977971	-0.476917	0.326093
C122	C	1.477971	0.023083	0.826093
O123	O	0.897855	-0.527708	0.406090
O124	O	1.397855	-0.027708	0.906090
O125	O	1.058150	-0.527694	0.246090
O126	O	1.558150	-0.027694	0.746090
C127	C	1.021411	-0.739637	0.282894
C128	C	1.521411	-0.239637	0.782894
C129	C	0.978113	-0.763107	0.326144
C130	C	1.478113	-0.263107	0.826144
C131	C	0.934791	-0.739661	0.369386
C132	C	1.434791	-0.239661	0.869386
C133	C	0.978132	-0.810025	0.326149
C134	C	1.478132	-0.310025	0.826149
C135	C	1.021454	-0.833470	0.282908
C136	C	1.521454	-0.333470	0.782908
C137	C	1.064757	-0.809998	0.239661
C138	C	1.564757	-0.309998	0.739661
C139	C	1.064733	-0.763083	0.239653
C140	C	1.564733	-0.263083	0.739653
C141	C	0.891488	-0.763133	0.412632
C142	C	1.391488	-0.263133	0.912632
C143	C	0.891515	-0.810049	0.412637
C144	C	1.391515	-0.310049	0.912637
C145	C	0.934837	-0.833494	0.369395
C146	C	1.434837	-0.333494	0.869395
C147	C	1.154570	-0.216434	0.326129
C148	C	1.654570	0.283566	0.826129
C149	C	1.229802	-0.216437	0.326139
C150	C	1.729802	0.283563	0.826139
C151	C	0.978065	-0.216396	0.502650
C152	C	1.478065	0.283604	1.002650
C153	C	0.978081	-0.216384	0.577882
C154	C	1.478081	0.283616	1.077882
C155	C	0.978168	-0.099246	0.326156
C156	C	1.478168	0.400754	0.826156
C157	C	0.978228	-0.049312	0.326176
C158	C	1.478228	0.450688	0.826176
C159	C	0.978028	-0.216420	0.150251
C160	C	1.478028	0.283580	0.650251
C161	C	0.978143	-0.216306	0.075019
C162	C	1.478143	0.283694	0.575019
C163	C	1.021407	-0.187652	0.613244
C164	C	1.521407	0.312348	1.113244
C165	C	1.021414	-0.187638	0.683933
C166	C	1.521414	0.312362	1.183933
C167	C	0.978098	-0.216361	0.719258
C168	C	1.478098	0.283639	1.219258
C169	C	0.934767	-0.245095	0.683890
C170	C	1.434767	0.254905	1.183890
C171	C	0.934757	-0.245105	0.613203
C172	C	1.434757	0.254895	1.113203
C173	C	0.934806	-0.245053	0.968963
C174	C	1.434806	0.254947	1.468963
C175	C	0.934820	-0.245041	1.039656
C176	C	1.434820	0.254959	1.539656
C177	C	1.021462	-0.187586	1.039694
C178	C	1.521462	0.312414	1.539694
C179	C	1.021453	-0.187597	0.969006
C180	C	1.521453	0.312403	1.469006
C181	C	0.978120	-0.216329	0.933645
C182	C	1.478120	0.283671	1.433645
C183	C	0.978112	-0.216342	0.856997
C184	C	1.478112	0.283658	1.356997
C185	C	0.978109	-0.216350	0.795905
C186	C	1.478109	0.283650	1.295905
H187	H	0.720352	-0.268620	0.404479
H188	H	1.220352	0.231380	0.904479
N189	N	1.068153	-0.156653	0.722072
N190	N	1.568153	0.343347	1.222072
H191	H	1.061586	-0.161002	0.772213
H192	H	1.561586	0.338998	1.272213
H193	H	1.057661	-0.124568	0.709727
H194	H	1.557661	0.375432	1.209727
N195	N	1.068200	-0.156594	1.077833
N196	N	1.568200	0.343406	1.577833
H197	H	1.061635	-0.160943	1.127974
H198	H	1.561635	0.339057	1.627974
H199	H	1.057705	-0.124510	1.065487
H200	H	1.557705	0.375490	1.565487
H201	H	1.056683	-0.164264	0.584488
H202	H	1.556683	0.335736	1.084488
H203	H	1.099967	-0.688336	0.204423
H204	H	1.599967	-0.188336	0.704423
N205	N	0.582771	-0.276231	0.415904
N206	N	1.082771	0.223769	0.915904
H207	H	0.595101	-0.269303	0.464285
H208	H	1.095101	0.230697	0.964285
H209	H	0.595057	-0.308305	0.405231
H210	H	1.095057	0.191695	0.905231
H211	H	1.056809	-1.044937	0.247717
H212	H	1.556809	-0.544937	0.747717
H213	H	0.236348	-0.268634	0.404522
H214	H	0.736348	0.231366	0.904522
H215	H	0.364592	-0.268631	0.404510
H216	H	0.864592	0.231369	0.904510
N217	N	0.888064	-0.276047	0.930848
N218	N	1.388064	0.223953	1.430848
H219	H	0.915528	-0.296877	0.901513
H220	H	1.415528	0.203123	1.401513
H221	H	0.856716	-0.257764	0.901566
H222	H	1.356716	0.242236	1.401566
H223	H	0.899496	-0.268480	0.712657
H224	H	1.399496	0.231520	1.212657
H225	H	0.236387	-0.164241	0.247745
H226	H	0.736387	0.335759	0.747745
N227	N	1.068175	-0.156620	0.930906
N228	N	1.568175	0.343380	1.430906
H229	H	1.095623	-0.138415	0.964035
H230	H	1.595623	0.361585	1.464035
H231	H	1.040644	-0.135833	0.901581
H232	H	1.540644	0.364167	1.401581
H233	H	0.899470	-0.268498	0.584411
H234	H	1.399470	0.231502	1.084411
H235	H	0.364621	-0.164237	0.247732
H236	H	0.864621	0.335763	0.747732
N237	N	0.582812	-0.156634	0.236285
N238	N	1.082812	0.343366	0.736285
H239	H	0.532668	-0.161005	0.242838
H240	H	1.032668	0.338995	0.742838
H241	H	0.595152	-0.163594	0.187932
H242	H	1.095152	0.336406	0.687932
H243	H	0.720390	-0.164221	0.247710
H244	H	1.220390	0.335779	0.747710
H245	H	1.056497	-0.387420	0.247615
H246	H	1.556497	0.112580	0.747615
N247	N	0.888097	-0.276017	1.077765
N248	N	1.388097	0.223983	1.577765
H249	H	0.898560	-0.308120	1.065454
H250	H	1.398560	0.191880	1.565454
H251	H	0.839761	-0.268997	1.065448
H252	H	1.339761	0.231003	1.565448
N253	N	1.067997	-0.478732	0.236204
N254	N	1.567997	0.021268	0.736204
H255	H	1.116348	-0.470527	0.246756
H256	H	1.616348	0.029473	0.746756
H257	H	1.057446	-0.470582	0.187852
H258	H	1.557446	0.029418	0.687852
N259	N	1.111375	-0.597026	0.192984
N260	N	1.611375	-0.097026	0.692984
H261	H	1.138822	-0.619004	0.165600
H262	H	1.638822	-0.119004	0.665600
H263	H	1.142672	-0.577531	0.220569
H264	H	1.642672	-0.077531	0.720569
H265	H	0.899640	-1.044971	0.404633
H266	H	1.399640	-0.544971	0.904633
N267	N	1.068216	-0.953609	0.236268
N268	N	1.568216	-0.453609	0.736268
H269	H	1.095660	-0.975585	0.208878
H270	H	1.595660	-0.475585	0.708878
H271	H	1.099518	-0.934113	0.263847
H272	H	1.599518	-0.434113	0.763847
N273	N	0.888155	-0.953663	0.416055
N274	N	1.388155	-0.453663	0.916055
H275	H	0.898637	-0.961805	0.464427
H276	H	1.398637	-0.461805	0.964427
H277	H	0.839826	-0.961878	0.405433
H278	H	1.339826	-0.461878	0.905433
N279	N	0.844737	-0.694604	0.459280
N280	N	1.344737	-0.194604	0.959280
H281	H	0.817296	-0.672625	0.486669
H282	H	1.317296	-0.172625	0.986669
H283	H	0.872275	-0.714039	0.490634
H284	H	1.372275	-0.214039	0.990634
H285	H	0.856153	-0.603290	0.447842
H286	H	1.356153	-0.103290	0.947842
N287	N	0.887930	-0.478791	0.415983
N288	N	1.387930	0.021209	0.915983
H289	H	0.860480	-0.456816	0.443372
H290	H	1.360480	0.043184	0.943372
H291	H	0.915474	-0.498222	0.447338
H292	H	1.415474	0.001778	0.947338
N293	N	0.887883	-0.381266	0.415967
N294	N	1.387883	0.118734	0.915967
H295	H	0.894444	-0.347983	0.409396
H296	H	1.394444	0.152017	0.909396
H297	H	0.898393	-0.389437	0.464319
H298	H	1.398393	0.110563	0.964319
H299	H	1.099993	-0.743977	0.204431
H300	H	1.599993	-0.243977	0.704431
N301	N	1.111478	-0.835290	0.193016
N302	N	1.611478	-0.335290	0.693016
H303	H	1.104916	-0.868573	0.199588
H304	H	1.604916	-0.368573	0.699588
H305	H	1.159809	-0.827055	0.203592
H306	H	1.659809	-0.327055	0.703592
H307	H	0.856248	-0.829154	0.447859
H308	H	1.356248	-0.329154	0.947859
N309	N	0.844758	-0.737849	0.459271
N310	N	1.344758	-0.237849	0.959271
H311	H	0.817332	-0.759841	0.486665
H312	H	1.317332	-0.259841	0.986665
H313	H	0.813441	-0.718418	0.431684
H314	H	1.313441	-0.218418	0.931684
