data_functionalizedCrystal
_audit_creation_method	'MofGen! by Chris Wilmer'
_symmetry_space_group_name_H-M	'P1'
_symmetry_Int_Tables_number	1
_symmetry_cell_setting	triclinic
loop_
_symmetry_equiv_pos_as_xyz
  x,y,z
_cell_length_a	21.395362
_cell_length_b	12.759394
_cell_length_c	21.395356
_cell_angle_alpha	89.976253
_cell_angle_beta	89.957023
_cell_angle_gamma	90.030716
loop_
_atom_site_label
_atom_site_type_symbol
_atom_site_fract_x
_atom_site_fract_y
_atom_site_fract_z
Zn1	Zn	0.957923	-0.417848	-0.354603
Zn2	Zn	1.457923	0.082152	0.145397
Zn3	Zn	0.957856	-0.593540	-0.249833
Zn4	Zn	1.457856	-0.093540	0.250167
Zn5	Zn	0.853139	-0.417925	-0.249804
Zn6	Zn	1.353139	0.082075	0.250196
Zn7	Zn	0.853136	-0.593534	-0.354537
Zn8	Zn	1.353136	-0.093534	0.145463
O9	O	0.905513	-0.505712	-0.302194
O10	O	1.405513	-0.005712	0.197806
O11	O	1.045592	-0.441124	-0.340744
O12	O	1.545592	0.058876	0.159256
O13	O	0.943939	-0.570280	-0.162151
O14	O	1.443939	-0.070280	0.337849
O15	O	0.867068	-0.270893	-0.263721
O16	O	1.367068	0.229107	0.236279
O17	O	1.045543	-0.570205	-0.263770
O18	O	1.545543	-0.070205	0.236230
O19	O	0.944052	-0.270837	-0.340717
O20	O	1.444052	0.229163	0.159283
O21	O	0.867004	-0.441256	-0.162130
O22	O	1.367004	0.058744	0.337870
O23	O	0.765461	-0.441249	-0.263658
O24	O	1.265461	0.058751	0.236342
O25	O	0.867062	-0.570194	-0.442224
O26	O	1.367062	-0.070194	0.057776
O27	O	0.765458	-0.570269	-0.340605
O28	O	1.265458	-0.070269	0.159395
O29	O	0.944049	-0.441118	-0.442272
O30	O	1.444049	0.058882	0.057728
O31	O	0.943935	-0.740561	-0.263706
O32	O	1.443935	-0.240561	0.236294
O33	O	0.866998	-0.740556	-0.340632
O34	O	1.366998	-0.240556	0.159368
C35	C	0.742726	-0.505767	-0.302121
C36	C	1.242726	-0.005767	0.197879
C37	C	0.673084	-0.505816	-0.302105
C38	C	1.173084	-0.005816	0.197895
C39	C	0.640386	-0.573086	-0.342112
C40	C	1.140386	-0.073086	0.157888
C41	C	0.574951	-0.573060	-0.342139
C42	C	1.074951	-0.073060	0.157861
C43	C	0.542216	-0.505776	-0.302150
C44	C	1.042216	-0.005776	0.197850
C45	C	0.574922	-0.438493	-0.262141
C46	C	1.074922	0.061507	0.237859
C47	C	0.640356	-0.438514	-0.262118
C48	C	1.140356	0.061486	0.237882
C49	C	0.438491	-0.497327	-0.245744
C50	C	0.938491	0.002673	0.254256
C51	C	0.373058	-0.497314	-0.245766
C52	C	0.873058	0.002686	0.254234
C53	C	0.340395	-0.505707	-0.302219
C54	C	0.840395	-0.005707	0.197781
C55	C	0.373174	-0.514135	-0.358653
C56	C	0.873174	-0.014135	0.141347
C57	C	0.438608	-0.514155	-0.358631
C58	C	0.938608	-0.014155	0.141369
C59	C	0.471264	-0.505746	-0.302170
C60	C	0.971264	-0.005746	0.197830
C61	C	0.236745	-0.572952	-0.342259
C62	C	0.736745	-0.072952	0.157741
C63	C	0.171308	-0.572919	-0.342288
C64	C	0.671308	-0.072919	0.157712
C65	C	0.171281	-0.438358	-0.262284
C66	C	0.671281	0.061642	0.237716
C67	C	0.236716	-0.438386	-0.262260
C68	C	0.736716	0.061614	0.237740
C69	C	0.269444	-0.505689	-0.302247
C70	C	0.769444	-0.005689	0.197753
C71	C	0.905476	-0.778679	-0.302179
C72	C	1.405476	-0.278679	0.197821
C73	C	0.905517	-0.895456	-0.302193
C74	C	1.405517	-0.395456	0.197807
C75	C	0.985692	-0.895408	-0.222150
C76	C	1.485692	-0.395408	0.277850
C77	C	1.025796	-0.950244	-0.182136
C78	C	1.525796	-0.450244	0.317864
C79	C	1.025833	-1.059966	-0.182153
C80	C	1.525833	-0.559966	0.317847
C81	C	0.985763	-1.114853	-0.222190
C82	C	1.485763	-0.614853	0.277810
C83	C	0.945659	-1.060017	-0.262204
C84	C	1.445659	-0.560017	0.237796
C85	C	0.945625	-0.950293	-0.262182
C86	C	1.445625	-0.450293	0.237818
C87	C	0.865488	-1.060065	-0.342250
C88	C	1.365488	-0.560065	0.157750
C89	C	0.865447	-0.950343	-0.342230
C90	C	1.365447	-0.450343	0.157770
C91	C	0.825418	-1.114953	-0.382286
C92	C	1.325418	-0.614953	0.117714
C93	C	0.785310	-1.060116	-0.422298
C94	C	1.285310	-0.560116	0.077702
C95	C	0.785274	-0.950388	-0.422279
C96	C	1.285274	-0.450388	0.077721
C97	C	0.825343	-0.895507	-0.382244
C98	C	1.325343	-0.395507	0.117756
C99	C	1.068937	-0.505657	-0.302267
C100	C	1.568937	-0.005657	0.197733
C101	C	1.138578	-0.505633	-0.302299
C102	C	1.638578	-0.005633	0.197701
C103	C	0.905563	-0.505647	-0.465618
C104	C	1.405563	-0.005647	0.034382
C105	C	0.905584	-0.505619	-0.535259
C106	C	1.405584	-0.005619	-0.035259
C107	C	0.905568	-0.231678	-0.302223
C108	C	1.405568	0.268322	0.197777
C109	C	0.905592	-0.114902	-0.302235
C110	C	1.405592	0.385098	0.197765
C111	C	0.865534	-0.438428	-0.567951
C112	C	1.365534	0.061572	-0.067951
C113	C	0.865532	-0.438409	-0.633387
C114	C	1.365532	0.061591	-0.133387
C115	C	0.905591	-0.505569	-0.666127
C116	C	1.405591	-0.005569	-0.166127
C117	C	0.945643	-0.572772	-0.633427
C118	C	1.445643	-0.072772	-0.133427
C119	C	0.945639	-0.572797	-0.567993
C120	C	1.445639	-0.072797	-0.067993
C121	C	0.962044	-0.513803	-0.769833
C122	C	1.462044	-0.013803	-0.269833
C123	C	0.962048	-0.513770	-0.835266
C124	C	1.462048	-0.013770	-0.335266
C125	C	0.905601	-0.505498	-0.867948
C126	C	1.405601	-0.005498	-0.367948
C127	C	0.849147	-0.497236	-0.835189
C128	C	1.349147	0.002764	-0.335189
C129	C	0.849144	-0.497261	-0.769755
C130	C	1.349144	0.002739	-0.269755
C131	C	0.905599	-0.505550	-0.737080
C132	C	1.405599	-0.005550	-0.237080
C133	C	0.865546	-0.438283	-0.971593
C134	C	1.365546	0.061717	-0.471593
C135	C	0.865543	-0.438271	-1.037030
C136	C	1.365543	0.061729	-0.537030
C137	C	0.945659	-0.572629	-1.037069
C138	C	1.445659	-0.072629	-0.537069
C139	C	0.945656	-0.572646	-0.971633
C140	C	1.445656	-0.072646	-0.471633
C141	C	0.905601	-0.505468	-0.938899
C142	C	1.405601	-0.005468	-0.438899
C143	C	0.905500	-0.505701	-0.139407
C144	C	1.405500	-0.005701	0.360593
C145	C	0.905601	-0.505433	-0.069766
C146	C	1.405601	-0.005433	0.430234
H147	H	0.548265	-0.383708	-0.229582
H148	H	1.048265	0.116292	0.270418
H149	H	0.346375	-0.490458	-0.199814
H150	H	0.846375	0.009542	0.300186
H151	H	0.752619	-0.905745	-0.454866
H152	H	1.252619	-0.405745	0.045134
O153	O	0.822353	-0.365911	-0.668663
O154	O	1.322353	0.134089	-0.168663
H155	H	0.790461	-0.412910	-0.698454
H156	H	1.290461	0.087090	-0.198454
H157	H	0.465079	-0.490488	-0.199770
H158	H	0.965079	0.009512	0.300230
O159	O	1.022937	-0.522675	-0.870593
O160	O	1.522937	-0.022675	-0.370593
H161	H	1.013458	-0.521252	-0.921583
H162	H	1.513458	-0.021252	-0.421583
H163	H	0.144687	-0.627696	-0.374870
H164	H	0.644687	-0.127696	0.125130
H165	H	1.008014	-0.520530	-0.743229
H166	H	1.508014	-0.020530	-0.243229
O167	O	0.988846	-0.645253	-0.532725
O168	O	1.488846	-0.145253	-0.032725
H169	H	1.016707	-0.691946	-0.566482
H170	H	1.516707	-0.191946	-0.066482
O171	O	0.675630	-0.365976	-0.218955
O172	O	1.175630	0.134024	0.281045
H173	H	0.641877	-0.319190	-0.191147
H174	H	1.141877	0.180810	0.308853
H175	H	0.978258	-0.627455	-0.660088
H176	H	1.478258	-0.127455	-0.160088
O177	O	0.271993	-0.365842	-0.219106
O178	O	0.771993	0.134158	0.280894
H179	H	0.301752	-0.412813	-0.187178
H180	H	0.801752	0.087187	0.312822
H181	H	0.825314	-0.806166	-0.382221
H182	H	1.325314	-0.306166	0.117779
O183	O	0.825455	-1.233295	-0.382310
O184	O	1.325455	-0.733295	0.117690
H185	H	0.778209	-1.262319	-0.369604
H186	H	1.278209	-0.762319	0.130396
H187	H	0.985801	-1.204194	-0.222206
H188	H	1.485801	-0.704194	0.277794
H189	H	0.752691	-1.104814	-0.454896
H190	H	1.252691	-0.604814	0.045104
O191	O	0.337949	-0.523170	-0.419546
O192	O	0.837949	-0.023170	0.080454
H193	H	0.350580	-0.456435	-0.450368
H194	H	0.850580	0.043565	0.049632
O195	O	0.822338	-0.365968	-0.532644
O196	O	1.322338	0.134032	-0.032644
H197	H	0.794488	-0.319243	-0.566375
H198	H	1.294488	0.180757	-0.066375
H199	H	0.263394	-0.627749	-0.374822
H200	H	0.763394	-0.127749	0.125178
O201	O	0.788261	-0.488343	-0.734419
O202	O	1.288261	0.011657	-0.234419
H203	H	0.749007	-0.482585	-0.768133
H204	H	1.249007	0.017415	-0.268133
H205	H	0.803182	-0.490493	-0.861797
H206	H	1.303182	0.009507	-0.361797
H207	H	0.667030	-0.627888	-0.374673
H208	H	1.167030	-0.127888	0.125327
H209	H	0.548323	-0.627838	-0.374720
H210	H	1.048323	-0.127838	0.125280
H211	H	0.985658	-0.806066	-0.222124
H212	H	1.485658	-0.306066	0.277876
O213	O	0.135985	-0.365793	-0.219144
O214	O	0.635985	0.134207	0.280856
H215	H	0.084990	-0.377085	-0.225876
H216	H	0.584990	0.122915	0.274124
H217	H	0.465294	-0.521015	-0.404581
H218	H	0.965294	-0.021015	0.095419
O219	O	0.988854	-0.645083	-1.072376
O220	O	1.488854	-0.145083	-0.572376
H221	H	1.016699	-0.691818	-1.038646
H222	H	1.516699	-0.191818	-0.538646
H223	H	0.832925	-0.383559	-1.063647
H224	H	1.332925	0.116441	-0.563647
O225	O	0.988859	-0.645112	-0.936371
O226	O	1.488859	-0.145112	-0.436371
H227	H	0.982124	-0.633853	-0.885370
H228	H	1.482124	-0.133853	-0.385370
O229	O	0.822340	-0.365842	-0.936279
O230	O	1.322340	0.134158	-0.436279
H231	H	0.794482	-0.319127	-0.970009
H232	H	1.294482	0.180873	-0.470009
H233	H	1.058492	-1.104613	-0.149573
H234	H	1.558492	-0.604613	0.350427
H235	H	1.058422	-0.905545	-0.149540
H236	H	1.558422	-0.405545	0.350460
