data_functionalizedCrystal
_audit_creation_method	'MofGen! by Chris Wilmer'
_symmetry_space_group_name_H-M	'P1'
_symmetry_Int_Tables_number	1
_symmetry_cell_setting	triclinic
loop_
_symmetry_equiv_pos_as_xyz
  x,y,z
_cell_length_a	11.026660
_cell_length_b	9.730223
_cell_length_c	11.026607
_cell_angle_alpha	89.998172
_cell_angle_beta	108.585426
_cell_angle_gamma	90.003238
loop_
_atom_site_label
_atom_site_type_symbol
_atom_site_fract_x
_atom_site_fract_y
_atom_site_fract_z
O1	O	1.726715	0.114291	0.533596
O2	O	1.360138	0.114292	0.472836
O3	O	1.513045	0.114287	0.319926
O4	O	1.573808	0.114297	0.686506
O5	O	1.513035	-0.114293	0.319935
O6	O	1.360128	-0.114288	0.472844
O7	O	1.726705	-0.114289	0.533604
Zn8	Zn	1.543415	-0.150580	0.503226
Zn9	Zn	1.543428	0.150584	0.503215
O10	O	1.573798	-0.114283	0.686514
C11	C	1.312474	0.000002	0.461631
C12	C	1.170461	0.000003	0.428216
N13	N	1.543415	-0.356117	0.503234
C14	C	0.970035	0.000009	0.485957
C15	C	1.116813	0.000007	0.520496
C16	C	1.637588	-0.428054	0.597443
C17	C	1.637602	-0.571937	0.597423
C18	C	1.449258	-0.571933	0.408979
C19	C	1.449250	-0.428052	0.408995
C20	C	1.731753	-0.356118	0.691682
C21	C	1.825933	-0.428056	0.785900
C22	C	1.825947	-0.571939	0.785880
C23	C	1.731781	-0.643884	0.691642
C24	C	1.774369	0.000004	0.544809
C25	C	1.916382	0.000012	0.578225
C26	C	1.501830	-0.000002	0.272271
C27	C	1.468414	0.000003	0.130257
N28	N	1.543436	0.356120	0.503198
C29	C	1.560682	0.000005	0.076607
C30	C	1.526147	0.000010	-0.070171
C31	C	1.585013	0.000008	0.734169
C32	C	1.618429	0.000012	0.876183
H33	H	0.907305	-0.000014	0.381394
H34	H	1.179538	0.000001	0.625067
H35	H	1.372564	-0.369479	0.332283
C36	C	1.001121	0.000013	0.719489
N37	N	1.064945	0.000016	0.825892
C38	C	1.731806	-0.802161	0.691622
N39	N	1.731823	-0.921373	0.691611
H40	H	1.107737	0.000092	0.323645
C41	C	1.701945	-0.000006	0.161350
N42	N	1.808347	-0.000019	0.225176
C43	C	1.731751	-0.197845	0.691708
N44	N	1.731749	-0.078632	0.691725
H45	H	1.421578	0.000020	-0.132899
H46	H	1.722999	0.000115	-0.061091
C47	C	1.929518	-0.348913	0.889547
N48	N	2.007543	-0.289305	0.967616
C49	C	1.929535	-0.651066	0.889531
N50	N	2.007551	-0.710662	0.967615
C51	C	1.327151	0.000002	0.045515
N52	N	1.220749	-0.000003	-0.018312
H53	H	1.372590	-0.630522	0.332257
