data_functionalizedCrystal
_audit_creation_method	'MofGen! by Chris Wilmer'
_symmetry_space_group_name_H-M	'P1'
_symmetry_Int_Tables_number	1
_symmetry_cell_setting	triclinic
loop_
_symmetry_equiv_pos_as_xyz
  x,y,z
_cell_length_a	21.395362
_cell_length_b	19.121379
_cell_length_c	21.395356
_cell_angle_alpha	87.588859
_cell_angle_beta	89.970281
_cell_angle_gamma	87.529441
loop_
_atom_site_label
_atom_site_type_symbol
_atom_site_fract_x
_atom_site_fract_y
_atom_site_fract_z
Zn1	Zn	-0.208609	-1.073717	-0.313509
Zn2	Zn	0.124724	-0.740384	0.019824
Zn3	Zn	0.458058	-0.407051	0.353158
Zn4	Zn	-0.313390	-1.073612	-0.208732
Zn5	Zn	0.019944	-0.740278	0.124601
Zn6	Zn	0.353277	-0.406945	0.457935
Zn7	Zn	-0.213094	-0.956260	-0.213203
Zn8	Zn	0.120239	-0.622926	0.120130
Zn9	Zn	0.453572	-0.289593	0.453464
Zn10	Zn	-0.317822	-0.956225	-0.317926
Zn11	Zn	0.015511	-0.622892	0.015407
Zn12	Zn	0.348844	-0.289558	0.348740
O13	O	-0.263229	-1.014953	-0.263343
O14	O	0.070104	-0.681620	0.069991
O15	O	0.403438	-0.348287	0.403324
O16	O	-0.218776	-1.171986	-0.295890
O17	O	0.114557	-0.838653	0.037443
O18	O	0.447890	-0.505320	0.370776
O19	O	-0.300107	-1.058015	-0.121648
O20	O	0.033226	-0.724682	0.211685
O21	O	0.366559	-0.391348	0.545018
O22	O	-0.124819	-0.971899	-0.226531
O23	O	0.208514	-0.638566	0.106802
O24	O	0.541848	-0.305233	0.440136
O25	O	-0.295758	-1.171909	-0.218911
O26	O	0.037575	-0.838576	0.114422
O27	O	0.370908	-0.505242	0.447756
O28	O	-0.121524	-1.058195	-0.300226
O29	O	0.211809	-0.724862	0.033108
O30	O	0.545143	-0.391528	0.366441
O31	O	-0.226421	-0.971797	-0.124933
O32	O	0.106913	-0.638464	0.208400
O33	O	0.440246	-0.305130	0.541734
O34	O	-0.230719	-0.857972	-0.230814
O35	O	0.102615	-0.524639	0.102519
O36	O	0.435948	-0.191305	0.435852
O37	O	-0.303313	-0.971840	-0.405017
O38	O	0.030020	-0.638507	-0.071684
O39	O	0.363354	-0.305174	0.261649
O40	O	-0.307662	-0.857946	-0.307754
O41	O	0.025671	-0.524613	0.025579
O42	O	0.359005	-0.191280	0.358912
O43	O	-0.223075	-1.058161	-0.401772
O44	O	0.110259	-0.724828	-0.068439
O45	O	0.443592	-0.391495	0.264895
O46	O	-0.401658	-1.057982	-0.223194
O47	O	-0.068325	-0.724648	0.110139
O48	O	0.265009	-0.391315	0.443472
O49	O	-0.404914	-0.971738	-0.303419
O50	O	-0.071581	-0.638405	0.029914
O51	O	0.261752	-0.305071	0.363248
C52	C	-0.270158	-0.832475	-0.270249
C53	C	0.063175	-0.499142	0.063084
C54	C	0.396508	-0.165809	0.396417
C55	C	-0.273138	-0.754411	-0.273219
C56	C	0.060195	-0.421077	0.060114
C57	C	0.393529	-0.087744	0.393448
C58	C	-0.234417	-0.717728	-0.234621
C59	C	0.098916	-0.384395	0.098712
C60	C	0.432249	-0.051061	0.432045
C61	C	-0.237222	-0.644378	-0.237411
C62	C	0.096111	-0.311045	0.095922
C63	C	0.429444	0.022289	0.429255
C64	C	-0.278746	-0.607711	-0.278803
C65	C	0.054588	-0.274378	0.054531
C66	C	0.387921	0.058955	0.387864
C67	C	-0.317471	-0.644399	-0.317402
C68	C	0.015863	-0.311066	0.015932
C69	C	0.349196	0.022268	0.349265
C70	C	-0.314668	-0.717748	-0.314608
C71	C	0.018665	-0.384414	0.018725
C72	C	0.351998	-0.051081	0.352059
C73	C	-0.289217	-0.386245	-0.289236
C74	C	0.044116	-0.052912	0.044098
C75	C	0.377450	0.280421	0.377431
C76	C	-0.292015	-0.312891	-0.292028
C77	C	0.041318	0.020442	0.041305
C78	C	0.374652	0.353775	0.374639
C79	C	-0.211767	-0.312875	-0.212036
C80	C	0.121566	0.020458	0.121297
C81	C	0.454899	0.353791	0.454630
C82	C	-0.208966	-0.386226	-0.209249
C83	C	0.124367	-0.052892	0.124084
C84	C	0.457701	0.280441	0.457418
C85	C	-0.247693	-0.422907	-0.247846
C86	C	0.085640	-0.089573	0.085488
C87	C	0.418973	0.243760	0.418821
C88	C	-0.281612	-0.532736	-0.281657
C89	C	0.051721	-0.199402	0.051676
C90	C	0.385054	0.133931	0.385010
C91	C	-0.244829	-0.497881	-0.244988
C92	C	0.088504	-0.164548	0.088345
C93	C	0.421837	0.168785	0.421679
C94	C	-0.426020	-1.014864	-0.263314
C95	C	-0.092687	-0.681530	0.070019
C96	C	0.240647	-0.348197	0.403353
C97	C	-0.495660	-1.014889	-0.263320
C98	C	-0.162327	-0.681556	0.070013
C99	C	0.171007	-0.348223	0.403347
C100	C	-0.526602	-1.059798	-0.301722
C101	C	-0.193268	-0.726464	0.031611
C102	C	0.140065	-0.393131	0.364944
C103	C	-0.592036	-1.059822	-0.301737
C104	C	-0.258703	-0.726489	0.031597
C105	C	0.074631	-0.393156	0.364930
C106	C	-0.626526	-1.014946	-0.263337
C107	C	-0.293193	-0.681613	0.069996
C108	C	0.040140	-0.348280	0.403329
C109	C	-0.595577	-0.970029	-0.224933
C110	C	-0.262244	-0.636696	0.108401
C111	C	0.071089	-0.303362	0.441734
C112	C	-0.530144	-0.970001	-0.224924
C113	C	-0.196811	-0.636667	0.108409
C114	C	0.136522	-0.303334	0.441743
C115	C	-0.730444	-1.009480	-0.207106
C116	C	-0.397110	-0.676147	0.126227
C117	C	-0.063777	-0.342814	0.459561
C118	C	-0.795875	-1.009514	-0.207113
C119	C	-0.462542	-0.676180	0.126220
C120	C	-0.129209	-0.342847	0.459553
C121	C	-0.828344	-1.015030	-0.263364
C122	C	-0.495010	-0.681696	0.069969
C123	C	-0.161677	-0.348363	0.403302
C124	C	-0.795372	-1.020527	-0.319609
C125	C	-0.462039	-0.687194	0.013724
C126	C	-0.128705	-0.353860	0.347057
C127	C	-0.729939	-1.020499	-0.319601
C128	C	-0.396606	-0.687165	0.013733
C129	C	-0.063272	-0.353832	0.347066
C130	C	-0.697478	-1.014972	-0.263343
C131	C	-0.364144	-0.681638	0.069991
C132	C	-0.030811	-0.348305	0.403324
C133	C	-0.930237	-1.059967	-0.301786
C134	C	-0.596903	-0.726634	0.031548
C135	C	-0.263570	-0.393300	0.364881
C136	C	-0.995673	-1.059987	-0.301801
C137	C	-0.662339	-0.726654	0.031532
C138	C	-0.329006	-0.393320	0.364865
C139	C	-0.999212	-0.970197	-0.224991
C140	C	-0.665879	-0.636864	0.108342
C141	C	-0.332546	-0.303531	0.441675
C142	C	-0.933778	-0.970174	-0.224981
C143	C	-0.600445	-0.636840	0.108352
C144	C	-0.267111	-0.303507	0.441685
C145	C	-0.899294	-1.015062	-0.263378
C146	C	-0.565961	-0.681729	0.069956
C147	C	-0.232627	-0.348396	0.403289
C148	C	-0.099801	-1.015063	-0.263384
C149	C	0.233532	-0.681729	0.069949
C150	C	0.566865	-0.348396	0.403282
C151	C	-0.030158	-1.015109	-0.263402
C152	C	0.303175	-0.681776	0.069931
C153	C	0.636508	-0.348443	0.403264
C154	C	-0.263188	-1.015009	-0.426764
C155	C	0.070145	-0.681675	-0.093430
C156	C	0.403479	-0.348342	0.239903
C157	C	-0.263170	-1.015032	-0.496404
C158	C	0.070163	-0.681699	-0.163071
C159	C	0.403496	-0.348366	0.170262
C160	C	-0.256269	-0.198144	-0.256403
C161	C	0.077064	0.135189	0.076930
C162	C	0.410398	0.468523	0.410264
C163	C	-0.253294	-0.276209	-0.253430
C164	C	0.080039	0.057124	0.079903
C165	C	0.413372	0.390458	0.413236
C166	C	-0.224797	-0.970150	-0.530817
C167	C	0.108536	-0.636817	-0.197484
C168	C	0.441870	-0.303484	0.135849
C169	C	-0.224785	-0.970148	-0.596253
C170	C	0.108548	-0.636815	-0.262920
C171	C	0.441881	-0.303481	0.070414
C172	C	-0.263140	-1.015040	-0.627272
C173	C	0.070193	-0.681707	-0.293939
C174	C	0.403526	-0.348373	0.039394
C175	C	-0.301522	-1.059925	-0.592851
C176	C	0.031812	-0.726592	-0.259518
C177	C	0.365145	-0.393258	0.073816
C178	C	-0.301537	-1.059921	-0.527417
C179	C	0.031797	-0.726588	-0.194084
C180	C	0.365130	-0.393254	0.139250
C181	C	-0.265659	-1.078320	-0.728557
C182	C	0.067674	-0.744987	-0.395224
C183	C	0.401008	-0.411654	-0.061891
C184	C	-0.265640	-1.078325	-0.793990
C185	C	0.067694	-0.744992	-0.460657
C186	C	0.401027	-0.411659	-0.127323
C187	C	-0.263098	-1.015052	-0.829093
C188	C	0.070236	-0.681718	-0.495759
C189	C	0.403569	-0.348385	-0.162426
C190	C	-0.260562	-0.951771	-0.798755
C191	C	0.072771	-0.618437	-0.465421
C192	C	0.406105	-0.285104	-0.132088
C193	C	-0.260577	-0.951767	-0.733321
C194	C	0.072756	-0.618433	-0.399987
C195	C	0.406090	-0.285100	-0.066654
C196	C	-0.263129	-1.015049	-0.698224
C197	C	0.070205	-0.681716	-0.364891
C198	C	0.403538	-0.348382	-0.031558
C199	C	-0.224710	-0.970163	-0.934459
C200	C	0.108624	-0.636830	-0.601125
C201	C	0.441957	-0.303497	-0.267792
C202	C	-0.224702	-0.970160	-0.999896
C203	C	0.108631	-0.636827	-0.666562
C204	C	0.441964	-0.303493	-0.333229
C205	C	-0.301435	-1.059943	-0.996492
C206	C	0.031898	-0.726610	-0.663159
C207	C	0.365231	-0.393276	-0.329826
C208	C	-0.301446	-1.059940	-0.931057
C209	C	0.031887	-0.726607	-0.597724
C210	C	0.365221	-0.393274	-0.264390
C211	C	-0.263080	-1.015051	-0.900044
C212	C	0.070254	-0.681718	-0.566711
C213	C	0.403587	-0.348385	-0.233377
C214	C	-0.263223	-1.014939	-0.100556
C215	C	0.070110	-0.681605	0.232778
C216	C	0.403444	-0.348272	0.566111
C217	C	-0.263059	-1.015051	-0.030910
C218	C	0.070275	-0.681718	0.302423
C219	C	0.403608	-0.348385	0.635756
H220	H	-0.175158	-0.416075	-0.175539
H221	H	0.158175	-0.082741	0.157794
H222	H	0.491509	0.250592	0.491127
H223	H	-0.346199	-0.747614	-0.346038
H224	H	-0.012866	-0.414280	-0.012705
H225	H	0.320468	-0.080947	0.320628
H226	H	-0.180238	-0.283002	-0.180612
H227	H	0.153095	0.050332	0.152721
H228	H	0.486428	0.383665	0.486054
C229	C	-0.892302	-1.109336	-0.344031
C230	C	-0.558969	-0.776002	-0.010697
C231	C	-0.225636	-0.442669	0.322636
N232	N	-0.863732	-1.146518	-0.375852
N233	N	-0.530399	-0.813185	-0.042519
N234	N	-0.197065	-0.479852	0.290815
H235	H	-0.351283	-0.614539	-0.351101
H236	H	-0.017949	-0.281206	-0.017767
H237	H	0.315384	0.052127	0.315566
H238	H	-0.258514	-0.900241	-0.708622
H239	H	0.074819	-0.566908	-0.375289
H240	H	0.408153	-0.233575	-0.041955
H241	H	-0.315420	-0.502874	-0.315358
H242	H	0.017913	-0.169540	0.017975
H243	H	0.351247	0.163793	0.351308
H244	H	-1.027294	-0.933654	-0.193730
H245	H	-0.693961	-0.600320	0.139603
H246	H	-0.360627	-0.266987	0.472937
C247	C	-1.029708	-1.109396	-0.344046
C248	C	-0.696374	-0.776062	-0.010713
C249	C	-0.363041	-0.442729	0.322621
N250	N	-1.055343	-1.146614	-0.375863
N251	N	-0.722010	-0.813281	-0.042530
N252	N	-0.388676	-0.479947	0.290803
C253	C	-0.899741	-0.920766	-0.182739
C254	C	-0.566408	-0.587433	0.150594
C255	C	-0.233075	-0.254100	0.483928
N256	N	-0.874106	-0.883546	-0.150924
N257	N	-0.540772	-0.550212	0.182409
N258	N	-0.207439	-0.216879	0.515742
H259	H	-0.193456	-0.933607	-1.027914
H260	H	0.139877	-0.600273	-0.694581
H261	H	0.473211	-0.266940	-0.361247
H262	H	-0.822716	-1.005042	-0.161315
H263	H	-0.489382	-0.671708	0.172018
H264	H	-0.156049	-0.338375	0.505351
H265	H	-0.325828	-0.283039	-0.325738
H266	H	0.007506	0.050294	0.007596
H267	H	0.340839	0.383627	0.340929
H268	H	-0.704013	-1.004986	-0.161297
H269	H	-0.370680	-0.671652	0.172037
H270	H	-0.037347	-0.338319	0.505370
C271	C	-0.182598	-0.920766	-0.496707
C272	C	0.150735	-0.587432	-0.163374
C273	C	0.484069	-0.254099	0.169959
N274	N	-0.150815	-0.883567	-0.471015
N275	N	0.182518	-0.550233	-0.137681
N276	N	0.515852	-0.216900	0.195652
H277	H	-0.623664	-0.933489	-0.193669
H278	H	-0.290330	-0.600156	0.139664
H279	H	0.043003	-0.266822	0.472998
C280	C	-0.188738	-0.758054	-0.189087
C281	C	0.144595	-0.424721	0.144246
C282	C	0.477928	-0.091388	0.477579
N283	N	-0.154333	-0.788426	-0.154788
N284	N	0.179000	-0.455093	0.178546
N285	N	0.512333	-0.121760	0.511879
H286	H	-0.504951	-0.933430	-0.193652
H287	H	-0.171618	-0.600097	0.139682
H288	H	0.161715	-0.266764	0.473015
C289	C	-0.182567	-0.920776	-0.634115
C290	C	0.150767	-0.587443	-0.300782
C291	C	0.484100	-0.254109	0.032552
N292	N	-0.150766	-0.883590	-0.662630
N293	N	0.182567	-0.550257	-0.329297
N294	N	0.515901	-0.216924	0.004036
C295	C	-0.343597	-1.109356	-1.030608
C296	C	-0.010264	-0.776023	-0.697275
C297	C	0.323070	-0.442690	-0.363942
N298	N	-0.375345	-1.146587	-1.056308
N299	N	-0.042011	-0.813254	-0.722974
N300	N	0.291322	-0.479920	-0.389641
H301	H	-0.267724	-1.129850	-0.699982
H302	H	0.065610	-0.796516	-0.366648
H303	H	0.398943	-0.463183	-0.033315
H304	H	-0.320752	-0.416102	-0.320664
H305	H	0.012582	-0.082769	0.012669
H306	H	0.345915	0.250564	0.346003
H307	H	-0.258488	-0.900247	-0.827334
H308	H	0.074846	-0.566914	-0.494001
H309	H	0.408179	-0.233581	-0.160667
C310	C	-0.182513	-0.920778	-0.900343
C311	C	0.150820	-0.587445	-0.567009
C312	C	0.484154	-0.254112	-0.233676
N313	N	-0.150731	-0.883579	-0.874648
N314	N	0.182602	-0.550246	-0.541315
N315	N	0.515935	-0.216913	-0.207982
C316	C	-0.488673	-1.109181	-0.343956
C317	C	-0.155339	-0.775848	-0.010622
C318	C	0.177994	-0.442514	0.322711
N319	N	-0.460103	-1.146378	-0.375765
N320	N	-0.126770	-0.813045	-0.042431
N321	N	0.206563	-0.479712	0.290902
C322	C	-0.199151	-0.538217	-0.199462
C323	C	0.134182	-0.204883	0.133871
C324	C	0.467515	0.128450	0.467204
N325	N	-0.164743	-0.568604	-0.165176
N326	N	0.168590	-0.235270	0.168157
N327	N	0.501924	0.098063	0.501491
C328	C	-0.343739	-1.109311	-0.489561
C329	C	-0.010406	-0.775978	-0.156227
C330	C	0.322928	-0.442645	0.177106
N331	N	-0.375521	-1.146518	-0.461046
N332	N	-0.042188	-0.813185	-0.127713
N333	N	0.291145	-0.479852	0.205621
C334	C	-0.626078	-1.109230	-0.343981
C335	C	-0.292745	-0.775897	-0.010648
C336	C	0.040588	-0.442563	0.322686
N337	N	-0.651717	-1.146445	-0.375799
N338	N	-0.318384	-0.813112	-0.042465
N339	N	0.014949	-0.479779	0.290868
C340	C	-0.343638	-1.109339	-0.893200
C341	C	-0.010304	-0.776005	-0.559867
C342	C	0.323029	-0.442672	-0.226533
N343	N	-0.375413	-1.146554	-0.864686
N344	N	-0.042080	-0.813221	-0.531353
N345	N	0.291253	-0.479887	-0.198019
C346	C	-0.268428	-1.147935	-0.827355
C347	C	0.064905	-0.814602	-0.494022
C348	C	0.398239	-0.481269	-0.160689
N349	N	-0.270529	-1.200367	-0.852485
N350	N	0.062804	-0.867034	-0.519152
N351	N	0.396137	-0.533701	-0.185818
H352	H	-0.205695	-0.614514	-0.205978
H353	H	0.127638	-0.281181	0.127356
H354	H	0.460971	0.052152	0.460689
C355	C	-0.693673	-1.026540	-0.381469
C356	C	-0.360340	-0.693206	-0.048136
C357	C	-0.027006	-0.359873	0.285197
N358	N	-0.666357	-1.031087	-0.428070
N359	N	-0.333024	-0.697754	-0.094737
N360	N	0.000309	-0.364420	0.238597
C361	C	-0.831083	-1.026593	-0.381491
C362	C	-0.497749	-0.693259	-0.048158
C363	C	-0.164416	-0.359926	0.285176
N364	N	-0.857983	-1.031161	-0.428099
N365	N	-0.524649	-0.697828	-0.094765
N366	N	-0.191316	-0.364495	0.238568
C367	C	-0.343801	-1.109210	-0.626977
C368	C	-0.010468	-0.775877	-0.293644
C369	C	0.322866	-0.442544	0.039690
N370	N	-0.375681	-1.146298	-0.652682
N371	N	-0.042347	-0.812964	-0.319349
N372	N	0.290986	-0.479631	0.013985
