data_functionalizedCrystal
_audit_creation_method	'MofGen! by Chris Wilmer'
_symmetry_space_group_name_H-M	'P1'
_symmetry_Int_Tables_number	1
_symmetry_cell_setting	triclinic
loop_
_symmetry_equiv_pos_as_xyz
  x,y,z
_cell_length_a	11.026607
_cell_length_b	9.565339
_cell_length_c	11.026607
_cell_angle_alpha	89.997756
_cell_angle_beta	108.586017
_cell_angle_gamma	90.003896
loop_
_atom_site_label
_atom_site_type_symbol
_atom_site_fract_x
_atom_site_fract_y
_atom_site_fract_z
O1	O	1.726731	0.116257	0.533614
O2	O	1.360151	0.116259	0.472851
O3	O	1.513059	0.116253	0.319943
O4	O	1.573822	0.116263	0.686522
O5	O	1.513046	-0.116267	0.319951
O6	O	1.360138	-0.116261	0.472860
O7	O	1.726718	-0.116264	0.533623
Zn8	Zn	1.543426	-0.153180	0.503243
Zn9	Zn	1.543443	0.153175	0.503231
O10	O	1.573810	-0.116258	0.686531
C11	C	1.312485	-0.000001	0.461645
C12	C	1.170471	-0.000000	0.428228
C13	C	1.116821	0.000003	0.520498
C14	C	0.970043	0.000004	0.485962
N15	N	1.543423	-0.362259	0.503252
C16	C	1.472675	-0.453460	0.573931
C17	C	1.593231	-0.546639	0.623813
C18	C	1.422919	-0.546636	0.453390
C19	C	1.664050	-0.453387	0.553204
C20	C	1.493652	-0.453376	0.382715
C21	C	1.614281	-0.546512	0.432566
C22	C	1.774384	-0.000001	0.544828
C23	C	1.916398	0.000008	0.578245
C24	C	1.501843	-0.000006	0.272287
C25	C	1.468426	-0.000000	0.130273
N26	N	1.543453	0.362255	0.503214
C27	C	1.560695	0.000001	0.076624
C28	C	1.526160	0.000006	-0.070155
C29	C	1.585026	0.000004	0.734187
C30	C	1.618443	0.000008	0.876200
H31	H	0.979125	0.000001	0.682816
H32	H	1.421590	0.000016	-0.132884
H33	H	1.412929	-0.412603	0.633787
C34	C	1.201565	0.000001	0.661761
N35	N	1.265393	0.000001	0.768164
C36	C	0.885303	0.000000	0.344692
N37	N	0.821475	-0.000000	0.238289
C38	C	1.085727	-0.000004	0.286965
N39	N	1.021899	-0.000004	0.180562
H40	H	1.723013	0.000112	-0.061072
H41	H	1.665258	-0.000008	0.139357
C42	C	1.285227	-0.601965	0.396435
N43	N	1.181515	-0.643634	0.353544
C44	C	1.650120	-0.601997	0.761501
N45	N	1.692958	-0.643692	0.865207
C46	C	1.801805	-0.398289	0.610323
N47	N	1.905559	-0.356785	0.653350
C48	C	1.695239	-0.601387	0.351826
N49	N	1.756222	-0.642727	0.291023
C50	C	1.436712	-0.397980	0.245055
N51	N	1.393810	-0.356251	0.141367
C52	C	1.327162	-0.000001	0.045529
N53	N	1.220759	-0.000006	-0.018299
