data_functionalizedCrystal
_audit_creation_method	'MofGen! by Chris Wilmer'
_symmetry_space_group_name_H-M	'P1'
_symmetry_Int_Tables_number	1
_symmetry_cell_setting	triclinic
loop_
_symmetry_equiv_pos_as_xyz
  x,y,z
_cell_length_a	16.109301
_cell_length_b	16.109301
_cell_length_c	15.186229
_cell_angle_alpha	90.013398
_cell_angle_beta	89.994447
_cell_angle_gamma	96.538468
loop_
_atom_site_label
_atom_site_type_symbol
_atom_site_fract_x
_atom_site_fract_y
_atom_site_fract_z
O1	O	1.103135	-0.106876	-0.073183
O2	O	1.603135	0.393124	0.426817
O3	O	0.861073	-0.120176	-0.073196
O4	O	1.361073	0.379824	0.426804
O5	O	0.988754	0.007505	-0.073180
O6	O	1.488754	0.507505	0.426820
O7	O	0.975454	-0.234557	-0.073199
O8	O	1.475454	0.265443	0.426801
O9	O	0.988736	0.007526	0.073277
O10	O	1.488736	0.507526	0.573277
O11	O	0.861056	-0.120155	0.073262
O12	O	1.361056	0.379845	0.573262
O13	O	1.103118	-0.106856	0.073274
O14	O	1.603118	0.393144	0.573274
Zn15	Zn	0.982084	-0.113502	0.096521
Zn16	Zn	1.482084	0.386498	0.596521
Zn17	Zn	0.982107	-0.113529	-0.096443
Zn18	Zn	1.482107	0.386471	0.403557
O19	O	0.975437	-0.234536	0.073259
O20	O	1.475437	0.265464	0.573259
C21	C	0.830089	-0.119627	0.000031
C22	C	1.330089	0.380373	0.500031
C23	C	0.737794	-0.118011	0.000027
C24	C	1.237794	0.381989	0.500027
C25	C	0.428796	-0.188494	0.000037
C26	C	0.928796	0.311506	0.500037
C27	C	0.515516	-0.190020	0.000032
C28	C	1.015516	0.309980	0.500032
C29	C	0.535389	-0.038531	0.000031
C30	C	1.035389	0.461469	0.500031
C31	C	0.448671	-0.037007	0.000030
C32	C	0.948671	0.462993	0.500030
C33	C	0.395376	-0.111991	0.000037
C34	C	0.895376	0.388009	0.500037
C35	C	0.568815	-0.115041	0.000033
C36	C	1.068815	0.384959	0.500033
C37	C	0.662841	-0.116694	0.000028
C38	C	1.162841	0.383306	0.500028
C39	C	0.301344	-0.110338	0.000041
C40	C	0.801344	0.389662	0.500041
C41	C	0.988206	0.038490	0.000049
C42	C	1.488206	0.538490	0.500049
C43	C	0.986591	0.130785	0.000050
C44	C	1.486591	0.630785	0.500050
C45	C	1.134101	-0.107405	0.000045
C46	C	1.634101	0.392595	0.500045
C47	C	1.226396	-0.109020	0.000044
C48	C	1.726396	0.390980	0.500044
C49	C	0.975984	-0.265522	0.000028
C50	C	1.475984	0.234478	0.500028
C51	C	0.977599	-0.357817	0.000021
C52	C	1.477599	0.142183	0.500021
N53	N	0.982074	-0.113483	0.228214
N54	N	1.482074	0.386517	0.728214
C55	C	1.058599	0.353058	0.000040
C56	C	1.558599	0.853058	0.500040
C57	C	1.057075	0.439778	0.000033
C58	C	1.557075	0.939778	0.500033
C59	C	0.905586	0.419904	0.000028
C60	C	1.405586	0.919904	0.500028
C61	C	0.907111	0.333185	0.000029
C62	C	1.407111	0.833185	0.500029
C63	C	0.983620	0.299765	0.000040
C64	C	1.483620	0.799765	0.500040
C65	C	0.980571	0.473204	0.000031
C66	C	1.480571	0.973204	0.500031
C67	C	0.978918	0.567230	0.000023
C68	C	1.478918	1.067230	0.500023
C69	C	0.985273	0.205733	0.000046
C70	C	1.485273	0.705733	0.500046
N71	N	0.982123	-0.113542	-0.228135
N72	N	1.482123	0.386458	0.271865
C73	C	0.931693	-0.063080	0.546167
C74	C	1.431693	0.436920	1.046167
C75	C	0.931686	-0.063068	0.453978
C76	C	1.431686	0.436932	0.953978
C77	C	1.032510	-0.163947	0.453918
C78	C	1.532510	0.336053	0.953918
C79	C	1.032520	-0.163954	0.546106
C80	C	1.532520	0.336046	1.046106
C81	C	0.982108	-0.113522	0.592228
C82	C	1.482108	0.386478	1.092228
C83	C	0.982090	-0.113503	0.407850
C84	C	1.482090	0.386497	0.907850
C85	C	0.982082	-0.113490	0.307894
C86	C	1.482082	0.386510	0.807894
C87	C	0.982116	-0.113533	0.692191
C88	C	1.482116	0.386467	1.192191
H89	H	0.421461	0.025296	0.000028
H90	H	0.921461	0.525296	0.500028
C91	C	0.594015	0.043944	0.000036
C92	C	1.094015	0.543944	0.500036
H93	H	0.650449	0.032081	0.000046
H94	H	1.150449	0.532081	0.500046
H95	H	0.583893	0.075309	-0.051035
H96	H	1.083893	0.575309	0.448965
H97	H	0.583879	0.075321	0.051117
H98	H	1.083879	0.575321	0.551117
H99	H	0.843295	0.447126	0.000021
H100	H	1.343295	0.947126	0.500021
H101	H	1.120897	0.325850	0.000047
H102	H	1.620897	0.825850	0.500047
H103	H	1.118130	0.483167	0.000031
H104	H	1.618130	0.983167	0.500031
H105	H	1.073553	-0.205008	0.416354
H106	H	1.573553	0.294992	0.916354
C107	C	1.087976	-0.219445	0.596776
C108	C	1.587976	0.280555	1.096776
H109	H	1.117990	-0.249488	0.556105
H110	H	1.617990	0.250512	1.056105
H111	H	1.126250	-0.185387	0.632742
H112	H	1.626250	0.314613	1.132742
H113	H	1.053894	-0.257705	0.632732
H114	H	1.553894	0.242295	1.132732
C115	C	0.824632	0.274555	0.000024
C116	C	1.324632	0.774555	0.500024
H117	H	0.836500	0.218123	0.000015
H118	H	1.336500	0.718123	0.500015
H119	H	0.793250	0.284690	0.051094
H120	H	1.293250	0.784690	0.551094
H121	H	0.793270	0.284675	-0.051058
H122	H	1.293270	0.784675	0.448942
H123	H	0.385405	-0.249551	0.000042
H124	H	0.885405	0.250449	0.500042
H125	H	0.890635	-0.021992	0.416479
H126	H	1.390635	0.478008	0.916479
H127	H	0.542722	-0.252317	0.000030
H128	H	1.042722	0.247683	0.500030
H129	H	0.890645	-0.022015	0.583717
H130	H	1.390645	0.477985	1.083717
