data_functionalizedCrystal
_audit_creation_method	'MofGen! by Chris Wilmer'
_symmetry_space_group_name_H-M	'P1'
_symmetry_Int_Tables_number	1
_symmetry_cell_setting	triclinic
loop_
_symmetry_equiv_pos_as_xyz
  x,y,z
_cell_length_a	12.759401
_cell_length_b	19.805405
_cell_length_c	12.759393
_cell_angle_alpha	90.036554
_cell_angle_beta	90.020938
_cell_angle_gamma	90.027935
loop_
_atom_site_label
_atom_site_type_symbol
_atom_site_fract_x
_atom_site_fract_y
_atom_site_fract_z
Zn1	Zn	1.606181	-0.269403	0.593976
Zn2	Zn	2.106181	0.230597	1.093976
Zn3	Zn	1.606036	-0.382606	0.418277
Zn4	Zn	2.106036	0.117394	0.918277
Zn5	Zn	1.430480	-0.269439	0.418311
Zn6	Zn	1.930480	0.230561	0.918311
Zn7	Zn	1.430436	-0.382558	0.593915
Zn8	Zn	1.930436	0.117442	1.093915
O9	O	1.518283	-0.326001	0.506120
O10	O	2.018283	0.173999	1.006120
O11	O	1.753183	-0.284424	0.570681
O12	O	2.253183	0.215576	1.070681
O13	O	1.582706	-0.367629	0.271261
O14	O	2.082706	0.132371	0.771261
O15	O	1.453866	-0.174718	0.441653
O16	O	1.953866	0.325282	0.941653
O17	O	1.753076	-0.367594	0.441596
O18	O	2.253076	0.132406	0.941596
O19	O	1.582953	-0.174691	0.570713
O20	O	2.082953	0.325309	1.070713
O21	O	1.453725	-0.284486	0.271285
O22	O	1.953725	0.215514	0.771285
O23	O	1.283453	-0.284440	0.441594
O24	O	1.783453	0.215560	0.941594
O25	O	1.453791	-0.367513	0.740944
O26	O	1.953791	0.132487	1.240944
O27	O	1.283420	-0.367548	0.570609
O28	O	1.783420	0.132452	1.070609
O29	O	1.582910	-0.284378	0.740989
O30	O	2.082910	0.215622	1.240989
O31	O	1.582663	-0.477316	0.441536
O32	O	2.082663	0.022684	0.941536
O33	O	1.453650	-0.477281	0.570576
O34	O	1.953650	0.022719	1.070576
C35	C	1.245316	-0.325993	0.506099
C36	C	1.745316	0.174007	1.006099
C37	C	1.128539	-0.326006	0.506115
C38	C	1.628539	0.173994	1.006115
C39	C	1.073688	-0.369346	0.573187
C40	C	1.573688	0.130654	1.073187
C41	C	0.963964	-0.369349	0.573208
C42	C	1.463964	0.130651	1.073208
C43	C	0.963952	-0.282669	0.439075
C44	C	1.463952	0.217331	0.939075
C45	C	1.073674	-0.282663	0.439060
C46	C	1.573674	0.217337	0.939060
C47	C	1.518165	-0.501858	0.506069
C48	C	2.018165	-0.001858	1.006069
C49	C	1.518210	-0.577089	0.506082
C50	C	2.018210	-0.077089	1.006082
C51	C	1.585453	-0.612429	0.438962
C52	C	2.085453	-0.112429	0.938962
C53	C	1.585497	-0.683118	0.438985
C54	C	2.085497	-0.183118	0.938985
C55	C	1.518294	-0.718465	0.506124
C56	C	2.018294	-0.218465	1.006124
C57	C	1.451048	-0.683120	0.573252
C58	C	1.951048	-0.183120	1.073252
C59	C	1.451010	-0.612433	0.573234
C60	C	1.951010	-0.112433	1.073234
C61	C	1.451203	-0.968194	0.573330
C62	C	1.951203	-0.468194	1.073330
C63	C	1.451245	-1.038886	0.573342
C64	C	1.951245	-0.538886	1.073342
C65	C	1.585691	-1.038878	0.439081
C66	C	2.085691	-0.538878	0.939081
C67	C	1.585652	-0.968191	0.439063
C68	C	2.085652	-0.468191	0.939063
C69	C	1.518411	-0.932852	0.506194
C70	C	2.018411	-0.432852	1.006194
C71	C	1.518365	-0.856204	0.506170
C72	C	2.018365	-0.356204	1.006170
C73	C	1.518334	-0.795112	0.506144
C74	C	2.018334	-0.295112	1.006144
C75	C	1.792316	-0.326010	0.506141
C76	C	2.292316	0.173990	1.006141
C77	C	1.909093	-0.326014	0.506150
C78	C	2.409093	0.173986	1.006150
C79	C	1.518362	-0.325936	0.780153
C80	C	2.018362	0.174064	1.280153
C81	C	1.518395	-0.325909	0.896930
C82	C	2.018395	0.174091	1.396930
C83	C	1.518430	-0.149459	0.506194
C84	C	2.018430	0.350541	1.006194
C85	C	1.518493	-0.074227	0.506225
C86	C	2.018493	0.425773	1.006225
C87	C	1.518265	-0.326017	0.233152
C88	C	2.018265	0.173983	0.733152
C89	C	1.518435	-0.325854	0.116376
C90	C	2.018435	0.174146	0.616376
C91	C	1.585633	-0.282614	0.951817
C92	C	2.085633	0.217386	1.451817
C93	C	1.585650	-0.282584	1.061541
C94	C	2.085650	0.217416	1.561541
C95	C	1.451190	-0.369151	1.061481
C96	C	1.951190	0.130849	1.561481
C97	C	1.451168	-0.369177	0.951759
C98	C	1.951168	0.130823	1.451759
H99	H	1.640173	-0.583654	0.384284
H100	H	2.140173	-0.083654	0.884284
N101	N	1.378486	-0.574309	0.645623
N102	N	1.878486	-0.074309	1.145623
H103	H	1.394770	-0.586563	0.720708
H104	H	1.894770	-0.086563	1.220708
H105	H	1.303462	-0.586671	0.629155
H106	H	1.803462	-0.086671	1.129155
N107	N	1.658179	-0.235886	1.120728
N108	N	2.158179	0.264114	1.620728
H109	H	1.706852	-0.263381	1.166251
H110	H	2.206852	0.236619	1.666251
H111	H	1.615449	-0.204511	1.166193
H112	H	2.115449	0.295489	1.666193
H113	H	1.396334	-0.711906	0.627923
H114	H	1.896334	-0.211906	1.127923
N115	N	1.378668	-0.415807	1.120619
N116	N	1.878668	0.084193	1.620619
H117	H	1.388880	-0.409220	1.198457
H118	H	1.888880	0.090780	1.698457
H119	H	1.394956	-0.464156	1.101430
H120	H	1.894956	0.035844	1.601430
H121	H	1.640370	-0.247380	0.907178
H122	H	2.140370	0.252620	1.407178
N123	N	1.378623	-0.415862	0.892550
N124	N	1.878623	0.084138	1.392550
H125	H	1.336038	-0.443268	0.943932
H126	H	1.836038	0.056732	1.443932
H127	H	1.421335	-0.447201	0.847007
H128	H	1.921335	0.052799	1.347007
H129	H	0.919267	-0.247382	0.384480
H130	H	1.419267	0.252618	0.884480
N131	N	1.132866	-0.416091	0.645507
N132	N	1.632866	0.083909	1.145507
H133	H	1.081464	-0.443547	0.688001
H134	H	1.581464	0.056453	1.188001
H135	H	1.178434	-0.388576	0.694200
H136	H	1.678434	0.111424	1.194200
H137	H	1.118335	-0.247366	0.384442
H138	H	1.618335	0.252634	0.884442
N139	N	0.904801	-0.416097	0.645546
N140	N	1.404801	0.083903	1.145546
H141	H	0.956211	-0.443553	0.688017
H142	H	1.456211	0.056447	1.188017
H143	H	0.859236	-0.447386	0.602689
H144	H	1.359236	0.052614	1.102689
H145	H	1.640372	-0.939413	0.384388
H146	H	2.140372	-0.439413	0.884388
N147	N	1.658022	-0.721235	0.366591
N148	N	2.158022	-0.221235	0.866591
H149	H	1.700584	-0.688116	0.324050
H150	H	2.200584	-0.188116	0.824050
H151	H	1.615295	-0.750613	0.317944
H152	H	2.115295	-0.250613	0.817944
H153	H	1.640446	-1.067659	0.384424
H154	H	2.140446	-0.567659	0.884424
N155	N	1.378755	-1.077013	0.645757
N156	N	1.878755	-0.577013	1.145757
H157	H	1.336153	-1.043901	0.688283
H158	H	1.836153	-0.543901	1.188283
H159	H	1.421515	-1.106296	0.694416
H160	H	1.921515	-0.606296	1.194416
H161	H	1.396452	-0.939426	0.627989
H162	H	1.896452	-0.439426	1.127989
