data_functionalizedCrystal
_audit_creation_method	'MofGen! by Chris Wilmer'
_symmetry_space_group_name_H-M	'P1'
_symmetry_Int_Tables_number	1
_symmetry_cell_setting	triclinic
loop_
_symmetry_equiv_pos_as_xyz
  x,y,z
_cell_length_a	12.645331
_cell_length_b	12.645330
_cell_length_c	12.645323
_cell_angle_alpha	89.972994
_cell_angle_beta	89.977324
_cell_angle_gamma	90.011625
loop_
_atom_site_label
_atom_site_type_symbol
_atom_site_fract_x
_atom_site_fract_y
_atom_site_fract_z
Zn1	Zn	1.620768	-0.422060	-0.599431
Zn2	Zn	2.120768	0.077940	-0.099431
Zn3	Zn	1.620666	-0.599348	-0.422164
Zn4	Zn	2.120666	-0.099348	0.077836
Zn5	Zn	1.443483	-0.422096	-0.422175
Zn6	Zn	1.943483	0.077904	0.077825
Zn7	Zn	1.443480	-0.599279	-0.599379
Zn8	Zn	1.943480	-0.099279	-0.099379
O9	O	1.532099	-0.510695	-0.510787
O10	O	2.032099	-0.010695	-0.010787
O11	O	1.769102	-0.445591	-0.575933
O12	O	2.269102	0.054409	-0.075933
O13	O	1.597120	-0.575879	-0.273818
O14	O	2.097120	-0.075879	0.226182
O15	O	1.467044	-0.273744	-0.445714
O16	O	1.967044	0.226256	0.054286
O17	O	1.769027	-0.575844	-0.445696
O18	O	2.269027	-0.075844	0.054304
O19	O	1.597295	-0.273717	-0.575943
O20	O	2.097295	0.226283	-0.075943
O21	O	1.466945	-0.445653	-0.273826
O22	O	1.966945	0.054347	0.226174
O23	O	1.295135	-0.445585	-0.445665
O24	O	1.795135	0.054415	0.054335
O25	O	1.467040	-0.575726	-0.747734
O26	O	1.967040	-0.075726	-0.247734
O27	O	1.295133	-0.575761	-0.575856
O28	O	1.795133	-0.075761	-0.075856
O29	O	1.597293	-0.445524	-0.747771
O30	O	2.097293	0.054476	-0.247771
O31	O	1.597118	-0.747686	-0.445646
O32	O	2.097118	-0.247686	0.054354
O33	O	1.466940	-0.747635	-0.575845
O34	O	1.966940	-0.247635	-0.075845
C35	C	1.256670	-0.510670	-0.510757
C36	C	1.756670	-0.010670	-0.010757
C37	C	1.138840	-0.510685	-0.510769
C38	C	1.638840	-0.010685	-0.010769
C39	C	0.971241	-0.428415	-0.429317
C40	C	1.471241	0.071585	0.070683
C41	C	1.093801	-0.428628	-0.428958
C42	C	1.593801	0.071372	0.071042
C43	C	1.094329	-0.622359	-0.480250
C44	C	1.594329	-0.122359	0.019750
C45	C	0.971731	-0.621910	-0.479694
C46	C	1.471731	-0.121910	0.020306
C47	C	0.971688	-0.482344	-0.623054
C48	C	1.471688	0.017656	-0.123054
C49	C	1.094293	-0.479849	-0.622430
C50	C	1.594293	0.020151	-0.122430
C51	C	1.532046	-0.786125	-0.510762
C52	C	2.032046	-0.286125	-0.010762
C53	C	1.532121	-0.903955	-0.510787
C54	C	2.032121	-0.403955	-0.010787
C55	C	1.613884	-1.071507	-0.428712
C56	C	2.113884	-0.571507	0.071288
C57	C	1.614150	-0.948947	-0.428913
C58	C	2.114150	-0.448947	0.071087
C59	C	1.562421	-0.948338	-0.622532
C60	C	2.062421	-0.448338	-0.122532
C61	C	1.563069	-1.070936	-0.622096
C62	C	2.063069	-0.570936	-0.122096
C63	C	1.420025	-1.071281	-0.482218
C64	C	1.920025	-0.571281	0.017782
C65	C	1.420562	-0.948676	-0.479712
C66	C	1.920562	-0.448676	0.020288
C67	C	1.808605	-0.510722	-0.510819
C68	C	2.308605	-0.010722	-0.010819
C69	C	1.926435	-0.510733	-0.510832
C70	C	2.426435	-0.010733	-0.010832
C71	C	1.532177	-0.510613	-0.787293
C72	C	2.032177	-0.010613	-0.287293
C73	C	1.532211	-0.510579	-0.905123
C74	C	2.032211	-0.010579	-0.405123
C75	C	1.532182	-0.234190	-0.510836
C76	C	2.032182	0.265810	-0.010836
C77	C	1.532217	-0.116360	-0.510856
C78	C	2.032217	0.383640	-0.010856
C79	C	1.450016	-0.592103	-1.072663
C80	C	1.950016	-0.092103	-0.572663
C81	C	1.450231	-0.592506	-0.950103
C82	C	1.950231	-0.092506	-0.450103
C83	C	1.643913	-0.540899	-0.949642
C84	C	2.143913	-0.040899	-0.449642
C85	C	1.643462	-0.541410	-1.072240
C86	C	2.143462	-0.041410	-0.572240
C87	C	1.503760	-0.398278	-1.072325
C88	C	2.003760	0.101722	-0.572325
C89	C	1.501267	-0.398951	-0.949718
C90	C	2.001267	0.101049	-0.449718
C91	C	1.532083	-0.510701	-0.235357
C92	C	2.032083	-0.010701	0.264643
C93	C	1.532255	-0.510437	-0.117528
C94	C	2.032255	-0.010437	0.382472
H95	H	0.942714	-0.542301	-0.683790
H96	H	1.442714	-0.042301	-0.183790
H97	H	1.469043	-0.675654	-0.920786
H98	H	1.969043	-0.175654	-0.420786
H99	H	1.123504	-0.685331	-0.537758
H100	H	1.623504	-0.185331	-0.037758
H101	H	1.667614	-0.623400	-1.100848
H102	H	2.167614	-0.123400	-0.600848
H103	H	1.706815	-0.484511	-1.101920
H104	H	2.206815	0.015489	-0.601920
H105	H	0.943087	-0.645984	-0.397654
H106	H	1.443087	-0.145984	0.102346
H107	H	1.668479	-0.622030	-0.918950
H108	H	2.168479	-0.122030	-0.418950
H109	H	1.706830	-0.483299	-0.920508
H110	H	2.206830	0.016701	-0.420508
H111	H	1.123390	-0.397670	-0.645443
H112	H	1.623390	0.102330	-0.145443
H113	H	1.419064	-0.376085	-0.920620
H114	H	1.919064	0.123915	-0.420620
H115	H	1.397716	-0.919679	-0.397477
H116	H	1.897716	-0.419679	0.102523
H117	H	1.123081	-0.447391	-0.345797
H118	H	1.623081	0.052609	0.154203
H119	H	1.392472	-1.102289	-0.402153
H120	H	1.892472	-0.602289	0.097847
H121	H	1.124956	-0.535432	-0.686413
H122	H	1.624956	-0.035432	-0.186413
H123	H	1.423724	-0.370640	-1.103230
H124	H	1.923724	0.129360	-0.603230
H125	H	0.940395	-0.446970	-0.346645
H126	H	1.440395	0.053030	0.153355
H127	H	1.595192	-0.918943	-0.346056
H128	H	2.095192	-0.418943	0.153944
H129	H	1.556789	-0.334889	-0.919099
H130	H	2.056789	0.165111	-0.419099
H131	H	1.563658	-0.337434	-1.101341
H132	H	2.063658	0.162566	-0.601341
H133	H	0.942092	-0.685319	-0.536477
H134	H	1.442092	-0.185319	-0.036477
H135	H	1.124987	-0.646847	-0.399090
H136	H	1.624987	-0.146847	0.100910
H137	H	0.940784	-0.402333	-0.650808
H138	H	1.440784	0.097667	-0.150808
H139	H	1.595163	-1.101059	-0.345613
H140	H	2.095163	-0.601059	0.154387
H141	H	1.643501	-0.917551	-0.647194
H142	H	2.143501	-0.417551	-0.147194
H143	H	1.123895	-0.345817	-0.448088
H144	H	1.623895	0.154183	0.051912
H145	H	1.504749	-0.919191	-0.685375
H146	H	2.004749	-0.419191	-0.185375
H147	H	1.696534	-1.102239	-0.447442
H148	H	2.196534	-0.602239	0.052558
H149	H	0.941770	-0.345355	-0.448241
H150	H	1.441770	0.154645	0.051759
H151	H	1.697246	-0.919540	-0.447855
H152	H	2.197246	-0.419540	0.052145
H153	H	1.506193	-1.100602	-0.685408
H154	H	2.006193	-0.600602	-0.185408
H155	H	1.645076	-1.099450	-0.646354
H156	H	2.145076	-0.599450	-0.146354
H157	H	1.359177	-1.100287	-0.542047
H158	H	1.859177	-0.600287	-0.042047
H159	H	1.367400	-0.573532	-0.920002
H160	H	1.867400	-0.073532	-0.420002
H161	H	1.366940	-0.573311	-1.102138
H162	H	1.866940	-0.073311	-0.602138
H163	H	1.356432	-0.918061	-0.535155
H164	H	1.856432	-0.418061	-0.035155
H165	H	1.468644	-0.674731	-1.103479
H166	H	1.968644	-0.174731	-0.603479
