data_functionalizedCrystal
_audit_creation_method	'MofGen! by Chris Wilmer'
_symmetry_space_group_name_H-M	'P1'
_symmetry_Int_Tables_number	1
_symmetry_cell_setting	triclinic
loop_
_symmetry_equiv_pos_as_xyz
  x,y,z
_cell_length_a	15.297979
_cell_length_b	15.299816
_cell_length_c	19.805399
_cell_angle_alpha	99.658849
_cell_angle_beta	80.290517
_cell_angle_gamma	91.635460
loop_
_atom_site_label
_atom_site_type_symbol
_atom_site_fract_x
_atom_site_fract_y
_atom_site_fract_z
Zn1	Zn	1.399639	-0.117229	-0.580021
Zn2	Zn	1.899639	0.382771	-0.080021
Zn3	Zn	1.424882	-0.263692	-0.489159
Zn4	Zn	1.924882	0.236308	0.010841
Zn5	Zn	1.253145	-0.142568	-0.451085
Zn6	Zn	1.753145	0.357432	0.048915
Zn7	Zn	1.278439	-0.288950	-0.586541
Zn8	Zn	1.778439	0.211050	-0.086541
O9	O	1.339026	-0.203110	-0.526701
O10	O	1.839026	0.296890	-0.026701
O11	O	1.525583	-0.115483	-0.581173
O12	O	2.025583	0.384517	-0.081173
O13	O	1.402080	-0.247659	-0.389393
O14	O	1.902080	0.252341	0.110607
O15	O	1.251429	-0.016650	-0.449525
O16	O	1.751429	0.483350	0.050475
O17	O	1.544129	-0.223089	-0.514417
O18	O	2.044129	0.276911	-0.014417
O19	O	1.359057	0.001966	-0.544254
O20	O	1.859057	0.501966	-0.044254
O21	O	1.275905	-0.158670	-0.361420
O22	O	1.775905	0.341330	0.138580
O23	O	1.133906	-0.183160	-0.455848
O24	O	1.633906	0.316840	0.044152
O25	O	1.294538	-0.266136	-0.680391
O26	O	1.794538	0.233864	-0.180391
O27	O	1.152489	-0.290706	-0.555367
O28	O	1.652489	0.209294	-0.055367
O29	O	1.383583	-0.139974	-0.675601
O30	O	1.883583	0.360026	-0.175601
O31	O	1.426606	-0.389599	-0.520740
O32	O	1.926606	0.110401	-0.020740
O33	O	1.319015	-0.408156	-0.592286
O34	O	1.819015	0.091844	-0.092286
C35	C	1.111410	-0.242424	-0.502184
C36	C	1.611410	0.257576	-0.002184
C37	C	1.014038	-0.259264	-0.491714
C38	C	1.514038	0.240736	0.008286
C39	C	1.378318	-0.430651	-0.561369
C40	C	1.878318	0.069349	-0.061369
C41	C	1.395207	-0.527980	-0.576231
C42	C	1.895207	-0.027980	-0.076231
C43	C	0.977932	-0.323112	-0.451956
C44	C	1.477932	0.176888	0.048044
C45	C	0.886446	-0.338936	-0.442124
C46	C	1.386446	0.161064	0.057876
C47	C	0.831057	-0.290909	-0.472043
C48	C	1.331057	0.209091	0.027957
C49	C	0.867162	-0.227056	-0.511797
C50	C	1.367162	0.272944	-0.011797
C51	C	0.958658	-0.211235	-0.521635
C52	C	1.458658	0.288765	-0.021635
C53	C	0.811783	-0.179032	-0.541721
C54	C	1.311783	0.320968	-0.041721
C55	C	0.847888	-0.115179	-0.581476
C56	C	1.347888	0.384821	-0.081476
C57	C	0.939375	-0.099361	-0.591312
C58	C	1.439375	0.400639	-0.091312
C59	C	0.994764	-0.147388	-0.561393
C60	C	1.494764	0.352612	-0.061393
C61	C	0.720288	-0.194853	-0.531883
C62	C	1.220288	0.305147	-0.031883
C63	C	0.701014	-0.082976	-0.601562
C64	C	1.201014	0.417024	-0.101562
C65	C	0.792499	-0.067152	-0.611395
C66	C	1.292499	0.432848	-0.111395
C67	C	1.218892	-0.841366	-0.420770
C68	C	1.718892	-0.341366	0.079230
C69	C	1.203019	-0.749921	-0.406807
C70	C	1.703019	-0.249921	0.093193
C71	C	1.251065	-0.694431	-0.449162
C72	C	1.751065	-0.194431	0.050838
C73	C	1.314986	-0.730396	-0.505482
C74	C	1.814986	-0.230396	-0.005482
C75	C	1.330855	-0.821850	-0.519449
C76	C	1.830855	-0.321850	-0.019449
C77	C	1.363028	-0.674916	-0.547841
C78	C	1.863028	-0.174916	-0.047841
C79	C	1.426949	-0.710880	-0.604161
C80	C	1.926949	-0.210880	-0.104161
C81	C	1.442816	-0.802326	-0.618126
C82	C	1.942816	-0.302326	-0.118126
C83	C	1.394770	-0.857815	-0.575771
C84	C	1.894770	-0.357815	-0.075771
C85	C	1.347159	-0.583461	-0.533874
C86	C	1.847159	-0.083461	-0.033874
C87	C	1.459122	-0.563946	-0.632553
C88	C	1.959122	-0.063946	-0.132553
C89	C	1.474995	-0.655391	-0.646516
C90	C	1.974995	-0.155391	-0.146516
C91	C	1.567532	-0.163642	-0.551315
C92	C	2.067532	0.336358	-0.051315
C93	C	1.664908	-0.146824	-0.561804
C94	C	2.164908	0.353176	-0.061804
C95	C	1.339066	-0.203046	-0.703241
C96	C	1.839066	0.296954	-0.203241
C97	C	1.339083	-0.203019	-0.778472
C98	C	1.839083	0.296981	-0.278472
C99	C	1.299606	0.025324	-0.491915
C100	C	1.799606	0.525324	0.008085
C101	C	1.282807	0.122669	-0.477092
C102	C	1.782807	0.622669	0.022908
C103	C	1.385450	-0.137323	-0.811322
C104	C	1.885450	0.362677	-0.311322
C105	C	1.385454	-0.137296	-0.882008
C106	C	1.885454	0.362704	-0.382008
C107	C	1.339097	-0.202970	-0.919843
C108	C	1.839097	0.297030	-0.419843
C109	C	1.292724	-0.268669	-0.886987
C110	C	1.792724	0.231331	-0.386987
C111	C	1.292715	-0.268691	-0.816301
C112	C	1.792715	0.231309	-0.316301
C113	C	1.292760	-0.268579	-1.172053
C114	C	1.792760	0.231421	-0.672053
C115	C	1.292775	-0.268553	-1.242744
C116	C	1.792775	0.231447	-0.742744
C117	C	1.385499	-0.137184	-1.237760
C118	C	1.885499	0.362816	-0.737760
C119	C	1.385490	-0.137206	-1.167074
C120	C	1.885490	0.362794	-0.667074
C121	C	1.339114	-0.202902	-1.134224
C122	C	1.839114	0.297098	-0.634224
C123	C	1.339108	-0.202930	-1.057578
C124	C	1.839108	0.297070	-0.557578
C125	C	1.339107	-0.202946	-0.996488
C126	C	1.839107	0.297054	-0.496488
C127	C	1.339026	-0.203101	-0.350844
C128	C	1.839026	0.296899	0.149156
C129	C	1.339137	-0.202852	-0.275595
C130	C	1.839137	0.297148	0.224405
H131	H	0.690901	-0.246844	-0.499515
H132	H	1.190901	0.253156	0.000485
F133	F	1.411805	-0.955118	-0.590533
F134	F	1.911805	-0.455118	-0.090533
H135	H	1.423203	-0.083847	-0.780523
H136	H	1.923203	0.416153	-0.280523
F137	F	1.243431	-0.338454	-1.283009
F138	F	1.743431	0.161546	-0.783009
H139	H	1.255013	-0.322083	-1.145318
H140	H	1.755013	0.177917	-0.645318
F141	F	1.434839	-0.067399	-0.916975
F142	F	1.934839	0.432601	-0.416975
F143	F	1.243363	-0.338612	-0.781339
F144	F	1.743363	0.161388	-0.281339
H145	H	0.756566	-0.303797	-0.464034
H146	H	1.256566	0.196203	0.035966
H147	H	1.498243	-0.518766	-0.667043
H148	H	1.998243	-0.018766	-0.167043
H149	H	1.150974	-0.720642	-0.360952
H150	H	1.650974	-0.220642	0.139048
F151	F	1.543021	-0.693678	-0.706455
F152	F	2.043021	-0.193678	-0.206455
F153	F	1.434833	-0.067311	-1.126812
F154	F	1.934833	0.432689	-0.626812
F155	F	1.092136	-0.130553	-0.571859
F156	F	1.592136	0.369447	-0.071859
F157	F	0.848025	-0.406878	-0.399804
F158	F	1.348025	0.093122	0.100196
H159	H	1.494861	-0.831605	-0.663988
H160	H	1.994861	-0.331605	-0.163988
H161	H	1.254976	-0.322138	-0.917797
H162	H	1.754976	0.177862	-0.417797
H163	H	1.295114	-0.554187	-0.488018
H164	H	1.795114	-0.054187	0.011982
H165	H	1.023038	-0.362212	-0.427604
H166	H	1.523038	0.137788	0.072396
H167	H	1.423257	-0.083688	-1.264514
H168	H	1.923257	0.416312	-0.764514
F169	F	0.977800	-0.031413	-0.633632
F170	F	1.477800	0.468587	-0.133632
H171	H	0.655916	-0.043870	-0.625925
H172	H	1.155916	0.456130	-0.125925
F173	F	0.830936	0.000802	-0.653704
F174	F	1.330936	0.500802	-0.153704
H175	H	1.179776	-0.886553	-0.386294
H176	H	1.679776	-0.386553	0.113706
F177	F	1.233928	-0.597150	-0.434460
F178	F	1.733928	-0.097150	0.065540
