data_functionalizedCrystal
_audit_creation_method	'MofGen! by Chris Wilmer'
_symmetry_space_group_name_H-M	'P1'
_symmetry_Int_Tables_number	1
_symmetry_cell_setting	triclinic
loop_
_symmetry_equiv_pos_as_xyz
  x,y,z
_cell_length_a	12.503572
_cell_length_b	9.065218
_cell_length_c	9.065218
_cell_angle_alpha	94.984115
_cell_angle_beta	86.422702
_cell_angle_gamma	86.429307
loop_
_atom_site_label
_atom_site_type_symbol
_atom_site_fract_x
_atom_site_fract_y
_atom_site_fract_z
O1	O	0.089319	-1.968796	0.207934
O2	O	0.589319	-1.468796	0.707934
O3	O	0.089320	-1.539511	0.225681
O4	O	0.589320	-1.039511	0.725681
O5	O	0.089317	-1.763027	0.002165
O6	O	0.589317	-1.263027	0.502165
O7	O	0.089322	-1.745281	0.431450
O8	O	0.589322	-1.245281	0.931450
O9	O	-0.089325	-1.746218	0.019003
O10	O	0.410675	-1.246218	0.519003
O11	O	-0.089322	-1.522702	0.242519
O12	O	0.410678	-1.022702	0.742519
O13	O	-0.089323	-1.951987	0.224772
O14	O	0.410677	-1.451987	0.724772
Cu15	Cu	-0.105634	-1.735810	0.235183
Cu16	Cu	0.394366	-1.235810	0.735183
Cu17	Cu	0.105631	-1.755689	0.215270
Cu18	Cu	0.605631	-1.255689	0.715270
O19	O	-0.089320	-1.728471	0.448288
O20	O	0.410680	-1.228471	0.948288
C21	C	-0.000001	-1.476120	0.232394
C22	C	0.499999	-0.976120	0.732394
C23	C	-0.000000	-1.312277	0.227294
C24	C	0.500000	-0.812277	0.727294
N25	N	-0.254226	-1.721839	0.249188
N26	N	0.245774	-1.221839	0.749188
C27	C	-0.000002	-1.752917	-0.044402
C28	C	0.499998	-1.252917	0.455598
C29	C	0.000003	-1.747818	-0.208246
C30	C	0.500003	-1.247818	0.291754
C31	C	-0.473341	-1.701287	0.269802
C32	C	0.026659	-1.201287	0.769802
C33	C	-0.526669	-1.790218	0.180645
C34	C	-0.026669	-1.290218	0.680645
C35	C	-0.648592	-1.778783	0.192115
C36	C	-0.148592	-1.278783	0.692115
C37	C	-0.351407	-1.712720	0.258334
C38	C	0.148593	-1.212720	0.758334
N39	N	0.254223	-1.769671	0.201254
N40	N	0.754223	-1.269671	0.701254
C41	C	0.000000	-2.015378	0.218059
C42	C	0.500000	-1.515378	0.718059
C43	C	0.000007	-2.179222	0.223158
C44	C	0.500007	-1.679222	0.723158
C45	C	0.000001	-1.738582	0.494855
C46	C	0.500001	-1.238582	0.994855
C47	C	0.000003	-1.743682	0.658698
C48	C	0.500003	-1.243682	1.158698
H49	H	-0.480757	-1.874944	0.095702
H50	H	0.019243	-1.374944	0.595702
F51	F	-0.533345	-1.590554	0.380827
F52	F	-0.033345	-1.090554	0.880827
