data_functionalizedCrystal
_audit_creation_method	'MofGen! by Chris Wilmer'
_symmetry_space_group_name_H-M	'P1'
_symmetry_Int_Tables_number	1
_symmetry_cell_setting	triclinic
loop_
_symmetry_equiv_pos_as_xyz
  x,y,z
_cell_length_a	14.044191
_cell_length_b	19.188924
_cell_length_c	13.101039
_cell_angle_alpha	93.348752
_cell_angle_beta	86.337551
_cell_angle_gamma	88.166870
loop_
_atom_site_label
_atom_site_type_symbol
_atom_site_fract_x
_atom_site_fract_y
_atom_site_fract_z
O1	O	1.262232	0.164780	-0.085173
O2	O	0.986288	0.158702	-0.085186
O3	O	1.132226	0.060600	-0.085167
O4	O	1.116294	0.262883	-0.085192
O5	O	1.121755	0.067652	0.085261
O6	O	0.975817	0.165754	0.085242
O7	O	1.251761	0.171832	0.085255
Zn8	Zn	1.112127	0.169912	0.112308
Zn9	Zn	1.125922	0.160622	-0.112239
O10	O	1.105823	0.269934	0.085236
C11	C	0.945750	0.159569	0.000027
C12	C	0.840557	0.151638	0.000022
C13	C	0.590096	0.193386	0.000027
C14	C	0.647959	0.137151	0.000033
C15	C	0.755130	0.145213	0.000027
C16	C	0.482915	0.185325	0.000033
C17	C	1.126475	0.038081	0.000048
C18	C	1.124930	-0.039523	0.000051
C19	C	1.129916	-0.079812	-0.092850
C20	C	1.128451	-0.152730	-0.092858
C21	C	1.122018	-0.185356	0.000040
C22	C	1.117026	-0.145057	0.092953
C23	C	1.118481	-0.072141	0.092958
N24	N	1.169410	-0.298825	0.069185
N25	N	1.168029	-0.368093	0.069173
C26	C	1.117629	-0.405049	0.000030
N27	N	1.068674	-0.370121	-0.069117
N28	N	1.070060	-0.300847	-0.069109
C29	C	1.120438	-0.264421	0.000045
C30	C	1.121026	-0.524404	-0.092886
C31	C	1.119554	-0.597322	-0.092890
C32	C	1.108139	-0.589649	0.092924
C33	C	1.109601	-0.516731	0.092926
C34	C	1.116049	-0.484113	0.000018
C35	C	1.292300	0.170965	0.000040
C36	C	1.397493	0.178896	0.000038
C37	C	1.111574	0.292452	0.000019
C38	C	1.113120	0.370057	0.000010
N39	N	1.102718	0.176253	0.265555
N40	N	1.135338	0.154276	-0.265486
C41	C	1.089918	0.184886	0.474596
C42	C	1.148136	0.145645	0.525479
C43	C	1.141013	0.150449	0.641797
C44	C	1.097039	0.180083	0.358268
H45	H	0.621043	0.247582	0.000018
C46	C	1.222701	0.095391	0.466328
H47	H	1.258290	0.071400	0.513552
H48	H	1.264625	0.121226	0.424469
H49	H	1.191183	0.062534	0.424480
H50	H	1.135164	-0.053259	-0.168503
C51	C	1.113005	-0.027821	0.195154
H52	H	1.108968	-0.057693	0.250482
H53	H	1.058091	0.002671	0.199015
H54	H	1.168595	-0.001105	0.199018
C55	C	1.109948	-0.180939	0.195141
H56	H	1.107179	-0.146498	0.250473
H57	H	1.164390	-0.211108	0.199009
H58	H	1.053888	-0.207340	0.198993
C59	C	1.015343	0.235126	0.533747
H60	H	0.979739	0.259109	0.486528
H61	H	1.046841	0.267979	0.575610
H62	H	0.973423	0.209272	0.575593
H63	H	0.617015	0.082947	-0.000033
H64	H	1.132506	-0.185539	-0.168512
H65	H	1.126271	-0.497845	-0.168537
H66	H	1.123610	-0.630125	-0.168544
C67	C	1.101055	-0.625528	0.195111
H68	H	1.100905	-0.674726	0.181804
H69	H	1.043699	-0.610116	0.233278
H70	H	1.154202	-0.613889	0.233289
H71	H	1.105548	-0.483927	0.168576
