data_functionalizedCrystal
_audit_creation_method	'MofGen! by Chris Wilmer'
_symmetry_space_group_name_H-M	'P1'
_symmetry_Int_Tables_number	1
_symmetry_cell_setting	triclinic
loop_
_symmetry_equiv_pos_as_xyz
  x,y,z
_cell_length_a	10.868271
_cell_length_b	16.109301
_cell_length_c	16.109301
_cell_angle_alpha	96.538519
_cell_angle_beta	90.006558
_cell_angle_gamma	89.998402
loop_
_atom_site_label
_atom_site_type_symbol
_atom_site_fract_x
_atom_site_fract_y
_atom_site_fract_z
O1	O	0.102248	-1.103132	0.106868
O2	O	0.352248	-0.853132	0.356868
O3	O	0.602248	-0.603132	0.606868
O4	O	0.852248	-0.353132	0.856868
O5	O	0.102268	-0.861070	0.120167
O6	O	0.352268	-0.611070	0.370167
O7	O	0.602268	-0.361070	0.620167
O8	O	0.852268	-0.111070	0.870167
O9	O	0.102245	-0.988750	-0.007514
O10	O	0.352245	-0.738750	0.242486
O11	O	0.602245	-0.488750	0.492486
O12	O	0.852245	-0.238750	0.742486
O13	O	0.102271	-0.975451	0.234548
O14	O	0.352271	-0.725451	0.484548
O15	O	0.602271	-0.475451	0.734548
O16	O	0.852271	-0.225451	0.984548
O17	O	-0.102399	-0.988740	-0.007519
O18	O	0.147601	-0.738740	0.242481
O19	O	0.397601	-0.488740	0.492481
O20	O	0.647601	-0.238740	0.742481
O21	O	-0.102376	-0.861059	0.120162
O22	O	0.147624	-0.611059	0.370162
O23	O	0.397624	-0.361059	0.620162
O24	O	0.647624	-0.111059	0.870162
O25	O	-0.102396	-1.103121	0.106863
O26	O	0.147604	-0.853121	0.356863
O27	O	0.397604	-0.603121	0.606863
O28	O	0.647604	-0.353121	0.856863
Zn29	Zn	-0.134878	-0.982088	0.113512
Zn30	Zn	0.115122	-0.732088	0.363512
Zn31	Zn	0.365122	-0.482088	0.613512
Zn32	Zn	0.615122	-0.232088	0.863512
Zn33	Zn	0.134750	-0.982102	0.113518
Zn34	Zn	0.384750	-0.732102	0.363518
Zn35	Zn	0.634750	-0.482102	0.613518
Zn36	Zn	0.884750	-0.232102	0.863518
O37	O	-0.102373	-0.975440	0.234543
O38	O	0.147627	-0.725440	0.484543
O39	O	0.397627	-0.475440	0.734543
O40	O	0.647627	-0.225440	0.984543
C41	C	-0.000051	-0.830090	0.119626
C42	C	0.249949	-0.580090	0.369626
C43	C	0.499949	-0.330090	0.619626
C44	C	0.749949	-0.080090	0.869626
C45	C	-0.000044	-0.737794	0.118011
C46	C	0.249956	-0.487794	0.368011
C47	C	0.499956	-0.237794	0.618011
C48	C	0.749956	0.012206	0.868011
N49	N	-0.318892	-0.982085	0.113507
N50	N	-0.068892	-0.732085	0.363507
N51	N	0.181108	-0.482085	0.613507
N52	N	0.431108	-0.232085	0.863507
C53	C	-0.000078	-0.988206	-0.038491
C54	C	0.249922	-0.738206	0.211509
C55	C	0.499922	-0.488206	0.461509
C56	C	0.749922	-0.238206	0.711509
C57	C	-0.000079	-0.986591	-0.130786
C58	C	0.249921	-0.736591	0.119214
C59	C	0.499921	-0.486591	0.369214
C60	C	0.749921	-0.236591	0.619214
C61	C	-0.569898	-0.982098	0.113516
C62	C	-0.319898	-0.732098	0.363516
C63	C	-0.069898	-0.482098	0.613516
C64	C	0.180102	-0.232098	0.863516
C65	C	-0.430221	-0.982088	0.113513
C66	C	-0.180221	-0.732088	0.363513
C67	C	0.069779	-0.482088	0.613513
C68	C	0.319779	-0.232088	0.863513
N69	N	0.318764	-0.982112	0.113516
N70	N	0.568764	-0.732112	0.363516
N71	N	0.818764	-0.482112	0.613516
N72	N	1.068764	-0.232112	0.863516
C73	C	-0.000074	-1.134101	0.107404
C74	C	0.249926	-0.884101	0.357404
C75	C	0.499926	-0.634101	0.607404
C76	C	0.749926	-0.384101	0.857404
C77	C	-0.000073	-1.226397	0.109019
C78	C	0.249927	-0.976397	0.359019
C79	C	0.499927	-0.726397	0.609019
C80	C	0.749927	-0.476397	0.859019
C81	C	-0.000051	-0.515522	0.190018
C82	C	0.249949	-0.265522	0.440018
C83	C	0.499949	-0.015522	0.690018
C84	C	0.749949	0.234478	0.940018
C85	C	-0.000059	-0.428801	0.188494
C86	C	0.249941	-0.178801	0.438494
C87	C	0.499941	0.071199	0.688494
C88	C	0.749941	0.321199	0.938494
C89	C	-0.000070	-0.448676	0.037006
C90	C	0.249930	-0.198676	0.287006
C91	C	0.499930	0.051324	0.537006
C92	C	0.749930	0.301324	0.787006
C93	C	-0.000071	-0.535394	0.038530
C94	C	0.249929	-0.285394	0.288530
C95	C	0.499929	-0.035394	0.538530
C96	C	0.749929	0.214606	0.788530
C97	C	-0.000055	-0.568815	0.115039
C98	C	0.249945	-0.318815	0.365039
C99	C	0.499945	-0.068815	0.615039
C100	C	0.749945	0.181185	0.865039
C101	C	-0.000062	-0.395376	0.111990
C102	C	0.249938	-0.145376	0.361990
C103	C	0.499938	0.104624	0.611990
C104	C	0.749938	0.354624	0.861990
C105	C	-0.000071	-0.301350	0.110337
C106	C	0.249929	-0.051350	0.360337
C107	C	0.499929	0.198650	0.610337
C108	C	0.749929	0.448650	0.860337
C109	C	-0.000048	-0.662847	0.116693
C110	C	0.249952	-0.412847	0.366693
C111	C	0.499952	-0.162847	0.616693
C112	C	0.749952	0.087153	0.866693
C113	C	-0.000066	-1.058599	-0.353059
C114	C	0.249934	-0.808599	-0.103059
C115	C	0.499934	-0.558599	0.146941
C116	C	0.749934	-0.308599	0.396941
C117	C	-0.000055	-1.057075	-0.439779
C118	C	0.249945	-0.807075	-0.189779
C119	C	0.499945	-0.557075	0.060221
C120	C	0.749945	-0.307075	0.310221
C121	C	-0.000048	-0.905586	-0.419905
C122	C	0.249952	-0.655586	-0.169905
C123	C	0.499952	-0.405586	0.080095
C124	C	0.749952	-0.155586	0.330095
C125	C	-0.000049	-0.907111	-0.333186
C126	C	0.249951	-0.657111	-0.083186
C127	C	0.499951	-0.407111	0.166814
C128	C	0.749951	-0.157111	0.416814
C129	C	-0.000064	-0.983620	-0.299766
C130	C	0.249936	-0.733620	-0.049766
C131	C	0.499936	-0.483620	0.200234
C132	C	0.749936	-0.233620	0.450234
C133	C	-0.000053	-0.980571	-0.473205
C134	C	0.249947	-0.730571	-0.223205
C135	C	0.499947	-0.480571	0.026795
C136	C	0.749947	-0.230571	0.276795
C137	C	-0.000042	-0.978918	-0.567231
C138	C	0.249958	-0.728918	-0.317231
C139	C	0.499958	-0.478918	-0.067231
C140	C	0.749958	-0.228918	0.182769
C141	C	-0.000073	-0.985273	-0.205734
C142	C	0.249927	-0.735273	0.044266
C143	C	0.499927	-0.485273	0.294266
C144	C	0.749927	-0.235273	0.544266
C145	C	-0.000048	-0.975984	0.265521
C146	C	0.249952	-0.725984	0.515521
C147	C	0.499952	-0.475984	0.765521
C148	C	0.749952	-0.225984	1.015521
C149	C	-0.000038	-0.977600	0.357816
C150	C	0.249962	-0.727600	0.607816
C151	C	0.499962	-0.477600	0.857816
C152	C	0.749962	-0.227600	1.107816
H153	H	-0.000047	-0.542730	0.252317
H154	H	0.249953	-0.292730	0.502317
H155	H	0.499953	-0.042730	0.752317
H156	H	0.749953	0.207270	1.002317
Cl157	Cl	-0.000055	-1.151339	-0.506773
Cl158	Cl	0.249945	-0.901339	-0.256773
Cl159	Cl	0.499945	-0.651339	-0.006773
Cl160	Cl	0.749945	-0.401339	0.243227
Cl161	Cl	-0.000055	-0.361807	0.282758
Cl162	Cl	0.249945	-0.111807	0.532758
Cl163	Cl	0.499945	0.138193	0.782758
Cl164	Cl	0.749945	0.388193	1.032758
Cl165	Cl	-0.000029	-0.809409	-0.461926
Cl166	Cl	0.249971	-0.559409	-0.211926
Cl167	Cl	0.499971	-0.309409	0.038074
Cl168	Cl	0.749971	-0.059409	0.288074
Cl169	Cl	-0.000037	-0.812844	-0.266184
Cl170	Cl	0.249963	-0.562844	-0.016184
Cl171	Cl	0.499963	-0.312844	0.233816
Cl172	Cl	0.749963	-0.062844	0.483816
H173	H	-0.000090	-0.421454	-0.025285
H174	H	0.249910	-0.171454	0.224715
H175	H	0.499910	0.078546	0.474715
H176	H	0.749910	0.328546	0.724715
H177	H	-0.000075	-1.120897	-0.325851
H178	H	0.249925	-0.870897	-0.075851
H179	H	0.499925	-0.620897	0.174149
H180	H	0.749925	-0.370897	0.424149
Cl181	Cl	-0.000086	-0.602397	-0.055737
Cl182	Cl	0.249914	-0.352397	0.194263
Cl183	Cl	0.499914	-0.102397	0.444263
Cl184	Cl	0.749914	0.147603	0.694263
