data_functionalizedCrystal
_audit_creation_method	'MofGen! by Chris Wilmer'
_symmetry_space_group_name_H-M	'P1'
_symmetry_Int_Tables_number	1
_symmetry_cell_setting	triclinic
loop_
_symmetry_equiv_pos_as_xyz
  x,y,z
_cell_length_a	10.654550
_cell_length_b	10.654550
_cell_length_c	9.130313
_cell_angle_alpha	89.996647
_cell_angle_beta	89.999724
_cell_angle_gamma	84.484917
loop_
_atom_site_label
_atom_site_type_symbol
_atom_site_fract_x
_atom_site_fract_y
_atom_site_fract_z
O1	O	1.667839	0.176399	-0.121686
O2	O	1.302361	0.193205	-0.121712
O3	O	1.493503	0.002063	-0.121693
O4	O	1.476697	0.367541	-0.121705
O5	O	1.493490	0.002057	0.121906
O6	O	1.302348	0.193199	0.121886
O7	O	1.667826	0.176393	0.121913
Cu8	Cu	1.485086	0.184796	0.144142
Cu9	Cu	1.485101	0.184802	-0.143942
O10	O	1.476684	0.367535	0.121894
C11	C	1.255556	0.191968	0.000084
C12	C	1.116113	0.188276	0.000073
C13	C	1.036627	0.300818	0.000074
C14	C	0.905607	0.297341	0.000100
C15	C	0.933570	0.068772	0.000118
C16	C	1.064588	0.072250	0.000103
C17	C	1.492263	-0.044738	0.000104
C18	C	1.488571	-0.184181	0.000099
C19	C	1.601112	-0.263667	0.000112
C20	C	1.597636	-0.394688	0.000101
C21	C	1.369066	-0.366725	0.000072
C22	C	1.372544	-0.235706	0.000072
C23	C	1.717139	-0.212142	0.000139
C24	C	1.829690	-0.291629	0.000153
C25	C	1.826213	-0.422650	0.000143
C26	C	1.710186	-0.474184	0.000118
C27	C	1.714631	0.177630	0.000114
C28	C	1.854074	0.181322	0.000114
C29	C	1.477924	0.414336	0.000093
C30	C	1.481616	0.553779	0.000089
N31	N	1.485084	0.184790	0.346765
N32	N	1.485113	0.184798	-0.346564
C33	C	1.569751	0.100188	0.423425
C34	C	1.569763	0.100189	0.576762
C35	C	1.400437	0.269404	0.576765
C36	C	1.400420	0.269396	0.423431
H37	H	0.891602	-0.025693	0.000151
O38	O	1.318154	0.351419	0.651406
C39	C	1.240088	0.283439	0.740099
H40	H	1.289261	0.185628	0.763073
H41	H	1.220691	0.335681	0.847921
H42	H	1.147189	0.274040	0.681027
H43	H	1.924155	-0.249661	0.000137
O44	O	1.706648	-0.601439	0.000296
C45	C	1.642821	-0.637561	0.126468
H46	H	1.578090	-0.553900	0.168532
H47	H	1.584316	-0.718339	0.098082
H48	H	1.714443	-0.669653	0.214814
O49	O	1.935622	-0.499735	-0.000046
C50	C	2.005996	-0.476234	-0.126213
H51	H	1.976026	-0.377128	-0.168275
H52	H	2.110660	-0.484539	-0.097822
H53	H	1.988210	-0.548029	-0.214563
O54	O	1.256473	-0.416989	0.000124
C55	C	1.277537	-0.549674	0.000092
H56	H	1.375277	-0.579583	0.046219
H57	H	1.203226	-0.590543	0.070811
H58	H	1.271141	-0.586189	-0.116774
H59	H	0.840894	0.388984	0.000103
H60	H	1.129309	-0.019401	0.000107
H61	H	1.719983	-0.105460	0.000152
H62	H	1.078574	0.395294	0.000061
H63	H	1.638704	0.031297	0.639175
H64	H	1.638687	0.031295	0.361008
H65	H	1.331468	0.338290	0.361009
H66	H	1.280903	-0.170986	0.000063
