data_functionalizedCrystal
_audit_creation_method	'MofGen! by Chris Wilmer'
_symmetry_space_group_name_H-M	'P1'
_symmetry_Int_Tables_number	1
_symmetry_cell_setting	triclinic
loop_
_symmetry_equiv_pos_as_xyz
  x,y,z
_cell_length_a	17.038272
_cell_length_b	16.098538
_cell_length_c	11.792241
_cell_angle_alpha	87.258566
_cell_angle_beta	87.652486
_cell_angle_gamma	92.930266
loop_
_atom_site_label
_atom_site_type_symbol
_atom_site_fract_x
_atom_site_fract_y
_atom_site_fract_z
O1	O	1.041932	0.069152	0.241835
O2	O	0.814285	0.069177	0.237918
O3	O	0.933633	0.069158	0.075191
O4	O	0.922585	0.069171	0.404563
O5	O	0.926661	-0.069354	0.084657
O6	O	0.807313	-0.069335	0.247384
O7	O	1.034960	-0.069359	0.251301
Zn8	Zn	0.920030	-0.091339	0.250846
Zn9	Zn	0.929216	0.091156	0.238374
O10	O	0.915613	-0.069341	0.414029
C11	C	0.781655	-0.000076	0.239090
C12	C	0.694816	-0.000067	0.228466
C13	C	0.645133	-0.000064	0.326005
C14	C	0.563538	-0.000075	0.316017
C15	C	0.531627	-0.000085	0.208488
C16	C	0.581317	-0.000090	0.110941
C17	C	0.662910	-0.000084	0.120931
C18	C	0.285712	-0.000108	0.173196
C19	C	0.204113	-0.000112	0.163214
C20	C	0.186339	-0.000098	0.368291
C21	C	0.267935	-0.000088	0.378271
C22	C	0.317617	-0.000098	0.280724
C23	C	0.448224	-0.000094	0.198276
C24	C	0.401019	-0.000094	0.290938
N25	N	0.913766	-0.215887	0.259357
C26	C	0.964441	-0.259480	0.190317
C27	C	0.960067	-0.346668	0.196283
C28	C	0.905021	-0.390262	0.271295
C29	C	0.854341	-0.346663	0.340338
C30	C	0.858712	-0.259476	0.334365
C31	C	0.889176	-0.653510	0.292925
C32	C	0.884810	-0.740702	0.298894
C33	C	0.990536	-0.740702	0.154837
C34	C	0.994905	-0.653513	0.148876
C35	C	0.944222	-0.609922	0.217915
C36	C	0.900551	-0.479383	0.277397
C37	C	0.948690	-0.520803	0.211806
C38	C	1.067590	-0.000105	0.250129
C39	C	1.154430	-0.000108	0.260753
N40	N	0.935485	0.215705	0.229854
C41	C	0.929453	-0.000097	0.037572
C42	C	0.927375	-0.000096	-0.088624
C43	C	0.923556	-0.000082	-0.319672
C44	C	0.925678	-0.000090	-0.191100
C45	C	0.919793	-0.000083	0.451647
C46	C	0.921870	-0.000079	0.577843
H47	H	0.427003	-0.000091	0.378488
C48	C	0.413117	-0.000100	0.079996
C49	C	0.428053	-0.072027	0.001690
C50	C	0.392942	-0.072037	-0.116588
C51	C	0.342895	-0.000118	-0.156559
C52	C	0.327957	0.071814	-0.078252
C53	C	0.363069	0.071824	0.040026
H54	H	0.465102	-0.125270	0.031278
H55	H	0.404000	-0.125287	-0.174556
H56	H	0.316904	-0.000125	-0.244116
H57	H	0.290908	0.125057	-0.107840
H58	H	0.352010	0.125074	0.097994
H59	H	0.855733	-0.514884	0.338475
H60	H	1.009268	-0.223992	0.129239
C61	C	0.680232	-0.000052	0.444290
C62	C	0.730273	-0.071970	0.484276
C63	C	0.765369	-0.071961	0.602564
C64	C	0.750423	-0.000034	0.680866
C65	C	0.700379	0.071890	0.640882
C66	C	0.665283	0.071881	0.522594
H67	H	0.741339	-0.125220	0.426311
H68	H	0.802415	-0.125204	0.632162
H69	H	0.776403	-0.000027	0.768430
H70	H	0.689313	0.125139	0.698847
H71	H	0.628237	0.125124	0.492995
C72	C	1.055451	-0.605557	0.066359
C73	C	1.052996	-0.617553	-0.062248
C74	C	1.113544	-0.569594	-0.144761
C75	C	1.176548	-0.509640	-0.098668
C76	C	1.179005	-0.497641	0.029946
C77	C	1.118457	-0.545600	0.112459
H78	H	1.006355	-0.661937	-0.096375
H79	H	1.111725	-0.578476	-0.239970
H80	H	1.221369	-0.474137	-0.159749
H81	H	1.225646	-0.453257	0.064073
H82	H	1.120276	-0.536718	0.207667
C83	C	0.131688	-0.000097	0.475586
C84	C	0.076756	0.071823	0.492008
C85	C	0.022104	0.071821	0.599309
C86	C	0.022383	-0.000101	0.690189
C87	C	0.077317	-0.072026	0.673770
C88	C	0.131969	-0.072024	0.566469
H89	H	0.076547	0.125069	0.424731
H90	H	-0.018562	0.125065	0.611463
H91	H	-0.018073	-0.000103	0.769620
H92	H	0.077526	-0.125272	0.741047
H93	H	0.172635	-0.125268	0.554315
H94	H	0.555328	-0.000110	0.023389
C95	C	1.046278	-0.788653	0.078889
C96	C	1.041476	-0.884554	0.085445
C97	C	1.097219	-0.932504	0.009489
C98	C	1.157766	-0.884552	-0.073024
C99	C	1.162571	-0.788644	-0.079584
C100	C	1.106827	-0.740695	-0.003627
H101	H	0.996653	-0.920056	0.146529
H102	H	1.093661	-1.003501	0.014346
H103	H	1.199030	-0.920047	-0.129251
H104	H	1.207393	-0.753142	-0.140667
H105	H	1.110385	-0.669698	-0.008484
H106	H	0.178135	-0.000118	0.075646
H107	H	0.523089	-0.000072	0.395445
H108	H	0.293911	-0.000070	0.465832
H109	H	1.001330	-0.382161	0.140064
H110	H	0.326154	-0.000117	0.093766
H111	H	0.703362	-0.000086	0.041503
H112	H	0.847909	-0.618024	0.349141
H113	H	0.839983	-0.776192	0.359983
H114	H	0.809518	-0.382162	0.401410
H115	H	0.817447	-0.223984	0.390584
H116	H	0.993505	-0.485307	0.150727
