data_functionalizedCrystal
_audit_creation_method	'MofGen! by Chris Wilmer'
_symmetry_space_group_name_H-M	'P1'
_symmetry_Int_Tables_number	1
_symmetry_cell_setting	triclinic
loop_
_symmetry_equiv_pos_as_xyz
  x,y,z
_cell_length_a	16.994747
_cell_length_b	12.827893
_cell_length_c	12.827885
_cell_angle_alpha	90.019082
_cell_angle_beta	89.989521
_cell_angle_gamma	89.988781
loop_
_atom_site_label
_atom_site_type_symbol
_atom_site_fract_x
_atom_site_fract_y
_atom_site_fract_z
Zn1	Zn	0.313986	1.597701	0.590984
Zn2	Zn	0.445911	1.597608	0.416303
Zn3	Zn	0.314025	1.422943	0.416258
Zn4	Zn	0.445853	1.422941	0.591003
O5	O	0.379944	1.510298	0.503637
O6	O	0.331495	1.743925	0.567822
O7	O	0.428457	1.574400	0.270061
O8	O	0.203639	1.446164	0.439408
O9	O	0.428419	1.743857	0.439485
O10	O	0.203610	1.574558	0.567779
O11	O	0.331561	1.446074	0.270028
O12	O	0.331504	1.276706	0.439428
O13	O	0.428320	1.446161	0.737237
O14	O	0.428357	1.276705	0.567812
O15	O	0.331438	1.574557	0.737222
O16	O	0.556284	1.574399	0.439504
O17	O	0.556242	1.446072	0.567856
C18	C	0.379929	1.238788	0.503618
C19	C	0.379942	1.122635	0.503635
C20	C	0.427955	0.950833	0.567081
C21	C	0.427943	1.070884	0.567065
C22	C	0.584884	1.510238	0.503684
C23	C	0.674206	1.510245	0.503681
C24	C	0.174204	1.510364	0.503584
C25	C	0.084882	1.510397	0.503561
Zn26	Zn	0.945112	1.422972	0.416228
Zn27	Zn	0.945051	1.597748	0.590938
Zn28	Zn	0.813245	1.422977	0.590986
Zn29	Zn	0.813166	1.597627	0.416269
O30	O	0.879144	1.510331	0.503605
O31	O	1.055485	1.446205	0.439367
O32	O	0.927575	1.574616	0.737180
O33	O	0.830796	1.276740	0.567807
O34	O	1.055441	1.574612	0.567725
O35	O	0.927678	1.276737	0.439414
O36	O	0.830737	1.446212	0.737215
O37	O	0.702853	1.446096	0.567846
O38	O	0.830661	1.574407	0.270027
O39	O	0.702795	1.574411	0.439482
O40	O	0.927601	1.446089	0.269998
O41	O	0.927498	1.743968	0.567764
O42	O	0.830603	1.743879	0.439436
C43	C	0.379868	1.510369	0.776207
C44	C	0.379836	1.510400	0.892360
C45	C	0.379959	1.782868	0.503657
C46	C	0.379965	1.899021	0.503665
C47	C	0.379962	1.510288	0.232127
C48	C	0.379772	1.510460	0.115974
C49	C	0.331886	1.573941	0.944138
C50	C	0.331852	1.573974	1.064188
C51	C	0.879037	1.781841	0.503602
C52	C	0.879015	1.897994	0.503631
C53	C	0.879129	1.510234	0.231035
C54	C	0.879123	1.510193	0.114882
C55	C	0.879252	1.237761	0.503611
C56	C	0.879299	1.121608	0.503614
C57	C	0.879203	1.510353	0.775115
C58	C	0.879360	1.510103	0.891268
C59	C	0.926986	1.949788	0.567086
C60	C	0.926964	2.069838	0.567117
C61	C	0.927084	1.446685	0.063082
C62	C	0.927079	1.446641	-0.056968
H63	H	0.338874	0.943540	0.449357
H64	H	0.968075	1.905254	0.621385
H65	H	0.968030	2.114380	0.621449
H66	H	0.837898	2.077073	0.449363
H67	H	0.338851	1.078085	0.449343
C68	C	0.277010	1.646339	1.123604
C69	C	0.226462	1.587143	1.186229
C70	C	0.175922	1.653771	1.240968
H71	H	0.307109	1.691857	1.166280
H72	H	0.246904	1.686161	1.075573
H73	H	0.256566	1.547338	1.234255
H74	H	0.196346	1.541628	1.143579
H75	H	0.145815	1.693593	1.192936
H76	H	0.206027	1.699286	1.283638
H77	H	0.141615	1.613616	1.283458
C78	C	0.824356	1.957499	0.431157
C79	C	0.869006	2.020177	0.364205
C80	C	0.818680	2.075015	0.297436
H81	H	0.794244	1.909558	0.391242
H82	H	0.790049	2.000141	0.471203
H83	H	0.903299	1.977539	0.324164
H84	H	0.899117	2.068137	0.404092
H85	H	0.784373	2.117657	0.337481
H86	H	0.788570	2.027066	0.257528
H87	H	0.848967	2.117556	0.252008
H88	H	0.420829	1.456061	1.071453
C89	C	0.981875	1.374112	0.122258
C90	C	1.026108	1.315496	0.051204
C91	C	1.076584	1.248620	0.105674
H92	H	1.016269	1.414040	0.164830
H93	H	0.951709	1.328563	0.164824
H94	H	1.056271	1.361039	0.008655
H95	H	0.991735	1.275546	0.008629
H96	H	1.046418	1.203070	0.148241
H97	H	1.110973	1.288556	0.148245
H98	H	1.106597	1.208834	0.057473
H99	H	0.968143	1.392273	-0.101514
H100	H	0.838052	1.564489	-0.064193
H101	H	0.420856	1.456017	0.936908
C102	C	0.824277	1.582692	0.055706
C103	C	0.780017	1.641273	0.126760
C104	C	0.729476	1.708062	0.072290
H105	H	0.854372	1.628275	0.013110
H106	H	0.789908	1.542670	0.013164
H107	H	0.814382	1.681292	0.169285
H108	H	0.749907	1.595718	0.169359
H109	H	0.695107	1.668040	0.029747
H110	H	0.759577	1.753638	0.029695
H111	H	0.699435	1.747811	0.120491
C112	C	0.482619	0.891423	0.639625
C113	C	0.437974	0.828816	0.706649
C114	C	0.488302	0.774084	0.773502
H115	H	0.516942	0.848737	0.599677
H116	H	0.512713	0.939460	0.679475
H117	H	0.407893	0.780785	0.666803
H118	H	0.403652	0.871477	0.746620
H119	H	0.518396	0.822121	0.813352
H120	H	0.522623	0.731404	0.733545
H121	H	0.458018	0.731607	0.818991
C122	C	0.482601	1.130419	0.639526
C123	C	0.437949	1.193133	0.706505
C124	C	0.488275	1.248004	0.773263
H125	H	0.512736	1.082497	0.679423
H126	H	0.516888	1.173038	0.599474
H127	H	0.403676	1.150517	0.746553
H128	H	0.407816	1.241074	0.666637
H129	H	0.522561	1.290623	0.733211
H130	H	0.518407	1.200074	0.813152
H131	H	0.457986	1.290569	0.818709
H132	H	0.290858	1.628312	0.899590
