data_functionalizedCrystal
_audit_creation_method	'MofGen! by Chris Wilmer'
_symmetry_space_group_name_H-M	'P1'
_symmetry_Int_Tables_number	1
_symmetry_cell_setting	triclinic
loop_
_symmetry_equiv_pos_as_xyz
  x,y,z
_cell_length_a	10.685594
_cell_length_b	10.685972
_cell_length_c	10.686551
_cell_angle_alpha	98.409768
_cell_angle_beta	90.301037
_cell_angle_gamma	80.938386
loop_
_atom_site_label
_atom_site_type_symbol
_atom_site_fract_x
_atom_site_fract_y
_atom_site_fract_z
Zn1	Zn	-0.282887	-1.975664	-0.886898
Zn2	Zn	0.217113	-1.475664	-0.386898
Zn3	Zn	-0.511478	-1.942976	-0.690914
Zn4	Zn	-0.011478	-1.442976	-0.190914
Zn5	Zn	-0.318000	-1.744592	-0.660858
Zn6	Zn	0.182000	-1.244592	-0.160858
Zn7	Zn	-0.511349	-1.747109	-0.886810
Zn8	Zn	-0.011349	-1.247109	-0.386810
O9	O	-0.405929	-1.852585	-0.781370
O10	O	0.094071	-1.352585	-0.281370
O11	O	-0.298570	-2.150003	-0.873515
O12	O	0.201430	-1.650003	-0.373515
O13	O	-0.500561	-1.901927	-0.510345
O14	O	-0.000561	-1.401927	-0.010345
O15	O	-0.136758	-1.787871	-0.678300
O16	O	0.363242	-1.287871	-0.178300
O17	O	-0.466514	-2.125988	-0.729527
O18	O	0.033486	-1.625988	-0.229527
O19	O	-0.110961	-1.957638	-0.844371
O20	O	0.389039	-1.457638	-0.344371
O21	O	-0.358414	-1.756175	-0.488263
O22	O	0.141586	-1.256175	0.011737
O23	O	-0.358289	-1.566250	-0.678215
O24	O	0.141711	-1.066250	-0.178215
O25	O	-0.466295	-1.792160	-1.063404
O26	O	0.033705	-1.292160	-0.563404
O27	O	-0.500342	-1.568099	-0.844222
O28	O	-0.000342	-1.068099	-0.344222
O29	O	-0.298445	-1.960078	-1.063468
O30	O	0.201555	-1.460078	-0.563468
O31	O	-0.688045	-1.904368	-0.729442
O32	O	-0.188045	-1.404368	-0.229442
O33	O	-0.687950	-1.760464	-0.873366
O34	O	-0.187950	-1.260464	-0.373366
C35	C	-0.433112	-1.520846	-0.757948
C36	C	0.066888	-1.020846	-0.257948
C37	C	-0.444769	-1.378927	-0.747961
C38	C	0.055231	-0.878927	-0.247961
C39	C	-0.733778	-1.829179	-0.804686
C40	C	-0.233778	-1.329179	-0.304686
C41	C	-0.874021	-1.819286	-0.814711
C42	C	-0.374021	-1.319286	-0.314711
C43	C	-0.076793	-1.876120	-0.757993
C44	C	0.423207	-1.376120	-0.257993
C45	C	0.063464	-1.886149	-0.748031
C46	C	0.563464	-1.386149	-0.248031
C47	C	-0.378439	-1.880046	-1.110502
C48	C	0.121561	-1.380046	-0.610502
C49	C	-0.366724	-1.891749	-1.250759
C50	C	0.133276	-1.391749	-0.750759
C51	C	-0.378632	-1.185620	-0.804877
C52	C	0.121368	-0.685620	-0.304877
C53	C	-0.366979	-1.327539	-0.814878
C54	C	0.133021	-0.827539	-0.314878
C55	C	-0.433215	-1.825311	-0.453517
C56	C	0.066785	-1.325311	0.046483
C57	C	-0.444553	-1.813881	-0.313253
C58	C	0.055447	-1.313881	0.186747
H59	H	-0.291454	-1.392117	-0.879807
H60	H	0.208546	-0.892117	-0.379807
C61	C	-0.264596	-1.993916	-1.323425
C62	C	0.235404	-1.493916	-0.823425
H63	H	-0.217347	-2.041202	-1.265412
H64	H	0.282653	-1.541202	-0.765412
H65	H	-0.209371	-1.953251	-1.367492
H66	H	0.290629	-1.453251	-0.867492
H67	H	-0.304073	-2.050343	-1.382190
H68	H	0.195927	-1.550343	-0.882190
C69	C	-0.863908	-1.973717	-0.660545
C70	C	-0.363908	-1.473717	-0.160545
H71	H	-0.921931	-2.014343	-0.620064
H72	H	-0.421931	-1.514343	-0.120064
H73	H	-0.821152	-1.923914	-0.598452
H74	H	-0.321152	-1.423914	-0.098452
H75	H	-0.803843	-2.036938	-0.709158
H76	H	-0.303843	-1.536938	-0.209158
C77	C	-0.546802	-1.291690	-0.660238
C78	C	-0.046802	-0.791690	-0.160238
H79	H	-0.541528	-1.204548	-0.664809
H80	H	-0.041528	-0.704548	-0.164809
H81	H	-0.533522	-1.307718	-0.575676
H82	H	-0.033522	-0.807718	-0.075676
H83	H	-0.628314	-1.308973	-0.686131
H84	H	-0.128314	-0.808973	-0.186131
C85	C	-0.946649	-1.731727	-0.902194
C86	C	-0.446649	-1.231727	-0.402194
H87	H	-1.034542	-1.736333	-0.897675
H88	H	-0.534542	-1.236333	-0.397675
H89	H	-0.916455	-1.758920	-0.986782
H90	H	-0.416455	-1.258920	-0.486782
H91	H	-0.933777	-1.645896	-0.876076
H92	H	-0.433777	-1.145896	-0.376076
H93	H	-0.520152	-1.738266	-1.259458
H94	H	-0.020152	-1.238266	-0.759458
