data_functionalizedCrystal
_audit_creation_method	'MofGen! by Chris Wilmer'
_symmetry_space_group_name_H-M	'P1'
_symmetry_Int_Tables_number	1
_symmetry_cell_setting	triclinic
loop_
_symmetry_equiv_pos_as_xyz
  x,y,z
_cell_length_a	13.596369
_cell_length_b	11.792241
_cell_length_c	11.792241
_cell_angle_alpha	84.193416
_cell_angle_beta	89.993871
_cell_angle_gamma	89.998888
loop_
_atom_site_label
_atom_site_type_symbol
_atom_site_fract_x
_atom_site_fract_y
_atom_site_fract_z
O1	O	0.081696	-1.506910	-0.155570
O2	O	0.331696	-1.256910	0.094430
O3	O	0.581696	-1.006910	0.344430
O4	O	0.831696	-0.756910	0.594430
O5	O	0.081719	-1.176569	-0.171603
O6	O	0.331719	-0.926569	0.078397
O7	O	0.581719	-0.676569	0.328397
O8	O	0.831719	-0.426569	0.578397
O9	O	0.081700	-1.349756	0.001584
O10	O	0.331700	-1.099756	0.251584
O11	O	0.581700	-0.849756	0.501584
O12	O	0.831700	-0.599756	0.751584
O13	O	0.081715	-1.333723	-0.328757
O14	O	0.331715	-1.083723	-0.078757
O15	O	0.581715	-0.833723	0.171243
O16	O	0.831715	-0.583723	0.421243
O17	O	-0.081883	-1.349738	0.001594
O18	O	0.168117	-1.099738	0.251594
O19	O	0.418117	-0.849738	0.501594
O20	O	0.668117	-0.599738	0.751594
O21	O	-0.081864	-1.176551	-0.171593
O22	O	0.168136	-0.926551	0.078407
O23	O	0.418136	-0.676551	0.328407
O24	O	0.668136	-0.426551	0.578407
O25	O	-0.081887	-1.506892	-0.155560
O26	O	0.168113	-1.256892	0.094440
O27	O	0.418113	-1.006892	0.344440
O28	O	0.668113	-0.756892	0.594440
Zn29	Zn	-0.107847	-1.341719	-0.163575
Zn30	Zn	0.142153	-1.091719	0.086425
Zn31	Zn	0.392153	-0.841719	0.336425
Zn32	Zn	0.642153	-0.591719	0.586425
Zn33	Zn	0.107680	-1.341742	-0.163588
Zn34	Zn	0.357680	-1.091742	0.086412
Zn35	Zn	0.607680	-0.841742	0.336412
Zn36	Zn	0.857680	-0.591742	0.586412
O37	O	-0.081868	-1.333706	-0.328747
O38	O	0.168132	-1.083706	-0.078747
O39	O	0.418132	-0.833706	0.171253
O40	O	0.668132	-0.583706	0.421253
C41	C	-0.000069	-1.134269	-0.170591
C42	C	0.249931	-0.884269	0.079409
C43	C	0.499931	-0.634269	0.329409
C44	C	0.749931	-0.384269	0.579409
C45	C	-0.000061	-1.008255	-0.167576
C46	C	0.249939	-0.758255	0.082424
C47	C	0.499939	-0.508255	0.332424
C48	C	0.749939	-0.258255	0.582424
C49	C	-0.000091	-1.348740	0.043880
C50	C	0.249909	-1.098740	0.293880
C51	C	0.499909	-0.848740	0.543880
C52	C	0.749909	-0.598740	0.793880
C53	C	-0.000090	-1.345726	0.169894
C54	C	0.249910	-1.095726	0.419894
C55	C	0.499910	-0.845726	0.669894
C56	C	0.749910	-0.595726	0.919894
N57	N	-0.254939	-1.341712	-0.163566
N58	N	-0.004939	-1.091712	0.086434
N59	N	0.245061	-0.841712	0.336434
N60	N	0.495061	-0.591712	0.586434
C61	C	-0.656230	-1.341741	-0.163589
C62	C	-0.406230	-1.091741	0.086411
C63	C	-0.156230	-0.841741	0.336411
C64	C	0.093770	-0.591741	0.586411
C65	C	-0.544579	-1.341729	-0.163586
C66	C	-0.294579	-1.091729	0.086414
C67	C	-0.044579	-0.841729	0.336414
C68	C	0.205421	-0.591729	0.586414
C69	C	-0.455588	-1.341727	-0.163578
C70	C	-0.205588	-1.091727	0.086422
C71	C	0.044412	-0.841727	0.336422
C72	C	0.294412	-0.591727	0.586422
C73	C	-0.343930	-1.341714	-0.163574
C74	C	-0.093930	-1.091714	0.086426
C75	C	0.156070	-0.841714	0.336426
C76	C	0.406070	-0.591714	0.586426
N77	N	0.254772	-1.341758	-0.163588
N78	N	0.504772	-1.091758	0.086412
N79	N	0.754772	-0.841758	0.336412
N80	N	1.004772	-0.591758	0.586412
C81	C	-0.000096	-1.549192	-0.156572
C82	C	0.249904	-1.299192	0.093428
C83	C	0.499904	-1.049192	0.343428
C84	C	0.749904	-0.799192	0.593428
C85	C	-0.000098	-1.675206	-0.159587
C86	C	0.249902	-1.425206	0.090413
C87	C	0.499902	-1.175206	0.340413
C88	C	0.749902	-0.925206	0.590413
C89	C	-0.000089	-0.777543	-0.162034
C90	C	0.249911	-0.527543	0.087966
C91	C	0.499911	-0.277543	0.337966
C92	C	0.749911	-0.027543	0.587966
C93	C	-0.000074	-0.905928	-0.165113
C94	C	0.249926	-0.655928	0.084887
C95	C	0.499926	-0.405928	0.334887
C96	C	0.749926	-0.155928	0.584887
C97	C	-0.000074	-1.334721	-0.371043
C98	C	0.249926	-1.084721	-0.121043
C99	C	0.499926	-0.834721	0.128957
C100	C	0.749926	-0.584721	0.378957
C101	C	-0.000069	-1.337736	-0.497057
C102	C	0.249931	-1.087736	-0.247057
C103	C	0.499931	-0.837736	0.002943
C104	C	0.749931	-0.587736	0.252943
C105	C	-0.000073	-1.340183	0.400606
C106	C	0.249927	-1.090183	0.650606
C107	C	0.499927	-0.840183	0.900606
C108	C	0.749927	-0.590183	1.150606
C109	C	-0.000082	-1.343262	0.272221
C110	C	0.249918	-1.093262	0.522221
C111	C	0.499918	-0.843262	0.772221
C112	C	0.749918	-0.593262	1.022221
