data_functionalizedCrystal
_audit_creation_method	'MofGen! by Chris Wilmer'
_symmetry_space_group_name_H-M	'P1'
_symmetry_Int_Tables_number	1
_symmetry_cell_setting	triclinic
loop_
_symmetry_equiv_pos_as_xyz
  x,y,z
_cell_length_a	16.098713
_cell_length_b	15.944551
_cell_length_c	15.944545
_cell_angle_alpha	83.497456
_cell_angle_beta	93.053041
_cell_angle_gamma	93.051727
loop_
_atom_site_label
_atom_site_type_symbol
_atom_site_fract_x
_atom_site_fract_y
_atom_site_fract_z
O1	O	0.069172	-1.111183	-0.104982
O2	O	0.569172	-0.611183	0.395018
O3	O	0.069193	-0.866632	-0.118338
O4	O	0.569193	-0.366632	0.381662
O5	O	0.069172	-0.995589	0.010615
O6	O	0.569172	-0.495589	0.510615
O7	O	0.069193	-0.982226	-0.233935
O8	O	0.569193	-0.482226	0.266065
O9	O	-0.069337	-1.002263	0.003911
O10	O	0.430663	-0.502263	0.503911
O11	O	-0.069316	-0.873306	-0.125042
O12	O	0.430684	-0.373306	0.374958
O13	O	-0.069338	-1.117857	-0.111686
O14	O	0.430662	-0.617857	0.388314
Zn15	Zn	-0.091318	-0.996642	-0.119428
Zn16	Zn	0.408682	-0.496642	0.380572
Zn17	Zn	0.091174	-0.987848	-0.110596
Zn18	Zn	0.591174	-0.487848	0.389404
O19	O	-0.069316	-0.988901	-0.240639
O20	O	0.430684	-0.488901	0.259361
C21	C	-0.000059	-0.838675	-0.121135
C22	C	0.499941	-0.338675	0.378865
C23	C	-0.000051	-0.745429	-0.119472
C24	C	0.499949	-0.245429	0.380528
N25	N	-0.215864	-1.002649	-0.125456
N26	N	0.284136	-0.502649	0.374544
N27	N	0.215719	-0.981847	-0.104561
N28	N	0.715719	-0.481847	0.395439
C29	C	0.259331	-1.030571	-0.153524
C30	C	0.759331	-0.530571	0.346476
C31	C	0.346518	-1.026352	-0.149289
C32	C	0.846518	-0.526352	0.350711
C33	C	0.390091	-0.973411	-0.096086
C34	C	0.890091	-0.473411	0.403914
C35	C	0.346473	-0.924681	-0.047121
C36	C	0.846473	-0.424681	0.452879
C37	C	0.259288	-0.928897	-0.051362
C38	C	0.759288	-0.428897	0.448638
C39	C	0.653333	-0.958135	-0.080732
C40	C	1.153333	-0.458135	0.419268
C41	C	0.740524	-0.953925	-0.076493
C42	C	1.240524	-0.453925	0.423507
C43	C	0.740563	-1.055595	-0.178662
C44	C	1.240563	-0.555595	0.321338
C45	C	0.653376	-1.059810	-0.182894
C46	C	1.153376	-0.559810	0.317106
C47	C	0.609766	-1.011076	-0.133933
C48	C	1.109766	-0.511076	0.366067
C49	C	0.479210	-0.969099	-0.091754
C50	C	0.979210	-0.469099	0.408246
C51	C	0.520648	-1.015385	-0.138270
C52	C	1.020648	-0.515385	0.361730
C53	C	-0.000084	-0.998372	0.038557
C54	C	0.499916	-0.498372	0.538557
C55	C	-0.000086	-0.996712	0.131803
C56	C	0.499914	-0.496712	0.631803
C57	C	-0.000084	-1.145814	-0.108889
C58	C	0.499916	-0.645814	0.391111
C59	C	-0.000086	-1.239060	-0.110551
C60	C	0.499914	-0.739060	0.389449
C61	C	-0.000075	-0.530575	-0.035569
C62	C	0.499925	-0.030575	0.464431
C63	C	0.068221	-0.466263	-0.071226
C64	C	0.568221	0.033737	0.428774
C65	C	-0.000062	-0.574703	-0.116466
C66	C	0.499938	-0.074703	0.383534
C67	C	-0.068338	-0.472866	-0.077855
C68	C	0.431662	0.027134	0.422145
C69	C	-0.000075	-0.409791	-0.113555
C70	C	0.499925	0.090209	0.386445
C71	C	0.068291	-0.511617	-0.152142
C72	C	0.568291	-0.011617	0.347858
C73	C	-0.068330	-0.518229	-0.158762
C74	C	0.431670	-0.018229	0.341238
C75	C	-0.000018	-0.453934	-0.194477
C76	C	0.499982	0.046066	0.305523
C77	C	-0.000053	-0.669705	-0.118140
C78	C	0.499947	-0.169705	0.381860
C79	C	-0.000077	-0.314790	-0.111887
C80	C	0.499923	0.185210	0.388113
C81	C	-0.000059	-0.986117	-0.268581
C82	C	0.499941	-0.486117	0.231419
C83	C	-0.000052	-0.987777	-0.361827
C84	C	0.499948	-0.487777	0.138173
C85	C	-0.000062	-0.911817	0.402437
C86	C	0.499938	-0.411817	0.902437
C87	C	0.068228	-0.949456	0.355157
C88	C	0.568228	-0.449456	0.855157
C89	C	-0.000062	-0.990790	0.467448
C90	C	0.499938	-0.490790	0.967448
C91	C	-0.068332	-0.956057	0.348574
C92	C	0.431668	-0.456057	0.848574
C93	C	-0.000075	-0.993696	0.302534
C94	C	0.499925	-0.493696	0.802534
C95	C	0.068284	-1.028405	0.421399
C96	C	0.568284	-0.528405	0.921399
C97	C	-0.068337	-1.034998	0.414817
C98	C	0.431663	-0.534998	0.914817
C99	C	-0.000031	-1.072693	0.367570
C100	C	0.499969	-0.572693	0.867570
C101	C	-0.000053	-0.989114	0.562450
C102	C	0.499947	-0.489114	1.062450
C103	C	-0.000077	-0.995378	0.207534
C104	C	0.499923	-0.495378	0.707534
H105	H	0.223860	-1.073685	-0.196844
H106	H	0.723860	-0.573685	0.303156
H107	H	-0.126078	-1.071103	0.440971
H108	H	0.373922	-0.571103	0.940971
C109	C	-0.146327	-0.914742	0.305741
C110	C	0.353673	-0.414742	0.805741
N111	N	-0.205070	-0.883618	0.273482
N112	N	0.294930	-0.383618	0.773482
H113	H	0.617905	-1.102921	-0.226216
H114	H	1.117905	-0.602921	0.273784
C115	C	0.394487	-1.079958	-0.203147
C116	C	0.894487	-0.579958	0.296853
N117	N	0.430617	-1.120339	-0.243714
N118	N	0.930617	-0.620339	0.256286
C119	C	0.000008	-0.575573	0.055148
C120	C	0.500008	-0.075573	0.555148
N121	N	0.000075	-0.609466	0.123475
N122	N	0.500075	-0.109466	0.623475
C123	C	0.000043	-0.409125	-0.285265
C124	C	0.500043	0.090875	0.214735
N125	N	0.000093	-0.375372	-0.353645
N126	N	0.500093	0.124628	0.146355
C127	C	0.146230	-0.900640	0.319840
C128	C	0.646230	-0.400640	0.819840
N129	N	0.204979	-0.863866	0.293241
N130	N	0.704979	-0.363866	0.793241
C131	C	0.146369	-1.069661	0.464090
C132	C	0.646369	-0.569661	0.964090
N133	N	0.205184	-1.100731	0.496247
N134	N	0.705184	-0.600731	0.996247
C135	C	0.527149	-0.911034	-0.033064
C136	C	1.027149	-0.411034	0.466936
N137	N	0.563259	-0.867358	0.011200
N138	N	1.063259	-0.367358	0.511200
H139	H	0.776080	-1.095269	-0.218525
H140	H	1.276080	-0.595269	0.281475
C141	C	0.788453	-0.895680	-0.017967
C142	C	1.288453	-0.395680	0.482033
N143	N	0.824553	-0.851812	0.026113
N144	N	1.324553	-0.351812	0.526113
H145	H	0.617836	-0.918455	-0.040861
H146	H	1.117836	-0.418455	0.459139
C147	C	-0.146330	-0.549192	-0.208720
C148	C	0.353670	-0.049192	0.291280
N149	N	-0.205086	-0.572517	-0.246342
N150	N	0.294914	-0.072517	0.253658
C151	C	0.394407	-0.866565	0.011521
C152	C	0.894407	-0.366565	0.511521
N153	N	0.430509	-0.822837	0.055738
N154	N	0.930509	-0.322837	0.555738
H155	H	0.223780	-0.889218	-0.011493
H156	H	0.723780	-0.389218	0.488507
H157	H	0.485168	-1.058485	-0.181592
H158	H	0.985168	-0.558485	0.318408
C159	C	0.146213	-0.435331	-0.021225
C160	C	0.646213	0.064669	0.478775
N161	N	0.204952	-0.412035	0.016441
N162	N	0.704952	0.087965	0.516441
H163	H	-0.126075	-0.455563	-0.046418
H164	H	0.373925	0.044437	0.453582
H165	H	0.126092	-0.528818	-0.183535
H166	H	0.626092	-0.028818	0.316465
C167	C	0.000011	-1.164644	0.346643
C168	C	0.500011	-0.664644	0.846643
N169	N	0.000045	-1.233900	0.330880
N170	N	0.500045	-0.733900	0.830880
H171	H	0.000011	-0.843801	0.418093
H172	H	0.500011	-0.343801	0.918093
