data_functionalizedCrystal
_audit_creation_method	'MofGen! by Chris Wilmer'
_symmetry_space_group_name_H-M	'P1'
_symmetry_Int_Tables_number	1
_symmetry_cell_setting	triclinic
loop_
_symmetry_equiv_pos_as_xyz
  x,y,z
_cell_length_a	10.654541
_cell_length_b	14.519709
_cell_length_c	9.130307
_cell_angle_alpha	89.995756
_cell_angle_beta	89.999822
_cell_angle_gamma	84.082037
loop_
_atom_site_label
_atom_site_type_symbol
_atom_site_fract_x
_atom_site_fract_y
_atom_site_fract_z
O1	O	1.666593	0.129520	-0.121758
O2	O	1.300996	0.141863	-0.121771
O3	O	1.493488	0.001504	-0.121751
O4	O	1.474101	0.269880	-0.121778
O5	O	1.493481	0.001502	0.121848
O6	O	1.300989	0.141862	0.121828
O7	O	1.666587	0.129519	0.121841
Cu8	Cu	1.483788	0.135690	0.144077
Cu9	Cu	1.483795	0.135692	-0.144007
O10	O	1.474095	0.269879	0.121821
C11	C	1.254203	0.140957	0.000027
C12	C	1.114786	0.138247	0.000022
C13	C	1.085201	0.306085	-0.000013
C14	C	1.004912	0.388727	-0.000036
C15	C	0.873919	0.386175	-0.000038
C16	C	0.823213	0.300972	-0.000011
C17	C	0.903502	0.218330	0.000012
C18	C	1.034496	0.220891	0.000009
C19	C	0.933086	0.050493	0.000058
C20	C	1.064080	0.053043	0.000049
C21	C	0.882380	-0.034710	0.000085
C22	C	0.962669	-0.117354	0.000098
C23	C	1.093670	-0.114798	0.000097
C24	C	1.144369	-0.029599	0.000072
C25	C	1.492581	-0.032862	0.000049
C26	C	1.489874	-0.135257	0.000049
C27	C	1.479906	-0.510204	0.000011
C28	C	1.482674	-0.405882	0.000022
C29	C	1.484890	-0.322734	0.000032
C30	C	1.487658	-0.218405	0.000040
C31	C	1.713380	0.130425	0.000040
C32	C	1.852797	0.133135	0.000035
C33	C	1.475002	0.304244	0.000018
C34	C	1.477709	0.406639	0.000008
N35	N	1.483792	0.135689	0.346700
N36	N	1.483801	0.135686	-0.346630
C37	C	1.654313	0.011436	0.346708
C38	C	1.739582	-0.050687	0.423378
C39	C	1.739594	-0.050688	0.576712
C40	C	1.654326	0.011440	0.653378
C41	C	1.569057	0.073564	0.576707
C42	C	1.569056	0.073559	0.423370
C43	C	1.398532	0.197810	0.576700
C44	C	1.398524	0.197816	0.423366
C45	C	1.313264	0.259937	0.653366
C46	C	1.227999	0.322067	0.576695
C47	C	1.227991	0.322066	0.423352
C48	C	1.313255	0.259940	0.346695
H49	H	1.191861	0.308172	-0.000044
H50	H	1.158574	0.372643	0.639126
N51	N	1.140872	0.385525	0.345063
N52	N	1.064751	0.440982	0.413538
H53	H	1.003220	0.485802	0.358253
H54	H	0.716550	0.298901	0.000006
N55	N	1.313281	0.259920	0.809991
N56	N	1.389418	0.204450	0.878433
H57	H	1.389430	0.204439	0.989052
N58	N	1.056728	0.475749	-0.000052
N59	N	1.173687	0.478021	-0.000050
H60	H	1.210281	0.539480	-0.000057
H61	H	1.159035	-0.182096	0.000122
N62	N	0.791917	0.470598	-0.000044
N63	N	0.837197	0.546664	-0.000056
H64	H	0.779284	0.606289	-0.000059
N65	N	1.654308	0.011443	0.810003
N66	N	1.578170	0.066910	0.878437
H67	H	1.578148	0.066910	0.989056
H68	H	0.775717	-0.036782	0.000092
N69	N	0.910854	-0.204370	0.000143
N70	N	0.793894	-0.206636	0.000162
H71	H	0.757294	-0.268092	0.000194
N72	N	1.278173	-0.026987	0.000106
N73	N	1.343236	-0.063300	0.102811
H74	H	1.437738	-0.061452	0.102842
H75	H	1.654322	0.011438	0.221855
H76	H	1.809004	-0.101273	0.360943
N77	N	1.826690	-0.114157	0.655014
N78	N	1.902807	-0.169626	0.586556
H79	H	1.964319	-0.214453	0.641855
N80	N	1.313233	0.259965	0.190070
N81	N	1.334136	0.331368	0.121630
H82	H	1.334119	0.331388	0.011011
