data_functionalizedCrystal
_audit_creation_method	'MofGen! by Chris Wilmer'
_symmetry_space_group_name_H-M	'P1'
_symmetry_Int_Tables_number	1
_symmetry_cell_setting	triclinic
loop_
_symmetry_equiv_pos_as_xyz
  x,y,z
_cell_length_a	23.096457
_cell_length_b	23.196402
_cell_length_c	23.196401
_cell_angle_alpha	120.001336
_cell_angle_beta	89.995289
_cell_angle_gamma	60.000277
loop_
_atom_site_label
_atom_site_type_symbol
_atom_site_fract_x
_atom_site_fract_y
_atom_site_fract_z
Zr1	Zr	0.557766	0.631022	0.075655
O2	O	0.465301	0.751305	0.167706
O3	O	0.586109	0.510752	0.047440
O4	O	0.586087	0.631041	0.167716
O5	O	0.465344	0.630996	-0.047450
O6	O	0.681367	0.631043	0.167719
O7	O	0.465323	0.631015	0.047430
O8	O	0.681407	0.415867	-0.047433
O9	O	0.465304	0.846172	0.167702
O10	O	0.669307	0.560218	0.035404
O11	O	0.598215	0.560202	-0.035406
O12	O	0.598189	0.701828	0.106204
O13	O	0.527097	0.701812	0.035393
Zr14	Zr	0.709759	0.630994	-0.075663
Zr15	Zr	0.709727	0.631025	0.075660
Zr16	Zr	0.557798	0.630992	-0.075668
Zr17	Zr	0.557770	0.782325	0.075648
Zr18	Zr	0.709755	0.479692	-0.075656
O19	O	0.681416	0.751265	-0.047448
O20	O	0.681371	0.751308	0.167714
O21	O	0.465347	0.751261	-0.047455
O22	O	0.802224	0.510712	-0.167714
O23	O	0.802178	0.510756	0.047447
O24	O	0.586155	0.510709	-0.167722
O25	O	0.802182	0.631021	0.047442
O26	O	0.681438	0.630975	-0.167724
O27	O	0.586158	0.630974	-0.167727
O28	O	0.802202	0.631002	-0.047438
O29	O	0.586093	0.846174	0.167707
O30	O	0.681432	0.415843	-0.167715
O31	O	0.802221	0.415845	-0.167710
O32	O	0.802196	0.415869	-0.047429
O33	O	0.465329	0.846148	0.047421
O34	O	0.586118	0.846150	0.047425
O35	O	0.669337	0.560189	-0.106212
O36	O	0.740428	0.560205	-0.035401
O37	O	0.669310	0.701815	0.035398
O38	O	0.598219	0.701799	-0.035412
C39	C	0.633757	0.441752	0.000004
C40	C	0.633756	0.377520	0.000007
C41	C	0.670860	0.347358	0.036972
C42	C	0.670867	0.286997	0.036966
C43	C	0.633756	0.256812	0.000005
C44	C	0.596650	0.286978	-0.036968
C45	C	0.596650	0.347333	-0.036967
C46	C	0.571583	0.194783	0.005278
C47	C	0.571580	0.134433	0.005282
C48	C	0.633756	0.070657	-0.000002
C49	C	0.695934	0.067246	-0.005276
C50	C	0.695934	0.127600	-0.005275
C51	C	0.633752	0.191368	-0.000001
C52	C	0.670871	-0.024956	0.036958
C53	C	0.670880	-0.085322	0.036948
C54	C	0.596656	-0.085333	-0.036982
C55	C	0.596654	-0.024975	-0.036976
C56	C	0.633760	0.005213	-0.000002
C57	C	0.443682	0.631005	-0.000011
C58	C	0.379171	0.631004	-0.000013
C59	C	0.385988	0.557087	-0.036963
C60	C	0.325372	0.557086	-0.036966
C61	C	0.257940	0.631006	-0.000006
C62	C	0.251126	0.704932	0.036946
C63	C	0.311741	0.704932	0.036942
N64	N	0.135133	0.686035	0.060149
N65	N	0.077554	0.686031	0.060151
C66	C	0.075307	0.631013	0.000007
N67	N	0.132822	0.575988	-0.060139
N68	N	0.190408	0.575989	-0.060139
C69	C	0.192209	0.631015	0.000002
C70	C	0.016401	0.557090	-0.036950
C71	C	-0.044217	0.557092	-0.036955
C72	C	-0.118464	0.704941	0.036964
C73	C	-0.057846	0.704936	0.036962
C74	C	0.009584	0.631009	0.000007
C75	C	0.823843	0.631012	0.000003
C76	C	0.888354	0.631013	0.000005
C77	C	0.633723	0.631047	0.189278
C78	C	0.633709	0.631059	0.253519
C79	C	0.633768	0.820265	-0.000012
C80	C	0.633770	0.884497	-0.000015
C81	C	0.686200	0.631063	0.283684
C82	C	0.686215	0.631048	0.344032
C83	C	0.633726	0.631047	0.374219
C84	C	0.581230	0.631039	0.344044
C85	C	0.581221	0.631045	0.283694
C86	C	0.569666	0.678544	0.493599
C87	C	0.569674	0.678542	0.553950
C88	C	0.633753	0.631023	0.560359
C89	C	0.697827	0.583516	0.506413
C90	C	0.697818	0.583522	0.446062
C91	C	0.633730	0.631039	0.439659
C92	C	0.686264	0.631009	0.655959
C93	C	0.686278	0.630990	0.716305
C94	C	0.581288	0.630989	0.716321
C95	C	0.581279	0.631000	0.655972
C96	C	0.633767	0.631014	0.625797
C97	C	0.633796	0.630978	0.810718
C98	C	0.633790	0.630987	0.746488
C99	C	0.823838	0.441755	0.000011
C100	C	0.888347	0.377525	0.000016
C101	C	0.633798	0.441714	-0.189278
C102	C	0.633809	0.377469	-0.253516
C103	C	0.823878	0.441717	-0.189271
C104	C	0.888401	0.377474	-0.253506
C105	C	0.443647	0.820300	0.189263
C106	C	0.379124	0.884543	0.253498
C107	C	0.443688	0.820261	-0.000019
C108	C	0.379178	0.884492	-0.000024
C109	C	0.633728	0.820303	0.189270
C110	C	0.633716	0.884548	0.253508
C111	C	0.881517	0.347368	0.036985
C112	C	0.942125	0.287025	0.037004
C113	C	1.009563	0.256835	0.000050
C114	C	1.016392	0.286998	-0.036920
C115	C	0.955784	0.347344	-0.036934
C116	C	0.670940	0.347292	-0.320648
C117	C	0.670948	0.286936	-0.381013
C118	C	0.633830	0.256754	-0.374242
C119	C	0.596695	0.286936	-0.307102
C120	C	0.596683	0.347296	-0.246740
C121	C	0.955818	0.347312	-0.246710
C122	C	1.016450	0.286957	-0.307060
C123	C	1.009664	0.256760	-0.374206
C124	C	0.942241	0.286927	-0.381002
C125	C	0.881610	0.347286	-0.320652
C126	C	0.311708	0.914712	0.246702
C127	C	0.251075	0.975086	0.307052
C128	C	0.257861	1.005286	0.374198
C129	C	0.325284	0.975115	0.380994
C130	C	0.385915	0.914746	0.320644
C131	C	0.386008	0.914655	-0.036986
C132	C	0.325400	0.975015	-0.036989
C133	C	0.257963	1.005207	-0.000032
C134	C	0.251134	0.975041	0.036934
C135	C	0.311741	0.914687	0.036940
C136	C	0.670841	0.914711	0.246715
C137	C	0.670844	0.975068	0.307067
C138	C	0.633717	1.005264	0.374212
C139	C	0.596590	0.975095	0.381004
C140	C	0.596592	0.914735	0.320652
H141	H	0.701099	-0.109884	0.067046
H142	H	0.566357	0.890183	0.326193
H143	H	0.633846	0.207605	-0.423399
C144	C	0.523492	0.631041	0.377250
H145	H	0.531011	0.631046	0.417518
H146	H	0.525670	0.583753	0.343715
H147	H	0.478172	0.678336	0.391014
C148	C	0.807344	0.380570	0.077642
H149	H	0.811966	0.353967	0.099665
H150	H	0.782157	0.370671	0.045743
H151	H	0.782153	0.437559	0.112616
H152	H	0.701076	0.999625	0.301524
C153	C	0.934604	0.253847	0.077664
H154	H	0.980355	0.213589	0.072390
H155	H	0.909425	0.230298	0.059403
H156	H	0.909401	0.297192	0.126289
C157	C	0.191301	1.071593	-0.000047
H158	H	0.205034	1.085224	-0.027360
H159	H	0.163867	1.118695	0.047038
H160	H	0.163883	1.051806	-0.019845
C161	C	0.523473	0.631054	0.250514
H162	H	0.530986	0.631058	0.210249
H163	H	0.478159	0.678342	0.284061
H164	H	0.525657	0.583758	0.236751
H165	H	0.196218	0.999633	0.067023
C166	C	0.304219	0.881504	0.077591
H167	H	0.255374	0.908126	0.099591
H168	H	0.326311	0.891393	0.112572
H169	H	0.326319	0.824518	0.045683
C170	C	0.523552	0.630987	0.749520
H171	H	0.531072	0.630988	0.789786
H172	H	0.525729	0.583700	0.715983
H173	H	0.478231	0.678284	0.763287
H174	H	0.566362	0.999690	0.435681
C175	C	0.711683	0.380555	0.077632
H176	H	0.706367	0.420824	0.072342
H177	H	0.760517	0.337225	0.059382
H178	H	0.693338	0.404113	0.126260
H179	H	0.208486	1.054442	0.423333
H180	H	1.058907	0.207697	0.000066
C181	C	0.711805	0.253739	-0.454857
H182	H	0.733918	0.280352	-0.450238
H183	H	0.679781	0.263629	-0.479948
H184	H	0.746936	0.196752	-0.479937
C185	C	0.555878	0.253721	-0.299664
H186	H	0.561216	0.213444	-0.345232
H187	H	0.507038	0.297038	-0.274589
H188	H	0.574214	0.230168	-0.274592
C189	C	1.090606	0.253776	-0.299572
H190	H	1.085958	0.280397	-0.250938
H191	H	1.115807	0.263667	-0.321571
H192	H	1.115798	0.196789	-0.321580
C193	C	0.555845	0.380480	-0.172896
H194	H	0.561146	0.420754	-0.137910
H195	H	0.574177	0.337145	-0.167612
H196	H	0.507009	0.404026	-0.167606
C197	C	0.963296	0.380520	-0.172857
H198	H	1.012134	0.353913	-0.177462
H199	H	0.941192	0.370632	-0.147771
H200	H	0.941187	0.437508	-0.147779
H201	H	-0.063400	0.765128	0.067056
H202	H	1.059040	0.207612	-0.423341
H203	H	0.701083	0.262434	0.067068
H204	H	0.196218	0.765118	0.067039
H205	H	0.701075	0.890134	0.192048
C206	C	0.764325	0.123842	-0.011086
H207	H	0.801359	0.077214	-0.014239
H208	H	0.756442	0.171609	0.029506
H209	H	0.777375	0.120365	-0.052126
C210	C	0.764334	-0.002908	-0.011098
H211	H	0.755434	-0.038372	-0.010355
H212	H	0.779417	0.018791	0.027544
H213	H	0.800346	-0.032435	-0.054088
C214	C	0.711690	0.008249	0.077620
H215	H	0.706368	0.048523	0.072335
H216	H	0.760526	-0.035077	0.059371
H217	H	0.693347	0.031802	0.126248
C218	C	0.555835	-0.118530	-0.077639
H219	H	0.561145	-0.158792	-0.072343
H220	H	0.574172	-0.142079	-0.126263
H221	H	0.506996	-0.075197	-0.059383
C222	C	0.555830	0.008215	-0.077628
H223	H	0.533723	-0.018400	-0.099638
H224	H	0.587871	-0.001678	-0.112602
H225	H	0.520696	0.065202	-0.045720
H226	H	0.633721	1.054413	0.423349
H227	H	0.520951	0.137220	0.009580
H228	H	0.440807	0.890183	0.326187
H229	H	0.520944	0.246719	0.009595
C230	C	0.460156	0.475771	-0.077619
H231	H	0.455531	0.431748	-0.099630
H232	H	0.485343	0.472703	-0.045719
H233	H	0.485347	0.472690	-0.112603
C234	C	1.090575	0.253777	-0.077573
H235	H	1.125686	0.213511	-0.072272
H236	H	1.095904	0.297095	-0.059333
H237	H	1.095904	0.230209	-0.126204
H238	H	0.961356	0.371890	-0.067043
H239	H	0.538533	0.631002	0.631412
H240	H	0.566434	0.262397	-0.067063
C241	C	0.332865	0.475775	-0.077609
H242	H	0.381705	0.431748	-0.099615
H243	H	0.310767	0.472691	-0.112584
H244	H	0.310756	0.472718	-0.045693
H245	H	0.330974	0.999566	-0.067094
C246	C	0.304246	0.786241	0.077477
H247	H	0.350003	0.775653	0.072144
H248	H	0.279042	0.816728	0.126120
H249	H	0.279076	0.816500	0.059129
H250	H	0.566433	0.371891	-0.067069
C251	C	0.934786	0.253698	-0.454864
H252	H	0.980555	0.213424	-0.489827
H253	H	0.909604	0.297010	-0.460177
H254	H	0.909610	0.230138	-0.460161
H255	H	0.826719	0.371835	-0.326196
C256	C	0.090573	0.475776	-0.077611
H257	H	0.085950	0.431752	-0.099629
H258	H	0.115763	0.472701	-0.045714
H259	H	0.115762	0.472703	-0.112590
H260	H	-0.038660	0.496898	-0.067049
C261	C	0.460182	0.881454	-0.077642
H262	H	0.455559	0.908075	-0.099647
H263	H	0.485376	0.824470	-0.112619
H264	H	0.485365	0.891354	-0.045735
H265	H	-0.173367	0.765127	0.067059
H266	H	0.196182	0.999641	0.301505
C267	C	0.499197	0.730802	0.613286
H268	H	0.461033	0.759093	0.600822
H269	H	0.499926	0.769004	0.655930
H270	H	0.493148	0.696543	0.619702
H271	H	0.330801	0.999712	0.435671
C272	C	0.743918	0.631109	0.250507
H273	H	0.736388	0.631129	0.210252
H274	H	0.789249	0.583833	0.236742
H275	H	0.741708	0.678417	0.284064
C276	C	0.743954	0.631056	0.377226
H277	H	0.736442	0.631046	0.417488
H278	H	0.741768	0.678349	0.390983
H279	H	0.789275	0.583766	0.343683
C280	C	0.768291	0.531261	0.386720
H281	H	0.806468	0.503047	0.399218
H282	H	0.774292	0.565499	0.380226
H283	H	0.767593	0.492978	0.344103
C284	C	0.711762	0.380493	-0.328110
H285	H	0.733865	0.353878	-0.376741
H286	H	0.746887	0.370610	-0.306104
H287	H	0.679709	0.437479	-0.306100
H288	H	0.750006	0.544821	0.511626
C289	C	0.744003	0.631013	0.622758
H290	H	0.775274	0.630999	0.649362
H291	H	0.722435	0.678305	0.622866
H292	H	0.769930	0.583721	0.575562
C293	C	0.744021	0.630996	0.749489
H294	H	0.775273	0.631013	0.722876
H295	H	0.769961	0.583704	0.749381
H296	H	0.722449	0.678288	0.796684
H297	H	0.517481	0.717232	0.488385
H298	H	0.306169	0.890126	0.192033
