data_functionalizedCrystal
_audit_creation_method	'MofGen! by Chris Wilmer'
_symmetry_space_group_name_H-M	'P1'
_symmetry_Int_Tables_number	1
_symmetry_cell_setting	triclinic
loop_
_symmetry_equiv_pos_as_xyz
  x,y,z
_cell_length_a	10.686220
_cell_length_b	10.686285
_cell_length_c	10.686551
_cell_angle_alpha	99.084519
_cell_angle_beta	89.691918
_cell_angle_gamma	90.345431
loop_
_atom_site_label
_atom_site_type_symbol
_atom_site_fract_x
_atom_site_fract_y
_atom_site_fract_z
Zn1	Zn	1.994012	-0.307898	0.537149
Zn2	Zn	1.993911	-0.536485	0.308653
Zn3	Zn	1.770410	-0.340205	0.340818
Zn4	Zn	1.800161	-0.533926	0.534641
O5	O	1.889623	-0.429629	0.430315
O6	O	2.168662	-0.325771	0.494427
O7	O	1.951770	-0.525040	0.136178
O8	O	1.787663	-0.159182	0.381372
O9	O	2.168588	-0.493713	0.326552
O10	O	1.951942	-0.135446	0.525615
O11	O	1.787565	-0.380834	0.159810
O12	O	1.599693	-0.378352	0.378940
O13	O	1.838368	-0.489351	0.711715
O14	O	1.621551	-0.520678	0.521341
O15	O	1.980790	-0.323289	0.713557
O16	O	1.980618	-0.712883	0.324121
O17	O	1.838270	-0.711003	0.490153
C18	C	1.565334	-0.452744	0.453360
C19	C	1.426605	-0.462661	0.463246
C20	C	1.912697	-0.757764	0.403399
C21	C	1.922686	-0.898130	0.391919
C22	C	2.215179	-0.406424	0.407181
C23	C	2.353912	-0.396535	0.397323
C24	C	1.912909	-0.402431	0.759745
C25	C	1.922832	-0.390841	0.900128
C26	C	1.866495	-0.100207	0.457361
C27	C	1.856639	0.040173	0.468887
C28	C	1.866493	-0.456624	0.102170
C29	C	1.856787	-0.467841	-0.038201
H30	H	1.382704	-0.526872	0.527245
O31	O	1.406122	-0.319770	0.321053
C32	C	1.367486	-0.193882	0.361437
H33	H	1.276057	-0.194019	0.416870
H34	H	1.442457	-0.140893	0.424753
C35	C	1.459810	-0.127596	0.177052
C36	C	1.347509	-0.127764	0.245128
H37	H	1.447492	-0.086808	0.105309
H38	H	1.485844	-0.212408	0.149846
H39	H	1.522274	-0.083440	0.229829
H40	H	1.285051	-0.171933	0.192355
H41	H	1.321463	-0.042958	0.272322
H42	H	1.792453	-0.905265	0.543568
H43	H	1.986867	-0.952701	0.317226
H44	H	1.986977	-0.316051	0.954732
O45	O	1.780441	-0.557128	0.896513
C46	C	1.851909	-0.639878	0.808485
H47	H	1.942000	-0.590192	0.785793
H48	H	1.875739	-0.728355	0.850587
C49	C	1.665437	-0.738895	0.713977
C50	C	1.776084	-0.677865	0.686098
H51	H	1.618664	-0.762333	0.638485
H52	H	1.617287	-0.683149	0.773286
H53	H	1.685312	-0.812618	0.749065
H54	H	1.756208	-0.604136	0.651027
H55	H	1.824229	-0.733600	0.626780
