data_functionalizedCrystal
_audit_creation_method	'MofGen! by Chris Wilmer'
_symmetry_space_group_name_H-M	'P1'
_symmetry_Int_Tables_number	1
_symmetry_cell_setting	triclinic
loop_
_symmetry_equiv_pos_as_xyz
  x,y,z
_cell_length_a	16.120530
_cell_length_b	16.120297
_cell_length_c	11.169416
_cell_angle_alpha	87.121464
_cell_angle_beta	92.893829
_cell_angle_gamma	90.128140
loop_
_atom_site_label
_atom_site_type_symbol
_atom_site_fract_x
_atom_site_fract_y
_atom_site_fract_z
Zn1	Zn	1.247535	-0.534608	0.608055
Zn2	Zn	1.747535	-0.034608	1.108055
Zn3	Zn	1.254516	-0.395564	0.799118
Zn4	Zn	1.754516	0.104436	1.299118
Zn5	Zn	1.115522	-0.388525	0.587774
Zn6	Zn	1.615522	0.111475	1.087774
Zn7	Zn	1.108472	-0.527534	0.798013
Zn8	Zn	1.608472	-0.027534	1.298013
O9	O	1.181511	-0.461558	0.698240
O10	O	1.681511	0.038442	1.198240
O11	O	1.364829	-0.522071	0.642350
O12	O	1.864829	-0.022071	1.142350
O13	O	1.241950	-0.278265	0.763058
O14	O	1.741950	0.221735	1.263058
O15	O	1.133063	-0.407918	0.422518
O16	O	1.633063	0.092082	0.922518
O17	O	1.369957	-0.419916	0.782724
O18	O	1.869957	0.080084	1.282724
O19	O	1.230053	-0.515245	0.437418
O20	O	1.730053	-0.015245	0.937418
O21	O	1.139832	-0.273093	0.607784
O22	O	1.639832	0.226907	1.107784
O23	O	0.998219	-0.401058	0.606712
O24	O	1.498219	0.098942	1.106712
O25	O	1.121047	-0.644838	0.780840
O26	O	1.621047	-0.144838	1.280840
O27	O	0.993039	-0.503187	0.761174
O28	O	1.493039	-0.003187	1.261174
O29	O	1.223216	-0.650036	0.641279
O30	O	1.723216	-0.150036	1.141279
O31	O	1.235113	-0.413056	0.966918
O32	O	1.735113	0.086944	1.466918
O33	O	1.127816	-0.510013	0.966106
O34	O	1.627816	-0.010013	1.466106
C35	C	0.965457	-0.450591	0.681623
C36	C	1.465457	0.049409	1.181623
C37	C	0.873026	-0.445920	0.674545
C38	C	1.373026	0.054080	1.174545
C39	C	0.703795	-0.437397	0.661594
C40	C	1.203795	0.062603	1.161594
C41	C	0.660065	-0.485779	0.734979
C42	C	1.160065	0.014221	1.234979
C43	C	0.565899	-0.481037	0.727773
C44	C	1.065899	0.018963	1.227773
C45	C	0.797970	-0.442138	0.668798
C46	C	1.297970	0.057862	1.168798
C47	C	1.170566	-0.678453	0.713198
C48	C	1.670566	-0.178453	1.213198
C49	C	1.165902	-0.770881	0.719573
C50	C	1.665902	-0.270881	1.219573
C51	C	1.157356	-0.940106	0.731181
C52	C	1.657356	-0.440106	1.231181
C53	C	1.205830	-0.983869	0.664952
C54	C	1.705830	-0.483869	1.164952
C55	C	1.201075	-1.078032	0.671411
C56	C	1.701075	-0.578032	1.171411
C57	C	1.162110	-0.845935	0.724724
C58	C	1.662110	-0.345935	1.224724
C59	C	1.398410	-0.472568	0.714923
C60	C	1.898410	0.027432	1.214923
C61	C	1.490839	-0.477259	0.722032
C62	C	1.990839	0.022741	1.222032
C63	C	1.181479	-0.461550	1.010062
C64	C	1.681479	0.038450	1.510062
C65	C	1.181539	-0.461578	1.143468
C66	C	1.681539	0.038422	1.643468
C67	C	1.192461	-0.245509	0.683257
C68	C	1.692461	0.254491	1.183257
C69	C	1.197286	-0.153090	0.676557
C70	C	1.697286	0.346910	1.176557
C71	C	1.181566	-0.461585	0.385204
C72	C	1.681566	0.038415	0.885204
C73	C	1.181589	-0.461597	0.251806
C74	C	1.681589	0.038403	0.751806
H75	H	0.670514	-0.392418	0.593362
H76	H	1.170514	0.107582	1.093362
H77	H	0.693348	-0.530763	0.803216
H78	H	1.193348	-0.030763	1.303216
Cl79	Cl	1.275435	-0.932536	0.569948
Cl80	Cl	1.775435	-0.432536	1.069948
Cl81	Cl	1.087779	-0.991442	0.826213
Cl82	Cl	1.587779	-0.491442	1.326213
