data_functionalizedCrystal
_audit_creation_method	'MofGen! by Chris Wilmer'
_symmetry_space_group_name_H-M	'P1'
_symmetry_Int_Tables_number	1
_symmetry_cell_setting	triclinic
loop_
_symmetry_equiv_pos_as_xyz
  x,y,z
_cell_length_a	14.519709
_cell_length_b	19.188930
_cell_length_c	13.596369
_cell_angle_alpha	89.988893
_cell_angle_beta	90.000291
_cell_angle_gamma	83.412464
loop_
_atom_site_label
_atom_site_type_symbol
_atom_site_fract_x
_atom_site_fract_y
_atom_site_fract_z
O1	O	1.223300	0.091524	-0.081675
O2	O	1.723300	0.591524	0.418325
O3	O	0.954756	0.102302	-0.081706
O4	O	1.454756	0.602302	0.418294
O5	O	1.096778	-0.004715	-0.081670
O6	O	1.596778	0.495285	0.418330
O7	O	1.081278	0.198542	-0.081711
O8	O	1.581278	0.698542	0.418289
O9	O	1.096763	-0.004720	0.081912
O10	O	1.596763	0.495280	0.581912
O11	O	0.954742	0.102297	0.081877
O12	O	1.454742	0.602297	0.581877
O13	O	1.223286	0.091519	0.081908
O14	O	1.723286	0.591519	0.581908
Zn15	Zn	1.089012	0.096907	0.107865
Zn16	Zn	1.589012	0.596907	0.607865
Zn17	Zn	1.089030	0.096914	-0.107663
Zn18	Zn	1.589030	0.596914	0.392337
O19	O	1.081264	0.198536	0.081872
O20	O	1.581264	0.698536	0.581872
C21	C	0.920392	0.101797	0.000081
C22	C	1.420392	0.601797	0.500081
C23	C	0.818020	0.100292	0.000070
C24	C	1.318020	0.600292	0.500070
C25	C	0.443159	0.094751	0.000116
C26	C	0.943159	0.594751	0.500116
C27	C	0.547457	0.096290	0.000103
C28	C	1.047457	0.596290	0.500103
C29	C	0.630586	0.097521	0.000092
C30	C	1.130586	0.597521	0.500092
C31	C	0.734891	0.099060	0.000081
C32	C	1.234891	0.599060	0.500081
C33	C	1.096269	-0.030730	0.000124
C34	C	1.596269	0.469270	0.500124
C35	C	1.094762	-0.108240	0.000132
C36	C	1.594762	0.391760	0.500132
C37	C	1.178095	-0.152867	0.000146
C38	C	1.678095	0.347133	0.500146
C39	C	1.176680	-0.225696	0.000131
C40	C	1.676680	0.274304	0.500131
C41	C	1.091926	-0.253895	0.000120
C42	C	1.591926	0.246105	0.500120
C43	C	1.008582	-0.209257	0.000100
C44	C	1.508582	0.290743	0.500100
C45	C	1.009999	-0.136430	0.000106
C46	C	1.509999	0.363570	0.500106
N47	N	1.027137	-0.362132	0.055783
N48	N	1.527137	0.137868	0.555783
N49	N	1.025796	-0.431316	0.055779
N50	N	1.525796	0.068684	0.555779
C51	C	1.087649	-0.473318	0.000100
C52	C	1.587649	0.026682	0.500100
N53	N	1.150908	-0.443526	-0.055564
N54	N	1.650908	0.056474	0.444436
N55	N	1.152252	-0.374336	-0.055556
N56	N	1.652252	0.125664	0.444444
C57	C	1.090379	-0.332863	0.000113
C58	C	1.590379	0.167137	0.500113
C59	C	1.169454	-0.596916	0.000095
C60	C	1.669454	-0.096916	0.500095
C61	C	1.168035	-0.669745	0.000073
C62	C	1.668035	-0.169745	0.500073
C63	C	0.999934	-0.653305	0.000053
C64	C	1.499934	-0.153305	0.500053
C65	C	1.001355	-0.580477	0.000065
C66	C	1.501355	-0.080477	0.500065
C67	C	1.086118	-0.552287	0.000091
C68	C	1.586118	-0.052287	0.500091
C69	C	1.257649	0.092024	0.000118
C70	C	1.757649	0.592024	0.500118
C71	C	1.360021	0.093529	0.000123
C72	C	1.860021	0.593529	0.500123
C73	C	1.081773	0.224551	0.000076
C74	C	1.581773	0.724551	0.500076
C75	C	1.083280	0.302061	0.000061
C76	C	1.583280	0.802061	0.500061
N77	N	1.089006	0.096901	0.254956
N78	N	1.589006	0.596901	0.754956
N79	N	1.089043	0.096914	-0.254755
N80	N	1.589043	0.596914	0.245245
C81	C	1.089029	0.096915	0.656247
C82	C	1.589029	0.596915	1.156247
C83	C	1.089020	0.096914	0.544596
C84	C	1.589020	0.596914	1.044596
C85	C	1.089018	0.096909	0.455605
C86	C	1.589018	0.596909	0.955605
C87	C	1.089008	0.096906	0.343947
C88	C	1.589008	0.596906	0.843947
H89	H	1.244542	-0.262039	0.000138
H90	H	1.744542	0.237961	0.500138
H91	H	1.247116	-0.129920	0.000164
H92	H	1.747116	0.370080	0.500164
H93	H	0.939574	-0.232221	0.000089
H94	H	1.439574	0.267779	0.500089
H95	H	0.933496	-0.544140	0.000058
H96	H	1.433496	-0.044140	0.500058
H97	H	0.930926	-0.676263	0.000039
H98	H	1.430926	-0.176263	0.500039
H99	H	0.942137	-0.100094	0.000095
H100	H	1.442137	0.399906	0.500095
O101	O	1.251809	-0.569558	-0.000070
O102	O	1.751809	-0.069558	0.499930
C103	C	1.302604	-0.592349	-0.084779
C104	C	1.802604	-0.092349	0.415221
H105	H	1.253038	-0.607551	-0.143998
H106	H	1.753038	-0.107551	0.356002
H107	H	1.354190	-0.639749	-0.065628
H108	H	1.854190	-0.139749	0.434372
C109	C	1.416237	-0.514010	-0.050452
C110	C	1.916237	-0.014010	0.449548
C111	C	1.355359	-0.532675	-0.123189
C112	C	1.855359	-0.032675	0.376811
H113	H	1.448783	-0.477202	-0.074144
H114	H	1.948783	0.022798	0.425856
H115	H	1.382018	-0.498656	0.006620
H116	H	1.882018	0.001344	0.506620
H117	H	1.459217	-0.553515	-0.034500
H118	H	1.959217	-0.053515	0.465500
H119	H	1.312374	-0.493173	-0.139131
H120	H	1.812374	0.006827	0.360869
H121	H	1.389572	-0.548021	-0.180265
H122	H	1.889572	-0.048021	0.319735
O123	O	1.248966	-0.713126	-0.000091
O124	O	1.748966	-0.213126	0.499909
C125	C	1.253180	-0.755738	-0.084807
C126	C	1.753180	-0.255738	0.415193
H127	H	1.205921	-0.729115	-0.144027
H128	H	1.705921	-0.229115	0.355973
H129	H	1.229525	-0.808729	-0.065668
H130	H	1.729525	-0.308729	0.434332
C131	C	1.411622	-0.799363	-0.050468
C132	C	1.911622	-0.299363	0.449532
C133	C	1.353583	-0.766661	-0.123206
C134	C	1.853583	-0.266661	0.376794
H135	H	1.473555	-0.806104	-0.074153
H136	H	1.973555	-0.306104	0.425847
H137	H	1.408783	-0.770657	0.006609
H138	H	1.908783	-0.270657	0.506609
H139	H	1.391899	-0.843519	-0.034526
H140	H	1.891899	-0.343519	0.465474
H141	H	1.373300	-0.722503	-0.139139
H142	H	1.873300	-0.222503	0.360861
H143	H	1.356428	-0.795360	-0.180287
H144	H	1.856428	-0.295360	0.319713
