data_functionalizedCrystal
_audit_creation_method	'MofGen! by Chris Wilmer'
_symmetry_space_group_name_H-M	'P1'
_symmetry_Int_Tables_number	1
_symmetry_cell_setting	triclinic
loop_
_symmetry_equiv_pos_as_xyz
  x,y,z
_cell_length_a	17.699083
_cell_length_b	14.971486
_cell_length_c	13.448316
_cell_angle_alpha	90.006811
_cell_angle_beta	90.000733
_cell_angle_gamma	83.448572
loop_
_atom_site_label
_atom_site_type_symbol
_atom_site_fract_x
_atom_site_fract_y
_atom_site_fract_z
O1	O	-1.004356	-0.113113	-0.082553
O2	O	-0.671023	0.220221	0.250780
O3	O	-0.337690	0.553554	0.584114
O4	O	-0.784014	-0.127829	-0.082586
O5	O	-0.450681	0.205505	0.250748
O6	O	-0.117348	0.538838	0.584081
O7	O	-0.900091	0.009750	-0.082561
O8	O	-0.566758	0.343083	0.250772
O9	O	-0.233424	0.676416	0.584105
O10	O	-0.888280	-0.250691	-0.082577
O11	O	-0.554946	0.082642	0.250756
O12	O	-0.221613	0.415976	0.584089
O13	O	-0.900077	0.009758	0.082823
O14	O	-0.566743	0.343091	0.416156
O15	O	-0.233410	0.676425	0.749489
O16	O	-0.784000	-0.127820	0.082798
O17	O	-0.450666	0.205513	0.416132
O18	O	-0.117333	0.538846	0.749465
O19	O	-1.004342	-0.113104	0.082831
O20	O	-0.671009	0.220229	0.416164
O21	O	-0.337675	0.553563	0.749498
Cu22	Cu	-0.894169	-0.120461	0.097915
Cu23	Cu	-0.560836	0.212872	0.431249
Cu24	Cu	-0.227503	0.546205	0.764582
Cu25	Cu	-0.894187	-0.120471	-0.097670
Cu26	Cu	-0.560853	0.212862	0.235663
Cu27	Cu	-0.227520	0.546195	0.568997
O28	O	-0.888265	-0.250683	0.082807
O29	O	-0.554932	0.082651	0.416140
O30	O	-0.221598	0.415984	0.749473
C31	C	-0.899556	0.043077	0.000130
C32	C	-0.566222	0.376410	0.333464
C33	C	-0.232889	0.709744	0.666797
C34	C	-0.897973	0.142368	0.000129
C35	C	-0.564639	0.475702	0.333462
C36	C	-0.231306	0.809035	0.666796
C37	C	-0.755809	-0.127297	0.000102
C38	C	-0.422475	0.206036	0.333436
C39	C	-0.089142	0.539369	0.666769
C40	C	-0.671787	-0.125715	0.000090
C41	C	-0.338453	0.207618	0.333423
C42	C	-0.005120	0.540951	0.666757
C43	C	-1.032547	-0.113636	0.000141
C44	C	-0.699214	0.219698	0.333474
C45	C	-0.365881	0.553031	0.666808
C46	C	-1.116569	-0.115218	0.000147
C47	C	-0.783236	0.218116	0.333480
C48	C	-0.449903	0.551449	0.666813
C49	C	-0.623365	-0.206471	0.000085
C50	C	-0.290031	0.126862	0.333419
C51	C	0.043302	0.460196	0.666752
C52	C	-0.544418	-0.204979	0.000098
C53	C	-0.211084	0.128354	0.333432
C54	C	0.122249	0.461687	0.666765
C55	C	-0.513894	-0.122731	0.000109
C56	C	-0.180561	0.210602	0.333442
C57	C	0.152772	0.543936	0.666775
C58	C	-0.562323	-0.041969	0.000116
C59	C	-0.228989	0.291364	0.333450
C60	C	0.104344	0.624698	0.666783
C61	C	-0.641268	-0.043462	0.000111
C62	C	-0.307935	0.289872	0.333444
C63	C	0.025399	0.623205	0.666777
C64	C	-0.243945	-0.035947	0.000141
C65	C	0.089388	0.297386	0.333475
C66	C	0.422722	0.630719	0.666808
C67	C	-0.164993	-0.034461	0.000144
C68	C	0.168340	0.298872	0.333478
C69	C	0.501673	0.632206	0.666811
C70	C	-0.147094	-0.197465	0.000129
C71	C	0.186239	0.135868	0.333462
C72	C	0.519572	0.469202	0.666796
C73	C	-0.226040	-0.198958	0.000123
C74	C	0.107294	0.134376	0.333457
C75	C	0.440627	0.467709	0.666790
C76	C	-0.274461	-0.118196	0.000136
C77	C	0.058872	0.215137	0.333469
C78	C	0.392206	0.548470	0.666803
C79	C	-0.360064	-0.119815	0.000124
C80	C	-0.026731	0.213519	0.333457
C81	C	0.306602	0.546852	0.666791
C82	C	-0.428293	-0.121111	0.000114
C83	C	-0.094959	0.212222	0.333447
C84	C	0.238374	0.545555	0.666781
C85	C	-0.888801	-0.284010	0.000113
C86	C	-0.555467	0.049324	0.333446
C87	C	-0.222134	0.382657	0.666780
C88	C	-0.890383	-0.383301	0.000108
C89	C	-0.557050	-0.049968	0.333441
C90	C	-0.223717	0.283365	0.666774
N91	N	-0.894163	-0.120454	0.235480
N92	N	-0.560829	0.212879	0.568813
N93	N	-0.227496	0.546213	0.902146
C94	C	-0.966165	0.199828	0.000140
C95	C	-0.632831	0.533162	0.333473
C96	C	-0.299498	0.866495	0.666807
C97	C	-0.964673	0.293123	0.000130
C98	C	-0.631339	0.626456	0.333463
C99	C	-0.298006	0.959789	0.666796
C100	C	-0.894988	0.328955	0.000116
C101	C	-0.561655	0.662289	0.333449
C102	C	-0.228321	0.995622	0.666782
C103	C	-0.826791	0.271488	0.000102
C104	C	-0.493458	0.604822	0.333435
C105	C	-0.160124	0.938155	0.666769
C106	C	-0.828284	0.178196	0.000105
C107	C	-0.494950	0.511529	0.333438
C108	C	-0.161617	0.844862	0.666772
C109	C	-0.823685	0.465940	0.000098
C110	C	-0.490351	0.799273	0.333431
C111	C	-0.157018	1.132607	0.666765
C112	C	-0.822192	0.559239	0.000097
C113	C	-0.488858	0.892572	0.333430
C114	C	-0.155525	1.225906	0.666763
C115	C	-0.960074	0.580867	0.000123
C116	C	-0.626740	0.914200	0.333456
C117	C	-0.293407	1.247534	0.666789
C118	C	-0.961566	0.487574	0.000126
C119	C	-0.628233	0.820908	0.333459
C120	C	-0.294900	1.154241	0.666792
C121	C	-0.893369	0.430114	0.000114
C122	C	-0.560035	0.763447	0.333447
C123	C	-0.226702	1.096780	0.666780
N124	N	-0.894199	-0.120472	-0.235234
N125	N	-0.560866	0.212861	0.098099
N126	N	-0.227533	0.546195	0.431432
C127	C	-0.945578	-0.059559	0.287531
C128	C	-0.612244	0.273774	0.620864
C129	C	-0.278911	0.607108	0.954198
C130	C	-0.945582	-0.059558	0.391634
C131	C	-0.612249	0.273775	0.724967
C132	C	-0.278916	0.607108	1.058301
C133	C	-0.894175	-0.120457	0.443684
C134	C	-0.560842	0.212876	0.777018
C135	C	-0.227509	0.546209	1.110351
C136	C	-0.842755	-0.181355	0.391626
C137	C	-0.509422	0.151978	0.724959
C138	C	-0.176088	0.485312	1.058293
C139	C	-0.842747	-0.181351	0.287525
C140	C	-0.509414	0.151983	0.620858
C141	C	-0.176081	0.485316	0.954191
C142	C	-0.842776	-0.181361	0.608606
C143	C	-0.509443	0.151972	0.941939
C144	C	-0.176109	0.485306	1.275273
C145	C	-0.842785	-0.181367	0.712715
C146	C	-0.509451	0.151967	1.046048
C147	C	-0.176118	0.485300	1.379381
C148	C	-0.945611	-0.059569	0.712716
C149	C	-0.612278	0.273765	1.046049
C150	C	-0.278944	0.607098	1.379382
C151	C	-0.945603	-0.059564	0.608614
C152	C	-0.612270	0.273769	0.941948
C153	C	-0.278937	0.607102	1.275281
C154	C	-0.894184	-0.120463	0.556563
C155	C	-0.560850	0.212870	0.889896
C156	C	-0.227517	0.546203	1.223230
H157	H	-0.648210	-0.273447	0.000076
H158	H	-0.314876	0.059886	0.333409
H159	H	0.018457	0.393220	0.666743
H160	H	-0.987448	-0.009973	0.434014
H161	H	-0.654114	0.323361	0.767347
H162	H	-0.320781	0.656694	1.100680
F163	F	-0.132511	0.053083	0.000156
F164	F	0.200823	0.386417	0.333489
F165	F	0.534156	0.719750	0.666822
H166	H	-0.768151	0.419157	0.000086
H167	H	-0.434817	0.752491	0.333419
H168	H	-0.101484	1.085824	0.666752
H169	H	-0.772754	0.131412	0.000096
H170	H	-0.439421	0.464745	0.333429
H171	H	-0.106088	0.798079	0.666763
F172	F	-0.748025	0.597373	0.000083
F173	F	-0.414692	0.930706	0.333416
F174	F	-0.081359	1.264039	0.666750
F175	F	-1.037252	0.354272	0.000143
F176	F	-0.703919	0.687605	0.333476
F177	F	-0.370586	1.020939	0.666810
F178	F	-1.040334	0.161701	0.000164
F179	F	-0.707000	0.495035	0.333498
F180	F	-0.373667	0.828368	0.666831
H181	H	-0.800879	-0.230936	0.245145
H182	H	-0.467546	0.102397	0.578479
H183	H	-0.134213	0.435730	0.911812
H184	H	-0.107660	-0.263225	0.000124
H185	H	0.225674	0.070109	0.333457
H186	H	0.559007	0.403442	0.666791
H187	H	-1.018310	0.458403	0.000144
H188	H	-0.684976	0.791736	0.333477
H189	H	-0.351643	1.125069	0.666811
H190	H	-0.770052	0.300671	0.000084
H191	H	-0.436719	0.634004	0.333418
H192	H	-0.103386	0.967337	0.666751
H193	H	-0.800895	-0.230937	0.434011
H194	H	-0.467561	0.102396	0.767345
H195	H	-0.134228	0.435729	1.100678
H196	H	-0.987478	-0.009982	0.755102
H197	H	-0.654145	0.323351	1.088435
H198	H	-0.320812	0.656684	1.421768
F199	F	-0.692803	0.042490	0.000119
F200	F	-0.359470	0.375823	0.333452
F201	F	-0.026136	0.709156	0.666786
F202	F	-1.032655	0.642022	0.000131
F203	F	-0.699322	0.975355	0.333464
F204	F	-0.365989	1.308688	0.666798
F205	F	-1.000297	0.005255	0.232145
F206	F	-0.666963	0.338589	0.565478
F207	F	-0.333630	0.671922	0.898812
H208	H	-0.283361	0.029814	0.000153
H209	H	0.049973	0.363147	0.333486
H210	H	0.383306	0.696480	0.666819
F211	F	-0.788046	-0.246175	0.553214
F212	F	-0.454713	0.087158	0.886547
F213	F	-0.121380	0.420492	1.219880
H214	H	-0.987466	-0.009980	0.566235
H215	H	-0.654133	0.323353	0.899568
H216	H	-0.320800	0.656686	1.232902
F217	F	-0.788069	-0.246183	0.768103
F218	F	-0.454735	0.087150	1.101436
F219	F	-0.121402	0.420484	1.434770
H220	H	-0.504995	-0.270739	0.000093
H221	H	-0.171661	0.062595	0.333427
H222	H	0.161672	0.395928	0.666760
H223	H	-0.250887	-0.265933	0.000110
H224	H	0.082446	0.067401	0.333444
H225	H	0.415780	0.400734	0.666777
H226	H	-0.537465	0.024999	0.000139
H227	H	-0.204131	0.358332	0.333472
H228	H	0.129202	0.691666	0.666806
