data_functionalizedCrystal
_audit_creation_method	'MofGen! by Chris Wilmer'
_symmetry_space_group_name_H-M	'P1'
_symmetry_Int_Tables_number	1
_symmetry_cell_setting	triclinic
loop_
_symmetry_equiv_pos_as_xyz
  x,y,z
_cell_length_a	10.654534
_cell_length_b	10.654543
_cell_length_c	9.730223
_cell_angle_alpha	90.000897
_cell_angle_beta	90.004077
_cell_angle_gamma	84.480289
loop_
_atom_site_label
_atom_site_type_symbol
_atom_site_fract_x
_atom_site_fract_y
_atom_site_fract_z
O1	O	-1.667846	-0.176304	-0.114304
O2	O	-1.302365	-0.193131	-0.114300
O3	O	-1.493513	-0.001977	-0.114305
O4	O	-1.476698	-0.367458	-0.114299
O5	O	-1.493501	-0.001972	0.114275
O6	O	-1.302353	-0.193125	0.114280
O7	O	-1.667834	-0.176298	0.114276
Zn8	Zn	-1.485091	-0.184711	0.150570
Zn9	Zn	-1.485108	-0.184718	-0.150594
O10	O	-1.476686	-0.367452	0.114281
C11	C	-1.492274	0.044824	-0.000019
C12	C	-1.488586	0.184267	-0.000030
C13	C	-1.255561	-0.191897	-0.000010
C14	C	-1.116116	-0.188213	-0.000009
C15	C	-1.601130	0.263759	-0.000037
C16	C	-1.597657	0.394780	-0.000062
C17	C	-1.369085	0.366804	-0.000068
C18	C	-1.372559	0.235786	-0.000053
C19	C	-1.050605	-0.186476	0.124592
C20	C	-0.919585	-0.182994	0.124596
C21	C	-0.919599	-0.182991	-0.124615
C22	C	-1.050618	-0.186464	-0.124616
C23	C	-0.714637	-0.177543	-0.000012
C24	C	-0.854078	-0.181257	-0.000004
N25	N	-1.485089	-0.184706	0.356106
C26	C	-1.477931	0.585748	-0.000024
C27	C	-1.481638	0.446307	-0.000070
N28	N	-1.485120	-0.184714	-0.356131
C29	C	-1.569759	-0.100099	0.428030
C30	C	-1.569771	-0.100099	0.571913
C31	C	-1.400441	-0.269325	0.571936
C32	C	-1.400423	-0.269317	0.428055
H33	H	-1.689302	0.459499	-0.000070
H34	H	-1.103959	-0.187875	-0.226088
N35	N	-0.848926	-0.181114	0.258987
H36	H	-0.910410	-0.181862	0.337916
H37	H	-0.785656	-0.257846	0.264835
N38	N	-1.121244	-0.188348	0.258990
H39	H	-1.185116	-0.112074	0.264545
H40	H	-1.166010	-0.267558	0.264469
H41	H	-1.638697	-0.031201	0.369452
H42	H	-0.866254	-0.181568	-0.226066
H43	H	-1.274620	0.408767	-0.000084
N44	N	-1.661111	-0.008863	0.649489
H45	H	-1.714746	0.044729	0.582073
H46	H	-1.717040	-0.057485	0.709160
H47	H	-1.331509	-0.338215	0.630531
H48	H	-1.331469	-0.338215	0.369491
H49	H	-1.695606	0.221818	-0.000021
N50	N	-1.251167	0.150035	-0.000055
H51	H	-1.177138	0.202551	-0.000063
H52	H	-1.247624	0.095071	0.084686
