data_functionalizedCrystal
_audit_creation_method	'MofGen! by Chris Wilmer'
_symmetry_space_group_name_H-M	'P1'
_symmetry_Int_Tables_number	1
_symmetry_cell_setting	triclinic
loop_
_symmetry_equiv_pos_as_xyz
  x,y,z
_cell_length_a	12.759401
_cell_length_b	13.031981
_cell_length_c	13.033454
_cell_angle_alpha	74.790167
_cell_angle_beta	97.162532
_cell_angle_gamma	97.193318
loop_
_atom_site_label
_atom_site_type_symbol
_atom_site_fract_x
_atom_site_fract_y
_atom_site_fract_z
Zn1	Zn	1.492206	-0.346547	-0.546795
Zn2	Zn	1.492098	-0.546798	-0.346593
Zn3	Zn	1.336296	-0.369170	-0.369191
Zn4	Zn	1.296712	-0.524161	-0.524172
O5	O	1.404328	-0.446669	-0.446688
O6	O	1.639210	-0.373117	-0.520249
O7	O	1.487952	-0.542177	-0.200946
O8	O	1.373588	-0.217498	-0.411675
O9	O	1.639131	-0.520240	-0.373161
O10	O	1.488135	-0.200877	-0.542161
O11	O	1.373484	-0.411674	-0.217548
O12	O	1.184026	-0.389724	-0.389739
O13	O	1.306124	-0.481659	-0.675818
O14	O	1.154944	-0.503595	-0.503603
O15	O	1.449752	-0.351166	-0.692439
O16	O	1.449569	-0.692466	-0.351224
O17	O	1.306019	-0.675835	-0.481691
C18	C	1.131364	-0.446659	-0.446668
C19	C	1.014584	-0.446677	-0.446682
C20	C	0.944607	-0.506087	-0.505851
C21	C	0.834880	-0.506088	-0.505871
C22	C	0.865118	-0.387268	-0.387545
C23	C	0.974843	-0.387261	-0.387532
C24	C	0.666777	-0.528297	-0.626248
C25	C	0.596796	-0.587725	-0.685405
C26	C	0.619044	-0.689356	-0.688348
C27	C	0.711272	-0.731581	-0.632114
C28	C	0.781248	-0.672160	-0.572948
C29	C	0.759001	-0.570512	-0.570028
C30	C	1.142946	-0.365063	-0.267152
C31	C	1.212924	-0.305647	-0.207979
C32	C	1.190679	-0.204016	-0.205027
C33	C	1.098450	-0.161797	-0.261241
C34	C	1.028472	-0.221212	-0.320414
C35	C	1.050724	-0.322842	-0.323368
C36	C	1.373513	-0.722696	-0.411574
C37	C	1.360423	-0.840777	-0.396587
C38	C	1.411213	-0.885106	-0.454531
C39	C	1.397685	-1.007149	-0.439043
C40	C	1.678357	-0.446680	-0.446708
C41	C	1.795132	-0.446685	-0.446716
C42	C	1.373534	-0.411364	-0.723749
C43	C	1.360412	-0.396319	-0.841815
C44	C	1.435289	-0.169561	-0.481962
C45	C	1.448483	-0.051474	-0.496994
C46	C	1.411198	-0.454182	-0.886239
C47	C	1.397637	-0.438634	-1.008267
C48	C	1.435071	-0.481760	-0.170715
C49	C	1.448430	-0.496505	-0.052686
H50	H	1.247662	-0.155646	-0.156833
H51	H	0.856337	-0.706540	-0.527163
H52	H	1.464722	-0.515228	-0.833931
N53	N	0.735256	-0.841211	-0.635267
H54	H	0.676932	-0.872447	-0.681279
H55	H	0.805165	-0.835373	-0.666157
N56	N	1.519348	-0.982083	-0.577908
H57	H	1.518968	-0.904735	-0.577507
H58	H	1.594105	-1.003456	-0.559015
N59	N	1.074446	-0.052182	-0.258053
H60	H	1.133603	0.002555	-0.287561
H61	H	1.005374	-0.034554	-0.302628
H62	H	1.306918	-0.893176	-0.335519
H63	H	0.521705	-0.553335	-0.731193
N64	N	1.326732	-0.357766	-1.077541
H65	H	1.251950	-0.376705	-1.056180
H66	H	1.353739	-0.284325	-1.067928
H67	H	1.501958	-0.557555	-1.000383
N68	N	0.822258	-0.323204	-0.323730
H69	H	0.847960	-0.349268	-0.245725
H70	H	0.847989	-0.245219	-0.350084
H71	H	0.562058	-0.737741	-0.736516
N72	N	1.289509	-0.315456	-0.911090
H73	H	1.289867	-0.315815	-0.988443
H74	H	1.214765	-0.334448	-0.889638
H75	H	0.976960	-0.554464	-0.554018
H76	H	1.464709	-0.832708	-0.515609
H77	H	0.953379	-0.186824	-0.366195
N78	N	0.642781	-0.418678	-0.623076
H79	H	0.638250	-0.370704	-0.697888
H80	H	0.572914	-0.424547	-0.592099
H81	H	1.288021	-0.340032	-0.162205
H82	H	1.161072	-0.447816	-0.269560
H83	H	1.344176	-1.059545	-0.377970
