data_functionalizedCrystal
_audit_creation_method	'MofGen! by Chris Wilmer'
_symmetry_space_group_name_H-M	'P1'
_symmetry_Int_Tables_number	1
_symmetry_cell_setting	triclinic
loop_
_symmetry_equiv_pos_as_xyz
  x,y,z
_cell_length_a	16.109301
_cell_length_b	9.065218
_cell_length_c	8.140239
_cell_angle_alpha	90.001686
_cell_angle_beta	90.000002
_cell_angle_gamma	84.238683
loop_
_atom_site_label
_atom_site_type_symbol
_atom_site_fract_x
_atom_site_fract_y
_atom_site_fract_z
O1	O	-1.104587	-0.189628	-0.136503
O2	O	-0.862706	-0.213227	-0.136528
O3	O	-0.988646	0.013336	-0.136512
O4	O	-0.978647	-0.416191	-0.136519
O5	O	-0.988639	0.013338	0.136716
O6	O	-0.862699	-0.213225	0.136699
O7	O	-1.104580	-0.189626	0.136724
Zn8	Zn	-0.983638	-0.201425	0.180092
Zn9	Zn	-0.983648	-0.201428	-0.179896
O10	O	-0.978640	-0.416188	0.136708
C11	C	-0.831720	-0.212270	0.000082
C12	C	-0.739403	-0.209404	0.000072
C13	C	-0.987682	0.068300	0.000099
C14	C	-0.984808	0.232074	0.000091
C15	C	-1.135565	-0.190583	0.000110
C16	C	-1.227883	-0.193449	0.000109
C17	C	-0.518112	-0.337178	0.000089
C18	C	-0.431371	-0.334474	0.000100
C19	C	-0.449180	-0.065664	0.000098
C20	C	-0.535920	-0.068370	0.000099
C21	C	-0.570383	-0.204131	0.000086
C22	C	-0.396903	-0.198721	0.000096
C23	C	-0.302854	-0.195788	0.000107
C24	C	-0.664438	-0.207065	0.000078
C25	C	-0.979604	-0.471153	0.000093
C26	C	-0.982478	-0.634926	0.000091
N27	N	-0.983638	-0.201421	0.425775
N28	N	-0.983654	-0.201419	-0.425579
H29	H	-0.388815	-0.442814	0.000105
H30	H	-0.578481	0.039979	0.000101
N31	N	-0.555286	-0.483598	0.000074
H32	H	-0.509007	-0.567471	0.000079
H33	H	-0.590889	-0.490574	0.101360
N34	N	-0.412009	0.080758	0.000120
H35	H	-0.349127	0.062286	0.000119
H36	H	-0.431058	0.138979	-0.101165
