data_functionalizedCrystal
_audit_creation_method	'MofGen! by Chris Wilmer'
_symmetry_space_group_name_H-M	'P1'
_symmetry_Int_Tables_number	1
_symmetry_cell_setting	triclinic
loop_
_symmetry_equiv_pos_as_xyz
  x,y,z
_cell_length_a	14.044220
_cell_length_b	11.792241
_cell_length_c	10.268362
_cell_angle_alpha	90.000374
_cell_angle_beta	89.993803
_cell_angle_gamma	91.308853
loop_
_atom_site_label
_atom_site_type_symbol
_atom_site_fract_x
_atom_site_fract_y
_atom_site_fract_z
O1	O	0.129987	-1.519112	-0.108177
O2	O	0.379987	-1.269112	0.141823
O3	O	0.629987	-1.019112	0.391823
O4	O	0.879987	-0.769112	0.641823
O5	O	0.143384	-1.190028	-0.108207
O6	O	0.393384	-0.940028	0.141793
O7	O	0.643384	-0.690028	0.391793
O8	O	0.893384	-0.440028	0.641793
O9	O	-0.001325	-1.349630	-0.108180
O10	O	0.248675	-1.099630	0.141820
O11	O	0.498675	-0.849630	0.391820
O12	O	0.748675	-0.599630	0.641820
O13	O	0.274695	-1.359509	-0.108204
O14	O	0.524695	-1.109509	0.141796
O15	O	0.774695	-0.859509	0.391796
O16	O	1.024695	-0.609509	0.641796
O17	O	-0.001331	-1.349615	0.108421
O18	O	0.248669	-1.099615	0.358421
O19	O	0.498669	-0.849615	0.608421
O20	O	0.748669	-0.599615	0.858421
O21	O	0.143378	-1.190012	0.108393
O22	O	0.393378	-0.940012	0.358393
O23	O	0.643378	-0.690012	0.608393
O24	O	0.893378	-0.440012	0.858393
O25	O	0.129981	-1.519096	0.108424
O26	O	0.379981	-1.269096	0.358424
O27	O	0.629981	-1.019096	0.608424
O28	O	0.879981	-0.769096	0.858424
Cu29	Cu	0.136679	-1.354553	0.128186
Cu30	Cu	0.386679	-1.104553	0.378186
Cu31	Cu	0.636679	-0.854553	0.628186
Cu32	Cu	0.886679	-0.604553	0.878186
Cu33	Cu	0.136686	-1.354571	-0.127969
Cu34	Cu	0.386686	-1.104571	0.122031
Cu35	Cu	0.636686	-0.854571	0.372031
Cu36	Cu	0.886686	-0.604571	0.622031
O37	O	0.274689	-1.359494	0.108396
O38	O	0.524689	-1.109494	0.358396
O39	O	0.774689	-0.859494	0.608396
O40	O	1.024689	-0.609494	0.858396
C41	C	-0.036664	-1.345298	0.000121
C42	C	0.213336	-1.095298	0.250121
C43	C	0.463336	-0.845298	0.500121
C44	C	0.713336	-0.595298	0.750121
C45	C	-0.141956	-1.332399	0.000121
C46	C	0.108044	-1.082399	0.250121
C47	C	0.358044	-0.832399	0.500121
C48	C	0.608044	-0.582399	0.750121
C49	C	0.142539	-1.147650	0.000089
C50	C	0.392539	-0.897650	0.250089
C51	C	0.642539	-0.647650	0.500089
C52	C	0.892539	-0.397650	0.750089
C53	C	0.140020	-1.021400	0.000078
C54	C	0.390020	-0.771400	0.250078
C55	C	0.640020	-0.521400	0.500078
C56	C	0.890020	-0.271400	0.750078
C57	C	0.130826	-1.561474	0.000125
C58	C	0.380826	-1.311474	0.250125
C59	C	0.630826	-1.061474	0.500125
C60	C	0.880826	-0.811474	0.750125
C61	C	0.133344	-1.687724	0.000127
C62	C	0.383344	-1.437724	0.250127
C63	C	0.633344	-1.187724	0.500127
C64	C	0.883344	-0.937724	0.750127
C65	C	-0.334739	-1.308817	0.000100
C66	C	-0.084739	-1.058817	0.250100
C67	C	0.165261	-0.808817	0.500100
C68	C	0.415261	-0.558817	0.750100
C69	C	-0.391902	-1.400302	0.000105
C70	C	-0.141902	-1.150302	0.250105
C71	C	0.108098	-0.900302	0.500105
C72	C	0.358098	-0.650302	0.750105
C73	C	-0.499173	-1.387181	0.000093
C74	C	-0.249173	-1.137181	0.250093
C75	C	0.000827	-0.887181	0.500093
C76	C	0.250827	-0.637181	0.750093
C77	C	-0.227458	-1.321937	0.000112
C78	C	0.022542	-1.071937	0.250112
C79	C	0.272542	-0.821937	0.500112
C80	C	0.522542	-0.571937	0.750112
C81	C	0.310029	-1.363826	0.000093
C82	C	0.560029	-1.113826	0.250093
C83	C	0.810029	-0.863826	0.500093
C84	C	1.060029	-0.613826	0.750093
C85	C	0.415321	-1.376725	0.000084
C86	C	0.665321	-1.126725	0.250084
C87	C	0.915321	-0.876725	0.500084
C88	C	1.165321	-0.626725	0.750084
N89	N	0.136673	-1.354548	0.308352
N90	N	0.386673	-1.104548	0.558352
N91	N	0.636673	-0.854548	0.808352
N92	N	0.886673	-0.604548	1.058352
C93	C	0.135389	-0.790253	0.000116
C94	C	0.385389	-0.540253	0.250116
C95	C	0.635389	-0.290253	0.500116
C96	C	0.885389	-0.040253	0.750116
C97	C	0.137962	-0.918880	0.000095
C98	C	0.387962	-0.668880	0.250095
C99	C	0.637962	-0.418880	0.500095
C100	C	0.887962	-0.168880	0.750095
N101	N	0.136684	-1.354584	-0.308135
N102	N	0.386684	-1.104584	-0.058135
N103	N	0.636684	-0.854584	0.191865
N104	N	0.886684	-0.604584	0.441865
C105	C	0.136684	-1.354565	0.574022
C106	C	0.386684	-1.104565	0.824022
C107	C	0.636684	-0.854565	1.074022
C108	C	0.886684	-0.604565	1.324022
C109	C	0.136681	-1.354552	0.426185
C110	C	0.386681	-1.104552	0.676185
C111	C	0.636681	-0.854552	0.926185
C112	C	0.886681	-0.604552	1.176185
H113	H	-0.360278	-1.488479	0.000026
H114	H	-0.110278	-1.238479	0.250026
H115	H	0.139722	-0.988479	0.500026
H116	H	0.389722	-0.738479	0.750026
H117	H	-0.366361	-1.220647	0.000089
H118	H	-0.116361	-0.970647	0.250089
H119	H	0.133639	-0.720647	0.500089
H120	H	0.383639	-0.470647	0.750089
