data_functionalizedCrystal
_audit_creation_method	'MofGen! by Chris Wilmer'
_symmetry_space_group_name_H-M	'P1'
_symmetry_Int_Tables_number	1
_symmetry_cell_setting	triclinic
loop_
_symmetry_equiv_pos_as_xyz
  x,y,z
_cell_length_a	11.026607
_cell_length_b	14.971486
_cell_length_c	9.482900
_cell_angle_alpha	99.345500
_cell_angle_beta	101.363848
_cell_angle_gamma	83.899927
loop_
_atom_site_label
_atom_site_type_symbol
_atom_site_fract_x
_atom_site_fract_y
_atom_site_fract_z
O1	O	1.629607	-0.363678	0.120907
O2	O	1.276239	-0.321018	0.120907
O3	O	1.462392	-0.213667	0.120897
O4	O	1.443453	-0.471030	0.120918
O5	O	1.424580	-0.235584	-0.120894
O6	O	1.238427	-0.342935	-0.120883
O7	O	1.591795	-0.385596	-0.120883
Cu8	Cu	1.411658	-0.366267	-0.142961
Cu9	Cu	1.456375	-0.340347	0.142985
O10	O	1.405641	-0.492947	-0.120873
C11	C	1.212110	-0.324107	0.000012
C12	C	1.077362	-0.300646	0.000012
C13	C	1.003652	-0.365425	0.000018
C14	C	0.864382	-0.341178	0.000018
C15	C	1.442639	-0.191165	0.000002
C16	C	1.440101	-0.091461	0.000003
C17	C	1.655923	-0.382507	0.000015
C18	C	1.790673	-0.405967	0.000025
C19	C	1.425395	-0.515449	0.000025
C20	C	1.427935	-0.615152	0.000033
N21	N	1.380216	-0.384498	-0.344079
C22	C	1.549462	-0.051758	0.000002
C23	C	1.547071	0.041926	0.000017
C24	C	1.435317	0.095905	0.000022
C25	C	1.325949	0.056197	0.000028
C26	C	1.328342	-0.037485	0.000024
C27	C	1.320968	0.251458	0.000033
C28	C	1.318574	0.345146	0.000035
C29	C	1.539697	0.330869	0.000026
C30	C	1.542091	0.237187	0.000022
C31	C	1.432721	0.197485	0.000025
C32	C	1.447093	-0.345718	-0.416282
C33	C	1.420941	-0.360896	-0.583698
N34	N	1.487827	-0.322110	0.344103
H35	H	0.824395	-0.267760	0.000050
H36	H	1.043649	-0.438836	0.000016
H37	H	1.303594	-0.428932	-0.406204
O38	O	1.662624	0.178963	0.000034
H39	H	1.738277	0.222308	0.000054
O40	O	1.669999	-0.109977	0.000010
H41	H	1.745645	-0.066624	0.000031
O42	O	1.319469	-0.419783	-0.665977
H43	H	1.274461	-0.445885	-0.587620
H44	H	1.628751	0.363199	0.000028
O45	O	0.843629	-0.503217	0.000037
H46	H	0.944707	-0.507002	0.000047
H47	H	1.231908	0.219137	0.000039
O48	O	1.024387	-0.203404	0.000002
H49	H	1.040084	-0.178573	-0.098559
O50	O	1.665024	0.084753	0.000018
H51	H	1.653801	0.118175	-0.098521
H52	H	1.234958	0.100155	0.000041
O53	O	1.198047	0.403374	0.000065
H54	H	1.122401	0.360033	0.000094
O55	O	1.210388	-0.080316	0.000009
H56	H	1.132272	-0.027046	-0.000003
H57	H	1.523705	-0.301277	-0.354158
H58	H	1.564445	-0.277666	-0.593777
