data_functionalizedCrystal
_audit_creation_method	'MofGen! by Chris Wilmer'
_symmetry_space_group_name_H-M	'P1'
_symmetry_Int_Tables_number	1
_symmetry_cell_setting	triclinic
loop_
_symmetry_equiv_pos_as_xyz
  x,y,z
_cell_length_a	13.897449
_cell_length_b	21.395364
_cell_length_c	21.395355
_cell_angle_alpha	90.024727
_cell_angle_beta	89.993348
_cell_angle_gamma	89.999047
loop_
_atom_site_label
_atom_site_type_symbol
_atom_site_fract_x
_atom_site_fract_y
_atom_site_fract_z
Zn1	Zn	0.384169	0.957981	0.354316
Zn2	Zn	0.884169	1.457981	0.854316
Zn3	Zn	0.545449	0.957935	0.249560
Zn4	Zn	1.045449	1.457935	0.749560
Zn5	Zn	0.384165	0.853196	0.249552
Zn6	Zn	0.884165	1.353196	0.749552
Zn7	Zn	0.545419	0.853217	0.354300
Zn8	Zn	1.045419	1.353217	0.854300
O9	O	0.464801	0.905582	0.301932
O10	O	0.964801	1.405582	0.801932
O11	O	0.405578	1.045653	0.340430
O12	O	0.905578	1.545653	0.840430
O13	O	0.524065	0.944013	0.161881
O14	O	1.024065	1.444013	0.661881
O15	O	0.249184	0.867107	0.263453
O16	O	0.749184	1.367107	0.763453
O17	O	0.524069	1.045619	0.263466
O18	O	1.024069	1.545619	0.763466
O19	O	0.249187	0.944092	0.340422
O20	O	0.749187	1.444092	0.840422
O21	O	0.405570	0.867062	0.161876
O22	O	0.905570	1.367062	0.661876
O23	O	0.405541	0.765521	0.263438
O24	O	0.905541	1.265521	0.763438
O25	O	0.524019	0.867142	0.441980
O26	O	1.024019	1.367142	0.941980
O27	O	0.524014	0.765536	0.340395
O28	O	1.024014	1.265536	0.840395
O29	O	0.405549	0.944112	0.441992
O30	O	0.905549	1.444112	0.941992
O31	O	0.680427	0.944033	0.263451
O32	O	1.180427	1.444033	0.763451
O33	O	0.680405	0.867097	0.340403
O34	O	1.180405	1.367097	0.840403
C35	C	0.464775	0.742795	0.301914
C36	C	0.964775	1.242795	0.801914
C37	C	0.464787	0.673154	0.301921
C38	C	0.964787	1.173154	0.801921
C39	C	0.526603	0.171382	0.341965
C40	C	1.026603	0.671382	0.841965
C41	C	0.526603	0.236817	0.341959
C42	C	1.026603	0.736817	0.841959
C43	C	0.464822	0.269515	0.301952
C44	C	0.964822	0.769515	0.801952
C45	C	0.403054	0.236773	0.261938
C46	C	0.903054	0.736773	0.761938
C47	C	0.403062	0.171338	0.261941
C48	C	0.903062	0.671338	0.761941
C49	C	0.377893	0.373176	0.297089
C50	C	0.877893	0.873176	0.797089
C51	C	0.377883	0.438609	0.297090
C52	C	0.877883	0.938609	0.797090
C53	C	0.464796	0.471336	0.301938
C54	C	0.964796	0.971336	0.801938
C55	C	0.551723	0.438622	0.306798
C56	C	1.051723	0.938622	0.806798
C57	C	0.551731	0.373188	0.306802
C58	C	1.051731	0.873188	0.806802
C59	C	0.464806	0.340468	0.301944
C60	C	0.964806	0.840468	0.801944
C61	C	0.526566	0.575023	0.341940
C62	C	1.026566	1.075023	0.841940
C63	C	0.526568	0.640460	0.341929
C64	C	1.026568	1.140460	0.841929
C65	C	0.403010	0.640414	0.261911
C66	C	0.903010	1.140414	0.761911
C67	C	0.403017	0.574979	0.261919
C68	C	0.903017	1.074979	0.761919
C69	C	0.464793	0.542287	0.301937
C70	C	0.964793	1.042287	0.801937
C71	C	0.213208	0.905602	0.301939
C72	C	0.713208	1.405602	0.801939
C73	C	0.105994	0.905611	0.301941
C74	C	0.605994	1.405611	0.801941
C75	C	-0.090301	0.905630	0.301961
C76	C	0.409699	1.405630	0.801961
C77	C	0.018931	0.905621	0.301952
C78	C	0.518931	1.405621	0.801952
C79	C	0.715415	0.905580	0.301940
C80	C	1.215415	1.405580	0.801940
C81	C	0.822629	0.905636	0.301964
C82	C	1.322629	1.405636	0.801964
C83	C	0.464781	0.905634	0.465356
C84	C	0.964781	1.405634	0.965356
C85	C	0.464773	0.905657	0.534997
C86	C	0.964773	1.405657	1.034997
C87	C	0.464827	1.069006	0.301951
C88	C	0.964827	1.569006	0.801951
C89	C	0.464839	1.138647	0.301959
C90	C	0.964839	1.638647	0.801959
C91	C	0.464751	0.905567	0.139145
C92	C	0.964751	1.405567	0.639145
C93	C	0.464487	0.905666	0.069504
C94	C	0.964487	1.405666	0.569504
C95	C	0.403083	0.945733	0.567717
C96	C	0.903083	1.445733	1.067717
C97	C	0.403042	0.945732	0.633153
C98	C	0.903042	1.445732	1.133153
C99	C	0.464707	0.905661	0.665865
C100	C	0.964707	1.405661	1.165865
C101	C	0.526401	0.865577	0.633137
C102	C	1.026401	1.365577	1.133137
C103	C	0.526434	0.865575	0.567703
C104	C	1.026434	1.365575	1.067703
C105	C	0.551559	0.900713	0.769542
C106	C	1.051559	1.400713	1.269542
C107	C	0.551528	0.900720	0.834975
C108	C	1.051528	1.400720	1.334975
C109	C	0.464605	0.905665	0.867686
C110	C	0.964605	1.405665	1.367686
C111	C	0.377711	0.910617	0.834956
C112	C	0.877711	1.410617	1.334956
C113	C	0.377744	0.910615	0.769521
C114	C	0.877744	1.410615	1.269521
C115	C	0.464678	0.905659	0.736818
C116	C	0.964678	1.405659	1.236818
C117	C	0.402865	0.945743	0.971359
C118	C	0.902865	1.445743	1.471359
C119	C	0.402822	0.945738	1.036796
C120	C	0.902822	1.445738	1.536796
C121	C	0.526190	0.865586	1.036779
C122	C	1.026190	1.365586	1.536779
C123	C	0.526225	0.865588	0.971343
C124	C	1.026225	1.365588	1.471343
C125	C	0.464564	0.905670	0.938637
C126	C	0.964564	1.405670	1.438637
H127	H	0.576870	0.667112	0.374506
H128	H	1.076870	1.167112	0.874506
F129	F	0.337271	0.540139	0.219342
F130	F	0.837271	1.040139	0.719342
H131	H	0.352710	0.667036	0.229335
H132	H	0.852710	1.167036	0.729335
F133	F	0.592096	0.822918	0.532879
F134	F	1.092096	1.322918	1.032879
F135	F	0.591888	0.822935	0.936519
F136	F	1.091888	1.322935	1.436519
F137	F	0.644008	0.895456	0.869803
F138	F	1.144008	1.395456	1.369803
H139	H	0.576898	0.263475	0.374539
H140	H	1.076898	0.763475	0.874539
F141	F	0.592317	0.540228	0.384527
F142	F	1.092317	1.040228	0.884527
F143	F	0.285368	0.473420	0.291926
F144	F	0.785368	0.973420	0.791926
H145	H	0.307113	0.346536	0.293131
H146	H	0.807113	0.846536	0.793131
F147	F	0.644083	0.895464	0.734736
F148	F	1.144083	1.395464	1.234736
F149	F	0.592027	0.822929	0.667953
F150	F	1.092027	1.322929	1.167953
H151	H	0.306992	0.914645	0.742875
H152	H	0.806992	1.414645	1.242875
H153	H	0.352873	0.978370	0.541092
H154	H	0.852873	1.478370	1.041092
F155	F	0.592355	0.136593	0.384553
F156	F	1.092355	0.636593	0.884553
F157	F	0.285194	0.915883	0.869763
F158	F	0.785194	1.415883	1.369763
F159	F	0.337237	0.988399	0.936548
F160	F	0.837237	1.488399	1.436548
F161	F	0.337320	0.136499	0.219359
F162	F	0.837320	0.636499	0.719359
H163	H	0.352581	0.978372	1.063435
H164	H	0.852581	1.478372	1.563435
F165	F	0.644242	0.338373	0.311972
F166	F	1.144242	0.838373	0.811972
H167	H	0.352801	0.978366	0.659798
H168	H	0.852801	1.478366	1.159798
F169	F	0.644231	0.473446	0.311957
F170	F	1.144231	0.973446	0.811957
F171	F	0.337305	0.271573	0.219358
F172	F	0.837305	0.771573	0.719358
F173	F	0.591813	0.822934	1.071590
F174	F	1.091813	1.322934	1.571590
