data_functionalizedCrystal
_audit_creation_method	'MofGen! by Chris Wilmer'
_symmetry_space_group_name_H-M	'P1'
_symmetry_Int_Tables_number	1
_symmetry_cell_setting	triclinic
loop_
_symmetry_equiv_pos_as_xyz
  x,y,z
_cell_length_a	11.026607
_cell_length_b	15.995350
_cell_length_c	9.482900
_cell_angle_alpha	99.336743
_cell_angle_beta	78.636152
_cell_angle_gamma	96.039196
loop_
_atom_site_label
_atom_site_type_symbol
_atom_site_fract_x
_atom_site_fract_y
_atom_site_fract_z
O1	O	1.629075	0.340363	-0.120882
O2	O	1.275769	0.300437	-0.120885
O3	O	1.462080	0.199968	-0.120882
O4	O	1.442765	0.440832	-0.120885
O5	O	1.424236	0.220481	0.120910
O6	O	1.237926	0.320950	0.120907
O7	O	1.591231	0.360875	0.120910
Cu8	Cu	1.411123	0.342785	0.142986
Cu9	Cu	1.455878	0.318527	-0.142961
O10	O	1.404921	0.461344	0.120907
C11	C	1.211637	0.303328	0.000010
C12	C	1.076923	0.281371	0.000009
C13	C	1.003118	0.341997	0.000007
C14	C	0.863884	0.319305	0.000005
C15	C	1.442360	0.178909	0.000011
C16	C	1.439967	0.085597	0.000003
C17	C	1.431369	-0.253446	0.000008
C18	C	1.298767	-0.226057	-0.000536
C19	C	1.301076	-0.128960	0.000009
C20	C	1.435634	-0.085243	0.000005
C21	C	1.479470	-0.104742	0.138078
C22	C	1.476118	-0.201871	0.138193
C23	C	1.521895	-0.225142	-0.136769
C24	C	1.522149	-0.128356	-0.138594
C25	C	1.438051	0.009819	0.000008
C26	C	1.428954	-0.348507	0.000014
C27	C	1.655364	0.357984	0.000012
C28	C	1.790080	0.379940	0.000004
C29	C	1.424641	0.482403	0.000011
C30	C	1.427036	0.575714	0.000009
N31	N	1.379654	0.359848	0.344106
N32	N	1.487357	0.301459	-0.344081
C33	C	1.446587	0.323554	0.416306
C34	C	1.420413	0.337759	0.583723
H35	H	0.829962	0.448650	0.000012
N36	N	0.813879	0.233107	0.000021
N37	N	0.821662	0.194418	0.101944
H38	H	0.786346	0.133540	0.101957
N39	N	1.583601	0.249323	0.577976
N40	N	1.693172	0.268666	0.594833
H41	H	1.761154	0.231856	0.539775
H42	H	1.037037	0.212664	-0.000028
N43	N	1.255966	-0.113573	-0.124156
N44	N	1.222552	-0.174639	-0.211821
H45	H	1.190684	-0.163778	-0.299514
N46	N	1.283440	0.412016	0.422010
N47	N	1.173865	0.392704	0.405144
H48	H	1.105909	0.429548	0.460160
H49	H	1.417932	-0.074495	0.240830
N50	N	1.251691	-0.269867	-0.124762
N51	N	1.315313	-0.321791	-0.214346
H52	H	1.282069	-0.352736	-0.302089
H53	H	1.230558	-0.245256	0.097926
H54	H	1.043008	0.410702	0.000014
H55	H	1.233768	-0.100491	0.099153
H56	H	1.412240	-0.218609	0.241408
H57	H	1.572555	-0.218904	0.144455
N58	N	1.602478	-0.067785	0.144502
N59	N	1.659342	-0.026562	0.047158
H60	H	1.746218	-0.000460	0.051690
H61	H	1.494892	-0.261099	-0.241421
H62	H	1.621579	-0.098912	-0.146934
N63	N	1.482244	-0.114016	-0.266727
N64	N	1.390447	-0.072206	-0.256123
H65	H	1.362260	-0.062073	-0.346615
H66	H	1.523265	0.281962	0.354179
H67	H	1.619870	-0.242236	-0.137701
N68	N	1.324204	0.389924	0.661666
N69	N	1.303074	0.401385	0.797555
H70	H	1.235126	0.438226	0.852606
