data_functionalizedCrystal
_audit_creation_method	'MofGen! by Chris Wilmer'
_symmetry_space_group_name_H-M	'P1'
_symmetry_Int_Tables_number	1
_symmetry_cell_setting	triclinic
loop_
_symmetry_equiv_pos_as_xyz
  x,y,z
_cell_length_a	27.732048
_cell_length_b	14.853567
_cell_length_c	13.330367
_cell_angle_alpha	90.000844
_cell_angle_beta	90.002051
_cell_angle_gamma	83.138792
loop_
_atom_site_label
_atom_site_type_symbol
_atom_site_fract_x
_atom_site_fract_y
_atom_site_fract_z
O1	O	-0.641431	-0.107269	-0.083287
O2	O	-0.500714	-0.123580	-0.083316
O3	O	-0.574831	0.015866	-0.083303
O4	O	-0.567314	-0.246715	-0.083299
O5	O	-0.574820	0.015869	0.083544
O6	O	-0.500703	-0.123577	0.083531
O7	O	-0.641420	-0.107266	0.083560
Cu8	Cu	-0.571061	-0.115421	0.098780
Cu9	Cu	-0.571073	-0.115425	-0.098536
O10	O	-0.567303	-0.246713	0.083548
C11	C	-0.482700	-0.123236	0.000104
C12	C	-0.429040	-0.122205	0.000092
N13	N	-0.571055	-0.115418	0.237562
C14	C	-0.659434	-0.107610	0.000139
C15	C	-0.713094	-0.108641	0.000143
C16	C	-0.090580	-0.198118	0.000137
C17	C	0.111097	-0.194293	0.000146
O18	O	0.142028	-0.263710	0.000191
N19	N	0.130608	-0.111607	0.000143
C20	C	0.099695	-0.029872	0.000144
O21	O	0.120918	0.040545	0.000152
C22	C	-0.101981	-0.033698	0.000142
C23	C	-0.121489	-0.116389	0.000135
C24	C	-0.110088	-0.280803	0.000131
C25	C	-0.160504	-0.281758	0.000124
C26	C	-0.191413	-0.200029	0.000122
C27	C	-0.171905	-0.117344	0.000128
C28	C	-0.132893	0.048036	0.000151
C29	C	-0.183314	0.047073	0.000153
C30	C	-0.202822	-0.035619	0.000146
C31	C	-0.253230	-0.036571	0.000118
N32	N	-0.272740	-0.119257	0.000121
C33	C	-0.241832	-0.200986	0.000123
C34	C	0.205579	-0.027869	0.000143
C35	C	0.255998	-0.026912	0.000142
C36	C	0.267396	-0.191334	0.000146
C37	C	0.216976	-0.192289	0.000140
C38	C	0.186068	-0.110555	0.000146
C39	C	-0.347710	-0.202986	0.000106
C40	C	-0.398132	-0.203934	0.000094
C41	C	-0.409526	-0.039513	0.000096
C42	C	-0.359109	-0.038564	0.000102
C43	C	-0.328202	-0.120308	0.000111
O44	O	-0.284189	0.032809	0.000085
O45	O	-0.263064	-0.271393	0.000138
C46	C	-0.040164	-0.197163	0.000145
C47	C	-0.020656	-0.114478	0.000151
C48	C	-0.051564	-0.032749	0.000149
C49	C	0.029763	-0.113522	0.000149
C50	C	0.060672	-0.195251	0.000151
C51	C	0.041161	-0.277936	0.000154
C52	C	-0.009255	-0.278892	0.000147
C53	C	-0.032054	0.049937	0.000146
C54	C	0.018363	0.050885	0.000152
C55	C	0.049272	-0.030844	0.000154
C56	C	-0.574485	0.049451	0.000117
C57	C	-0.573464	0.149518	0.000108
C58	C	-0.567649	-0.280297	0.000125
C59	C	-0.568670	-0.380364	0.000128
C60	C	-0.525122	0.561265	0.000117
C61	C	-0.613175	0.583979	0.000135
C62	C	-0.614135	0.489961	0.000130
C63	C	-0.570588	0.431590	0.000119
C64	C	-0.526081	0.467238	0.000115
C65	C	-0.658641	0.454306	0.000145
C66	C	-0.659603	0.360282	0.000140
C67	C	-0.616055	0.301910	0.000122
C68	C	-0.571546	0.337563	0.000117
C69	C	-0.527999	0.279193	0.000106
C70	C	-0.483489	0.314844	0.000093
C71	C	-0.482533	0.408866	0.000097
C72	C	-0.617012	0.207888	0.000119
C73	C	-0.528957	0.185166	0.000103
N74	N	-0.571083	-0.115421	-0.237317
C75	C	-0.538253	-0.177148	0.710179
C76	C	-0.603907	-0.053695	0.710158
C77	C	-0.603901	-0.053692	0.605140
C78	C	-0.571072	-0.115419	0.552636
C79	C	-0.538247	-0.177149	0.605151
C80	C	-0.636729	0.008030	0.552617
C81	C	-0.636725	0.008035	0.447592
C82	C	-0.603892	-0.053689	0.395087
C83	C	-0.571066	-0.115420	0.447608
C84	C	-0.538236	-0.177147	0.395105
C85	C	-0.505407	-0.238875	0.447624
C86	C	-0.505415	-0.238872	0.552646
C87	C	-0.603885	-0.053692	0.290065
C88	C	-0.538231	-0.177148	0.290077
H89	H	-0.322551	-0.269550	0.000116
C90	C	-0.502145	-0.245045	0.767944
H91	H	-0.506850	-0.236211	0.838012
H92	H	-0.469881	-0.235671	0.750738
H93	H	-0.507437	-0.305149	0.750730
C94	C	-0.181956	-0.372719	0.000136
H95	H	-0.156322	-0.421250	0.000150
H96	H	-0.201390	-0.376526	-0.058044
H97	H	-0.201384	-0.376506	0.058330
C98	C	-0.469312	-0.306772	0.610418
H99	H	-0.474022	-0.297937	0.680484
H100	H	-0.437045	-0.297401	0.593224
H101	H	-0.474603	-0.366875	0.593201
H102	H	-0.084927	-0.347360	0.000137
C103	C	-0.640017	0.014198	0.767909
H104	H	-0.635317	0.005361	0.837978
H105	H	-0.672280	0.004826	0.750686
H106	H	-0.634723	0.074303	0.750704
C107	C	-0.672838	0.075921	0.610370
H108	H	-0.668135	0.067087	0.680439
H109	H	-0.705102	0.066544	0.593155
H110	H	-0.667548	0.136027	0.593160
C111	C	-0.672830	0.075939	0.389830
H112	H	-0.692380	0.112704	0.436142
H113	H	-0.692968	0.043772	0.348847
H114	H	-0.655411	0.113248	0.348875
H115	H	-0.695845	0.331264	0.000149
C116	C	-0.665965	0.168674	0.000135
H117	H	-0.691763	0.216903	0.000141
H118	H	-0.668164	0.132463	0.058316
H119	H	-0.668175	0.132474	-0.058058
C120	C	0.171586	0.062045	0.000139
H121	H	0.190431	0.111420	0.000126
H122	H	0.151680	0.065103	0.058320
H123	H	0.151681	0.065090	-0.058054
C124	C	0.195523	-0.283248	0.000141
H125	H	0.221156	-0.331782	0.000147
H126	H	0.176089	-0.287045	-0.058039
H127	H	0.176095	-0.287042	0.058335
H128	H	-0.694095	0.501837	0.000162
C129	C	-0.476166	0.600477	0.000107
H130	H	-0.481829	0.664833	0.000115
H131	H	-0.458236	0.580399	-0.058078
H132	H	-0.458232	0.580400	0.058296
H133	H	-0.648630	0.631509	0.000152
H134	H	-0.448033	0.267307	0.000092
C135	C	0.301402	-0.281233	0.000155
H136	H	0.334222	-0.268813	0.000163
H137	H	0.295485	-0.315181	-0.058022
H138	H	0.295483	-0.315160	0.058352
H139	H	-0.630616	-0.003438	0.247309
H140	H	-0.511495	-0.227410	0.247335
H141	H	-0.446296	0.437903	0.000087
C142	C	0.039818	0.141849	0.000153
H143	H	0.074273	0.130723	0.000151
H144	H	0.029209	0.175469	0.058335
H145	H	0.029212	0.175468	-0.058039
H146	H	-0.478679	-0.289137	0.404864
H147	H	-0.414012	-0.271274	0.000088
H148	H	-0.117019	0.115372	0.000157
C149	C	0.277451	0.064048	0.000139
H150	H	0.251817	0.112581	0.000149
H151	H	0.296882	0.067845	-0.058042
H152	H	0.296881	0.067840	0.058332
H153	H	-0.208478	0.113633	0.000159
C154	C	0.075165	-0.367838	0.000154
H155	H	0.056329	-0.417227	0.000145
H156	H	0.095070	-0.370876	0.058338
H157	H	0.095069	-0.370877	-0.058036
H158	H	-0.057215	0.116492	0.000147
H159	H	-0.343225	0.028769	0.000093
C160	C	-0.481055	0.120962	0.000087
H161	H	-0.487999	0.059859	0.000082
H162	H	-0.462802	0.131703	0.058263
H163	H	-0.462816	0.131705	-0.058111
C164	C	-0.443529	0.050384	0.000088
H165	H	-0.424693	0.099772	0.000084
H166	H	-0.463436	0.053425	0.058268
H167	H	-0.463432	0.053422	-0.058106
H168	H	-0.025133	-0.346227	0.000142
