data_functionalizedCrystal
_audit_creation_method	'MofGen! by Chris Wilmer'
_symmetry_space_group_name_H-M	'P1'
_symmetry_Int_Tables_number	1
_symmetry_cell_setting	triclinic
loop_
_symmetry_equiv_pos_as_xyz
  x,y,z
_cell_length_a	11.026607
_cell_length_b	17.038272
_cell_length_c	10.065875
_cell_angle_alpha	99.426590
_cell_angle_beta	79.302338
_cell_angle_gamma	99.848786
loop_
_atom_site_label
_atom_site_type_symbol
_atom_site_fract_x
_atom_site_fract_y
_atom_site_fract_z
O1	O	1.661277	0.323101	-0.113507
O2	O	1.304065	0.285271	-0.113508
O3	O	1.480547	0.190072	-0.113497
O4	O	1.484796	0.418300	-0.113518
O5	O	1.446904	0.208319	0.113490
O6	O	1.270422	0.303517	0.113479
O7	O	1.627634	0.341348	0.113479
Zn8	Zn	1.443687	0.325329	0.149518
Zn9	Zn	1.488013	0.301289	-0.149547
O10	O	1.451153	0.436546	0.113468
C11	C	1.241312	0.287415	-0.000014
C12	C	1.104451	0.266610	-0.000014
C13	C	1.036576	0.324055	-0.000020
C14	C	0.895122	0.302554	-0.000020
C15	C	1.459863	0.169523	-0.000004
C16	C	1.448341	0.081107	-0.000004
C17	C	1.554125	0.045899	-0.000002
C18	C	1.543294	-0.037179	-0.000015
C19	C	1.426676	-0.085047	-0.000020
C20	C	1.320885	-0.049835	-0.000026
C21	C	1.331719	0.033241	-0.000022
C22	C	1.388403	-0.336200	-0.000039
C23	C	1.377576	-0.419281	-0.000038
C24	C	1.599986	-0.406621	-0.000030
C25	C	1.610809	-0.323543	-0.000019
C26	C	1.505019	-0.288338	-0.000032
C27	C	1.415601	-0.169966	-0.000029
C28	C	1.516096	-0.203421	-0.000032
C29	C	1.690387	0.339203	-0.000017
C30	C	1.827251	0.360008	-0.000026
C31	C	1.471837	0.457095	-0.000028
C32	C	1.483360	0.545511	-0.000036
N33	N	1.413444	0.341737	0.353622
N34	N	1.518264	0.284877	-0.353650
C35	C	1.477482	0.306992	0.421405
C36	C	1.454217	0.319627	0.578571
H37	H	1.057843	0.201508	-0.000043
H38	H	1.320650	-0.208950	-0.000030
H39	H	1.083188	0.389155	-0.000019
Br40	Br	1.712397	0.110857	0.000024
Br41	Br	1.334111	0.384795	0.675760
H42	H	0.873855	0.425112	-0.000023
H43	H	1.549527	0.267887	0.363085
H44	H	1.341390	0.380834	0.411944
Br45	Br	1.769088	-0.258588	-0.000056
Br46	Br	1.638669	0.219927	0.549165
H47	H	0.848520	0.237447	-0.000049
Br48	Br	1.686865	-0.084958	-0.000014
H49	H	1.686114	-0.435294	-0.000022
H50	H	1.302260	-0.307547	-0.000049
Br51	Br	1.219297	-0.484245	-0.000030
Br52	Br	1.162619	-0.114799	-0.000055
H53	H	1.245578	0.061906	-0.000024
H54	H	1.611050	-0.164446	-0.000059
