data_functionalizedCrystal
_audit_creation_method	'MofGen! by Chris Wilmer'
_symmetry_space_group_name_H-M	'P1'
_symmetry_Int_Tables_number	1
_symmetry_cell_setting	triclinic
loop_
_symmetry_equiv_pos_as_xyz
  x,y,z
_cell_length_a	21.395362
_cell_length_b	19.077068
_cell_length_c	21.395355
_cell_angle_alpha	92.279051
_cell_angle_beta	89.956060
_cell_angle_gamma	92.343691
loop_
_atom_site_label
_atom_site_type_symbol
_atom_site_fract_x
_atom_site_fract_y
_atom_site_fract_z
Zn1	Zn	0.947861	-0.279990	-0.364586
Zn2	Zn	1.447861	0.220010	0.135414
Zn3	Zn	0.943561	-0.397672	-0.264012
Zn4	Zn	1.443561	0.102328	0.235988
Zn5	Zn	0.843074	-0.280023	-0.259789
Zn6	Zn	1.343074	0.219977	0.240211
Zn7	Zn	0.838842	-0.397686	-0.368717
Zn8	Zn	1.338842	0.102314	0.131283
O9	O	0.893334	-0.338843	-0.314276
O10	O	1.393334	0.161157	0.185724
O11	O	1.034969	-0.295581	-0.351283
O12	O	1.534969	0.204419	0.148717
O13	O	0.930203	-0.382073	-0.175774
O14	O	1.430203	0.117927	0.324226
O15	O	0.860546	-0.181525	-0.270194
O16	O	1.360546	0.318475	0.229806
O17	O	1.031810	-0.382041	-0.277392
O18	O	1.531810	0.117959	0.222608
O19	O	0.937532	-0.181501	-0.347188
O20	O	1.437532	0.318499	0.152812
O21	O	0.856376	-0.295637	-0.172671
O22	O	1.356376	0.204363	0.327329
O23	O	0.754834	-0.295651	-0.274200
O24	O	1.254834	0.204349	0.225800
O25	O	0.853331	-0.382066	-0.455847
O26	O	1.353331	0.117934	0.044153
O27	O	0.751725	-0.382098	-0.354229
O28	O	1.251725	0.117902	0.145771
O29	O	0.933427	-0.295595	-0.452812
O30	O	1.433427	0.204405	0.047188
O31	O	0.926098	-0.496167	-0.281398
O32	O	1.426098	0.003833	0.218602
O33	O	0.849162	-0.496177	-0.358324
O34	O	1.349162	0.003823	0.141676
C35	C	0.730545	-0.338880	-0.314205
C36	C	1.230545	0.161120	0.185795
C37	C	0.660903	-0.338913	-0.314190
C38	C	1.160903	0.161087	0.185810
C39	C	0.626585	-0.383985	-0.355803
C40	C	1.126585	0.116015	0.144197
C41	C	0.561150	-0.383968	-0.355830
C42	C	1.061150	0.116032	0.144170
C43	C	0.530036	-0.338886	-0.314233
C44	C	1.030036	0.161114	0.185767
C45	C	0.564362	-0.293804	-0.272617
C46	C	1.064362	0.206196	0.227383
C47	C	0.629796	-0.293818	-0.272595
C48	C	1.129796	0.206182	0.227405
C49	C	0.426513	-0.333216	-0.257626
C50	C	0.926513	0.166784	0.242374
C51	C	0.361081	-0.333207	-0.257647
C52	C	0.861081	0.166793	0.242353
C53	C	0.328216	-0.338840	-0.314301
C54	C	0.828216	0.161160	0.185699
C55	C	0.360792	-0.344496	-0.370937
C56	C	0.860792	0.155504	0.129063
C57	C	0.426226	-0.344510	-0.370915
C58	C	0.926226	0.155490	0.129085
C59	C	0.459084	-0.338866	-0.314253
C60	C	0.959084	0.161134	0.185747
C61	C	0.222946	-0.383896	-0.355947
C62	C	0.722946	0.116104	0.144053
C63	C	0.157511	-0.383874	-0.355976
C64	C	0.657511	0.116126	0.144024
C65	C	0.160724	-0.293714	-0.272756
C66	C	0.660724	0.206286	0.227244
C67	C	0.226158	-0.293732	-0.272734
C68	C	0.726158	0.206268	0.227266
C69	C	0.257266	-0.338827	-0.314328
C70	C	0.757266	0.161173	0.185672
C71	C	0.886721	-0.521710	-0.320781
C72	C	1.386721	-0.021710	0.179219
C73	C	0.883949	-0.599942	-0.323585
C74	C	1.383949	-0.099942	0.176415
C75	C	0.922735	-0.636666	-0.284884
C76	C	1.422735	-0.136666	0.215116
C77	C	0.920132	-0.710173	-0.287525
C78	C	1.420132	-0.210173	0.212475
C79	C	0.878739	-0.746954	-0.328864
C80	C	1.378739	-0.246954	0.171136
C81	C	0.839952	-0.710224	-0.367570
C82	C	1.339952	-0.210224	0.132430
C83	C	0.842559	-0.636719	-0.364931
C84	C	1.342559	-0.136719	0.135069
C85	C	0.866647	-0.966795	-0.341049
C86	C	1.366647	-0.466795	0.158951
C87	C	0.864041	-1.040305	-0.343683
C88	C	1.364041	-0.540305	0.156317
C89	C	0.944222	-1.040249	-0.263639
C90	C	1.444222	-0.540249	0.236361
C91	C	0.946823	-0.966742	-0.261002
C92	C	1.446823	-0.466742	0.238998
C93	C	0.908038	-0.930019	-0.299709
C94	C	1.408038	-0.430019	0.200291
N95	N	0.876076	-0.822090	-0.331564
N96	N	1.376076	-0.322090	0.168436
N97	N	0.910705	-0.854884	-0.297013
N98	N	1.410705	-0.354884	0.202987
C99	C	1.056759	-0.338806	-0.314348
C100	C	1.556759	0.161194	0.185652
C101	C	1.126401	-0.338790	-0.314379
C102	C	1.626401	0.161210	0.185621
C103	C	0.893387	-0.338828	-0.477699
C104	C	1.393387	0.161172	0.022301
C105	C	0.893409	-0.338822	-0.547340
C106	C	1.393409	0.161178	-0.047340
C107	C	0.899990	-0.155261	-0.307759
C108	C	1.399990	0.344739	0.192241
C109	C	0.902827	-0.077030	-0.304982
C110	C	1.402827	0.422970	0.195018
C111	C	0.935113	-0.293795	-0.578474
C112	C	1.435113	0.206205	-0.078474
C113	C	0.935114	-0.293765	-0.643908
C114	C	1.435114	0.206235	-0.143908
C115	C	0.893416	-0.338774	-0.678207
C116	C	1.393416	0.161226	-0.178207
C117	C	0.851704	-0.383805	-0.647065
C118	C	1.351704	0.116195	-0.147065
C119	C	0.851700	-0.383829	-0.581632
C120	C	1.351700	0.116171	-0.081632
C121	C	0.886177	-0.402150	-0.784134
C122	C	1.386177	0.097850	-0.284134
C123	C	0.886184	-0.402127	-0.849566
C124	C	1.386184	0.097873	-0.349566
C125	C	0.893422	-0.338700	-0.880025
C126	C	1.393422	0.161300	-0.380025
C127	C	0.900666	-0.275294	-0.845043
C128	C	1.400666	0.224706	-0.345043
C129	C	0.900663	-0.275318	-0.779610
C130	C	1.400663	0.224682	-0.279610
C131	C	0.893414	-0.338753	-0.749158
C132	C	1.393414	0.161247	-0.249158
C133	C	0.935129	-0.293636	-0.982110
C134	C	1.435129	0.206364	-0.482110
C135	C	0.935125	-0.293605	-1.047545
C136	C	1.435125	0.206395	-0.547545
C137	C	0.851718	-0.383651	-1.050701
C138	C	1.351718	0.116349	-0.550701
C139	C	0.851719	-0.383676	-0.985267
C140	C	1.351719	0.116324	-0.485267
C141	C	0.893428	-0.338670	-0.950975
C142	C	1.393428	0.161330	-0.450975
C143	C	0.893320	-0.338806	-0.151487
C144	C	1.393320	0.161194	0.348513
C145	C	0.893426	-0.338614	-0.081839
C146	C	1.393426	0.161386	0.418161
H147	H	0.651908	-0.420704	-0.389674
H148	H	1.151908	0.079296	0.110326
H149	H	0.817751	-0.420450	-0.674995
H150	H	1.317751	0.079550	-0.174995
Cl151	Cl	0.672941	-0.237151	-0.220276
Cl152	Cl	1.172941	0.262849	0.279724
Cl153	Cl	0.262056	-0.440581	-0.408240
Cl154	Cl	0.762056	0.059419	0.091760
Cl155	Cl	0.787919	-0.756463	-0.419543
Cl156	Cl	1.287919	-0.256463	0.080457
Cl157	Cl	0.987534	-0.237140	-0.683056
Cl158	Cl	1.487534	0.262860	-0.183056
Cl159	Cl	0.793800	-0.590551	-0.413588
Cl160	Cl	1.293800	-0.090551	0.086412
H161	H	0.880115	-0.453787	-0.759340
H162	H	1.380115	0.046213	-0.259340
Cl163	Cl	0.992981	-1.086419	-0.214986
Cl164	Cl	1.492981	-0.586419	0.285014
H165	H	0.906559	-0.223690	-0.751130
H166	H	1.406559	0.276310	-0.251130
H167	H	0.906561	-0.223645	-0.869841
H168	H	1.406561	0.276355	-0.369841
H169	H	0.969088	-0.256985	-0.954188
H170	H	1.469088	0.243015	-0.454188
Cl171	Cl	0.987568	-0.237004	-1.086686
Cl172	Cl	1.487568	0.262996	-0.586686
Cl173	Cl	0.467177	-0.351615	-0.442110
Cl174	Cl	0.967177	0.148385	0.057890
Cl175	Cl	0.799292	-0.440229	-1.093813
Cl176	Cl	1.299292	0.059771	-0.593813
Cl177	Cl	0.974770	-0.590434	-0.232908
Cl178	Cl	1.474770	-0.090434	0.267092
Cl179	Cl	0.817887	-0.920638	-0.389709
Cl180	Cl	1.317887	-0.420638	0.110291
Cl181	Cl	0.968895	-0.756338	-0.238872
Cl182	Cl	1.468895	-0.256338	0.261128
H183	H	0.880290	-0.453757	-0.878044
H184	H	1.380290	0.046243	-0.378044
H185	H	0.129570	-0.420576	-0.389866
H186	H	0.629570	0.079424	0.110134
Cl187	Cl	0.987544	-0.237211	-0.535367
Cl188	Cl	1.487544	0.262789	-0.035367
Cl189	Cl	0.799268	-0.440440	-0.542490
Cl190	Cl	1.299268	0.059560	-0.042490
H191	H	0.539024	-0.257097	-0.238749
H192	H	1.039024	0.242903	0.261251
Cl193	Cl	0.998870	-0.920508	-0.209039
Cl194	Cl	1.498870	-0.420508	0.290961
H195	H	0.135391	-0.257003	-0.238890
H196	H	0.635391	0.242997	0.261110
Cl197	Cl	0.269304	-0.237068	-0.220415
Cl198	Cl	0.769304	0.262932	0.279585
H199	H	0.817763	-0.420347	-0.959918
H200	H	1.317763	0.079653	-0.459918
H201	H	0.533203	-0.420671	-0.389719
H202	H	1.033203	0.079329	0.110281
Cl203	Cl	0.319485	-0.351573	-0.442165
Cl204	Cl	0.819485	0.148427	0.057835
H205	H	0.334562	-0.328606	-0.211530
H206	H	0.834562	0.171394	0.288470
Cl207	Cl	0.811993	-1.086543	-0.395648
Cl208	Cl	1.311993	-0.586543	0.104352
Cl209	Cl	0.467821	-0.326137	-0.186396
Cl210	Cl	0.967821	0.173863	0.313604
