data_functionalizedCrystal
_audit_creation_method	'MofGen! by Chris Wilmer'
_symmetry_space_group_name_H-M	'P1'
_symmetry_Int_Tables_number	1
_symmetry_cell_setting	triclinic
loop_
_symmetry_equiv_pos_as_xyz
  x,y,z
_cell_length_a	14.560438
_cell_length_b	14.560438
_cell_length_c	20.016444
_cell_angle_alpha	59.996430
_cell_angle_beta	89.999508
_cell_angle_gamma	60.005968
loop_
_atom_site_label
_atom_site_type_symbol
_atom_site_fract_x
_atom_site_fract_y
_atom_site_fract_z
Zr1	Zr	0.884893	1.005204	-0.087642
O2	O	0.738270	1.196802	-0.194320
O3	O	0.929825	0.813612	-0.054941
O4	O	0.929851	1.005209	-0.194318
O5	O	0.738242	1.005199	0.055001
O6	O	1.080992	1.005206	-0.194314
O7	O	0.738244	1.005205	-0.054943
O8	O	1.080945	0.662474	0.055006
O9	O	0.738288	1.347931	-0.194318
O10	O	1.061802	0.892412	-0.040990
O11	O	0.949006	0.892410	0.041058
O12	O	0.949036	1.117990	-0.123040
O13	O	0.836240	1.117988	-0.040992
Zr14	Zr	1.125942	1.005190	0.087713
Zr15	Zr	1.125945	1.005199	-0.087636
Zr16	Zr	0.884890	1.005194	0.087707
Zr17	Zr	0.884923	1.246237	-0.087639
Zr18	Zr	1.125913	0.764156	0.087710
O19	O	1.081011	1.196782	0.055012
O20	O	1.081015	1.196795	-0.194312
O21	O	0.738265	1.196788	0.055004
O22	O	1.272566	0.813592	0.194391
O23	O	1.272570	0.813605	-0.054933
O24	O	0.929820	0.813599	0.194383
O25	O	1.272594	1.005195	-0.054930
O26	O	1.080985	1.005185	0.194389
O27	O	0.929844	1.005188	0.194385
O28	O	1.272592	1.005189	0.055014
O29	O	0.929893	1.347927	-0.194314
O30	O	1.080943	0.662467	0.194385
O31	O	1.272547	0.662463	0.194389
O32	O	1.272550	0.662470	0.055010
O33	O	0.738286	1.347923	-0.054939
O34	O	0.929890	1.347920	-0.054935
O35	O	1.061799	0.892403	0.123111
O36	O	1.174595	0.892406	0.041064
O37	O	1.061830	1.117984	-0.040987
O38	O	0.949033	1.117982	0.041061
C39	C	1.005381	0.703701	0.000032
C40	C	1.005368	0.601376	0.000031
C41	C	1.088651	0.470055	0.060603
C42	C	1.088699	0.373875	0.060609
C43	C	0.922176	0.540352	-0.060535
C44	C	0.922125	0.636530	-0.060538
C45	C	1.171895	0.434901	0.121171
C46	C	1.255185	0.303573	0.181748
C47	C	1.255233	0.207393	0.181754
C48	C	1.171990	0.242540	0.121185
C49	C	0.703898	1.005202	0.000028
C50	C	0.601565	1.005204	0.000026
C51	C	0.553483	1.005210	-0.060542
C52	C	0.457337	1.005197	-0.060531
C53	C	0.457362	1.005180	0.060619
C54	C	0.553510	1.005183	0.060611
C55	C	0.601537	1.005231	-0.121127
C56	C	0.553454	1.005238	-0.181701
C57	C	0.457309	1.005226	-0.181690
C58	C	0.409246	1.005207	-0.121105
C59	C	1.306938	1.005191	0.000043
C60	C	1.409271	1.005189	0.000045
C61	C	1.005422	1.005208	-0.219299
C62	C	1.005423	1.005212	-0.293739
C63	C	1.005455	1.306693	0.000039
C64	C	1.005467	1.409018	0.000040
C65	C	1.088687	1.005194	-0.464993
C66	C	1.088687	1.005186	-0.534933
C67	C	0.922144	1.005195	-0.534930
C68	C	0.922149	1.005195	-0.464987
C69	C	1.005420	1.005201	-0.430023
C70	C	1.005416	1.005193	-0.569905
C71	C	1.005416	1.005183	-0.645738
C72	C	1.005421	1.005208	-0.354186
C73	C	1.005414	1.005185	0.219370
C74	C	1.005413	1.005181	0.293811
C75	C	1.306901	0.703695	0.000039
C76	C	1.409221	0.601368	0.000041
C77	C	1.005377	0.703689	0.219367
C78	C	1.005363	0.601360	0.293806
C79	C	1.306897	0.703683	0.219374
C80	C	1.409216	0.601353	0.293816
C81	C	0.703939	1.306710	-0.219303
C82	C	0.601620	1.409041	-0.293744
C83	C	0.703935	1.306699	0.000032
C84	C	0.601614	1.409026	0.000031
C85	C	1.005459	1.306704	-0.219296
C86	C	1.005472	1.409033	-0.293735
C87	C	1.064234	0.553302	0.371602
C88	C	1.064216	0.457167	0.441552
C89	C	1.005335	0.409084	0.433704
C90	C	0.946457	0.457152	0.355901
C91	C	0.946468	0.553292	0.285952
C92	C	1.516155	0.553298	0.285946
C93	C	1.612304	0.457161	0.355885
C94	C	1.601511	0.409073	0.433693
C95	C	1.494561	0.457137	0.441561
C96	C	1.398415	0.553279	0.371623
C97	C	0.494681	1.457107	-0.285875
C98	C	0.398532	1.553274	-0.355814
C99	C	0.409324	1.601367	-0.433622
C100	C	0.516274	1.553297	-0.441490
C101	C	0.612421	1.457138	-0.371551
C102	C	1.064366	1.457085	-0.285861
C103	C	1.064401	1.553221	-0.355798
C104	C	1.005535	1.601311	-0.433607
C105	C	0.946640	1.553249	-0.441479
C106	C	0.946612	1.457108	-0.371543
C107	C	1.398418	0.553294	-0.042787
C108	C	1.494563	0.457155	-0.042789
C109	C	1.612311	0.457167	0.042872
C110	C	1.516167	0.553312	0.042868
C111	C	1.291471	0.601351	-0.085615
C112	C	1.280663	0.553276	-0.128445
C113	C	1.376808	0.457137	-0.128447
C114	C	1.483761	0.409072	-0.085618
H115	H	1.322953	0.274966	0.231065
H116	H	1.679809	0.330788	0.490634
Br117	Br	1.368256	0.029167	0.263971
H118	H	0.679822	1.005245	-0.121143
Br119	Br	1.530833	0.618546	0.180359
Br120	Br	0.866745	1.618538	-0.547085
H121	H	0.898517	0.417989	0.349523
Br122	Br	0.866667	1.391917	-0.382244
H123	H	1.005566	1.679595	-0.490547
H124	H	1.156492	1.005197	-0.436526
H125	H	1.485791	0.417970	0.504921
H126	H	0.854293	0.743459	-0.109849
Br127	Br	0.278772	1.005168	-0.121086
H128	H	0.592597	1.005243	-0.231023
Br129	Br	0.530902	1.618577	-0.547093
Br130	Br	1.201701	1.005168	-0.582387
H131	H	1.213179	0.679626	-0.085614
Br132	Br	0.392063	1.005214	-0.263886
Br133	Br	0.866569	0.618497	0.180375
Br134	Br	1.135520	0.618519	-0.186579
H135	H	1.112358	1.592343	-0.349373
H136	H	0.331026	1.679665	-0.490563
Br137	Br	1.253287	0.618479	0.382318
H138	H	1.699378	0.418037	0.349464
H139	H	0.485872	1.417955	-0.222526
H140	H	0.311458	1.592397	-0.349392
H141	H	0.854346	1.005193	-0.563405
H142	H	1.005334	0.330801	0.490667
Br143	Br	0.757548	1.391911	-0.382246
H144	H	0.854342	1.005196	-0.436512
H145	H	0.592660	1.005177	0.109932
H146	H	1.172030	0.164217	0.121200
H147	H	1.562044	0.330794	-0.085626
H148	H	1.112301	1.417946	-0.222511
Br149	Br	1.362141	0.391907	-0.186582
H150	H	1.699397	0.418024	0.077742
Br151	Br	1.530824	0.618570	0.100985
H152	H	1.171867	0.513206	0.121171
H153	H	1.112183	0.592440	0.378007
Br154	Br	0.809212	0.588045	-0.142731
H155	H	1.112165	0.418041	0.504896
Br156	Br	0.392134	1.005157	0.142835
