data_functionalizedCrystal
_audit_creation_method	'MofGen! by Chris Wilmer'
_symmetry_space_group_name_H-M	'P1'
_symmetry_Int_Tables_number	1
_symmetry_cell_setting	triclinic
loop_
_symmetry_equiv_pos_as_xyz
  x,y,z
_cell_length_a	21.295418
_cell_length_b	16.120444
_cell_length_c	16.120728
_cell_angle_alpha	84.366715
_cell_angle_beta	87.130933
_cell_angle_gamma	92.943361
loop_
_atom_site_label
_atom_site_type_symbol
_atom_site_fract_x
_atom_site_fract_y
_atom_site_fract_z
Zn1	Zn	0.929864	-0.356592	0.489865
Zn2	Zn	0.929804	-0.489238	0.357175
Zn3	Zn	0.830240	-0.349516	0.350066
Zn4	Zn	0.818944	-0.496364	0.496852
O5	O	0.877213	-0.422927	0.423489
O6	O	1.017944	-0.374167	0.472314
O7	O	0.921298	-0.464760	0.239270
O8	O	0.848208	-0.233485	0.362711
O9	O	1.017900	-0.471622	0.374827
O10	O	0.921401	-0.238684	0.465421
O11	O	0.848149	-0.362107	0.234047
O12	O	0.740653	-0.369016	0.369486
O13	O	0.828956	-0.483766	0.612887
O14	O	0.732354	-0.476905	0.477330
O15	O	0.910448	-0.381076	0.607753
O16	O	0.910345	-0.607153	0.381603
O17	O	0.828897	-0.612388	0.484223
C18	C	0.713663	-0.422966	0.423395
C19	C	0.643694	-0.423004	0.423376
C20	C	0.606523	-0.479248	0.479454
C21	C	0.540780	-0.479230	0.479490
C22	C	0.512211	-0.422975	0.423435
C23	C	0.549390	-0.366720	0.367353
C24	C	0.615132	-0.366735	0.367323
N25	N	0.412154	-0.412712	0.349999
N26	N	0.349702	-0.412703	0.350029
C27	C	0.314135	-0.422926	0.423521
N28	N	0.343378	-0.433175	0.496983
N29	N	0.405836	-0.433188	0.496951
C30	C	0.440925	-0.422952	0.423460
C31	C	0.205677	-0.479153	0.479642
C32	C	0.139933	-0.479129	0.479680
C33	C	0.148544	-0.366623	0.367535
C34	C	0.214287	-0.366643	0.367505
C35	C	0.242850	-0.422913	0.423557
C36	C	0.868405	-0.640100	0.434461
C37	C	0.864694	-0.733009	0.439182
C38	C	0.896613	-0.941895	0.399176
C39	C	0.857929	-0.903109	0.447812
C40	C	0.861694	-0.808456	0.443009
C41	C	0.892849	-1.036556	0.403978
C42	C	1.041401	-0.422889	0.423584
C43	C	1.111368	-0.422872	0.423625
C44	C	0.886071	-0.204907	0.412493
C45	C	0.889846	-0.112000	0.407808
C46	C	0.868449	-0.434005	0.641495
C47	C	0.864714	-0.438726	0.734396
C48	C	0.857873	-0.447326	0.904486
C49	C	0.896530	-0.398609	0.943348
C50	C	0.892724	-0.403394	1.037992
C51	C	0.861678	-0.442542	0.809834
C52	C	0.885942	-0.411915	1.206333
C53	C	0.889691	-0.407206	1.113432
H54	H	0.629774	-0.525066	0.525097
H55	H	0.932484	-0.353305	0.905538
H56	H	0.821982	-0.940990	0.493057
H57	H	0.821922	-0.492626	0.942293
C58	C	0.099043	-0.541003	0.541370
C59	C	0.052600	-0.604709	0.508373
C60	C	0.011709	-0.666586	0.570064
C61	C	0.017262	-0.664757	0.664751
C62	C	0.063707	-0.601049	0.697753
C63	C	0.104598	-0.539172	0.636062
H64	H	0.048487	-0.606065	0.438276
H65	H	-0.022673	-0.713747	0.545633
H66	H	-0.013008	-0.710561	0.710418
H67	H	0.067819	-0.599692	0.767850
H68	H	0.138979	-0.492011	0.660493
C69	C	0.499880	-0.541106	0.541174
C70	C	0.505305	-0.635765	0.538980
C71	C	0.464406	-0.697641	0.600661
C72	C	0.418083	-0.664859	0.664536
C73	C	0.412657	-0.570195	0.666732
C74	C	0.453555	-0.508319	0.605051
H75	H	0.539598	-0.660036	0.491693
H76	H	0.468424	-0.767718	0.599034
H77	H	0.387808	-0.710664	0.710196
H78	H	0.378364	-0.545924	0.714019
H79	H	0.449538	-0.438242	0.606678
C80	C	0.517967	-0.304840	0.305689
C81	C	0.445654	-0.304825	0.305714
C82	C	0.414232	-0.242939	0.244051
C83	C	0.455123	-0.181069	0.182363
C84	C	0.527441	-0.181082	0.182335
C85	C	0.558863	-0.242967	0.243998
H86	H	0.415380	-0.350627	0.351381
H87	H	0.360698	-0.242930	0.244072
H88	H	0.431863	-0.135257	0.136716
H89	H	0.557715	-0.135279	0.136668
H90	H	0.612397	-0.242976	0.243978
H91	H	0.125284	-0.320815	0.321897
C92	C	0.656024	-0.304868	0.305627
C93	C	0.650601	-0.210207	0.307803
C94	C	0.691493	-0.148341	0.246104
C95	C	0.737809	-0.181137	0.182229
C96	C	0.743234	-0.275803	0.180050
C97	C	0.702341	-0.337669	0.241749
H98	H	0.616314	-0.185925	0.355090
H99	H	0.687477	-0.078263	0.247717
H100	H	0.768080	-0.135341	0.136555
H101	H	0.777521	-0.300085	0.132763
H102	H	0.706357	-0.407747	0.240136
H103	H	0.244553	-0.320847	0.321836
H104	H	0.932557	-0.904018	0.353933
H105	H	0.228934	-0.524967	0.525288
