data_functionalizedCrystal
_audit_creation_method	'MofGen! by Chris Wilmer'
_symmetry_space_group_name_H-M	'P1'
_symmetry_Int_Tables_number	1
_symmetry_cell_setting	triclinic
loop_
_symmetry_equiv_pos_as_xyz
  x,y,z
_cell_length_a	19.805407
_cell_length_b	19.120786
_cell_length_c	19.805399
_cell_angle_alpha	92.468930
_cell_angle_beta	90.019573
_cell_angle_gamma	92.465080
loop_
_atom_site_label
_atom_site_type_symbol
_atom_site_fract_x
_atom_site_fract_y
_atom_site_fract_z
Zn1	Zn	1.023244	-0.279646	0.371215
Zn2	Zn	1.273244	-0.029646	0.621215
Zn3	Zn	1.523244	0.220354	0.871215
Zn4	Zn	1.773244	0.470354	1.121215
Zn5	Zn	1.018332	-0.397105	0.253195
Zn6	Zn	1.268332	-0.147105	0.503195
Zn7	Zn	1.518332	0.102895	0.753195
Zn8	Zn	1.768332	0.352895	1.003195
Zn9	Zn	0.910058	-0.279666	0.258039
Zn10	Zn	1.160058	-0.029666	0.508039
Zn11	Zn	1.410058	0.220334	0.758039
Zn12	Zn	1.660058	0.470334	1.008039
Zn13	Zn	0.905197	-0.397068	0.366343
Zn14	Zn	1.155197	-0.147068	0.616343
Zn15	Zn	1.405197	0.102932	0.866343
Zn16	Zn	1.655197	0.352932	1.116343
O17	O	0.964208	-0.338371	0.312198
O18	O	1.214208	-0.088371	0.562198
O19	O	1.464208	0.161629	0.812198
O20	O	1.714208	0.411629	1.062198
O21	O	1.117309	-0.295235	0.355571
O22	O	1.367309	-0.045235	0.605571
O23	O	1.617309	0.204765	0.855571
O24	O	1.867309	0.454765	1.105571
O25	O	1.003948	-0.381550	0.159120
O26	O	1.253948	-0.131550	0.409120
O27	O	1.503948	0.118450	0.659120
O28	O	1.753948	0.368450	0.909120
O29	O	0.929162	-0.181373	0.277118
O30	O	1.179162	0.068627	0.527118
O31	O	1.429162	0.318627	0.777118
O32	O	1.679162	0.568627	1.027118
O33	O	1.113700	-0.381532	0.268862
O34	O	1.363700	-0.131532	0.518862
O35	O	1.613700	0.118468	0.768862
O36	O	1.863700	0.368468	1.018862
O37	O	1.012320	-0.181359	0.360269
O38	O	1.262320	0.068641	0.610269
O39	O	1.512320	0.318641	0.860269
O40	O	1.762320	0.568641	1.110269
O41	O	0.924399	-0.295268	0.162679
O42	O	1.174399	-0.045268	0.412679
O43	O	1.424399	0.204732	0.662679
O44	O	1.674399	0.454732	0.912679
O45	O	0.814697	-0.295232	0.272394
O46	O	1.064697	-0.045232	0.522394
O47	O	1.314697	0.204768	0.772394
O48	O	1.564697	0.454768	1.022394
O49	O	0.920877	-0.381468	0.461707
O50	O	1.170877	-0.131468	0.711707
O51	O	1.420877	0.118532	0.961707
O52	O	1.670877	0.368532	1.211707
O53	O	0.811125	-0.381487	0.351965
O54	O	1.061125	-0.131487	0.601965
O55	O	1.311125	0.118513	0.851965
O56	O	1.561125	0.368513	1.101965
O57	O	1.007606	-0.295199	0.465287
O58	O	1.257606	-0.045199	0.715287
O59	O	1.507606	0.204801	0.965287
O60	O	1.757606	0.454801	1.215287
O61	O	0.999234	-0.495390	0.264138
O62	O	1.249234	-0.245390	0.514138
O63	O	1.499234	0.004610	0.764138
O64	O	1.749234	0.254610	1.014138
O65	O	0.916114	-0.495363	0.347268
O66	O	1.166114	-0.245363	0.597268
O67	O	1.416114	0.004637	0.847268
O68	O	1.666114	0.254637	1.097268
C69	C	0.788352	-0.338358	0.312177
C70	C	1.038352	-0.088358	0.562177
C71	C	1.288352	0.161642	0.812177
C72	C	1.538352	0.411642	1.062177
C73	C	0.713120	-0.338369	0.312183
C74	C	0.963120	-0.088369	0.562183
C75	C	1.213120	0.161631	0.812183
C76	C	1.463120	0.411631	1.062183
C77	C	0.675931	-0.383350	0.353543
C78	C	0.925931	-0.133350	0.603543
C79	C	1.175931	0.116650	0.853543
C80	C	1.425931	0.366650	1.103543
C81	C	0.605242	-0.383351	0.353552
C82	C	0.855242	-0.133351	0.603552
C83	C	1.105242	0.116649	0.853552
C84	C	1.355242	0.366649	1.103552
C85	C	0.571744	-0.338374	0.312198
C86	C	0.821744	-0.088374	0.562198
C87	C	1.071744	0.161626	0.812198
C88	C	1.321744	0.411626	1.062198
C89	C	0.608938	-0.293389	0.270837
C90	C	0.858938	-0.043389	0.520837
C91	C	1.108938	0.206611	0.770837
C92	C	1.358938	0.456611	1.020837
C93	C	0.679625	-0.293385	0.270831
C94	C	0.929625	-0.043385	0.520831
C95	C	1.179625	0.206615	0.770831
C96	C	1.429625	0.456615	1.020831
C97	C	0.323864	-0.293404	0.270859
C98	C	0.573864	-0.043404	0.520859
C99	C	0.823864	0.206596	0.770859
C100	C	1.073864	0.456596	1.020859
C101	C	0.253172	-0.293414	0.270866
C102	C	0.503172	-0.043414	0.520866
C103	C	0.753172	0.206586	0.770866
C104	C	1.003172	0.456586	1.020866
C105	C	0.249481	-0.383371	0.353579
C106	C	0.499481	-0.133371	0.603579
C107	C	0.749481	0.116629	0.853579
C108	C	0.999481	0.366629	1.103579
C109	C	0.320169	-0.383366	0.353574
C110	C	0.570169	-0.133366	0.603574
C111	C	0.820169	0.116634	0.853574
C112	C	1.070169	0.366634	1.103574
C113	C	0.357356	-0.338378	0.312216
C114	C	0.607356	-0.088378	0.562216
C115	C	0.857356	0.161622	0.812216
C116	C	1.107356	0.411622	1.062216
C117	C	0.434005	-0.338377	0.312207
C118	C	0.684005	-0.088377	0.562207
C119	C	0.934005	0.161623	0.812207
C120	C	1.184005	0.411623	1.062207
C121	C	0.495097	-0.338379	0.312203
C122	C	0.745097	-0.088379	0.562203
C123	C	0.995097	0.161621	0.812203
C124	C	1.245097	0.411621	1.062203
C125	C	0.956632	-0.520862	0.304663
C126	C	1.206632	-0.270862	0.554663
C127	C	1.456632	-0.020862	0.804663
C128	C	1.706632	0.229138	1.054663
C129	C	0.953453	-0.598933	0.301462
C130	C	1.203453	-0.348933	0.551462
C131	C	1.453453	-0.098933	0.801462
C132	C	1.703453	0.151067	1.051462
C133	C	0.995223	-0.635543	0.343286
C134	C	1.245223	-0.385543	0.593286
C135	C	1.495223	-0.135543	0.843286
C136	C	1.745223	0.114457	1.093286
C137	C	0.992234	-0.708898	0.340279
C138	C	1.242234	-0.458898	0.590279
C139	C	1.492234	-0.208898	0.840279
C140	C	1.742234	0.041102	1.090279
C141	C	0.947477	-0.745642	0.295446
C142	C	1.197477	-0.495642	0.545446
C143	C	1.447477	-0.245642	0.795446
C144	C	1.697477	0.004358	1.045446
C145	C	0.905703	-0.709027	0.253621
C146	C	1.155703	-0.459027	0.503621
C147	C	1.405703	-0.209027	0.753621
C148	C	1.655703	0.040973	1.003621
C149	C	0.908689	-0.635673	0.256631
C150	C	1.158689	-0.385673	0.506631
C151	C	1.408689	-0.135673	0.756631
C152	C	1.658689	0.114327	1.006631
C153	C	0.936292	-0.967128	0.284192
C154	C	1.186292	-0.717128	0.534192
C155	C	1.436292	-0.467128	0.784192
C156	C	1.686292	-0.217128	1.034192
C157	C	0.933310	-1.040487	0.281184
C158	C	1.183310	-0.790487	0.531184
C159	C	1.433310	-0.540487	0.781184
C160	C	1.683310	-0.290487	1.031184
C161	C	1.019840	-1.040353	0.367844
C162	C	1.269840	-0.790353	0.617844
C163	C	1.519840	-0.540353	0.867844
C164	C	1.769840	-0.290353	1.117844
C165	C	1.022826	-0.966997	0.370847
C166	C	1.272826	-0.716997	0.620847
C167	C	1.522826	-0.466997	0.870847
C168	C	1.772826	-0.216997	1.120847
C169	C	0.981049	-0.930389	0.329025
C170	C	1.231049	-0.680389	0.579025
C171	C	1.481049	-0.430389	0.829025
C172	C	1.731049	-0.180389	1.079025
C173	C	0.944422	-0.820624	0.292370
C174	C	1.194422	-0.570624	0.542370
C175	C	1.444422	-0.320624	0.792370
C176	C	1.694422	-0.070624	1.042370
C177	C	0.984101	-0.855409	0.332104
C178	C	1.234101	-0.605409	0.582104
C179	C	1.484101	-0.355409	0.832104
C180	C	1.734101	-0.105409	1.082104
C181	C	1.140750	-0.338385	0.312220
C182	C	1.390750	-0.088385	0.562220
C183	C	1.640750	0.161615	0.812220
C184	C	1.890750	0.411615	1.062220
C185	C	1.215982	-0.338391	0.312229
C186	C	1.465982	-0.088391	0.562229
C187	C	1.715982	0.161609	0.812229
C188	C	1.965982	0.411609	1.062229
C189	C	0.964247	-0.338327	0.488743
C190	C	1.214247	-0.088327	0.738743
C191	C	1.464247	0.161673	0.988743
C192	C	1.714247	0.411673	1.238743
C193	C	0.964264	-0.338308	0.563976
C194	C	1.214264	-0.088308	0.813976
C195	C	1.464264	0.161692	1.063976
C196	C	1.714264	0.411692	1.313976
C197	C	0.971831	-0.155168	0.319777
C198	C	1.221831	0.094832	0.569777
C199	C	1.471831	0.344832	0.819777
C200	C	1.721831	0.594832	1.069777
C201	C	0.975080	-0.077097	0.323007
C202	C	1.225080	0.172903	0.573007
C203	C	1.475080	0.422903	0.823007
C204	C	1.725080	0.672903	1.073007
C205	C	0.964209	-0.338365	0.136342
C206	C	1.214209	-0.088365	0.386342
C207	C	1.464209	0.161635	0.636342
C208	C	1.714209	0.411635	0.886342
C209	C	0.964331	-0.338186	0.061118
C210	C	1.214331	-0.088186	0.311118
C211	C	1.464331	0.161814	0.561118
C212	C	1.714331	0.411814	0.811118
C213	C	1.009425	-0.293386	0.601185
C214	C	1.259425	-0.043386	0.851185
C215	C	1.509425	0.206614	1.101185
C216	C	1.759425	0.456614	1.351185
C217	C	1.009433	-0.293365	0.671874
C218	C	1.259433	-0.043365	0.921874
C219	C	1.509433	0.206635	1.171874
C220	C	1.759433	0.456635	1.421874
C221	C	0.964283	-0.338271	0.705353
C222	C	1.214283	-0.088271	0.955353
C223	C	1.464283	0.161729	1.205353
C224	C	1.714283	0.411729	1.455353
C225	C	0.919117	-0.383196	0.668139
C226	C	1.169117	-0.133196	0.918139
C227	C	1.419117	0.116804	1.168139
C228	C	1.669117	0.366804	1.418139
C229	C	0.919107	-0.383212	0.597451
C230	C	1.169107	-0.133212	0.847451
C231	C	1.419107	0.116788	1.097451
C232	C	1.669107	0.366788	1.347451
C233	C	0.919158	-0.383131	0.953215
C234	C	1.169158	-0.133131	1.203215
C235	C	1.419158	0.116869	1.453215
C236	C	1.669158	0.366869	1.703215
C237	C	0.919173	-0.383112	1.023908
C238	C	1.169173	-0.133112	1.273908
C239	C	1.419173	0.116888	1.523908
C240	C	1.669173	0.366888	1.773908
C241	C	1.009484	-0.293283	1.027638
C242	C	1.259484	-0.043283	1.277638
C243	C	1.509484	0.206717	1.527638
C244	C	1.759484	0.456717	1.777638
C245	C	1.009474	-0.293300	0.956950
C246	C	1.259474	-0.043300	1.206950
C247	C	1.509474	0.206700	1.456950
C248	C	1.759474	0.456700	1.706950
C249	C	0.964306	-0.338221	0.919742
C250	C	1.214306	-0.088221	1.169742
C251	C	1.464306	0.161779	1.419742
C252	C	1.714306	0.411779	1.669742
C253	C	0.964297	-0.338242	0.843093
C254	C	1.214297	-0.088242	1.093093
C255	C	1.464297	0.161758	1.343093
C256	C	1.714297	0.411758	1.593093
C257	C	0.964294	-0.338255	0.782001
C258	C	1.214294	-0.088255	1.032001
C259	C	1.464294	0.161745	1.282001
C260	C	1.714294	0.411745	1.532001
H261	H	0.354134	-0.256778	0.237177
H262	H	0.604134	-0.006778	0.487177
H263	H	0.854134	0.243222	0.737177
H264	H	1.104134	0.493222	0.987177
H265	H	1.053852	-1.070167	0.401894
H266	H	1.303852	-0.820167	0.651894
H267	H	1.553852	-0.570167	0.901894
H268	H	1.803852	-0.320167	1.151894
H269	H	0.581658	-0.256765	0.237169
H270	H	0.831658	-0.006765	0.487169
H271	H	1.081658	0.243235	0.737169
H272	H	1.331658	0.493235	0.987169
H273	H	0.219194	-0.419999	0.387258
H274	H	0.469194	-0.169999	0.637258
H275	H	0.719194	0.080001	0.887258
H276	H	0.969194	0.330001	1.137258
H277	H	0.882326	-0.419786	0.567156
H278	H	1.132326	-0.169786	0.817156
H279	H	1.382326	0.080214	1.067156
H280	H	1.632326	0.330214	1.317156
H281	H	0.896860	-1.070402	0.244675
H282	H	1.146860	-0.820402	0.494675
H283	H	1.396860	-0.570402	0.744675
H284	H	1.646860	-0.320402	0.994675
H285	H	0.347439	-0.419993	0.387246
H286	H	0.597439	-0.169993	0.637246
H287	H	0.847439	0.080007	0.887246
H288	H	1.097439	0.330007	1.137246
H289	H	1.020540	-0.825490	0.368610
H290	H	1.270540	-0.575490	0.618610
H291	H	1.520540	-0.325490	0.868610
H292	H	1.770540	-0.075490	1.118610
H293	H	1.046242	-0.256735	0.929695
H294	H	1.296242	-0.006735	1.179695
H295	H	1.546242	0.243265	1.429695
H296	H	1.796242	0.493265	1.679695
H297	H	1.046194	-0.256820	0.573932
H298	H	1.296194	-0.006820	0.823932
H299	H	1.546194	0.243180	1.073932
H300	H	1.796194	0.493180	1.323932
H301	H	0.709904	-0.256753	0.237156
H302	H	0.959904	-0.006753	0.487156
H303	H	1.209904	0.243247	0.737156
H304	H	1.459904	0.493247	0.987156
H305	H	0.882353	-0.419757	0.695403
H306	H	1.132353	-0.169757	0.945403
H307	H	1.382353	0.080243	1.195403
H308	H	1.632353	0.330243	1.445403
H309	H	1.031672	-0.605630	0.379791
H310	H	1.281672	-0.355630	0.629791
H311	H	1.531672	-0.105630	0.879791
H312	H	1.781672	0.144370	1.129791
H313	H	1.026252	-0.738703	0.374331
H314	H	1.276252	-0.488703	0.624331
H315	H	1.526252	-0.238703	0.874331
H316	H	1.776252	0.011297	1.124331
H317	H	0.225899	-0.256784	0.237190
H318	H	0.475899	-0.006784	0.487190
H319	H	0.725899	0.243216	0.737190
H320	H	0.975899	0.493216	0.987190
H321	H	0.703200	-0.419977	0.387216
H322	H	0.953200	-0.169977	0.637216
H323	H	1.203200	0.080023	0.887216
H324	H	1.453200	0.330023	1.137216
H325	H	0.574966	-0.419979	0.387231
H326	H	0.824966	-0.169979	0.637231
H327	H	1.074966	0.080021	0.887231
H328	H	1.324966	0.330021	1.137231
H329	H	1.059270	-0.937082	0.407354
H330	H	1.309270	-0.687082	0.657354
H331	H	1.559270	-0.437082	0.907354
H332	H	1.809270	-0.187082	1.157354
H333	H	0.882404	-0.419682	1.051164
H334	H	1.132404	-0.169682	1.301164
H335	H	1.382404	0.080318	1.551164
H336	H	1.632404	0.330318	1.801164
H337	H	0.902277	-0.937327	0.250138
H338	H	1.152277	-0.687327	0.500138
H339	H	1.402277	-0.437327	0.750138
H340	H	1.652277	-0.187327	1.000138
H341	H	0.869258	-0.738950	0.217119
H342	H	1.119258	-0.488950	0.467119
H343	H	1.369258	-0.238950	0.717119
H344	H	1.619258	0.011050	0.967119
H345	H	0.874675	-0.605866	0.222575
H346	H	1.124675	-0.355866	0.472575
H347	H	1.374675	-0.105866	0.722575
H348	H	1.624675	0.144134	0.972575
H349	H	0.907983	-0.850549	0.255865
H350	H	1.157983	-0.600549	0.505865
H351	H	1.407983	-0.350549	0.755865
H352	H	1.657983	-0.100549	1.005865
H353	H	1.046209	-0.256786	0.702167
H354	H	1.296209	-0.006786	0.952167
H355	H	1.546209	0.243214	1.202167
H356	H	1.796209	0.493214	1.452167
H357	H	1.046260	-0.256704	1.057941
H358	H	1.296260	-0.006704	1.307941
H359	H	1.546260	0.243296	1.557941
H360	H	1.796260	0.493296	1.807941
H361	H	0.882389	-0.419719	0.922928
H362	H	1.132389	-0.169719	1.172928
H363	H	1.382389	0.080281	1.422928
H364	H	1.632389	0.330281	1.672928
