data_functionalizedCrystal
_audit_creation_method	'MofGen! by Chris Wilmer'
_symmetry_space_group_name_H-M	'P1'
_symmetry_Int_Tables_number	1
_symmetry_cell_setting	triclinic
loop_
_symmetry_equiv_pos_as_xyz
  x,y,z
_cell_length_a	14.519731
_cell_length_b	14.519709
_cell_length_c	14.586319
_cell_angle_alpha	89.995260
_cell_angle_beta	89.996401
_cell_angle_gamma	83.684499
loop_
_atom_site_label
_atom_site_type_symbol
_atom_site_fract_x
_atom_site_fract_y
_atom_site_fract_z
O1	O	1.223854	0.120984	-0.076244
O2	O	1.473854	0.370984	0.173756
O3	O	1.723854	0.620984	0.423756
O4	O	1.973854	0.870984	0.673756
O5	O	0.955380	0.135200	-0.076246
O6	O	1.205380	0.385200	0.173754
O7	O	1.455380	0.635200	0.423754
O8	O	1.705380	0.885200	0.673754
O9	O	1.096735	-0.006146	-0.076237
O10	O	1.346735	0.243854	0.173763
O11	O	1.596735	0.493854	0.423763
O12	O	1.846735	0.743854	0.673763
O13	O	1.082499	0.262330	-0.076253
O14	O	1.332499	0.512330	0.173747
O15	O	1.582499	0.762330	0.423747
O16	O	1.832499	1.012330	0.673747
O17	O	1.096725	-0.006148	0.076244
O18	O	1.346725	0.243852	0.326244
O19	O	1.596725	0.493852	0.576244
O20	O	1.846725	0.743852	0.826244
O21	O	0.955370	0.135198	0.076235
O22	O	1.205370	0.385198	0.326235
O23	O	1.455370	0.635198	0.576235
O24	O	1.705370	0.885198	0.826235
O25	O	1.223844	0.120982	0.076236
O26	O	1.473844	0.370982	0.326236
O27	O	1.723844	0.620982	0.576236
O28	O	1.973844	0.870982	0.826236
Cu29	Cu	1.089606	0.128089	0.090158
Cu30	Cu	1.339606	0.378089	0.340158
Cu31	Cu	1.589606	0.628089	0.590158
Cu32	Cu	1.839606	0.878089	0.840158
Cu33	Cu	1.089618	0.128092	-0.090168
Cu34	Cu	1.339618	0.378092	0.159832
Cu35	Cu	1.589618	0.628092	0.409832
Cu36	Cu	1.839618	0.878092	0.659832
O37	O	1.082489	0.262327	0.076227
O38	O	1.332489	0.512327	0.326227
O39	O	1.582489	0.762327	0.576227
O40	O	1.832489	1.012327	0.826227
C41	C	0.921016	0.134532	-0.000006
C42	C	1.171016	0.384532	0.249994
C43	C	1.421016	0.634532	0.499994
C44	C	1.671016	0.884532	0.749994
C45	C	0.818635	0.132536	-0.000006
C46	C	1.068635	0.382536	0.249994
C47	C	1.318635	0.632536	0.499994
C48	C	1.568635	0.882536	0.749994
C49	C	0.735491	0.130915	-0.000010
C50	C	0.985491	0.380915	0.249990
C51	C	1.235491	0.630915	0.499990
C52	C	1.485491	0.880915	0.749990
C53	C	0.631182	0.128888	-0.000010
C54	C	0.881182	0.378888	0.249990
C55	C	1.131182	0.628888	0.499990
C56	C	1.381182	0.878888	0.749990
C57	C	0.548043	0.127280	-0.000010
C58	C	0.798043	0.377280	0.249990
C59	C	1.048043	0.627280	0.499990
C60	C	1.298043	0.877280	0.749990
C61	C	0.443728	0.125253	-0.000012
C62	C	0.693728	0.375253	0.249988
C63	C	0.943728	0.625253	0.499988
C64	C	1.193728	0.875253	0.749988
C65	C	1.096067	-0.040507	0.000004
C66	C	1.346067	0.209493	0.250004
C67	C	1.596067	0.459493	0.500004
C68	C	1.846067	0.709493	0.750004
C69	C	1.094079	-0.142889	0.000004
C70	C	1.344079	0.107111	0.250004
C71	C	1.594079	0.357111	0.500004
C72	C	1.844079	0.607111	0.750004
C73	C	1.086759	-0.517785	-0.000020
C74	C	1.336759	-0.267785	0.249980
C75	C	1.586759	-0.017785	0.499980
C76	C	1.836759	0.232215	0.749980
C77	C	1.088792	-0.413477	-0.000013
C78	C	1.338792	-0.163477	0.249987
C79	C	1.588792	0.086523	0.499987
C80	C	1.838792	0.336523	0.749987
C81	C	1.090419	-0.330340	-0.000007
C82	C	1.340419	-0.080340	0.249993
C83	C	1.590419	0.169660	0.499993
C84	C	1.840419	0.419660	0.749993
C85	C	1.092452	-0.226025	-0.000002
C86	C	1.342452	0.023975	0.249998
C87	C	1.592452	0.273975	0.499998
C88	C	1.842452	0.523975	0.749998
C89	C	1.258209	0.121649	-0.000006
C90	C	1.508209	0.371649	0.249994
C91	C	1.758209	0.621649	0.499994
C92	C	2.008209	0.871649	0.749994
C93	C	1.360589	0.123645	-0.000011
C94	C	1.610589	0.373645	0.249989
C95	C	1.860589	0.623645	0.499989
C96	C	2.110589	0.873645	0.749989
C97	C	1.083157	0.296688	-0.000015
C98	C	1.333157	0.546688	0.249985
C99	C	1.583157	0.796688	0.499985
C100	C	1.833157	1.046688	0.749985
C101	C	1.085146	0.399070	-0.000022
C102	C	1.335146	0.649070	0.249978
C103	C	1.585146	0.899070	0.499978
C104	C	1.835146	1.149070	0.749978
N105	N	1.089605	0.128087	0.216990
N106	N	1.339605	0.378087	0.466990
N107	N	1.589605	0.628087	0.716990
N108	N	1.839605	0.878087	0.966990
N109	N	1.089627	0.128087	-0.217000
N110	N	1.339627	0.378087	0.033000
N111	N	1.589627	0.628087	0.283000
N112	N	1.839627	0.878087	0.533000
C113	C	1.152218	0.065520	0.452001
C114	C	1.402218	0.315520	0.702001
C115	C	1.652218	0.565520	0.952001
C116	C	1.902218	0.815520	1.202001
C117	C	1.152220	0.065518	0.547982
C118	C	1.402220	0.315518	0.797982
C119	C	1.652220	0.565518	1.047982
C120	C	1.902220	0.815518	1.297982
C121	C	1.027007	0.190657	0.547983
C122	C	1.277007	0.440657	0.797983
C123	C	1.527007	0.690657	1.047983
C124	C	1.777007	0.940657	1.297983
C125	C	1.027001	0.190654	0.452004
C126	C	1.277001	0.440654	0.702004
C127	C	1.527001	0.690654	0.952004
C128	C	1.777001	0.940654	1.202004
C129	C	1.089611	0.128087	0.404015
C130	C	1.339611	0.378087	0.654015
C131	C	1.589611	0.628087	0.904015
C132	C	1.839611	0.878087	1.154015
C133	C	1.089620	0.128087	0.595976
C134	C	1.339620	0.378087	0.845976
C135	C	1.589620	0.628087	1.095976
C136	C	1.839620	0.878087	1.345976
C137	C	1.089623	0.128085	0.700043
C138	C	1.339623	0.378085	0.950043
C139	C	1.589623	0.628085	1.200043
C140	C	1.839623	0.878085	1.450043
C141	C	1.089608	0.128087	0.299941
C142	C	1.339608	0.378087	0.549941
C143	C	1.589608	0.628087	0.799941
C144	C	1.839608	0.878087	1.049941
H145	H	1.203198	0.014573	0.412930
H146	H	1.453198	0.264573	0.662930
H147	H	1.703198	0.514573	0.912930
H148	H	1.953198	0.764573	1.162930
H149	H	1.203199	0.014570	0.587049
H150	H	1.453199	0.264570	0.837049
H151	H	1.703199	0.514570	1.087049
H152	H	1.953199	0.764570	1.337049
H153	H	0.976015	0.241603	0.412931
H154	H	1.226015	0.491603	0.662931
H155	H	1.476015	0.741603	0.912931
H156	H	1.726015	0.991603	1.162931
H157	H	0.976032	0.241599	0.587065
H158	H	1.226032	0.491599	0.837065
H159	H	1.476032	0.741599	1.087065
H160	H	1.726032	0.991599	1.337065
