data_functionalizedCrystal
_audit_creation_method	'MofGen! by Chris Wilmer'
_symmetry_space_group_name_H-M	'P1'
_symmetry_Int_Tables_number	1
_symmetry_cell_setting	triclinic
loop_
_symmetry_equiv_pos_as_xyz
  x,y,z
_cell_length_a	17.640280
_cell_length_b	17.638686
_cell_length_c	11.169409
_cell_angle_alpha	101.217910
_cell_angle_beta	101.234358
_cell_angle_gamma	65.687361
loop_
_atom_site_label
_atom_site_type_symbol
_atom_site_fract_x
_atom_site_fract_y
_atom_site_fract_z
Zn1	Zn	-0.583167	1.326472	0.906259
Zn2	Zn	-0.720996	1.354260	0.671817
Zn3	Zn	-0.555308	1.188641	0.671890
Zn4	Zn	-0.693036	1.216486	0.838808
O5	O	-0.638127	1.271465	0.772194
O6	O	-0.624811	1.445499	0.903357
O7	O	-0.699060	1.332266	0.503857
O8	O	-0.443682	1.183642	0.731239
O9	O	-0.726074	1.465915	0.731114
O10	O	-0.464150	1.284905	0.903428
O11	O	-0.577329	1.210587	0.503911
O12	O	-0.550218	1.076993	0.665835
O13	O	-0.678420	1.231100	1.015726
O14	O	-0.651406	1.097451	0.788468
O15	O	-0.597700	1.311906	1.065281
O16	O	-0.832609	1.359267	0.665710
O17	O	-0.812067	1.258045	0.788397
C18	C	-0.594755	1.057315	0.719841
C19	C	-0.576220	0.965706	0.697467
C20	C	-0.852244	1.314715	0.719758
C21	C	-0.943860	1.333293	0.697384
C22	C	-0.779114	0.717866	0.942418
C23	C	-0.761690	0.631784	0.921367
C24	C	-0.656159	0.610414	0.793947
C25	C	-0.673577	0.696498	0.814982
C26	C	-0.735054	0.750217	0.889220
C27	C	-0.629517	0.728848	0.761784
C28	C	-0.646931	0.814924	0.782824
C29	C	-0.708404	0.868648	0.857062
C30	C	-0.752468	0.836293	0.910260
C31	C	-0.568036	0.675126	0.687554
C32	C	-0.523976	0.707477	0.634356
C33	C	-0.541394	0.793555	0.655388
C34	C	-0.602867	0.847279	0.729626
C35	C	-0.497329	0.825910	0.602190
C36	C	-0.514743	0.911986	0.623229
C37	C	-0.620280	0.933355	0.750665
C38	C	-1.191788	1.130667	0.942683
C39	C	-1.277875	1.148125	0.921621
C40	C	-1.299213	1.253593	0.794038
C41	C	-1.213127	1.236146	0.815094
C42	C	-1.159420	1.174681	0.889416
C43	C	-1.180759	1.280161	0.761827
C44	C	-1.094680	1.262712	0.782876
C45	C	-1.040968	1.201248	0.857191
C46	C	-1.073341	1.157233	0.910465
C47	C	-1.234466	1.341621	0.687498
C48	C	-1.202099	1.385635	0.634231
C49	C	-1.116019	1.368191	0.655287
C50	C	-1.062307	1.306728	0.729602
C51	C	-1.083646	1.412207	0.602013
C52	C	-0.997566	1.394758	0.623062
C53	C	-0.976227	1.289279	0.750651
C54	C	-0.423178	1.228068	0.824866
C55	C	-0.331580	1.209575	0.847311
C56	C	-0.638048	1.271509	1.085274
C57	C	-0.638015	1.271529	1.218690
C58	C	-0.681669	1.486450	0.824751
C59	C	-0.700224	1.578064	0.847149
C60	C	-0.638156	1.271455	0.460357
C61	C	-0.637989	1.271549	0.327038
H62	H	-0.670345	0.977098	0.811110
O63	O	-0.725475	0.952294	0.877460
C64	C	-0.829442	1.091768	0.857229
C65	C	-0.810228	0.997066	0.834082
H66	H	-0.897959	1.127993	0.822146
H67	H	-0.817208	1.111774	0.960102
H68	H	-0.787356	1.105643	0.806497
H69	H	-0.852300	0.983122	0.884738
H70	H	-0.822436	0.977109	0.731189
O71	O	-0.804366	0.600292	0.973192
C72	C	-0.795900	0.505369	1.108652
C73	C	-0.747478	0.540982	1.050068
H74	H	-0.749926	0.457398	1.170798
H75	H	-0.842808	0.558506	1.165411
H76	H	-0.830818	0.473796	1.033034
H77	H	-0.712511	0.572546	1.125605
H78	H	-0.700619	0.487812	0.993279
O79	O	-0.812190	0.888361	0.982448
C80	C	-0.915073	0.900492	1.106563
C81	C	-0.847452	0.841429	1.024862
H82	H	-0.943615	0.862574	1.140856
H83	H	-0.885473	0.933152	1.188579
H84	H	-0.966239	0.949495	1.050657
H85	H	-0.796267	0.792380	1.080662
H86	H	-0.877115	0.808832	0.942842
H87	H	-0.971213	1.430599	0.579685
O88	O	-0.551128	0.591514	0.666920
C89	C	-0.547265	0.472207	0.516510
C90	C	-0.566420	0.566898	0.539681
H91	H	-0.559638	0.452280	0.413642
H92	H	-0.478728	0.435903	0.551407
H93	H	-0.589308	0.458350	0.567351
H94	H	-0.524432	0.580834	0.488846
H95	H	-0.634976	0.603152	0.504816
O96	O	-1.021052	1.097580	0.982679
C97	C	-0.878974	1.023925	1.071586
C98	C	-0.938098	1.091511	0.989809
H99	H	-0.811891	1.018984	1.077356
H100	H	-0.898705	1.041774	1.167828
H101	H	-0.882553	0.960931	1.030040
H102	H	-0.934548	1.154529	1.031245
H103	H	-0.918349	1.073590	0.893576
O104	O	-0.924034	1.229688	0.823022
C105	C	-0.824483	1.198839	1.006055
C106	C	-0.883576	1.266406	0.924227
H107	H	-0.791744	1.228497	1.087884
H108	H	-0.862362	1.170381	1.040628
H109	H	-0.775550	1.147597	0.950172
H110	H	-0.932520	1.317699	0.980030
H111	H	-0.845641	1.294797	0.889647
O112	O	-1.139724	1.070919	1.014888
C113	C	-1.127644	0.968199	1.139327
C114	C	-1.186695	1.035819	1.057556
H115	H	-1.165599	0.939814	1.173869
H116	H	-1.078683	0.916908	1.083537
H117	H	-1.094933	0.997863	1.221189
H118	H	-1.219464	1.006230	0.975683
H119	H	-1.235604	1.087102	1.113433
H120	H	-1.304558	1.355828	0.670366
O121	O	-1.351326	1.313202	0.721657
C122	C	-1.385782	1.358662	0.520923
C123	C	-1.326722	1.291082	0.602751
H124	H	-1.365901	1.340811	0.424778
H125	H	-1.452878	1.363578	0.514908
H126	H	-1.382258	1.421667	0.562544
H127	H	-1.330173	1.228041	0.561193
H128	H	-1.259652	1.286240	0.608765
H129	H	-0.829179	0.761610	1.002863
H130	H	-0.606102	0.566664	0.733506
O131	O	-1.309433	1.105502	0.973436
C132	C	-1.404268	1.114035	1.109038
C133	C	-1.368612	1.162412	1.050430
H134	H	-1.452108	1.160024	1.171321
H135	H	-1.435961	1.079165	1.033536
H136	H	-1.351076	1.067087	1.165715
H137	H	-1.421755	1.209402	0.993763
H138	H	-1.336895	1.197225	1.125990
O139	O	-1.254210	1.445433	0.562146
C140	C	-1.308912	1.590989	0.531958
C141	C	-1.249849	1.523348	0.613688
H142	H	-1.305420	1.654003	0.573612
H143	H	-1.289116	1.573199	0.435761
H144	H	-1.375980	1.595849	0.526037
H145	H	-1.182764	1.518454	0.619710
H146	H	-1.269717	1.541167	0.709841
O147	O	-0.464320	0.655388	0.562089
C148	C	-0.418852	0.620845	0.361388
C149	C	-0.486463	0.679907	0.443105
H150	H	-0.436740	0.640636	0.265166
H151	H	-0.355828	0.624359	0.402928
H152	H	-0.413962	0.553769	0.355559
H153	H	-0.491430	0.747008	0.448966
H154	H	-0.549452	0.676320	0.401533
O155	O	-0.437668	0.773820	0.529931
C156	C	-0.392185	0.739266	0.329239
C157	C	-0.459804	0.798331	0.410943
H158	H	-0.410067	0.759051	0.233014
H159	H	-0.329164	0.742784	0.370787
H160	H	-0.387293	0.672190	0.323416
H161	H	-0.464772	0.865433	0.416798
H162	H	-0.522790	0.794741	0.369362
O163	O	-0.472084	0.943535	0.571487
C164	C	-0.480536	1.038386	0.435917
C165	C	-0.528955	1.002740	0.494447
H166	H	-0.526494	1.086247	0.373597
H167	H	-0.445667	1.070056	0.511462
H168	H	-0.433586	0.985191	0.379294
H169	H	-0.575948	1.055886	0.551060
H170	H	-0.563768	0.971046	0.418843
O171	O	-1.135755	1.472001	0.529922
C172	C	-1.190459	1.617554	0.499715
C173	C	-1.131398	1.549919	0.581456
H174	H	-1.186970	1.680569	0.541362
H175	H	-1.170657	1.599758	0.403521
H176	H	-1.257527	1.622412	0.493789
H177	H	-1.064313	1.545026	0.587484
H178	H	-1.151271	1.567743	0.677606
H179	H	-0.970876	1.187037	0.874318
