data_functionalizedCrystal
_audit_creation_method	'MofGen! by Chris Wilmer'
_symmetry_space_group_name_H-M	'P1'
_symmetry_Int_Tables_number	1
_symmetry_cell_setting	triclinic
loop_
_symmetry_equiv_pos_as_xyz
  x,y,z
_cell_length_a	19.188905
_cell_length_b	10.489741
_cell_length_c	9.565339
_cell_angle_alpha	90.000576
_cell_angle_beta	89.995631
_cell_angle_gamma	96.163135
loop_
_atom_site_label
_atom_site_type_symbol
_atom_site_fract_x
_atom_site_fract_y
_atom_site_fract_z
O1	O	0.927215	-0.159077	-0.116490
O2	O	0.724045	-0.180546	-0.116442
O3	O	0.830253	0.015891	-0.116459
O4	O	0.821007	-0.355513	-0.116473
O5	O	0.830258	0.015885	0.116061
O6	O	0.724050	-0.180552	0.116078
O7	O	0.927219	-0.159083	0.116030
Zn8	Zn	0.825635	-0.169818	0.152972
Zn9	Zn	0.825629	-0.169811	-0.153384
O10	O	0.821011	-0.355519	0.116047
C11	C	0.698031	-0.179859	-0.000176
C12	C	0.620512	-0.177788	-0.000157
C13	C	0.584111	-0.176790	-0.126908
C14	C	0.511274	-0.174830	-0.126925
C15	C	0.474843	-0.173842	-0.000185
C16	C	0.511252	-0.174847	0.126582
C17	C	0.584087	-0.176820	0.126596
N18	N	0.365317	-0.098164	0.094139
N19	N	0.296128	-0.096287	0.094117
C20	C	0.255396	-0.167900	-0.000218
N21	N	0.286469	-0.241445	-0.094553
N22	N	0.355666	-0.243317	-0.094535
C23	C	0.395866	-0.171703	-0.000185
C24	C	0.140017	-0.164779	-0.126996
C25	C	0.067179	-0.162826	-0.127008
C26	C	0.067159	-0.162831	0.126503
C27	C	0.139995	-0.164796	0.126511
C28	C	0.176421	-0.165764	-0.000242
C29	C	0.829557	0.063404	-0.000199
C30	C	0.827468	0.204986	-0.000201
C31	C	0.953233	-0.159770	-0.000239
C32	C	1.030752	-0.161841	-0.000267
C33	C	0.821707	-0.403032	-0.000216
C34	C	0.823797	-0.544615	-0.000223
N35	N	0.825645	-0.169822	0.362051
C36	C	0.759890	0.271604	-0.000196
C37	C	0.791816	0.364443	0.114441
C38	C	0.791827	0.364423	-0.114805
C39	C	0.859420	0.295960	0.114530
C40	C	0.859422	0.295931	-0.114819
C41	C	0.891397	0.388743	-0.000154
N42	N	0.825625	-0.169796	-0.362463
C43	C	0.874778	-0.078983	0.453209
C44	C	0.811563	-0.054572	0.546395
C45	C	0.888835	-0.194151	0.546420
C46	C	0.762397	-0.145354	0.453186
C47	C	0.839711	-0.284983	0.453202
C48	C	0.776450	-0.260621	0.546347
H49	H	0.481631	-0.174019	-0.230144
H50	H	0.169675	-0.165580	-0.230206
C51	C	0.649673	0.237197	0.120189
C52	C	0.684888	0.202874	-0.000028
H53	H	0.603374	0.194757	0.120298
H54	H	0.647830	0.327317	0.121008
H55	H	0.673930	0.212771	0.200792
H56	H	0.660634	0.227308	-0.080631
H57	H	0.686728	0.112734	-0.000860
C58	C	0.930665	0.022925	0.251609
C59	C	0.930815	0.024764	0.397982
H60	H	0.965260	0.086970	0.217516
H61	H	0.885868	0.039418	0.218330
H62	H	0.940776	-0.058857	0.219716
H63	H	0.920699	0.106544	0.429876
H64	H	0.975622	0.008279	0.431275
C65	C	0.805029	-0.511754	0.446966
C66	C	0.855815	-0.416428	0.397892
H67	H	0.814981	-0.592902	0.412825
H68	H	0.760098	-0.494577	0.415091
H69	H	0.805573	-0.512444	0.546267
H70	H	0.855267	-0.415732	0.298590
H71	H	0.900758	-0.433611	0.429760
H72	H	0.708937	-0.124656	0.412404
H73	H	0.481585	-0.174046	0.229775
H74	H	0.763223	0.394745	-0.211731
H75	H	0.734846	-0.337436	0.586983
H76	H	0.169634	-0.165600	0.229725
C77	C	0.852899	0.168464	-0.323822
C78	C	0.897987	0.254875	-0.245673
H79	H	0.876706	0.143110	-0.404608
H80	H	0.812969	0.208530	-0.351331
H81	H	0.838455	0.095137	-0.268530
H82	H	0.912428	0.328206	-0.300962
H83	H	0.937931	0.214810	-0.218166
H84	H	0.037542	-0.162022	-0.230228
C85	C	0.976794	0.533129	-0.120226
C86	C	0.966477	0.457124	-0.000126
H87	H	1.023149	0.575325	-0.120214
H88	H	0.944190	0.595151	-0.121007
H89	H	0.970051	0.480447	-0.200909
H90	H	0.973214	0.509807	0.080558
H91	H	0.999091	0.395094	0.000668
C92	C	1.012365	-0.126776	0.554581
C93	C	0.960990	-0.221998	0.601635
H94	H	1.056912	-0.143979	0.588640
H95	H	1.002054	-0.045592	0.587908
H96	H	1.012977	-0.126195	0.455278
H97	H	0.960374	-0.222573	0.700939
H98	H	0.971304	-0.303203	0.568315
H99	H	0.037497	-0.162034	0.229697
C100	C	0.576809	-0.176580	-0.377491
C101	C	0.624148	-0.177867	-0.266234
H102	H	0.601528	-0.177254	-0.463503
H103	H	0.553361	-0.101454	-0.372217
H104	H	0.543440	-0.250177	-0.372217
H105	H	0.657514	-0.104265	-0.271502
H106	H	0.647607	-0.253001	-0.271510
C107	C	0.613802	-0.067809	0.342674
C108	C	0.624105	-0.177903	0.265929
H109	H	0.638513	-0.068474	0.428689
H110	H	0.565216	-0.066510	0.360805
H111	H	0.630700	0.006222	0.290582
H112	H	0.607202	-0.251934	0.318017
H113	H	0.672701	-0.179214	0.247802
H114	H	0.763224	0.394808	0.211372
H115	H	0.887991	0.265769	0.211555
H116	H	0.799652	0.042828	0.587332
