data_functionalizedCrystal
_audit_creation_method	'MofGen! by Chris Wilmer'
_symmetry_space_group_name_H-M	'P1'
_symmetry_Int_Tables_number	1
_symmetry_cell_setting	triclinic
loop_
_symmetry_equiv_pos_as_xyz
  x,y,z
_cell_length_a	18.050589
_cell_length_b	12.759401
_cell_length_c	12.759393
_cell_angle_alpha	89.979062
_cell_angle_beta	90.029546
_cell_angle_gamma	89.970254
loop_
_atom_site_label
_atom_site_type_symbol
_atom_site_fract_x
_atom_site_fract_y
_atom_site_fract_z
Zn1	Zn	-0.295593	-1.606168	0.594027
Zn2	Zn	0.204407	-1.106168	1.094027
Zn3	Zn	-0.419801	-1.606017	0.418350
Zn4	Zn	0.080199	-1.106017	0.918350
Zn5	Zn	-0.295633	-1.430466	0.418362
Zn6	Zn	0.204367	-0.930466	0.918362
Zn7	Zn	-0.419749	-1.430417	0.593987
Zn8	Zn	0.080251	-0.930417	1.093987
O9	O	-0.357694	-1.518267	0.506182
O10	O	0.142306	-1.018267	1.006182
O11	O	-0.312075	-1.753169	0.570735
O12	O	0.187925	-1.253169	1.070735
O13	O	-0.403368	-1.582688	0.271331
O14	O	0.096632	-1.082688	0.771331
O15	O	-0.191703	-1.453857	0.441686
O16	O	0.308297	-0.953857	0.941686
O17	O	-0.403330	-1.753058	0.441666
O18	O	0.096670	-1.253058	0.941666
O19	O	-0.191674	-1.582944	0.570746
O20	O	0.308326	-1.082944	1.070746
O21	O	-0.312142	-1.453711	0.271339
O22	O	0.187858	-0.953711	0.771339
O23	O	-0.312092	-1.283439	0.441648
O24	O	0.187908	-0.783439	0.941648
O25	O	-0.403241	-1.453773	0.741014
O26	O	0.096759	-0.953773	1.241014
O27	O	-0.403280	-1.283402	0.570679
O28	O	0.096720	-0.783402	1.070679
O29	O	-0.312025	-1.582896	0.741043
O30	O	0.187975	-1.082896	1.241043
O31	O	-0.523719	-1.582640	0.441627
O32	O	-0.023719	-1.082640	0.941627
O33	O	-0.523681	-1.453627	0.570667
O34	O	-0.023681	-0.953627	1.070667
C35	C	-0.357685	-1.245300	0.506161
C36	C	0.142315	-0.745300	1.006161
C37	C	-0.357699	-1.128523	0.506177
C38	C	0.142301	-0.628523	1.006177
C39	C	-0.550646	-1.518140	0.506164
C40	C	-0.050646	-1.018140	1.006164
C41	C	-0.633192	-1.518182	0.506192
C42	C	-0.133192	-1.018182	1.006192
C43	C	-0.357623	-1.518346	0.780215
C44	C	0.142377	-1.018346	1.280215
C45	C	-0.357592	-1.518379	0.896992
C46	C	0.142408	-1.018379	1.396992
C47	C	-0.832649	-1.448094	0.576339
C48	C	-0.332649	-0.948094	1.076339
C49	C	-0.882097	-1.422478	0.480470
C50	C	-0.382097	-0.922478	0.980470
C51	C	-0.784322	-1.518285	0.506206
C52	C	-0.284322	-1.018285	1.006206
C53	C	-0.881956	-1.543953	0.602085
C54	C	-0.381956	-1.043953	1.102085
C55	C	-0.930307	-1.518383	0.506227
C56	C	-0.430307	-1.018383	1.006227
C57	C	-0.832683	-1.492619	0.410286
C58	C	-0.332683	-0.992619	0.910286
C59	C	-0.832538	-1.614139	0.531966
C60	C	-0.332538	-1.114139	1.031966
C61	C	-0.881964	-1.588559	0.436031
C62	C	-0.381964	-1.088559	0.936031
C63	C	-0.700224	-1.518226	0.506194
C64	C	-0.200224	-1.018226	1.006194
C65	C	-1.014404	-1.518442	0.506228
C66	C	-0.514404	-1.018442	1.006228
C67	C	-0.163989	-1.518423	0.506222
C68	C	0.336011	-1.018423	1.006222
C69	C	-0.081443	-1.518489	0.506239
C70	C	0.418557	-1.018489	1.006239
C71	C	-0.357704	-1.792300	0.506203
C72	C	0.142296	-1.292300	1.006203
C73	C	-0.357708	-1.909077	0.506212
C74	C	0.142292	-1.409077	1.006212
C75	C	-0.405253	-1.073670	0.573257
C76	C	0.094747	-0.573670	1.073257
C77	C	-0.405256	-0.963946	0.573278
C78	C	0.094744	-0.463946	1.073278
C79	C	-0.310149	-0.963938	0.439129
C80	C	0.189851	-0.463938	0.939129
C81	C	-0.310143	-1.073660	0.439114
C82	C	0.189857	-0.573660	0.939114
C83	C	-0.431904	-0.814041	0.697139
C84	C	0.068096	-0.314041	1.197139
C85	C	-0.479469	-0.759184	0.764211
C86	C	0.020531	-0.259184	1.264211
C87	C	-0.551945	-0.794757	0.780160
C88	C	-0.051945	-0.294757	1.280160
C89	C	-0.576870	-0.885186	0.729023
C90	C	-0.076870	-0.385186	1.229023
C91	C	-0.529309	-0.940038	0.661944
C92	C	-0.029309	-0.440038	1.161944
C93	C	-0.456822	-0.904466	0.646014
C94	C	0.043178	-0.404466	1.146014
C95	C	-0.283503	-1.223567	0.315251
C96	C	0.216497	-0.723567	0.815251
C97	C	-0.235944	-1.278420	0.248166
C98	C	0.264056	-0.778420	0.748166
C99	C	-0.163467	-1.242849	0.232206
C100	C	0.336533	-0.742849	0.732206
C101	C	-0.138545	-1.152417	0.283325
C102	C	0.361455	-0.652417	0.783325
C103	C	-0.186103	-1.097563	0.350410
C104	C	0.313897	-0.597563	0.850410
C105	C	-0.258579	-1.133142	0.366372
C106	C	0.241421	-0.633142	0.866372
C107	C	-0.357712	-1.518249	0.233214
C108	C	0.142288	-1.018249	0.733214
C109	C	-0.357533	-1.518419	0.116438
C110	C	0.142467	-1.018419	0.616438
C111	C	-0.310088	-1.585619	0.951871
C112	C	0.189912	-1.085619	1.451871
C113	C	-0.310056	-1.585637	1.061595
C114	C	0.189944	-1.085637	1.561595
C115	C	-0.405039	-1.451172	1.061552
C116	C	0.094961	-0.951172	1.561552
C117	C	-0.405067	-1.451150	0.951829
C118	C	0.094933	-0.951150	1.451829
C119	C	-0.222435	-1.623278	1.211571
C120	C	0.277565	-1.123278	1.711571
C121	C	-0.174938	-1.690534	1.266453
C122	C	0.325062	-1.190534	1.766453
C123	C	-0.163549	-1.793050	1.230862
C124	C	0.336451	-1.293050	1.730862
C125	C	-0.199670	-1.828332	1.140389
C126	C	0.300330	-1.328332	1.640389
C127	C	-0.247173	-1.761082	1.085512
C128	C	0.252827	-1.261082	1.585512
C129	C	-0.258547	-1.658550	1.121102
C130	C	0.241453	-1.158550	1.621102
C131	C	-0.492689	-1.413520	0.801851
C132	C	0.007311	-0.913520	1.301851
C133	C	-0.540196	-1.346274	0.746972
C134	C	-0.040196	-0.846274	1.246972
C135	C	-0.551592	-1.243755	0.782562
C136	C	-0.051592	-0.743755	1.282562
C137	C	-0.515485	-1.208478	0.873038
C138	C	-0.015485	-0.708478	1.373038
C139	C	-0.467977	-1.275723	0.927917
C140	C	0.032023	-0.775723	1.427917
C141	C	-0.456580	-1.378241	0.892320
C142	C	0.043420	-0.878241	1.392320
H143	H	-0.810995	-1.388648	0.635565
H144	H	-0.310995	-0.888648	1.135565
H145	H	-0.079532	-1.123441	0.270313
H146	H	0.420468	-0.623441	0.770313
H147	H	-0.569604	-1.375010	0.673309
H148	H	-0.069604	-0.875010	1.173309
H149	H	-0.271430	-1.640358	0.907225
H150	H	0.228570	-1.140358	1.407225
F151	F	-0.136497	-1.652982	1.362738
F152	F	0.363503	-1.152982	1.862738
H153	H	-0.342518	-1.252545	0.328250
H154	H	0.157482	-0.752545	0.828250
F155	F	-0.804513	-1.464174	0.304283
F156	F	-0.304513	-0.964174	0.804283
H157	H	-0.903481	-1.647959	0.376662
H158	H	-0.403481	-1.147959	0.876662
H159	H	-0.124748	-1.287516	0.177570
H160	H	0.375252	-0.787516	0.677570
F161	F	-0.804064	-1.720007	0.560478
F162	F	-0.304064	-1.220007	1.060478
H163	H	-0.549603	-1.013662	0.620308
H164	H	-0.049603	-0.513662	1.120308
H165	H	-0.276584	-1.789809	1.011854
H166	H	0.223416	-1.289809	1.511854
F167	F	-0.910250	-1.572277	0.708056
F168	F	-0.410250	-1.072277	1.208056
H169	H	-0.190399	-1.911815	1.111423
H170	H	0.309601	-1.411815	1.611423
H171	H	-0.256243	-1.352055	0.206542
H172	H	0.243757	-0.852055	0.706542
H173	H	-0.124875	-1.847810	1.275555
H174	H	0.375125	-1.347810	1.775555
H175	H	-0.443974	-1.118336	0.627867
H176	H	0.056026	-0.618336	1.127867
F177	F	-0.910548	-1.316581	0.451993
F178	F	-0.410548	-0.816581	0.951993
F179	F	-0.452938	-0.662948	0.818636
F180	F	0.047062	-0.162948	1.318636
H181	H	-0.635890	-0.914136	0.742006
H182	H	-0.135890	-0.414136	1.242006
H183	H	-0.231697	-1.539798	1.240553
H184	H	0.268303	-1.039798	1.740553
F185	F	-0.602565	-0.736374	0.851548
F186	F	-0.102565	-0.236374	1.351548
H187	H	-0.372885	-0.785075	0.684170
H188	H	0.127115	-0.285075	1.184170
H189	H	-0.271432	-0.919255	0.384527
H190	H	0.228568	-0.419255	0.884527
H191	H	-0.165803	-1.023933	0.392041
H192	H	0.334197	-0.523933	0.892041
F193	F	-0.455564	-1.379630	1.119923
F194	F	0.044436	-0.879630	1.619923
F195	F	-0.480544	-1.522623	0.763948
F196	F	0.019456	-1.022623	1.263948
F197	F	-0.429547	-1.238174	1.024210
F198	F	0.070453	-0.738174	1.524210
F199	F	-0.602168	-1.172195	0.724163
F200	F	-0.102168	-0.672195	1.224163
H201	H	-0.524766	-1.125000	0.902019
H202	H	-0.024766	-0.625000	1.402019
