data_functionalizedCrystal
_audit_creation_method	'MofGen! by Chris Wilmer'
_symmetry_space_group_name_H-M	'P1'
_symmetry_Int_Tables_number	1
_symmetry_cell_setting	triclinic
loop_
_symmetry_equiv_pos_as_xyz
  x,y,z
_cell_length_a	17.699083
_cell_length_b	17.699104
_cell_length_c	13.448316
_cell_angle_alpha	89.992351
_cell_angle_beta	90.000153
_cell_angle_gamma	96.712734
loop_
_atom_site_label
_atom_site_type_symbol
_atom_site_fract_x
_atom_site_fract_y
_atom_site_fract_z
O1	O	-0.095788	1.004068	-0.082698
O2	O	-0.108224	0.783692	-0.082693
O3	O	0.008183	0.900106	-0.082705
O4	O	-0.212195	0.887654	-0.082686
O5	O	0.008190	0.900092	0.082678
O6	O	-0.108217	0.783677	0.082690
O7	O	-0.095781	1.004054	0.082686
Cu8	Cu	-0.101998	0.893864	0.097789
Cu9	Cu	-0.102007	0.893881	-0.097796
O10	O	-0.212188	0.887639	0.082698
C11	C	-0.107772	0.755488	-0.000001
C12	C	-0.106427	0.671471	-0.000000
C13	C	-0.167171	0.146600	-0.000005
C14	C	-0.168430	0.225543	-0.000008
C15	C	-0.100095	0.274161	-0.000014
C16	C	-0.030496	0.243831	-0.000027
C17	C	-0.029238	0.164889	-0.000032
C18	C	-0.035569	0.562197	-0.000011
C19	C	-0.036833	0.641144	-0.000004
C20	C	-0.174762	0.622852	0.000013
C21	C	-0.173503	0.543909	0.000008
C22	C	-0.103905	0.513587	-0.000010
C23	C	-0.102541	0.427987	-0.000009
C24	C	-0.101459	0.359759	-0.000008
C25	C	-0.240388	0.888093	0.000009
C26	C	-0.324406	0.889431	0.000016
C27	C	-0.373022	0.821099	0.000017
C28	C	-0.451966	0.822361	0.000005
C29	C	-0.482292	0.891957	-0.000000
C30	C	-0.433670	0.960295	-0.000005
C31	C	-0.354728	0.959032	-0.000000
C32	C	-0.752033	0.965390	-0.000025
C33	C	-0.830981	0.966648	-0.000026
C34	C	-0.849271	0.828719	-0.000019
C35	C	-0.770329	0.827456	-0.000014
C36	C	-0.721714	0.895794	-0.000024
C37	C	-0.636115	0.894424	-0.000013
C38	C	-0.567889	0.893327	-0.000004
C39	C	0.036383	0.899653	-0.000018
C40	C	0.120402	0.898314	-0.000032
C41	C	-0.096233	1.032258	-0.000008
C42	C	-0.097578	1.116275	-0.000016
N43	N	-0.101992	0.893858	0.235353
N44	N	-0.102007	0.893894	-0.235361
C45	C	-0.050468	0.945422	0.287388
C46	C	-0.050467	0.945426	0.391492
C47	C	-0.101995	0.893870	0.443558
C48	C	-0.153521	0.842300	0.391516
C49	C	-0.153517	0.842293	0.287414
C50	C	-0.153526	0.842321	0.608496
C51	C	-0.153531	0.842330	0.712604
C52	C	-0.050476	0.945455	0.712573
C53	C	-0.050472	0.945447	0.608472
C54	C	-0.102000	0.893878	0.556437
H55	H	-0.348338	0.764426	0.000034
H56	H	-0.195483	0.800326	0.566132
O57	O	-0.704708	1.031700	-0.000076
C58	C	-0.628527	1.015670	-0.000054
H59	H	-0.625603	0.956229	-0.031357
H60	H	-0.592687	1.059238	-0.048077
H61	H	-0.605689	1.018580	0.079287
H62	H	-0.008519	0.987432	0.566079
H63	H	-0.008521	0.987444	0.754946
H64	H	-0.231432	0.647550	0.000023
H65	H	-0.491546	0.766717	0.000003
O66	O	-0.203601	0.792165	0.763029
C67	C	-0.249084	0.746651	0.694782
H68	H	-0.218057	0.745859	0.620573
H69	H	-0.260682	0.686191	0.724880
H70	H	-0.305292	0.771099	0.683707
H71	H	-0.195473	0.800318	0.433914
H72	H	-0.222818	0.107020	0.000007
H73	H	-0.745642	0.770784	-0.000004
O74	O	0.035936	0.290978	0.000096
C75	C	0.078197	0.277251	0.085754
H76	H	0.059501	0.217330	0.114310
H77	H	0.141330	0.282915	0.066480
H78	H	0.067935	0.320406	0.145737
H79	H	0.021102	0.537518	-0.000023
H80	H	0.018817	0.680728	-0.000011
O81	O	-0.896389	0.762264	0.000021
C82	C	-0.852693	0.700568	0.000005
H83	H	-0.793742	0.719887	0.031323
H84	H	-0.881901	0.652694	0.048020
H85	H	-0.847103	0.679235	-0.079336
H86	H	-0.855669	1.023324	-0.000032
H87	H	0.027432	0.140200	-0.000042
H88	H	-0.225100	0.250230	-0.000009
O89	O	-0.000526	0.995549	0.442153
C90	C	-0.041014	1.042171	0.502335
H91	H	-0.100274	1.011911	0.517931
H92	H	-0.009414	1.054209	0.575540
H93	H	-0.046094	1.098093	0.462202
H94	H	-0.195472	0.800303	0.245048
H95	H	-0.458367	1.016961	-0.000008
H96	H	-0.315145	1.014675	-0.000006
H97	H	-0.008512	0.987408	0.245003
O98	O	-0.239954	0.496791	-0.000031
C99	C	-0.301651	0.540486	0.000001
H100	H	-0.282332	0.599444	-0.031306
H101	H	-0.349522	0.511287	-0.048014
H102	H	-0.322989	0.546058	0.079346
