data_functionalizedCrystal
_audit_creation_method	'MofGen! by Chris Wilmer'
_symmetry_space_group_name_H-M	'P1'
_symmetry_Int_Tables_number	1
_symmetry_cell_setting	triclinic
loop_
_symmetry_equiv_pos_as_xyz
  x,y,z
_cell_length_a	19.188925
_cell_length_b	19.188930
_cell_length_c	8.140239
_cell_angle_alpha	90.008252
_cell_angle_beta	90.002413
_cell_angle_gamma	83.143665
loop_
_atom_site_label
_atom_site_type_symbol
_atom_site_fract_x
_atom_site_fract_y
_atom_site_fract_z
O1	O	0.926144	0.087148	0.136667
O2	O	1.426144	0.587148	0.636667
O3	O	0.722832	0.098886	0.136665
O4	O	1.222832	0.598886	0.636665
O5	O	0.830356	-0.008638	0.136634
O6	O	1.330356	0.491362	0.636634
O7	O	0.818621	0.194673	0.136698
O8	O	1.318621	0.694673	0.636698
O9	O	0.830352	-0.008639	-0.136593
O10	O	1.330352	0.491361	0.363407
O11	O	0.722829	0.098886	-0.136562
O12	O	1.222829	0.598886	0.363438
O13	O	0.926141	0.087147	-0.136560
O14	O	1.426141	0.587147	0.363440
Zn15	Zn	0.824484	0.093016	-0.179942
Zn16	Zn	1.324484	0.593016	0.320058
Zn17	Zn	0.824489	0.093017	0.180047
Zn18	Zn	1.324489	0.593017	0.680047
O19	O	0.818618	0.194672	-0.136529
O20	O	1.318618	0.694672	0.363471
C21	C	0.696820	0.098507	0.000051
C22	C	1.196820	0.598507	0.500051
C23	C	0.619315	0.097367	0.000049
C24	C	1.119315	0.597367	0.500049
C25	C	0.057545	0.152831	0.000070
C26	C	0.557545	0.652831	0.500070
C27	C	0.130368	0.153908	0.000079
C28	C	0.630368	0.653908	0.500079
C29	C	0.175302	0.090816	0.000056
C30	C	0.675302	0.590816	0.500056
C31	C	0.147408	0.026642	0.000067
C32	C	0.647408	0.526642	0.500067
C33	C	0.074586	0.025568	0.000074
C34	C	0.574586	0.525568	0.500074
N35	N	0.295978	0.045139	-0.092966
N36	N	0.795978	0.545139	0.407034
N37	N	0.365156	0.046165	-0.092977
N38	N	0.865156	0.546165	0.407023
C39	C	0.394712	0.094050	0.000038
C40	C	0.894712	0.594050	0.500038
N41	N	0.352475	0.140882	0.093043
N42	N	0.852475	0.640882	0.593043
N43	N	0.283291	0.139859	0.093046
N44	N	0.783291	0.639859	0.593046
C45	C	0.254267	0.091974	0.000050
C46	C	0.754267	0.591974	0.500050
C47	C	0.501561	0.159386	0.000049
C48	C	1.001561	0.659386	0.500049
C49	C	0.574385	0.160460	0.000069
C50	C	1.074385	0.660460	0.500069
C51	C	0.591425	0.033193	0.000040
C52	C	1.091425	0.533193	0.500040
C53	C	0.518601	0.032121	0.000037
C54	C	1.018601	0.532121	0.500037
C55	C	0.473673	0.095220	0.000034
C56	C	0.973673	0.595220	0.500034
C57	C	0.829974	-0.034650	0.000016
C58	C	1.329974	0.465350	0.500016
C59	C	0.828833	-0.112154	0.000002
C60	C	1.328833	0.387846	0.500002
C61	C	0.891924	-0.157079	-0.000006
C62	C	1.391924	0.342921	0.499994
C63	C	0.890852	-0.229903	0.000021
C64	C	1.390852	0.270097	0.500021
C65	C	0.826686	-0.257799	0.000021
C66	C	1.326686	0.242201	0.500021
C67	C	0.763587	-0.212864	0.000038
C68	C	1.263587	0.287136	0.500038
C69	C	0.764660	-0.140041	0.000028
C70	C	1.264660	0.359959	0.500028
N71	N	0.777638	-0.365803	-0.092964
N72	N	1.277638	0.134197	0.407036
N73	N	0.776622	-0.434981	-0.092958
N74	N	1.276622	0.065019	0.407042
C75	C	0.823448	-0.477207	0.000055
C76	C	1.323448	0.022793	0.500055
N77	N	0.871338	-0.447642	0.093040
N78	N	1.371338	0.052358	0.593040
N79	N	0.872356	-0.378458	0.093027
N80	N	1.372356	0.121542	0.593027
C81	C	0.825515	-0.336761	0.000033
C82	C	1.325515	0.163239	0.500033
C83	C	0.885381	-0.601097	0.000078
C84	C	1.385381	-0.101097	0.500078
C85	C	0.884307	-0.673922	0.000115
C86	C	1.384307	-0.173922	0.500115
C87	C	0.757040	-0.656880	0.000115
C88	C	1.257040	-0.156880	0.500115
C89	C	0.758116	-0.584057	0.000095
C90	C	1.258116	-0.084057	0.500095
C91	C	0.822289	-0.556170	0.000069
C92	C	1.322289	-0.056170	0.500069
C93	C	0.952154	0.087527	0.000058
C94	C	1.452154	0.587527	0.500058
C95	C	1.029658	0.088666	0.000071
C96	C	1.529658	0.588666	0.500071
C97	C	0.819000	0.220684	0.000093
C98	C	1.319000	0.720684	0.500093
C99	C	0.820140	0.298188	0.000118
C100	C	1.320140	0.798188	0.500118
N101	N	0.824486	0.093015	-0.425624
N102	N	1.324486	0.593015	0.074376
N103	N	0.824492	0.093013	0.425729
N104	N	1.324492	0.593013	0.925729
H105	H	0.464978	0.210765	0.000050
H106	H	0.964978	0.710765	0.500050
H107	H	0.597088	0.212713	0.000082
H108	H	1.097088	0.712713	0.500082
H109	H	0.704794	-0.679592	0.000124
H110	H	1.204794	-0.179592	0.500124
H111	H	0.495896	-0.020129	0.000028
H112	H	0.995896	0.479871	0.500028
H113	H	0.942230	-0.266488	0.000021
H114	H	1.442230	0.233512	0.500021
Cl115	Cl	0.647907	-0.046124	0.000036
Cl116	Cl	1.147907	0.453876	0.500036
Cl117	Cl	0.001068	0.232156	0.000089
Cl118	Cl	0.501068	0.732156	0.500089
H119	H	0.153078	0.206160	0.000063
H120	H	0.653078	0.706160	0.500063
Cl121	Cl	0.203896	-0.052674	0.000045
Cl122	Cl	0.703896	0.447326	0.500045
H123	H	0.051883	-0.026685	0.000075
H124	H	0.551883	0.473315	0.500075
Cl125	Cl	0.972598	-0.122025	0.000008
Cl126	Cl	1.472598	0.377975	0.500008
Cl127	Cl	0.682921	-0.247931	0.000052
Cl128	Cl	1.182921	0.252069	0.500052
H129	H	0.935686	-0.710500	0.000118
H130	H	1.435686	-0.210500	0.500118
Cl131	Cl	0.966054	-0.566035	0.000036
Cl132	Cl	1.466054	-0.066035	0.500036
Cl133	Cl	0.678797	-0.527576	0.000097
Cl134	Cl	1.178797	-0.027576	0.500097
H135	H	0.713282	-0.103462	0.000033
H136	H	1.213282	0.396538	0.500033
