data_functionalizedCrystal
_audit_creation_method	'MofGen! by Chris Wilmer'
_symmetry_space_group_name_H-M	'P1'
_symmetry_Int_Tables_number	1
_symmetry_cell_setting	triclinic
loop_
_symmetry_equiv_pos_as_xyz
  x,y,z
_cell_length_a	21.395364
_cell_length_b	21.395361
_cell_length_c	21.395356
_cell_angle_alpha	90.028219
_cell_angle_beta	89.976233
_cell_angle_gamma	89.971134
loop_
_atom_site_label
_atom_site_type_symbol
_atom_site_fract_x
_atom_site_fract_y
_atom_site_fract_z
Zn1	Zn	0.957854	0.249482	-0.354262
Zn2	Zn	1.207854	0.499482	-0.104262
Zn3	Zn	1.457854	0.749482	0.145738
Zn4	Zn	1.707854	0.999482	0.395738
Zn5	Zn	0.957758	0.354259	-0.249484
Zn6	Zn	1.207758	0.604259	0.000516
Zn7	Zn	1.457758	0.854259	0.250516
Zn8	Zn	1.707758	1.104259	0.500516
Zn9	Zn	0.853071	0.249496	-0.249498
Zn10	Zn	1.103071	0.499496	0.000502
Zn11	Zn	1.353071	0.749496	0.250502
Zn12	Zn	1.603071	0.999496	0.500502
Zn13	Zn	0.853038	0.354223	-0.354223
Zn14	Zn	1.103038	0.604223	-0.104223
Zn15	Zn	1.353038	0.854223	0.145777
Zn16	Zn	1.603038	1.104223	0.395777
O17	O	0.905430	0.301865	-0.301867
O18	O	1.155430	0.551865	-0.051867
O19	O	1.405430	0.801865	0.198133
O20	O	1.655430	1.051865	0.448133
O21	O	1.045519	0.263390	-0.340373
O22	O	1.295519	0.513390	-0.090373
O23	O	1.545519	0.763390	0.159627
O24	O	1.795519	1.013390	0.409627
O25	O	0.943845	0.340383	-0.161808
O26	O	1.193845	0.590383	0.088192
O27	O	1.443845	0.840383	0.338192
O28	O	1.693845	1.090383	0.588192
O29	O	0.867024	0.161816	-0.263418
O30	O	1.117024	0.411816	-0.013418
O31	O	1.367024	0.661816	0.236582
O32	O	1.617024	0.911816	0.486582
O33	O	1.045449	0.340369	-0.263393
O34	O	1.295449	0.590369	-0.013393
O35	O	1.545449	0.840369	0.236607
O36	O	1.795449	1.090369	0.486607
O37	O	0.944008	0.161806	-0.340387
O38	O	1.194008	0.411806	-0.090387
O39	O	1.444008	0.661806	0.159613
O40	O	1.694008	0.911806	0.409613
O41	O	0.866931	0.263414	-0.161819
O42	O	1.116931	0.513414	0.088181
O43	O	1.366931	0.763414	0.338181
O44	O	1.616931	1.013414	0.588181
O45	O	0.765388	0.263379	-0.263380
O46	O	1.015388	0.513379	-0.013380
O47	O	1.265388	0.763379	0.236620
O48	O	1.515388	1.013379	0.486620
O49	O	0.866969	0.340308	-0.441906
O50	O	1.116969	0.590308	-0.191906
O51	O	1.366969	0.840308	0.058094
O52	O	1.616969	1.090308	0.308094
O53	O	0.765365	0.340321	-0.340321
O54	O	1.015365	0.590321	-0.090321
O55	O	1.265365	0.840321	0.159679
O56	O	1.515365	1.090321	0.409679
O57	O	0.943976	0.263356	-0.441935
O58	O	1.193976	0.513356	-0.191935
O59	O	1.443976	0.763356	0.058065
O60	O	1.693976	1.013356	0.308065
O61	O	0.943814	0.441932	-0.263355
O62	O	1.193814	0.691932	-0.013355
O63	O	1.443814	0.941932	0.236645
O64	O	1.693814	1.191932	0.486645
O65	O	0.866876	0.441906	-0.340307
O66	O	1.116876	0.691906	-0.090307
O67	O	1.366876	0.941906	0.159693
O68	O	1.616876	1.191906	0.409693
C69	C	0.742643	0.301848	-0.301849
C70	C	0.992643	0.551848	-0.051849
C71	C	1.242643	0.801848	0.198151
C72	C	1.492643	1.051848	0.448151
C73	C	0.673001	0.301856	-0.301856
C74	C	0.923001	0.551856	-0.051856
C75	C	1.173001	0.801856	0.198144
C76	C	1.423001	1.051856	0.448144
C77	C	0.171209	0.342002	-0.341891
C78	C	0.421209	0.592002	-0.091891
C79	C	0.671209	0.842002	0.158109
C80	C	0.921209	1.092002	0.408109
C81	C	0.236645	0.342002	-0.341885
C82	C	0.486645	0.592002	-0.091885
C83	C	0.736645	0.842002	0.158115
C84	C	0.986645	1.092002	0.408115
C85	C	0.269363	0.301879	-0.301887
C86	C	0.519363	0.551879	-0.051887
C87	C	0.769363	0.801879	0.198113
C88	C	1.019363	1.051879	0.448113
C89	C	0.236641	0.261763	-0.261881
C90	C	0.486641	0.511763	-0.011881
C91	C	0.736641	0.761763	0.238119
C92	C	0.986641	1.011763	0.488119
C93	C	0.171207	0.261769	-0.261884
C94	C	0.421207	0.511769	-0.011884
C95	C	0.671207	0.761769	0.238116
C96	C	0.921207	1.011769	0.488116
C97	C	0.373052	0.245414	-0.297036
C98	C	0.623052	0.495414	-0.047036
C99	C	0.873052	0.745414	0.202964
C100	C	1.123052	0.995414	0.452964
C101	C	0.438485	0.245408	-0.297037
C102	C	0.688485	0.495408	-0.047037
C103	C	0.938485	0.745408	0.202963
C104	C	1.188485	0.995408	0.452963
C105	C	0.471184	0.301862	-0.301873
C106	C	0.721184	0.551862	-0.051873
C107	C	0.971184	0.801862	0.198127
C108	C	1.221184	1.051862	0.448127
C109	C	0.438442	0.358325	-0.306721
C110	C	0.688442	0.608325	-0.056721
C111	C	0.938442	0.858325	0.193279
C112	C	1.188442	1.108325	0.443279
C113	C	0.373008	0.358330	-0.306724
C114	C	0.623008	0.608330	-0.056724
C115	C	0.873008	0.858330	0.193276
C116	C	1.123008	1.108330	0.443276
C117	C	0.340316	0.301869	-0.301878
C118	C	0.590316	0.551869	-0.051878
C119	C	0.840316	0.801869	0.198122
C120	C	1.090316	1.051869	0.448122
C121	C	0.574851	0.341978	-0.341866
C122	C	0.824851	0.591978	-0.091866
C123	C	1.074851	0.841978	0.158134
C124	C	1.324851	1.091978	0.408134
C125	C	0.640288	0.341980	-0.341855
C126	C	0.890288	0.591980	-0.091855
C127	C	1.140288	0.841980	0.158145
C128	C	1.390288	1.091980	0.408145
C129	C	0.640282	0.261735	-0.261855
C130	C	0.890282	0.511735	-0.011855
C131	C	1.140282	0.761735	0.238145
C132	C	1.390282	1.011735	0.488145
C133	C	0.574847	0.261739	-0.261862
C134	C	0.824847	0.511739	-0.011862
C135	C	1.074847	0.761739	0.238138
C136	C	1.324847	1.011739	0.488138
C137	C	0.542135	0.301860	-0.301871
C138	C	0.792135	0.551860	-0.051871
C139	C	1.042135	0.801860	0.198129
C140	C	1.292135	1.051860	0.448129
C141	C	0.905348	0.464653	-0.301839
C142	C	1.155348	0.714653	-0.051839
C143	C	1.405348	0.964653	0.198161
C144	C	1.655348	1.214653	0.448161
C145	C	0.905370	0.534294	-0.301848
C146	C	1.155370	0.784294	-0.051848
C147	C	1.405370	1.034294	0.198152
C148	C	1.655370	1.284294	0.448152
C149	C	0.945467	0.567000	-0.261822
C150	C	1.195467	0.817000	-0.011822
C151	C	1.445467	1.067000	0.238178
C152	C	1.695467	1.317000	0.488178
C153	C	0.945496	0.632435	-0.261838
C154	C	1.195496	0.882435	-0.011838
C155	C	1.445496	1.132435	0.238162
C156	C	1.695496	1.382435	0.488162
C157	C	0.905418	0.665162	-0.301875
C158	C	1.155418	0.915162	-0.051875
C159	C	1.405418	1.165162	0.198125
C160	C	1.655418	1.415162	0.448125
C161	C	0.865318	0.632448	-0.341909
C162	C	1.115318	0.882448	-0.091909
C163	C	1.365318	1.132448	0.158091
C164	C	1.615318	1.382448	0.408091
C165	C	0.865294	0.567014	-0.341896
C166	C	1.115294	0.817014	-0.091896
C167	C	1.365294	1.067014	0.158104
C168	C	1.615294	1.317014	0.408104
C169	C	0.849003	0.768875	-0.306789
C170	C	1.099003	1.018875	-0.056789
C171	C	1.349003	1.268875	0.193211
C172	C	1.599003	1.518875	0.443211
C173	C	0.849026	0.834308	-0.306798
C174	C	1.099026	1.084308	-0.056798
C175	C	1.349026	1.334308	0.193202
C176	C	1.599026	1.584308	0.443202
C177	C	0.905491	0.866983	-0.301921
C178	C	1.155491	1.116983	-0.051921
C179	C	1.405491	1.366983	0.198079
C180	C	1.655491	1.616983	0.448079
C181	C	0.961936	0.834217	-0.297020
C182	C	1.211936	1.084217	-0.047020
C183	C	1.461936	1.334217	0.202980
C184	C	1.711936	1.584217	0.452980
C185	C	0.961912	0.768783	-0.297007
C186	C	1.211912	1.018783	-0.047007
C187	C	1.461912	1.268783	0.202993
C188	C	1.711912	1.518783	0.452993
C189	C	0.905439	0.736115	-0.301895
C190	C	1.155439	0.986115	-0.051895
C191	C	1.405439	1.236115	0.198105
C192	C	1.655439	1.486115	0.448105
C193	C	0.945623	0.970642	-0.261910
C194	C	1.195623	1.220642	-0.011910
C195	C	1.445623	1.470642	0.238090
C196	C	1.695623	1.720642	0.488090
C197	C	0.945654	1.036078	-0.261931
C198	C	1.195654	1.286078	-0.011931
C199	C	1.445654	1.536078	0.238069
C200	C	1.695654	1.786078	0.488069
C201	C	0.865470	1.036090	-0.341999
C202	C	1.115470	1.286090	-0.091999
C203	C	1.365470	1.536090	0.158001
C204	C	1.615470	1.786090	0.408001
C205	C	0.865445	0.970654	-0.341981
C206	C	1.115445	1.220654	-0.091981
C207	C	1.365445	1.470654	0.158019
C208	C	1.615445	1.720654	0.408019
C209	C	0.905521	0.937934	-0.301933
C210	C	1.155521	1.187934	-0.051933
C211	C	1.405521	1.437934	0.198067
C212	C	1.655521	1.687934	0.448067
C213	C	1.068854	0.301882	-0.301885
C214	C	1.318854	0.551882	-0.051885
C215	C	1.568854	0.801882	0.198115
C216	C	1.818854	1.051882	0.448115
C217	C	1.138495	0.301890	-0.301893
C218	C	1.388495	0.551890	-0.051893
C219	C	1.638495	0.801890	0.198107
C220	C	1.888495	1.051890	0.448107
C221	C	0.905480	0.301826	-0.465290
C222	C	1.155480	0.551826	-0.215290
C223	C	1.405480	0.801826	0.034710
C224	C	1.655480	1.051826	0.284710
C225	C	0.905501	0.301810	-0.534931
C226	C	1.155501	0.551810	-0.284931
C227	C	1.405501	0.801810	-0.034931
C228	C	1.655501	1.051810	0.215069
C229	C	0.905531	1.138442	-0.301919
C230	C	1.155531	1.388442	-0.051919
C231	C	1.405531	1.638442	0.198081
C232	C	1.655531	1.888442	0.448081
C233	C	0.905575	1.068800	-0.301969
C234	C	1.155575	1.318800	-0.051969
C235	C	1.405575	1.568800	0.198031
C236	C	1.655575	1.818800	0.448031
C237	C	0.865462	0.261728	-0.567640
C238	C	1.115462	0.511728	-0.317640
C239	C	1.365462	0.761728	-0.067640
C240	C	1.615462	1.011728	0.182360
C241	C	0.865460	0.261716	-0.633076
C242	C	1.115460	0.511716	-0.383076
C243	C	1.365460	0.761716	-0.133076
C244	C	1.615460	1.011716	0.116924
C245	C	0.905508	0.301780	-0.665800
C246	C	1.155508	0.551780	-0.415800
C247	C	1.405508	0.801780	-0.165800
C248	C	1.655508	1.051780	0.084200
C249	C	0.945549	0.341870	-0.633083
C250	C	1.195549	0.591870	-0.383083
C251	C	1.445549	0.841870	-0.133083
C252	C	1.695549	1.091870	0.116917
C253	C	0.945545	0.341885	-0.567649
C254	C	1.195545	0.591885	-0.317649
C255	C	1.445545	0.841885	-0.067649
C256	C	1.695545	1.091885	0.182351
C257	C	0.961960	0.306707	-0.769486
C258	C	1.211960	0.556707	-0.519486
C259	C	1.461960	0.806707	-0.269486
C260	C	1.711960	1.056707	-0.019486
C261	C	0.961964	0.306688	-0.834919
C262	C	1.211964	0.556688	-0.584919
C263	C	1.461964	0.806688	-0.334919
C264	C	1.711964	1.056688	-0.084919
C265	C	0.905518	0.301738	-0.867621
C266	C	1.155518	0.551738	-0.617621
C267	C	1.405518	0.801738	-0.367621
C268	C	1.655518	1.051738	-0.117621
C269	C	0.849065	0.296793	-0.834881
C270	C	1.099065	0.546793	-0.584881
C271	C	1.349065	0.796793	-0.334881
C272	C	1.599065	1.046793	-0.084881
C273	C	0.849062	0.296808	-0.769447
C274	C	1.099062	0.546808	-0.519447
C275	C	1.349062	0.796808	-0.269447
C276	C	1.599062	1.046808	-0.019447
C277	C	0.905515	0.301768	-0.736752
C278	C	1.155515	0.551768	-0.486752
C279	C	1.405515	0.801768	-0.236752
C280	C	1.655515	1.051768	0.013248
C281	C	0.865474	0.261641	-0.971282
C282	C	1.115474	0.511641	-0.721282
C283	C	1.365474	0.761641	-0.471282
C284	C	1.615474	1.011641	-0.221282
C285	C	0.865471	0.261633	-1.036719
C286	C	1.115471	0.511633	-0.786719
C287	C	1.365471	0.761633	-0.536719
C288	C	1.615471	1.011633	-0.286719
C289	C	0.945565	0.341784	-1.036725
C290	C	1.195565	0.591784	-0.786725
C291	C	1.445565	0.841784	-0.536725
C292	C	1.695565	1.091784	-0.286725
C293	C	0.945562	0.341795	-0.971289
C294	C	1.195562	0.591795	-0.721289
C295	C	1.445562	0.841795	-0.471289
C296	C	1.695562	1.091795	-0.221289
C297	C	0.905518	0.301720	-0.938572
C298	C	1.155518	0.551720	-0.688572
C299	C	1.405518	0.801720	-0.438572
C300	C	1.655518	1.051720	-0.188572
C301	C	0.905417	0.301859	-0.139079
C302	C	1.155417	0.551859	0.110921
C303	C	1.405417	0.801859	0.360921
C304	C	1.655417	1.051859	0.610921
C305	C	0.905518	0.301699	-0.069438
C306	C	1.155518	0.551699	0.180562
C307	C	1.405518	0.801699	0.430562
C308	C	1.655518	1.051699	0.680562
H309	H	0.548216	0.374648	-0.374443
H310	H	0.798216	0.624648	-0.124443
H311	H	1.048216	0.874648	0.125557
H312	H	1.298216	1.124648	0.375557
H313	H	0.978155	0.374490	-0.659731
H314	H	1.228155	0.624490	-0.409731
H315	H	1.478155	0.874490	-0.159731
H316	H	1.728155	1.124490	0.090269
Cl317	Cl	0.681408	0.211299	-0.211565
Cl318	Cl	0.931408	0.461299	0.038435
Cl319	Cl	1.181408	0.711299	0.288435
Cl320	Cl	1.431408	0.961299	0.538435
Cl321	Cl	1.032925	0.875287	-0.290881
Cl322	Cl	1.282925	1.125287	-0.040881
Cl323	Cl	1.532925	1.375287	0.209119
Cl324	Cl	1.782925	1.625287	0.459119
Cl325	Cl	0.815118	0.211351	-0.526513
Cl326	Cl	1.065118	0.461351	-0.276513
Cl327	Cl	1.315118	0.711351	-0.026513
Cl328	Cl	1.565118	0.961351	0.223487
Cl329	Cl	0.778068	0.875493	-0.312957
Cl330	Cl	1.028068	1.125493	-0.062957
Cl331	Cl	1.278068	1.375493	0.187043
Cl332	Cl	1.528068	1.625493	0.437043
H333	H	0.144571	0.229102	-0.229313
H334	H	0.394571	0.479102	0.020687
H335	H	0.644571	0.729102	0.270687
H336	H	0.894571	0.979102	0.520687
H337	H	0.978152	0.374524	-0.541018
H338	H	1.228152	0.624524	-0.291018
H339	H	1.478152	0.874524	-0.041018
H340	H	1.728152	1.124524	0.208982
H341	H	0.548210	0.229073	-0.229294
H342	H	0.798210	0.479073	0.020706
H343	H	1.048210	0.729073	0.270706
H344	H	1.298210	0.979073	0.520706
H345	H	0.978101	0.540361	-0.229214
H346	H	1.228101	0.790361	0.020786
H347	H	1.478101	1.040361	0.270786
H348	H	1.728101	1.290361	0.520786
Cl349	Cl	0.778100	0.290566	-0.875984
Cl350	Cl	1.028100	0.540566	-0.625984
Cl351	Cl	1.278100	0.790566	-0.375984
Cl352	Cl	1.528100	1.040566	-0.125984
Cl353	Cl	1.032927	0.312936	-0.728383
Cl354	Cl	1.282927	0.562936	-0.478383
Cl355	Cl	1.532927	0.812936	-0.228383
Cl356	Cl	1.782927	1.062936	0.021617
H357	H	0.346352	0.404304	-0.310670
H358	H	0.596352	0.654304	-0.060670
H359	H	0.846352	0.904304	0.189330
H360	H	1.096352	1.154304	0.439330
H361	H	0.263284	0.229095	-0.229313
H362	H	0.513284	0.479095	0.020687
H363	H	0.763284	0.729095	0.270687
H364	H	1.013284	0.979095	0.520687
H365	H	0.144580	0.374674	-0.374468
H366	H	0.394580	0.624674	-0.124468
H367	H	0.644580	0.874674	0.125532
H368	H	0.894580	1.124674	0.375532
Cl369	Cl	0.995904	0.392182	-0.930167
Cl370	Cl	1.245904	0.642182	-0.680167
Cl371	Cl	1.495904	0.892182	-0.430167
Cl372	Cl	1.745904	1.142182	-0.180167
Cl373	Cl	0.277780	0.392433	-0.392173
Cl374	Cl	0.527780	0.642433	-0.142173
Cl375	Cl	0.777780	0.892433	0.107827
Cl376	Cl	1.027780	1.142433	0.357827
Cl377	Cl	0.815031	0.929536	-0.392300
Cl378	Cl	1.065031	1.179536	-0.142300
Cl379	Cl	1.315031	1.429536	0.107700
Cl380	Cl	1.565031	1.679536	0.357700
Cl381	Cl	0.479639	0.174427	-0.290952
Cl382	Cl	0.729639	0.424427	-0.040952
Cl383	Cl	0.979639	0.674427	0.209048
Cl384	Cl	1.229639	0.924427	0.459048
H385	H	0.346434	0.199440	-0.293088
H386	H	0.596434	0.449440	-0.043088
H387	H	0.846434	0.699440	0.206912
H388	H	1.096434	0.949440	0.456912
H389	H	0.978173	0.374404	-1.063368
H390	H	1.228173	0.624404	-0.813368
H391	H	1.478173	0.874404	-0.563368
H392	H	1.728173	1.124404	-0.313368
H393	H	1.007931	0.310711	-0.861571
H394	H	1.257931	0.560711	-0.611571
H395	H	1.507931	0.810711	-0.361571
H396	H	1.757931	1.060711	-0.111571
Cl397	Cl	0.996071	1.077195	-0.211612
Cl398	Cl	1.246071	1.327195	0.038388
Cl399	Cl	1.496071	1.577195	0.288388
Cl400	Cl	1.746071	1.827195	0.538388
Cl401	Cl	0.778011	0.727805	-0.312922
Cl402	Cl	1.028011	0.977805	-0.062922
Cl403	Cl	1.278011	1.227805	0.187078
Cl404	Cl	1.528011	1.477805	0.437078
H405	H	1.007870	0.742106	-0.293018
H406	H	1.257870	0.992106	-0.043018
H407	H	1.507870	1.242106	0.206982
H408	H	1.757870	1.492106	0.456982
H409	H	0.978150	0.659070	-0.229244
H410	H	1.228150	0.909070	0.020756
H411	H	1.478150	1.159070	0.270756
H412	H	1.728150	1.409070	0.520756
H413	H	0.465064	0.404295	-0.310663
H414	H	0.715064	0.654295	-0.060663
H415	H	0.965064	0.904295	0.189337
H416	H	1.215064	1.154295	0.439337
H417	H	0.832840	1.062735	-0.374600
H418	H	1.082840	1.312735	-0.124600
H419	H	1.332840	1.562735	0.125400
H420	H	1.582840	1.812735	0.375400
Cl421	Cl	0.996003	0.929505	-0.211565
Cl422	Cl	1.246003	1.179505	0.038435
Cl423	Cl	1.496003	1.429505	0.288435
Cl424	Cl	1.746003	1.679505	0.538435
Cl425	Cl	0.815130	0.211266	-0.930149
Cl426	Cl	1.065130	0.461266	-0.680149
Cl427	Cl	1.315130	0.711266	-0.430149
Cl428	Cl	1.565130	0.961266	-0.180149
H429	H	0.832642	0.540384	-0.374491
H430	H	1.082642	0.790384	-0.124491
H431	H	1.332642	1.040384	0.125509
H432	H	1.582642	1.290384	0.375509
Cl433	Cl	0.814936	0.673590	-0.392244
Cl434	Cl	1.064936	0.923590	-0.142244
Cl435	Cl	1.314936	1.173590	0.107756
Cl436	Cl	1.564936	1.423590	0.357756
Cl437	Cl	0.815114	0.211257	-1.077839
Cl438	Cl	1.065114	0.461257	-0.827839
Cl439	Cl	1.315114	0.711257	-0.577839
Cl440	Cl	1.565114	0.961257	-0.327839
Cl441	Cl	0.681415	0.392416	-0.392139
Cl442	Cl	0.931415	0.642416	-0.142139
Cl443	Cl	1.181415	0.892416	0.107861
Cl444	Cl	1.431415	1.142416	0.357861
H445	H	0.832857	0.229073	-0.659713
H446	H	1.082857	0.479073	-0.409713
H447	H	1.332857	0.729073	-0.159713
H448	H	1.582857	0.979073	0.090287
Cl449	Cl	0.778097	0.290597	-0.728291
Cl450	Cl	1.028097	0.540597	-0.478291
Cl451	Cl	1.278097	0.790597	-0.228291
Cl452	Cl	1.528097	1.040597	0.021709
