data_functionalizedCrystal
_audit_creation_method	'MofGen! by Chris Wilmer'
_symmetry_space_group_name_H-M	'P1'
_symmetry_Int_Tables_number	1
_symmetry_cell_setting	triclinic
loop_
_symmetry_equiv_pos_as_xyz
  x,y,z
_cell_length_a	10.489741
_cell_length_b	13.339070
_cell_length_c	11.804365
_cell_angle_alpha	105.112168
_cell_angle_beta	78.031880
_cell_angle_gamma	100.084234
loop_
_atom_site_label
_atom_site_type_symbol
_atom_site_fract_x
_atom_site_fract_y
_atom_site_fract_z
O1	O	-1.761613	-0.122820	0.098946
O2	O	-1.395019	-0.136248	0.098964
O3	O	-1.536243	0.018036	0.098954
O4	O	-1.620390	-0.277104	0.098957
O5	O	-1.499049	-0.022540	-0.099099
O6	O	-1.357826	-0.176823	-0.099089
O7	O	-1.724420	-0.163395	-0.099107
Cu8	Cu	-1.537727	-0.173814	-0.117182
Cu9	Cu	-1.581712	-0.125829	0.117039
O10	O	-1.583197	-0.317679	-0.099096
C11	C	-1.328544	-0.155521	-0.000060
C12	C	-1.185877	-0.152484	-0.000053
C13	C	-1.503432	0.035541	-0.000070
C14	C	-1.461065	0.148153	-0.000064
C15	C	-1.790896	-0.144122	-0.000080
C16	C	-1.933564	-0.147157	-0.000079
C17	C	-1.084127	-0.054319	-0.000065
C18	C	-1.026214	-0.080687	0.097583
C19	C	-0.989587	-0.120715	-0.097682
C20	C	-1.129858	-0.178876	0.097676
C21	C	-1.093219	-0.218908	-0.097676
C22	C	-1.035362	-0.245342	-0.000004
C23	C	-1.616008	-0.335184	-0.000069
C24	C	-1.658377	-0.447794	-0.000069
N25	N	-1.506799	-0.207564	-0.281920
C26	C	-1.790499	0.510543	-0.000080
C27	C	-1.830308	0.404737	-0.000093
C28	C	-1.738001	0.340586	-0.000086
C29	C	-1.605877	0.382251	-0.000065
C30	C	-1.566062	0.488065	-0.000062
C31	C	-1.513564	0.318108	-0.000067
C32	C	-1.381441	0.359773	-0.000047
C33	C	-1.341633	0.465577	-0.000042
C34	C	-1.433940	0.529728	-0.000050
C35	C	-1.553379	0.212294	-0.000071
C36	C	-1.328942	0.189816	-0.000052
C37	C	-1.289133	0.295622	-0.000039
C38	C	-1.686910	-0.011006	-0.655882
C39	C	-1.710304	0.014530	-0.531222
C40	C	-1.659429	-0.040991	-0.468890
C41	C	-1.585158	-0.122053	-0.531231
C42	C	-1.561770	-0.147597	-0.655903
C43	C	-1.534289	-0.177582	-0.468912
C44	C	-1.460018	-0.258644	-0.531252
C45	C	-1.436633	-0.284183	-0.655912
C46	C	-1.487508	-0.228662	-0.718244
C47	C	-1.557677	-0.152038	-0.344239
C48	C	-1.432537	-0.288629	-0.344261
C49	C	-1.409143	-0.314165	-0.468920
N50	N	-1.612648	-0.092071	0.281777
H51	H	-1.106213	0.026406	0.000056
H52	H	-1.181556	0.329560	-0.000023
H53	H	-1.468456	-0.249450	-0.819752
H54	H	-1.770422	0.254435	-0.000097
H55	H	-1.234048	0.499494	-0.000034
H56	H	-1.190416	-0.203448	0.180324
F57	F	-0.987357	-0.004291	0.205492
H58	H	-1.348670	-0.380168	-0.519694
F59	F	-1.378394	-0.347727	-0.277928
F60	F	-0.910240	-0.088510	-0.205588
F61	F	-1.006918	-0.350919	0.000064
H62	H	-1.937882	0.370822	-0.000112
H63	H	-1.865639	0.562781	-0.000097
F64	F	-1.132109	-0.295264	-0.205587
F65	F	-1.684326	-0.013810	-0.336216
F66	F	-1.230693	0.121546	-0.000050
H67	H	-1.660954	0.178382	-0.000087
F68	F	-1.636719	-0.065769	-0.277906
F69	F	-1.391598	0.642363	0.000076
H70	H	-1.770776	0.080529	-0.480469
F71	F	-1.741058	0.048068	-0.722223
F72	F	-1.357604	-0.370467	-0.722260
