data_functionalizedCrystal
_audit_creation_method	'MofGen! by Chris Wilmer'
_symmetry_space_group_name_H-M	'P1'
_symmetry_Int_Tables_number	1
_symmetry_cell_setting	triclinic
loop_
_symmetry_equiv_pos_as_xyz
  x,y,z
_cell_length_a	13.262390
_cell_length_b	23.532407
_cell_length_c	11.804365
_cell_angle_alpha	101.750517
_cell_angle_beta	62.657606
_cell_angle_gamma	83.670349
loop_
_atom_site_label
_atom_site_type_symbol
_atom_site_fract_x
_atom_site_fract_y
_atom_site_fract_z
O1	O	1.519181	0.008376	-0.591067
O2	O	1.190588	0.029019	-0.484646
O3	O	1.364788	-0.064552	-0.541042
O4	O	1.344981	0.101947	-0.534671
O5	O	1.318928	-0.039942	-0.328140
O6	O	1.144728	0.053630	-0.271744
O7	O	1.473321	0.032987	-0.378164
Cu8	Cu	1.304837	0.045555	-0.305514
Cu9	Cu	1.359072	0.016450	-0.557296
O10	O	1.299121	0.126558	-0.321768
C11	C	1.125626	0.042431	-0.364582
C12	C	1.000386	0.045720	-0.324020
C13	C	0.747361	0.001322	-0.673916
C14	C	0.865032	-0.001772	-0.712028
C15	C	0.898877	0.010101	-0.615029
C16	C	0.815039	0.025068	-0.479912
C17	C	0.697358	0.028157	-0.441796
C18	C	0.848873	0.036937	-0.382910
C19	C	0.765035	0.051903	-0.247792
C20	C	0.647366	0.054993	-0.209683
C21	C	0.613522	0.043120	-0.306682
C22	C	0.966554	0.033847	-0.421026
C23	C	0.916550	0.060683	-0.188906
C24	C	0.798880	0.063776	-0.150794
C25	C	1.341353	-0.073446	-0.434424
C26	C	1.339834	-0.136613	-0.433923
C27	C	1.433423	-0.538754	-0.464299
C28	C	1.432016	-0.598110	-0.463852
O29	O	1.518771	-0.637669	-0.491993
N30	N	1.328451	-0.617383	-0.430310
C31	C	1.226289	-0.577297	-0.397225
O32	O	1.138069	-0.599140	-0.368655
C33	C	1.227699	-0.517944	-0.397682
C34	C	1.331269	-0.498673	-0.431213
C35	C	1.536984	-0.519483	-0.497829
C36	C	1.538391	-0.460131	-0.498273
C37	C	1.436236	-0.420050	-0.465187
C38	C	1.332675	-0.439321	-0.431657
C39	C	1.125541	-0.477861	-0.364607
C40	C	1.126960	-0.418504	-0.365067
C41	C	1.230530	-0.399234	-0.398598
C42	C	1.231927	-0.339889	-0.399016
N43	N	1.335492	-0.320616	-0.432558
C44	C	1.437647	-0.360697	-0.465644
C45	C	1.223335	-0.701944	-0.396272
C46	C	1.221921	-0.761296	-0.395806
C47	C	1.427649	-0.782105	-0.462435
C48	C	1.429060	-0.722751	-0.462892
C49	C	1.326900	-0.682672	-0.429814
C50	C	1.440592	-0.236053	-0.466573
C51	C	1.441988	-0.176694	-0.467009
C52	C	1.236262	-0.155891	-0.400386
C53	C	1.234864	-0.215244	-0.399944
C54	C	1.337039	-0.255324	-0.433044
O55	O	1.145218	-0.300297	-0.370895
O56	O	1.525855	-0.338847	-0.494226
C57	C	1.538283	0.019575	-0.498231
C58	C	1.663525	0.016284	-0.538801
C59	C	1.322557	0.135452	-0.428389
C60	C	1.324078	0.198618	-0.428899
N61	N	1.266700	0.066025	-0.128427
N62	N	1.397219	-0.004024	-0.734387
C63	C	1.488801	-0.053192	0.173618
C64	C	1.517651	-0.068680	0.039617
C65	C	1.454915	-0.035005	-0.002401
C66	C	1.363325	0.014161	0.089597
C67	C	1.334479	0.029653	0.223609
C68	C	1.300593	0.047840	0.047590
C69	C	1.209003	0.097006	0.139587
C70	C	1.180160	0.112495	0.273587
C71	C	1.242896	0.078820	0.315604
C72	C	1.329440	0.032348	-0.086423
C73	C	1.175117	0.115193	-0.036432
C74	C	1.146267	0.130681	0.097570
H75	H	0.579109	0.067169	-0.099663
O76	O	1.428194	-0.020690	-0.185624
H77	H	1.437716	-0.025809	-0.285867
O78	O	1.056966	0.017702	-0.566752
H79	H	1.144482	0.017540	-0.576968
H80	H	1.071693	0.170713	0.172490
O81	O	1.016763	-0.375277	-0.329374
H82	H	1.031165	-0.357762	-0.414759
O83	O	1.107426	0.151513	-0.081724
H84	H	1.142858	0.132475	-0.190357
H85	H	1.150522	-0.230930	-0.372604
H86	H	0.933286	-0.013961	-0.822041
O87	O	1.616421	-0.121710	-0.059596
H88	H	1.698754	-0.114554	-0.062343
O89	O	1.553708	-0.155915	-0.503198
H90	H	1.584081	-0.162281	-0.432324
O91	O	1.025787	0.006780	-0.656125
H92	H	1.078397	-0.005613	-0.766374
H93	H	1.523794	-0.268681	-0.493531
O94	O	0.953033	0.073495	-0.084269
H95	H	1.048941	0.068840	-0.133471
O96	O	1.081393	0.165537	0.372783
H97	H	1.013671	0.150545	0.451548
O98	O	1.013832	-0.498635	-0.328439
H99	H	0.983489	-0.492278	-0.399343
O100	O	1.486010	-0.051713	-0.146925
H101	H	1.560226	-0.091563	-0.203834
O102	O	1.540773	-0.701974	-0.499084
H103	H	1.571143	-0.708335	-0.428204
O104	O	0.708203	0.080134	-0.005118
H105	H	0.663608	0.043136	0.014700
O106	O	0.710866	-0.011488	-0.778532
H107	H	0.647965	0.028437	-0.763346
O108	O	0.486617	0.046435	-0.265632
H109	H	0.434272	0.092198	-0.202111
O110	O	1.650105	-0.439354	-0.534476
H111	H	1.720898	-0.477205	-0.557426
O112	O	1.126083	-0.112657	-0.364703
H113	H	1.144474	-0.068150	-0.370664
H114	H	1.620177	-0.552113	-0.524778
O115	O	1.110207	-0.782073	-0.359612
H116	H	1.123327	-0.818643	-0.444580
O117	O	1.537840	-0.825342	-0.498136
H118	H	1.519454	-0.869851	-0.492198
H119	H	1.539878	-0.080603	0.207838
O120	O	1.113135	-0.658712	-0.360559
H121	H	1.040887	-0.682088	-0.337145
H122	H	1.219404	0.091429	0.424720
