data_functionalizedCrystal
_audit_creation_method	'MofGen! by Chris Wilmer'
_symmetry_space_group_name_H-M	'P1'
_symmetry_Int_Tables_number	1
_symmetry_cell_setting	triclinic
loop_
_symmetry_equiv_pos_as_xyz
  x,y,z
_cell_length_a	21.295418
_cell_length_b	16.994747
_cell_length_c	21.295411
_cell_angle_alpha	89.994024
_cell_angle_beta	90.043738
_cell_angle_gamma	90.026880
loop_
_atom_site_label
_atom_site_type_symbol
_atom_site_fract_x
_atom_site_fract_y
_atom_site_fract_z
Zn1	Zn	0.962441	-0.313785	0.356354
Zn2	Zn	0.962379	-0.445672	0.251131
Zn3	Zn	0.857164	-0.313822	0.251064
Zn4	Zn	0.857169	-0.445687	0.356327
O5	O	0.909788	-0.379741	0.303719
O6	O	1.050522	-0.331258	0.342435
O7	O	0.948394	-0.428190	0.163032
O8	O	0.871153	-0.203436	0.265015
O9	O	1.050477	-0.428155	0.265128
O10	O	0.948499	-0.203409	0.342371
O11	O	0.871093	-0.331321	0.162984
O12	O	0.769075	-0.331336	0.264988
O13	O	0.871162	-0.428181	0.444420
O14	O	0.769079	-0.428217	0.342324
O15	O	0.948504	-0.331273	0.444440
O16	O	0.948399	-0.556055	0.265101
O17	O	0.871102	-0.556066	0.342389
C18	C	0.746237	-0.379783	0.303647
C19	C	0.676268	-0.379820	0.303631
C20	C	0.909752	-0.584681	0.303747
C21	C	0.909756	-0.674003	0.303746
Zn22	Zn	0.857182	-0.944908	0.251047
Zn23	Zn	0.962469	-0.944850	0.356327
Zn24	Zn	0.857191	-0.813080	0.356316
Zn25	Zn	0.962390	-0.812927	0.251110
O26	O	0.909808	-0.878941	0.303700
O27	O	0.871178	-1.055282	0.264990
O28	O	0.948540	-0.927410	0.444415
O29	O	0.769100	-0.830655	0.342321
O30	O	0.948532	-1.055239	0.342339
O31	O	0.769094	-0.927510	0.264980
O32	O	0.871192	-0.830599	0.444407
O33	O	0.871116	-0.702678	0.342383
O34	O	0.948398	-0.830395	0.163012
O35	O	0.948406	-0.702566	0.265088
O36	O	0.871102	-0.927361	0.162966
O37	O	1.050548	-0.927262	0.342400
O38	O	1.050490	-0.830338	0.265098
C39	C	0.643420	-0.430332	0.343839
C40	C	0.577678	-0.430313	0.343868
C41	C	0.544786	-0.379789	0.303676
C42	C	0.577642	-0.329267	0.263464
C43	C	0.643383	-0.329282	0.263442
N44	N	0.441508	-0.373615	0.248616
N45	N	0.379057	-0.373605	0.248639
C46	C	0.346711	-0.379739	0.303743
N47	N	0.379176	-0.385898	0.358823
N48	N	0.441634	-0.385912	0.358799
C49	C	0.473501	-0.379767	0.303696
C50	C	0.242578	-0.430233	0.343985
C51	C	0.176834	-0.430208	0.344015
C52	C	0.176800	-0.329166	0.263606
C53	C	0.242542	-0.329187	0.263582
C54	C	0.275427	-0.379725	0.303771
C55	C	1.073979	-0.379700	0.303792
C56	C	1.143947	-0.379683	0.303823
C57	C	0.909840	-0.379725	0.467909
C58	C	0.909863	-0.379718	0.537878
C59	C	0.909828	-0.174001	0.303687
C60	C	0.909847	-0.084679	0.303674
C61	C	0.909772	-0.379701	0.140167
C62	C	0.909872	-0.379486	0.070200
C63	C	0.950133	-0.329255	0.570756
C64	C	0.950132	-0.329221	0.636498
C65	C	0.909868	-0.379663	0.669360
C66	C	0.869589	-0.430129	0.636474
C67	C	0.869587	-0.430156	0.570733
N68	N	0.905030	-0.448668	0.772600
N69	N	0.905036	-0.448640	0.835052
C70	C	0.909872	-0.379583	0.867435
N71	N	0.914714	-0.310554	0.835007
N72	N	0.914711	-0.310583	0.772550
C73	C	0.909866	-0.379639	0.740645
C74	C	0.950143	-0.329080	0.971599
C75	C	0.950138	-0.329044	1.037342
C76	C	0.869598	-0.429959	1.037317
C77	C	0.869600	-0.429988	0.971574
C78	C	0.909876	-0.379549	0.938719
C79	C	1.073360	-0.878779	0.303759
C80	C	1.143328	-0.878733	0.303802
C81	C	0.909740	-0.878868	0.139510
C82	C	0.909711	-0.878836	0.069541
C83	C	0.745618	-0.879106	0.303642
C84	C	0.675650	-0.879176	0.303618
C85	C	0.909831	-0.879059	0.467251
C86	C	0.909684	-0.879241	0.537219
C87	C	1.176197	-0.929221	0.344037
C88	C	1.241940	-0.929193	0.344079
C89	C	1.274812	-0.878672	0.303887
C90	C	1.241938	-0.828182	0.263648
C91	C	1.176196	-0.828214	0.263604
C92	C	0.869449	-0.929307	0.036656
C93	C	0.869409	-0.929278	-0.029087
C94	C	0.909636	-0.878781	-0.061942
C95	C	0.949900	-0.828305	-0.029052
C96	C	0.949936	-0.828331	0.036689
C97	C	0.642792	-0.828777	0.343874
C98	C	0.577049	-0.828827	0.343851
C99	C	0.544166	-0.879282	0.303575
C100	C	0.577028	-0.929684	0.263314
C101	C	0.642770	-0.929629	0.263334
C102	C	0.869633	-0.828557	0.570046
C103	C	0.869483	-0.828727	0.635788
C104	C	0.909387	-0.879579	0.668702
C105	C	0.949440	-0.930269	0.635871
C106	C	0.949587	-0.930102	0.570130
H107	H	0.670191	-0.471483	0.376565
H108	H	0.269354	-0.471380	0.376713
H109	H	0.836791	-0.471248	0.543964
H110	H	0.836691	-0.970430	0.063399
H111	H	0.490635	-0.879316	0.303562
H112	H	0.982725	-0.787233	0.063459
H113	H	1.149441	-0.970361	0.376769
H114	H	0.836807	-0.471022	1.064072
H115	H	0.982928	-0.288183	0.544009
H116	H	0.550302	-0.787783	0.376638
H117	H	0.982205	-0.971373	0.543408
H118	H	0.982935	-0.288005	0.944846
C119	C	1.347130	-0.878657	0.303934
N120	N	1.401600	-0.878653	0.303969
C121	C	0.278676	-0.273625	0.219343
N122	N	0.305893	-0.231773	0.186020
C123	C	1.278107	-0.772600	0.219450
N124	N	1.305352	-0.730729	0.186166
C125	C	0.678951	-0.773264	0.388181
N126	N	0.706182	-0.731445	0.421553
H127	H	0.550245	-0.970762	0.230522
H128	H	0.836620	-0.970383	-0.055856
C129	C	0.679517	-0.273716	0.219203
N130	N	0.706735	-0.231864	0.185881
C131	C	0.993208	-0.986356	0.672086
N132	N	1.026131	-1.028654	0.699365
H133	H	0.669518	-0.970675	0.230554
C134	C	0.825728	-0.772616	0.533852
N135	N	0.792653	-0.730482	0.506596
C136	C	0.825426	-0.772954	0.671890
N137	N	0.792245	-0.730942	0.699080
H138	H	0.982924	-0.288124	0.663273
C139	C	1.140047	-0.772660	0.219348
N140	N	1.112823	-0.730811	0.186012
C141	C	0.541537	-0.485886	0.388100
N142	N	0.514318	-0.527744	0.421415
C143	C	0.909591	-0.878765	-0.134260
N144	N	0.909556	-0.878759	-0.188730
C145	C	0.541460	-0.273690	0.219253
N146	N	0.514207	-0.231827	0.185953
C147	C	0.140701	-0.485786	0.388245
N148	N	0.113485	-0.527652	0.421557
H149	H	0.150020	-0.288025	0.230884
C150	C	0.825301	-0.485505	0.935407
N151	N	0.791932	-0.527320	0.908166
H152	H	0.836803	-0.471197	0.663234
C153	C	0.994440	-0.273527	1.073508
N154	N	1.027810	-0.231711	1.100749
C155	C	1.278089	-0.984734	0.388351
N156	N	1.305314	-1.026566	0.421697
H157	H	0.909263	-0.879706	0.722233
H158	H	0.982651	-0.787192	-0.055813
