data_functionalizedCrystal
_audit_creation_method	'MofGen! by Chris Wilmer'
_symmetry_space_group_name_H-M	'P1'
_symmetry_Int_Tables_number	1
_symmetry_cell_setting	triclinic
loop_
_symmetry_equiv_pos_as_xyz
  x,y,z
_cell_length_a	12.645331
_cell_length_b	18.101397
_cell_length_c	18.101389
_cell_angle_alpha	89.978953
_cell_angle_beta	89.980659
_cell_angle_gamma	90.020680
loop_
_atom_site_label
_atom_site_type_symbol
_atom_site_fract_x
_atom_site_fract_y
_atom_site_fract_z
Zn1	Zn	1.620674	-0.294903	-0.418727
Zn2	Zn	1.620558	-0.418729	-0.294880
Zn3	Zn	1.443400	-0.294906	-0.294899
Zn4	Zn	1.443362	-0.418708	-0.418679
O5	O	1.531999	-0.356811	-0.356796
O6	O	1.769006	-0.311336	-0.402310
O7	O	1.597025	-0.402313	-0.191249
O8	O	1.466980	-0.191273	-0.311353
O9	O	1.768921	-0.402310	-0.311320
O10	O	1.597223	-0.191271	-0.402329
O11	O	1.466867	-0.311341	-0.191263
O12	O	1.295047	-0.311321	-0.311306
O13	O	1.466916	-0.402275	-0.522318
O14	O	1.295020	-0.402278	-0.402247
O15	O	1.597186	-0.311316	-0.522353
O16	O	1.596988	-0.522359	-0.311274
O17	O	1.466803	-0.522343	-0.402229
C18	C	1.256569	-0.356798	-0.356774
C19	C	1.138739	-0.356810	-0.356782
C20	C	1.093839	-0.299500	-0.299665
C21	C	0.971279	-0.299289	-0.299860
C22	C	0.970904	-0.336013	-0.434962
C23	C	1.093502	-0.335585	-0.434605
C24	C	1.093520	-0.435088	-0.336458
C25	C	0.970912	-0.434679	-0.334763
C26	C	1.531908	-0.549222	-0.356760
C27	C	1.531966	-0.631536	-0.356769
C28	C	1.532101	-0.930627	-0.356837
C29	C	1.613782	-0.899281	-0.299457
C30	C	1.614065	-0.813662	-0.299606
C31	C	1.532034	-0.782244	-0.356803
C32	C	1.562318	-0.813265	-0.434864
C33	C	1.562950	-0.898909	-0.434551
C34	C	1.419919	-0.899133	-0.336831
C35	C	1.420473	-0.813483	-0.335089
C36	C	1.531995	-0.698385	-0.356788
C37	C	1.532144	-1.014486	-0.356857
C38	C	1.808504	-0.356825	-0.356818
C39	C	1.926334	-0.356831	-0.356828
C40	C	1.532060	-0.356793	-0.549958
C41	C	1.532086	-0.356785	-0.632272
C42	C	1.532119	-0.163649	-0.356848
C43	C	1.532170	-0.081335	-0.356870
C44	C	1.532148	-0.356646	-0.931363
C45	C	1.449903	-0.413693	-0.900016
C46	C	1.450125	-0.413957	-0.814398
C47	C	1.532116	-0.356715	-0.782981
C48	C	1.643813	-0.377898	-0.814079
C49	C	1.643354	-0.378273	-0.899724
C50	C	1.503667	-0.278288	-0.899793
C51	C	1.501182	-0.278741	-0.814142
C52	C	1.532105	-0.356752	-0.699121
C53	C	1.532166	-0.356610	-1.015223
C54	C	1.531999	-0.356777	-0.164385
C55	C	1.532178	-0.356576	-0.082072
H56	H	0.941140	-0.312275	-0.241935
H57	H	1.696426	-0.920751	-0.312542
C58	C	1.133639	-0.389543	-0.494093
N59	N	1.163866	-0.430177	-0.538904
C60	C	1.337665	-0.395964	-0.927827
N61	N	1.253125	-0.382610	-0.948780
C62	C	1.588506	-0.927163	-0.221027
N63	N	1.569465	-0.948168	-0.161952
C64	C	1.588430	-0.785329	-0.221417
N65	N	1.569112	-0.763992	-0.162524
H66	H	1.122123	-0.278376	-0.451784
H67	H	1.367298	-0.400701	-0.793371
H68	H	0.941778	-0.450382	-0.277260
H69	H	1.124389	-0.454099	-0.280430
C70	C	1.475063	-0.491682	-0.929079
N71	N	1.494022	-0.550424	-0.950967
C72	C	1.382704	-0.928376	-0.261262
N73	N	1.354686	-0.950402	-0.204339
H74	H	0.941798	-0.376486	-0.478702
C75	C	1.389613	-0.786092	-0.257486
N76	N	1.366370	-0.765455	-0.199036
H77	H	1.556713	-0.233982	-0.792756
H78	H	1.356341	-0.792104	-0.373821
C79	C	1.475511	-0.492426	-0.786718
N80	N	1.494611	-0.551535	-0.765871
H81	H	1.706738	-0.337654	-0.793731
H82	H	1.563571	-0.235786	-0.920067
H83	H	1.667496	-0.435553	-0.919703
H84	H	0.940308	-0.479642	-0.373308
C85	C	1.337701	-0.926524	-0.393287
N86	N	1.275782	-0.947159	-0.435812
C87	C	1.728962	-0.324590	-0.927742
N88	N	1.793447	-0.284162	-0.948842
H89	H	1.668371	-0.434570	-0.792632
C90	C	1.132758	-0.492769	-0.392651
N91	N	1.162319	-0.536208	-0.434978
H92	H	1.123246	-0.312337	-0.241543
C93	C	1.390157	-0.257141	-0.786652
N94	N	1.306540	-0.240868	-0.765932
H95	H	1.697163	-0.793121	-0.312843
H96	H	0.941973	-0.241291	-0.313359
H97	H	1.644951	-0.918831	-0.451497
H98	H	1.506064	-0.919644	-0.478777
C99	C	1.484411	-0.785766	-0.494177
N100	N	1.425731	-0.765052	-0.538850
C101	C	1.135472	-0.221581	-0.317666
N102	N	1.166828	-0.162893	-0.331229
H103	H	0.940227	-0.279440	-0.452447
C104	C	1.671862	-0.784220	-0.458142
N105	N	1.754374	-0.762346	-0.475671
H106	H	1.423633	-0.258988	-0.921384
