data_functionalizedCrystal
_audit_creation_method	'MofGen! by Chris Wilmer'
_symmetry_space_group_name_H-M	'P1'
_symmetry_Int_Tables_number	1
_symmetry_cell_setting	triclinic
loop_
_symmetry_equiv_pos_as_xyz
  x,y,z
_cell_length_a	18.050590
_cell_length_b	25.639240
_cell_length_c	18.050582
_cell_angle_alpha	89.968180
_cell_angle_beta	90.000767
_cell_angle_gamma	90.021926
loop_
_atom_site_label
_atom_site_type_symbol
_atom_site_fract_x
_atom_site_fract_y
_atom_site_fract_z
Zn1	Zn	1.135269	-0.208335	-0.419554
Zn2	Zn	1.635269	0.291665	0.080446
Zn3	Zn	1.135170	-0.295763	-0.295344
Zn4	Zn	1.635170	0.204237	0.204656
Zn5	Zn	1.011088	-0.208327	-0.295412
Zn6	Zn	1.511088	0.291673	0.204588
Zn7	Zn	1.011026	-0.295725	-0.419526
Zn8	Zn	1.511026	0.204275	0.080474
O9	O	1.073138	-0.252037	-0.357459
O10	O	1.573138	0.247963	0.142541
O11	O	1.239180	-0.219952	-0.403060
O12	O	1.739180	0.280048	0.096940
O13	O	1.118695	-0.284177	-0.191428
O14	O	1.618695	0.215823	0.308572
O15	O	1.027628	-0.135163	-0.311920
O16	O	1.527628	0.364837	0.188080
O17	O	1.239108	-0.284185	-0.311804
O18	O	1.739108	0.215815	0.188196
O19	O	1.118864	-0.135169	-0.403126
O20	O	1.618864	0.364831	0.096874
O21	O	1.027532	-0.219938	-0.191478
O22	O	1.527532	0.280062	0.308522
O23	O	0.907155	-0.219901	-0.311893
O24	O	1.407155	0.280099	0.188107
O25	O	1.027523	-0.284120	-0.523455
O26	O	1.527523	0.215880	-0.023455
O27	O	0.907110	-0.284112	-0.403079
O28	O	1.407110	0.215888	0.096921
O29	O	1.118804	-0.219915	-0.523475
O30	O	1.618804	0.280085	-0.023475
O31	O	1.118635	-0.368923	-0.311777
O32	O	1.618635	0.131077	0.188223
O33	O	1.027427	-0.368895	-0.403013
O34	O	1.527427	0.131105	0.096987
C35	C	0.880186	-0.252002	-0.357491
C36	C	1.380186	0.247998	0.142509
C37	C	0.797640	-0.251999	-0.357522
C38	C	1.297640	0.248001	0.142478
C39	C	0.598187	-0.287017	-0.406992
C40	C	1.098187	0.212983	0.093008
C41	C	0.548799	-0.239344	-0.425278
C42	C	1.048799	0.260656	0.074722
C43	C	0.646510	-0.252028	-0.357486
C44	C	1.146510	0.247972	0.142514
C45	C	0.548816	-0.299728	-0.339199
C46	C	1.048816	0.200272	0.160801
C47	C	0.500525	-0.252061	-0.357452
C48	C	1.000525	0.247939	0.142548
C49	C	0.598210	-0.204330	-0.375808
C50	C	1.098210	0.295670	0.124192
C51	C	0.598231	-0.264747	-0.289697
C52	C	1.098231	0.235253	0.210303
C53	C	0.548866	-0.217041	-0.307958
C54	C	1.048866	0.282959	0.192042
C55	C	0.730608	-0.252010	-0.357507
C56	C	1.230608	0.247990	0.142493
C57	C	0.416428	-0.252073	-0.357431
C58	C	0.916428	0.247927	0.142569
C59	C	1.073033	-0.387880	-0.357401
C60	C	1.573033	0.112120	0.142599
C61	C	1.073056	-0.445994	-0.357401
C62	C	1.573056	0.054006	0.142599
C63	C	1.120668	-0.806322	-0.405036
C64	C	1.620668	-0.306322	0.094964
C65	C	1.120690	-0.860926	-0.405051
C66	C	1.620690	-0.360926	0.094949
O67	O	1.161046	-0.889133	-0.445492
O68	O	1.661046	-0.389133	0.054508
N69	N	1.073241	-0.888277	-0.357531
N70	N	1.573241	-0.388277	0.142469
C71	C	1.025763	-0.861020	-0.309998
C72	C	1.525763	-0.361020	0.190002
O73	O	0.985405	-0.889297	-0.269580
O74	O	1.485405	-0.389297	0.230420
C75	C	1.025737	-0.806416	-0.309987
C76	C	1.525737	-0.306416	0.190013
C77	C	1.073194	-0.779069	-0.357505
C78	C	1.573194	-0.279069	0.142495
C79	C	1.168121	-0.778974	-0.452551
C80	C	1.668121	-0.278974	0.047449
C81	C	1.168099	-0.724374	-0.452534
C82	C	1.668099	-0.224374	0.047466
C83	C	1.120626	-0.697121	-0.405003
C84	C	1.620626	-0.197121	0.094997
C85	C	1.073173	-0.724468	-0.357489
C86	C	1.573173	-0.224468	0.142511
C87	C	0.978255	-0.779161	-0.262458
C88	C	1.478255	-0.279161	0.237542
C89	C	0.978234	-0.724554	-0.262452
C90	C	1.478234	-0.224554	0.237548
C91	C	1.025691	-0.697206	-0.309970
C92	C	1.525691	-0.197206	0.190030
C93	C	1.025679	-0.642615	-0.309941
C94	C	1.525679	-0.142615	0.190059
N95	N	1.073127	-0.615265	-0.357462
N96	N	1.573127	-0.115265	0.142538
C97	C	1.120601	-0.642517	-0.404993
C98	C	1.620601	-0.142517	0.095007
C99	C	1.025818	-0.975690	-0.310025
C100	C	1.525818	-0.475690	0.189975
C101	C	1.025846	-1.030293	-0.310031
C102	C	1.525846	-0.530293	0.189969
C103	C	1.120773	-1.030195	-0.405086
C104	C	1.620773	-0.530195	0.094914
C105	C	1.120748	-0.975592	-0.405075
C106	C	1.620748	-0.475592	0.094925
C107	C	1.073266	-0.948340	-0.357545
C108	C	1.573266	-0.448340	0.142455
C109	C	1.120553	-0.527852	-0.404954
C110	C	1.620553	-0.027852	0.095046
C111	C	1.120530	-0.473247	-0.404932
C112	C	1.620530	0.026753	0.095068
C113	C	1.025601	-0.473349	-0.309880
C114	C	1.525601	0.026651	0.190120
C115	C	1.025627	-0.527950	-0.309900
C116	C	1.525627	-0.027950	0.190100
C117	C	1.073105	-0.555200	-0.357443
C118	C	1.573105	-0.055200	0.142557
O119	O	0.985341	-0.614373	-0.269523
O120	O	1.485341	-0.114373	0.230477
O121	O	1.160944	-0.614233	-0.445410
O122	O	1.660944	-0.114233	0.054590
C123	C	1.266844	-0.252074	-0.357427
C124	C	1.766844	0.247926	0.142573
C125	C	1.349390	-0.252089	-0.357414
C126	C	1.849390	0.247911	0.142586
C127	C	1.073167	-0.252014	-0.551165
C128	C	1.573167	0.247986	-0.051165
C129	C	1.073180	-0.252004	-0.633710
C130	C	1.573180	0.247996	-0.133710
C131	C	1.073264	-0.115664	-0.357534
C132	C	1.573264	0.384336	0.142466
C133	C	1.073317	-0.057550	-0.357565
C134	C	1.573317	0.442450	0.142435
C135	C	1.023579	-0.286871	-0.833150
C136	C	1.523579	0.213129	-0.333150
C137	C	1.091333	-0.299661	-0.882520
C138	C	1.591333	0.200339	-0.382520
C139	C	1.073216	-0.251965	-0.784841
C140	C	1.573216	0.248035	-0.284841
C141	C	1.005500	-0.239161	-0.882553
C142	C	1.505500	0.260839	-0.382553
C143	C	1.073246	-0.251927	-0.930826
C144	C	1.573246	0.248073	-0.430826
C145	C	1.141006	-0.264779	-0.833124
C146	C	1.641006	0.235221	-0.333124
C147	C	1.055127	-0.204257	-0.833152
C148	C	1.555127	0.295743	-0.333152
C149	C	1.122927	-0.217028	-0.882499
C150	C	1.622927	0.282972	-0.382499
C151	C	1.073199	-0.251988	-0.700743
C152	C	1.573199	0.248012	-0.200743
C153	C	1.073271	-0.251904	-1.014923
C154	C	1.573271	0.248096	-0.514923
C155	C	1.073152	-0.252023	-0.164507
C156	C	1.573152	0.247977	0.335493
C157	C	1.073284	-0.251885	-0.081962
C158	C	1.573284	0.248115	0.418038
H159	H	0.619815	-0.163992	-0.391325
H160	H	1.119815	0.336008	0.108675
O161	O	0.932254	-0.805743	-0.216230
O162	O	1.432254	-0.305743	0.283770
C163	C	0.974558	-0.837348	-0.168299
C164	C	1.474558	-0.337348	0.331701
H165	H	1.033048	-0.820874	-0.163728
H166	H	1.533048	-0.320874	0.336272
H167	H	0.947719	-0.838006	-0.111136
H168	H	1.447719	-0.338006	0.388864
H169	H	0.977114	-0.878718	-0.191272
H170	H	1.477114	-0.378718	0.308728
H171	H	0.987155	-0.953504	-0.271314
H172	H	1.487155	-0.453504	0.228686
O173	O	0.523146	-0.181792	-0.257915
O174	O	1.023146	0.318208	0.242085
C175	C	0.480157	-0.207682	-0.204025
C176	C	0.980157	0.292318	0.295975
H177	H	0.496858	-0.250526	-0.201673
H178	H	0.996858	0.249474	0.298327
H179	H	0.489836	-0.188919	-0.147604
H180	H	0.989836	0.311081	0.352396
H181	H	0.419018	-0.204537	-0.219218
H182	H	0.919018	0.295463	0.280782
H183	H	0.619961	-0.275508	-0.232401
H184	H	1.119961	0.224492	0.267599
H185	H	1.206779	-0.801158	-0.491261
H186	H	1.706779	-0.301158	0.008739
O187	O	0.973632	-0.322202	-0.807329
O188	O	1.473632	0.177798	-0.307329
C189	C	0.992993	-0.372428	-0.832501
C190	C	1.492993	0.127572	-0.332501
H191	H	1.054596	-0.373423	-0.846340
H192	H	1.554596	0.126577	-0.346340
H193	H	0.980568	-0.402265	-0.787326
H194	H	1.480568	0.097735	-0.287326
H195	H	0.959471	-0.382212	-0.884190
H196	H	1.459471	0.117788	-0.384190
H197	H	0.939567	-0.702368	-0.223748
H198	H	1.439567	-0.202368	0.276252
H199	H	0.987210	-1.052554	-0.271329
H200	H	1.487210	-0.552554	0.228671
H201	H	0.527116	-0.340054	-0.323748
H202	H	1.027116	0.159946	0.176252
H203	H	1.198302	-0.275639	-0.811503
H204	H	1.698302	0.224361	-0.311503
O205	O	1.166654	-0.446763	-0.451166
O206	O	1.666654	0.053237	0.048834
C207	C	1.208569	-0.482531	-0.493108
C208	C	1.708569	0.017469	0.006892
H209	H	1.178161	-0.521466	-0.495667
H210	H	1.678161	-0.021466	0.004333
H211	H	1.216445	-0.466722	-0.551623
H212	H	1.716445	0.033278	-0.051623
H213	H	1.264992	-0.488327	-0.465952
H214	H	1.764992	0.011673	0.034048
O215	O	0.979462	-0.554438	-0.263715
O216	O	1.479462	-0.054438	0.236285
C217	C	0.937573	-0.518671	-0.221743
C218	C	1.437573	-0.018671	0.278257
H219	H	0.934973	-0.479732	-0.252146
H220	H	1.434973	0.020268	0.247854
H221	H	0.879069	-0.534475	-0.213791
H222	H	1.379069	-0.034475	0.286209
H223	H	0.964803	-0.512886	-0.165355
H224	H	1.464803	-0.012886	0.334645
O225	O	0.523011	-0.226539	-0.493701
O226	O	1.023011	0.273461	0.006299
C227	C	0.583290	-0.217976	-0.541877
C228	C	1.083290	0.282024	-0.041877
H229	H	0.634170	-0.239323	-0.519967
H230	H	1.134170	0.260677	-0.019967
H231	H	0.568963	-0.233278	-0.599409
H232	H	1.068963	0.266722	-0.099409
H233	H	0.595479	-0.174406	-0.545212
H234	H	1.095479	0.325594	-0.045212
O235	O	0.979510	-0.446789	-0.263782
O236	O	1.479510	0.053211	0.236218
C237	C	0.989684	-0.392732	-0.273953
C238	C	1.489684	0.107268	0.226047
H239	H	1.013972	-0.385239	-0.331278
H240	H	1.513972	0.114761	0.168722
H241	H	0.934052	-0.372005	-0.268884
H242	H	1.434052	0.127995	0.231116
H243	H	1.029252	-0.377239	-0.229922
H244	H	1.529252	0.122761	0.270078
O245	O	1.166712	-0.554374	-0.451033
O246	O	1.666712	-0.054374	0.048967
C247	C	1.214738	-0.585948	-0.408797
C248	C	1.714738	-0.085948	0.091203
H249	H	1.188586	-0.594180	-0.352505
H250	H	1.688586	-0.094180	0.147495
H251	H	1.224697	-0.624319	-0.439073
H252	H	1.724697	-0.124319	0.060927
H253	H	1.269765	-0.564876	-0.400659
H254	H	1.769765	-0.064876	0.099341
O255	O	1.214219	-0.697893	-0.498768
O256	O	1.714219	-0.197893	0.001232
C257	C	1.256132	-0.733665	-0.540705
C258	C	1.756132	-0.233665	-0.040705
H259	H	1.225722	-0.772600	-0.543257
H260	H	1.725722	-0.272600	-0.043257
H261	H	1.264009	-0.717861	-0.599222
H262	H	1.764009	-0.217861	-0.099222
H263	H	1.312556	-0.739461	-0.513548
H264	H	1.812556	-0.239461	-0.013548
O265	O	1.173029	-0.181726	-0.908096
O266	O	1.673029	0.318274	-0.408096
C267	C	1.154424	-0.131634	-0.881837
C268	C	1.654424	0.368366	-0.381837
H269	H	1.119374	-0.135426	-0.829574
H270	H	1.619374	0.364574	-0.329574
H271	H	1.207225	-0.109081	-0.868589
H272	H	1.707225	0.390919	-0.368589
H273	H	1.121632	-0.109889	-0.926113
H274	H	1.621632	0.390111	-0.426113
O275	O	1.166865	-0.949110	-0.451309
O276	O	1.666865	-0.449110	0.048691
C277	C	1.208782	-0.984880	-0.493246
C278	C	1.708782	-0.484880	0.006754
H279	H	1.178378	-1.023816	-0.495796
H280	H	1.678378	-0.523816	0.004204
H281	H	1.216656	-0.969076	-0.551764
H282	H	1.716656	-0.469076	-0.051764
H283	H	1.265207	-0.990671	-0.466089
H284	H	1.765207	-0.490671	0.033911
O285	O	1.109504	-0.347767	-0.908487
O286	O	1.609504	0.152233	-0.408487
C287	C	1.051143	-0.367113	-0.952534
C288	C	1.551143	0.132887	-0.452534
H289	H	1.016614	-0.333154	-0.974205
H290	H	1.516614	0.166846	-0.474205
H291	H	1.074972	-0.389887	-1.001238
H292	H	1.574972	0.110113	-0.501238
H293	H	1.014653	-0.393939	-0.917779
H294	H	1.514653	0.106061	-0.417779
H295	H	1.039789	-0.163939	-0.811450
H296	H	1.539789	0.336061	-0.311450
O297	O	0.937112	-0.226317	-0.908368
O298	O	1.437112	0.273683	-0.408368
C299	C	0.884949	-0.263252	-0.883240
C300	C	1.384949	0.236748	-0.383240
H301	H	0.906923	-0.283185	-0.831227
H302	H	1.406923	0.216815	-0.331227
H303	H	0.830524	-0.242748	-0.869949
H304	H	1.330524	0.257252	-0.369949
H305	H	0.875220	-0.293690	-0.928221
H306	H	1.375220	0.206310	-0.428221
O307	O	0.624065	-0.322314	-0.456885
O308	O	1.124065	0.177686	0.043115
C309	C	0.667049	-0.360136	-0.419898
C310	C	1.167049	0.139864	0.080102
H311	H	0.650234	-0.361694	-0.359062
H312	H	1.150234	0.138306	0.140938
H313	H	0.657489	-0.399919	-0.446412
H314	H	1.157489	0.100081	0.053588
H315	H	0.728178	-0.349380	-0.424313
H316	H	1.228178	0.150620	0.075687
O317	O	1.166780	-1.056697	-0.451343
O318	O	1.666780	-0.556697	0.048657
C319	C	1.124473	-1.088287	-0.499271
C320	C	1.624473	-0.588287	0.000729
H321	H	1.065974	-1.071853	-0.503814
H322	H	1.565974	-0.571853	-0.003814
H323	H	1.151291	-1.088869	-0.556444
H324	H	1.651291	-0.588869	-0.056444
H325	H	1.121942	-1.129681	-0.476313
H326	H	1.621942	-0.629681	0.023687
