data_functionalizedCrystal
_audit_creation_method	'MofGen! by Chris Wilmer'
_symmetry_space_group_name_H-M	'P1'
_symmetry_Int_Tables_number	1
_symmetry_cell_setting	triclinic
loop_
_symmetry_equiv_pos_as_xyz
  x,y,z
_cell_length_a	19.188905
_cell_length_b	19.188925
_cell_length_c	18.266242
_cell_angle_alpha	89.993996
_cell_angle_beta	89.983837
_cell_angle_gamma	83.138552
loop_
_atom_site_label
_atom_site_type_symbol
_atom_site_fract_x
_atom_site_fract_y
_atom_site_fract_z
O1	O	0.926159	0.087086	-0.061001
O2	O	1.426159	0.587086	0.438999
O3	O	0.722845	0.098838	-0.060976
O4	O	1.222845	0.598838	0.439024
O5	O	0.830371	-0.008694	-0.060985
O6	O	1.330371	0.491306	0.439015
O7	O	0.818633	0.194618	-0.060992
O8	O	1.318633	0.694618	0.439008
O9	O	0.830353	-0.008700	0.060777
O10	O	1.330353	0.491300	0.560777
O11	O	0.722827	0.098833	0.060786
O12	O	1.222827	0.598833	0.560786
O13	O	0.926141	0.087080	0.060761
O14	O	1.426141	0.587080	0.560761
Zn15	Zn	0.824481	0.092956	0.080106
Zn16	Zn	1.324481	0.592956	0.580106
Zn17	Zn	0.824505	0.092963	-0.080321
Zn18	Zn	1.324505	0.592963	0.419679
O19	O	0.818614	0.194613	0.060770
O20	O	1.318614	0.694613	0.560770
C21	C	0.696824	0.098458	-0.000092
C22	C	1.196824	0.598458	0.499908
C23	C	0.619319	0.097324	-0.000082
C24	C	1.119319	0.597324	0.499918
C25	C	0.829982	-0.034708	-0.000105
C26	C	1.329982	0.465292	0.499895
C27	C	0.828843	-0.112213	-0.000106
C28	C	1.328843	0.387787	0.499894
C29	C	0.884308	-0.673988	-0.000131
C30	C	1.384308	-0.173988	0.499869
C31	C	0.885384	-0.601165	-0.000125
C32	C	1.385384	-0.101165	0.499875
C33	C	0.822291	-0.556225	-0.000117
C34	C	1.322291	-0.056225	0.499883
C35	C	0.758117	-0.584113	-0.000097
C36	C	1.258117	-0.084113	0.499903
C37	C	0.757043	-0.656935	-0.000096
C38	C	1.257043	-0.156935	0.499904
N39	N	0.776621	-0.435538	-0.041556
N40	N	1.276621	0.064462	0.458444
N41	N	0.777646	-0.366361	-0.041558
N42	N	1.277646	0.133639	0.458442
C43	C	0.825526	-0.336816	-0.000118
C44	C	1.325526	0.163184	0.499882
N45	N	0.872352	-0.379063	0.041316
N46	N	1.372352	0.120937	0.541316
N47	N	0.871328	-0.448247	0.041315
N48	N	1.371328	0.051753	0.541315
C49	C	0.823450	-0.477261	-0.000118
C50	C	1.323450	0.022739	0.499882
C51	C	0.890863	-0.229973	-0.000126
C52	C	1.390863	0.270027	0.499874
C53	C	0.891937	-0.157148	-0.000115
C54	C	1.391937	0.342852	0.499885
C55	C	0.764668	-0.140097	-0.000095
C56	C	1.264668	0.359903	0.499905
C57	C	0.763596	-0.212921	-0.000098
C58	C	1.263596	0.287079	0.499902
C59	C	0.826695	-0.257855	-0.000117
C60	C	1.326695	0.242145	0.499883
C61	C	0.582937	0.096783	-0.066456
C62	C	1.082937	0.596783	0.433544
C63	C	0.510113	0.095710	-0.066465
C64	C	1.010113	0.595710	0.433535
C65	C	0.473676	0.095164	-0.000096
C66	C	0.973676	0.595164	0.499904
C67	C	0.510066	0.095710	0.066287
C68	C	1.010066	0.595710	0.566287
C69	C	0.582888	0.096790	0.066294
C70	C	1.082888	0.596790	0.566294
N71	N	0.364650	0.053733	0.049297
N72	N	0.864650	0.553733	0.549297
N73	N	0.295473	0.052706	0.049286
N74	N	0.795473	0.552706	0.549286
C75	C	0.254270	0.091911	-0.000114
C76	C	0.754270	0.591911	0.499886
N77	N	0.284858	0.132175	-0.049513
N78	N	0.784858	0.632175	0.450487
N79	N	0.354042	0.133199	-0.049504
N80	N	0.854042	0.633199	0.450496
C81	C	0.394714	0.093993	-0.000097
C82	C	0.894714	0.593993	0.499903
C83	C	0.138924	0.090207	-0.066503
C84	C	0.638924	0.590207	0.433497
C85	C	0.066099	0.089139	-0.066509
C86	C	0.566099	0.589139	0.433491
C87	C	0.066054	0.089132	0.066245
C88	C	0.566054	0.589132	0.566245
C89	C	0.138877	0.090207	0.066249
C90	C	0.638877	0.590207	0.566249
C91	C	0.175308	0.090742	-0.000126
C92	C	0.675308	0.590742	0.499874
C93	C	0.952161	0.087461	-0.000125
C94	C	1.452161	0.587461	0.499875
C95	C	1.029666	0.088594	-0.000139
C96	C	1.529666	0.588594	0.499861
C97	C	0.819003	0.220627	-0.000112
C98	C	1.319003	0.720627	0.499888
C99	C	0.820142	0.298131	-0.000116
C100	C	1.320142	0.798131	0.499884
N101	N	0.824469	0.092950	0.189593
N102	N	1.324469	0.592950	0.689593
N103	N	0.824521	0.092963	-0.189808
N104	N	1.324521	0.592963	0.310192
C105	C	0.872098	0.045358	0.227898
C106	C	1.372098	0.545358	0.727898
C107	C	0.872102	0.045355	0.304543
C108	C	1.372102	0.545355	0.804543
C109	C	0.824485	0.092956	0.342880
C110	C	1.324485	0.592956	0.842880
C111	C	0.776848	0.140552	0.304566
C112	C	1.276848	0.640552	0.804566
C113	C	0.776840	0.140549	0.227922
C114	C	1.276840	0.640549	0.727922
N115	N	0.815408	0.154764	0.463211
N116	N	1.315408	0.654764	0.963211
N117	N	0.815420	0.154765	0.536019
N118	N	1.315420	0.654765	1.036019
C119	C	0.824504	0.092966	0.573802
C120	C	1.324504	0.592966	1.073802
N121	N	0.833591	0.031165	0.536027
N122	N	1.333591	0.531165	1.036027
N123	N	0.833583	0.031165	0.463212
N124	N	1.333583	0.531165	0.963212
C125	C	0.824488	0.092964	0.425987
C126	C	1.324488	0.592964	0.925987
C127	C	0.872140	0.045366	0.695214
C128	C	1.372140	0.545366	1.195214
C129	C	0.872140	0.045362	0.771860
C130	C	1.372140	0.545362	1.271860
C131	C	0.776889	0.140565	0.771882
C132	C	1.276889	0.640565	1.271882
C133	C	0.776886	0.140563	0.695237
C134	C	1.276886	0.640563	1.195237
C135	C	0.824515	0.092964	0.656908
C136	C	1.324515	0.592964	1.156908
H137	H	0.935689	-0.710569	-0.000143
H138	H	1.435689	-0.210569	0.499857
H139	H	0.738076	0.179308	0.335784
H140	H	1.238076	0.679308	0.835784
C141	C	0.469984	0.095109	0.139293
C142	C	0.969984	0.595109	0.639293
N143	N	0.439794	0.094658	0.194284
N144	N	0.939794	0.594658	0.694284
C145	C	0.924526	-0.006999	0.653049
C146	C	1.424526	0.493001	1.153049
N147	N	0.963983	-0.046442	0.621293
N148	N	1.463983	0.453558	1.121293
H149	H	0.036387	0.088692	0.120284
H150	H	0.536387	0.588692	0.620284
H151	H	0.910922	0.006603	0.803049
H152	H	1.410922	0.506603	1.303049
H153	H	0.738116	0.179320	0.803096
H154	H	1.238116	0.679320	1.303096
H155	H	0.944190	-0.134450	-0.000123
H156	H	1.444190	0.365550	0.499877
C157	C	0.724541	0.192969	0.653100
C158	C	1.224541	0.692969	1.153100
N159	N	0.685128	0.232460	0.621363
N160	N	1.185128	0.732460	1.121363
C161	C	0.924485	-0.007009	0.185740
C162	C	1.424485	0.492991	0.685740
N163	N	0.963941	-0.046454	0.153985
N164	N	1.463941	0.453546	0.653985
C165	C	0.693007	-0.243590	-0.000090
C166	C	1.193007	0.256410	0.499910
N167	N	0.639837	-0.266690	-0.000083
N168	N	1.139837	0.233310	0.499917
H169	H	0.168500	0.090644	0.120299
H170	H	0.668500	0.590644	0.620299
H171	H	0.612595	0.097218	-0.120505
H172	H	1.112595	0.597218	0.379495
C173	C	0.955974	-0.570489	-0.000149
C174	C	1.455974	-0.070489	0.499851
N175	N	1.009143	-0.547386	-0.000169
N176	N	1.509143	-0.047386	0.499831
C177	C	0.470086	0.095109	-0.139485
C178	C	0.970086	0.595109	0.360515
N179	N	0.439940	0.094655	-0.194484
N180	N	0.939940	0.594655	0.305516
C181	C	0.924506	-0.006996	0.346686
C182	C	1.424506	0.493004	0.846686
N183	N	0.963979	-0.046423	0.378427
N184	N	1.463979	0.453577	0.878427
C185	C	0.622910	0.097380	0.139314
C186	C	1.122910	0.597380	0.639314
N187	N	0.653056	0.097821	0.194314
N188	N	1.153056	0.597821	0.694314
H189	H	0.706747	-0.547518	-0.000089
H190	H	1.206747	-0.047518	0.499911
C191	C	0.724473	0.192937	0.185786
C192	C	1.224473	0.692937	0.685786
N193	N	0.685041	0.232407	0.154047
N194	N	1.185041	0.732407	0.654047
H195	H	0.704790	-0.679634	-0.000082
H196	H	1.204790	-0.179634	0.499918
H197	H	0.942242	-0.266560	-0.000141
H198	H	1.442242	0.233440	0.499859
H199	H	0.713296	-0.103508	-0.000082
H200	H	1.213296	0.396492	0.499918
C201	C	0.178999	0.090808	-0.139517
C202	C	0.678999	0.590808	0.360483
N203	N	0.209181	0.091263	-0.194512
N204	N	0.709181	0.591263	0.305488
H205	H	0.036477	0.088702	-0.120561
H206	H	0.536477	0.588702	0.379439
