data_functionalizedCrystal
_audit_creation_method	'MofGen! by Chris Wilmer'
_symmetry_space_group_name_H-M	'P1'
_symmetry_Int_Tables_number	1
_symmetry_cell_setting	triclinic
loop_
_symmetry_equiv_pos_as_xyz
  x,y,z
_cell_length_a	12.837943
_cell_length_b	10.868271
_cell_length_c	12.811415
_cell_angle_alpha	95.435992
_cell_angle_beta	89.411917
_cell_angle_gamma	90.003083
loop_
_atom_site_label
_atom_site_type_symbol
_atom_site_fract_x
_atom_site_fract_y
_atom_site_fract_z
O1	O	1.376632	0.132756	0.272979
O2	O	1.074768	0.131259	0.259494
O3	O	1.233294	0.115037	0.114203
O4	O	1.218106	0.148977	0.418270
O5	O	1.233281	-0.089608	0.114195
O6	O	1.074755	-0.073387	0.259486
O7	O	1.376619	-0.071890	0.272971
Zn8	Zn	1.225685	-0.105130	0.266228
Zn9	Zn	1.225702	0.164499	0.266237
O10	O	1.218093	-0.055668	0.418262
C11	C	1.036121	0.028429	0.254935
C12	C	0.920985	0.026915	0.241349
N13	N	1.225680	-0.289145	0.266221
C14	C	0.680732	0.045129	0.404679
C15	C	0.572551	0.043707	0.391919
C16	C	0.596441	0.022640	0.203068
C17	C	0.704622	0.024062	0.215829
C18	C	0.746763	0.035309	0.316637
C19	C	0.854946	0.036740	0.329397
C20	C	0.878833	0.015665	0.140547
C21	C	0.770652	0.014242	0.127787
C22	C	1.225697	-0.540149	0.266235
C23	C	1.225684	-0.400472	0.266230
C24	C	1.415265	0.030943	0.277530
C25	C	1.530401	0.032465	0.291116
C26	C	1.232436	0.008343	0.075010
C27	C	1.229887	-0.004683	-0.041764
N28	N	1.225714	0.348513	0.266237
C29	C	1.225092	0.193969	-0.261175
C30	C	1.222697	0.181735	-0.370894
C31	C	1.222694	-0.041383	-0.370922
C32	C	1.225089	-0.029149	-0.261203
C33	C	1.226290	0.088530	-0.206334
C34	C	1.228692	0.100763	-0.096613
C35	C	1.228682	-0.122354	-0.096643
C36	C	1.226287	-0.134588	-0.206362
C37	C	1.218951	0.051029	0.457455
C38	C	1.221500	0.064063	0.574229
H39	H	0.889255	0.045895	0.411480
H40	H	1.229661	-0.208210	-0.051979
H41	H	1.226079	0.289788	-0.216500
H42	H	0.715044	0.054288	0.486762
H43	H	1.225305	-0.230399	-0.251051
O44	O	0.550981	0.010492	0.094345
H45	H	0.464662	0.011151	0.100268
H46	H	0.518792	0.051700	0.463612
H47	H	1.229673	0.196583	-0.051940
H48	H	0.736326	0.005072	0.045711
O49	O	0.950051	0.005065	0.045576
H50	H	1.032357	0.007936	0.071382
H51	H	1.221718	0.267594	-0.415542
H52	H	1.221708	-0.137192	-0.415616
