data_functionalizedCrystal
_audit_creation_method	'MofGen! by Chris Wilmer'
_symmetry_space_group_name_H-M	'P1'
_symmetry_Int_Tables_number	1
_symmetry_cell_setting	triclinic
loop_
_symmetry_equiv_pos_as_xyz
  x,y,z
_cell_length_a	10.654541
_cell_length_b	17.699083
_cell_length_c	16.176319
_cell_angle_alpha	90.007696
_cell_angle_beta	89.993951
_cell_angle_gamma	96.116529
loop_
_atom_site_label
_atom_site_type_symbol
_atom_site_fract_x
_atom_site_fract_y
_atom_site_fract_z
O1	O	1.665988	-0.106296	-0.068723
O2	O	1.300332	-0.116426	-0.068730
O3	O	1.493491	-0.001237	-0.068719
O4	O	1.472829	-0.221484	-0.068734
O5	O	1.493464	-0.001230	0.068774
O6	O	1.300305	-0.116418	0.068763
O7	O	1.665962	-0.106288	0.068770
Cu8	Cu	1.483131	-0.111352	0.081321
Cu9	Cu	1.483162	-0.111361	-0.081281
O10	O	1.472803	-0.221477	0.068759
C11	C	1.253534	-0.115678	0.000015
C12	C	1.114129	-0.113454	0.000013
N13	N	1.483118	-0.111346	0.195686
C14	C	1.492737	0.026968	0.000027
C15	C	1.490516	0.111001	0.000028
C16	C	1.083747	-0.251193	-0.000007
C17	C	1.003066	-0.319015	-0.000020
C18	C	0.872084	-0.316920	-0.000021
C19	C	0.821783	-0.246997	-0.000006
C20	C	0.902464	-0.179175	0.000007
C21	C	1.033447	-0.181277	0.000005
C22	C	0.932846	-0.041438	0.000033
C23	C	1.063828	-0.043531	0.000028
C24	C	0.882545	0.028485	0.000048
C25	C	0.963227	0.096308	0.000055
C26	C	1.094215	0.094211	0.000055
C27	C	1.144509	0.024291	0.000041
C28	C	1.712760	-0.107035	0.000023
C29	C	1.852165	-0.109260	0.000020
C30	C	1.473556	-0.249682	0.000010
C31	C	1.475777	-0.333714	0.000005
C32	C	1.603896	0.158901	0.000031
C33	C	1.601802	0.237858	0.000024
C34	C	1.486326	0.268912	0.000019
C35	C	1.372937	0.221005	0.000013
C36	C	1.375033	0.142050	0.000014
C37	C	1.364483	0.539422	0.000006
C38	C	1.362396	0.618383	0.000007
C39	C	1.591252	0.635230	0.000016
C40	C	1.593348	0.556275	0.000017
C41	C	1.479960	0.508375	0.000007
C42	C	1.482232	0.422761	0.000013
C43	C	1.484052	0.354524	0.000018
N44	N	1.483185	-0.111362	-0.195646
C45	C	1.568675	-0.060362	0.238955
C46	C	1.568681	-0.060361	0.325502
C47	C	1.483136	-0.111348	0.368778
C48	C	1.397570	-0.162335	0.325503
C49	C	1.397559	-0.162332	0.238958
C50	C	1.397613	-0.162350	0.674532
C51	C	1.397634	-0.162351	0.761083
C52	C	1.568735	-0.060379	0.761076
C53	C	1.568724	-0.060375	0.674530
C54	C	1.483155	-0.111359	0.631263
C55	C	1.483147	-0.111358	0.537419
C56	C	1.483148	-0.111353	0.462621
H57	H	1.190398	-0.252906	-0.000025
F58	F	1.243805	0.488453	-0.000007
F59	F	1.283910	0.022053	0.000036
H60	H	1.638347	-0.018845	0.360731
H61	H	1.327889	-0.203847	0.203729
H62	H	0.806392	-0.372147	-0.000026
F63	F	0.682380	-0.244771	0.000006
H64	H	1.044036	-0.375945	-0.000030
H65	H	1.278915	0.246296	0.000004
F66	F	1.659731	-0.006096	0.192905
H67	H	1.694128	0.276856	0.000028
H68	H	0.775892	0.030186	0.000052
H69	H	1.697930	0.133623	0.000040
F70	F	0.909684	0.170717	0.000077
F71	F	1.180074	0.166398	0.000075
H72	H	1.327912	-0.203848	0.360744
F73	F	1.711931	0.686215	0.000024
H74	H	1.687380	0.530995	0.000025
F75	F	1.239485	0.651431	0.000001
H76	H	1.282707	0.103050	0.000011
H77	H	1.638387	-0.018859	0.639297
F78	F	1.659803	-0.006114	0.807131
H79	H	1.327968	-0.203872	0.796317
F80	F	1.306549	-0.216611	0.628490
