data_functionalizedCrystal
_audit_creation_method	'MofGen! by Chris Wilmer'
_symmetry_space_group_name_H-M	'P1'
_symmetry_Int_Tables_number	1
_symmetry_cell_setting	triclinic
loop_
_symmetry_equiv_pos_as_xyz
  x,y,z
_cell_length_a	13.635800
_cell_length_b	10.943867
_cell_length_c	11.168136
_cell_angle_alpha	88.103034
_cell_angle_beta	108.508683
_cell_angle_gamma	71.156739
loop_
_atom_site_label
_atom_site_type_symbol
_atom_site_fract_x
_atom_site_fract_y
_atom_site_fract_z
V1	V	2.055817	-0.178653	0.393685
O2	O	2.034691	0.008565	0.386205
O3	O	2.044822	-0.354219	0.390979
O4	O	2.043949	-0.175913	0.565391
O5	O	2.035570	-0.170975	0.210585
V6	V	2.294322	-0.156258	0.371787
O7	O	2.193590	-0.227777	0.441721
O8	O	2.381648	-0.107134	0.323750
O9	O	2.193714	0.019308	0.374493
O10	O	2.374146	-0.343476	0.379266
O11	O	2.373267	-0.163936	0.554886
O12	O	2.194587	-0.158997	0.200081
V13	V	2.555817	-0.178653	0.393685
O14	O	2.534691	0.008565	0.386205
O15	O	2.544822	-0.354219	0.390979
O16	O	2.543949	-0.175913	0.565391
O17	O	2.535570	-0.170975	0.210585
V18	V	2.794322	-0.156258	0.371787
O19	O	2.693590	-0.227777	0.441721
O20	O	2.881648	-0.107134	0.323750
O21	O	2.693714	0.019308	0.374493
O22	O	2.874146	-0.343476	0.379266
O23	O	2.873267	-0.163936	0.554886
O24	O	2.694587	-0.158997	0.200081
C25	C	1.970135	-0.397018	0.384764
C26	C	2.001871	-0.540546	0.383696
C27	C	2.116563	-0.631429	0.389642
C28	C	2.114616	-0.730551	0.490303
C29	C	2.060361	-0.697168	0.281156
C30	C	1.999529	-0.637790	0.484458
C31	C	1.945261	-0.604386	0.275218
C32	C	1.943242	-0.703468	0.375900
C33	C	1.969021	-0.169570	0.607243
C34	C	2.000047	-0.168492	0.747614
C35	C	2.100072	0.062100	0.380704
C36	C	2.057956	0.205627	0.381780
C37	C	2.101185	-0.165345	0.158222
C38	C	2.059778	-0.166417	0.017850
C39	C	2.470135	-0.397018	0.384764
C40	C	2.501871	-0.540546	0.383696
C41	C	2.469021	-0.169570	0.607243
C42	C	2.500047	-0.168492	0.747614
C43	C	2.101329	-0.174135	0.816305
C44	C	2.133397	-0.173021	0.961386
C45	C	2.600072	0.062100	0.380704
C46	C	2.557956	0.205627	0.381780
C47	C	2.601185	-0.165345	0.158222
C48	C	2.559778	-0.166417	0.017850
C49	C	2.603470	-0.610783	0.389208
C50	C	2.636273	-0.759127	0.388104
C51	C	2.601329	-0.174135	0.816305
C52	C	2.633397	-0.173021	0.961386
H53	H	2.189542	-0.599594	0.395592
H54	H	1.973579	-0.611441	0.570479
O55	O	2.184744	-0.181625	0.751940
H56	H	2.211683	-0.096108	0.766782
H57	H	2.475929	-0.756489	0.376917
O58	O	2.418811	-0.606349	0.376374
H59	H	2.405631	-0.653694	0.289156
H60	H	1.873393	-0.549606	0.184290
O61	O	1.916602	-0.161418	0.811835
H62	H	1.843935	-0.070246	0.770094
O63	O	2.684753	-0.181627	0.751951
H64	H	2.646475	-0.181334	0.648099
O65	O	2.248330	-0.179410	1.039586
H66	H	2.255478	-0.177520	1.141263
O67	O	2.751565	-0.839088	0.394340
H68	H	2.791919	-0.914635	0.480643
O69	O	1.846482	-0.745373	0.368221
H70	H	1.821721	-0.721819	0.452669
H71	H	1.973014	-0.161594	0.958809
O72	O	2.686533	-0.544982	0.396538
H73	H	2.647731	-0.438791	0.396244
O74	O	2.094855	-0.732295	0.167331
H75	H	2.167090	-0.703663	0.173279
H76	H	2.720163	-0.177858	1.020436
O77	O	2.444839	-0.159993	0.939637
H78	H	2.449988	-0.248546	0.892698
O79	O	2.209826	-0.803042	0.610777
H80	H	2.281954	-0.774350	0.616297
O81	O	2.416527	-0.161144	0.811788
H82	H	2.402511	-0.072013	0.858153
