data_functionalizedCrystal
_audit_creation_method	'MofGen! by Chris Wilmer'
_symmetry_space_group_name_H-M	'P1'
_symmetry_Int_Tables_number	1
_symmetry_cell_setting	triclinic
loop_
_symmetry_equiv_pos_as_xyz
  x,y,z
_cell_length_a	10.654559
_cell_length_b	15.944493
_cell_length_c	9.130313
_cell_angle_alpha	89.993981
_cell_angle_beta	90.003271
_cell_angle_gamma	83.981864
loop_
_atom_site_label
_atom_site_type_symbol
_atom_site_fract_x
_atom_site_fract_y
_atom_site_fract_z
O1	O	1.666269	0.118011	0.121786
O2	O	1.300643	0.129243	0.121785
O3	O	1.493479	0.001407	0.121798
O4	O	1.473434	0.245847	0.121774
O5	O	1.493465	0.001414	-0.121801
O6	O	1.300630	0.129250	-0.121813
O7	O	1.666256	0.118018	-0.121813
Cu8	Cu	1.483442	0.123635	-0.144055
Cu9	Cu	1.483457	0.123626	0.144028
O10	O	1.473421	0.245854	-0.121825
C11	C	1.253850	0.128420	-0.000014
C12	C	1.114440	0.125948	-0.000013
C13	C	1.063928	0.048356	-0.000009
C14	C	0.932937	0.046038	0.000002
C15	C	0.902979	0.198911	-0.000001
C16	C	1.033968	0.201228	-0.000001
C17	C	1.144400	-0.026923	-0.000021
C18	C	1.093889	-0.104521	-0.000018
C19	C	0.962898	-0.106839	-0.000007
C20	C	0.882417	-0.031559	0.000002
C21	C	1.492653	-0.029889	0.000005
C22	C	1.490196	-0.123152	0.000024
C23	C	1.603704	-0.358252	-0.000004
C24	C	1.542500	-0.409180	0.120102
C25	C	1.485645	-0.293899	0.000006
C26	C	1.542460	-0.409149	-0.120067
C27	C	1.481258	-0.458835	-0.000018
C28	C	1.424474	-0.343598	0.120211
C29	C	1.424450	-0.343564	-0.120066
C30	C	1.363160	-0.394459	0.000069
C31	C	1.488176	-0.198885	0.000021
C32	C	1.478718	-0.553846	-0.000023
C33	C	1.713049	0.118841	-0.000010
C34	C	1.852459	0.121313	-0.000001
C35	C	1.474246	0.277150	-0.000029
C36	C	1.476703	0.370413	-0.000038
N37	N	1.483440	0.123641	-0.346678
C38	C	1.559588	0.175058	-0.423349
C39	C	1.559606	0.175043	-0.576686
C40	C	1.407318	0.072190	-0.576667
C41	C	1.407308	0.072202	-0.423333
C42	C	1.635720	0.226497	-0.346694
C43	C	1.711873	0.277919	-0.423366
C44	C	1.711892	0.277903	-0.576703
C45	C	1.635757	0.226466	-0.653368
N46	N	1.483469	0.123613	0.346651
H47	H	1.075095	0.264409	-0.000018
C48	C	1.288486	-0.024377	-0.000022
H49	H	1.329180	-0.080322	-0.000017
H50	H	1.312581	0.004385	-0.084967
H51	H	1.312590	0.004367	0.084940
C52	C	1.635782	0.226441	-0.822035
H53	H	1.579538	0.188441	-0.856708
H54	H	1.609275	0.281627	-0.856761
H55	H	1.718553	0.209222	-0.856690
C56	C	1.182405	-0.187324	-0.000012
H57	H	1.133558	-0.233867	0.000010
H58	H	1.234122	-0.189599	-0.084960
H59	H	1.234130	-0.189597	0.084947
H60	H	1.592336	-0.437787	-0.221601
H61	H	1.635710	0.226517	-0.221840
H62	H	0.837442	0.260200	0.000004
C63	C	1.795616	0.334494	-0.339041
H64	H	1.784693	0.327146	-0.236739
H65	H	1.881544	0.319424	-0.364145
H66	H	1.772256	0.391822	-0.364203
C67	C	1.225683	-0.416160	0.000154
H68	H	1.183949	-0.393502	0.085550
H69	H	1.183455	-0.392697	-0.084356
H70	H	1.224837	-0.475678	-0.000646
H71	H	1.345331	0.030314	-0.639100
C72	C	1.357178	-0.305073	0.257541
H73	H	1.327470	-0.348653	0.314819
H74	H	1.414677	-0.276611	0.313687
H75	H	1.287851	-0.266195	0.228833
H76	H	0.921776	-0.170023	0.000009
C77	C	0.738329	-0.034110	0.000022
H78	H	0.719770	-0.091103	0.000020
H79	H	0.703173	-0.006407	0.084969
H80	H	0.703157	-0.006404	-0.084938
H81	H	1.592363	-0.437839	0.221644
C82	C	1.795653	0.334462	-0.661044
H83	H	1.784768	0.327084	-0.763344
H84	H	1.772293	0.391791	-0.635943
H85	H	1.881582	0.319392	-0.635893
C86	C	1.357154	-0.304818	-0.257243
H87	H	1.399236	-0.327365	-0.342504
H88	H	1.272171	-0.317831	-0.258109
H89	H	1.358569	-0.245349	-0.255763
C90	C	1.323559	0.015639	-0.338982
H91	H	1.334472	0.023006	-0.236684
H92	H	1.237631	0.030696	-0.364117
H93	H	1.346934	-0.041692	-0.364090
C94	C	1.741073	-0.336333	0.000155
H95	H	1.782837	-0.358912	0.085602
H96	H	1.783410	-0.359757	-0.084302
H97	H	1.741714	-0.276800	-0.000704
