data_functionalizedCrystal
_audit_creation_method	'MofGen! by Chris Wilmer'
_symmetry_space_group_name_H-M	'P1'
_symmetry_Int_Tables_number	1
_symmetry_cell_setting	triclinic
loop_
_symmetry_equiv_pos_as_xyz
  x,y,z
_cell_length_a	27.732048
_cell_length_b	27.731996
_cell_length_c	15.186229
_cell_angle_alpha	89.990305
_cell_angle_beta	90.002148
_cell_angle_gamma	82.632022
loop_
_atom_site_label
_atom_site_type_symbol
_atom_site_fract_x
_atom_site_fract_y
_atom_site_fract_z
O1	O	0.640916	0.057518	-0.073126
O2	O	0.500121	0.066264	-0.073155
O3	O	0.574904	-0.008508	-0.073121
O4	O	0.566132	0.132289	-0.073160
O5	O	0.574899	-0.008509	0.073337
O6	O	0.500116	0.066263	0.073303
O7	O	0.640911	0.057517	0.073331
Zn8	Zn	0.570512	0.061890	0.096570
Zn9	Zn	0.570519	0.061891	-0.096394
O10	O	0.566127	0.132288	0.073297
C11	C	0.482111	0.066079	0.000071
C12	C	0.428456	0.065527	0.000061
C13	C	0.574721	-0.026516	0.000111
C14	C	0.574179	-0.080172	0.000120
C15	C	0.089634	0.106231	0.000087
C16	C	-0.112026	0.104180	0.000096
O17	O	-0.143288	0.141402	0.000123
N18	N	-0.131141	0.059844	0.000107
C19	C	-0.099838	0.016017	0.000121
O20	O	-0.120724	-0.021740	0.000140
C21	C	0.101820	0.018069	0.000119
C22	C	0.120933	0.062408	0.000099
C23	C	0.108747	0.150567	0.000068
C24	C	0.159159	0.151079	0.000062
C25	C	0.190457	0.107256	0.000074
C26	C	0.171344	0.062920	0.000092
C27	C	0.133122	-0.025757	0.000140
C28	C	0.183539	-0.025240	0.000142
C29	C	0.202652	0.019099	0.000122
C30	C	0.253055	0.019609	0.000098
N31	N	0.272171	0.063946	0.000087
C32	C	0.240872	0.107769	0.000075
C33	C	-0.205712	0.014943	0.000121
C34	C	-0.256126	0.014430	0.000120
C35	C	-0.268310	0.102594	0.000096
C36	C	-0.217895	0.103106	0.000091
C37	C	-0.186597	0.059280	0.000110
C38	C	0.346741	0.108842	0.000059
C39	C	0.397158	0.109350	0.000049
C40	C	0.409337	0.021187	0.000077
C41	C	0.358925	0.020678	0.000083
C42	C	0.327627	0.064510	0.000077
O43	O	0.284346	-0.017592	0.000080
O44	O	0.261767	0.145521	0.000076
C45	C	0.039222	0.105719	0.000094
C46	C	0.020109	0.061384	0.000113
C47	C	0.051408	0.017560	0.000125
C48	C	-0.030305	0.060871	0.000112
C49	C	-0.061604	0.104694	0.000100
C50	C	-0.042489	0.149030	0.000089
C51	C	0.007923	0.149543	0.000082
C52	C	0.032292	-0.026776	0.000136
C53	C	-0.018120	-0.027285	0.000142
C54	C	-0.049419	0.016539	0.000130
C55	C	0.570767	-0.412888	-0.079758
C56	C	0.568706	-0.614546	-0.079774
O57	O	0.568421	-0.640616	-0.147670
N58	N	0.568447	-0.639764	0.000059
C59	C	0.568700	-0.614563	0.079902
O60	O	0.568428	-0.640639	0.147805
C61	C	0.570758	-0.412905	0.079917
C62	C	0.571021	-0.387691	0.000079
C63	C	0.571030	-0.387673	-0.159589
C64	C	0.571547	-0.337262	-0.159585
C65	C	0.571802	-0.312065	-0.079748
C66	C	0.571539	-0.337280	0.000084
C67	C	0.571008	-0.387706	0.159759
C68	C	0.571521	-0.337288	0.159756
C69	C	0.571785	-0.312073	0.079917
C70	C	0.572312	-0.261672	0.079925
N71	N	0.572571	-0.236454	0.000092
C72	C	0.572316	-0.261651	-0.079745
C73	C	0.567621	-0.720437	0.079889
C74	C	0.567107	-0.770851	0.079885
C75	C	0.567112	-0.770830	-0.079791
C76	C	0.567629	-0.720415	-0.079786
C77	C	0.567880	-0.695219	0.000056
C78	C	0.573404	-0.155784	-0.079729
C79	C	0.573924	-0.105369	-0.079717
C80	C	0.573917	-0.105394	0.079959
C81	C	0.573399	-0.155805	0.079948
C82	C	0.573141	-0.180999	0.000097
O83	O	0.572592	-0.235570	0.147786
O84	O	0.572577	-0.235565	-0.147637
C85	C	0.570249	-0.463299	-0.079762
C86	C	0.569986	-0.488513	0.000069
C87	C	0.570240	-0.463317	0.079906
C88	C	0.569472	-0.538928	0.000066
C89	C	0.569217	-0.564124	-0.079771
C90	C	0.569476	-0.538907	-0.159604
C91	C	0.569994	-0.488496	-0.159599
C92	C	0.569982	-0.488534	0.159739
C93	C	0.569464	-0.538946	0.159728
C94	C	0.569210	-0.564142	0.079891
C95	C	0.658920	0.057701	0.000104
C96	C	0.712575	0.058254	0.000108
C97	C	0.566310	0.150296	0.000063
C98	C	0.566853	0.203952	0.000049
N99	N	0.570511	0.061888	0.228263
N100	N	0.570524	0.061888	-0.228086
C101	C	0.603637	0.028791	0.454001
C102	C	0.603638	0.028789	0.546190
C103	C	0.537395	0.094988	0.546169
C104	C	0.537391	0.094986	0.453981
C105	C	0.570515	0.061888	0.407899
C106	C	0.570520	0.061888	0.592277
C107	C	0.570521	0.061887	0.692233
C108	C	0.570513	0.061888	0.307937
H109	H	0.412716	0.145458	0.000032
Br110	Br	0.566761	-0.805066	0.188241
H111	H	-0.293803	0.138276	0.000086
H112	H	0.630607	0.001839	0.416483
Br113	Br	0.569134	-0.573113	-0.267952
H114	H	0.209021	-0.060930	0.000158
H115	H	0.630608	0.001838	0.583723
H116	H	-0.067981	0.184713	0.000076
H117	H	0.434830	-0.014493	0.000084
Br118	Br	0.074762	-0.086257	0.000156
H119	H	-0.271683	-0.021675	0.000122
Br120	Br	0.304273	0.168327	0.000053
H121	H	0.569254	-0.559472	0.224747
Br122	Br	0.332985	-0.039497	0.000113
H123	H	0.510427	0.121936	0.583698
H124	H	0.571760	-0.316737	-0.224597
H125	H	0.570820	-0.408183	-0.224606
Br126	Br	0.492434	0.139904	0.391408
H127	H	0.083267	0.186255	0.000062
Br128	Br	0.185089	0.211257	0.000039
H129	H	0.570190	-0.468025	0.224753
H130	H	0.023479	0.185648	0.000067
Br131	Br	-0.163242	-0.044541	0.000147
H132	H	-0.202337	0.139211	0.000079
Br133	Br	-0.044051	-0.087465	0.000154
Br134	Br	0.574264	-0.071189	0.188303
H135	H	0.571718	-0.316774	0.224774
H136	H	0.117570	-0.061863	0.000157
H137	H	0.573189	-0.176336	0.144958
Br138	Br	0.574284	-0.071152	-0.188076
H139	H	0.573191	-0.176290	-0.144751
Br140	Br	0.570352	-0.454284	-0.267957
H141	H	0.567843	-0.699889	-0.144798
H142	H	0.566905	-0.791354	-0.144797
Br143	Br	0.567957	-0.686248	0.188257
H144	H	0.570794	-0.408227	0.224772
