data_functionalizedCrystal
_audit_creation_method	'MofGen! by Chris Wilmer'
_symmetry_space_group_name_H-M	'P1'
_symmetry_Int_Tables_number	1
_symmetry_cell_setting	triclinic
loop_
_symmetry_equiv_pos_as_xyz
  x,y,z
_cell_length_a	10.686220
_cell_length_b	19.120786
_cell_length_c	10.686551
_cell_angle_alpha	96.651844
_cell_angle_beta	89.691918
_cell_angle_gamma	97.023231
loop_
_atom_site_label
_atom_site_type_symbol
_atom_site_fract_x
_atom_site_fract_y
_atom_site_fract_z
Zn1	Zn	1.958087	-0.172367	0.550230
Zn2	Zn	1.931315	-0.300335	0.331447
Zn3	Zn	1.730716	-0.190454	0.355272
Zn4	Zn	1.737864	-0.298902	0.557326
O5	O	1.839496	-0.240515	0.448569
O6	O	2.130652	-0.182373	0.508268
O7	O	1.890510	-0.293928	0.158486
O8	O	1.769090	-0.089113	0.388135
O9	O	2.110983	-0.276390	0.347529
O10	O	1.936139	-0.075826	0.531370
O11	O	1.743130	-0.213198	0.175990
O12	O	1.555548	-0.211809	0.395016
O13	O	1.781272	-0.273948	0.732506
O14	O	1.560799	-0.291486	0.543463
O15	O	1.943070	-0.180984	0.727293
O16	O	1.897441	-0.399086	0.354409
O17	O	1.755313	-0.398033	0.520361
C18	C	1.512509	-0.253455	0.472596
C19	C	1.372623	-0.259007	0.482903
C20	C	1.824284	-0.424211	0.435595
C21	C	1.817895	-0.502791	0.430078
C22	C	1.901812	-0.532729	0.502131
C23	C	1.895804	-0.606563	0.496949
C24	C	1.805883	-0.650458	0.419708
C25	C	1.721958	-0.620516	0.347653
C26	C	1.727961	-0.546683	0.352842
C27	C	1.783404	-0.873735	0.400313
C28	C	1.777409	-0.947573	0.395127
C29	C	1.951255	-0.933615	0.544426
C30	C	1.957255	-0.859781	0.549602
C31	C	1.873325	-0.829845	0.477552
C32	C	1.799742	-0.725929	0.414407
C33	C	1.879461	-0.754376	0.482861
C34	C	2.167759	-0.227524	0.424449
C35	C	2.307646	-0.221988	0.414171
C36	C	1.865955	-0.225289	0.776843
C37	C	1.877230	-0.218801	0.916734
C38	C	1.854803	-0.056098	0.461619
C39	C	1.861326	0.022490	0.467180
C40	C	1.813216	-0.255627	0.121570
C41	C	1.802201	-0.261907	-0.018324
H42	H	1.359032	-0.186049	0.347440
C43	C	1.700843	-0.774213	0.329425
C44	C	1.559395	-0.769332	0.350780
C45	C	1.460496	-0.817618	0.265797
C46	C	1.503044	-0.870784	0.159458
C47	C	1.644498	-0.875667	0.138099
C48	C	1.743398	-0.827382	0.223082
H49	H	1.527892	-0.729974	0.429503
H50	H	1.355782	-0.814003	0.281609
H51	H	1.429833	-0.906528	0.096549
H52	H	1.676001	-0.915026	0.059376
H53	H	1.848112	-0.830997	0.207270
H54	H	1.729343	-0.303777	0.930256
C55	C	1.303208	-0.307567	0.573055
C56	C	1.158630	-0.313245	0.583587
C57	C	1.089215	-0.361804	0.673737
C58	C	1.164377	-0.404686	0.753356
C59	C	1.308963	-0.399009	0.742827
C60	C	1.378378	-0.350450	0.652677
H61	H	1.102983	-0.281500	0.524646
H62	H	0.982182	-0.366006	0.681531
H63	H	1.112992	-0.440632	0.820091
H64	H	1.364610	-0.430754	0.801768
H65	H	1.485411	-0.346248	0.644883
H66	H	1.950101	-0.176932	0.968160
H67	H	1.975039	-0.496993	0.565023
H68	H	1.964147	-0.630934	0.555612
H69	H	2.030475	-0.824042	0.612498
H70	H	1.704179	-0.983311	0.332228
C71	C	2.043563	-0.966546	0.623688
C72	C	2.186657	-0.951132	0.603744
C73	C	2.278966	-0.984063	0.683013
C74	C	2.228180	-1.032409	0.782227
C75	C	2.085079	-1.047826	0.802176
C76	C	1.992770	-1.014894	0.722906
H77	H	2.224258	-0.915341	0.530296
H78	H	2.384899	-0.972650	0.668246
H79	H	2.296513	-1.056786	0.840908
H80	H	2.047478	-1.083616	0.875624
H81	H	1.886837	-1.026307	0.737674
C82	C	1.623045	-0.668800	0.262686
C83	C	1.665578	-0.721966	0.156338
C84	C	1.566667	-0.770249	0.071365
C85	C	1.425223	-0.765367	0.092740
C86	C	1.382683	-0.712200	0.199093
C87	C	1.481594	-0.663916	0.284066
H88	H	1.770290	-0.725582	0.140510
H89	H	1.598159	-0.809607	-0.007364
H90	H	1.352003	-0.801110	0.029839
H91	H	1.277971	-0.708584	0.214921
H92	H	1.450102	-0.624558	0.362795
H93	H	1.715067	-0.849367	0.341645
H94	H	1.659625	-0.522309	0.294170
H95	H	1.952670	-0.718634	0.545756
