data_functionalizedCrystal
_audit_creation_method	'MofGen! by Chris Wilmer'
_symmetry_space_group_name_H-M	'P1'
_symmetry_Int_Tables_number	1
_symmetry_cell_setting	triclinic
loop_
_symmetry_equiv_pos_as_xyz
  x,y,z
_cell_length_a	10.489716
_cell_length_b	10.489741
_cell_length_c	11.295483
_cell_angle_alpha	94.137284
_cell_angle_beta	85.853524
_cell_angle_gamma	84.534155
loop_
_atom_site_label
_atom_site_type_symbol
_atom_site_fract_x
_atom_site_fract_y
_atom_site_fract_z
O1	O	1.702584	0.171308	-0.099015
O2	O	2.202584	0.671308	0.400985
O3	O	1.331385	0.188233	-0.099019
O4	O	1.831385	0.688233	0.400981
O5	O	1.525431	-0.005828	-0.099010
O6	O	2.025431	0.494172	0.400990
O7	O	1.508539	0.365368	-0.099024
O8	O	2.008539	0.865368	0.400976
O9	O	1.508387	0.011190	0.099040
O10	O	2.008387	0.511190	0.599040
O11	O	1.314341	0.205251	0.099031
O12	O	1.814341	0.705251	0.599031
O13	O	1.685541	0.188326	0.099035
O14	O	2.185541	0.688326	0.599035
Cu15	Cu	1.498385	0.198342	0.117117
Cu16	Cu	1.998385	0.698342	0.617117
Cu17	Cu	1.518541	0.178216	-0.117100
Cu18	Cu	2.018541	0.678216	0.382900
O19	O	1.491495	0.382386	0.099026
O20	O	1.991495	0.882386	0.599026
C21	C	1.275331	0.195470	0.000005
C22	C	1.775331	0.695470	0.500005
C23	C	1.133700	0.191665	0.000004
C24	C	1.633700	0.691665	0.500004
C25	C	1.515633	-0.044850	0.000015
C26	C	2.015633	0.455150	0.500015
C27	C	1.511816	-0.186480	0.000012
C28	C	2.011816	0.313520	0.500012
C29	C	1.036027	0.310669	-0.000004
C30	C	1.536027	0.810669	0.499996
C31	C	0.950277	0.256176	0.097653
C32	C	1.450277	0.756176	0.597653
C33	C	0.967087	0.239369	-0.097609
C34	C	1.467087	0.739369	0.402391
C35	C	1.049809	0.137229	0.097741
C36	C	1.549809	0.637229	0.597741
C37	C	1.066632	0.120432	-0.097608
C38	C	1.566632	0.620432	0.402392
C39	C	0.980929	0.065854	0.000072
C40	C	1.480929	0.565854	0.500072
C41	C	1.388351	-0.254610	0.000002
C42	C	1.888351	0.245390	0.500002
C43	C	1.438271	-0.338346	0.097652
C44	C	1.938271	0.161654	0.597652
C45	C	1.455104	-0.355100	-0.097610
C46	C	1.955104	0.144900	0.402390
C47	C	1.561780	-0.268344	0.097743
C48	C	2.061780	0.231656	0.597743
C49	C	1.578604	-0.285095	-0.097607
C50	C	2.078604	0.214905	0.402393
C51	C	1.628612	-0.368803	0.000067
C52	C	2.128612	0.131197	0.500067
C53	C	1.741595	0.181088	0.000008
C54	C	2.241595	0.681088	0.500008
C55	C	1.883226	0.184892	0.000002
C56	C	2.383226	0.684892	0.500002
C57	C	1.501293	0.421409	-0.000001
C58	C	2.001293	0.921409	0.499999
C59	C	1.505111	0.563037	-0.000007
C60	C	2.005111	1.063037	0.499993
N61	N	1.484217	0.212497	0.281852
N62	N	1.984217	0.712497	0.781852
N63	N	1.532718	0.164051	-0.281836
N64	N	2.032718	0.664051	0.218164
C65	C	1.634703	0.062085	0.531149
C66	C	2.134703	0.562085	1.031149
C67	C	1.624006	0.072791	0.655812
C68	C	2.124006	0.572791	1.155812
C69	C	1.452120	0.244608	0.655844
C70	C	1.952120	0.744608	1.155844
C71	C	1.462817	0.233902	0.531181
C72	C	1.962817	0.733902	1.031181
C73	C	1.554113	0.142639	0.468838
C74	C	2.054113	0.642639	0.968838
C75	C	1.564816	0.131940	0.344172
C76	C	2.064816	0.631940	0.844172
C77	C	1.392925	0.303750	0.344206
C78	C	1.892925	0.803750	0.844206
C79	C	1.382228	0.314456	0.468869
C80	C	1.882228	0.814456	0.968869
H81	H	0.899690	0.313507	0.180209
H82	H	1.399690	0.813507	0.680209
O83	O	1.253882	-0.188801	0.000137
O84	O	1.753882	0.311199	0.500137
H85	H	1.257994	-0.083525	-0.000694
H86	H	1.757994	0.416475	0.499306
O87	O	1.710941	-0.014089	0.723011
O88	O	2.210941	0.485911	1.223011
H89	H	1.651810	-0.071738	0.779814
H90	H	2.151810	0.428262	1.279814
O91	O	0.948525	-0.071346	0.000155
O92	O	1.448525	0.428654	0.500155
H93	H	0.997064	-0.127903	-0.080147
H94	H	1.497064	0.372097	0.419853
O95	O	1.097747	0.080160	0.207231
O96	O	1.597747	0.580160	0.707231
H97	H	1.075262	-0.021100	0.207498
H98	H	1.575262	0.478900	0.707498
O99	O	1.353634	0.343018	0.723088
O100	O	1.853634	0.843018	1.223088
H101	H	1.372831	0.440568	0.699161
H102	H	1.872831	0.940568	1.199161
H103	H	1.060689	0.414192	0.000084
H104	H	1.560689	0.914192	0.500084
O105	O	1.359678	-0.370025	0.207012
O106	O	1.859678	0.129975	0.707012
H107	H	1.259981	-0.323886	0.206816
H108	H	1.759981	0.176114	0.706816
H109	H	1.637905	-0.261150	-0.180166
H110	H	2.137905	0.238850	0.319834
H111	H	1.307893	0.388758	0.519644
H112	H	1.807893	0.888758	1.019644
O113	O	1.395304	-0.405530	-0.206969
O114	O	1.895304	0.094470	0.293031
H115	H	1.295581	-0.359335	-0.206755
H116	H	1.795581	0.140665	0.293245
H117	H	1.709048	-0.012216	0.480388
H118	H	2.209048	0.487784	0.980388
H119	H	1.606864	-0.230415	0.180390
H120	H	2.106864	0.269585	0.680390
O121	O	1.305988	0.390631	0.276995
O122	O	1.805988	0.890631	0.776995
H123	H	1.365129	0.448260	0.220181
H124	H	1.865129	0.948260	0.720181
O125	O	1.133680	0.044541	-0.206961
O126	O	1.633680	0.544541	0.293039
H127	H	1.100600	0.087204	-0.287905
H128	H	1.600600	0.587204	0.212095
H129	H	0.930708	0.282537	-0.180158
H130	H	1.430708	0.782537	0.319842
O131	O	1.763191	-0.434298	0.000067
O132	O	2.263191	0.065702	0.500067
H133	H	1.770577	-0.488765	0.080382
H134	H	2.270577	0.011235	0.580382
O135	O	1.663271	0.033504	0.276922
O136	O	2.163271	0.533504	0.776922
H137	H	1.717501	-0.020721	0.341201
H138	H	2.217501	0.479279	0.841201
