data_functionalizedCrystal
_audit_creation_method	'MofGen! by Chris Wilmer'
_symmetry_space_group_name_H-M	'P1'
_symmetry_Int_Tables_number	1
_symmetry_cell_setting	triclinic
loop_
_symmetry_equiv_pos_as_xyz
  x,y,z
_cell_length_a	12.645330
_cell_length_b	16.120490
_cell_length_c	16.120297
_cell_angle_alpha	90.129683
_cell_angle_beta	92.876762
_cell_angle_gamma	87.110278
loop_
_atom_site_label
_atom_site_type_symbol
_atom_site_fract_x
_atom_site_fract_y
_atom_site_fract_z
Zn1	Zn	-0.537167	1.247488	-0.534565
Zn2	Zn	-0.037167	1.747488	-0.034565
Zn3	Zn	-0.705929	1.254452	-0.395517
Zn4	Zn	-0.205929	1.754452	0.104483
Zn5	Zn	-0.519244	1.115476	-0.388485
Zn6	Zn	-0.019244	1.615476	0.111515
Zn7	Zn	-0.704943	1.108408	-0.527490
Zn8	Zn	-0.204943	1.608408	-0.027490
O9	O	-0.616821	1.181456	-0.461514
O10	O	-0.116821	1.681456	0.038486
O11	O	-0.567467	1.364779	-0.522024
O12	O	-0.067467	1.864779	-0.022024
O13	O	-0.674077	1.241889	-0.278218
O14	O	-0.174077	1.741889	0.221782
O15	O	-0.373278	1.133032	-0.407881
O16	O	0.126722	1.633032	0.092119
O17	O	-0.691456	1.369896	-0.419866
O18	O	-0.191456	1.869896	0.080134
O19	O	-0.386446	1.230021	-0.515206
O20	O	0.113554	1.730021	-0.015206
O21	O	-0.536920	1.139785	-0.273052
O22	O	-0.036920	1.639785	0.226948
O23	O	-0.535964	0.998171	-0.401021
O24	O	-0.035964	1.498171	0.098979
O25	O	-0.689775	1.120984	-0.644794
O26	O	-0.189775	1.620984	-0.144794
O27	O	-0.672396	0.992978	-0.503147
O28	O	-0.172396	1.492978	-0.003147
O29	O	-0.566511	1.223166	-0.649993
O30	O	-0.066511	1.723166	-0.149993
O31	O	-0.854142	1.235035	-0.413005
O32	O	-0.354142	1.735035	0.086995
O33	O	-0.853417	1.127737	-0.509965
O34	O	-0.353417	1.627737	-0.009965
C35	C	-0.602129	0.965402	-0.450553
C36	C	-0.102129	1.465402	0.049447
C37	C	-0.595870	0.872972	-0.445884
C38	C	-0.095870	1.372972	0.054116
C39	C	-0.892246	1.181396	-0.461500
C40	C	-0.392246	1.681396	0.038500
C41	C	-1.010080	1.181445	-0.461525
C42	C	-0.510080	1.681445	0.038475
C43	C	-0.649277	0.660014	-0.485737
C44	C	-0.149277	1.160014	0.014263
C45	C	-0.584453	0.703746	-0.437358
C46	C	-0.084453	1.203746	0.062642
C47	C	-0.590807	0.797912	-0.442103
C48	C	-0.090807	1.297912	0.057897
C49	C	-0.642924	0.565839	-0.480992
C50	C	-0.142924	1.065839	0.019008
C51	C	-1.177263	1.114198	-0.522734
C52	C	-0.677263	1.614198	-0.022734
C53	C	-1.054668	1.113882	-0.522510
C54	C	-0.554668	1.613882	-0.022510
C55	C	-1.047694	1.162167	-0.372689
C56	C	-0.547694	1.662167	0.127311
C57	C	-1.170290	1.161757	-0.373060
C58	C	-0.670290	1.661757	0.126940
C59	C	-1.184529	1.268397	-0.488461
C60	C	-0.684529	1.768397	0.011539
C61	C	-1.062002	1.267760	-0.490350
C62	C	-0.562002	1.767760	0.009650
C63	C	-0.340323	1.181538	-0.461548
C64	C	0.159677	1.681538	0.038452
C65	C	-0.222496	1.181573	-0.461563
C66	C	0.277504	1.681573	0.038437
C67	C	-0.630032	1.170510	-0.678409
C68	C	-0.130032	1.670510	-0.178409
C69	C	-0.635662	1.165845	-0.770837
C70	C	-0.135662	1.665845	-0.270837
C71	C	-0.631571	1.398354	-0.472518
C72	C	-0.131571	1.898354	0.027482
C73	C	-0.637857	1.490783	-0.477208
C74	C	-0.137857	1.990783	0.022792
C75	C	-0.645915	1.157298	-0.940063
C76	C	-0.145915	1.657298	-0.440063
C77	C	-0.587420	1.205778	-0.983826
C78	C	-0.087420	1.705778	-0.483826
C79	C	-0.593125	1.201022	-1.077989
C80	C	-0.093125	1.701022	-0.577989
C81	C	-0.640212	1.162053	-0.845891
C82	C	-0.140212	1.662053	-0.345891
C83	C	-0.603587	1.192408	-0.245465
C84	C	-0.103587	1.692408	0.254535
C85	C	-0.597670	1.197233	-0.153046
C86	C	-0.097670	1.697233	0.346954
H87	H	-0.524183	0.670466	-0.392375
H88	H	-0.024183	1.170466	0.107625
H89	H	-0.709543	0.693292	-0.530715
H90	H	-0.209543	1.193292	-0.030715
H91	H	-1.029504	1.125428	-0.588242
H92	H	-0.529504	1.625428	-0.088242
Br93	Br	-1.219713	1.240390	-0.294101
Br94	Br	-0.719713	1.740390	0.205899
H95	H	-1.032101	1.320244	-0.449395
H96	H	-0.532101	1.820244	0.050605
H97	H	-1.220691	1.286851	-0.552374
H98	H	-0.720691	1.786851	-0.052374
Br99	Br	-0.496833	1.280928	-0.928410
Br100	Br	0.003167	1.780928	-0.428410
H101	H	-1.211668	1.125598	-0.588672
H102	H	-0.711668	1.625598	-0.088672
H103	H	-1.020095	1.049425	-0.504339
H104	H	-0.520095	1.549425	-0.004339
Br105	Br	-1.219961	1.007430	-0.492821
Br106	Br	-0.719961	1.507430	0.007179
Br107	Br	-1.208898	1.056193	-0.335942
Br108	Br	-0.708898	1.556193	0.164058
H109	H	-0.700276	1.112226	-0.973312
H110	H	-0.200276	1.612226	-0.473312
H111	H	-1.018584	1.209880	-0.325671
H112	H	-0.518584	1.709880	0.174329
Br113	Br	-0.987503	1.057747	-0.335052
Br114	Br	-0.487503	1.557747	0.164948
H115	H	-1.213885	1.318538	-0.443962
H116	H	-0.713885	1.818538	0.056038
Br117	Br	-1.022033	1.292129	-0.599357
Br118	Br	-0.522033	1.792129	-0.099357
