data_functionalizedCrystal
_audit_creation_method	'MofGen! by Chris Wilmer'
_symmetry_space_group_name_H-M	'P1'
_symmetry_Int_Tables_number	1
_symmetry_cell_setting	triclinic
loop_
_symmetry_equiv_pos_as_xyz
  x,y,z
_cell_length_a	12.827892
_cell_length_b	12.827893
_cell_length_c	12.827885
_cell_angle_alpha	90.020999
_cell_angle_beta	89.970024
_cell_angle_gamma	89.986589
loop_
_atom_site_label
_atom_site_type_symbol
_atom_site_fract_x
_atom_site_fract_y
_atom_site_fract_z
Zn1	Zn	-0.416038	-1.597670	-0.590895
Zn2	Zn	-0.590815	-1.597564	-0.416155
Zn3	Zn	-0.416083	-1.422911	-0.416164
Zn4	Zn	-0.590731	-1.422896	-0.590850
O5	O	-0.503417	-1.510260	-0.503516
O6	O	-0.439238	-1.743892	-0.567731
O7	O	-0.567690	-1.574357	-0.269920
O8	O	-0.269841	-1.446144	-0.439365
O9	O	-0.567647	-1.743814	-0.439350
O10	O	-0.269808	-1.574538	-0.567740
O11	O	-0.439315	-1.446041	-0.269927
O12	O	-0.439234	-1.276673	-0.439321
O13	O	-0.567504	-1.446118	-0.737092
O14	O	-0.567548	-1.276662	-0.567662
O15	O	-0.439157	-1.574524	-0.737126
O16	O	-0.737040	-1.574343	-0.439306
O17	O	-0.736978	-1.446016	-0.567654
C18	C	-0.503387	-1.238750	-0.503488
C19	C	-0.503400	-1.122597	-0.503501
C20	C	-0.566841	-1.070774	-0.439888
C21	C	-0.566855	-0.950724	-0.439899
C22	C	-0.774927	-1.510195	-0.503497
C23	C	-0.891080	-1.510262	-0.503523
C24	C	-0.942765	-1.573768	-0.567104
C25	C	-1.062815	-1.573839	-0.567133
C26	C	-0.230846	-1.510354	-0.503558
C27	C	-0.114693	-1.510394	-0.503576
C28	C	-0.503316	-1.510331	-0.776086
C29	C	-0.503274	-1.510362	-0.892240
C30	C	-0.503438	-0.782830	-0.503536
C31	C	-0.503426	-0.898983	-0.503524
C32	C	-0.439751	-1.573907	-0.944041
C33	C	-0.439705	-1.573940	-1.064091
C34	C	-0.503441	-1.510249	-0.232006
C35	C	-0.503190	-1.510422	-0.115854
H36	H	-0.449104	-0.943543	-0.557983
C37	C	-0.366231	-1.647442	-1.124263
C38	C	-0.374764	-1.766247	-1.109367
C39	C	-0.301287	-1.839751	-1.169541
C40	C	-0.219277	-1.794450	-1.244610
C41	C	-0.210741	-1.675639	-1.259509
C42	C	-0.284218	-1.602135	-1.199336
H43	H	-0.435475	-1.799786	-1.053793
H44	H	-0.307606	-1.927703	-1.158511
H45	H	-0.164885	-1.848862	-1.289155
H46	H	-0.150029	-1.642099	-1.315083
H47	H	-0.277899	-1.514183	-1.210365
C48	C	-1.122852	-1.647294	-0.640675
C49	C	-1.107863	-1.638705	-0.759476
C50	C	-1.167902	-1.712163	-0.833020
C51	C	-1.242931	-1.794208	-0.787764
C52	C	-1.257923	-1.802800	-0.668958
C53	C	-1.197884	-1.729343	-0.595413
H54	H	-1.052319	-1.577967	-0.792982
H55	H	-1.156803	-1.705802	-0.920969
H56	H	-1.287375	-1.848586	-0.842207
H57	H	-1.313467	-1.863539	-0.635451
H58	H	-1.208983	-1.735704	-0.507464
C59	C	-0.430034	-1.062480	-0.577091
C60	C	-0.475490	-0.987451	-0.658997
C61	C	-0.402122	-0.927336	-0.732591
C62	C	-0.283298	-0.942251	-0.724278
C63	C	-0.237836	-1.017284	-0.642369
C64	C	-0.311204	-1.077398	-0.568776
H65	H	-0.563456	-0.976407	-0.665154
H66	H	-0.435777	-0.871792	-0.793225
H67	H	-0.228987	-0.897751	-0.778756
H68	H	-0.149870	-1.028327	-0.636212
H69	H	-0.277550	-1.132942	-0.508141
C70	C	-0.576667	-1.436917	-1.055689
C71	C	-0.531336	-1.354936	-0.980626
C72	C	-0.604813	-1.281431	-0.920453
C73	C	-0.723620	-1.289907	-0.935342
C74	C	-0.768957	-1.371892	-1.010408
C75	C	-0.695480	-1.445396	-1.070582
H76	H	-0.443382	-1.348658	-0.969601
H77	H	-0.571251	-1.220741	-0.864884
H78	H	-0.778012	-1.235495	-0.890798
H79	H	-0.856910	-1.378169	-1.021433
H80	H	-0.729042	-1.506087	-1.126151
C81	C	-0.640235	-0.890527	-0.366320
C82	C	-0.594798	-0.815433	-0.284429
C83	C	-0.668181	-0.755234	-0.210847
C84	C	-0.787001	-0.770129	-0.219157
C85	C	-0.832444	-0.845228	-0.301052
C86	C	-0.759062	-0.905426	-0.374633
H87	H	-0.506835	-0.804403	-0.278275
H88	H	-0.634540	-0.699641	-0.150224
H89	H	-0.841323	-0.725567	-0.164688
H90	H	-0.920408	-0.856257	-0.307206
H91	H	-0.792703	-0.961019	-0.435257
H92	H	-0.898140	-1.628081	-0.621522
C93	C	-1.054663	-1.436937	-0.430031
C94	C	-0.979626	-1.482287	-0.348079
C95	C	-0.919587	-1.408830	-0.274534
C96	C	-0.934585	-1.290022	-0.282942
C97	C	-1.009625	-1.244666	-0.364898
C98	C	-1.069664	-1.318123	-0.438443
H99	H	-0.968521	-1.570242	-0.341852
H100	H	-0.864038	-1.442407	-0.213865
H101	H	-0.890140	-1.235645	-0.228500
H102	H	-1.020730	-1.156712	-0.371125
H103	H	-1.125214	-1.284546	-0.499112
H104	H	-0.385397	-1.628283	-0.899513
C105	C	-0.640208	-1.130892	-0.366299
C106	C	-0.640089	-1.250937	-0.366393
C107	C	-0.713460	-1.311051	-0.292802
C108	C	-0.786948	-1.251120	-0.219116
C109	C	-0.787069	-1.131068	-0.219019
C110	C	-0.713699	-1.070954	-0.292610
H111	H	-0.585686	-1.295308	-0.420942
H112	H	-0.713370	-1.399922	-0.292875
H113	H	-0.841261	-1.295620	-0.164640
H114	H	-0.841472	-1.086697	-0.164470
H115	H	-0.713789	-0.982083	-0.292538
H116	H	-0.935707	-1.455941	-0.449116
H117	H	-0.557617	-1.455975	-0.936767
