data_functionalizedCrystal
_audit_creation_method	'MofGen! by Chris Wilmer'
_symmetry_space_group_name_H-M	'P1'
_symmetry_Int_Tables_number	1
_symmetry_cell_setting	triclinic
loop_
_symmetry_equiv_pos_as_xyz
  x,y,z
_cell_length_a	10.685980
_cell_length_b	18.050590
_cell_length_c	10.685314
_cell_angle_alpha	94.331864
_cell_angle_beta	89.642737
_cell_angle_gamma	94.384981
loop_
_atom_site_label
_atom_site_type_symbol
_atom_site_fract_x
_atom_site_fract_y
_atom_site_fract_z
Zn1	Zn	1.863557	-0.250191	-0.856488
Zn2	Zn	1.879502	-0.364222	-0.646703
Zn3	Zn	1.669845	-0.248782	-0.630637
Zn4	Zn	1.653739	-0.383077	-0.840309
O5	O	1.766661	-0.311568	-0.743534
O6	O	2.041223	-0.258017	-0.842153
O7	O	1.865103	-0.340428	-0.469028
O8	O	1.695608	-0.145043	-0.660644
O9	O	2.052938	-0.341795	-0.688026
O10	O	1.837928	-0.146079	-0.826575
O11	O	1.711069	-0.255614	-0.457225
O12	O	1.492157	-0.273897	-0.644957
O13	O	1.668159	-0.373930	-1.017999
O14	O	1.480324	-0.372564	-0.799002
O15	O	1.822311	-0.276300	-1.029885
O16	O	1.849487	-0.470649	-0.672339
O17	O	1.683620	-0.484501	-0.814580
C18	C	1.440722	-0.325124	-0.718481
C19	C	1.301282	-0.330943	-0.707793
C20	C	1.766568	-0.504522	-0.743477
C21	C	1.766640	-0.587065	-0.743503
C22	C	1.857004	-0.778954	-0.666283
C23	C	1.878873	-0.832561	-0.783123
C24	C	1.766707	-0.738195	-0.743559
C25	C	1.744961	-0.831668	-0.626779
C26	C	1.766776	-0.884179	-0.743602
C27	C	1.788631	-0.790715	-0.860464
C28	C	1.654672	-0.789816	-0.704039
C29	C	1.676492	-0.843406	-0.820955
C30	C	1.766671	-0.654097	-0.743532
C31	C	1.766810	-0.968276	-0.743642
C32	C	2.093872	-0.297960	-0.768686
C33	C	2.233310	-0.292160	-0.779405
C34	C	1.741660	-0.327376	-1.070731
C35	C	1.731006	-0.334112	-1.210163
C36	C	1.766786	-0.117861	-0.743622
C37	C	1.766839	-0.035314	-0.743659
C38	C	1.791636	-0.295765	-0.417616
C39	C	1.802533	-0.288810	-0.278203
H40	H	1.973648	-0.851448	-0.816575
O41	O	1.885145	-0.236342	-1.220299
C42	C	1.913238	-0.128261	-1.073638
C43	C	1.819554	-0.187647	-1.139100
H44	H	1.860241	-0.088867	-1.007994
H45	H	1.983434	-0.156646	-1.017219
H46	H	1.965397	-0.095274	-1.147319
H47	H	1.767306	-0.220653	-1.065504
H48	H	1.749439	-0.159217	-1.195544
H49	H	1.806951	-0.772687	-0.959317
H50	H	1.252794	-0.368599	-0.638295
O51	O	1.291336	-0.247296	-0.862285
C52	C	1.487899	-0.200336	-0.948777
C53	C	1.422335	-0.251186	-0.854883
H54	H	1.593824	-0.203452	-0.942806
H55	H	1.454591	-0.219414	-1.047978
H56	H	1.463812	-0.140448	-0.924993
H57	H	1.446392	-0.311087	-0.878551
H58	H	1.455648	-0.232045	-0.755709
O59	O	1.648127	-0.386556	-1.267713
C60	C	1.489991	-0.486779	-1.241896
C61	C	1.583778	-0.427407	-1.176550
H62	H	1.437957	-0.519833	-1.168223
H63	H	1.419704	-0.458380	-1.298181
H64	H	1.542952	-0.526114	-1.307683
H65	H	1.530922	-0.388054	-1.110704
H66	H	1.654062	-0.455855	-1.120345
H67	H	1.726540	-0.849795	-0.528002
O68	O	1.948210	-0.745603	-0.588402
C69	C	2.116095	-0.762668	-0.446346
C70	C	2.012872	-0.800534	-0.534519
H71	H	2.168385	-0.807062	-0.402736
H72	H	2.184741	-0.726441	-0.502029
H73	H	2.071510	-0.726457	-0.368922
H74	H	2.057347	-0.836782	-0.611959
H75	H	1.944238	-0.836716	-0.478748
O76	O	1.585550	-0.876688	-0.899211
C77	C	1.505759	-0.893517	-1.110694
C78	C	1.608838	-0.855791	-1.022212
H79	H	1.524537	-0.876624	-1.210154
H80	H	1.505909	-0.956617	-1.109629
H81	H	1.410458	-0.875197	-1.077774
H82	H	1.704190	-0.874051	-1.055068
H83	H	1.608577	-0.792697	-1.023286
H84	H	1.559928	-0.770910	-0.670555
