data_functionalizedCrystal
_audit_creation_method	'MofGen! by Chris Wilmer'
_symmetry_space_group_name_H-M	'P1'
_symmetry_Int_Tables_number	1
_symmetry_cell_setting	triclinic
loop_
_symmetry_equiv_pos_as_xyz
  x,y,z
_cell_length_a	17.077404
_cell_length_b	13.031981
_cell_length_c	17.077396
_cell_angle_alpha	97.212086
_cell_angle_beta	90.019501
_cell_angle_gamma	97.191813
loop_
_atom_site_label
_atom_site_type_symbol
_atom_site_fract_x
_atom_site_fract_y
_atom_site_fract_z
Zn1	Zn	1.160414	-0.416106	0.404120
Zn2	Zn	1.143670	-0.590901	0.256168
Zn3	Zn	1.029143	-0.416143	0.272865
Zn4	Zn	1.012468	-0.590839	0.387397
O5	O	1.086424	-0.503497	0.330138
O6	O	1.268039	-0.439303	0.384505
O7	O	1.128448	-0.567761	0.148532
O8	O	1.060542	-0.269874	0.304262
O9	O	1.255737	-0.567725	0.275805
O10	O	1.156987	-0.269847	0.400695
O11	O	1.044306	-0.439366	0.160799
O12	O	0.917085	-0.439306	0.288047
O13	O	1.032123	-0.567619	0.499467
O14	O	0.904834	-0.567655	0.372194
O15	O	1.140818	-0.439243	0.511753
O16	O	1.112279	-0.737157	0.259590
O17	O	1.015886	-0.737111	0.356003
C18	C	0.882478	-0.503478	0.330118
C19	C	0.795226	-0.503495	0.330125
C20	C	1.060478	-0.775059	0.304187
C21	C	1.049450	-0.891234	0.293112
C22	C	0.747868	-0.570428	0.373851
C23	C	0.665887	-0.570430	0.373863
C24	C	0.631266	-0.503504	0.330145
C25	C	0.678631	-0.436565	0.286419
C26	C	0.760610	-0.436558	0.286411
C27	C	0.507759	-0.436585	0.286436
C28	C	0.425773	-0.436593	0.286442
C29	C	0.413036	-0.570457	0.373887
C30	C	0.495015	-0.570450	0.373880
C31	C	0.542374	-0.503512	0.330152
C32	C	1.092221	-0.942932	0.335934
C33	C	1.080824	-1.063005	0.324488
C34	C	1.291166	-0.503517	0.330158
C35	C	1.378415	-0.503525	0.330167
C36	C	1.086479	-0.503420	0.534889
C37	C	1.086502	-0.503387	0.622142
C38	C	1.112492	-0.230875	0.356207
C39	C	1.123601	-0.114700	0.367316
C40	C	1.086421	-0.503499	0.126190
C41	C	1.086578	-0.503237	0.038965
C42	C	1.143102	-0.436537	0.669532
C43	C	1.143115	-0.436502	0.751516
C44	C	1.086530	-0.503324	0.786108
C45	C	1.029924	-0.570178	0.738712
C46	C	1.029909	-0.570207	0.656731
C47	C	1.029962	-0.570115	0.909589
C48	C	1.029978	-0.570088	0.991576
C49	C	1.143168	-0.436410	1.004373
C50	C	1.143152	-0.436439	0.922392
C51	C	1.086547	-0.503294	0.875002
H52	H	0.776050	-0.624930	0.409448
N53	N	0.558843	-0.364397	0.239269
H54	H	0.597492	-0.316010	0.275848
H55	H	0.524418	-0.322072	0.211575
H56	H	1.189206	-0.382067	0.790097
H57	H	0.627331	-0.624934	0.409467
H58	H	1.189257	-0.381972	1.042963
H59	H	0.523201	-0.624953	0.409474
H60	H	0.374472	-0.624958	0.409495
H61	H	0.983901	-0.624498	1.019738
N62	N	1.151897	-0.883814	0.395727
H63	H	1.192561	-0.838503	0.368150
H64	H	1.178817	-0.934871	0.422718
H65	H	0.650436	-0.382069	0.250827
H66	H	1.004390	-0.935867	0.247980
H67	H	1.189232	-0.382032	0.894229
H68	H	0.983850	-0.624582	0.766884
H69	H	1.035762	-1.107634	0.279353
H70	H	0.983812	-0.624633	0.618148
H71	H	0.397588	-0.382084	0.250853
N72	N	1.204138	-0.364470	0.632224
H73	H	1.239994	-0.322114	0.674688
H74	H	1.176805	-0.316108	0.602828
N75	N	0.811694	-0.364360	0.239257
H76	H	0.777324	-0.321964	0.211563
H77	H	0.841638	-0.406835	0.198815
N78	N	1.183283	-1.055592	0.427112
H79	H	1.223949	-1.010283	0.399535
H80	H	1.210201	-1.106655	0.454100
H81	H	0.983857	-0.624540	0.871007
