data_functionalizedCrystal
_audit_creation_method	'MofGen! by Chris Wilmer'
_symmetry_space_group_name_H-M	'P1'
_symmetry_Int_Tables_number	1
_symmetry_cell_setting	triclinic
loop_
_symmetry_equiv_pos_as_xyz
  x,y,z
_cell_length_a	21.395364
_cell_length_b	21.395361
_cell_length_c	21.395355
_cell_angle_alpha	89.978489
_cell_angle_beta	89.974323
_cell_angle_gamma	90.024740
loop_
_atom_site_label
_atom_site_type_symbol
_atom_site_fract_x
_atom_site_fract_y
_atom_site_fract_z
Zn1	Zn	-0.957859	0.249611	0.354267
Zn2	Zn	-0.624526	0.582944	0.687600
Zn3	Zn	-0.291192	0.916278	1.020934
Zn4	Zn	-0.957761	0.354371	0.249484
Zn5	Zn	-0.624428	0.687704	0.582818
Zn6	Zn	-0.291095	1.021037	0.916151
Zn7	Zn	-0.853074	0.249600	0.249502
Zn8	Zn	-0.519741	0.582933	0.582835
Zn9	Zn	-0.186407	0.916267	0.916168
Zn10	Zn	-0.853043	0.354344	0.354222
Zn11	Zn	-0.519710	0.687677	0.687556
Zn12	Zn	-0.186376	1.021010	1.020889
O13	O	-0.905434	0.301981	0.301869
O14	O	-0.572101	0.635315	0.635202
O15	O	-0.238768	0.968648	0.968536
O16	O	-1.045524	0.263523	0.340379
O17	O	-0.712191	0.596857	0.673712
O18	O	-0.378857	0.930190	1.007045
O19	O	-0.943847	0.340479	0.161809
O20	O	-0.610513	0.673813	0.495142
O21	O	-0.277180	1.007146	0.828475
O22	O	-0.867028	0.161924	0.263425
O23	O	-0.533694	0.495257	0.596759
O24	O	-0.200361	0.828590	0.930092
O25	O	-1.045452	0.340490	0.263395
O26	O	-0.712119	0.673823	0.596729
O27	O	-0.378786	1.007157	0.930062
O28	O	-0.944013	0.161932	0.340396
O29	O	-0.610679	0.495265	0.673729
O30	O	-0.277346	0.828598	1.007063
O31	O	-0.866933	0.263505	0.161822
O32	O	-0.533600	0.596838	0.495155
O33	O	-0.200266	0.930172	0.828488
O34	O	-0.765392	0.263479	0.263382
O35	O	-0.432059	0.596812	0.596715
O36	O	-0.098725	0.930145	0.930048
O37	O	-0.866975	0.340444	0.441906
O38	O	-0.533642	0.673777	0.775239
O39	O	-0.200308	1.007110	1.108573
O40	O	-0.765369	0.340433	0.340320
O41	O	-0.432036	0.673767	0.673653
O42	O	-0.098703	1.007100	1.006986
O43	O	-0.943983	0.263497	0.441939
O44	O	-0.610650	0.596830	0.775272
O45	O	-0.277316	0.930164	1.108606
O46	O	-0.943817	0.442045	0.263352
O47	O	-0.610483	0.775378	0.596685
O48	O	-0.277150	1.108712	0.930018
O49	O	-0.866881	0.442025	0.340302
O50	O	-0.533547	0.775358	0.673636
O51	O	-0.200214	1.108692	1.006969
C52	C	-0.742647	0.301952	0.301848
C53	C	-0.409313	0.635286	0.635181
C54	C	-0.075980	0.968619	0.968515
C55	C	-0.673006	0.301955	0.301854
C56	C	-0.339672	0.635288	0.635187
C57	C	-0.006339	0.968622	0.968521
C58	C	-0.171246	0.261977	0.342013
C59	C	0.162087	0.595311	0.675347
C60	C	0.495421	0.928644	1.008680
C61	C	-0.236681	0.261975	0.342015
C62	C	0.096652	0.595308	0.675348
C63	C	0.429985	0.928641	1.008681
C64	C	-0.269367	0.301981	0.301870
C65	C	0.063966	0.635315	0.635203
C66	C	0.397299	0.968648	0.968537
C67	C	-0.236612	0.342005	0.261733
C68	C	0.096721	0.675338	0.595066
C69	C	0.430054	1.008672	0.928399
C70	C	-0.171178	0.342011	0.261737
C71	C	0.162155	0.675344	0.595070
C72	C	0.495489	1.008678	0.928404
C73	C	-0.373004	0.306836	0.245405
C74	C	-0.039670	0.640169	0.578738
C75	C	0.293663	0.973503	0.912071
C76	C	-0.438437	0.306826	0.245399
C77	C	-0.105103	0.640159	0.578733
C78	C	0.228230	0.973492	0.912066
C79	C	-0.471188	0.301966	0.301857
C80	C	-0.137855	0.635300	0.635190
C81	C	0.195479	0.968633	0.968523
C82	C	-0.438498	0.297104	0.358322
C83	C	-0.105165	0.630438	0.691655
C84	C	0.228168	0.963771	1.024988
C85	C	-0.373064	0.297110	0.358326
C86	C	-0.039731	0.630444	0.691659
C87	C	0.293603	0.963777	1.024993
C88	C	-0.340320	0.301980	0.301861
C89	C	-0.006986	0.635313	0.635194
C90	C	0.326347	0.968646	0.968528
C91	C	-0.574888	0.261945	0.341996
C92	C	-0.241554	0.595279	0.675329
C93	C	0.091779	0.928612	1.008663
C94	C	-0.640324	0.261947	0.341998
C95	C	-0.306991	0.595281	0.675332
C96	C	0.026342	0.928614	1.008665
C97	C	-0.640254	0.341974	0.261711
C98	C	-0.306920	0.675308	0.595044
C99	C	0.026413	1.008641	0.928377
C100	C	-0.574818	0.341976	0.261714
C101	C	-0.241485	0.675309	0.595047
C102	C	0.091848	1.008643	0.928381
C103	C	-0.542139	0.301958	0.301856
C104	C	-0.208806	0.635291	0.635189
C105	C	0.124527	0.968625	0.968523
C106	C	-0.905352	0.464769	0.301834
C107	C	-0.572018	0.798102	0.635167
C108	C	-0.238685	1.131436	0.968501
C109	C	-0.905374	0.534410	0.301840
C110	C	-0.572040	0.867744	0.635173
C111	C	-0.238707	1.201077	0.968507
C112	C	-0.905486	0.301969	0.465292
C113	C	-0.572153	0.635302	0.798626
C114	C	-0.238820	0.968635	1.131959
C115	C	-0.905509	0.301963	0.534933
C116	C	-0.572175	0.635297	0.868267
C117	C	-0.238842	0.968630	1.201600
C118	C	-0.068858	0.302003	0.301885
C119	C	0.264476	0.635337	0.635218
C120	C	0.597809	0.968670	0.968552
C121	C	-0.138499	0.301993	0.301879
C122	C	0.194834	0.635327	0.635212
C123	C	0.528168	0.968660	0.968546
C124	C	-0.905535	0.138558	0.301918
C125	C	-0.572201	0.471891	0.635251
C126	C	-0.238868	0.805225	0.968584
C127	C	-0.905577	0.068917	0.301938
C128	C	-0.572244	0.402250	0.635272
C129	C	-0.238911	0.735583	0.968605
C130	C	-0.945470	0.567113	0.261813
C131	C	-0.612136	0.900446	0.595146
C132	C	-0.278803	1.233780	0.928480
C133	C	-0.945499	0.632548	0.261827
C134	C	-0.612166	0.965882	0.595160
C135	C	-0.278832	1.299215	0.928494
C136	C	-0.905421	0.665279	0.301861
C137	C	-0.572087	0.998612	0.635195
C138	C	-0.238754	1.331945	0.968528
C139	C	-0.865322	0.632568	0.341896
C140	C	-0.531988	0.965901	0.675230
C141	C	-0.198655	1.299235	1.008563
C142	C	-0.865298	0.567134	0.341886
C143	C	-0.531965	0.900467	0.675219
C144	C	-0.198632	1.233800	1.008552
C145	C	-0.849006	0.768988	0.306770
C146	C	-0.515673	1.102321	0.640104
C147	C	-0.182339	1.435654	0.973437
C148	C	-0.849029	0.834421	0.306777
C149	C	-0.515695	1.167754	0.640110
C150	C	-0.182362	1.501087	0.973443
C151	C	-0.905494	0.867099	0.301898
C152	C	-0.572160	1.200433	0.635232
C153	C	-0.238827	1.533766	0.968565
C154	C	-0.961938	0.834337	0.297000
C155	C	-0.628605	1.167670	0.630334
C156	C	-0.295271	1.501003	0.963667
C157	C	-0.961915	0.768903	0.296990
C158	C	-0.628581	1.102236	0.630323
C159	C	-0.295248	1.435569	0.963656
C160	C	-0.905442	0.736231	0.301878
C161	C	-0.572109	1.069564	0.635211
C162	C	-0.238775	1.402898	0.968545
C163	C	-0.945625	0.970754	0.261884
C164	C	-0.612291	1.304088	0.595217
C165	C	-0.278958	1.637421	0.928551
C166	C	-0.945655	1.036191	0.261903
C167	C	-0.612322	1.369524	0.595236
C168	C	-0.278988	1.702858	0.928569
C169	C	-0.865472	1.036209	0.341969
C170	C	-0.532139	1.369543	0.675302
C171	C	-0.198806	1.702876	1.008636
C172	C	-0.865448	0.970774	0.341954
C173	C	-0.532114	1.304107	0.675287
C174	C	-0.198781	1.637441	1.008620
C175	C	-0.905523	0.938051	0.301908
C176	C	-0.572190	1.271384	0.635241
C177	C	-0.238856	1.604717	0.968575
C178	C	-0.905419	0.301949	0.139081
C179	C	-0.572085	0.635282	0.472415
C180	C	-0.238752	0.968615	0.805748
C181	C	-0.905518	0.301778	0.069440
C182	C	-0.572185	0.635111	0.402774
C183	C	-0.238851	0.968444	0.736107
C184	C	-0.945605	0.261895	0.567665
C185	C	-0.612271	0.595229	0.900998
C186	C	-0.278938	0.928562	1.234331
C187	C	-0.945604	0.261868	0.633100
C188	C	-0.612271	0.595202	0.966434
C189	C	-0.278937	0.928535	1.299767
C190	C	-0.905513	0.301921	0.665802
C191	C	-0.572180	0.635254	0.999135
C192	C	-0.238847	0.968587	1.332469
C193	C	-0.865409	0.341991	0.633063
C194	C	-0.532076	0.675325	0.966396
C195	C	-0.198743	1.008658	1.299729
C196	C	-0.865407	0.342013	0.567629
C197	C	-0.532074	0.675346	0.900962
C198	C	-0.198740	1.008679	1.234295
C199	C	-0.900538	0.358335	0.769464
C200	C	-0.567204	0.691669	1.102798
C201	C	-0.233871	1.025002	1.436131
C202	C	-0.900544	0.358315	0.834897
C203	C	-0.567211	0.691648	1.168231
C204	C	-0.233878	1.024982	1.501564
C205	C	-0.905517	0.301854	0.867623
C206	C	-0.572184	0.635188	1.200956
C207	C	-0.238851	0.968521	1.534289
C208	C	-0.910497	0.245412	0.834907
C209	C	-0.577163	0.578746	1.168240
C210	C	-0.243830	0.912079	1.501574
C211	C	-0.910494	0.245434	0.769473
C212	C	-0.577161	0.578767	1.102806
C213	C	-0.243828	0.912100	1.436140
C214	C	-0.905511	0.301902	0.736754
C215	C	-0.572178	0.635235	1.070088
C216	C	-0.238845	0.968568	1.403421
C217	C	-0.945615	0.261754	0.971307
C218	C	-0.612281	0.595087	1.304640
C219	C	-0.278948	0.928421	1.637973
C220	C	-0.945610	0.261726	1.036743
C221	C	-0.612276	0.595059	1.370077
C222	C	-0.278943	0.928393	1.703410
C223	C	-0.865418	0.341854	1.036704
C224	C	-0.532085	0.675188	1.370038
C225	C	-0.198752	1.008521	1.703371
C226	C	-0.865420	0.341877	0.971269
C227	C	-0.532087	0.675210	1.304602
C228	C	-0.198754	1.008543	1.637936
C229	C	-0.905522	0.301827	0.938574
C230	C	-0.572189	0.635161	1.271907
C231	C	-0.238855	0.968494	1.605241
H232	H	-0.144516	0.374598	0.229054
H233	H	0.188818	0.707931	0.562387
H234	H	0.522151	1.041265	0.895720
C235	C	-0.915966	0.183300	0.870900
C236	C	-0.582633	0.516633	1.204233
C237	C	-0.249299	0.849967	1.537567
N238	N	-0.920086	0.136519	0.898013
N239	N	-0.586753	0.469852	1.231346
N240	N	-0.253419	0.803186	1.564679
H241	H	-0.803068	0.861091	0.310759
H242	H	-0.469735	1.194424	0.644092
H243	H	-0.136401	1.527758	0.977425
C244	C	-1.024056	0.870278	0.291639
C245	C	-0.690722	1.203611	0.624972
C246	C	-0.357389	1.536945	0.958306
N247	N	-1.070841	0.897352	0.287601
N248	N	-0.737507	1.230685	0.620935
N249	N	-0.404174	1.564019	0.954268
H250	H	-0.548279	0.229361	0.374682
H251	H	-0.214946	0.562694	0.708015
H252	H	0.118388	0.896027	1.041349
C253	C	-0.336984	0.312183	0.183293
C254	C	-0.003651	0.645516	0.516626
C255	C	0.329683	0.978850	0.849960
N256	N	-0.309855	0.316211	0.136512
N257	N	0.023479	0.649544	0.469845
N258	N	0.356812	0.982877	0.803178
H259	H	-0.832753	0.374640	0.540979
H260	H	-0.499420	0.707973	0.874312
H261	H	-0.166086	1.041306	1.207646
H262	H	-0.978152	0.659180	0.229232
H263	H	-0.644819	0.992513	0.562565
H264	H	-0.311486	1.325847	0.895899
H265	H	-0.144643	0.229394	0.374703
H266	H	0.188691	0.562727	0.708036
H267	H	0.522024	0.896061	1.041369
C268	C	-0.989766	1.072164	0.217867
C269	C	-0.656433	1.405497	0.551200
C270	C	-0.323099	1.738830	0.884533
N271	N	-1.022990	1.099259	0.184696
N272	N	-0.689656	1.432592	0.518030
N273	N	-0.356323	1.765926	0.851363
H274	H	-0.896320	0.404301	0.742825
H275	H	-0.562987	0.737634	1.076158
H276	H	-0.229654	1.070967	1.409492
C277	C	-0.989720	0.217644	1.072748
C278	C	-0.656386	0.550978	1.406081
C279	C	-0.323053	0.884311	1.739414
N280	N	-1.022945	0.184442	1.099866
N281	N	-0.689612	0.517775	1.433200
N282	N	-0.356279	0.851109	1.766533
C283	C	-0.821351	0.934800	0.386000
C284	C	-0.488018	1.268133	0.719333
C285	C	-0.154684	1.601466	1.052667
N286	N	-0.788142	0.907704	0.419185
N287	N	-0.454809	1.241037	0.752519
N288	N	-0.121476	1.574371	1.085852
H289	H	-0.832766	0.374600	0.659693
H290	H	-0.499432	0.707933	0.993026
H291	H	-0.166099	1.041267	1.326359
C292	C	-0.821195	0.531160	0.385929
C293	C	-0.487862	0.864493	0.719262
C294	C	-0.154529	1.197826	1.052595
N295	N	-0.787979	0.504063	0.419105
N296	N	-0.454645	0.837397	0.752438
N297	N	-0.121312	1.170730	1.085772
H298	H	-0.978259	0.944110	0.229278
H299	H	-0.644925	1.277443	0.562612
H300	H	-0.311592	1.610776	0.895945
C301	C	-0.821319	0.385913	1.072673
C302	C	-0.487985	0.719246	1.406006
C303	C	-0.154652	1.052579	1.739339
N304	N	-0.788101	0.419098	1.099767
N305	N	-0.454768	0.752432	1.433100
N306	N	-0.121434	1.085765	1.766434
H307	H	-0.263349	0.229386	0.374696
H308	H	0.069984	0.562719	0.708030
H309	H	0.403317	0.896053	1.041363
C310	C	-0.821387	1.072209	0.386009
C311	C	-0.488053	1.405542	0.719342
C312	C	-0.154720	1.738876	1.052676
N313	N	-0.788181	1.099327	0.419182
N314	N	-0.454848	1.432660	0.752515
N315	N	-0.121515	1.765994	1.085849
C316	C	-0.786884	0.733048	0.312122
C317	C	-0.453551	1.066381	0.645455
C318	C	-0.120218	1.399715	0.978789
N319	N	-0.740095	0.705979	0.316147
N320	N	-0.406762	1.039312	0.649481
N321	N	-0.073429	1.372646	0.982814
C322	C	-0.337108	0.291755	0.420435
C323	C	-0.003775	0.625089	0.753769
C324	C	0.329559	0.958422	1.087102
N325	N	-0.310026	0.287720	0.467217
N326	N	0.023308	0.621053	0.800550
N327	N	0.356641	0.954386	1.133883
C328	C	-0.538795	0.385988	0.217553
C329	C	-0.205462	0.719322	0.550886
C330	C	0.127872	1.052655	0.884220
N331	N	-0.511663	0.419140	0.184288
N332	N	-0.178329	0.752473	0.517622
N333	N	0.155004	1.085806	0.850955
C334	C	-0.821233	0.668572	0.385932
C335	C	-0.487900	1.001906	0.719266
C336	C	-0.154567	1.335239	1.052599
N337	N	-0.788025	0.695691	0.419102
N338	N	-0.454692	1.029024	0.752436
N339	N	-0.121359	1.362358	1.085769
C340	C	-0.474389	0.312172	0.183287
C341	C	-0.141056	0.645505	0.516620
C342	C	0.192278	0.978838	0.849954
N343	N	-0.501467	0.316199	0.136502
N344	N	-0.168134	0.649532	0.469836
N345	N	0.165200	0.982865	0.803169
C346	C	-0.989709	0.217831	0.531704
C347	C	-0.656376	0.551165	0.865037
C348	C	-0.323043	0.884498	1.198371
N349	N	-1.022927	0.184639	0.504617
N350	N	-0.689593	0.517973	0.837951
N351	N	-0.356260	0.851306	1.171284
C352	C	-0.989718	0.217793	0.669112
C353	C	-0.656385	0.551126	1.002445
C354	C	-0.323052	0.884459	1.335779
N355	N	-1.022947	0.184596	0.696234
N356	N	-0.689614	0.517930	1.029567
N357	N	-0.356281	0.851263	1.362901
H358	H	-0.914547	0.199476	0.742838
H359	H	-0.581214	0.532810	1.076172
H360	H	-0.247880	0.866143	1.409505
H361	H	-0.978264	0.229140	0.944685
H362	H	-0.644931	0.562473	1.278018
H363	H	-0.311598	0.895807	1.611352
H364	H	-0.465163	0.293144	0.404295
H365	H	-0.131830	0.626478	0.737628
H366	H	0.201504	0.959811	1.070961
H367	H	-0.978103	0.540471	0.229207
H368	H	-0.644770	0.873805	0.562540
H369	H	-0.311436	1.207138	0.895874
H370	H	-0.832773	0.374508	0.944619
H371	H	-0.499440	0.707841	1.277952
H372	H	-0.166107	1.041175	1.611286
C373	C	-0.676346	0.217923	0.386151
C374	C	-0.343013	0.551256	0.719484
C375	C	-0.009679	0.884589	1.052818
N376	N	-0.703478	0.184761	0.419406
N377	N	-0.370145	0.518095	0.752739
N378	N	-0.036811	0.851428	1.086073
H379	H	-0.896494	0.404274	0.861529
H380	H	-0.563160	0.737607	1.194863
H381	H	-0.229827	1.070940	1.528196
H382	H	-0.263229	0.374580	0.229048
H383	H	0.070104	0.707914	0.562382
H384	H	0.403438	1.041247	0.895715
H385	H	-0.666866	0.374554	0.229029
H386	H	-0.333533	0.707887	0.562362
H387	H	-0.000199	1.041220	0.895696
H388	H	-1.007873	0.742229	0.293003
H389	H	-0.674540	1.075562	0.626337
H390	H	-0.341206	1.408896	0.959670
