data_functionalizedCrystal
_audit_creation_method	'MofGen! by Chris Wilmer'
_symmetry_space_group_name_H-M	'P1'
_symmetry_Int_Tables_number	1
_symmetry_cell_setting	triclinic
loop_
_symmetry_equiv_pos_as_xyz
  x,y,z
_cell_length_a	13.897449
_cell_length_b	13.897449
_cell_length_c	13.897441
_cell_angle_alpha	90.020649
_cell_angle_beta	90.014519
_cell_angle_gamma	90.007445
loop_
_atom_site_label
_atom_site_type_symbol
_atom_site_fract_x
_atom_site_fract_y
_atom_site_fract_z
Zn1	Zn	1.474783	-0.383869	0.545336
Zn2	Zn	1.474726	-0.545188	0.384063
Zn3	Zn	1.313478	-0.383922	0.384066
Zn4	Zn	1.313497	-0.545137	0.545327
O5	O	1.394121	-0.464529	0.464698
O6	O	1.609757	-0.405267	0.523946
O7	O	1.453304	-0.523839	0.249082
O8	O	1.334892	-0.248934	0.405464
O9	O	1.609715	-0.523788	0.405459
O10	O	1.453402	-0.248895	0.523949
O11	O	1.334837	-0.405358	0.249084
O12	O	1.178499	-0.405309	0.405455
O13	O	1.334923	-0.523701	0.680310
O14	O	1.178513	-0.523753	0.523933
O15	O	1.453420	-0.405218	0.680317
O16	O	1.453322	-0.680163	0.405450
O17	O	1.334867	-0.680126	0.523930
C18	C	1.143507	-0.464532	0.464694
C19	C	1.036293	-0.464556	0.464715
C20	C	1.394117	-0.715144	0.464710
C21	C	1.394203	-0.822357	0.464747
C22	C	1.645714	-0.464527	0.464703
C23	C	1.752928	-0.464526	0.464705
C24	C	1.394180	-0.464448	0.716291
C25	C	1.394205	-0.464414	0.823505
C26	C	1.949223	-0.464554	0.464709
C27	C	1.839990	-0.464542	0.464704
C28	C	1.394152	-0.212936	0.464708
C29	C	1.394165	-0.105722	0.464712
C30	C	1.394194	0.090573	0.464743
C31	C	1.394181	-0.018660	0.464729
C32	C	1.394118	-0.464540	0.214084
C33	C	1.394279	-0.464303	0.106870
C34	C	1.394225	-0.464386	0.910575
C35	C	1.394253	-0.464343	1.019808
