data_functionalizedCrystal
_audit_creation_method	'MofGen! by Chris Wilmer'
_symmetry_space_group_name_H-M	'P1'
_symmetry_Int_Tables_number	1
_symmetry_cell_setting	triclinic
loop_
_symmetry_equiv_pos_as_xyz
  x,y,z
_cell_length_a	11.792241
_cell_length_b	11.792254
_cell_length_c	7.681481
_cell_angle_alpha	84.218036
_cell_angle_beta	95.767103
_cell_angle_gamma	84.196007
loop_
_atom_site_label
_atom_site_type_symbol
_atom_site_fract_x
_atom_site_fract_y
_atom_site_fract_z
O1	O	1.496263	0.166234	-0.146261
O2	O	1.829596	0.499568	0.187073
O3	O	2.162930	0.832901	0.520406
O4	O	1.165920	0.182270	-0.146302
O5	O	1.499253	0.515604	0.187032
O6	O	1.832586	0.848937	0.520365
O7	O	1.339101	0.009082	-0.146268
O8	O	1.672435	0.342415	0.187066
O9	O	2.005768	0.675748	0.520399
O10	O	1.323081	0.339423	-0.146295
O11	O	1.656415	0.672756	0.187039
O12	O	1.989748	1.006090	0.520372
O13	O	1.360417	-0.012283	0.146594
O14	O	1.693750	0.321050	0.479927
O15	O	2.027083	0.654383	0.813261
O16	O	1.187235	0.160905	0.146560
O17	O	1.520568	0.494238	0.479893
O18	O	1.853902	0.827572	0.813227
O19	O	1.517578	0.144869	0.146601
O20	O	1.850912	0.478203	0.479935
O21	O	2.184245	0.811536	0.813268
Zn22	Zn	1.355791	0.149495	0.193079
Zn23	Zn	1.689124	0.482828	0.526412
Zn24	Zn	2.022458	0.816162	0.859745
Zn25	Zn	1.327707	0.177644	-0.192779
Zn26	Zn	1.661040	0.510978	0.140554
Zn27	Zn	1.994374	0.844311	0.473887
O28	O	1.344397	0.318058	0.146567
O29	O	1.677730	0.651391	0.479901
O30	O	2.011063	0.984724	0.813234
C31	C	1.134286	0.170581	0.000124
C32	C	1.467619	0.503914	0.333457
C33	C	1.800953	0.837248	0.666791
C34	C	1.008271	0.167568	0.000109
C35	C	1.341604	0.500901	0.333442
C36	C	1.674938	0.834234	0.666775
C37	C	0.777562	0.162021	0.000160
C38	C	1.110896	0.495354	0.333493
C39	C	1.444229	0.828688	0.666826
C40	C	0.905946	0.165103	0.000132
C41	C	1.239279	0.498436	0.333465
C42	C	1.572612	0.831769	0.666798
C43	C	1.348750	-0.043892	0.000163
C44	C	1.682083	0.289442	0.333496
C45	C	2.015417	0.622775	0.666829
C46	C	1.345730	-0.169904	0.000161
C47	C	1.679063	0.163429	0.333494
C48	C	2.012396	0.496762	0.666827
C49	C	1.343275	-0.272241	0.000154
C50	C	1.676609	0.061093	0.333487
C51	C	2.009942	0.394426	0.666821
C52	C	1.340206	-0.400626	0.000137
C53	C	1.673539	-0.067293	0.333471
C54	C	2.006872	0.266041	0.666804
C55	C	1.549212	0.156559	0.000172
C56	C	1.882545	0.489892	0.333505
C57	C	2.215878	0.823225	0.666838
C58	C	1.675226	0.159573	0.000175
C59	C	2.008559	0.492906	0.333509
C60	C	2.341893	0.826240	0.666842
C61	C	1.334748	0.371031	0.000133
C62	C	1.668081	0.704365	0.333466
C63	C	2.001415	1.037698	0.666800
C64	C	1.337767	0.497045	0.000123
C65	C	1.671101	0.830378	0.333457
C66	C	2.004434	1.163712	0.666790
N67	N	1.374966	0.130283	0.456417
N68	N	1.708299	0.463616	0.789750
N69	N	2.041633	0.796950	1.123084
N70	N	1.308541	0.196847	-0.456117
N71	N	1.641874	0.530181	-0.122784
N72	N	1.975208	0.863514	0.210549
H73	H	1.240735	0.264790	0.468672
H74	H	1.574068	0.598123	0.802006
H75	H	1.907401	0.931456	1.135339
H76	H	1.442785	0.062344	0.531636
H77	H	1.776119	0.395678	0.864969
H78	H	2.109452	0.729011	1.198303
