data_functionalizedCrystal
_audit_creation_method	'MofGen! by Chris Wilmer'
_symmetry_space_group_name_H-M	'P1'
_symmetry_Int_Tables_number	1
_symmetry_cell_setting	triclinic
loop_
_symmetry_equiv_pos_as_xyz
  x,y,z
_cell_length_a	14.560438
_cell_length_b	17.917559
_cell_length_c	14.560438
_cell_angle_alpha	89.999262
_cell_angle_beta	59.995857
_cell_angle_gamma	57.011822
loop_
_atom_site_label
_atom_site_type_symbol
_atom_site_fract_x
_atom_site_fract_y
_atom_site_fract_z
Zr1	Zr	0.920731	0.754926	-0.078298
O2	O	1.126361	0.629800	-0.231969
O3	O	0.724824	0.793283	-0.031182
O4	O	0.916436	0.793284	-0.222798
O5	O	0.934747	0.629800	0.110788
O6	O	0.901987	0.922243	-0.215574
O7	O	0.934750	0.629799	-0.040352
O8	O	0.559229	0.922241	0.127194
O9	O	1.277505	0.629801	-0.231979
O10	O	0.791019	0.905883	-0.005705
O11	O	0.801800	0.809643	0.101698
O12	O	1.027398	0.809644	-0.123906
O13	O	1.038179	0.713403	-0.016503
Zr14	Zr	0.897682	0.960602	0.174276
Zr15	Zr	0.897686	0.960601	-0.066776
Zr16	Zr	0.920727	0.754926	0.162754
Zr17	Zr	1.161788	0.754927	-0.078314
Zr18	Zr	0.656625	0.960600	0.174292
O19	O	1.093588	0.922245	0.127159
O20	O	1.093595	0.922244	-0.215586
O21	O	1.126355	0.629801	0.110776
O22	O	0.692052	1.085727	0.327947
O23	O	0.692058	1.085727	-0.014798
O24	O	0.724818	0.793283	0.311564
O25	O	0.883666	1.085728	-0.014810
O26	O	0.901977	0.922244	0.318776
O27	O	0.916426	0.793284	0.311552
O28	O	0.883663	1.085728	0.136330
O29	O	1.259187	0.793286	-0.222820
O30	O	0.559225	0.922242	0.318798
O31	O	0.540908	1.085726	0.327957
O32	O	0.540911	1.085726	0.136352
O33	O	1.277502	0.629802	-0.040374
O34	O	1.259184	0.793286	-0.031216
O35	O	0.791015	0.905884	0.219884
O36	O	0.780234	1.002125	0.112481
O37	O	1.016613	0.905885	-0.005720
O38	O	1.027394	0.809644	0.101683
C39	C	0.607681	0.857762	0.048008
C40	C	0.505346	0.857761	0.048015
C41	C	0.548522	0.786715	-0.039248
C42	C	0.452382	0.786719	-0.039276
C43	C	0.269890	0.928820	0.135231
C44	C	0.366029	0.928819	0.135254
C45	C	0.938032	0.600495	0.033576
C46	C	0.947815	0.513180	0.028685
C47	C	0.909212	0.857763	-0.253531
C48	C	0.909214	0.857763	-0.355864
C49	C	1.210732	0.857766	0.047970
C50	C	1.313067	0.857766	0.047963
C51	C	0.852744	0.362188	0.076223
C52	C	0.965663	0.353347	0.019758
C53	C	0.955729	0.442288	0.024726
C54	C	0.862675	0.273241	0.071256
C55	C	0.880381	1.115032	0.062402
C56	C	0.870598	1.202347	0.067293
C57	C	0.901255	0.928808	-0.399960
C58	C	0.901242	0.928811	-0.496105
C59	C	0.917155	0.786716	-0.504054
C60	C	0.917157	0.786718	-0.407905
C61	C	0.909201	0.857764	0.349509
C62	C	0.909199	0.857764	0.451842
C63	C	0.578856	1.115031	0.062421
C64	C	0.466738	1.202345	0.067319
C65	C	0.607676	0.857762	0.349528
C66	C	0.505339	0.857762	0.451867
C67	C	0.578850	1.115031	0.363941
C68	C	0.466730	1.202345	0.471172
C69	C	1.239563	0.600497	-0.267963
C70	C	1.351682	0.513183	-0.375194
C71	C	1.239557	0.600497	0.033557
C72	C	1.351675	0.513183	0.028659
C73	C	1.210737	0.857765	-0.253550
C74	C	1.313074	0.857766	-0.355889
C75	C	0.419716	1.193111	0.007917
C76	C	0.314383	1.275144	0.012496
C77	C	0.256068	1.366409	0.076485
C78	C	0.303099	1.375641	0.135888
C79	C	0.408437	1.293609	0.131302
C80	C	0.408449	1.293594	0.465466
C81	C	0.303113	1.375643	0.566212
C82	C	0.256054	1.366440	0.672663
C83	C	0.314346	1.275182	0.678366
C84	C	0.419686	1.193135	0.577621
C85	C	1.409975	0.421934	-0.369488
C86	C	1.515341	0.339885	-0.470234
C87	C	1.562406	0.349087	-0.576685
C88	C	1.504107	0.440346	-0.582388
C89	C	1.398750	0.522392	-0.481643
C90	C	1.398707	0.522416	0.088051
C91	C	1.504066	0.440383	0.083445
C92	C	1.562385	0.349118	0.019453
C93	C	1.515349	0.339887	-0.039946
C94	C	1.409998	0.421919	-0.035346
C95	C	0.451629	0.907997	0.561639
C96	C	0.355483	0.907986	0.657793
C97	C	0.366761	0.807502	0.534391
C98	C	0.462913	0.807508	0.438239
H99	H	0.487549	0.728866	-0.110336
O100	O	0.497402	0.962190	0.576329
H101	H	0.443906	0.997113	0.668817
H102	H	0.276104	1.267609	-0.035878
O103	O	0.520871	0.753373	0.319798
H104	H	0.496712	0.804149	0.276084
H105	H	0.330861	0.986679	0.206316
H106	H	1.648195	0.282272	-0.658709
O107	O	0.892659	1.005440	-0.543662
H108	H	0.893975	0.993513	-0.619256
H109	H	0.276014	1.267703	0.765052
O110	O	0.925744	0.710084	-0.560201
H111	H	1.021819	0.638456	-0.589779
O112	O	1.335820	0.620848	0.157071
H113	H	1.349806	0.660627	0.099850
H114	H	0.894784	0.986659	-0.357588
O115	O	1.675980	0.260653	0.014540
H116	H	1.763582	0.260714	-0.022281
O117	O	0.320998	0.753307	0.519684
H118	H	0.273961	0.782339	0.474610
H119	H	0.156450	0.986672	0.206258
O120	O	1.359232	0.411997	-0.254679
H121	H	1.417493	0.334755	-0.267655
H122	H	0.923634	0.728864	-0.371998
H123	H	1.069798	0.278982	-0.032322
H124	H	1.542441	0.447827	-0.669073
H125	H	0.467127	1.118839	0.582283
H126	H	1.562791	0.265586	-0.465568
O127	O	1.554771	0.450350	0.147530
H128	H	1.496493	0.527596	0.192817
O129	O	0.459122	1.303580	0.195399
H130	H	0.569107	1.268621	0.134016
O131	O	0.482615	1.094680	-0.061115
H132	H	0.432221	1.102057	-0.101659
H133	H	1.351289	0.596689	-0.486303
O134	O	0.297533	0.962181	0.776193
H135	H	0.343181	0.997133	0.769510
O136	O	0.142421	1.454937	0.781322
H137	H	0.109797	1.519931	0.759459
H138	H	0.446749	1.301105	0.378797
O139	O	0.142449	1.454878	0.081425
H140	H	0.174498	1.498197	0.046993
O141	O	1.578254	0.241448	-0.108965
H142	H	1.659401	0.185966	-0.102168
O143	O	1.359261	0.411955	-0.099396
H144	H	1.417511	0.334709	-0.144652
H145	H	0.661957	0.728849	-0.110278
H146	H	0.748618	0.436547	0.128290
H147	H	0.255604	1.449960	0.187986
O148	O	0.240237	1.474065	0.560049
H149	H	0.290645	1.466671	0.469099
