data_functionalizedCrystal
_audit_creation_method	'MofGen! by Chris Wilmer'
_symmetry_space_group_name_H-M	'P1'
_symmetry_Int_Tables_number	1
_symmetry_cell_setting	triclinic
loop_
_symmetry_equiv_pos_as_xyz
  x,y,z
_cell_length_a	8.559649
_cell_length_b	8.597304
_cell_length_c	9.130313
_cell_angle_alpha	82.298826
_cell_angle_beta	89.999814
_cell_angle_gamma	77.624625
loop_
_atom_site_label
_atom_site_type_symbol
_atom_site_fract_x
_atom_site_fract_y
_atom_site_fract_z
O1	O	2.119289	-0.053148	-0.115087
O2	O	1.655348	0.027752	-0.125298
O3	O	1.896450	-0.242265	-0.091220
O4	O	1.878187	0.216868	-0.149165
O5	O	1.896447	-0.242258	0.152378
O6	O	1.655346	0.027759	0.118300
O7	O	2.119286	-0.053141	0.128511
Cu8	Cu	1.887315	-0.012691	0.145648
Cu9	Cu	1.887319	-0.012699	-0.142435
O10	O	1.878184	0.216875	0.094433
C11	C	1.595913	0.033886	-0.004273
C12	C	1.418818	0.052135	-0.006577
C13	C	1.894488	-0.300496	0.037925
C14	C	1.888626	-0.474015	0.059815
C15	C	2.178722	-0.059276	0.007483
C16	C	2.355817	-0.077525	0.009777
C17	C	1.880147	0.275106	-0.034716
C18	C	1.886009	0.448626	-0.056615
N19	N	1.887325	-0.012688	0.348270
N20	N	1.887322	-0.012716	-0.345055
C21	C	1.994113	-0.132218	0.440008
C22	C	1.994108	-0.132236	0.593347
C23	C	1.780523	0.106821	0.563195
C24	C	1.780521	0.106831	0.409860
C25	C	2.117429	-0.270232	0.457416
C26	C	2.117425	-0.270250	0.610755
H27	H	1.888249	-0.484856	-0.173052
Cl28	Cl	1.885135	-0.576707	0.239598
H29	H	1.337273	0.177104	-0.022363
Cl30	Cl	2.306908	-0.253205	0.672869
Cl31	Cl	1.481719	-0.270483	0.034131
H32	H	1.693552	0.204150	0.335169
Cl33	Cl	2.074135	-0.450904	0.415948
Cl34	Cl	1.646262	0.257065	0.640633
Cl35	Cl	2.296576	-0.234318	0.379445
Cl36	Cl	2.056407	-0.438383	0.705396
