data_functionalizedCrystal
_audit_creation_method	'MofGen! by Chris Wilmer'
_symmetry_space_group_name_H-M	'P1'
_symmetry_Int_Tables_number	1
_symmetry_cell_setting	triclinic
loop_
_symmetry_equiv_pos_as_xyz
  x,y,z
_cell_length_a	21.295418
_cell_length_b	21.295417
_cell_length_c	17.077395
_cell_angle_alpha	89.969115
_cell_angle_beta	89.965068
_cell_angle_gamma	90.045515
loop_
_atom_site_label
_atom_site_type_symbol
_atom_site_fract_x
_atom_site_fract_y
_atom_site_fract_z
Zn1	Zn	0.962305	-0.250351	-0.444227
Zn2	Zn	1.295638	0.082982	-0.110894
Zn3	Zn	1.628971	0.416315	0.222440
Zn4	Zn	0.962225	-0.355622	-0.312952
Zn5	Zn	1.295558	-0.022289	0.020381
Zn6	Zn	1.628891	0.311045	0.353714
Zn7	Zn	0.857044	-0.250400	-0.312931
Zn8	Zn	1.190377	0.082934	0.020403
Zn9	Zn	1.523711	0.416267	0.353736
Zn10	Zn	0.856999	-0.355616	-0.444132
Zn11	Zn	1.190332	-0.022282	-0.110799
Zn12	Zn	1.523665	0.311051	0.222535
O13	O	0.909643	-0.302997	-0.378560
O14	O	1.242976	0.030336	-0.045227
O15	O	1.576310	0.363669	0.288106
O16	O	1.050383	-0.264298	-0.426862
O17	O	1.383717	0.069035	-0.093529
O18	O	1.717050	0.402369	0.239805
O19	O	0.948258	-0.341687	-0.203103
O20	O	1.281591	-0.008354	0.130231
O21	O	1.614924	0.324980	0.463564
O22	O	0.871059	-0.162304	-0.330378
O23	O	1.204393	0.171029	0.002955
O24	O	1.537726	0.504363	0.336289
O25	O	1.050325	-0.341640	-0.330415
O26	O	1.383658	-0.008307	0.002918
O27	O	1.716991	0.325027	0.336251
O28	O	0.948394	-0.162268	-0.426841
O29	O	1.281727	0.171065	-0.093507
O30	O	1.615061	0.504398	0.239826
O31	O	0.870982	-0.264381	-0.203087
O32	O	1.204315	0.068953	0.130247
O33	O	1.537649	0.402286	0.463580
O34	O	0.768949	-0.264374	-0.330286
O35	O	1.102282	0.068959	0.003047
O36	O	1.435615	0.402292	0.336381
O37	O	0.870982	-0.341629	-0.553991
O38	O	1.204316	-0.008296	-0.220658
O39	O	1.537649	0.325038	0.112675
O40	O	0.768915	-0.341676	-0.426679
O41	O	1.102249	-0.008343	-0.093345
O42	O	1.435582	0.324991	0.239988
O43	O	0.948350	-0.264292	-0.554061
O44	O	1.281683	0.069041	-0.220728
O45	O	1.615017	0.402375	0.112605
O46	O	0.948214	-0.443711	-0.330323
O47	O	1.281547	-0.110377	0.003010
O48	O	1.614880	0.222956	0.336344
O49	O	0.870905	-0.443706	-0.426700
O50	O	1.204238	-0.110373	-0.093367
O51	O	1.537571	0.222961	0.239967
C52	C	0.746091	-0.303030	-0.378470
C53	C	1.079425	0.030303	-0.045137
C54	C	1.412758	0.363636	0.288197
C55	C	0.676123	-0.303060	-0.378450
C56	C	1.009457	0.030274	-0.045117
C57	C	1.342790	0.363607	0.288217
C58	C	0.643256	-0.343364	-0.428567
C59	C	0.976589	-0.010031	-0.095234
C60	C	1.309922	0.323303	0.238100
C61	C	0.577513	-0.343348	-0.428602
C62	C	0.910847	-0.010015	-0.095269
C63	C	1.244180	0.323318	0.238065
C64	C	0.544641	-0.303035	-0.378507
C65	C	0.877974	0.030298	-0.045173
C66	C	1.211307	0.363631	0.288160
C67	C	0.577516	-0.262723	-0.328386
C68	C	0.910849	0.070610	0.004947
C69	C	1.244183	0.403944	0.338280
C70	C	0.643257	-0.262735	-0.328358
C71	C	0.976591	0.070598	0.004975
C72	C	1.309924	0.403931	0.338309
N73	N	0.441373	-0.298118	-0.309850
N74	N	0.774706	0.035215	0.023483
N75	N	1.108040	0.368549	0.356817
N76	N	0.378922	-0.298110	-0.309879
N77	N	0.712255	0.035223	0.023454
N78	N	1.045588	0.368557	0.356788
C79	C	0.346566	-0.302995	-0.378590
C80	C	0.679899	0.030338	-0.045256
C81	C	1.013233	0.363672	0.288077
N82	N	0.379021	-0.307901	-0.447272
N83	N	0.712354	0.025433	-0.113939
N84	N	1.045688	0.358766	0.219395
N85	N	0.441478	-0.307912	-0.447242
N86	N	0.774812	0.025422	-0.113909
N87	N	1.108145	0.358755	0.219425
C88	C	0.473355	-0.303017	-0.378532
C89	C	0.806689	0.030316	-0.045199
C90	C	1.140022	0.363649	0.288135
C91	C	0.242413	-0.343285	-0.428749
C92	C	0.575746	-0.009951	-0.095416
C93	C	0.909080	0.323382	0.237918
C94	C	0.176669	-0.343265	-0.428786
C95	C	0.510003	-0.009931	-0.095452
C96	C	0.843336	0.323402	0.237881
C97	C	0.176674	-0.262643	-0.328563
C98	C	0.510007	0.070691	0.004771
C99	C	0.843340	0.404024	0.338104
C100	C	0.242416	-0.262659	-0.328533
C101	C	0.575749	0.070674	0.004800
C102	C	0.909083	0.404007	0.338133
C103	C	0.275282	-0.302984	-0.378625
C104	C	0.608615	0.030350	-0.045292
C105	C	0.941948	0.363683	0.288041
C106	C	0.909563	-0.466549	-0.378521
C107	C	1.242896	-0.133216	-0.045187
C108	C	1.576229	0.200118	0.288146
C109	C	0.909586	-0.536517	-0.378530
C110	C	1.242919	-0.203184	-0.045197
C111	C	1.576253	0.130150	0.288137
C112	C	0.949831	-0.569308	-0.428794
C113	C	1.283164	-0.235975	-0.095461
C114	C	1.616498	0.097359	0.237873
C115	C	0.949853	-0.635050	-0.428813
C116	C	1.283187	-0.301717	-0.095480
C117	C	1.616520	0.031616	0.237853
C118	C	0.909637	-0.667999	-0.378555
C119	C	1.242970	-0.334666	-0.045221
C120	C	1.576304	-0.001333	0.288112
C121	C	0.869384	-0.635201	-0.328287
C122	C	1.202718	-0.301867	0.005046
C123	C	1.536051	0.031466	0.338380
C124	C	0.869359	-0.569459	-0.328275
C125	C	1.202692	-0.236126	0.005059
C126	C	1.536025	0.097207	0.338392
N127	N	0.904886	-0.771263	-0.309855
N128	N	1.238219	-0.437930	0.023479
N129	N	1.571553	-0.104596	0.356812
N130	N	0.904914	-0.833714	-0.309869
N131	N	1.238247	-0.500381	0.023465
N132	N	1.571581	-0.167048	0.356798
C133	C	0.909711	-0.866074	-0.378590
C134	C	1.243044	-0.532741	-0.045257
C135	C	1.576377	-0.199407	0.288076
N136	N	0.914491	-0.833623	-0.447299
N137	N	1.247824	-0.500290	-0.113966
N138	N	1.581157	-0.166956	0.219368
N139	N	0.914466	-0.771166	-0.447284
N140	N	1.247799	-0.437833	-0.113951
N141	N	1.581133	-0.104499	0.219383
C142	C	0.909660	-0.739285	-0.378563
C143	C	1.242993	-0.405951	-0.045230
C144	C	1.576327	-0.072618	0.288104
C145	C	0.949982	-0.970151	-0.428879
C146	C	1.283315	-0.636817	-0.095546
C147	C	1.616649	-0.303484	0.237787
C148	C	0.950000	-1.035894	-0.428900
C149	C	1.283333	-0.702561	-0.095567
C150	C	1.616666	-0.369228	0.237766
C151	C	0.869534	-1.036043	-0.328367
C152	C	1.202867	-0.702710	0.004966
C153	C	1.536201	-0.369376	0.338300
C154	C	0.869513	-0.970301	-0.328353
C155	C	1.202846	-0.636967	0.004980
C156	C	1.536179	-0.303634	0.338313
C157	C	0.909740	-0.937358	-0.378608
C158	C	1.243073	-0.604025	-0.045275
C159	C	1.576407	-0.270692	0.288058
C160	C	1.073833	-0.302964	-0.378652
C161	C	1.407167	0.030369	-0.045318
C162	C	1.740500	0.363702	0.288015
C163	C	1.143801	-0.302950	-0.378690
C164	C	1.477135	0.030383	-0.045357
C165	C	1.810468	0.363716	0.287976
C166	C	0.909670	-0.302954	-0.583305
C167	C	1.243003	0.030379	-0.249972
C168	C	1.576337	0.363712	0.083362
C169	C	0.909682	-0.302936	-0.670555
C170	C	1.243015	0.030397	-0.337221
C171	C	1.576348	0.363730	-0.003888
C172	C	0.909741	-0.138807	-0.378618
C173	C	1.243074	0.194526	-0.045284
C174	C	1.576407	0.527860	0.288049
C175	C	0.909782	-0.068839	-0.378642
C176	C	1.243116	0.264495	-0.045309
C177	C	1.576449	0.597828	0.288025
C178	C	0.950037	-0.262581	-1.046407
C179	C	1.283370	0.070752	-0.713074
C180	C	1.616703	0.404085	-0.379740
C181	C	0.950024	-0.262603	-0.964426
C182	C	1.283357	0.070730	-0.631093
C183	C	1.616691	0.404063	-0.297760
C184	C	0.909733	-0.302877	-0.923404
C185	C	1.243067	0.030457	-0.590070
C186	C	1.576400	0.363790	-0.256737
C187	C	0.869458	-0.343135	-0.964366
C188	C	1.202791	-0.009802	-0.631033
C189	C	1.536124	0.323532	-0.297699
C190	C	0.869474	-0.343116	-1.046345
C191	C	1.202807	-0.009782	-0.713012
C192	C	1.536141	0.323551	-0.379678
C193	C	0.869425	-0.343171	-0.793496
C194	C	1.202758	-0.009838	-0.460162
C195	C	1.536092	0.323495	-0.126829
C196	C	0.869407	-0.343190	-0.711511
C197	C	1.202741	-0.009857	-0.378178
C198	C	1.536074	0.323476	-0.044844
C199	C	0.949975	-0.262659	-0.711577
C200	C	1.283308	0.070674	-0.378244
C201	C	1.616641	0.404008	-0.044911
C202	C	0.949991	-0.262640	-0.793556
C203	C	1.283325	0.070694	-0.460223
C204	C	1.616658	0.404027	-0.126890
C205	C	0.909715	-0.302897	-0.834513
C206	C	1.243048	0.030436	-0.501179
C207	C	1.576381	0.363769	-0.167846
C208	C	0.909652	-0.302994	-0.174613
C209	C	1.242986	0.030339	0.158721
C210	C	1.576319	0.363672	0.492054
C211	C	0.909763	-0.302835	-0.087363
C212	C	1.243096	0.030498	0.245970
C213	C	1.576429	0.363831	0.579303
H214	H	0.982585	-0.542488	-0.469717
H215	H	1.315918	-0.209155	-0.136383
H216	H	1.649252	0.124179	0.196950
O217	O	0.989118	-0.938120	-0.477591
O218	O	1.322452	-0.604786	-0.144258
O219	O	1.655785	-0.271453	0.189076
C220	C	1.029779	-0.900059	-0.432962
C221	C	1.363112	-0.566726	-0.099629
C222	C	1.696446	-0.233393	0.233705
H223	H	1.033710	-0.919900	-0.371147
H224	H	1.367043	-0.586567	-0.037814
H225	H	1.700376	-0.253234	0.295519
H226	H	1.078207	-0.899244	-0.461433
H227	H	1.411540	-0.565911	-0.128100
H228	H	1.744874	-0.232577	0.205234
H229	H	1.010302	-0.850259	-0.430217
H230	H	1.343635	-0.516925	-0.096884
H231	H	1.676968	-0.183592	0.236449
H232	H	0.836638	-0.662032	-0.287368
H233	H	1.169972	-0.328698	0.045965
H234	H	1.503305	0.004635	0.379299
O235	O	0.989157	-1.067652	-0.477753
O236	O	1.322490	-0.734319	-0.144419
O237	O	1.655824	-0.400985	0.188914
C238	C	1.024645	-1.024475	-0.522114
C239	C	1.357978	-0.691142	-0.188781
C240	C	1.691312	-0.357809	0.144552
H241	H	1.026820	-0.977628	-0.489956
H242	H	1.360153	-0.644295	-0.156622
H243	H	1.693486	-0.310962	0.176711
H244	H	1.074246	-1.043408	-0.530559
H245	H	1.407579	-0.710074	-0.197226
H246	H	1.740913	-0.376741	0.136107
H247	H	1.001567	-1.017477	-0.581699
H248	H	1.334901	-0.684144	-0.248365
H249	H	1.668234	-0.350811	0.084968
H250	H	0.836655	-0.375929	-0.930959
H251	H	1.169988	-0.042596	-0.597625
H252	H	1.503322	0.290738	-0.264292
H253	H	0.149910	-0.376084	-0.469602
H254	H	0.483243	-0.042751	-0.136268
H255	H	0.816576	0.290582	0.197065
H256	H	0.836585	-0.375970	-0.678113
H257	H	1.169918	-0.042636	-0.344779
H258	H	1.503252	0.290697	-0.011446
O259	O	0.675150	-0.382462	-0.477344
O260	O	1.008484	-0.049129	-0.144011
O261	O	1.341817	0.284204	0.189322
C262	C	0.659142	-0.368793	-0.555615
C263	C	0.992475	-0.035460	-0.222282
C264	C	1.325809	0.297874	0.111051
H265	H	0.641124	-0.318504	-0.559699
H266	H	0.974457	0.014829	-0.226366
H267	H	1.307790	0.348162	0.106967
H268	H	0.702397	-0.374265	-0.594370
H269	H	1.035731	-0.040932	-0.261037
H270	H	1.369064	0.292401	0.072296
H271	H	0.620962	-0.402555	-0.576069
H272	H	0.954295	-0.069222	-0.242735
H273	H	1.287629	0.264111	0.090598
H274	H	0.836785	-1.062870	-0.287450
H275	H	1.170118	-0.729536	0.045883
H276	H	1.503452	-0.396203	0.379216
H277	H	0.982620	-0.661754	-0.469754
H278	H	1.315954	-0.328421	-0.136420
H279	H	1.649287	0.004913	0.196913
H280	H	0.149909	-0.229816	-0.287778
H281	H	0.483243	0.103517	0.045556
H282	H	0.816576	0.436851	0.378889
O283	O	0.274250	-0.223492	-0.279769
O284	O	0.607583	0.109842	0.053564
O285	O	0.940916	0.443175	0.386897
C286	C	0.231141	-0.187894	-0.235574
C287	C	0.564474	0.145439	0.097759
C288	C	0.897808	0.478773	0.431092
H289	H	0.184251	-0.213666	-0.232817
H290	H	0.517584	0.119668	0.100516
H291	H	0.850917	0.453001	0.433850
H292	H	0.250096	-0.181118	-0.173735
H293	H	0.583429	0.152215	0.159599
H294	H	0.916762	0.485549	0.492932
H295	H	0.224219	-0.140114	-0.264433
H296	H	0.557552	0.193220	0.068901
H297	H	0.890885	0.526553	0.402234
H298	H	0.836744	-0.943600	-0.287420
H299	H	1.170077	-0.610267	0.045913
H300	H	1.503411	-0.276934	0.379247
H301	H	0.550747	-0.376169	-0.469416
H302	H	0.884081	-0.042835	-0.136083
H303	H	1.217414	0.290498	0.197251
H304	H	0.982797	-0.229843	-0.826955
H305	H	1.316130	0.103490	-0.493621
H306	H	1.649463	0.436824	-0.160288
O307	O	0.989184	-0.223585	-0.671873
O308	O	1.322517	0.109749	-0.338540
O309	O	1.655850	0.443082	-0.005207
C310	C	1.051924	-0.237326	-0.691905
C311	C	1.385257	0.096008	-0.358572
C312	C	1.718590	0.429341	-0.025238
H313	H	1.053236	-0.261504	-0.751424
H314	H	1.386570	0.071830	-0.418091
H315	H	1.719903	0.405163	-0.084757
H316	H	1.080173	-0.191885	-0.694724
H317	H	1.413506	0.141449	-0.361391
H318	H	1.746839	0.474782	-0.028057
H319	H	1.073096	-0.269698	-0.645767
H320	H	1.406429	0.063635	-0.312434
H321	H	1.739762	0.396969	0.020900
H322	H	0.269174	-0.376116	-0.469541
H323	H	0.602507	-0.042783	-0.136208
H324	H	0.935840	0.290551	0.197126
O325	O	0.830245	-0.537700	-0.279369
O326	O	1.163578	-0.204367	0.053964
O327	O	1.496912	0.128966	0.387298
C328	C	0.794738	-0.580876	-0.235029
C329	C	1.128071	-0.247542	0.098304
C330	C	1.461405	0.085791	0.431638
H331	H	0.820538	-0.627711	-0.232360
H332	H	1.153872	-0.294378	0.100973
H333	H	1.487205	0.038956	0.434306
H334	H	0.788047	-0.561923	-0.173167
H335	H	1.121381	-0.228590	0.160166
H336	H	1.454714	0.104743	0.493499
H337	H	0.746917	-0.587905	-0.263703
H338	H	1.080250	-0.254571	0.069631
H339	H	1.413584	0.078762	0.402964
H340	H	0.982842	-0.229782	-1.079802
H341	H	1.316175	0.103551	-0.746468
H342	H	1.649509	0.436885	-0.413135
H343	H	0.982821	-0.229826	-0.931083
H344	H	1.316154	0.103507	-0.597750
H345	H	1.649487	0.436841	-0.264417
H346	H	0.550747	-0.229899	-0.287600
H347	H	0.884080	0.103435	0.045734
H348	H	1.217414	0.436768	0.379067
O349	O	0.830241	-0.382298	-0.833161
O350	O	1.163574	-0.048964	-0.499827
O351	O	1.496908	0.284369	-0.166494
C352	C	0.794685	-0.417858	-0.779376
C353	C	1.128018	-0.084525	-0.446043
C354	C	1.461352	0.248809	-0.112709
H355	H	0.792511	-0.392089	-0.720945
H356	H	1.125844	-0.058756	-0.387612
H357	H	1.459178	0.274578	-0.054278
H358	H	0.745088	-0.424573	-0.803038
H359	H	1.078421	-0.091240	-0.469705
H360	H	1.411755	0.242093	-0.136371
H361	H	0.817703	-0.465666	-0.770654
H362	H	1.151036	-0.132333	-0.437320
H363	H	1.484369	0.201000	-0.103987
O364	O	0.830382	-0.382305	-1.086046
O365	O	1.163715	-0.048972	-0.752713
O366	O	1.497048	0.284362	-0.419379
C367	C	0.844106	-0.445047	-1.066013
C368	C	1.177440	-0.111714	-0.732680
C369	C	1.510773	0.221620	-0.399347
H370	H	0.868291	-0.446360	-1.006501
H371	H	1.201625	-0.113027	-0.673168
H372	H	1.534958	0.220306	-0.339834
H373	H	0.798658	-0.473282	-1.063180
H374	H	1.131991	-0.139949	-0.729847
H375	H	1.465324	0.193384	-0.396514
H376	H	0.876467	-0.466233	-1.112159
H377	H	1.209801	-0.132900	-0.778826
H378	H	1.543134	0.200434	-0.445492
O379	O	0.675091	-0.223565	-0.279594
O380	O	1.008424	0.109768	0.053739
O381	O	1.341757	0.443102	0.387073
C382	C	0.631983	-0.187965	-0.235400
C383	C	0.965316	0.145368	0.097933
C384	C	1.298650	0.478702	0.431266
H385	H	0.585091	-0.213734	-0.232646
H386	H	0.918424	0.119600	0.100688
H387	H	1.251758	0.452933	0.434021
H388	H	0.650936	-0.181191	-0.173559
H389	H	0.984269	0.152142	0.159774
H390	H	1.317603	0.485475	0.493107
H391	H	0.625065	-0.140184	-0.264258
H392	H	0.958398	0.193149	0.069075
H393	H	1.291731	0.526483	0.402409
