data_functionalizedCrystal
_audit_creation_method	'MofGen! by Chris Wilmer'
_symmetry_space_group_name_H-M	'P1'
_symmetry_Int_Tables_number	1
_symmetry_cell_setting	triclinic
loop_
_symmetry_equiv_pos_as_xyz
  x,y,z
_cell_length_a	17.019282
_cell_length_b	19.188930
_cell_length_c	16.098546
_cell_angle_alpha	87.279071
_cell_angle_beta	88.846283
_cell_angle_gamma	83.267516
loop_
_atom_site_label
_atom_site_type_symbol
_atom_site_fract_x
_atom_site_fract_y
_atom_site_fract_z
O1	O	1.046079	0.089164	-0.005784
O2	O	1.379413	0.422497	0.327549
O3	O	1.712746	0.755830	0.660883
O4	O	0.817212	0.099774	0.010639
O5	O	1.150545	0.433107	0.343972
O6	O	1.483878	0.766441	0.677305
O7	O	0.938249	-0.007154	0.001937
O8	O	1.271583	0.326180	0.335271
O9	O	1.604916	0.659513	0.668604
O10	O	0.925042	0.196091	0.002917
O11	O	1.258375	0.529425	0.336251
O12	O	1.591708	0.862758	0.669584
O13	O	0.931206	-0.000910	-0.136069
O14	O	1.264539	0.332424	0.197264
O15	O	1.597873	0.665757	0.530597
O16	O	0.810168	0.106018	-0.127368
O17	O	1.143502	0.439351	0.205966
O18	O	1.476835	0.772685	0.539299
O19	O	1.039036	0.095408	-0.143790
O20	O	1.372369	0.428741	0.189543
O21	O	1.705703	0.762075	0.522876
Zn22	Zn	0.923484	0.101704	-0.157491
Zn23	Zn	1.256817	0.435038	0.175843
Zn24	Zn	1.590151	0.768371	0.509176
Zn25	Zn	0.932764	0.093477	0.024339
Zn26	Zn	1.266097	0.426811	0.357672
Zn27	Zn	1.599430	0.760144	0.691005
O28	O	0.917998	0.202335	-0.135089
O29	O	1.251332	0.535669	0.198244
O30	O	1.584665	0.869002	0.531578
C31	C	0.784409	0.102372	-0.056264
C32	C	1.117743	0.435705	0.277070
C33	C	1.451076	0.769039	0.610403
C34	C	0.697162	0.100803	-0.050004
C35	C	1.030496	0.434136	0.283329
C36	C	1.363829	0.767470	0.616663
C37	C	0.934300	-0.030045	-0.067038
C38	C	1.267633	0.303289	0.266296
C39	C	1.600966	0.636622	0.599629
C40	C	0.933015	-0.107555	-0.066953
C41	C	1.266349	0.225778	0.266381
C42	C	1.599682	0.559112	0.599714
C43	C	0.652339	0.103468	-0.122292
C44	C	0.985672	0.436801	0.211041
C45	C	1.319006	0.770134	0.544374
C46	C	0.570363	0.101982	-0.116413
C47	C	0.903696	0.435316	0.216920
C48	C	1.237030	0.768649	0.550254
C49	C	0.533211	0.097837	-0.038245
C50	C	0.866544	0.431170	0.295089
C51	C	1.199878	0.764504	0.628422
C52	C	0.578041	0.095170	0.034049
C53	C	0.911374	0.428503	0.367383
C54	C	1.244707	0.761836	0.700716
C55	C	0.660016	0.096650	0.028169
C56	C	0.993349	0.429984	0.361502
C57	C	1.326683	0.763317	0.694836
C58	C	0.285891	0.093192	-0.016727
C59	C	0.619224	0.426525	0.316606
C60	C	0.952557	0.759859	0.649940
C61	C	0.203909	0.091714	-0.010852
C62	C	0.537242	0.425047	0.322481
C63	C	0.870576	0.758380	0.655815
C64	C	0.196237	0.098525	-0.161315
C65	C	0.529570	0.431858	0.172018
C66	C	0.862904	0.765192	0.505352
C67	C	0.278214	0.100009	-0.167188
C68	C	0.611547	0.433343	0.166145
C69	C	0.944880	0.766676	0.499478
C70	C	0.323037	0.097338	-0.094895
C71	C	0.656370	0.430672	0.238439
C72	C	0.989704	0.764005	0.571772
C73	C	0.449418	0.096321	-0.032233
C74	C	0.782751	0.429654	0.301100
C75	C	1.116084	0.762987	0.634434
C76	C	0.406829	0.098850	-0.100907
C77	C	0.740163	0.432183	0.232426
C78	C	1.073496	0.765516	0.565760
C79	C	1.004037	-0.152130	-0.072053
C80	C	1.337370	0.181203	0.261280
C81	C	1.670703	0.514537	0.594614
C82	C	1.002831	-0.224960	-0.071953
C83	C	1.336164	0.108373	0.261380
C84	C	1.669497	0.441706	0.594714
C85	C	0.930599	-0.253212	-0.066769
C86	C	1.263932	0.080122	0.266564
C87	C	1.597266	0.413455	0.599897
C88	C	0.859569	-0.208627	-0.061664
C89	C	1.192902	0.124706	0.271670
C90	C	1.526235	0.458039	0.605003
C91	C	0.860777	-0.135799	-0.061756
C92	C	1.194110	0.197534	0.271578
C93	C	1.527444	0.530868	0.604911
N94	N	0.872989	-0.359363	-0.109774
N95	N	1.206323	-0.026030	0.223560
N96	N	1.539656	0.307304	0.556893
N97	N	0.871847	-0.428547	-0.109689
N98	N	1.205180	-0.095214	0.223645
N99	N	1.538513	0.238119	0.556978
C100	C	0.926955	-0.472639	-0.066491
C101	C	1.260288	-0.139306	0.266842
C102	C	1.593621	0.194028	0.600176
N103	N	0.983260	-0.444934	-0.023393
N104	N	1.316594	-0.111600	0.309941
N105	N	1.649927	0.221733	0.643274
N106	N	0.984406	-0.375743	-0.023482
N107	N	1.317739	-0.042410	0.309852
N108	N	1.651072	0.290924	0.643185
C109	C	0.929281	-0.332181	-0.066669
C110	C	1.262614	0.001152	0.266664
C111	C	1.595948	0.334486	0.599998
C112	C	0.996674	-0.596186	-0.071482
C113	C	1.330007	-0.262852	0.261851
C114	C	1.663340	0.070481	0.595185
C115	C	0.995465	-0.669017	-0.071377
C116	C	1.328798	-0.335684	0.261956
C117	C	1.662132	-0.002350	0.595290
C118	C	0.852201	-0.652682	-0.061096
C119	C	1.185534	-0.319349	0.272237
C120	C	1.518867	0.013985	0.605571
C121	C	0.853411	-0.579852	-0.061193
C122	C	1.186745	-0.246519	0.272140
C123	C	1.520078	0.086814	0.605474
C124	C	0.925650	-0.551609	-0.066390
C125	C	1.258983	-0.218275	0.266943
C126	C	1.592317	0.115058	0.600277
C127	C	1.071838	0.092810	-0.076886
C128	C	1.405172	0.426143	0.256447
C129	C	1.738505	0.759476	0.589780
C130	C	1.159086	0.094379	-0.083141
C131	C	1.492419	0.427712	0.250193
C132	C	1.825752	0.761045	0.583526
C133	C	0.921948	0.225226	-0.066112
C134	C	1.255281	0.558560	0.267221
C135	C	1.588615	0.891893	0.600554
C136	C	0.923233	0.302737	-0.066192
C137	C	1.256566	0.636070	0.267142
C138	C	1.589899	0.969403	0.600475
N139	N	0.917156	0.107319	-0.281585
N140	N	1.250490	0.440652	0.051749
N141	N	1.583823	0.773985	0.385082
C142	C	0.887712	0.133231	-0.804287
C143	C	1.221045	0.466564	-0.470954
C144	C	1.554379	0.799898	-0.137620
C145	C	0.892155	0.129317	-0.717418
C146	C	1.225489	0.462650	-0.384084
C147	C	1.558822	0.795983	-0.050751
C148	C	0.947989	0.080032	-0.677831
C149	C	1.281322	0.413366	-0.344497
C150	C	1.614655	0.746699	-0.011164
C151	C	0.999376	0.034654	-0.725117
C152	C	1.332710	0.367987	-0.391784
C153	C	1.666043	0.701321	-0.058451
C154	C	0.994929	0.038565	-0.811985
C155	C	1.328262	0.371899	-0.478651
C156	C	1.661595	0.705232	-0.145318
C157	C	0.964097	0.065852	-0.415739
C158	C	1.297430	0.399185	-0.082406
C159	C	1.630763	0.732518	0.250928
C160	C	0.968542	0.061945	-0.328865
C161	C	1.301875	0.395279	0.004468
C162	C	1.635209	0.728612	0.337802
C163	C	0.861319	0.156608	-0.321171
C164	C	1.194653	0.489941	0.012162
C165	C	1.527986	0.823274	0.345495
C166	C	0.856880	0.160517	-0.408041
C167	C	1.190213	0.493851	-0.074708
C168	C	1.523546	0.827184	0.258625
C169	C	0.908265	0.115137	-0.455320
C170	C	1.241598	0.448470	-0.121987
C171	C	1.574931	0.781803	0.211347
C172	C	0.952534	0.076032	-0.589036
C173	C	1.285867	0.409365	-0.255703
C174	C	1.619200	0.742698	0.077630
C175	C	0.903716	0.119135	-0.544113
C176	C	1.237049	0.452468	-0.210779
C177	C	1.570382	0.785801	0.122554
N178	N	0.939097	0.087858	0.148433
N179	N	1.272431	0.421191	0.481766
N180	N	1.605764	0.754524	0.815099
H181	H	0.682581	0.106849	-0.185946
H182	H	1.015914	0.440182	0.147388
H183	H	1.349248	0.773516	0.480721
H184	H	0.547786	0.091790	0.097696
H185	H	0.881119	0.425123	0.431029
H186	H	1.214452	0.758456	0.764362
H187	H	1.036771	0.001617	-0.850480
H188	H	1.370105	0.334950	-0.517147
H189	H	1.703438	0.668283	-0.183813
H190	H	0.800757	-0.231634	-0.057441
H191	H	1.134090	0.101699	0.275892
H192	H	1.467424	0.435032	0.609225
H193	H	0.533873	0.104141	-0.175278
H194	H	0.867206	0.437474	0.158055
H195	H	1.200539	0.770807	0.491388
H196	H	1.062859	-0.129139	-0.076282
H197	H	1.396192	0.204194	0.257051
H198	H	1.729525	0.537528	0.590385
H199	H	0.811416	0.200649	-0.440271
H200	H	1.144749	0.533982	-0.106938
H201	H	1.478083	0.867315	0.226396
H202	H	1.053302	-0.705310	-0.075526
H203	H	1.386635	-0.371977	0.257808
H204	H	1.719969	-0.038644	0.591141
H205	H	0.850313	0.166263	-0.678922
H206	H	1.183646	0.499596	-0.345589
H207	H	1.516979	0.832930	-0.012255
H208	H	1.005938	0.028902	-0.454227
H209	H	1.339271	0.362236	-0.120893
H210	H	1.672604	0.695569	0.212440
H211	H	0.322376	0.091015	0.042140
H212	H	0.655710	0.424348	0.375473
H213	H	0.989043	0.757681	0.708807
H214	H	0.419160	0.092945	0.031412
H215	H	0.752493	0.426279	0.364745
H216	H	1.085826	0.759612	0.698079
H217	H	1.044835	-0.005478	-0.692880
H218	H	1.378168	0.327855	-0.359547
H219	H	1.711501	0.661189	-0.026214
H220	H	0.159734	0.100698	-0.220172
H221	H	0.493067	0.434032	0.113161
H222	H	0.826400	0.767365	0.446494
H223	H	0.802941	-0.099505	-0.057602
H224	H	1.136274	0.233828	0.275731
H225	H	1.469608	0.567161	0.609064
H226	H	0.696510	0.094482	0.087034
H227	H	1.029844	0.427815	0.420367
H228	H	1.363177	0.761148	0.753701
H229	H	0.819483	0.193554	-0.282669
H230	H	1.152817	0.526887	0.050664
H231	H	1.486150	0.860220	0.383997
H232	H	1.060667	-0.261260	-0.076103
H233	H	1.394000	0.072073	0.257230
H234	H	1.727333	0.405406	0.590564
H235	H	0.308457	0.103382	-0.230841
H236	H	0.641791	0.436715	0.102492
H237	H	0.975124	0.770048	0.435825
H238	H	1.055495	-0.573188	-0.075710
H239	H	1.388828	-0.239855	0.257623
H240	H	1.722161	0.093478	0.590957
H241	H	0.793388	-0.675684	-0.056871
H242	H	1.126722	-0.342350	0.276462
H243	H	1.460055	-0.009017	0.609796
H244	H	0.437082	0.102221	-0.164551
H245	H	0.770416	0.435555	0.168782
H246	H	1.103749	0.768888	0.502115
H247	H	0.173662	0.088340	0.052805
H248	H	0.506996	0.421673	0.386139
H249	H	0.840329	0.755007	0.719472
H250	H	1.014011	0.021810	-0.296638
H251	H	1.347345	0.355143	0.036695
H252	H	1.680678	0.688476	0.370029
H253	H	0.795578	-0.543558	-0.057044
H254	H	1.128911	-0.210225	0.276289
H255	H	1.462245	0.123109	0.609622
H256	H	0.842250	0.173367	-0.836513
H257	H	1.175583	0.506700	-0.503180
H258	H	1.508917	0.840033	-0.169846
H259	H	0.858253	0.159260	-0.576347
H260	H	1.191587	0.492593	-0.243013
H261	H	1.524920	0.825926	0.090320
H262	H	0.997996	0.035904	-0.556797
H263	H	1.331329	0.369238	-0.223464
H264	H	1.664662	0.702571	0.109869
