data_functionalizedCrystal
_audit_creation_method	'MofGen! by Chris Wilmer'
_symmetry_space_group_name_H-M	'P1'
_symmetry_Int_Tables_number	1
_symmetry_cell_setting	triclinic
loop_
_symmetry_equiv_pos_as_xyz
  x,y,z
_cell_length_a	16.625547
_cell_length_b	16.625545
_cell_length_c	18.215399
_cell_angle_alpha	89.972987
_cell_angle_beta	90.023923
_cell_angle_gamma	89.976026
loop_
_atom_site_label
_atom_site_type_symbol
_atom_site_fract_x
_atom_site_fract_y
_atom_site_fract_z
Zn1	Zn	1.232665	0.321011	0.416201
Zn2	Zn	1.482665	0.571011	0.666201
Zn3	Zn	1.732665	0.821011	0.916201
Zn4	Zn	1.982665	1.071011	1.166201
Zn5	Zn	1.232566	0.455851	0.293137
Zn6	Zn	1.482566	0.705851	0.543137
Zn7	Zn	1.732566	0.955851	0.793137
Zn8	Zn	1.982566	1.205851	1.043137
Zn9	Zn	1.097828	0.321036	0.293140
Zn10	Zn	1.347828	0.571036	0.543140
Zn11	Zn	1.597828	0.821036	0.793140
Zn12	Zn	1.847828	1.071036	1.043140
Zn13	Zn	1.097793	0.455805	0.416153
Zn14	Zn	1.347793	0.705805	0.666153
Zn15	Zn	1.597793	0.955805	0.916153
Zn16	Zn	1.847793	1.205805	1.166153
O17	O	1.165213	0.388426	0.354658
O18	O	1.415213	0.638426	0.604658
O19	O	1.665213	0.888426	0.854658
O20	O	1.915213	1.138426	1.104658
O21	O	1.345484	0.338907	0.399895
O22	O	1.595484	0.588907	0.649895
O23	O	1.845484	0.838907	0.899895
O24	O	2.095484	1.088907	1.149895
O25	O	1.214667	0.437998	0.190153
O26	O	1.464667	0.687998	0.440153
O27	O	1.714667	0.937998	0.690153
O28	O	1.964667	1.187998	0.940153
O29	O	1.115771	0.208201	0.309485
O30	O	1.365771	0.458201	0.559485
O31	O	1.615771	0.708201	0.809485
O32	O	1.865771	0.958201	1.059485
O33	O	1.345412	0.437973	0.309480
O34	O	1.595412	0.687973	0.559480
O35	O	1.845412	0.937973	0.809480
O36	O	2.095412	1.187973	1.059480
O37	O	1.214834	0.208182	0.399898
O38	O	1.464834	0.458182	0.649898
O39	O	1.714834	0.708182	0.899898
O40	O	1.964834	0.958182	1.149898
O41	O	1.115675	0.338950	0.190155
O42	O	1.365675	0.588950	0.440155
O43	O	1.615675	0.838950	0.690155
O44	O	1.865675	1.088950	0.940155
O45	O	0.984991	0.338905	0.309439
O46	O	1.234991	0.588905	0.559439
O47	O	1.484991	0.838905	0.809439
O48	O	1.734991	1.088905	1.059439
O49	O	1.115710	0.437895	0.519144
O50	O	1.365710	0.687895	0.769144
O51	O	1.615710	0.937895	1.019144
O52	O	1.865710	1.187895	1.269144
O53	O	0.984965	0.437919	0.399816
O54	O	1.234965	0.687919	0.649816
O55	O	1.484965	0.937919	0.899816
O56	O	1.734965	1.187919	1.149816
O57	O	1.214800	0.338862	0.519179
O58	O	1.464800	0.588862	0.769179
O59	O	1.714800	0.838862	1.019179
O60	O	1.964800	1.088862	1.269179
O61	O	1.214632	0.568678	0.309434
O62	O	1.464632	0.818678	0.559434
O63	O	1.714632	1.068678	0.809434
O64	O	1.964632	1.318678	1.059434
O65	O	1.115615	0.568644	0.399813
O66	O	1.365615	0.818644	0.649813
O67	O	1.615615	1.068644	0.899813
O68	O	1.865615	1.318644	1.149813
C69	C	0.955722	0.388410	0.354623
C70	C	1.205722	0.638410	0.604623
C71	C	1.455722	0.888410	0.854623
C72	C	1.705722	1.138410	1.104623
C73	C	0.866101	0.388423	0.354625
C74	C	1.116101	0.638423	0.604625
C75	C	1.366101	0.888423	0.854625
C76	C	1.616101	1.138423	1.104625
C77	C	0.793319	0.388425	0.354634
C78	C	1.043319	0.638425	0.604634
C79	C	1.293319	0.888425	0.854634
C80	C	1.543319	1.138425	1.104634
C81	C	0.702010	0.388429	0.354653
C82	C	0.952010	0.638429	0.604653
C83	C	1.202010	0.888429	0.854653
C84	C	1.452010	1.138429	1.104653
C85	C	0.629234	0.388436	0.354672
C86	C	0.879234	0.638436	0.604672
C87	C	1.129234	0.888436	0.854672
C88	C	1.379234	1.138436	1.104672
C89	C	0.537920	0.388442	0.354689
C90	C	0.787920	0.638442	0.604689
C91	C	1.037920	0.888442	0.854689
C92	C	1.287920	1.138442	1.104689
C93	C	1.165131	0.597917	0.354634
C94	C	1.415131	0.847917	0.604634
C95	C	1.665131	1.097917	0.854634
C96	C	1.915131	1.347917	1.104634
C97	C	1.165170	0.687538	0.354648
C98	C	1.415170	0.937538	0.604648
C99	C	1.665170	1.187538	0.854648
C100	C	1.915170	1.437538	1.104648
C101	C	1.165301	1.015714	0.354736
C102	C	1.415301	1.265714	0.604736
C103	C	1.665301	1.515714	0.854736
C104	C	1.915301	1.765714	1.104736
C105	C	1.165262	0.924405	0.354714
C106	C	1.415262	1.174405	0.604714
C107	C	1.665262	1.424405	0.854714
C108	C	1.915262	1.674405	1.104714
C109	C	1.165235	0.851629	0.354692
C110	C	1.415235	1.101629	0.604692
C111	C	1.665235	1.351629	0.854692
C112	C	1.915235	1.601629	1.104692
C113	C	1.165197	0.760315	0.354670
C114	C	1.415197	1.010315	0.604670
C115	C	1.665197	1.260315	0.854670
C116	C	1.915197	1.510315	1.104670
C117	C	1.375522	0.388442	0.354693
C118	C	1.625522	0.638442	0.604693
C119	C	1.875522	0.888442	0.854693
C120	C	2.125522	1.138442	1.104693
C121	C	1.465143	0.388449	0.354708
C122	C	1.715143	0.638449	0.604708
C123	C	1.965143	0.888449	0.854708
C124	C	2.215143	1.138449	1.104708
C125	C	1.165262	0.388371	0.546611
C126	C	1.415262	0.638371	0.796611
C127	C	1.665262	0.888371	1.046611
C128	C	1.915262	1.138371	1.296611
C129	C	1.165283	0.388347	0.628409
C130	C	1.415283	0.638347	0.878409
C131	C	1.665283	0.888347	1.128409
C132	C	1.915283	1.138347	1.378409
C133	C	1.165311	1.178117	0.354706
C134	C	1.415311	1.428117	0.604706
C135	C	1.665311	1.678117	0.854706
C136	C	1.915311	1.928117	1.104706
C137	C	1.165335	1.088496	0.354749
C138	C	1.415335	1.338496	0.604749
C139	C	1.665335	1.588496	0.854749
C140	C	1.915335	1.838496	1.104749
C141	C	1.165211	0.388423	0.163451
C142	C	1.415211	0.638423	0.413451
C143	C	1.665211	0.888423	0.663451
C144	C	1.915211	1.138423	0.913451
C145	C	1.165346	0.388220	0.081653
C146	C	1.415346	0.638220	0.331653
C147	C	1.665346	0.888220	0.581653
C148	C	1.915346	1.138220	0.831653
C149	C	1.216898	0.336732	0.816623
C150	C	1.466898	0.586732	1.066623
C151	C	1.716898	0.836732	1.316623
C152	C	1.966898	1.086732	1.566623
C153	C	1.216907	0.336709	0.893482
C154	C	1.466907	0.586709	1.143482
C155	C	1.716907	0.836709	1.393482
C156	C	1.966907	1.086709	1.643482
C157	C	1.113726	0.439837	0.893434
C158	C	1.363726	0.689837	1.143434
C159	C	1.613726	0.939837	1.393434
C160	C	1.863726	1.189837	1.643434
C161	C	1.113713	0.439856	0.816576
C162	C	1.363713	0.689856	1.066576
C163	C	1.613713	0.939856	1.316576
C164	C	1.863713	1.189856	1.566576
C165	C	1.165303	0.388305	0.778173
C166	C	1.415303	0.638305	1.028173
C167	C	1.665303	0.888305	1.278173
C168	C	1.915303	1.138305	1.528173
C169	C	1.165326	0.388262	0.931889
C170	C	1.415326	0.638262	1.181889
C171	C	1.665326	0.888262	1.431889
C172	C	1.915326	1.138262	1.681889
C173	C	1.165336	0.388237	1.015223
C174	C	1.415336	0.638237	1.265223
C175	C	1.665336	0.888237	1.515223
C176	C	1.915336	1.138237	1.765223
C177	C	1.165292	0.388328	0.694834
C178	C	1.415292	0.638328	0.944834
C179	C	1.665292	0.888328	1.194834
C180	C	1.915292	1.138328	1.444834
H181	H	1.258904	0.294754	0.785357
H182	H	1.508904	0.544754	1.035357
H183	H	1.758904	0.794754	1.285357
H184	H	2.008904	1.044754	1.535357
H185	H	1.071724	0.481809	0.924711
H186	H	1.321724	0.731809	1.174711
H187	H	1.571724	0.981809	1.424711
H188	H	1.821724	1.231809	1.674711
H189	H	1.258919	0.294712	0.924785
H190	H	1.508919	0.544712	1.174785
H191	H	1.758919	0.794712	1.424785
H192	H	2.008919	1.044712	1.674785
Br193	Br	1.043679	0.509844	0.764389
Br194	Br	1.293679	0.759844	1.014389
Br195	Br	1.543679	1.009844	1.264389
Br196	Br	1.793679	1.259844	1.514389
