data_functionalizedCrystal
_audit_creation_method	'MofGen! by Chris Wilmer'
_symmetry_space_group_name_H-M	'P1'
_symmetry_Int_Tables_number	1
_symmetry_cell_setting	triclinic
loop_
_symmetry_equiv_pos_as_xyz
  x,y,z
_cell_length_a	16.109318
_cell_length_b	15.186229
_cell_length_c	16.109301
_cell_angle_alpha	89.995060
_cell_angle_beta	83.465022
_cell_angle_gamma	90.000053
loop_
_atom_site_label
_atom_site_type_symbol
_atom_site_fract_x
_atom_site_fract_y
_atom_site_fract_z
O1	O	1.103122	-0.073158	0.106934
O2	O	1.603122	0.426842	0.606934
O3	O	0.861062	-0.073176	0.120219
O4	O	1.361062	0.426824	0.620219
O5	O	0.988741	-0.073158	-0.007454
O6	O	1.488741	0.426842	0.492546
O7	O	0.975442	-0.073177	0.234607
O8	O	1.475442	0.426823	0.734607
O9	O	0.988732	0.073300	-0.007455
O10	O	1.488732	0.573300	0.492545
O11	O	0.861053	0.073281	0.120217
O12	O	1.361053	0.573281	0.620217
O13	O	1.103113	0.073299	0.106933
O14	O	1.603113	0.573299	0.606933
Zn15	Zn	0.982081	0.096543	0.113575
Zn16	Zn	1.482081	0.596543	0.613575
Zn17	Zn	0.982093	-0.096420	0.113577
Zn18	Zn	1.482093	0.403580	0.613577
O19	O	0.975433	0.073281	0.234606
O20	O	1.475433	0.573281	0.734606
C21	C	0.830083	0.000050	0.119677
C22	C	1.330083	0.500050	0.619677
C23	C	0.737788	0.000043	0.118057
C24	C	1.237788	0.500043	0.618057
N25	N	0.982079	0.228236	0.113574
N26	N	1.482079	0.728236	0.613574
C27	C	0.438719	-0.079774	0.112822
C28	C	0.938719	0.420226	0.612822
C29	C	0.525441	-0.079780	0.114340
C30	C	1.025441	0.420220	0.614340
C31	C	0.525450	0.079896	0.114327
C32	C	1.025450	0.579896	0.614327
C33	C	0.438731	0.079900	0.112804
C34	C	0.938731	0.579900	0.612804
C35	C	0.395367	0.000063	0.112056
C36	C	0.895367	0.500063	0.612056
C37	C	0.568807	0.000052	0.115096
C38	C	1.068807	0.500052	0.615096
C39	C	0.662835	0.000047	0.116742
C40	C	1.162835	0.500047	0.616742
C41	C	0.301334	0.000068	0.110409
C42	C	0.801334	0.500068	0.610409
C43	C	1.038634	0.453967	0.057060
C44	C	1.538634	0.953967	0.557060
C45	C	1.038637	0.546157	0.057058
C46	C	1.538637	1.046157	0.557058
C47	C	0.925538	0.546149	0.170092
C48	C	1.425538	1.046149	0.670092
C49	C	0.925532	0.453961	0.170089
C50	C	1.425532	0.953961	0.670089
C51	C	0.982085	0.407873	0.113574
C52	C	1.482085	0.907873	0.613574
C53	C	0.982093	0.592250	0.113575
C54	C	1.482093	1.092250	0.613575
C55	C	0.982095	0.692206	0.113574
C56	C	1.482095	1.192206	0.613574
C57	C	0.982082	0.307910	0.113574
C58	C	1.482082	0.807910	0.613574
C59	C	1.134092	0.000071	0.107474
C60	C	1.634092	0.500071	0.607474
C61	C	1.226387	0.000072	0.109095
C62	C	1.726387	0.500072	0.609095
N63	N	0.982099	0.771887	0.113576
N64	N	1.482099	1.271887	0.613576
C65	C	0.988198	0.000071	-0.038430
C66	C	1.488198	0.500071	0.461570
C67	C	0.986583	0.000072	-0.130725
C68	C	1.486583	0.500072	0.369275
C69	C	1.058590	0.000064	-0.352993
C70	C	1.558590	0.500064	0.147007
C71	C	1.057066	0.000057	-0.439713
C72	C	1.557066	0.500057	0.060287
C73	C	0.905579	0.000049	-0.419848
C74	C	1.405579	0.500049	0.080152
C75	C	0.907104	0.000050	-0.333130
C76	C	1.407104	0.500050	0.166870
C77	C	0.983612	0.000062	-0.299704
C78	C	1.483612	0.500062	0.200296
C79	C	0.980563	0.000053	-0.473144
C80	C	1.480563	0.500053	0.026856
C81	C	0.978910	0.000045	-0.567170
C82	C	1.478910	0.500045	-0.067170
C83	C	0.985265	0.000068	-0.205672
C84	C	1.485265	0.500068	0.294328
C85	C	0.975976	0.000050	0.265581
C86	C	1.475976	0.500050	0.765581
C87	C	0.977592	0.000043	0.357877
C88	C	1.477592	0.500043	0.857877
H89	H	0.560734	-0.144791	0.114963
H90	H	1.060734	0.355209	0.614963
O91	O	1.132855	-0.000051	-0.320423
O92	O	1.632855	0.499949	0.179577
C93	C	1.138277	-0.075913	-0.270866
C94	C	1.638277	0.424087	0.229134
H95	H	1.072743	-0.101200	-0.249248
H96	H	1.572743	0.398800	0.250752
H97	H	1.171407	-0.058854	-0.214091
H98	H	1.671407	0.441146	0.285909
H99	H	1.175065	-0.129028	-0.309184
H100	H	1.675065	0.370972	0.190816
O101	O	0.396729	-0.157404	0.112056
O102	O	0.896729	0.342596	0.612056
C103	C	0.453591	-0.227871	0.113080
C104	C	0.953591	0.272129	0.613080
H105	H	0.518856	-0.204467	0.087856
H106	H	1.018856	0.295533	0.587856
H107	H	0.433821	-0.283707	0.072305
H108	H	0.933821	0.216293	0.572305
H109	H	0.454075	-0.252419	0.179903
H110	H	0.954075	0.247581	0.679903
O111	O	0.567697	0.157367	0.115101
O112	O	1.067697	0.657367	0.615101
C113	C	0.653537	0.140246	0.116592
C114	C	1.153537	0.640246	0.616592
H115	H	0.661927	0.071631	0.143109
H116	H	1.161927	0.571631	0.643109
H117	H	0.681206	0.191230	0.157510
H118	H	1.181206	0.691230	0.657510
H119	H	0.686888	0.144032	0.050365
H120	H	1.186888	0.644032	0.550365
O121	O	0.396736	0.157538	0.112099
O122	O	0.896736	0.657538	0.612099
C123	C	0.453605	0.228004	0.113072
C124	C	0.953605	0.728004	0.613072
H125	H	0.511972	0.204600	0.140467
H126	H	1.011972	0.704600	0.640467
H127	H	0.423259	0.283841	0.152966
H128	H	0.923259	0.783841	0.652966
H129	H	0.471570	0.252551	0.046572
H130	H	0.971570	0.752551	0.546572
H131	H	1.118121	0.000056	-0.483098
H132	H	1.618121	0.500056	0.016902
H133	H	1.084682	0.416444	0.011041
H134	H	1.584682	0.916444	0.511041
O135	O	0.831335	0.000084	-0.452458
O136	O	1.331335	0.500084	0.047542
C137	C	0.846065	0.000065	-0.540426
C138	C	1.346065	0.500065	-0.040426
H139	H	0.910951	0.027793	-0.560807
H140	H	1.410951	0.527793	-0.060807
H141	H	0.797112	0.042585	-0.567042
H142	H	1.297112	0.542585	-0.067042
H143	H	0.842042	-0.070198	-0.564560
H144	H	1.342042	0.429802	-0.064560
O145	O	0.870690	0.591058	0.224962
O146	O	1.370690	1.091058	0.724962
C147	C	0.882808	0.682311	0.212836
C148	C	1.382808	1.182311	0.712836
H149	H	0.948913	0.694901	0.181783
H150	H	1.448913	1.194901	0.681783
H151	H	0.873545	0.717337	0.275798
H152	H	1.373545	1.217337	0.775798
H153	H	0.835765	0.708483	0.171122
H154	H	1.335765	1.208483	0.671122
H155	H	1.084683	0.583684	0.011039
H156	H	1.584683	1.083684	0.511039
H157	H	0.846043	0.000045	-0.289740
H158	H	1.346043	0.500045	0.210260
O159	O	0.870566	0.409316	0.225071
O160	O	1.370566	0.909316	0.725071
C161	C	0.820643	0.469761	0.274944
C162	C	1.320643	0.969761	0.774944
H163	H	0.854729	0.535474	0.275902
H164	H	1.354729	1.035474	0.775902
H165	H	0.807938	0.443112	0.341335
H166	H	1.307938	0.943112	0.841335
H167	H	0.758893	0.479573	0.247926
H168	H	1.258893	0.979573	0.747926
