data_functionalizedCrystal
_audit_creation_method	'MofGen! by Chris Wilmer'
_symmetry_space_group_name_H-M	'P1'
_symmetry_Int_Tables_number	1
_symmetry_cell_setting	triclinic
loop_
_symmetry_equiv_pos_as_xyz
  x,y,z
_cell_length_a	11.026623
_cell_length_b	16.098538
_cell_length_c	10.967829
_cell_angle_alpha	99.361770
_cell_angle_beta	83.619121
_cell_angle_gamma	86.662475
loop_
_atom_site_label
_atom_site_type_symbol
_atom_site_fract_x
_atom_site_fract_y
_atom_site_fract_z
O1	O	-1.625679	0.143097	0.514508
O2	O	-1.271216	0.134619	0.455427
O3	O	-1.454613	0.113280	0.306762
O4	O	-1.442283	0.164437	0.663174
O5	O	-1.443899	-0.023993	0.315402
O6	O	-1.260502	-0.002653	0.464068
O7	O	-1.614965	0.005825	0.523149
Zn8	Zn	-1.436032	-0.020209	0.494980
Zn9	Zn	-1.450149	0.160653	0.483596
O10	O	-1.431569	0.027165	0.671814
C11	C	-1.220434	0.064419	0.448849
C12	C	-1.085084	0.059756	0.416358
N13	N	-1.426407	-0.143643	0.502751
C14	C	-1.013036	0.072633	0.506068
C15	C	-0.873144	0.067814	0.472489
C16	C	-1.504278	-0.196280	0.439687
C17	C	-1.497556	-0.282687	0.445137
C18	C	-1.412969	-0.316453	0.513660
C19	C	-1.335090	-0.263810	0.576726
C20	C	-1.341807	-0.177406	0.571268
C21	C	-1.388621	-0.576866	0.533425
C22	C	-1.381913	-0.663277	0.538882
C23	C	-1.544378	-0.682148	0.407290
C24	C	-1.551092	-0.595741	0.401844
C25	C	-1.473209	-0.543106	0.464905
C26	C	-1.406099	-0.404774	0.519236
C27	C	-1.480073	-0.454787	0.459321
C28	C	-0.665747	0.076027	0.529726
C29	C	-0.801099	0.080693	0.562212
C30	C	-1.447549	0.037994	0.264744
C31	C	-1.442449	0.018181	0.126669
N32	N	-1.459783	0.284086	0.475817
C33	C	-1.445726	0.080459	0.060641
C34	C	-1.440455	0.059983	-0.082068
C35	C	-1.438632	0.102452	0.713832
C36	C	-1.443733	0.122271	0.851907
H37	H	-0.831267	0.053242	0.370818
H38	H	-1.450426	0.190754	-0.098980
O39	O	-1.062920	0.089898	0.627382
C40	C	-1.018857	0.027328	0.691167
H41	H	-0.987136	-0.032772	0.621775
H42	H	-0.938691	0.050690	0.740916
C43	C	-1.160828	0.082425	0.872609
C44	C	-1.121877	0.008606	0.787380
H45	H	-1.224372	0.070878	0.931962
H46	H	-1.190511	0.124581	0.829638
H47	H	-1.094013	0.101885	0.914052
H48	H	-1.188687	-0.010847	0.745928
H49	H	-1.092207	-0.033555	0.830347
O50	O	-1.620191	-0.733218	0.346177
C51	C	-1.742878	-0.705328	0.391814
H52	H	-1.747271	-0.667316	0.489648
H53	H	-1.781221	-0.663881	0.327945
C54	C	-1.813770	-0.828882	0.275622
C55	C	-1.819166	-0.782202	0.395788
H56	H	-1.860830	-0.876300	0.278069
H57	H	-1.731114	-0.847671	0.244872
H58	H	-1.845721	-0.794334	0.222411
H59	H	-1.787201	-0.816746	0.448993
H60	H	-1.901819	-0.763420	0.426548
H61	H	-0.842975	0.095281	0.663882
H62	H	-1.325207	-0.534017	0.584775
O63	O	-1.432234	-0.021736	-0.140610
C64	C	-1.324647	-0.064100	-0.115496
H65	H	-1.255844	-0.016157	-0.089065
H66	H	-1.347568	-0.099723	-0.035217
C67	C	-1.353606	-0.185903	-0.264672
C68	C	-1.269097	-0.127019	-0.232220
H69	H	-1.319342	-0.224718	-0.336670
H70	H	-1.426092	-0.157364	-0.281589
H71	H	-1.372699	-0.215580	-0.197764
H72	H	-1.250017	-0.097336	-0.299121
H73	H	-1.196606	-0.155556	-0.215316
O74	O	-1.035280	0.042452	0.295019
C75	C	-1.079290	0.105048	0.231249
H76	H	-1.170028	0.136390	0.282990
H77	H	-1.009901	0.154560	0.226233
C78	C	-0.987078	0.025705	0.034926
C79	C	-1.098530	0.064196	0.098469
H80	H	-0.998941	0.000507	-0.046981
H81	H	-0.957423	-0.016466	0.077888
H82	H	-0.929265	0.066972	0.030758
H83	H	-1.156335	0.022927	0.102650
H84	H	-1.128195	0.106359	0.055504
H85	H	-1.573163	-0.168794	0.383894
H86	H	-1.435734	-0.050298	0.077547
H87	H	-1.313028	-0.690763	0.594686
O88	O	-1.562055	-0.421936	0.392620
C89	C	-1.499133	-0.385072	0.298470
H90	H	-1.405751	-0.368090	0.325799
H91	H	-1.486435	-0.431810	0.207181
C92	C	-1.688391	-0.325466	0.248461
C93	C	-1.573701	-0.304602	0.282032
H94	H	-1.734389	-0.275830	0.238315
H95	H	-1.730784	-0.350304	0.311888
H96	H	-1.677793	-0.364416	0.172390
H97	H	-1.584300	-0.265661	0.358108
H98	H	-1.531311	-0.279755	0.218617
H99	H	-1.560964	-0.325545	0.393784
O100	O	-1.323880	-0.437696	0.585629
C101	C	-1.243493	-0.499604	0.505680
H102	H	-1.289131	-0.524901	0.420348
H103	H	-1.155834	-0.470409	0.475115
C104	C	-1.156394	-0.541422	0.679712
C105	C	-1.212452	-0.572498	0.574910
H106	H	-1.137241	-0.586386	0.722416
H107	H	-1.210549	-0.499712	0.733575
H108	H	-1.083351	-0.517093	0.654226
H109	H	-1.285500	-0.596817	0.600398
H110	H	-1.158308	-0.614215	0.521052
H111	H	-1.452428	0.148938	0.109762
H112	H	-1.619969	-0.568251	0.346047
H113	H	-1.278395	-0.134548	0.622620
H114	H	-1.266211	-0.291308	0.632514
