data_functionalizedCrystal
_audit_creation_method	'MofGen! by Chris Wilmer'
_symmetry_space_group_name_H-M	'P1'
_symmetry_Int_Tables_number	1
_symmetry_cell_setting	triclinic
loop_
_symmetry_equiv_pos_as_xyz
  x,y,z
_cell_length_a	16.109293
_cell_length_b	15.186229
_cell_length_c	10.654550
_cell_angle_alpha	90.002580
_cell_angle_beta	96.028413
_cell_angle_gamma	89.993231
loop_
_atom_site_label
_atom_site_type_symbol
_atom_site_fract_x
_atom_site_fract_y
_atom_site_fract_z
O1	O	-1.104094	0.073296	0.161372
O2	O	-0.604094	0.573296	0.661372
O3	O	-0.862151	0.073282	0.181471
O4	O	-0.362151	0.573282	0.681471
O5	O	-0.988685	0.073286	-0.011394
O6	O	-0.488685	0.573286	0.488606
O7	O	-0.977560	0.073292	0.354236
O8	O	-0.477560	0.573292	0.854236
O9	O	-0.988677	-0.073171	-0.011396
O10	O	-0.488677	0.426829	0.488604
O11	O	-0.862142	-0.073175	0.181468
O12	O	-0.362142	0.426825	0.681468
O13	O	-1.104086	-0.073161	0.161369
O14	O	-0.604086	0.426839	0.661369
Zn15	Zn	-0.983113	-0.096421	0.171418
Zn16	Zn	-0.483113	0.403579	0.671418
Zn17	Zn	-0.983124	0.096542	0.171422
Zn18	Zn	-0.483124	0.596542	0.671422
O19	O	-0.977551	-0.073165	0.354233
O20	O	-0.477551	0.426835	0.854233
C21	C	-0.831167	0.000052	0.180657
C22	C	-0.331167	0.500052	0.680657
C23	C	-0.738857	0.000047	0.178221
C24	C	-0.238857	0.500047	0.678221
N25	N	-0.983111	-0.228114	0.171415
N26	N	-0.483111	0.271886	0.671415
C27	C	-0.526477	-0.079784	0.172588
C28	C	-0.026477	0.420216	0.672588
C29	C	-0.439743	-0.079784	0.170286
C30	C	0.060257	0.420216	0.670286
C31	C	-0.439762	0.079892	0.170295
C32	C	0.060238	0.579892	0.670295
C33	C	-0.526496	0.079890	0.172588
C34	C	-0.026496	0.579890	0.672588
C35	C	-0.569850	0.000050	0.173741
C36	C	-0.069850	0.500050	0.673741
C37	C	-0.396383	0.000052	0.169146
C38	C	0.103617	0.500052	0.669146
C39	C	-0.302342	0.000053	0.166650
C40	C	0.197658	0.500053	0.666650
C41	C	-0.663897	0.000048	0.176234
C42	C	-0.163897	0.500048	0.676234
C43	C	-1.039160	-0.453835	0.086043
C44	C	-0.539160	0.046165	0.586043
C45	C	-1.039162	-0.546025	0.086040
C46	C	-0.539162	-0.046025	0.586040
C47	C	-0.927077	-0.546037	0.256791
C48	C	-0.427077	-0.046037	0.756791
C49	C	-0.927071	-0.453849	0.256786
C50	C	-0.427071	0.046151	0.756786
C51	C	-0.983117	-0.407751	0.171414
C52	C	-0.483117	0.092249	0.671414
C53	C	-0.983126	-0.592128	0.171415
C54	C	-0.483126	-0.092128	0.671415
C55	C	-0.983128	-0.692085	0.171413
C56	C	-0.483128	-0.192085	0.671413
C57	C	-0.983114	-0.307788	0.171415
C58	C	-0.483114	0.192212	0.671415
C59	C	-0.135069	0.000064	0.162195
C60	C	0.364931	0.500064	0.662195
C61	C	-0.227376	0.000055	0.164665
C62	C	0.272624	0.500055	0.664665
C63	C	-0.987864	0.000058	-0.058182
C64	C	-0.487864	0.500058	0.441818
C65	C	-0.985420	0.000061	-0.197592
C66	C	-0.485420	0.500061	0.302408
N67	N	-0.983132	0.228235	0.171415
N68	N	-0.483132	0.728235	0.671415
C69	C	-1.059921	0.000063	-0.278092
C70	C	-0.559921	0.500063	0.221908
C71	C	-1.057620	0.000069	-0.409081
C72	C	-0.557620	0.500069	0.090919
C73	C	-0.906309	0.000068	-0.379058
C74	C	-0.406309	0.500068	0.120942
C75	C	-0.908612	0.000068	-0.248072
C76	C	-0.408612	0.500068	0.251928
C77	C	-1.147280	0.000060	-0.295426
C78	C	-0.647280	0.500060	0.204574
C79	C	-1.144978	0.000066	-0.426415
C80	C	-0.644978	0.500066	0.073585
C81	C	-0.978372	0.000064	0.401022
C82	C	-0.478372	0.500064	0.901022
C83	C	-0.980816	0.000067	0.540432
C84	C	-0.480816	0.500067	1.040432
H85	H	-0.561773	-0.144796	0.173526
H86	H	-0.061773	0.355204	0.673526
C87	C	-1.184856	-0.085368	-0.247802
C88	C	-0.684856	0.414632	0.252198
N89	N	-1.213157	-0.149713	-0.211932
N90	N	-0.713157	0.350287	0.288068
H91	H	-0.404432	-0.144793	0.169347
H92	H	0.095568	0.355207	0.669347
H93	H	-0.404453	0.144896	0.169358
H94	H	0.095547	0.644896	0.669358
C95	C	-0.574210	0.167719	0.173849
C96	C	-0.074210	0.667719	0.673849
N97	N	-0.610148	0.233868	0.174794
N98	N	-0.110148	0.733868	0.674794
C99	C	-1.100805	-0.403130	-0.007878
C100	C	-0.600805	0.096870	0.492122
N101	N	-1.147236	-0.364941	-0.078627
N102	N	-0.647236	0.135059	0.421373
H103	H	-1.171383	0.063303	-0.472417
H104	H	-0.671383	0.563303	0.027583
C105	C	-1.100807	-0.596714	-0.007885
C106	C	-0.600807	-0.096714	0.492115
N107	N	-1.147238	-0.634892	-0.078638
N108	N	-0.647238	-0.134892	0.421362
H109	H	-0.881447	-0.583580	0.326300
H110	H	-0.381447	-0.083580	0.826300
C111	C	-0.865455	-0.403154	0.350763
C112	C	-0.365455	0.096846	0.850763
N113	N	-0.819060	-0.364969	0.421562
N114	N	-0.319060	0.135031	0.921562
H115	H	-0.847945	0.000079	-0.182532
H116	H	-0.347945	0.500079	0.317468
C117	C	-0.821824	0.000066	-0.434599
C118	C	-0.321824	0.500066	0.065401
N119	N	-0.758188	0.000060	-0.476431
N120	N	-0.258188	0.500060	0.023569
H121	H	-1.181452	0.061349	-0.266532
H122	H	-0.681452	0.561349	0.233468
H123	H	-1.177890	-0.061223	-0.468625
H124	H	-0.677890	0.438777	0.031375
