data_functionalizedCrystal
_audit_creation_method	'MofGen! by Chris Wilmer'
_symmetry_space_group_name_H-M	'P1'
_symmetry_Int_Tables_number	1
_symmetry_cell_setting	triclinic
loop_
_symmetry_equiv_pos_as_xyz
  x,y,z
_cell_length_a	17.000383
_cell_length_b	17.038272
_cell_length_c	15.455313
_cell_angle_alpha	92.858370
_cell_angle_beta	87.527906
_cell_angle_gamma	83.355929
loop_
_atom_site_label
_atom_site_type_symbol
_atom_site_fract_x
_atom_site_fract_y
_atom_site_fract_z
O1	O	1.061244	0.024407	-0.072191
O2	O	0.831424	0.052650	-0.072180
O3	O	0.944968	-0.075193	-0.072178
O4	O	0.947700	0.152250	-0.072192
O5	O	0.938473	-0.067911	0.072084
O6	O	0.824929	0.059932	0.072082
O7	O	1.054749	0.031689	0.072071
Cu8	Cu	0.939246	0.046476	0.085249
Cu9	Cu	0.946927	0.037863	-0.085358
O10	O	0.941206	0.159532	0.072070
C11	C	0.798626	0.057808	-0.000047
C12	C	0.710572	0.062319	-0.000043
C13	C	0.212329	0.091441	-0.000077
C14	C	0.295065	0.087197	-0.000076
C15	C	0.341071	0.013531	-0.000065
C16	C	0.304338	-0.055895	-0.000064
C17	C	0.221604	-0.051651	-0.000071
C18	C	0.591106	-0.002864	-0.000049
C19	C	0.673845	-0.007103	-0.000039
C20	C	0.664566	0.135990	-0.000053
C21	C	0.581831	0.140228	-0.000055
C22	C	0.545105	0.070802	-0.000058
C23	C	0.425640	0.009192	-0.000061
C24	C	0.460538	0.075142	-0.000068
C25	C	0.939236	-0.100510	-0.000047
C26	C	0.931823	-0.186795	-0.000047
C27	C	0.999882	-0.241570	-0.000050
C28	C	0.992912	-0.322644	-0.000057
C29	C	0.917883	-0.348941	-0.000057
C30	C	0.849820	-0.294159	-0.000057
C31	C	0.856790	-0.213087	-0.000055
C32	C	0.893258	-0.593013	-0.000068
C33	C	0.886292	-0.674091	-0.000067
C34	C	1.029385	-0.702571	-0.000069
C35	C	1.036349	-0.621496	-0.000062
C36	C	0.968286	-0.566722	-0.000067
C37	C	0.910757	-0.431811	-0.000062
C38	C	0.975413	-0.483854	-0.000067
C39	C	1.087548	0.026531	-0.000063
C40	C	1.175601	0.022020	-0.000073
C41	C	0.946938	0.184849	-0.000063
C42	C	0.954351	0.271134	-0.000069
N43	N	0.933850	0.052532	0.205244
N44	N	0.952330	0.031800	-0.205353
C45	C	0.982106	-0.001763	0.250639
C46	C	0.978033	0.002824	0.341447
C47	C	0.925706	0.061710	0.386858
C48	C	0.877444	0.116008	0.341457
C49	C	0.881514	0.111417	0.250651
C50	C	0.908138	0.081506	0.658440
C51	C	0.904073	0.086095	0.749252
C52	C	1.004661	-0.027090	0.749236
C53	C	1.008730	-0.031673	0.658428
C54	C	0.960465	0.022622	0.613034
N55	N	0.921543	0.066402	0.479679
N56	N	0.964624	0.017926	0.520216
H57	H	0.694477	0.192513	-0.000052
H58	H	0.801370	-0.168489	-0.000054
H59	H	1.097446	-0.600092	-0.000062
H60	H	1.048333	-0.367240	-0.000058
H61	H	0.191702	-0.108181	-0.000069
H62	H	1.024720	-0.049711	0.213671
H63	H	0.423077	0.135120	-0.000081
H64	H	0.463107	-0.050787	-0.000049
H65	H	1.060978	-0.220167	-0.000045
H66	H	1.084798	-0.747176	-0.000066
H67	H	0.825191	-0.695497	-0.000052
H68	H	1.017327	-0.041387	0.378407
H69	H	0.837835	-0.548424	-0.000071
H70	H	1.036502	-0.462440	-0.000087
H71	H	0.868840	0.125717	0.621488
H72	H	1.051338	-0.079623	0.621455
H73	H	0.849668	-0.453230	-0.000060
H74	H	0.788730	-0.315576	-0.000062
H75	H	1.043955	-0.071295	0.786203
H76	H	0.861460	0.134050	0.786222
H77	H	0.842218	0.155628	0.213692
H78	H	0.174876	0.151428	-0.000080
H79	H	0.324965	0.143727	-0.000087
H80	H	0.711302	-0.067093	-0.000034
H81	H	0.544378	0.200214	-0.000067
H82	H	0.834835	0.163952	0.378437
H83	H	0.341803	-0.115875	-0.000060
H84	H	0.561214	-0.059395	-0.000049
