data_functionalizedCrystal
_audit_creation_method	'MofGen! by Chris Wilmer'
_symmetry_space_group_name_H-M	'P1'
_symmetry_Int_Tables_number	1
_symmetry_cell_setting	triclinic
loop_
_symmetry_equiv_pos_as_xyz
  x,y,z
_cell_length_a	17.699083
_cell_length_b	8.559649
_cell_length_c	16.776229
_cell_angle_alpha	89.994739
_cell_angle_beta	89.998886
_cell_angle_gamma	76.530840
loop_
_atom_site_label
_atom_site_type_symbol
_atom_site_fract_x
_atom_site_fract_y
_atom_site_fract_z
O1	O	0.992507	0.202110	-0.066174
O2	O	0.770623	0.228404	-0.066200
O3	O	0.901113	-0.017421	-0.066184
O4	O	0.862017	0.447935	-0.066190
O5	O	0.901098	-0.017436	0.066393
O6	O	0.770608	0.228389	0.066377
O7	O	0.992492	0.202095	0.066403
Zn8	Zn	0.881548	0.215240	0.087439
Zn9	Zn	0.881567	0.215259	-0.087236
O10	O	0.862002	0.447920	0.066387
C11	C	0.742473	0.227455	0.000085
C12	C	0.658616	0.224628	0.000075
C13	C	0.601734	0.368922	0.000074
C14	C	0.522943	0.366257	0.000084
C15	C	0.501037	0.219296	0.000090
C16	C	0.557926	0.074990	0.000094
C17	C	0.636715	0.077657	0.000090
C18	C	0.240179	0.064231	0.000114
C19	C	0.161383	0.061575	0.000116
C20	C	0.126407	0.352831	0.000108
C21	C	0.205196	0.355498	0.000104
C22	C	0.262078	0.211193	0.000112
C23	C	0.347512	0.214085	0.000102
C24	C	0.415605	0.216402	0.000094
C25	C	0.904069	-0.076970	0.000103
C26	C	0.912888	-0.254384	0.000100
C27	C	1.020643	0.203044	0.000116
C28	C	1.104499	0.205871	0.000120
C29	C	0.859047	0.507469	0.000098
C30	C	0.850227	0.684883	0.000096
N31	N	0.881540	0.215225	0.206650
N32	N	0.881581	0.215261	-0.206447
C33	C	0.939335	0.106418	0.248374
C34	C	0.939339	0.106417	0.331827
C35	C	0.881552	0.215231	0.373553
C36	C	0.823752	0.324043	0.331823
C37	C	0.823745	0.324036	0.248372
C38	C	0.823777	0.324075	0.668370
C39	C	0.823790	0.324077	0.751827
C40	C	0.939371	0.106456	0.751824
C41	C	0.939364	0.106448	0.668374
C42	C	0.881563	0.215254	0.626651
C43	C	0.881558	0.215252	0.536163
C44	C	0.881559	0.215242	0.464040
H45	H	0.540084	-0.044668	0.000111
O46	O	0.778118	-0.215465	0.000118
C47	C	0.721630	-0.307547	0.000093
H48	H	0.748005	-0.432070	0.025201
H49	H	0.670245	-0.245751	0.038574
H50	H	0.700962	-0.319278	-0.063513
H51	H	0.973285	-0.338124	0.000113
O52	O	0.995420	0.000588	0.792393
C53	C	0.960620	-0.097882	0.840688
H54	H	0.901082	-0.100427	0.815545
H55	H	0.998892	-0.224996	0.841639
H56	H	0.953748	-0.047851	0.903932
O57	O	0.995508	0.000560	0.207968
C58	C	1.046529	-0.095450	0.262695
H59	H	1.015604	-0.097165	0.322185
H60	H	1.065497	-0.223120	0.238592
H61	H	1.099742	-0.043704	0.271560
H62	H	0.776682	0.412635	0.214401
H63	H	0.683029	-0.039842	0.000091
H64	H	0.986399	0.017817	0.365798
H65	H	0.986422	0.017847	0.634403
O66	O	0.767571	0.429836	0.792238
C67	C	0.716561	0.525893	0.737519
H68	H	0.719511	0.460369	0.678036
H69	H	0.654697	0.550418	0.761641
H70	H	0.734224	0.644565	0.728633
H71	H	0.776714	0.412671	0.634406
O72	O	0.767598	0.429525	0.372444
C73	C	0.725872	0.344057	0.420714
H74	H	0.763294	0.218915	0.433219
H75	H	0.710026	0.410801	0.479394
H76	H	0.670557	0.333342	0.388563
O77	O	0.622914	0.511784	-0.000040
C78	C	0.593031	0.599717	-0.068712
H79	H	0.540799	0.556369	-0.091599
H80	H	0.574332	0.732850	-0.053271
H81	H	0.639796	0.581041	-0.116795
O82	O	0.467588	0.506277	0.000107
C83	C	0.393349	0.472418	0.000093
H84	H	0.397617	0.346904	0.025207
H85	H	0.352234	0.564424	0.038574
H86	H	0.370163	0.478547	-0.063511
O87	O	0.226341	0.498396	0.000134
C88	C	0.159239	0.625186	0.000116
H89	H	0.108202	0.580591	0.025218
H90	H	0.169773	0.727802	0.038605
H91	H	0.145479	0.669692	-0.063488
O92	O	0.071050	0.492866	0.000143
C93	C	-0.003190	0.459011	0.000132
H94	H	0.001079	0.333491	0.025239
H95	H	-0.044301	0.551009	0.038620
H96	H	-0.026382	0.465158	-0.063470
H97	H	0.143552	-0.058106	0.000123
H98	H	0.286484	-0.053271	0.000122
