data_functionalizedCrystal
_audit_creation_method	'MofGen! by Chris Wilmer'
_symmetry_space_group_name_H-M	'P1'
_symmetry_Int_Tables_number	1
_symmetry_cell_setting	triclinic
loop_
_symmetry_equiv_pos_as_xyz
  x,y,z
_cell_length_a	12.759401
_cell_length_b	13.897448
_cell_length_c	12.759393
_cell_angle_alpha	90.033397
_cell_angle_beta	90.018702
_cell_angle_gamma	90.016778
loop_
_atom_site_label
_atom_site_type_symbol
_atom_site_fract_x
_atom_site_fract_y
_atom_site_fract_z
Zn1	Zn	1.606233	-0.383981	0.593975
Zn2	Zn	1.606118	-0.545311	0.418290
Zn3	Zn	1.430535	-0.384029	0.418314
Zn4	Zn	1.430515	-0.545233	0.593931
O5	O	1.518350	-0.464638	0.506127
O6	O	1.753239	-0.405394	0.570679
O7	O	1.582788	-0.523969	0.271272
O8	O	1.453899	-0.249041	0.441644
O9	O	1.753155	-0.523922	0.441604
O10	O	1.582983	-0.249006	0.570702
O11	O	1.453787	-0.405475	0.271290
O12	O	1.283511	-0.405400	0.441601
O13	O	1.453863	-0.523790	0.740958
O14	O	1.283496	-0.523837	0.570626
O15	O	1.582963	-0.405319	0.740990
O16	O	1.582767	-0.680282	0.441560
O17	O	1.453752	-0.680225	0.570603
C18	C	1.245383	-0.464616	0.506112
C19	C	1.128606	-0.464630	0.506130
C20	C	0.964052	-0.403046	0.573451
C21	C	1.073776	-0.403027	0.573444
C22	C	1.073707	-0.526262	0.438827
C23	C	0.963985	-0.526285	0.438840
C24	C	1.518274	-0.715253	0.506097
C25	C	1.518337	-0.822467	0.506119
C26	C	1.518447	-1.018762	0.506185
C27	C	1.518383	-0.909529	0.506152
C28	C	1.792384	-0.464662	0.506144
C29	C	1.909160	-0.464672	0.506150
C30	C	1.518424	-0.464541	0.780161
C31	C	1.518455	-0.464499	0.896938
C32	C	1.518456	-0.213045	0.506181
C33	C	1.518501	-0.105831	0.506204
C34	C	1.518338	-0.464666	0.233160
C35	C	1.518510	-0.464436	0.116384
C36	C	1.451309	-0.402789	0.951808
C37	C	1.451333	-0.402759	1.061532
C38	C	1.585659	-0.526153	1.061506
C39	C	1.585629	-0.526187	0.951783
H40	H	0.919291	-0.576474	0.384035
H41	H	1.396655	-0.352509	1.106203
O42	O	1.650879	-0.585978	1.114947
C43	C	1.710416	-0.640654	1.283968
C44	C	1.636515	-0.572838	1.223580
H45	H	1.698812	-0.630069	1.371807
H46	H	1.795157	-0.623731	1.262480
H47	H	1.691935	-0.718427	1.262310
H48	H	1.654901	-0.495043	1.245205
H49	H	1.551796	-0.589844	1.245072
O50	O	0.910840	-0.343308	0.638991
C51	C	0.877403	-0.296655	0.817798
C52	C	0.937707	-0.364381	0.743688
H53	H	0.899120	-0.313655	0.902460
H54	H	0.789540	-0.307258	0.806340
H55	H	0.898962	-0.218857	0.799445
H56	H	0.916237	-0.442205	0.761995
H57	H	1.025556	-0.353695	0.755160
H58	H	1.118359	-0.576424	0.384023
H59	H	1.640310	-0.576443	0.907107
H60	H	1.118464	-0.352846	0.628248
O61	O	1.385951	-0.342845	0.898693
C62	C	1.252754	-0.220422	0.910305
C63	C	1.326707	-0.288272	0.970585
H64	H	1.204852	-0.176267	0.968404
H65	H	1.197716	-0.264674	0.858952
H66	H	1.301009	-0.170044	0.858922
H67	H	1.278537	-0.338663	1.022025
H68	H	1.381748	-0.243959	1.021872
