data_functionalizedCrystal
_audit_creation_method	'MofGen! by Chris Wilmer'
_symmetry_space_group_name_H-M	'P1'
_symmetry_Int_Tables_number	1
_symmetry_cell_setting	triclinic
loop_
_symmetry_equiv_pos_as_xyz
  x,y,z
_cell_length_a	16.974867
_cell_length_b	14.519709
_cell_length_c	15.455320
_cell_angle_alpha	87.318057
_cell_angle_beta	90.981827
_cell_angle_gamma	96.464177
loop_
_atom_site_label
_atom_site_type_symbol
_atom_site_fract_x
_atom_site_fract_y
_atom_site_fract_z
O1	O	-1.049233	0.117578	-0.001434
O2	O	-0.819819	0.131655	0.014653
O3	O	-0.940608	-0.009617	0.006175
O4	O	-0.928444	0.258850	0.007044
O5	O	-0.933729	-0.001541	-0.137604
O6	O	-0.812940	0.139731	-0.129126
O7	O	-1.042354	0.125654	-0.145213
Cu8	Cu	-0.927019	0.133430	-0.150298
Cu9	Cu	-0.935154	0.123879	0.019738
O10	O	-0.921565	0.266927	-0.136735
C11	C	-0.787019	0.135009	-0.055178
C12	C	-0.699534	0.132960	-0.049043
C13	C	-0.207495	0.120920	-0.006040
C14	C	-0.289695	0.122846	-0.011816
C15	C	-0.327037	0.128218	-0.093078
C16	C	-0.282175	0.131655	-0.168570
C17	C	-0.199976	0.129722	-0.162794
C18	C	-0.572473	0.134464	-0.118759
C19	C	-0.654677	0.136400	-0.124529
C20	C	-0.662192	0.127589	0.032226
C21	C	-0.579991	0.125662	0.037995
C22	C	-0.535136	0.129094	-0.037497
N23	N	-0.411060	0.130190	-0.098984
N24	N	-0.451116	0.127116	-0.031590
C25	C	-0.936602	-0.039939	-0.065675
C26	C	-0.934903	-0.142322	-0.065556
C27	C	-0.928649	-0.517223	-0.065095
C28	C	-0.930386	-0.412914	-0.065223
C29	C	-0.931776	-0.329776	-0.065326
C30	C	-0.933513	-0.225460	-0.065453
C31	C	-0.075154	0.122303	-0.075385
C32	C	-0.162638	0.124359	-0.081526
C33	C	-0.925571	0.297249	-0.064884
C34	C	-0.927271	0.399631	-0.064997
N35	N	-0.921303	0.140147	-0.269892
C36	C	-0.889549	0.177157	-0.811671
C37	C	-0.893889	0.172095	-0.721168
C38	C	-0.949561	0.107035	-0.679664
C39	C	-1.000891	0.047027	-0.728669
C40	C	-0.996546	0.052085	-0.819170
C41	C	-0.968288	0.085197	-0.409398
C42	C	-0.972630	0.080145	-0.318890
C43	C	-0.865627	0.205213	-0.311395
C44	C	-0.861291	0.210269	-0.401898
C45	C	-0.912618	0.150258	-0.450895
N46	N	-0.954000	0.101861	-0.587156
N47	N	-0.908174	0.155428	-0.543401
N48	N	-0.940876	0.117155	0.139331
H49	H	-0.177096	0.116552	0.060133
O50	O	-1.054974	-0.016062	-0.688221
C51	C	-1.047806	-0.007659	-0.597835
H52	H	-1.019006	0.064861	-0.583433
H53	H	-1.109128	-0.019582	-0.567653
H54	H	-1.009490	-0.061459	-0.569331
H55	H	-0.852094	0.220952	-0.681273
H56	H	-0.815958	0.263246	-0.435688
O57	O	-0.705642	0.124284	0.105640
C58	C	-0.655059	0.119104	0.178601
H59	H	-0.592140	0.148186	0.159968
H60	H	-0.676494	0.161313	0.232100
H61	H	-0.655640	0.043625	0.202734
O62	O	-1.026734	0.016858	-0.278708
C63	C	-1.071118	-0.035011	-0.341360
H64	H	-1.035714	-0.032562	-0.403600
H65	H	-1.084295	-0.110082	-0.316027
H66	H	-1.129234	-0.004334	-0.355114
O67	O	-0.690832	0.141570	-0.203542
C68	C	-0.633615	0.144204	-0.268935
H69	H	-0.579344	0.112367	-0.242072
H70	H	-0.659683	0.103104	-0.325764
H71	H	-0.615551	0.219268	-0.291849
O72	O	-0.156302	0.133183	-0.236059
C73	C	-0.099724	0.212136	-0.236794
H74	H	-0.087735	0.234627	-0.167672
H75	H	-0.042314	0.194691	-0.266043
H76	H	-0.123372	0.270933	-0.277261
H77	H	-0.549593	0.121286	0.104168
O78	O	-0.815880	0.263532	-0.263711
C79	C	-0.860663	0.317666	-0.214363
H80	H	-0.922927	0.280389	-0.205129
H81	H	-0.830844	0.328587	-0.148414
H82	H	-0.864429	0.387796	-0.249639
O83	O	-0.333336	0.119638	0.061454
C84	C	-0.372278	0.200299	0.063439
H85	H	-0.378395	0.231012	-0.005267
H86	H	-0.433651	0.181846	0.092415
H87	H	-0.336279	0.253261	0.104774
H88	H	-0.535963	0.137246	-0.180230
H89	H	-0.312586	0.136023	-0.234736
H90	H	-0.844219	0.230139	-0.845456
O91	O	-1.018043	0.026820	-0.457012
C92	C	-0.973266	-0.027291	-0.506392
H93	H	-0.912426	-0.030584	-0.474755
H94	H	-1.005276	-0.100428	-0.509646
H95	H	-0.965888	0.005383	-0.574703
H96	H	-1.038341	0.003224	-0.859064
