data_functionalizedCrystal
_audit_creation_method	'MofGen! by Chris Wilmer'
_symmetry_space_group_name_H-M	'P1'
_symmetry_Int_Tables_number	1
_symmetry_cell_setting	triclinic
loop_
_symmetry_equiv_pos_as_xyz
  x,y,z
_cell_length_a	19.188930
_cell_length_b	15.995350
_cell_length_c	17.666332
_cell_angle_alpha	90.005528
_cell_angle_beta	90.013066
_cell_angle_gamma	83.318578
loop_
_atom_site_label
_atom_site_type_symbol
_atom_site_fract_x
_atom_site_fract_y
_atom_site_fract_z
O1	O	-0.926405	-0.104538	-0.063188
O2	O	-0.426405	0.395462	0.436812
O3	O	-0.723130	-0.118610	-0.063136
O4	O	-0.223130	0.381390	0.436864
O5	O	-0.830324	0.010334	-0.063163
O6	O	-0.330324	0.510334	0.436837
O7	O	-0.819211	-0.233482	-0.063161
O8	O	-0.319211	0.266518	0.436839
O9	O	-0.830327	0.010347	0.062734
O10	O	-0.330327	0.510347	0.562734
O11	O	-0.723132	-0.118597	0.062761
O12	O	-0.223132	0.381403	0.562761
O13	O	-0.926408	-0.104525	0.062709
O14	O	-0.426408	0.395475	0.562709
Cu15	Cu	-0.824770	-0.111560	0.074230
Cu16	Cu	-0.324770	0.388440	0.574230
Cu17	Cu	-0.824767	-0.111575	-0.074657
Cu18	Cu	-0.324767	0.388425	0.425343
O19	O	-0.819213	-0.233469	0.062736
O20	O	-0.319213	0.266531	0.562736
C21	C	-0.697119	-0.118148	-0.000181
C22	C	-0.197119	0.381852	0.499819
C23	C	-0.619611	-0.116780	-0.000161
C24	C	-0.119611	0.383220	0.499839
N25	N	-0.824766	-0.111580	-0.179377
N26	N	-0.324766	0.388420	0.320623
C27	C	-0.952419	-0.104987	-0.000248
C28	C	-0.452419	0.395013	0.499752
C29	C	-1.029927	-0.106355	-0.000273
C30	C	-0.529927	0.393645	0.499727
C31	C	-0.574880	-0.192440	-0.000172
C32	C	-0.074880	0.307560	0.499828
C33	C	-0.502052	-0.191155	-0.000181
C34	C	-0.002052	0.308845	0.499819
C35	C	-0.473960	-0.114205	-0.000193
C36	C	0.026040	0.385795	0.499807
C37	C	-0.518701	-0.038535	-0.000177
C38	C	-0.018701	0.461465	0.499823
C39	C	-0.591526	-0.039823	-0.000161
C40	C	-0.091526	0.460177	0.499839
N41	N	-0.365829	-0.055391	-0.043072
N42	N	0.134171	0.444609	0.456928
N43	N	-0.296647	-0.054174	-0.043088
N44	N	0.203353	0.445826	0.456912
C45	C	-0.254541	-0.110322	-0.000239
C46	C	0.245459	0.389678	0.499761
N47	N	-0.284229	-0.167747	0.042618
N48	N	0.215771	0.332253	0.542618
N49	N	-0.353417	-0.168967	0.042632
N50	N	0.146583	0.331033	0.542632
C51	C	-0.394994	-0.112801	-0.000209
C52	C	0.105006	0.387199	0.499791
C53	C	-0.130842	-0.184594	-0.000258
C54	C	0.369158	0.315406	0.499742
C55	C	-0.058014	-0.183306	-0.000262
C56	C	0.441986	0.316694	0.499738
C57	C	-0.074664	-0.030684	-0.000266
C58	C	0.425336	0.469316	0.499734
C59	C	-0.147491	-0.031974	-0.000255
C60	C	0.352509	0.468026	0.499745
C61	C	-0.175575	-0.108932	-0.000255
C62	C	0.324425	0.391068	0.499745
C63	C	-0.829866	0.041533	-0.000216
C64	C	-0.329866	0.541533	0.499784
C65	C	-0.828488	0.134479	-0.000219
C66	C	-0.328488	0.634479	0.499781
C67	C	-0.819671	-0.264669	-0.000213
C68	C	-0.319671	0.235331	0.499787
C69	C	-0.821049	-0.357614	-0.000214
C70	C	-0.321049	0.142386	0.499786
C71	C	-0.823542	0.472208	-0.000216
C72	C	-0.323542	0.972208	0.499784
C73	C	-0.747200	0.424494	-0.000478
C74	C	-0.247200	0.924494	0.499522
C75	C	-0.748578	0.327809	-0.000195
C76	C	-0.248578	0.827809	0.499805
C77	C	-0.825995	0.304657	-0.000218
C78	C	-0.325995	0.804657	0.499782
C79	C	-0.863651	0.345879	0.071664
C80	C	-0.363651	0.845879	0.571664
C81	C	-0.861734	0.442508	0.071725
C82	C	-0.361734	0.942508	0.571725
C83	C	-0.863308	0.442857	-0.071444
C84	C	-0.363308	0.942857	0.428556
C85	C	-0.863290	0.345912	-0.072394
C86	C	-0.363290	0.845912	0.427606
C87	C	-0.827386	0.209964	-0.000217
C88	C	-0.327386	0.709964	0.499783
C89	C	-0.822153	0.566901	-0.000212
C90	C	-0.322153	1.066901	0.499788
C91	C	-0.872316	-0.054595	-0.218998
C92	C	-0.372316	0.445405	0.281002
C93	C	-0.872323	-0.054593	-0.298246
C94	C	-0.372323	0.445407	0.201754
C95	C	-0.824766	-0.111569	-0.337869
C96	C	-0.324766	0.388431	0.162131
C97	C	-0.777212	-0.168565	-0.298238
C98	C	-0.277212	0.331435	0.201762
C99	C	-0.777212	-0.168570	-0.218991
C100	C	-0.277212	0.331430	0.281009
N101	N	-0.762986	-0.122274	-0.462278
N102	N	-0.262986	0.377726	0.037722
N103	N	-0.762989	-0.122263	-0.537559
N104	N	-0.262989	0.377737	-0.037559
C105	C	-0.824765	-0.111557	-0.576633
C106	C	-0.324765	0.388443	-0.076633
N107	N	-0.886541	-0.100845	-0.537582
N108	N	-0.386541	0.399155	-0.037582
N109	N	-0.886538	-0.100851	-0.462295
N110	N	-0.386538	0.399149	0.037705
C111	C	-0.824761	-0.111570	-0.423798
C112	C	-0.324761	0.388430	0.076202
C113	C	-0.872326	-0.054567	-0.702184
C114	C	-0.372326	0.445433	-0.202184
C115	C	-0.872333	-0.054571	-0.781433
C116	C	-0.372333	0.445429	-0.281433
C117	C	-0.777217	-0.168539	-0.781423
C118	C	-0.277217	0.331461	-0.281423
C119	C	-0.777215	-0.168539	-0.702175
C120	C	-0.277215	0.331461	-0.202175
C121	C	-0.824769	-0.111548	-0.662561
C122	C	-0.324769	0.388452	-0.162561
N123	N	-0.824777	-0.111549	0.178950
N124	N	-0.324777	0.388451	0.678950
H125	H	-0.465625	-0.252768	-0.000188
H126	H	0.034375	0.247232	0.499812
N127	N	-0.725914	-0.230027	-0.176254
N128	N	-0.225914	0.269973	0.323746
H129	H	-0.733128	-0.221381	-0.120040
H130	H	-0.233128	0.278619	0.379960
H131	H	-0.733880	-0.289435	-0.190111
H132	H	-0.233880	0.210565	0.309889
H133	H	-0.911039	-0.008192	-0.186746
H134	H	-0.411039	0.491808	0.313254
H135	H	-0.837499	0.317408	0.125172
H136	H	-0.337499	0.817408	0.625172
N137	N	-0.725917	-0.229985	-0.824150
N138	N	-0.225917	0.270015	-0.324150
H139	H	-0.695790	-0.266084	-0.787021
H140	H	-0.195790	0.233916	-0.287021
H141	H	-0.752577	-0.266992	-0.857043
H142	H	-0.252577	0.233008	-0.357043
H143	H	-0.911045	-0.008187	-0.330512
H144	H	-0.411045	0.491813	0.169488
H145	H	-0.597741	-0.255105	-0.000173
H146	H	-0.097741	0.244895	0.499827
N147	N	-0.195742	0.049631	-0.000242
N148	N	0.304258	0.549631	0.499758
H149	H	-0.166897	0.098575	-0.000250
H150	H	0.333103	0.598575	0.499750
H151	H	-0.226340	0.052419	-0.046906
H152	H	0.273660	0.552419	0.453094
H153	H	-0.718978	0.299274	-0.051722
H154	H	-0.218978	0.799274	0.448278
N155	N	-0.725913	-0.230010	-0.340971
N156	N	-0.225913	0.269990	0.159029
H157	H	-0.695788	-0.266111	-0.303842
H158	H	-0.195788	0.233889	0.196158
H159	H	-0.752573	-0.267013	-0.373866
H160	H	-0.252573	0.232987	0.126134
N161	N	-0.725917	-0.229989	-0.659435
N162	N	-0.225917	0.270011	-0.159435
H163	H	-0.733852	-0.289425	-0.673235
H164	H	-0.233852	0.210575	-0.173235
H165	H	-0.676419	-0.220294	-0.673234
H166	H	-0.176419	0.279706	-0.173234
N167	N	-0.488407	0.044462	-0.000181
N168	N	0.011593	0.544462	0.499819
H169	H	-0.435484	0.033797	-0.000194
H170	H	0.064516	0.533797	0.499806
H171	H	-0.504789	0.077560	-0.046847
H172	H	-0.004789	0.577560	0.453153
H173	H	-0.911058	-0.008170	-0.813694
H174	H	-0.411058	0.491830	-0.313694
H175	H	-0.911050	-0.008164	-0.669928
H176	H	-0.411050	0.491836	-0.169928
N177	N	-0.009744	-0.264899	-0.000265
N178	N	0.490256	0.235101	0.499735
H179	H	0.020851	-0.267743	0.046404
H180	H	0.520851	0.232257	0.546404
H181	H	-0.038619	-0.313814	-0.000289
H182	H	0.461381	0.186186	0.499711
N183	N	-0.639778	0.041785	-0.000145
N184	N	-0.139778	0.541785	0.499855
H185	H	-0.610934	0.090730	-0.000150
H186	H	-0.110934	0.590730	0.499850
H187	H	-0.670374	0.044573	-0.046811
H188	H	-0.170374	0.544573	0.453189
N189	N	-0.706772	0.448884	-0.068754
N190	N	-0.206772	0.948884	0.431246
H191	H	-0.737548	0.491102	-0.100178
H192	H	-0.237548	0.991102	0.399822
H193	H	-0.663850	0.474666	-0.051522
H194	H	-0.163850	0.974666	0.448478
H195	H	-0.153709	-0.247257	-0.000247
H196	H	0.346291	0.252743	0.499753
H197	H	-0.051792	0.031970	-0.000323
H198	H	0.448208	0.531970	0.499677
H199	H	-0.716823	0.443983	0.050797
H200	H	-0.216823	0.943983	0.550797
N201	N	-0.709114	0.290752	0.068196
N202	N	-0.209114	0.790752	0.568196
H203	H	-0.690758	0.337235	0.098279
H204	H	-0.190758	0.837235	0.598279
H205	H	-0.741701	0.261026	0.100887
H206	H	-0.241701	0.761026	0.600887
H207	H	-0.834277	0.460714	0.125474
H208	H	-0.334277	0.960714	0.625474
N209	N	-0.935969	0.485513	0.076036
N210	N	-0.435969	0.985513	0.576036
H211	H	-0.963480	0.468814	0.030841
H212	H	-0.463480	0.968814	0.530841
H213	H	-0.958807	0.467962	0.124077
H214	H	-0.458807	0.967962	0.624077
N215	N	-0.939000	0.327479	0.075175
N216	N	-0.439000	0.827479	0.575175
H217	H	-0.949474	0.292154	0.030098
H218	H	-0.449474	0.792154	0.530098
H219	H	-0.946773	0.295863	0.123351
H220	H	-0.446773	0.795863	0.623351
H221	H	-0.838347	0.463300	-0.125927
H222	H	-0.338347	0.963300	0.374073
H223	H	-0.835758	0.318557	-0.125570
H224	H	-0.335758	0.818557	0.374430
H225	H	-0.919746	0.330756	-0.076751
H226	H	-0.419746	0.830756	0.423249
H227	H	-0.919594	0.474824	-0.071944
H228	H	-0.419594	0.974824	0.428056
