data_functionalizedCrystal
_audit_creation_method	'MofGen! by Chris Wilmer'
_symmetry_space_group_name_H-M	'P1'
_symmetry_Int_Tables_number	1
_symmetry_cell_setting	triclinic
loop_
_symmetry_equiv_pos_as_xyz
  x,y,z
_cell_length_a	19.121063
_cell_length_b	12.759401
_cell_length_c	12.759393
_cell_angle_alpha	90.018442
_cell_angle_beta	92.402665
_cell_angle_gamma	87.532947
loop_
_atom_site_label
_atom_site_type_symbol
_atom_site_fract_x
_atom_site_fract_y
_atom_site_fract_z
Zn1	Zn	-0.279604	-1.588307	-0.611803
Zn2	Zn	0.220396	-1.088307	-0.111803
Zn3	Zn	-0.397073	-1.580669	-0.443598
Zn4	Zn	0.102927	-1.080669	0.056402
Zn5	Zn	-0.279637	-1.412610	-0.436141
Zn6	Zn	0.220363	-0.912610	0.063859
Zn7	Zn	-0.397014	-1.405066	-0.619233
Zn8	Zn	0.102986	-0.905066	-0.119233
O9	O	-0.338332	-1.496663	-0.527694
O10	O	0.161668	-0.996663	-0.027694
O11	O	-0.295197	-1.734314	-0.589502
O12	O	0.204803	-1.234314	-0.089502
O13	O	-0.381533	-1.558337	-0.295590
O14	O	0.118467	-1.058337	0.204410
O15	O	-0.181349	-1.442271	-0.453213
O16	O	0.318651	-0.942271	0.046787
O17	O	-0.381501	-1.728703	-0.465922
O18	O	0.118499	-1.228703	0.034078
O19	O	-0.181324	-1.571354	-0.582271
O20	O	0.318676	-1.071354	-0.082271
O21	O	-0.295254	-1.434865	-0.290112
O22	O	0.204746	-0.934865	0.209888
O23	O	-0.295197	-1.264589	-0.460417
O24	O	0.204803	-0.764589	0.039583
O25	O	-0.381401	-1.429412	-0.765266
O26	O	0.118599	-0.929412	-0.265266
O27	O	-0.381433	-1.259046	-0.594934
O28	O	0.118567	-0.759046	-0.094934
O29	O	-0.295140	-1.564039	-0.759807
O30	O	0.204860	-1.064039	-0.259807
O31	O	-0.495349	-1.551021	-0.473126
O32	O	0.004651	-1.051021	0.026874
O33	O	-0.495306	-1.422006	-0.602164
O34	O	0.004694	-0.922006	-0.102164
C35	C	-0.338313	-1.223697	-0.527673
C36	C	0.161687	-0.723697	-0.027673
C37	C	-0.338321	-1.106920	-0.527690
C38	C	0.161679	-0.606920	-0.027690
C39	C	-0.520812	-1.484894	-0.539284
C40	C	-0.020812	-0.984894	-0.039284
C41	C	-0.598877	-1.479956	-0.544277
C42	C	-0.098877	-0.979956	-0.044277
C43	C	-0.383295	-1.049194	-0.597625
C44	C	0.116705	-0.549194	-0.097625
C45	C	-0.383302	-0.939470	-0.597635
C46	C	0.116698	-0.439470	-0.097635
C47	C	-0.293358	-0.945206	-0.457766
C48	C	0.206642	-0.445206	0.042234
C49	C	-0.293349	-1.054929	-0.457762
C50	C	0.206651	-0.554929	0.042238
C51	C	-0.435226	-1.045882	-0.678375
C52	C	0.064774	-0.545882	-0.178375
C53	C	-0.435232	-0.936157	-0.678385
C54	C	0.064768	-0.436157	-0.178385
C55	C	-0.635552	-1.544859	-0.479495
C56	C	-0.135552	-1.044859	0.020505
C57	C	-0.708902	-1.540221	-0.484198
C58	C	-0.208902	-1.040221	0.015802
C59	C	-0.745577	-1.470673	-0.553677
C60	C	-0.245577	-0.970673	-0.053677
C61	C	-0.708898	-1.405767	-0.618466
C62	C	-0.208898	-0.905767	-0.118466
C63	C	-0.635548	-1.410412	-0.613768
C64	C	-0.135548	-0.910412	-0.113768
C65	C	-0.967046	-1.453292	-0.571224
C66	C	-0.467046	-0.953292	-0.071224
C67	C	-1.040400	-1.448650	-0.575915
C68	C	-0.540400	-0.948650	-0.075915
C69	C	-1.040400	-1.583105	-0.441648
C70	C	-0.540400	-1.083105	0.058352
C71	C	-0.967049	-1.587739	-0.436952
C72	C	-0.467049	-1.087739	0.063048
C73	C	-0.930376	-1.522837	-0.501744
C74	C	-0.430376	-1.022837	-0.001744
C75	C	-0.820554	-1.465928	-0.558483
C76	C	-0.320554	-0.965928	-0.058483
C77	C	-0.855401	-1.527589	-0.496943
C78	C	-0.355401	-1.027589	0.003057
C79	C	-0.155140	-1.508506	-0.516082
C80	C	0.344860	-1.008506	-0.016082
C81	C	-0.077075	-1.513553	-0.511133
C82	C	0.422925	-1.013553	-0.011133
C83	C	-0.338261	-1.496736	-0.801723
C84	C	0.161739	-0.996736	-0.301723
C85	C	-0.338230	-1.496767	-0.918497
C86	C	0.161770	-0.996767	-0.418497
C87	C	-0.338346	-0.770695	-0.527710
C88	C	0.161654	-0.270695	-0.027710
C89	C	-0.338337	-0.887473	-0.527704
C90	C	0.161663	-0.387473	-0.027704
C91	C	-0.293296	-1.432504	-0.970512
C92	C	0.206704	-0.932504	-0.470512
C93	C	-0.293275	-1.432537	-1.080235
C94	C	0.206725	-0.932537	-0.580235
C95	C	-0.383124	-1.561105	-1.085919
C96	C	0.116876	-1.061105	-0.585919
C97	C	-0.383148	-1.561066	-0.976198
C98	C	0.116852	-1.061066	-0.476198
C99	C	-0.241420	-1.358280	-0.967232
C100	C	0.258580	-0.858280	-0.467232
C101	C	-0.241399	-1.358313	-1.076955
C102	C	0.258601	-0.858313	-0.576955
C103	C	-0.338353	-1.496654	-0.254728
C104	C	0.161647	-0.996654	0.245272
C105	C	-0.338185	-1.496839	-0.137941
C106	C	0.161815	-0.996839	0.362059
H107	H	-0.256722	-1.101925	-0.400821
H108	H	0.243278	-0.601925	0.099179
H109	H	-0.186996	-1.383620	-1.103291
H110	H	0.313004	-0.883620	-0.603291
O111	O	-0.431572	-1.630457	-1.148147
O112	O	0.068428	-1.130457	-0.648147
H113	H	-0.400135	-1.685969	-1.196142
H114	H	0.099865	-1.185969	-0.696142
O115	O	-0.260707	-1.249238	-0.928997
O116	O	0.239293	-0.749238	-0.428997
H117	H	-0.270140	-1.195886	-0.997295
H118	H	0.229860	-0.695886	-0.497295
O119	O	-0.815844	-1.602612	-0.422022
O120	O	-0.315844	-1.102612	0.077978
H121	H	-0.782478	-1.557735	-0.366391
H122	H	-0.282478	-1.057735	0.133609
H123	H	-0.189760	-1.390758	-0.929929
H124	H	0.310240	-0.890758	-0.429929
H125	H	-0.415815	-0.903404	-0.754500
H126	H	0.084185	-0.403404	-0.254500
H127	H	-0.256742	-0.902861	-0.400833
H128	H	0.243258	-0.402861	0.099167
H129	H	-0.489614	-0.902874	-0.659912
H130	H	0.010386	-0.402874	-0.159912
H131	H	-0.260868	-1.279767	-1.112218
H132	H	0.239132	-0.779767	-0.612218
O133	O	-0.416003	-1.086613	-0.784974
O134	O	0.083997	-0.586613	-0.284974
H135	H	-0.406592	-1.019537	-0.837165
H136	H	0.093408	-0.519537	-0.337165
O137	O	-0.595995	-1.619876	-0.404561
O138	O	-0.095995	-1.119876	0.095439
H139	H	-0.633824	-1.664236	-0.360314
H140	H	-0.133824	-1.164236	0.139686
H141	H	-0.486870	-1.076584	-0.652377
H142	H	0.013130	-0.576584	-0.152377
H143	H	-1.070267	-1.635946	-0.388899
H144	H	-0.570267	-1.135946	0.111101
O145	O	-0.748461	-1.610217	-0.414321
O146	O	-0.248461	-1.110217	0.085679
H147	H	-0.710636	-1.659346	-0.365207
H148	H	-0.210636	-1.159346	0.134793
H149	H	-0.937189	-1.644371	-0.380376
H150	H	-0.437189	-1.144371	0.119624
O151	O	-0.595993	-1.340406	-0.683642
O152	O	-0.095993	-0.840406	-0.183642
H153	H	-0.538827	-1.355327	-0.668712
H154	H	-0.038827	-0.855327	-0.168712
O155	O	-0.431622	-1.630368	-0.920100
O156	O	0.068378	-1.130368	-0.420100
H157	H	-0.424100	-1.619533	-0.834111
H158	H	0.075900	-1.119533	-0.334111
H159	H	-0.738765	-1.349144	-0.675042
H160	H	-0.238765	-0.849144	-0.175042
H161	H	-1.070259	-1.392028	-0.632512
H162	H	-0.570259	-0.892028	-0.132512
H163	H	-0.937192	-1.400444	-0.623979
H164	H	-0.437192	-0.900444	-0.123979
H165	H	-0.850423	-1.409300	-0.615051
H166	H	-0.350423	-0.909300	-0.115051
