data_functionalizedCrystal
_audit_creation_method	'MofGen! by Chris Wilmer'
_symmetry_space_group_name_H-M	'P1'
_symmetry_Int_Tables_number	1
_symmetry_cell_setting	triclinic
loop_
_symmetry_equiv_pos_as_xyz
  x,y,z
_cell_length_a	19.288864
_cell_length_b	15.944551
_cell_length_c	18.366186
_cell_angle_alpha	89.992809
_cell_angle_beta	89.977106
_cell_angle_gamma	83.317492
loop_
_atom_site_label
_atom_site_type_symbol
_atom_site_fract_x
_atom_site_fract_y
_atom_site_fract_z
O1	O	0.921629	0.104784	-0.060785
O2	O	0.719405	0.118919	-0.060735
O3	O	0.826039	-0.010445	-0.060755
O4	O	0.814995	0.234147	-0.060765
O5	O	0.826021	-0.010451	0.060345
O6	O	0.719387	0.118912	0.060364
O7	O	0.921611	0.104777	0.060315
Zn8	Zn	0.820496	0.111844	0.079567
Zn9	Zn	0.820520	0.111852	-0.079987
O10	O	0.814977	0.234141	0.060334
C11	C	0.693519	0.118461	-0.000179
C12	C	0.616411	0.117095	-0.000160
C13	C	0.571915	0.193000	-0.000175
C14	C	0.499465	0.191717	-0.000183
C15	C	0.471514	0.114526	-0.000191
C16	C	0.516020	0.038611	-0.000172
C17	C	0.588469	0.039896	-0.000156
C18	C	0.363098	0.053847	-0.042639
C19	C	0.290650	0.052565	-0.042659
C20	C	0.248058	0.110560	-0.000234
C21	C	0.277920	0.169850	0.042200
C22	C	0.350369	0.171135	0.042216
C23	C	0.392956	0.113124	-0.000207
C24	C	0.125002	0.185079	-0.000257
C25	C	0.052550	0.183793	-0.000260
C26	C	0.069107	0.030684	-0.000257
C27	C	0.141557	0.031972	-0.000246
C28	C	0.169500	0.109172	-0.000249
C29	C	0.825572	-0.041740	-0.000205
C30	C	0.824197	-0.134981	-0.000204
C31	C	0.754815	-0.349571	-0.000197
C32	C	0.787025	-0.410715	0.059504
C33	C	0.821710	-0.305697	-0.000209
C34	C	0.787058	-0.410692	-0.059890
C35	C	0.819303	-0.470601	-0.000217
C36	C	0.853939	-0.365614	0.059542
C37	C	0.853963	-0.365585	-0.059906
C38	C	0.886222	-0.426712	-0.000190
C39	C	0.823095	-0.210700	-0.000204
C40	C	0.817924	-0.565597	-0.000217
C41	C	0.947497	0.105235	-0.000243
C42	C	1.024605	0.106600	-0.000267
C43	C	0.815444	0.265436	-0.000217
C44	C	0.816819	0.358677	-0.000223
N45	N	0.820485	0.111838	0.188458
N46	N	0.820537	0.111852	-0.188878
C47	C	0.867718	0.054583	0.226549
C48	C	0.867722	0.054580	0.302777
C49	C	0.820500	0.111844	0.340910
C50	C	0.773258	0.169103	0.302810
C51	C	0.773251	0.169100	0.226583
C52	C	0.811404	0.188378	0.461669
C53	C	0.811416	0.188383	0.537894
C54	C	0.820520	0.111855	0.576018
C55	C	0.829626	0.035320	0.537908
C56	C	0.829618	0.035316	0.461681
C57	C	0.820503	0.111854	0.423565
C58	C	0.867760	0.054592	0.696765
C59	C	0.867760	0.054587	0.772994
C60	C	0.773299	0.169118	0.773025
C61	C	0.773296	0.169115	0.696797
C62	C	0.820531	0.111853	0.658671
H63	H	0.463229	0.253530	-0.000193
C64	C	0.748798	-0.437745	0.127706
H65	H	0.779755	-0.475538	0.155811
H66	H	0.709762	-0.465052	0.113364
H67	H	0.733299	-0.389311	0.156025
C68	C	0.257808	-0.012653	-0.089331
H69	H	0.293551	-0.047020	-0.114584
H70	H	0.226425	0.015878	-0.123457
H71	H	0.233197	-0.047069	-0.058739
C72	C	0.919682	-0.008397	0.344690
H73	H	0.912918	-0.000195	0.395548
H74	H	0.966033	0.000587	0.332172
H75	H	0.912139	-0.064441	0.332214
H76	H	0.882240	-0.345560	-0.110395
H77	H	0.734848	0.215741	0.804072
C78	C	0.721297	0.232088	0.184681
H79	H	0.693175	0.266197	0.218306
H80	H	0.692384	0.201962	0.154960
H81	H	0.746286	0.266979	0.154931
H82	H	0.397772	0.006619	-0.077190
C83	C	0.748835	-0.437674	-0.128074
H84	H	0.702160	-0.410977	-0.127984
H85	H	0.748605	-0.497218	-0.127824
H86	H	0.772153	-0.421453	-0.170479
H87	H	0.699288	-0.316049	-0.000124
H88	H	0.493258	-0.024239	-0.000188
H89	H	0.594661	0.255862	-0.000179
H90	H	0.016321	0.245606	-0.000268
H91	H	0.624699	-0.021917	-0.000145
C92	C	0.038370	-0.054225	-0.000270
H93	H	-0.011151	-0.044121	-0.000286
H94	H	0.053620	-0.085476	0.041961
H95	H	0.053668	-0.085460	-0.042504
H96	H	0.882201	-0.345735	0.110070
C97	C	0.961294	-0.471805	-0.000164
H98	H	0.984935	-0.456386	0.042282
H99	H	0.985239	-0.455671	-0.042182
H100	H	0.960018	-0.531185	-0.000560
C101	C	0.839635	-0.048866	0.579834
H102	H	0.838326	-0.037906	0.630689
H103	H	0.883438	-0.078958	0.567326
H104	H	0.803304	-0.081663	0.567360
H105	H	0.906177	0.007955	0.195510
C106	C	0.190508	-0.051521	-0.000240
H107	H	0.237659	-0.039701	-0.000226
H108	H	0.182059	-0.083183	-0.042472
H109	H	0.182013	-0.083188	0.041993
C110	C	0.801394	0.272564	0.419740
H111	H	0.795984	0.318144	0.453352
H112	H	0.760950	0.274393	0.390022
H113	H	0.841085	0.277095	0.389985
C114	C	0.383217	0.236341	0.088896
H115	H	0.347479	0.270696	0.114166
H116	H	0.407832	0.270759	0.058317
H117	H	0.414598	0.207790	0.123019
C118	C	0.839623	-0.048864	0.419760
H119	H	0.845142	-0.094442	0.453376
H120	H	0.880004	-0.050639	0.389921
H121	H	0.799883	-0.053449	0.390129
H122	H	0.906219	0.007963	0.665722
C123	C	0.231078	0.233652	0.088865
H124	H	0.183653	0.224394	0.082785
H125	H	0.236951	0.289435	0.073945
H126	H	0.243722	0.226479	0.138657
H127	H	0.734838	0.215741	0.665781
C128	C	0.919720	-0.008394	0.814895
H129	H	0.947852	-0.042489	0.781269
H130	H	0.894744	-0.043288	0.844649
H131	H	0.948633	0.021745	0.844611
C132	C	0.801405	0.272566	0.579808
H133	H	0.795970	0.318142	0.546187
H134	H	0.841095	0.277110	0.609520
H135	H	0.760962	0.274389	0.609567
H136	H	0.147754	0.247939	-0.000249
C137	C	0.721318	0.232095	0.344753
H138	H	0.728092	0.223903	0.395606
H139	H	0.674962	0.223116	0.332289
H140	H	0.728864	0.288134	0.332245
