data_functionalizedCrystal
_audit_creation_method	'MofGen! by Chris Wilmer'
_symmetry_space_group_name_H-M	'P1'
_symmetry_Int_Tables_number	1
_symmetry_cell_setting	triclinic
loop_
_symmetry_equiv_pos_as_xyz
  x,y,z
_cell_length_a	6.394989
_cell_length_b	11.026607
_cell_length_c	10.065875
_cell_angle_alpha	79.302338
_cell_angle_beta	99.048558
_cell_angle_gamma	97.541864
loop_
_atom_site_label
_atom_site_type_symbol
_atom_site_fract_x
_atom_site_fract_y
_atom_site_fract_z
O1	O	0.855566	1.641000	-0.113473
O2	O	0.755391	1.286163	-0.113477
O3	O	0.503308	1.468618	-0.113477
O4	O	1.107649	1.458545	-0.113474
O5	O	0.551624	1.433830	0.113512
O6	O	0.803707	1.251375	0.113511
O7	O	0.903882	1.606212	0.113515
Zn8	Zn	0.861466	1.423270	0.149553
Zn9	Zn	0.797808	1.469105	-0.149515
O10	O	1.155965	1.423757	0.113515
C11	C	0.761068	1.223275	0.000016
C12	C	0.705977	1.087719	0.000014
C13	C	0.858092	1.016240	0.000014
C14	C	0.801156	0.876135	0.000012
C15	C	1.210376	1.443143	0.000014
C16	C	1.448899	1.449231	0.000010
C17	C	0.898204	1.669100	0.000019
C18	C	0.953293	1.804658	0.000012
N19	N	0.904912	1.391998	0.353658
N20	N	0.754348	1.500386	-0.353620
C21	C	0.812908	1.458216	0.421437
C22	C	0.846366	1.434158	0.578604
H23	H	1.030475	1.058766	0.000023
H24	H	0.650793	1.574890	0.588059
C25	C	1.042982	1.292750	0.431662
C26	C	1.048774	1.288647	0.572042
C27	C	1.175967	1.197244	0.643937
H28	H	0.985050	1.214365	0.408493
H29	H	1.183291	1.311931	0.408391
H30	H	0.908493	1.269458	0.595304
H31	H	1.106726	1.367009	0.595252
H32	H	1.316276	1.216425	0.620666
H33	H	1.118022	1.118866	0.620757
H34	H	1.179930	1.194456	0.739192
H35	H	0.949901	1.359646	0.636925
H36	H	0.709360	1.532715	0.363113
H37	H	0.628756	0.833618	-0.000024
H38	H	1.125689	0.847177	0.000021
H39	H	0.533588	1.045197	-0.000021
