data_functionalizedCrystal
_audit_creation_method	'MofGen! by Chris Wilmer'
_symmetry_space_group_name_H-M	'P1'
_symmetry_Int_Tables_number	1
_symmetry_cell_setting	triclinic
loop_
_symmetry_equiv_pos_as_xyz
  x,y,z
_cell_length_a	15.944551
_cell_length_b	14.044220
_cell_length_c	13.101039
_cell_angle_alpha	93.659868
_cell_angle_beta	93.361595
_cell_angle_gamma	91.656192
loop_
_atom_site_label
_atom_site_type_symbol
_atom_site_fract_x
_atom_site_fract_y
_atom_site_fract_z
O1	O	0.198266	-1.262927	-0.085109
O2	O	0.190957	-0.986959	-0.085135
O3	O	0.072901	-1.132479	-0.085112
O4	O	0.316322	-1.117408	-0.085132
O5	O	0.081387	-1.122038	0.085316
O6	O	0.199443	-0.976518	0.085293
O7	O	0.206752	-1.252486	0.085319
Zn8	Zn	0.204444	-1.112845	0.112365
Zn9	Zn	0.193264	-1.126601	-0.112181
O10	O	0.324807	-1.106967	0.085296
C11	C	0.192001	-0.946424	0.000076
C12	C	0.182459	-0.841198	0.000066
C13	C	0.045803	-1.126633	0.000102
C14	C	-0.047583	-1.124757	0.000102
N15	N	0.212075	-1.103463	0.265612
C16	C	-0.269531	-1.030074	0.000079
C17	C	-0.323071	-1.068894	0.084115
C18	C	-0.218563	-1.121364	0.000094
C19	C	-0.331419	-1.079209	-0.083914
C20	C	-0.383723	-1.118080	0.000082
C21	C	-0.270871	-1.160204	0.084199
C22	C	-0.279217	-1.170512	-0.083905
C23	C	-0.332734	-1.209397	0.000151
C24	C	-0.123419	-1.123253	0.000102
C25	C	-0.478865	-1.116197	0.000081
C26	C	0.351905	-1.112813	0.000079
C27	C	0.445291	-1.114689	0.000072
C28	C	0.205707	-1.293021	0.000106
C29	C	0.215249	-1.398248	0.000108
C30	C	0.165017	-0.648535	0.000088
C31	C	0.232688	-0.590906	0.000087
C32	C	0.222982	-0.483701	0.000099
C33	C	0.174721	-0.755749	0.000076
N34	N	0.185628	-1.135990	-0.265429
C35	C	0.222464	-1.090699	0.474653
C36	C	0.175242	-1.148750	0.525537
C37	C	0.181022	-1.141649	0.641855
C38	C	0.216684	-1.097800	0.358325
H39	H	-0.342534	-1.025929	0.155153
C40	C	-0.252839	-1.228472	-0.179869
H41	H	-0.221247	-1.281181	-0.159683
H42	H	-0.219422	-1.188905	-0.218708
H43	H	-0.301565	-1.251089	-0.220419
H44	H	0.130473	-1.203784	0.481744
H45	H	-0.244450	-1.194427	0.155322
C46	C	0.282947	-1.016368	0.533806
H47	H	0.278951	-1.021296	0.605356
H48	H	0.268302	-0.954127	0.516294
H49	H	0.338910	-1.027841	0.516281
H50	H	-0.357926	-1.044938	-0.154965
C51	C	-0.232187	-0.927707	0.000180
H52	H	-0.247051	-0.891762	0.059959
H53	H	-0.253754	-0.898571	-0.058911
H54	H	-0.172709	-0.929640	-0.000422
H55	H	-0.360212	-1.285236	0.000205
H56	H	0.297911	-0.622082	0.000076
H57	H	0.099799	-0.617361	0.000099
