data_functionalizedCrystal
_audit_creation_method	'MofGen! by Chris Wilmer'
_symmetry_space_group_name_H-M	'P1'
_symmetry_Int_Tables_number	1
_symmetry_cell_setting	triclinic
loop_
_symmetry_equiv_pos_as_xyz
  x,y,z
_cell_length_a	13.897449
_cell_length_b	13.897447
_cell_length_c	19.805399
_cell_angle_alpha	89.976253
_cell_angle_beta	89.979867
_cell_angle_gamma	90.020357
loop_
_atom_site_label
_atom_site_type_symbol
_atom_site_fract_x
_atom_site_fract_y
_atom_site_fract_z
Zn1	Zn	1.474659	-0.384016	-0.382748
Zn2	Zn	1.474557	-0.545322	-0.269567
Zn3	Zn	1.313358	-0.384045	-0.269571
Zn4	Zn	1.313325	-0.545273	-0.382713
O5	O	1.393975	-0.464664	-0.326150
O6	O	1.609627	-0.405422	-0.367747
O7	O	1.453145	-0.523961	-0.174851
O8	O	1.334811	-0.249059	-0.284601
O9	O	1.609552	-0.523933	-0.284594
O10	O	1.453319	-0.249038	-0.367751
O11	O	1.334712	-0.405471	-0.174854
O12	O	1.178372	-0.405424	-0.284567
O13	O	1.334755	-0.523849	-0.477434
O14	O	1.178348	-0.523877	-0.367691
O15	O	1.453287	-0.405374	-0.477460
O16	O	1.453113	-0.680297	-0.284560
O17	O	1.334656	-0.680261	-0.367687
C18	C	1.143360	-0.464649	-0.326126
C19	C	1.036147	-0.464666	-0.326132
C20	C	0.949077	-0.464669	-0.326143
C21	C	0.839844	-0.464676	-0.326164
C22	C	1.393896	-0.715278	-0.326134
C23	C	1.393951	-0.822492	-0.326150
C24	C	1.393998	-0.909562	-0.326165
C25	C	1.394065	-1.018794	-0.326183
C26	C	1.645568	-0.464680	-0.326174
C27	C	1.752782	-0.464686	-0.326184
C28	C	1.394029	-0.464603	-0.502693
C29	C	1.394052	-0.464577	-0.577925
C30	C	1.394080	-0.213071	-0.326180
C31	C	1.394125	-0.105857	-0.326193
C32	C	1.455773	-0.402884	-0.613283
C33	C	1.455783	-0.402856	-0.683972
C34	C	1.394076	-0.464527	-0.719300
C35	C	1.332348	-0.526223	-0.683937
C36	C	1.332334	-0.526245	-0.613249
C37	C	1.332403	-0.526133	-0.969010
C38	C	1.332424	-0.526108	-1.039702
C39	C	1.455851	-0.402744	-1.039732
C40	C	1.455837	-0.402766	-0.969045
C41	C	1.394106	-0.464458	-0.933688
C42	C	1.394095	-0.464486	-0.857039
C43	C	1.394091	-0.464504	-0.795947
C44	C	1.393976	-0.464655	-0.150294
C45	C	1.394140	-0.464409	-0.075062
H46	H	1.506025	-0.352668	-0.584524
H47	H	1.282065	-0.576472	-0.584461
O48	O	1.515833	-0.342901	-0.718214
C49	C	1.570282	-0.288463	-0.671875
H50	H	1.573592	-0.327991	-0.621483
H51	H	1.646290	-0.278178	-0.692311
H52	H	1.534995	-0.215202	-0.664360
H53	H	1.506088	-0.352551	-0.940284
H54	H	1.282152	-0.576380	-0.940231
H55	H	1.506112	-0.352508	-1.068529
O56	O	1.272382	-0.586044	-1.073917
C57	C	1.217908	-0.640516	-1.027553
H58	H	1.214573	-0.601025	-0.977168
H59	H	1.141911	-0.650785	-1.047969
H60	H	1.253191	-0.713783	-1.020030
H61	H	1.282102	-0.576432	-0.712707
