data_functionalizedCrystal
_audit_creation_method	'MofGen! by Chris Wilmer'
_symmetry_space_group_name_H-M	'P1'
_symmetry_Int_Tables_number	1
_symmetry_cell_setting	triclinic
loop_
_symmetry_equiv_pos_as_xyz
  x,y,z
_cell_length_a	17.699097
_cell_length_b	14.421503
_cell_length_c	17.699104
_cell_angle_alpha	89.996651
_cell_angle_beta	83.289974
_cell_angle_gamma	90.011209
loop_
_atom_site_label
_atom_site_type_symbol
_atom_site_fract_x
_atom_site_fract_y
_atom_site_fract_z
O1	O	1.004081	0.077191	0.095748
O2	O	1.504081	0.577191	0.595748
O3	O	0.783705	0.077176	0.108189
O4	O	1.283705	0.577176	0.608189
O5	O	0.900111	0.077175	-0.008219
O6	O	1.400111	0.577175	0.491781
O7	O	0.887675	0.077191	0.212156
O8	O	1.387675	0.577191	0.712156
O9	O	0.900092	-0.077048	-0.008202
O10	O	1.400092	0.422952	0.491798
O11	O	0.783686	-0.077048	0.108207
O12	O	1.283686	0.422952	0.608207
O13	O	1.004062	-0.077033	0.095765
O14	O	1.504062	0.422967	0.595765
Cu15	Cu	0.893872	-0.091122	0.101987
Cu16	Cu	1.393872	0.408878	0.601987
Cu17	Cu	0.893895	0.091265	0.101967
Cu18	Cu	1.393895	0.591265	0.601967
O19	O	0.887656	-0.077032	0.212174
O20	O	1.387656	0.422968	0.712174
C21	C	0.755499	0.000062	0.107751
C22	C	1.255499	0.500062	0.607751
C23	C	0.671481	0.000056	0.106408
C24	C	1.171481	0.500056	0.606408
N25	N	0.893862	-0.219403	0.102001
N26	N	1.393862	0.280597	0.602001
C27	C	0.155773	0.084160	0.098169
C28	C	0.655773	0.584160	0.598169
C29	C	0.234717	0.084156	0.099426
C30	C	0.734717	0.584156	0.599426
C31	C	0.274172	0.000085	0.100064
C32	C	0.774172	0.500085	0.600064
C33	C	0.234681	-0.083987	0.099439
C34	C	0.734681	0.416013	0.599439
C35	C	0.155739	-0.083982	0.098177
C36	C	0.655739	0.416018	0.598177
C37	C	0.553045	-0.084011	0.104526
C38	C	1.053045	0.415989	0.604526
C39	C	0.631992	-0.084010	0.105791
C40	C	1.131992	0.415990	0.605791
C41	C	0.632023	0.084126	0.105775
C42	C	1.132023	0.584126	0.605775
C43	C	0.553081	0.084132	0.104513
C44	C	1.053081	0.584132	0.604513
C45	C	0.513597	0.000060	0.103884
C46	C	1.013597	0.500060	0.603884
C47	C	0.427997	0.000066	0.102520
C48	C	0.927997	0.500066	0.602520
C49	C	0.359770	0.000078	0.101433
C50	C	0.859770	0.500078	0.601433
C51	C	0.840026	-0.469057	0.155805
C52	C	1.340026	0.030943	0.655805
C53	C	0.908390	-0.530854	0.170372
C54	C	1.408390	-0.030854	0.670372
C55	C	0.893880	-0.408565	0.101983
C56	C	1.393880	0.091435	0.601983
C57	C	0.825534	-0.530862	0.087433
C58	C	1.325534	-0.030862	0.587433
C59	C	0.893892	-0.591286	0.101968
C60	C	1.393892	-0.091286	0.601968
C61	C	0.962278	-0.469001	0.116585
C62	C	1.462278	0.030999	0.616585
C63	C	0.879377	-0.469004	0.033616
C64	C	1.379377	0.030996	0.533616
C65	C	0.947791	-0.530772	0.048155
C66	C	1.447791	-0.030772	0.548155
C67	C	0.893872	-0.303304	0.101994
C68	C	1.393872	0.196696	0.601994
C69	C	0.893907	-0.696545	0.101956
C70	C	1.393907	-0.196545	0.601956
C71	C	1.032268	0.000083	0.096204
C72	C	1.532268	0.500083	0.596204
C73	C	1.116286	0.000095	0.097546
C74	C	1.616286	0.500095	0.597546
C75	C	0.899653	0.000063	-0.036407
C76	C	1.399653	0.500063	0.463593
C77	C	0.898308	0.000063	-0.120425
C78	C	1.398308	0.500063	0.379575
N79	N	0.893912	0.219546	0.101947
N80	N	1.393912	0.719546	0.601947
C81	C	0.959052	0.000093	-0.645293
C82	C	1.459052	0.500093	-0.145293
C83	C	0.960311	0.000085	-0.566349
C84	C	1.460311	0.500085	-0.066349
C85	C	0.891976	0.000078	-0.517735
C86	C	1.391976	0.500078	-0.017735
C87	C	0.822378	0.000071	-0.548068
C88	C	1.322378	0.500071	-0.048068
C89	C	0.821119	0.000072	-0.627010
C90	C	1.321119	0.500072	-0.127010
C91	C	0.827451	0.000063	-0.229702
C92	C	1.327451	0.500063	0.270298
C93	C	0.828715	0.000064	-0.150754
C94	C	1.328715	0.500064	0.349246
C95	C	0.966642	0.000076	-0.169040
C96	C	1.466642	0.500076	0.330960
C97	C	0.965384	0.000078	-0.247983
C98	C	1.465384	0.500078	0.252017
C99	C	0.895786	0.000065	-0.278309
C100	C	1.395786	0.500065	0.221691
C101	C	0.894422	0.000072	-0.363909
C102	C	1.394422	0.500072	0.136091
C103	C	0.893340	0.000078	-0.432136
C104	C	1.393340	0.500078	0.067864
C105	C	0.888114	0.000082	0.240362
C106	C	1.388114	0.500082	0.740362
C107	C	0.889459	0.000088	0.324379
C108	C	1.389459	0.500088	0.824379
H109	H	0.123653	0.152621	0.097654
H110	H	0.623653	0.652621	0.597654
N111	N	0.277308	0.174826	0.100088
N112	N	0.777308	0.674826	0.600088
H113	H	0.240334	0.228085	0.099493
H114	H	0.740334	0.728085	0.599493
H115	H	0.303850	0.178493	0.147507
H116	H	0.803850	0.678493	0.647507
H117	H	0.770780	0.000064	-0.254383
H118	H	1.270780	0.500064	0.245617
H119	H	0.520960	0.152591	0.103997
H120	H	1.020960	0.652591	0.603997
N121	N	0.779761	-0.433166	0.216142
N122	N	1.279761	0.066834	0.716142
H123	H	0.804378	-0.393659	0.253546
H124	H	1.304378	0.106341	0.753546
H125	H	0.741796	-0.394672	0.191417
H126	H	1.241796	0.105328	0.691417
N127	N	0.113148	-0.174653	0.097501
N128	N	0.613148	0.325347	0.597501
H129	H	0.150191	-0.227910	0.097566
H130	H	0.650191	0.272090	0.597566
H131	H	0.074535	-0.178596	0.144146
H132	H	0.574535	0.321404	0.644146
N133	N	0.674555	-0.174688	0.106470
N134	N	1.174555	0.325312	0.606470
H135	H	0.701087	-0.178437	0.153894
H136	H	1.201087	0.321563	0.653894
H137	H	0.637523	-0.227896	0.105848
H138	H	1.137523	0.272104	0.605848
H139	H	0.766739	0.000060	-0.508480
H140	H	1.266739	0.500060	-0.008480
H141	H	0.920667	-0.558021	0.228181
H142	H	1.420667	-0.058021	0.728181
N143	N	0.277229	-0.174668	0.100129
N144	N	0.777229	0.325332	0.600129
H145	H	0.316202	-0.178423	0.053757
H146	H	0.816202	0.321577	0.553757
H147	H	0.303712	-0.178359	0.147585
H148	H	0.803712	0.321641	0.647585
H149	H	0.993388	-0.557700	0.002630
H150	H	1.493388	-0.057700	0.502630
H151	H	0.664181	0.152581	0.106284
H152	H	1.164181	0.652581	0.606284
N153	N	0.746059	0.000058	-0.659726
N154	N	1.246059	0.500058	-0.159726
H155	H	0.702959	0.000054	-0.616951
H156	H	1.202959	0.500054	-0.116951
H157	H	0.742536	0.057229	-0.692086
H158	H	1.242536	0.557229	-0.192086
N159	N	1.038866	-0.433170	0.132964
N160	N	1.538866	0.066830	0.632964
H161	H	1.038383	-0.363139	0.132891
H162	H	1.538383	0.136861	0.632891
H163	H	1.049906	-0.456282	0.184413
H164	H	1.549906	0.043718	0.684413
H165	H	0.867078	-0.441815	-0.024174
H166	H	1.367078	0.058185	0.475826
N167	N	0.510461	-0.174682	0.103850
N168	N	1.010461	0.325318	0.603850
H169	H	0.547503	-0.227939	0.103913
H170	H	1.047503	0.272061	0.603913
H171	H	0.471852	-0.178623	0.150498
H172	H	0.971852	0.321377	0.650498
N173	N	0.748971	-0.566865	0.071138
N174	N	1.248971	-0.066865	0.571138
H175	H	0.708330	-0.544417	0.111835
H176	H	1.208330	-0.044417	0.611835
H177	H	0.737659	-0.543396	0.019883
H178	H	1.237659	-0.043396	0.519883
H179	H	1.014698	0.000106	-0.684870
H180	H	1.514698	0.500106	-0.184870
H181	H	1.016980	0.000088	-0.541660
H182	H	1.516980	0.500088	-0.041660
N183	N	1.039087	0.000087	-0.300417
N184	N	1.539087	0.500087	0.199583
H185	H	1.083367	0.000086	-0.269224
H186	H	1.583367	0.500086	0.230776
H187	H	1.041558	-0.057086	-0.333564
H188	H	1.541558	0.442914	0.166436
H189	H	1.023312	0.000099	-0.144340
H190	H	1.523312	0.500099	0.355660
N191	N	0.755008	0.000057	-0.098317
N192	N	1.255008	0.500057	0.401683
H193	H	0.710726	0.000047	-0.129507
H194	H	1.210726	0.500047	0.370493
H195	H	0.752525	-0.057115	-0.065161
H196	H	1.252525	0.442885	0.434839
