data_functionalizedCrystal
_audit_creation_method	'MofGen! by Chris Wilmer'
_symmetry_space_group_name_H-M	'P1'
_symmetry_Int_Tables_number	1
_symmetry_cell_setting	triclinic
loop_
_symmetry_equiv_pos_as_xyz
  x,y,z
_cell_length_a	13.033293
_cell_length_b	13.897447
_cell_length_c	13.897441
_cell_angle_alpha	90.029327
_cell_angle_beta	97.210764
_cell_angle_gamma	97.189355
loop_
_atom_site_label
_atom_site_type_symbol
_atom_site_fract_x
_atom_site_fract_y
_atom_site_fract_z
Zn1	Zn	1.597780	-0.196864	0.733034
Zn2	Zn	1.597660	-0.358200	0.571725
Zn3	Zn	1.423005	-0.217375	0.551227
Zn4	Zn	1.422979	-0.378590	0.712463
O5	O	1.510356	-0.287757	0.642112
O6	O	1.744012	-0.201148	0.728824
O7	O	1.574452	-0.339569	0.434019
O8	O	1.446250	-0.079665	0.575374
O9	O	1.743924	-0.319681	0.610311
O10	O	1.574657	-0.064596	0.708948
O11	O	1.446133	-0.236106	0.418960
O12	O	1.276753	-0.255877	0.555427
O13	O	1.446207	-0.354433	0.850178
O14	O	1.276735	-0.374322	0.673887
O15	O	1.574632	-0.220920	0.865292
O16	O	1.574427	-0.495893	0.590364
O17	O	1.446090	-0.510874	0.693763
C18	C	1.238823	-0.319539	0.610201
C19	C	1.122660	-0.333158	0.596572
C20	C	1.070915	-0.280673	0.649225
C21	C	0.950855	-0.294748	0.635140
C22	C	1.510271	-0.538381	0.642080
C23	C	1.510330	-0.645588	0.642110
C24	C	1.510381	-0.732652	0.642137
C25	C	1.510454	-0.841876	0.642171
C26	C	1.782949	-0.255852	0.674148
C27	C	1.899112	-0.242256	0.687800
C28	C	1.510430	-0.287663	0.893714
C29	C	1.510462	-0.287623	1.000932
C30	C	1.510470	-0.036151	0.642169
C31	C	1.510518	0.071069	0.642193
C32	C	1.510342	-0.287774	0.391496
C33	C	1.510513	-0.287519	0.284303
C34	C	1.510490	-0.287555	1.197230
C35	C	1.510471	-0.287596	1.087996
H36	H	1.078077	-0.388510	0.541065
O37	O	0.952328	-0.176346	0.754133
C38	C	1.015511	-0.223981	0.823683
H39	H	0.982540	-0.303798	0.825667
H40	H	1.098182	-0.217641	0.803484
C41	C	1.057888	-0.078728	0.921822
C42	C	1.017387	-0.176760	0.924265
H43	H	1.059050	-0.049598	0.983866
H44	H	1.015324	-0.046633	0.874964
H45	H	1.126777	-0.073458	0.904986
H46	H	0.948496	-0.182028	0.941089
H47	H	1.059940	-0.208854	0.971129
O48	O	1.124253	-0.214705	0.715432
C49	C	1.232254	-0.215326	0.714743
H50	H	1.247023	-0.288008	0.684744
H51	H	1.263216	-0.154444	0.667081
C52	C	1.270311	-0.110793	0.855746
C53	C	1.288452	-0.200066	0.818908
H54	H	1.304979	-0.101375	0.919998
H55	H	1.197550	-0.110371	0.856208
H56	H	1.296113	-0.060068	0.816018
H57	H	1.262639	-0.250789	0.858628
H58	H	1.361211	-0.200495	0.818454
O59	O	0.897635	-0.360901	0.569050
C60	C	0.834489	-0.430601	0.616505
H61	H	0.867488	-0.432808	0.696309
H62	H	0.751811	-0.410404	0.610247
C63	C	0.792088	-0.528327	0.470975
C64	C	0.832624	-0.531043	0.568991
H65	H	0.790933	-0.590284	0.441664
H66	H	0.834628	-0.481367	0.439002
H67	H	0.723194	-0.511492	0.465773
H68	H	0.901521	-0.547866	0.574190
H69	H	0.790096	-0.578008	0.600963
