data_functionalizedCrystal
_audit_creation_method	'MofGen! by Chris Wilmer'
_symmetry_space_group_name_H-M	'P1'
_symmetry_Int_Tables_number	1
_symmetry_cell_setting	triclinic
loop_
_symmetry_equiv_pos_as_xyz
  x,y,z
_cell_length_a	10.723024
_cell_length_b	14.044220
_cell_length_c	9.198806
_cell_angle_alpha	89.995861
_cell_angle_beta	89.996352
_cell_angle_gamma	88.828373
loop_
_atom_site_label
_atom_site_type_symbol
_atom_site_fract_x
_atom_site_fract_y
_atom_site_fract_z
O1	O	1.670498	0.133040	-0.120888
O2	O	2.170498	0.633040	0.379112
O3	O	1.308620	0.145774	-0.120893
O4	O	1.808620	0.645774	0.379107
O5	O	1.484127	0.001387	-0.120876
O6	O	1.984127	0.501387	0.379124
O7	O	1.494991	0.277427	-0.120905
O8	O	1.994991	0.777427	0.379095
O9	O	1.484112	0.001387	0.120909
O10	O	1.984112	0.501387	0.620909
O11	O	1.308604	0.145774	0.120892
O12	O	1.808604	0.645774	0.620892
O13	O	1.670483	0.133039	0.120898
O14	O	2.170483	0.633039	0.620898
Cu15	Cu	1.489542	0.139407	0.142972
Cu16	Cu	1.989542	0.639407	0.642972
Cu17	Cu	1.489560	0.139407	-0.142967
Cu18	Cu	1.989560	0.639407	0.357033
O19	O	1.494975	0.277427	0.120881
O20	O	1.994975	0.777427	0.620881
C21	C	1.262020	0.144847	-0.000001
C22	C	1.762020	0.644847	0.499999
C23	C	1.123188	0.142075	-0.000003
C24	C	1.623188	0.642075	0.499997
C25	C	1.056288	0.222866	-0.000012
C26	C	1.556288	0.722866	0.499988
C27	C	0.912798	0.220002	-0.000013
C28	C	1.412798	0.720002	0.499987
C29	C	1.479364	-0.033958	0.000017
C30	C	1.979364	0.466042	0.500017
C31	C	1.465180	-0.139276	0.000019
C32	C	1.965180	0.360724	0.500019
C33	C	1.439248	-0.332106	-0.000003
C34	C	1.939248	0.167894	0.499997
C35	C	1.539849	-0.389085	-0.000006
C36	C	2.039849	0.110915	0.499994
C37	C	1.525420	-0.496383	-0.000017
C38	C	2.025420	0.003617	0.499983
C39	C	1.453675	-0.224799	0.000009
C40	C	1.953675	0.275201	0.500009
C41	C	1.717083	0.133966	0.000002
C42	C	2.217083	0.633966	0.500002
C43	C	1.855914	0.136739	-0.000006
C44	C	2.355914	0.636739	0.499994
C45	C	1.499738	0.312772	-0.000016
C46	C	1.999738	0.812772	0.499984
C47	C	1.513923	0.418090	-0.000027
C48	C	2.013923	0.918090	0.499973
N49	N	1.489539	0.139406	0.344086
N50	N	1.989539	0.639406	0.844086
N51	N	1.489573	0.139401	-0.344081
N52	N	1.989573	0.639401	0.155919
C53	C	1.563202	0.078514	0.416290
C54	C	2.063202	0.578514	0.916290
C55	C	1.563221	0.078511	0.583702
C56	C	2.063221	0.578511	1.083702
H57	H	0.913420	0.067571	-0.000007
H58	H	1.413420	0.567571	0.499993
H59	H	1.626251	0.026381	0.354170
H60	H	2.126251	0.526381	0.854170
Br61	Br	0.816948	0.335288	-0.000044
Br62	Br	1.316948	0.835288	0.499956
H63	H	1.426508	0.191538	0.593836
H64	H	1.926508	0.691538	1.093836
Br65	Br	1.384430	0.226289	0.447613
Br66	Br	1.884430	0.726289	0.947613
Br67	Br	1.041608	0.023248	0.000026
Br68	Br	1.541608	0.523248	0.500026
H69	H	1.626293	0.026383	0.645795
H70	H	2.126293	0.526383	1.145795
H71	H	1.105243	0.294155	-0.000011
H72	H	1.605243	0.794155	0.499989
Br73	Br	1.701465	-0.336086	0.000009
Br74	Br	2.201465	0.163914	0.500009
H75	H	1.342291	-0.363906	-0.000008
H76	H	1.842291	0.136094	0.499992
