data_functionalizedCrystal
_audit_creation_method	'MofGen! by Chris Wilmer'
_symmetry_space_group_name_H-M	'P1'
_symmetry_Int_Tables_number	1
_symmetry_cell_setting	triclinic
loop_
_symmetry_equiv_pos_as_xyz
  x,y,z
_cell_length_a	9.798715
_cell_length_b	10.654550
_cell_length_c	10.654550
_cell_angle_alpha	84.484931
_cell_angle_beta	89.997004
_cell_angle_gamma	89.999550
loop_
_atom_site_label
_atom_site_type_symbol
_atom_site_fract_x
_atom_site_fract_y
_atom_site_fract_z
O1	O	0.113389	-1.667840	-0.176396
O2	O	0.113414	-1.302362	-0.193202
O3	O	0.113392	-1.493504	-0.002060
O4	O	0.113410	-1.476698	-0.367539
O5	O	-0.113590	-1.493489	-0.002060
O6	O	-0.113568	-1.302347	-0.193202
O7	O	-0.113593	-1.667826	-0.176396
Zn8	Zn	-0.149619	-1.485084	-0.184799
Zn9	Zn	0.149440	-1.485103	-0.184799
O10	O	-0.113572	-1.476683	-0.367538
C11	C	-0.000074	-1.255556	-0.191968
C12	C	-0.000065	-1.116113	-0.188276
C13	C	-0.000098	-1.492263	0.044738
C14	C	-0.000096	-1.488571	0.184181
N15	N	-0.353719	-1.485080	-0.184798
C16	C	-0.421505	-1.565336	-0.104188
C17	C	-0.578668	-1.565356	-0.104184
N18	N	0.353539	-1.485117	-0.184791
C19	C	-0.000102	-1.714631	-0.177630
C20	C	-0.000103	-1.854074	-0.181322
C21	C	-0.000063	-1.036628	-0.300818
C22	C	-0.000087	-0.905607	-0.297341
C23	C	-0.000109	-0.933570	-0.068772
C24	C	-0.000095	-1.064588	-0.072250
C25	C	-0.000078	-1.477925	-0.414336
C26	C	-0.000072	-1.481616	-0.553779
C27	C	-0.000103	-1.601112	0.263667
C28	C	-0.000086	-1.597636	0.394688
C29	C	-0.000061	-1.369066	0.366725
C30	C	-0.000068	-1.372544	0.235706
H31	H	-0.363190	-1.634027	-0.035174
C32	C	0.116628	-1.178796	0.171524
C33	C	-0.000061	-1.248826	0.148328
H34	H	0.116629	-1.102420	0.117585
H35	H	0.195761	-1.226331	0.155787
H36	H	0.116617	-1.160128	0.256930
H37	H	-0.000045	-1.267503	0.062923
H38	H	-0.079214	-1.201282	0.164055
H39	H	-0.000049	-1.078574	-0.395294
H40	H	-0.588177	-1.416408	-0.253812
C41	C	-0.116774	-1.228161	0.056440
C42	C	-0.000095	-1.151970	0.051466
H43	H	-0.116778	-1.282099	0.132817
H44	H	-0.116752	-1.277591	-0.013149
H45	H	-0.195922	-1.176459	0.053046
H46	H	0.079053	-1.203671	0.054851
H47	H	-0.000104	-1.102535	0.121074
C48	C	-0.514611	-1.314595	-0.210785
C49	C	-0.432436	-1.392340	-0.277961
H50	H	-0.563210	-1.257345	-0.268305
H51	H	-0.458873	-1.268755	-0.158293
H52	H	-0.577496	-1.364963	-0.160214
H53	H	-0.369543	-1.341972	-0.328526
H54	H	-0.488178	-1.438184	-0.330475
C55	C	-0.116772	-0.742064	-0.426045
C56	C	-0.000078	-0.818235	-0.421051
H57	H	-0.116769	-0.688131	-0.502425
H58	H	-0.116781	-0.692627	-0.356460
H59	H	-0.195910	-0.793778	-0.422656
H60	H	0.079060	-0.766521	-0.424430
H61	H	-0.000057	-0.867676	-0.490654
H62	H	-0.000141	-0.891602	0.025693
C63	C	-0.000101	-1.826692	0.304472
C64	C	-0.000109	-1.728647	0.207029
H65	H	-0.000091	-1.905427	0.269506
H66	H	-0.079249	-1.820582	0.354994
H67	H	0.079059	-1.820570	0.354988
H68	H	-0.079275	-1.734763	0.156518
H69	H	0.079047	-1.734759	0.156486
C70	C	0.116636	-1.232570	0.497848
C71	C	-0.000045	-1.241537	0.423371
H72	H	0.116636	-1.153840	0.532823
H73	H	0.195774	-1.238675	0.447311
H74	H	0.116617	-1.299107	0.563934
H75	H	-0.000021	-1.175005	0.357279
H76	H	-0.079203	-1.235420	0.473911
C77	C	-0.622917	-1.636595	0.112658
C78	C	-0.657350	-1.658115	-0.011010
H79	H	-0.671489	-1.693868	0.170180
H80	H	-0.646287	-1.552591	0.126805
H81	H	-0.527621	-1.648754	0.124863
H82	H	-0.752644	-1.645947	-0.023218
H83	H	-0.633989	-1.742140	-0.025162
H84	H	-0.000089	-1.689279	0.459401
