data_functionalizedCrystal
_audit_creation_method	'MofGen! by Chris Wilmer'
_symmetry_space_group_name_H-M	'P1'
_symmetry_Int_Tables_number	1
_symmetry_cell_setting	triclinic
loop_
_symmetry_equiv_pos_as_xyz
  x,y,z
_cell_length_a	6.394989
_cell_length_b	10.723024
_cell_length_c	9.198806
_cell_angle_alpha	89.996352
_cell_angle_beta	89.999906
_cell_angle_gamma	85.482790
loop_
_atom_site_label
_atom_site_type_symbol
_atom_site_fract_x
_atom_site_fract_y
_atom_site_fract_z
O1	O	0.293022	1.660298	-0.120872
O2	O	0.321070	1.297443	-0.120876
O3	O	0.003055	1.484021	-0.120876
O4	O	0.611036	1.473720	-0.120873
O5	O	0.003054	1.484006	0.120909
O6	O	0.321069	1.297428	0.120909
O7	O	0.293021	1.660282	0.120913
Cu8	Cu	0.307045	1.478854	0.142988
Cu9	Cu	0.307046	1.478872	-0.142951
O10	O	0.611035	1.473705	0.120912
C11	C	0.319028	1.250914	0.000016
C12	C	0.312921	1.112295	0.000014
C13	C	0.490865	1.039201	0.000013
C14	C	0.484558	0.895931	0.000011
C15	C	0.688886	1.475749	0.000013
C16	C	0.925210	1.481973	0.000009
C17	C	0.295062	1.706811	0.000018
C18	C	0.301169	1.845430	0.000010
N19	N	0.307043	1.478850	0.344102
N20	N	0.307031	1.478885	-0.344065
C21	C	0.172929	1.557183	0.416299
C22	C	0.172922	1.557202	0.583711
H23	H	0.148827	0.908239	0.000001
N24	N	0.020836	1.646047	0.665942
H25	H	-0.127596	1.629122	0.639536
H26	H	0.045994	1.735042	0.639468
N27	N	0.104934	1.054696	0.000026
H28	H	0.094194	1.001176	-0.089602
H29	H	-0.012834	1.123225	0.000083
N30	N	0.020781	1.645971	0.334021
H31	H	0.042331	1.633358	0.226089
H32	H	0.045766	1.734984	0.360509
H33	H	0.421866	1.411822	0.593858
H34	H	0.421850	1.411796	0.406229
H35	H	0.636892	0.833115	0.000005
N36	N	0.698862	1.096789	0.000024
H37	H	0.673885	1.190974	0.000026
H38	H	0.780930	1.068901	-0.089610
