data_functionalizedCrystal
_audit_creation_method	'MofGen! by Chris Wilmer'
_symmetry_space_group_name_H-M	'P1'
_symmetry_Int_Tables_number	1
_symmetry_cell_setting	triclinic
loop_
_symmetry_equiv_pos_as_xyz
  x,y,z
_cell_length_a	16.959455
_cell_length_b	18.101396
_cell_length_c	16.959447
_cell_angle_alpha	90.028837
_cell_angle_beta	89.979626
_cell_angle_gamma	89.965957
loop_
_atom_site_label
_atom_site_type_symbol
_atom_site_fract_x
_atom_site_fract_y
_atom_site_fract_z
Zn1	Zn	1.208291	0.294874	-0.447044
Zn2	Zn	1.708291	0.794874	0.052956
Zn3	Zn	1.208174	0.418727	-0.314869
Zn4	Zn	1.708174	0.918727	0.185131
Zn5	Zn	1.076119	0.294897	-0.314868
Zn6	Zn	1.576119	0.794897	0.185132
Zn7	Zn	1.076045	0.418672	-0.446994
Zn8	Zn	1.576045	0.918672	0.053006
O9	O	1.142157	0.356792	-0.380944
O10	O	1.642157	0.856792	0.119056
O11	O	1.318886	0.311317	-0.429533
O12	O	1.818886	0.811317	0.070467
O13	O	1.190639	0.402333	-0.204258
O14	O	1.690639	0.902333	0.295742
O15	O	1.093732	0.191261	-0.332422
O16	O	1.593732	0.691261	0.167578
O17	O	1.318800	0.402311	-0.332424
O18	O	1.818800	0.902311	0.167576
O19	O	1.190838	0.191244	-0.429532
O20	O	1.690838	0.691244	0.070468
O21	O	1.093619	0.311356	-0.204257
O22	O	1.593619	0.811356	0.295743
O23	O	0.965498	0.311303	-0.332373
O24	O	1.465498	0.811303	0.167627
O25	O	1.093605	0.402217	-0.557612
O26	O	1.593605	0.902217	-0.057612
O27	O	0.965444	0.402239	-0.429445
O28	O	1.465444	0.902239	0.070555
O29	O	1.190766	0.311263	-0.557649
O30	O	1.690766	0.811263	-0.057649
O31	O	1.190567	0.522352	-0.332375
O32	O	1.690567	1.022352	0.167625
O33	O	1.093492	0.522312	-0.429447
O34	O	1.593492	1.022312	0.070553
C35	C	0.936791	0.356768	-0.380904
C36	C	1.436791	0.856768	0.119096
C37	C	0.848934	0.356776	-0.380906
C38	C	1.348934	0.856776	0.119094
C39	C	0.477403	0.404126	-0.330354
C40	C	0.977403	0.904126	0.169646
C41	C	0.477514	0.309520	-0.431630
C42	C	0.977514	0.809520	0.068370
C43	C	0.560060	0.309508	-0.431611
C44	C	1.060060	0.809508	0.068389
C45	C	0.601281	0.356806	-0.380963
C46	C	1.101281	0.856806	0.119037
C47	C	0.559957	0.404117	-0.330335
C48	C	1.059957	0.904117	0.169665
C49	C	0.601390	0.262203	-0.482244
C50	C	1.101390	0.762203	0.017756
C51	C	0.683941	0.262190	-0.482228
C52	C	1.183941	0.762190	0.017772
C53	C	0.725164	0.309485	-0.431575
C54	C	1.225164	0.809485	0.068425
C55	C	0.683835	0.356797	-0.380944
C56	C	1.183835	0.856797	0.119056
C57	C	0.725056	0.404096	-0.330296
C58	C	1.225056	0.904096	0.169704
C59	C	0.683728	0.451404	-0.279660
C60	C	1.183728	0.951404	0.220340
C61	C	0.601180	0.451412	-0.279682
C62	C	1.101180	0.951412	0.220318
C63	C	0.807713	0.309477	-0.431554
C64	C	1.307713	0.809477	0.068446
C65	C	0.807610	0.404086	-0.330277
C66	C	1.307610	0.904086	0.169723
C67	C	1.142030	0.549203	-0.380923
C68	C	1.642030	1.049203	0.119077
C69	C	1.142048	0.631517	-0.380940
C70	C	1.642048	1.131517	0.119060
C71	C	1.142189	0.930608	-0.380986
C72	C	1.642189	1.430608	0.119014
C73	C	1.081257	0.899288	-0.442212
C74	C	1.581257	1.399288	0.057788
C75	C	1.080977	0.813670	-0.442020
C76	C	1.580977	1.313670	0.057980
C77	C	1.142119	0.782225	-0.380964
C78	C	1.642119	1.282225	0.119036
C79	C	1.119569	0.813379	-0.297658
C80	C	1.619569	1.313379	0.202342
C81	C	1.119167	0.899024	-0.298025
C82	C	1.619167	1.399024	0.201975
C83	C	1.225808	0.898955	-0.402333
C84	C	1.725808	1.398955	0.097667
C85	C	1.225325	0.813304	-0.404159
C86	C	1.725325	1.313304	0.095841
C87	C	1.142081	0.698366	-0.380947
C88	C	1.642081	1.198366	0.119053
C89	C	1.142225	1.014467	-0.380999
C90	C	1.642225	1.514467	0.119001
C91	C	1.348325	0.356817	-0.380984
C92	C	1.848325	0.856817	0.119016
C93	C	1.436182	0.356828	-0.381002
C94	C	1.936182	0.856828	0.118998
C95	C	1.142190	0.356731	-0.587112
C96	C	1.642190	0.856731	-0.087112
C97	C	1.142204	0.356705	-0.674969
C98	C	1.642204	0.856705	-0.174969
C99	C	1.142278	1.163630	-0.380985
C100	C	1.642278	1.663630	0.119015
C101	C	1.142259	1.081316	-0.381010
C102	C	1.642259	1.581316	0.118990
C103	C	1.091712	0.403982	-1.046428
C104	C	1.591712	0.903982	-0.546428
C105	C	1.192886	0.309272	-1.046462
C106	C	1.692886	0.809272	-0.546462
C107	C	1.192865	0.309287	-0.963916
C108	C	1.692865	0.809287	-0.463916
C109	C	1.142267	0.356652	-0.922622
C110	C	1.642267	0.856652	-0.422622
C111	C	1.091691	0.404001	-0.963874
C112	C	1.591691	0.904001	-0.463874
C113	C	1.243446	0.261944	-0.922657
C114	C	1.743446	0.761944	-0.422657
C115	C	1.243427	0.261959	-0.840106
C116	C	1.743427	0.761959	-0.340106
C117	C	1.192825	0.309320	-0.798811
C118	C	1.692825	0.809320	-0.298811
C119	C	1.142246	0.356671	-0.840068
C120	C	1.642246	0.856671	-0.340068
C121	C	1.091649	0.404035	-0.798775
C122	C	1.591649	0.904035	-0.298775
C123	C	1.041065	0.451383	-0.840031
C124	C	1.541065	0.951383	-0.340031
C125	C	1.041088	0.451363	-0.922579
C126	C	1.541088	0.951363	-0.422579
C127	C	1.192802	0.309340	-0.716263
C128	C	1.692802	0.809340	-0.216263
C129	C	1.091628	0.404054	-0.716221
C130	C	1.591628	0.904054	-0.216221
C131	C	1.142170	0.356800	-0.175578
C132	C	1.642170	0.856800	0.324422
C133	C	1.142309	0.356618	-0.087722
C134	C	1.642309	0.856618	0.412278
H135	H	0.841167	0.442601	-0.289030
H136	H	1.341167	0.942601	0.210970
N137	N	0.558976	0.499736	-0.227957
N138	N	1.058976	0.999736	0.272043
N139	N	0.568151	0.494740	-0.155027
N140	N	1.068151	0.994740	0.344973
H141	H	0.538342	0.528870	-0.118497
H142	H	1.038342	1.028870	0.381503
N143	N	0.725851	0.499719	-0.227938
N144	N	1.225851	0.999719	0.272062
N145	N	0.799555	0.499705	-0.227940
N146	N	1.299555	0.999705	0.272060
H147	H	0.829309	0.533827	-0.191414
H148	H	1.329309	1.033827	0.308586
H149	H	1.050525	0.442529	-1.080022
H150	H	1.550525	0.942529	-0.580022
N151	N	1.003980	0.926372	-0.424695
N152	N	1.503980	1.426372	0.075305
N153	N	0.993586	0.968640	-0.367314
N154	N	1.493586	1.468640	0.132686
H155	H	0.939009	0.987771	-0.354940
H156	H	1.439009	1.487771	0.145060
N157	N	1.043697	0.786570	-0.274573
N158	N	1.543697	1.286570	0.225427
N159	N	0.988948	0.831049	-0.260959
N160	N	1.488948	1.331049	0.239041
H161	H	0.935360	0.812117	-0.244659
H162	H	1.435360	1.312117	0.255341
H163	H	1.050417	0.442618	-0.682606
H164	H	1.550417	0.942618	-0.182606
H165	H	0.443751	0.442642	-0.289125
H166	H	0.943751	0.942642	0.210875
H167	H	1.234084	0.270713	-1.080088
H168	H	1.734084	0.770713	-0.580088
N169	N	0.849939	0.261168	-0.483271
N170	N	1.349939	0.761168	0.016729
N171	N	0.896021	0.287279	-0.533576
N172	N	1.396021	0.787279	-0.033576
H173	H	0.925844	0.253158	-0.570104
H174	H	1.425844	0.753158	-0.070104
N175	N	0.435398	0.261220	-0.483365
N176	N	0.935398	0.761220	0.016635
N177	N	0.361695	0.261240	-0.483379
N178	N	0.861695	0.761240	0.016621
H179	H	0.331946	0.227126	-0.519918
H180	H	0.831946	0.727126	-0.019918
H181	H	1.019001	0.793244	-0.427879
H182	H	1.519001	1.293244	0.072121
H183	H	1.161622	0.919745	-0.250851
H184	H	1.661622	1.419745	0.249149
N185	N	1.295090	0.213582	-0.797983
N186	N	1.795090	0.713582	-0.297983
N187	N	1.289899	0.145245	-0.807230
N188	N	1.789899	0.645245	-0.307230
H189	H	1.326385	0.111076	-0.777481
H190	H	1.826385	0.611076	-0.277481
N191	N	0.559273	0.213904	-0.533978
N192	N	1.059273	0.713904	-0.033978
N193	N	0.485569	0.213920	-0.533984
N194	N	0.985569	0.713920	-0.033984
H195	H	0.455819	0.179807	-0.570523
H196	H	0.955819	0.679807	-0.070523
H197	H	0.717584	0.223668	-0.523458
H198	H	1.217584	0.723668	-0.023458
H199	H	1.284645	0.223387	-0.956285
H200	H	1.784645	0.723387	-0.456285
H201	H	1.058042	0.919064	-0.279943
H202	H	1.558042	1.419064	0.220057
N203	N	1.098677	0.787250	-0.519513
N204	N	1.598677	1.287250	-0.019513
N205	N	1.111322	0.832064	-0.574117
N206	N	1.611322	1.332064	-0.074117
H207	H	1.123820	0.813408	-0.628851
H208	H	1.623820	1.313408	-0.128851
H209	H	1.233988	0.270793	-0.682676
H210	H	1.733988	0.770793	-0.182676
N211	N	1.098820	0.925014	-0.519963
N212	N	1.598820	1.425014	-0.019963
N213	N	1.156444	0.966739	-0.531162
N214	N	1.656444	1.466739	-0.031162
H215	H	1.168865	0.984894	-0.586079
H216	H	1.668865	1.484894	-0.086079
N217	N	1.173503	0.787830	-0.238874
N218	N	1.673503	1.287830	0.261126
N219	N	1.229295	0.746275	-0.257768
N220	N	1.729295	1.246275	0.242232
H221	H	1.267388	0.728230	-0.216253
H222	H	1.767388	1.228230	0.283747
H223	H	1.246362	0.920502	-0.462046
H224	H	1.746362	1.420502	0.037954
N225	N	1.246652	0.787754	-0.481071
N226	N	1.746652	1.287754	0.018929
N227	N	1.200785	0.746807	-0.518707
N228	N	1.700785	1.246807	-0.018707
H229	H	1.215843	0.728759	-0.573027
H230	H	1.715843	1.228759	-0.073027
N231	N	0.989382	0.499774	-0.797859
N232	N	1.489382	0.999774	-0.297859
N233	N	0.994571	0.568108	-0.807061
N234	N	1.494571	1.068108	-0.307061
H235	H	0.958071	0.602284	-0.777276
H236	H	1.458071	1.102284	-0.277276
N237	N	1.285298	0.786444	-0.352300
N238	N	1.785298	1.286444	0.147700
N239	N	1.297625	0.718563	-0.346671
N240	N	1.797625	1.218563	0.153329
H241	H	1.339978	0.699594	-0.310037
H242	H	1.839978	1.199594	0.189963
N243	N	1.282750	0.924361	-0.346385
N244	N	1.782750	1.424361	0.153615
N245	N	1.261946	0.965599	-0.291008
N246	N	1.761946	1.465599	0.208992
H247	H	1.302155	0.983545	-0.251491
H248	H	1.802155	1.483545	0.248509
H249	H	0.999908	0.489912	-0.956177
H250	H	1.499908	0.989912	-0.456177
