data_functionalizedCrystal
_audit_creation_method	'MofGen! by Chris Wilmer'
_symmetry_space_group_name_H-M	'P1'
_symmetry_Int_Tables_number	1
_symmetry_cell_setting	triclinic
loop_
_symmetry_equiv_pos_as_xyz
  x,y,z
_cell_length_a	16.109301
_cell_length_b	10.654550
_cell_length_c	15.186229
_cell_angle_alpha	89.996404
_cell_angle_beta	89.999362
_cell_angle_gamma	83.973206
loop_
_atom_site_label
_atom_site_type_symbol
_atom_site_fract_x
_atom_site_fract_y
_atom_site_fract_z
O1	O	1.104090	0.161419	-0.073173
O2	O	0.862148	0.181507	-0.073187
O3	O	0.988682	-0.011352	-0.073174
O4	O	0.977556	0.354278	-0.073185
O5	O	0.988673	-0.011354	0.073284
O6	O	0.862139	0.181504	0.073271
O7	O	1.104082	0.161416	0.073285
Zn8	Zn	0.983109	0.171460	0.096531
Zn9	Zn	0.983120	0.171463	-0.096433
O10	O	0.977548	0.354275	0.073272
C11	C	0.831164	0.180692	0.000040
C12	C	0.738854	0.178253	0.000035
C13	C	0.517228	0.287019	0.000042
C14	C	0.430494	0.284717	0.000048
C15	C	0.449008	0.055896	0.000051
C16	C	0.535741	0.058199	0.000052
C17	C	0.569848	0.173764	0.000043
C18	C	0.396382	0.169159	0.000048
C19	C	0.302341	0.166662	0.000054
C20	C	0.663895	0.176262	0.000038
C21	C	0.987861	-0.058140	0.000054
C22	C	0.985417	-0.197550	0.000053
C23	C	1.059918	-0.278046	0.000057
C24	C	1.057616	-0.409036	0.000046
C25	C	0.906306	-0.379020	0.000031
C26	C	0.908608	-0.248033	0.000035
C27	C	1.145364	-0.606070	-0.051264
C28	C	1.219869	-0.686572	-0.051245
C29	C	1.287407	-0.657317	0.000083
C30	C	1.280443	-0.547563	0.051414
C31	C	1.205937	-0.467068	0.051402
C32	C	1.138402	-0.496322	0.000054
C33	C	0.820866	-0.050997	0.051353
C34	C	0.746359	0.029500	0.051348
C35	C	0.678814	0.000249	0.000025
C36	C	0.685769	-0.109507	-0.051292
C37	C	0.760277	-0.190004	-0.051287
C38	C	0.827822	-0.160745	0.000034
C39	C	1.135066	0.162231	0.000056
C40	C	1.227376	0.164671	0.000055
C41	C	0.978369	0.401063	0.000042
C42	C	0.980813	0.540473	0.000037
N43	N	0.983108	0.171457	0.228224
N44	N	0.983129	0.171457	-0.228126
C45	C	1.039156	0.086088	0.453952
C46	C	1.039159	0.086085	0.546142
C47	C	0.927074	0.256830	0.546140
C48	C	0.927068	0.256826	0.453952
C49	C	0.983114	0.171456	0.407860
C50	C	0.983122	0.171457	0.592238
C51	C	0.983125	0.171455	0.692194
C52	C	0.983111	0.171457	0.307898
H53	H	0.578586	-0.034032	0.000055
N54	N	1.227382	-0.804949	-0.106601
H55	H	1.173293	-0.811265	-0.139129
H56	H	1.274277	-0.801710	-0.150411
N57	N	0.866613	0.348896	0.404230
H58	H	0.831112	0.402983	0.447416
H59	H	0.898754	0.404427	0.365970
N60	N	0.412220	-0.068744	0.000066
H61	H	0.349291	-0.053020	0.000065
H62	H	0.431423	-0.118304	-0.054225
H63	H	1.084791	0.016573	0.416427
H64	H	1.122460	-0.236948	0.000069
N65	N	1.099616	-0.005974	0.595856
H66	H	1.135121	-0.060045	0.552666
H67	H	1.136641	0.042144	0.634093
H68	H	0.881444	0.326338	0.583676
N69	N	0.738852	0.147883	0.106697
H70	H	0.692001	0.144708	0.150574
H71	H	0.792985	0.154138	0.139150
H72	H	0.875873	-0.027152	0.093129
N73	N	1.198415	-0.348701	0.106760
H74	H	1.252505	-0.342383	0.139286
H75	H	1.186123	-0.272606	0.067403
N76	N	1.353282	-0.516027	0.106795
H77	H	1.401537	-0.583675	0.099016
H78	H	1.370787	-0.431933	0.087630
H79	H	0.618142	0.065794	0.000037
N80	N	0.554018	0.411657	0.000031
H81	H	0.507519	0.483053	0.000032
H82	H	0.589602	0.417595	0.054323
H83	H	0.387654	0.376940	0.000049
H84	H	1.090377	-0.629892	-0.093073
N85	N	0.823466	-0.433470	0.000016
H86	H	0.833311	-0.528665	0.000017
H87	H	0.790828	-0.404025	0.054307
N88	N	0.767783	-0.308389	-0.106634
H89	H	0.713688	-0.314710	-0.139149
H90	H	0.814669	-0.305145	-0.150456
H91	H	1.348071	-0.722871	0.000097
H92	H	0.630761	-0.133341	-0.093065
