data_functionalizedCrystal
_audit_creation_method	'MofGen! by Chris Wilmer'
_symmetry_space_group_name_H-M	'P1'
_symmetry_Int_Tables_number	1
_symmetry_cell_setting	triclinic
loop_
_symmetry_equiv_pos_as_xyz
  x,y,z
_cell_length_a	27.732048
_cell_length_b	19.288865
_cell_length_c	17.766277
_cell_angle_alpha	90.005144
_cell_angle_beta	90.006475
_cell_angle_gamma	82.889451
loop_
_atom_site_label
_atom_site_type_symbol
_atom_site_fract_x
_atom_site_fract_y
_atom_site_fract_z
O1	O	0.060297	0.920975	0.062577
O2	O	0.560297	1.420975	0.562577
O3	O	0.068431	0.718663	0.062585
O4	O	0.568431	1.218663	0.562585
O5	O	-0.006014	0.826102	0.062566
O6	O	0.493986	1.326102	0.562566
O7	O	0.134742	0.813536	0.062595
O8	O	0.634742	1.313536	0.562595
O9	O	-0.006011	0.826088	-0.062622
O10	O	0.493989	1.326088	0.437378
O11	O	0.068434	0.718649	-0.062604
O12	O	0.568434	1.218649	0.437396
O13	O	0.060299	0.920960	-0.062612
O14	O	0.560299	1.420960	0.437388
Cu15	Cu	0.064367	0.819803	-0.074038
Cu16	Cu	0.564367	1.319803	0.425962
Cu17	Cu	0.064364	0.819820	0.074011
Cu18	Cu	0.564364	1.319820	0.574011
O19	O	0.134744	0.813521	-0.062593
O20	O	0.634744	1.313521	0.437407
C21	C	-0.024020	0.825831	-0.000030
C22	C	0.475980	1.325831	0.499970
C23	C	-0.077678	0.825037	-0.000036
C24	C	0.422322	1.325037	0.499964
C25	C	0.068171	0.692781	-0.000009
C26	C	0.568171	1.192781	0.499991
C27	C	0.067385	0.615683	-0.000006
C28	C	0.567385	1.115683	0.499994
C29	C	0.060560	0.946842	-0.000017
C30	C	0.560560	1.446842	0.499983
C31	C	0.061345	1.023941	-0.000014
C32	C	0.561345	1.523941	0.499986
C33	C	-0.416316	0.883526	-0.000000
C34	C	0.083684	1.383526	0.500000
C35	C	-0.617985	0.880579	0.000011
C36	C	-0.117985	1.380579	0.500011
O37	O	-0.649079	0.934063	0.000041
O38	O	-0.149079	1.434063	0.500041
N39	N	-0.637301	0.816872	0.000012
N40	N	-0.137301	1.316872	0.500012
C41	C	-0.606196	0.753897	0.000017
C42	C	-0.106196	1.253897	0.500017
O43	O	-0.627253	0.699643	0.000026
O44	O	-0.127253	1.199643	0.500026
C45	C	-0.404529	0.756845	0.000011
C46	C	0.095471	1.256845	0.500011
C47	C	-0.385216	0.820556	0.000002
C48	C	0.114784	1.320556	0.500002
C49	C	-0.397002	0.947232	-0.000009
C50	C	0.102998	1.447232	0.499991
C51	C	-0.346588	0.947968	-0.000015
C52	C	0.153412	1.447968	0.499985
C53	C	-0.315488	0.884998	-0.000014
C54	C	0.184512	1.384998	0.499986
C55	C	-0.334801	0.821292	-0.000005
C56	C	0.165199	1.321292	0.499995
C57	C	-0.373425	0.693871	0.000021
C58	C	0.126575	1.193871	0.500021
C59	C	-0.323006	0.694614	0.000022
C60	C	0.176994	1.194614	0.500022
C61	C	-0.303693	0.758325	0.000012
C62	C	0.196307	1.258325	0.500012
C63	C	-0.253287	0.759059	-0.000010
C64	C	0.246713	1.259059	0.499990
N65	N	-0.233971	0.822765	-0.000012
N66	N	0.266029	1.322765	0.499988
C67	C	-0.265071	0.885735	-0.000014
C68	C	0.234929	1.385735	0.499986
C69	C	-0.712075	0.752354	0.000018
C70	C	-0.212075	1.252354	0.500018
C71	C	-0.762492	0.751617	0.000018
C72	C	-0.262492	1.251617	0.500018
C73	C	-0.774276	0.878299	0.000013
C74	C	-0.274276	1.378299	0.500013
C75	C	-0.723859	0.879035	0.000008
C76	C	-0.223859	1.379035	0.500008
C77	C	-0.692759	0.816061	0.000016
C78	C	-0.192759	1.316061	0.500016
C79	C	-0.159197	0.887276	-0.000028
C80	C	0.340803	1.387276	0.499972
C81	C	-0.108778	0.888007	-0.000038
C82	C	0.391222	1.388007	0.499962
C83	C	-0.096998	0.761325	-0.000030
C84	C	0.403002	1.261325	0.499970
C85	C	-0.147412	0.760594	-0.000024
C86	C	0.352588	1.260594	0.499976
C87	C	-0.178511	0.823576	-0.000021
C88	C	0.321489	1.323576	0.499979
O89	O	-0.222164	0.705603	-0.000032
O90	O	0.277836	1.205603	0.499968
O91	O	-0.244005	0.939982	-0.000006
O92	O	0.255995	1.439982	0.499994
C93	C	-0.466730	0.882790	0.000007
C94	C	0.033270	1.382790	0.500007
C95	C	-0.486044	0.819084	0.000015
C96	C	0.013956	1.319084	0.500015
C97	C	-0.454943	0.756114	0.000017
C98	C	0.045057	1.256114	0.500017
C99	C	-0.536461	0.818347	0.000015
C100	C	-0.036461	1.318347	0.500015
C101	C	-0.567561	0.881316	0.000013
C102	C	-0.067561	1.381316	0.500013
C103	C	-0.548245	0.945023	0.000012
C104	C	-0.048245	1.445023	0.500012
C105	C	-0.497831	0.945759	0.000005
C106	C	0.002169	1.445759	0.500005
C107	C	-0.474260	0.692407	0.000019
C108	C	0.025740	1.192407	0.500019
C109	C	-0.524674	0.691676	0.000025
C110	C	-0.024674	1.191676	0.500025
C111	C	-0.555775	0.754646	0.000023
C112	C	-0.055775	1.254646	0.500023
C113	C	0.152751	0.813792	0.000005
C114	C	0.652751	1.313792	0.500005
C115	C	0.206408	0.814587	0.000016
C116	C	0.706408	1.314587	0.500016
N117	N	0.064369	0.819797	-0.178169
N118	N	0.564369	1.319797	0.321831
C119	C	0.017664	1.068910	-0.000017
C120	C	0.517664	1.568910	0.499983
C121	C	0.018403	1.141352	-0.000021
C122	C	0.518403	1.641352	0.499979
C123	C	0.062824	1.168823	-0.000008
C124	C	0.562824	1.668823	0.499992
C125	C	0.106511	1.123844	-0.000010
C126	C	0.606511	1.623844	0.499990
C127	C	0.105771	1.051403	-0.000013
C128	C	0.605771	1.551403	0.499987
C129	C	0.097744	1.276887	0.043863
C130	C	0.597744	1.776887	0.543863
C131	C	0.098481	1.349327	0.043871
C132	C	0.598481	1.849327	0.543871
C133	C	0.065107	1.392254	-0.000001
C134	C	0.565107	1.892254	0.499999
C135	C	0.030986	1.362734	-0.043871
C136	C	0.530986	1.862734	0.456129
C137	C	0.030247	1.290293	-0.043874
C138	C	0.530247	1.790293	0.456126
C139	C	0.063631	1.247372	-0.000005
C140	C	0.563631	1.747372	0.499995
C141	C	0.022223	1.515774	-0.000009
C142	C	0.522223	2.015774	0.499991
C143	C	0.022963	1.588217	-0.000018
C144	C	0.522963	2.088217	0.499982
C145	C	0.111072	1.570707	0.000001
C146	C	0.611072	2.070707	0.500001
C147	C	0.110331	1.498266	0.000002
C148	C	0.610331	1.998266	0.500002
C149	C	0.065905	1.470803	0.000001
C150	C	0.565905	1.970803	0.500001
C151	C	0.093596	0.861643	-0.782452
C152	C	0.593596	1.361643	-0.282452
C153	C	0.093600	0.861636	-0.703650
C154	C	0.593600	1.361636	-0.203650
C155	C	0.064358	0.819827	-0.664258
C156	C	0.564358	1.319827	-0.164258
C157	C	0.035118	0.778008	-0.703673
C158	C	0.535118	1.278008	-0.203673
C159	C	0.035118	0.778011	-0.782473
C160	C	0.535118	1.278011	-0.282473
C161	C	0.020777	0.818372	-0.539422
C162	C	0.520777	1.318372	-0.039422
C163	C	0.020776	0.818374	-0.460624
C164	C	0.520776	1.318374	0.039376
C165	C	0.064359	0.819814	-0.421211
C166	C	0.564359	1.319814	0.078789
C167	C	0.107944	0.821266	-0.460608
C168	C	0.607944	1.321266	0.039392
C169	C	0.107944	0.821269	-0.539408
C170	C	0.607944	1.321269	-0.039408
C171	C	0.064355	0.819819	-0.578812
C172	C	0.564355	1.319819	-0.078812
C173	C	0.093605	0.861619	-0.296359
C174	C	0.593605	1.361619	0.203641
C175	C	0.093611	0.861607	-0.217556
C176	C	0.593611	1.361607	0.282444
C177	C	0.035124	0.777983	-0.217580
C178	C	0.535124	1.277983	0.282420
C179	C	0.035123	0.777991	-0.296382
C180	C	0.535123	1.277991	0.203618
C181	C	0.064362	0.819813	-0.335767
C182	C	0.564362	1.319813	0.164233
N183	N	0.064358	0.819833	0.178142
N184	N	0.564358	1.319833	0.678142
H185	H	-0.093056	0.939890	-0.000048
H186	H	0.406944	1.439890	0.499952
H187	H	-0.014715	0.817194	-0.571505
H188	H	0.485285	1.317194	-0.071505
N189	N	0.152880	1.002883	-0.000008
N190	N	0.652880	1.502883	0.499992
H191	H	0.154529	0.972436	-0.046417
H192	H	0.654529	1.472436	0.453583
H193	H	0.181114	1.031310	0.000024
H194	H	0.681114	1.531310	0.500024
H195	H	-0.014713	0.817197	-0.428553
H196	H	0.485287	1.317197	0.071447
N197	N	0.125130	0.906744	-0.661138
N198	N	0.625130	1.406744	-0.161138
H199	H	0.120691	0.900398	-0.605242
H200	H	0.620691	1.400398	-0.105242
H201	H	0.160313	0.892653	-0.674902
H202	H	0.660313	1.392653	-0.174902
H203	H	0.011310	0.743965	-0.671595
H204	H	0.511310	1.243965	-0.171595
H205	H	-0.018511	1.046555	-0.000021
H206	H	0.481489	1.546555	0.499979
N207	N	0.125140	0.906738	-0.824928
N208	N	0.625140	1.406738	-0.324928
H209	H	0.120705	0.900396	-0.880829
H210	H	0.620705	1.400396	-0.380829
H211	H	0.115499	0.957356	-0.811151
H212	H	0.615499	1.457356	-0.311151
N213	N	0.154956	0.822823	-0.418112
N214	N	0.654956	1.322823	0.081888
H215	H	0.148345	0.822598	-0.362214
H216	H	0.648345	1.322598	0.137786
H217	H	0.178374	0.780390	-0.431891
H218	H	0.678374	1.280390	0.068109
H219	H	-0.389141	0.641991	0.000033
H220	H	0.110859	1.141991	0.500033
H221	H	0.011309	0.743962	-0.814557
H222	H	0.511309	1.243962	-0.314557
H223	H	0.002466	1.266261	-0.079596
H224	H	0.502466	1.766261	0.420404
N225	N	-0.028712	1.189867	-0.000025
N226	N	0.471288	1.689867	0.499975
H227	H	-0.056967	1.161477	-0.000028
H228	H	0.443033	1.661477	0.499972
H229	H	-0.030320	1.220304	0.046386
H230	H	0.469680	1.720304	0.546386
N231	N	-0.005017	1.409024	-0.091190
N232	N	0.494983	1.909024	0.408810
H233	H	0.000628	1.459394	-0.084536
H234	H	0.500628	1.959394	0.415464
H235	H	-0.000628	1.395458	-0.145896
H236	H	0.499372	1.895458	0.354104
H237	H	-0.799607	0.929571	0.000011
H238	H	-0.299607	1.429571	0.500011
H239	H	0.126261	1.373356	0.079598
H240	H	0.626261	1.873356	0.579598
N241	N	-0.289462	0.626690	0.000034
N242	N	0.210538	1.126690	0.500034
H243	H	-0.309351	0.586223	0.000040
H244	H	0.190649	1.086223	0.500040
H245	H	-0.268292	0.624226	-0.046377
H246	H	0.231708	1.124226	0.453623
N247	N	-0.025690	1.486147	-0.000014
N248	N	0.474310	1.986147	0.499986
H249	H	-0.053251	1.525630	-0.000022
H250	H	0.446749	2.025630	0.499978
H251	H	-0.027915	1.456466	-0.046422
H252	H	0.472085	1.956466	0.453578
H253	H	-0.482111	0.997640	-0.000003
H254	H	0.017889	1.497640	0.499997
H255	H	-0.184513	0.938562	-0.000023
H256	H	0.315487	1.438562	0.499977
H257	H	-0.163138	0.708716	-0.000037
H258	H	0.336862	1.208716	0.499963
H259	H	0.143432	0.822449	-0.571481
H260	H	0.643432	1.322449	-0.071481
H261	H	-0.330868	0.999848	-0.000020
H262	H	0.169132	1.499848	0.499980
N263	N	-0.063442	0.693417	-0.000042
N264	N	0.436558	1.193417	0.499958
H265	H	-0.042255	0.690910	0.046362
H266	H	0.457745	1.190910	0.546362
H267	H	-0.083352	0.652976	-0.000068
H268	H	0.416648	1.152976	0.499932
N269	N	-0.581794	1.012942	0.000003
N270	N	-0.081794	1.512942	0.500003
H271	H	-0.616662	1.002801	0.000007
H272	H	-0.116662	1.502801	0.500007
H273	H	-0.575554	1.040737	0.046410
H274	H	-0.075554	1.540737	0.546410
H275	H	-0.448942	0.641128	0.000022
H276	H	0.051058	1.141128	0.500022
H277	H	0.145901	1.461651	0.000009
H278	H	0.645901	1.961651	0.500009
N279	N	-0.703030	0.947751	-0.000003
N280	N	-0.203030	1.447751	0.499997
H281	H	-0.730386	0.987526	-0.000006
H282	H	-0.230386	1.487526	0.499994
H283	H	-0.682367	0.950826	0.046407
H284	H	-0.182367	1.450826	0.546407
N285	N	-0.678538	0.684424	0.000018
N286	N	-0.178538	1.184424	0.500018
H287	H	-0.657361	0.681899	-0.046390
H288	H	-0.157361	1.181899	0.453610
H289	H	-0.657385	0.681942	0.046456
H290	H	-0.157385	1.181942	0.546456
N291	N	-0.430542	1.015155	-0.000012
N292	N	0.069458	1.515155	0.499988
H293	H	-0.410649	1.055617	-0.000018
H294	H	0.089351	1.555617	0.499982
H295	H	-0.451718	1.017604	-0.046423
H296	H	0.048282	1.517604	0.453577
N297	N	0.125143	0.906719	-0.338846
N298	N	0.625143	1.406719	0.161154
H299	H	0.143670	0.933201	-0.301921
H300	H	0.643670	1.433201	0.198079
H301	H	0.148825	0.876182	-0.371543
H302	H	0.648825	1.376182	0.128457
N303	N	0.133747	1.230588	0.091177
N304	N	0.633747	1.730588	0.591177
H305	H	0.155472	1.260280	0.118971
H306	H	0.655472	1.760280	0.618971
H307	H	0.115655	1.204065	0.128634
H308	H	0.615655	1.704065	0.628634
N309	N	0.158988	1.600319	0.000013
N310	N	0.658988	2.100319	0.500013
H311	H	0.161261	1.629981	-0.046393
H312	H	0.661261	2.129981	0.453607
H313	H	0.161231	1.629952	0.046453
H314	H	0.661231	2.129952	0.546453
N315	N	-0.783315	0.682897	0.000011
N316	N	-0.283315	1.182897	0.500011
H317	H	-0.771958	0.655340	0.046419
H318	H	-0.271958	1.155340	0.546419
H319	H	-0.819970	0.692031	-0.000020
H320	H	-0.319970	1.192031	0.499980
N321	N	-0.545502	0.622955	0.000023
N322	N	-0.045502	1.122955	0.500023
H323	H	-0.518145	0.583179	0.000023
H324	H	-0.018145	1.083179	0.500023
H325	H	-0.566157	0.619892	0.046435
H326	H	-0.066157	1.119892	0.546435
H327	H	0.117423	0.895653	-0.185473
H328	H	0.617423	1.395653	0.314527
N329	N	-0.024153	1.636721	-0.000014
N330	N	0.475847	2.136721	0.499986
H331	H	-0.016945	1.686780	-0.000015
H332	H	0.483055	2.186780	0.499985
H333	H	-0.043523	1.627878	-0.046423
H334	H	0.456477	2.127878	0.453577
N335	N	0.154423	1.153468	0.000001
N336	N	0.654423	1.653468	0.500001
H337	H	0.148264	1.206183	0.000005
H338	H	0.648264	1.706183	0.500005
H339	H	0.173531	1.136983	0.046412
H340	H	0.673531	1.636983	0.546412
N341	N	0.003587	0.732882	-0.175104
N342	N	0.503587	1.232882	0.324896
H343	H	0.008025	0.739222	-0.119204
H344	H	0.508025	1.239222	0.380796
H345	H	-0.031594	0.746982	-0.188881
H346	H	0.468406	1.246982	0.311119
H347	H	0.011312	0.743948	-0.328467
H348	H	0.511312	1.243948	0.171533
