data_functionalizedCrystal
_audit_creation_method	'MofGen! by Chris Wilmer'
_symmetry_space_group_name_H-M	'P1'
_symmetry_Int_Tables_number	1
_symmetry_cell_setting	triclinic
loop_
_symmetry_equiv_pos_as_xyz
  x,y,z
_cell_length_a	15.995350
_cell_length_b	15.995350
_cell_length_c	14.472310
_cell_angle_alpha	90.009379
_cell_angle_beta	90.001162
_cell_angle_gamma	96.507625
loop_
_atom_site_label
_atom_site_type_symbol
_atom_site_fract_x
_atom_site_fract_y
_atom_site_fract_z
O1	O	0.107921	-1.110997	-0.076758
O2	O	0.121248	-0.867221	-0.076776
O3	O	-0.007303	-0.995773	-0.076766
O4	O	0.236472	-0.982445	-0.076769
O5	O	-0.007296	-0.995740	0.076916
O6	O	0.121256	-0.867188	0.076906
O7	O	0.107928	-1.110963	0.076924
Cu8	Cu	0.114593	-0.989073	0.090947
Cu9	Cu	0.114584	-0.989112	-0.090800
O10	O	0.236480	-0.982412	0.076913
C11	C	0.120701	-0.836010	0.000062
C12	C	0.119049	-0.743060	0.000055
C13	C	-0.038494	-0.995205	0.000073
C14	C	-0.131444	-0.993553	0.000068
N15	N	0.114598	-0.989051	0.218778
C16	C	-0.469192	-0.987621	0.000071
C17	C	-0.421758	-0.896069	-0.000281
C18	C	-0.325068	-0.897721	0.000066
C19	C	-0.301631	-0.990564	0.000069
C20	C	-0.342705	-1.035701	0.087831
C21	C	-0.439340	-1.033401	0.087904
C22	C	-0.439707	-1.035330	-0.086861
C23	C	-0.342762	-1.035309	-0.088021
C24	C	-0.206934	-0.992231	0.000071
C25	C	-0.563890	-0.985956	0.000075
C26	C	0.267671	-0.982980	0.000072
C27	C	0.360621	-0.984631	0.000071
C28	C	0.108476	-1.142175	0.000083
C29	C	0.110127	-1.235125	0.000084
C30	C	0.113117	-0.405312	0.000074
C31	C	0.021565	-0.452746	0.000418
C32	C	0.023217	-0.549436	0.000065
C33	C	0.116060	-0.572873	0.000065
C34	C	0.161212	-0.531804	-0.087692
C35	C	0.158912	-0.435169	-0.087759
C36	C	0.160812	-0.434792	0.087007
C37	C	0.160790	-0.531737	0.088160
C38	C	0.117727	-0.667570	0.000057
C39	C	0.111452	-0.310614	0.000076
N40	N	0.114572	-0.989140	-0.218631
C41	C	0.114581	-0.989111	0.592869
C42	C	0.183135	-0.920095	0.553698
C43	C	0.183385	-0.920254	0.446610
C44	C	0.114590	-0.989081	0.407278
C45	C	0.133671	-1.076445	0.446122
C46	C	0.134159	-1.076057	0.553243
C47	C	0.026741	-0.971542	0.553398
C48	C	0.027327	-0.969538	0.446270
C49	C	0.114593	-0.989069	0.302390
C50	C	0.114579	-0.989128	0.697757
H51	H	-0.296649	-0.862239	-0.062846
H52	H	0.247952	-0.931159	0.580608
H53	H	0.085068	-1.129029	0.420643
N54	N	0.219011	-1.096565	0.586337
H55	H	0.255747	-1.105770	0.531339
H56	H	0.246533	-1.048312	0.624664
N57	N	0.070531	-1.146131	0.587547
H58	H	0.099898	-1.186530	0.626203
H59	H	0.026778	-1.121626	0.626294
N60	N	-0.482061	-1.122430	0.093214
H61	H	-0.545109	-1.121631	0.093308
H62	H	-0.465204	-1.155391	0.038055
H63	H	-0.460250	-1.005412	-0.153379
N64	N	-0.324028	-1.126061	0.092147
H65	H	-0.288672	-1.138634	0.037125
H66	H	-0.292376	-1.135369	0.150958
H67	H	-0.315516	-1.002307	-0.152945
N68	N	-0.043419	-1.031800	0.410823
H69	H	-0.073090	-1.062440	0.464667
H70	H	-0.084706	-1.000876	0.375245
H71	H	0.125979	-0.416874	-0.153359
N72	N	-0.023796	-0.587073	0.083395
H73	H	-0.084009	-0.573804	0.081115
H74	H	-0.022751	-0.650087	0.083282
N75	N	0.008174	-0.884403	0.412636
H76	H	-0.045738	-0.891043	0.375684
H77	H	0.001663	-0.846545	0.467408
H78	H	-0.297200	-0.861973	0.063079
N79	N	-0.040848	-1.038196	0.586948
H80	H	-0.027782	-1.095317	0.565270
H81	H	-0.042873	-1.037277	0.656686
N82	N	-0.322421	-1.124995	-0.095044
H83	H	-0.286096	-1.137950	-0.040979
H84	H	-0.376359	-1.164489	-0.094289
H85	H	0.226128	-0.402921	-0.091741
N86	N	-0.447695	-0.847795	0.082617
H87	H	-0.416937	-0.789058	0.081866
H88	H	-0.510357	-0.844566	0.080409
N89	N	0.269724	-0.935126	0.412647
H90	H	0.270246	-0.935290	0.342862
H91	H	0.312651	-0.888848	0.436171
N92	N	-0.481772	-1.124743	-0.087646
H93	H	-0.519747	-1.134336	-0.031996
H94	H	-0.516218	-1.134756	-0.145904
H95	H	0.197002	-1.092297	0.419285
N96	N	0.119670	-0.569401	-0.174208
H97	H	0.071611	-0.613026	-0.156757
H98	H	0.097445	-0.523535	-0.211811
H99	H	-0.015027	-0.434210	0.063352
N100	N	0.250475	-0.552079	0.095182
H101	H	0.277572	-0.524835	0.152382
H102	H	0.250907	-0.615071	0.099055
N103	N	0.250225	-0.392727	0.087799
H104	H	0.259827	-0.354755	0.032151
H105	H	0.260228	-0.358278	0.146059
N106	N	-0.026708	-0.426794	-0.082462
H107	H	0.010470	-0.384446	-0.120232
H108	H	-0.044978	-0.477898	-0.121594
N109	N	-0.024112	-0.586352	-0.083416
H110	H	0.014919	-0.616196	-0.123407
H111	H	-0.072839	-0.627752	-0.062576
N112	N	0.251559	-0.550521	-0.092032
H113	H	0.264119	-0.585886	-0.037021
H114	H	0.260835	-0.582181	-0.150852
N115	N	0.002449	-0.888974	0.589217
H116	H	0.046166	-0.841717	0.569734
H117	H	-0.054105	-0.879022	0.563022
H118	H	0.130885	-0.414242	0.153524
H119	H	-0.314320	-1.004324	0.153137
H120	H	0.172016	-0.855314	0.420349
N121	N	-0.446307	-0.847606	-0.083641
H122	H	-0.488416	-0.884523	-0.121989
H123	H	-0.472243	-0.796127	-0.062624
N124	N	0.117135	-0.567898	0.174161
H125	H	0.056454	-0.556016	0.173607
H126	H	0.119579	-0.630697	0.175846
N127	N	-0.463588	-0.989767	0.174796
H128	H	-0.411525	-0.972203	0.212691
H129	H	-0.491541	-0.938380	0.157714
N130	N	0.168334	-0.833792	0.587848
H131	H	0.117048	-0.838591	0.629046
H132	H	0.219054	-0.808541	0.623955
