data_functionalizedCrystal
_audit_creation_method	'MofGen! by Chris Wilmer'
_symmetry_space_group_name_H-M	'P1'
_symmetry_Int_Tables_number	1
_symmetry_cell_setting	triclinic
loop_
_symmetry_equiv_pos_as_xyz
  x,y,z
_cell_length_a	10.723023
_cell_length_b	14.519709
_cell_length_c	9.198806
_cell_angle_alpha	89.995869
_cell_angle_beta	89.996513
_cell_angle_gamma	84.073846
loop_
_atom_site_label
_atom_site_type_symbol
_atom_site_fract_x
_atom_site_fract_y
_atom_site_fract_z
O1	O	1.655979	0.129344	-0.120881
O2	O	2.155979	0.629344	0.379119
O3	O	1.292711	0.141726	-0.120888
O4	O	1.792711	0.641726	0.379112
O5	O	1.483976	0.001346	-0.120871
O6	O	1.983976	0.501346	0.379129
O7	O	1.464713	0.269724	-0.120898
O8	O	1.964713	0.769724	0.379102
O9	O	1.483961	0.001345	0.120914
O10	O	1.983961	0.501345	0.620914
O11	O	1.292695	0.141725	0.120897
O12	O	1.792695	0.641725	0.620897
O13	O	1.655964	0.129344	0.120904
O14	O	2.155964	0.629344	0.620904
Cu15	Cu	1.474328	0.135534	0.142978
Cu16	Cu	1.974328	0.635534	0.642978
Cu17	Cu	1.474346	0.135535	-0.142961
Cu18	Cu	1.974346	0.635535	0.357039
O19	O	1.464698	0.269724	0.120887
O20	O	1.964698	0.769724	0.620887
C21	C	1.246212	0.140825	0.000004
C22	C	1.746212	0.640825	0.500004
C23	C	1.107683	0.138129	0.000002
C24	C	1.607683	0.638129	0.500002
C25	C	1.045914	0.136927	0.125253
C26	C	1.545914	0.636927	0.625253
C27	C	0.902737	0.134141	0.125254
C28	C	1.402737	0.634141	0.625254
C29	C	1.483071	-0.033019	0.000022
C30	C	1.983071	0.466981	0.500022
C31	C	1.480381	-0.135414	0.000022
C32	C	1.980381	0.364586	0.500022
C33	C	1.470477	-0.510360	-0.000015
C34	C	1.970477	-0.010360	0.499985
C35	C	1.473227	-0.406038	-0.000004
C36	C	1.973227	0.093962	0.499996
C37	C	1.475428	-0.322890	0.000005
C38	C	1.975428	0.177110	0.500005
C39	C	1.478179	-0.218562	0.000013
C40	C	1.978179	0.281438	0.500013
C41	C	1.702462	0.130245	0.000009
C42	C	2.202462	0.630245	0.500009
C43	C	1.840992	0.132940	0.000001
C44	C	2.340992	0.632940	0.500001
C45	C	1.465603	0.304088	-0.000008
C46	C	1.965603	0.804088	0.499992
C47	C	1.468293	0.406483	-0.000019
C48	C	1.968293	0.906483	0.499981
N49	N	1.474325	0.135534	0.344092
N50	N	1.974325	0.635534	0.844092
N51	N	1.474359	0.135529	-0.344075
N52	N	1.974359	0.635529	0.155925
C53	C	1.554634	0.076332	0.416296
C54	C	2.054634	0.576332	0.916296
C55	C	1.554653	0.076329	0.583708
C56	C	2.054653	0.576329	1.083708
H57	H	0.849616	0.133113	0.232486
H58	H	1.349616	0.633113	0.732486
H59	H	1.623414	0.025647	0.645800
H60	H	2.123414	0.525647	1.145800
H61	H	1.099031	0.137956	0.232484
H62	H	1.599031	0.637956	0.732484
H63	H	1.054567	0.137093	-0.107229
H64	H	1.554567	0.637093	0.392771
H65	H	1.623372	0.025646	0.354175
H66	H	2.123372	0.525646	0.854175
H67	H	0.894102	0.133979	-0.107236
H68	H	1.394102	0.633979	0.392764
H69	H	1.405604	0.186219	0.593842
H70	H	1.905604	0.686219	1.093842
H71	H	1.405578	0.186213	0.406214
H72	H	1.905578	0.686213	0.906214
