data_functionalizedCrystal
_audit_creation_method	'MofGen! by Chris Wilmer'
_symmetry_space_group_name_H-M	'P1'
_symmetry_Int_Tables_number	1
_symmetry_cell_setting	triclinic
loop_
_symmetry_equiv_pos_as_xyz
  x,y,z
_cell_length_a	10.654545
_cell_length_b	16.109301
_cell_length_c	9.130313
_cell_angle_alpha	89.994060
_cell_angle_beta	89.996934
_cell_angle_gamma	83.972280
loop_
_atom_site_label
_atom_site_type_symbol
_atom_site_fract_x
_atom_site_fract_y
_atom_site_fract_z
O1	O	1.666259	0.116756	-0.121790
O2	O	2.166259	0.616756	0.378210
O3	O	1.300629	0.127885	-0.121797
O4	O	1.800629	0.627885	0.378203
O5	O	1.493488	0.001349	-0.121778
O6	O	1.993488	0.501349	0.378222
O7	O	1.473400	0.243292	-0.121808
O8	O	1.973400	0.743292	0.378192
O9	O	1.493475	0.001346	0.121821
O10	O	1.993475	0.501346	0.621821
O11	O	1.300615	0.127882	0.121802
O12	O	1.800615	0.627882	0.621802
O13	O	1.666246	0.116752	0.121809
O14	O	2.166246	0.616752	0.621809
Cu15	Cu	1.483429	0.122317	0.144048
Cu16	Cu	1.983429	0.622317	0.644048
Cu17	Cu	1.483445	0.122321	-0.144036
Cu18	Cu	1.983445	0.622321	0.355964
O19	O	1.473386	0.243288	0.121790
O20	O	1.973386	0.743288	0.621790
C21	C	1.253835	0.127067	0.000002
C22	C	1.753835	0.627067	0.500002
C23	C	1.114425	0.124625	0.000000
C24	C	1.614425	0.624625	0.500000
C25	C	1.048929	0.123473	0.132787
C26	C	1.548929	0.623473	0.632787
C27	C	0.917940	0.121164	0.132787
C28	C	1.417940	0.621164	0.632787
C29	C	0.917955	0.121163	-0.132798
C30	C	1.417955	0.621163	0.367202
C31	C	1.048942	0.123465	-0.132796
C32	C	1.548942	0.623465	0.367204
C33	C	1.492668	-0.029632	0.000022
C34	C	1.992668	0.470368	0.500022
C35	C	1.490228	-0.121942	0.000024
C36	C	1.990228	0.378058	0.500024
C37	C	1.598994	-0.343569	0.000003
C38	C	2.098994	0.156431	0.500003
C39	C	1.596692	-0.430303	-0.000009
C40	C	2.096692	0.069697	0.499991
C41	C	1.367871	-0.411787	-0.000008
C42	C	1.867871	0.088213	0.499992
C43	C	1.370175	-0.325054	-0.000006
C44	C	1.870175	0.174946	0.499994
C45	C	1.485740	-0.290948	0.000007
C46	C	1.985740	0.209052	0.500007
C47	C	1.481134	-0.464414	-0.000007
C48	C	1.981134	0.035586	0.499993
C49	C	1.478638	-0.558455	-0.000020
C50	C	1.978638	-0.058455	0.499980
C51	C	1.488237	-0.196901	0.000017
C52	C	1.988237	0.303099	0.500017
C53	C	1.713039	0.117571	0.000007
C54	C	2.213039	0.617571	0.500007
C55	C	1.852450	0.120013	-0.000001
C56	C	2.352450	0.620013	0.499999
C57	C	1.474207	0.274270	-0.000013
C58	C	1.974207	0.774270	0.499987
C59	C	1.476646	0.366580	-0.000025
C60	C	1.976646	0.866580	0.499975
N61	N	1.483428	0.122313	0.346671
N62	N	1.983428	0.622313	0.846671
N63	N	1.483457	0.122318	-0.346658
N64	N	1.983457	0.622318	0.153342
C65	C	1.568854	0.066307	0.423331
C66	C	2.068854	0.566307	0.923331
C67	C	1.568866	0.066307	0.576668
C68	C	2.068866	0.566307	1.076668
C69	C	1.398021	0.178327	0.576671
C70	C	1.898021	0.678327	1.076671
C71	C	1.398004	0.178322	0.423337
C72	C	1.898004	0.678322	0.923337
H73	H	1.102271	0.124401	-0.240934
H74	H	1.602271	0.624401	0.259066
O75	O	1.661009	0.005898	0.659345
O76	O	2.161009	0.505898	1.159345
H77	H	1.646665	0.015301	0.778848
H78	H	2.146665	0.515301	1.278848
H79	H	1.638410	0.020699	0.360913
H80	H	2.138410	0.520699	0.860913
H81	H	0.864619	0.120226	0.240915
H82	H	1.364619	0.620226	0.740915
H83	H	1.277943	-0.282208	-0.000007
H84	H	1.777943	0.217792	0.499993
H85	H	1.328472	0.223930	0.639108
H86	H	1.828472	0.723930	1.139108
O87	O	1.305865	0.238734	0.340636
O88	O	1.805865	0.738734	0.840636
H89	H	1.246481	0.277691	0.419704
H90	H	1.746481	0.777691	0.919704
H91	H	1.693095	-0.315803	0.000010
H92	H	2.193095	0.184197	0.500010
O93	O	1.119562	0.124725	0.276009
O94	O	1.619562	0.624725	0.776009
H95	H	1.052007	0.123532	0.368343
H96	H	1.552007	0.623532	0.868343
H97	H	1.688916	-0.473144	-0.000016
H98	H	2.188916	0.026856	0.499984
O99	O	0.847335	0.119917	-0.276029
O100	O	1.347335	0.619917	0.223971
H101	H	0.776444	0.175439	-0.282405
H102	H	1.276444	0.675439	0.217595
O103	O	1.243228	-0.448571	0.000010
O104	O	1.743228	0.051429	0.500010
H105	H	1.260651	-0.517723	0.000030
H106	H	1.760651	-0.017723	0.500030
