data_functionalizedCrystal
_audit_creation_method	'MofGen! by Chris Wilmer'
_symmetry_space_group_name_H-M	'P1'
_symmetry_Int_Tables_number	1
_symmetry_cell_setting	triclinic
loop_
_symmetry_equiv_pos_as_xyz
  x,y,z
_cell_length_a	18.215407
_cell_length_b	12.594516
_cell_length_c	18.215399
_cell_angle_alpha	90.023782
_cell_angle_beta	90.017368
_cell_angle_gamma	90.009259
loop_
_atom_site_label
_atom_site_type_symbol
_atom_site_fract_x
_atom_site_fract_y
_atom_site_fract_z
Zn1	Zn	1.125139	-0.423826	0.416089
Zn2	Zn	1.125075	-0.601823	0.293031
Zn3	Zn	1.002071	-0.423851	0.293041
Zn4	Zn	1.002065	-0.601755	0.416062
O5	O	1.063588	-0.512814	0.354556
O6	O	1.228115	-0.447455	0.399772
O7	O	1.108734	-0.578254	0.190048
O8	O	1.018426	-0.274902	0.309379
O9	O	1.228068	-0.578229	0.309362
O10	O	1.108843	-0.274883	0.399782
O11	O	1.018364	-0.447499	0.190056
O12	O	0.899086	-0.447432	0.309353
O13	O	1.018415	-0.578113	0.519050
O14	O	0.899082	-0.578137	0.399736
O15	O	1.108837	-0.447389	0.519069
O16	O	1.108729	-0.750760	0.309336
O17	O	1.018354	-0.750709	0.399726
C18	C	0.872381	-0.512781	0.354543
C19	C	0.790583	-0.512793	0.354555
C20	C	0.602412	-0.444839	0.401706
C21	C	0.525553	-0.444848	0.401708
C22	C	0.525515	-0.580818	0.307419
C23	C	0.602373	-0.580803	0.307413
C24	C	0.640819	-0.512815	0.354561
C25	C	0.487103	-0.512839	0.354569
C26	C	0.403769	-0.512850	0.354571
C27	C	0.724158	-0.512803	0.354558
C28	C	1.063554	-0.789355	0.354543
C29	C	1.063606	-0.907660	0.354562
C30	C	1.112818	-0.976902	0.305452
C31	C	1.130801	-1.047606	0.372622
C32	C	1.045716	-1.047754	0.287435
C33	C	1.081623	-0.976806	0.421768
C34	C	0.996507	-0.976948	0.336535
C35	C	1.014464	-1.047621	0.403752
C36	C	1.255541	-0.512847	0.354569
C37	C	1.337339	-0.512862	0.354575
C38	C	1.063632	-0.512740	0.546509
C39	C	1.063652	-0.512709	0.628308
C40	C	1.063642	-0.235193	0.354585
C41	C	1.063665	-0.116887	0.354597
C42	C	1.063585	-0.512810	0.163350
C43	C	1.063709	-0.512541	0.081551
C44	C	1.110751	-0.444578	0.816513
C45	C	1.110760	-0.444546	0.893372
C46	C	1.016604	-0.580676	0.893340
C47	C	1.016592	-0.580701	0.816483
C48	C	1.063670	-0.512653	0.778071
C49	C	1.063691	-0.512597	0.931788
C50	C	1.063700	-0.512564	1.015121
C51	C	1.063660	-0.512685	0.694732
H52	H	1.154442	-0.945849	0.263958
C53	C	1.206478	-1.200674	0.393711
C54	C	1.207433	-1.089507	0.393253
H55	H	1.253787	-1.226532	0.406454
H56	H	1.193431	-1.226014	0.346352
H57	H	1.171575	-1.224868	0.428649
H58	H	1.242332	-1.065312	0.358312
H59	H	1.220489	-1.064157	0.440620
C60	C	1.203834	-0.310005	0.885679
C61	C	1.162517	-0.369721	0.935627
H62	H	1.235790	-0.263813	0.911767
H63	H	1.171774	-0.269298	0.855703
H64	H	1.231968	-0.356408	0.855699
H65	H	1.134378	-0.323317	0.965603
H66	H	1.194581	-0.410431	0.965616
H67	H	0.978277	-0.636080	0.924624
C68	C	1.101996	-0.823752	0.497722
C69	C	1.102181	-0.934925	0.498445
H70	H	1.114694	-0.797898	0.545057
H71	H	1.054463	-0.798979	0.484832
H72	H	1.136715	-0.798985	0.462794
H73	H	1.067458	-0.959692	0.533370
H74	H	1.149721	-0.959708	0.511345
H75	H	0.633713	-0.389475	0.440094
H76	H	0.978248	-0.636135	0.785182
C77	C	0.533316	-0.310459	0.494915
C78	C	0.483336	-0.370131	0.453535
H79	H	0.507251	-0.264335	0.526914
H80	H	0.563281	-0.269682	0.462897
H81	H	0.563303	-0.356894	0.523006
H82	H	0.453352	-0.323696	0.425440
H83	H	0.453358	-0.410911	0.485556
C84	C	0.594622	-0.715220	0.214215
C85	C	0.644596	-0.655532	0.255590
H86	H	0.620690	-0.761354	0.182226
H87	H	0.564636	-0.668804	0.186120
H88	H	0.564655	-0.755997	0.246242
H89	H	0.674560	-0.614749	0.223563
H90	H	0.674594	-0.701954	0.283687
H91	H	0.939753	-0.945885	0.321248
H92	H	0.972872	-1.078476	0.445346
C93	C	1.076830	-1.054114	0.159432
C94	C	1.025247	-1.089819	0.210781
H95	H	1.064195	-1.080076	0.112109
H96	H	1.124173	-1.079351	0.172588
H97	H	1.077096	-0.978696	0.158769
H98	H	1.024985	-1.165237	0.211448
H99	H	0.977892	-1.064587	0.197621
H100	H	1.149083	-0.389166	0.785241
H101	H	0.494203	-0.636173	0.269034
