data_functionalizedCrystal
_audit_creation_method	'MofGen! by Chris Wilmer'
_symmetry_space_group_name_H-M	'P1'
_symmetry_Int_Tables_number	1
_symmetry_cell_setting	triclinic
loop_
_symmetry_equiv_pos_as_xyz
  x,y,z
_cell_length_a	19.188930
_cell_length_b	17.699083
_cell_length_c	16.176319
_cell_angle_alpha	90.007696
_cell_angle_beta	90.021299
_cell_angle_gamma	83.213897
loop_
_atom_site_label
_atom_site_type_symbol
_atom_site_fract_x
_atom_site_fract_y
_atom_site_fract_z
O1	O	-0.926253	-0.094493	-0.069014
O2	O	-0.592920	0.238840	0.264319
O3	O	-0.259587	0.572173	0.597653
O4	O	-0.722956	-0.107214	-0.068957
O5	O	-0.389623	0.226120	0.264376
O6	O	-0.056290	0.559453	0.597709
O7	O	-0.830349	0.009343	-0.068980
O8	O	-0.497015	0.342677	0.264353
O9	O	-0.163682	0.676010	0.597687
O10	O	-0.818861	-0.211050	-0.068991
O11	O	-0.485528	0.122283	0.264342
O12	O	-0.152195	0.455616	0.597675
O13	O	-0.830334	0.009351	0.068513
O14	O	-0.497001	0.342684	0.401847
O15	O	-0.163667	0.676017	0.735180
O16	O	-0.722942	-0.107206	0.068536
O17	O	-0.389608	0.226127	0.401869
O18	O	-0.056275	0.559461	0.735202
O19	O	-0.926239	-0.094486	0.068479
O20	O	-0.592905	0.238847	0.401813
O21	O	-0.259572	0.572181	0.735146
Cu22	Cu	-0.824589	-0.100845	0.081062
Cu23	Cu	-0.491256	0.232488	0.414395
Cu24	Cu	-0.157922	0.565821	0.747728
Cu25	Cu	-0.824606	-0.100854	-0.081540
Cu26	Cu	-0.491273	0.232479	0.251793
Cu27	Cu	-0.157940	0.565813	0.585127
O28	O	-0.818847	-0.211043	0.068502
O29	O	-0.485513	0.122291	0.401835
O30	O	-0.152180	0.455624	0.735168
C31	C	-0.829930	0.037543	-0.000233
C32	C	-0.496596	0.370877	0.333100
C33	C	-0.163263	0.704210	0.666433
C34	C	-0.828695	0.121560	-0.000233
C35	C	-0.495361	0.454893	0.333101
C36	C	-0.162028	0.788227	0.666434
C37	C	-0.696938	-0.106798	-0.000204
C38	C	-0.363604	0.226535	0.333130
C39	C	-0.030271	0.559869	0.666463
C40	C	-0.619432	-0.105561	-0.000182
C41	C	-0.286098	0.227772	0.333151
C42	C	0.047235	0.561105	0.666485
C43	C	-0.952258	-0.094902	-0.000276
C44	C	-0.618924	0.238432	0.333057
C45	C	-0.285591	0.571765	0.666390
C46	C	-1.029763	-0.096138	-0.000304
C47	C	-0.696430	0.237195	0.333030
C48	C	-0.363097	0.570529	0.666363
C49	C	-0.574584	-0.173953	-0.000198
C50	C	-0.241251	0.159380	0.333135
C51	C	0.092082	0.492714	0.666468
C52	C	-0.501759	-0.172791	-0.000207
C53	C	-0.168426	0.160542	0.333126
C54	C	0.164907	0.493875	0.666459
C55	C	-0.473785	-0.103234	-0.000216
C56	C	-0.140451	0.230099	0.333117
C57	C	0.192882	0.563433	0.666450
C58	C	-0.518642	-0.034833	-0.000195
C59	C	-0.185309	0.298500	0.333138
C60	C	0.148025	0.631833	0.666471
C61	C	-0.591465	-0.035997	-0.000178
C62	C	-0.258132	0.297336	0.333155
C63	C	0.075201	0.630670	0.666489
N64	N	-0.365750	-0.050069	-0.047042
N65	N	-0.032417	0.283265	0.286291
N66	N	0.300917	0.616598	0.619625
N67	N	-0.296570	-0.048968	-0.047060
N68	N	0.036763	0.284365	0.286273
N69	N	0.370096	0.617699	0.619607
C70	C	-0.254372	-0.099724	-0.000267
C71	C	0.078961	0.233609	0.333066
C72	C	0.412294	0.566943	0.666400
N73	N	-0.283966	-0.151634	0.046535
N74	N	0.049367	0.181700	0.379868
N75	N	0.382701	0.515033	0.713202
N76	N	-0.353152	-0.152737	0.046550
N77	N	-0.019819	0.180597	0.379883
N78	N	0.313515	0.513930	0.713216
C79	C	-0.394821	-0.101965	-0.000235
C80	C	-0.061487	0.231369	0.333099
C81	C	0.271846	0.564702	0.666432
C82	C	-0.130559	-0.166861	-0.000292
C83	C	0.202774	0.166473	0.333041
C84	C	0.536108	0.499806	0.666375
C85	C	-0.057733	-0.165696	-0.000296
C86	C	0.275600	0.167637	0.333037
C87	C	0.608934	0.500971	0.666371
C88	C	-0.074617	-0.027736	-0.000292
C89	C	0.258716	0.305597	0.333041
C90	C	0.592049	0.638931	0.666375
C91	C	-0.147442	-0.028903	-0.000280
C92	C	0.185892	0.304431	0.333053
C93	C	0.519225	0.637764	0.666387
C94	C	-0.175408	-0.098467	-0.000284
C95	C	0.157925	0.234866	0.333050
C96	C	0.491259	0.568200	0.666383
C97	C	-0.819266	-0.239243	-0.000247
C98	C	-0.485932	0.094090	0.333086
C99	C	-0.152599	0.427424	0.666420
C100	C	-0.820500	-0.323259	-0.000253
C101	C	-0.487167	0.010074	0.333080
C102	C	-0.153834	0.343407	0.666414
N103	N	-0.824582	-0.100839	0.195427
N104	N	-0.491248	0.232495	0.528760
N105	N	-0.157915	0.565828	0.862094
C106	C	-0.891732	0.170264	-0.000249
C107	C	-0.558398	0.503597	0.333084
C108	C	-0.225065	0.836931	0.666418
C109	C	-0.890567	0.249206	-0.000256
C110	C	-0.557234	0.582539	0.333078
C111	C	-0.223901	0.915872	0.666411
C112	C	-0.826365	0.279442	-0.000241
C113	C	-0.493032	0.612775	0.333093
C114	C	-0.159699	0.946109	0.666426
C115	C	-0.763323	0.230732	-0.000227
C116	C	-0.429990	0.564065	0.333107
C117	C	-0.096657	0.897398	0.666440
C118	C	-0.764489	0.151791	-0.000226
C119	C	-0.431155	0.485125	0.333108
C120	C	-0.097822	0.818458	0.666441
C121	C	-0.758623	0.549089	-0.000232
C122	C	-0.425290	0.882422	0.333101
C123	C	-0.091956	1.215755	0.666435
C124	C	-0.757463	0.628035	-0.000231
C125	C	-0.424129	0.961368	0.333103
C126	C	-0.090796	1.294702	0.666436
C127	C	-0.884702	0.646503	-0.000262
C128	C	-0.551368	0.979836	0.333071
C129	C	-0.218035	1.313169	0.666404
C130	C	-0.885867	0.567563	-0.000261
C131	C	-0.552534	0.900896	0.333072
C132	C	-0.219200	1.234229	0.666405
C133	C	-0.822826	0.518859	-0.000252
C134	C	-0.489492	0.852193	0.333082
C135	C	-0.156159	1.185526	0.666415
C136	C	-0.824089	0.433262	-0.000246
C137	C	-0.490756	0.766595	0.333088
C138	C	-0.157422	1.099928	0.666421
C139	C	-0.825101	0.365038	-0.000241
C140	C	-0.491768	0.698371	0.333093
C141	C	-0.158434	1.031705	0.666426
N142	N	-0.824619	-0.100855	-0.195905
N143	N	-0.491286	0.232479	0.137428
N144	N	-0.157952	0.565812	0.470762
C145	C	-0.872149	-0.049248	0.238681
C146	C	-0.538816	0.284085	0.572014
C147	C	-0.205483	0.617418	0.905348
C148	C	-0.872153	-0.049248	0.325228
C149	C	-0.538819	0.284086	0.658562
C150	C	-0.205486	0.617419	0.991895
C151	C	-0.824592	-0.100841	0.368520
C152	C	-0.491258	0.232492	0.701853
C153	C	-0.157925	0.565825	1.035186
C154	C	-0.777019	-0.152434	0.325259
C155	C	-0.443686	0.180899	0.658593
C156	C	-0.110352	0.514232	0.991926
C157	C	-0.777013	-0.152431	0.238714
C158	C	-0.443679	0.180903	0.572047
C159	C	-0.110346	0.514236	0.905380
C160	C	-0.777043	-0.152448	0.674288
C161	C	-0.443710	0.180885	1.007621
C162	C	-0.110376	0.514218	1.340954
C163	C	-0.777054	-0.152449	0.760839
C164	C	-0.443721	0.180884	1.094172
C165	C	-0.110388	0.514217	1.427506
C166	C	-0.872183	-0.049265	0.760802
C167	C	-0.538850	0.284068	1.094135
C168	C	-0.205516	0.617402	1.427469
C169	C	-0.872177	-0.049262	0.674256
C170	C	-0.538843	0.284072	1.007590
C171	C	-0.205510	0.617405	1.340923
C172	C	-0.824602	-0.100852	0.631004
C173	C	-0.491269	0.232482	0.964337
C174	C	-0.157935	0.565815	1.297670
C175	C	-0.824598	-0.100851	0.537160
C176	C	-0.491264	0.232482	0.870493
C177	C	-0.157931	0.565816	1.203826
C178	C	-0.824599	-0.100846	0.462362
C179	C	-0.491265	0.232487	0.795695
C180	C	-0.157932	0.565820	1.129029
H181	H	-0.597349	-0.230598	-0.000203
H182	H	-0.264016	0.102736	0.333130
H183	H	0.069317	0.436069	0.666464
H184	H	-0.910882	-0.007238	0.203439
H185	H	-0.577549	0.326095	0.536772
H186	H	-0.244215	0.659429	0.870106
Br187	Br	-0.673067	0.483001	-0.000224
Br188	Br	-0.339733	0.816334	0.333109
Br189	Br	-0.006400	1.149668	0.666442
H190	H	-0.936033	0.686167	-0.000274
H191	H	-0.602700	1.019500	0.333059
H192	H	-0.269366	1.352834	0.666392
H193	H	-0.944012	0.145652	-0.000256
H194	H	-0.610679	0.478986	0.333077
H195	H	-0.277346	0.812319	0.666410
Br196	Br	-0.036660	0.066665	-0.000291
Br197	Br	0.296673	0.399999	0.333043
Br198	Br	0.630007	0.733332	0.666376
H199	H	-0.738322	-0.194465	0.796085
H200	H	-0.404988	0.138869	1.129419
H201	H	-0.071655	0.472202	1.462752
Br202	Br	-0.973001	0.526532	-0.000283
Br203	Br	-0.639668	0.859865	0.333051
Br204	Br	-0.306335	1.193198	0.666384
Br205	Br	-0.678935	0.085692	-0.000210
Br206	Br	-0.345602	0.419025	0.333123
Br207	Br	-0.012268	0.752358	0.666457
Br208	Br	-0.936707	0.020771	0.383933
Br209	Br	-0.603374	0.354105	0.717267
Br210	Br	-0.270040	0.687438	1.050600
Br211	Br	-0.712481	-0.222462	0.615592
Br212	Br	-0.379147	0.110871	0.948925
Br213	Br	-0.045814	0.444204	1.282259
H214	H	-0.465238	-0.228486	-0.000218
H215	H	-0.131904	0.104847	0.333115
H216	H	0.201429	0.438181	0.666448
Br217	Br	-0.480679	0.059567	-0.000199
Br218	Br	-0.147345	0.392900	0.333134
Br219	Br	0.185988	0.726233	0.666467
H220	H	-0.021218	-0.221391	-0.000305
H221	H	0.312115	0.111942	0.333029
H222	H	0.645448	0.445275	0.666362
Br223	Br	-0.976121	0.315302	-0.000278
Br224	Br	-0.642788	0.648635	0.333055
Br225	Br	-0.309455	0.981969	0.666388
Br226	Br	-0.712465	-0.222451	0.384008
Br227	Br	-0.379131	0.110882	0.717342
Br228	Br	-0.045798	0.444216	1.050675
Br229	Br	-0.712449	-0.222445	0.180011
Br230	Br	-0.379116	0.110889	0.513345
Br231	Br	-0.045783	0.444222	0.846678
Br232	Br	-0.168518	-0.261267	-0.000291
Br233	Br	0.164815	0.072067	0.333042
Br234	Br	0.498149	0.405400	0.666375
Br235	Br	-0.208310	0.063920	-0.000260
Br236	Br	0.125023	0.397253	0.333074
Br237	Br	0.458356	0.730587	0.666407
Br238	Br	-0.670325	0.669069	-0.000209
Br239	Br	-0.336992	1.002403	0.333124
Br240	Br	-0.003659	1.335736	0.666458
H241	H	-0.711049	0.255356	-0.000219
H242	H	-0.377716	0.588690	0.333114
H243	H	-0.044382	0.922023	0.666447
Br244	Br	-0.936729	0.020756	0.615506
Br245	Br	-0.603396	0.354089	0.948840
Br246	Br	-0.270063	0.687423	1.282173
H247	H	-0.627981	0.019698	-0.000165
H248	H	-0.294648	0.353031	0.333168
H249	H	0.038686	0.686364	0.666502
Br250	Br	-0.936749	0.020753	0.819506
Br251	Br	-0.603416	0.354086	1.152839
Br252	Br	-0.270083	0.687419	1.486172
