data_functionalizedCrystal
_audit_creation_method	'MofGen! by Chris Wilmer'
_symmetry_space_group_name_H-M	'P1'
_symmetry_Int_Tables_number	1
_symmetry_cell_setting	triclinic
loop_
_symmetry_equiv_pos_as_xyz
  x,y,z
_cell_length_a	14.519709
_cell_length_b	27.732048
_cell_length_c	12.996460
_cell_angle_alpha	89.988908
_cell_angle_beta	90.000034
_cell_angle_gamma	83.161400
loop_
_atom_site_label
_atom_site_type_symbol
_atom_site_fract_x
_atom_site_fract_y
_atom_site_fract_z
O1	O	1.222766	0.063362	-0.085445
O2	O	1.556100	0.396696	0.247889
O3	O	1.889433	0.730029	0.581222
O4	O	0.954160	0.070824	-0.085477
O5	O	1.287493	0.404157	0.247856
O6	O	1.620826	0.737491	0.581189
O7	O	1.096805	-0.003264	-0.085440
O8	O	1.430139	0.330070	0.247893
O9	O	1.763472	0.663403	0.581226
O10	O	1.080121	0.137450	-0.085482
O11	O	1.413454	0.470783	0.247852
O12	O	1.746787	0.804117	0.581185
O13	O	1.096791	-0.003268	0.085693
O14	O	1.430124	0.330065	0.419027
O15	O	1.763457	0.663399	0.752360
O16	O	0.954145	0.070820	0.085656
O17	O	1.287478	0.404153	0.418990
O18	O	1.620812	0.737486	0.752323
O19	O	1.222752	0.063358	0.085689
O20	O	1.556085	0.396691	0.419023
O21	O	1.889418	0.730025	0.752356
Cu22	Cu	1.088447	0.067089	0.101299
Cu23	Cu	1.421780	0.400422	0.434632
Cu24	Cu	1.755114	0.733755	0.767965
Cu25	Cu	1.088464	0.067093	-0.101087
Cu26	Cu	1.421798	0.400427	0.232246
Cu27	Cu	1.755131	0.733760	0.565580
O28	O	1.080106	0.137446	0.085652
O29	O	1.413439	0.470779	0.418986
O30	O	1.746773	0.804112	0.752319
C31	C	0.919799	0.070474	0.000086
C32	C	1.253132	0.403807	0.333419
C33	C	1.586465	0.737141	0.666752
C34	C	0.817435	0.069432	0.000074
C35	C	1.150769	0.402765	0.333407
C36	C	1.484102	0.736099	0.666741
C37	C	0.442606	0.065596	0.000122
C38	C	0.775940	0.398929	0.333455
C39	C	1.109273	0.732262	0.666789
C40	C	0.546896	0.066661	0.000108
C41	C	0.880229	0.399994	0.333442
C42	C	1.213562	0.733328	0.666775
C43	C	0.630018	0.067514	0.000097
C44	C	0.963351	0.400847	0.333430
C45	C	1.296684	0.734180	0.666764
C46	C	0.734314	0.068579	0.000085
C47	C	1.067647	0.401913	0.333419
C48	C	1.400980	0.735246	0.666752
C49	C	1.096448	-0.021274	0.000129
C50	C	1.429781	0.312059	0.333463
C51	C	1.763114	0.645392	0.666796
C52	C	1.095393	-0.074934	0.000138
C53	C	1.428727	0.258399	0.333471
C54	C	1.762060	0.591732	0.666804
C55	C	1.173048	-0.413378	0.000094
C56	C	1.506381	-0.080045	0.333428
C57	C	1.839715	0.253288	0.666761
C58	C	1.169135	-0.615057	0.000080
C59	C	1.502469	-0.281723	0.333413
C60	C	1.835802	0.051610	0.666746
O61	O	1.240145	-0.645973	0.000043
O62	O	1.573478	-0.312640	0.333376
O63	O	1.906812	0.020694	0.666710
N64	N	1.084552	-0.634585	0.000070
N65	N	1.417886	-0.301251	0.333403
N66	N	1.751219	0.032082	0.666737
C67	C	1.000941	-0.603690	0.000058
C68	C	1.334275	-0.270356	0.333391
C69	C	1.667608	0.062977	0.666724
O70	O	0.928909	-0.624927	0.000039
O71	O	1.262242	-0.291594	0.333372
O72	O	1.595575	0.041740	0.666705
C73	C	1.004855	-0.402012	0.000065
C74	C	1.338189	-0.068679	0.333398
C75	C	1.671522	0.264654	0.666732
C76	C	1.089444	-0.382487	0.000085
C77	C	1.422777	-0.049154	0.333418
C78	C	1.756110	0.284179	0.666752
C79	C	1.257630	-0.393853	0.000113
C80	C	1.590963	-0.060519	0.333446
C81	C	1.924296	0.272814	0.666780
C82	C	1.258607	-0.343436	0.000122
C83	C	1.591940	-0.010103	0.333456
C84	C	1.925274	0.323231	0.666789
C85	C	1.175003	-0.312545	0.000113
C86	C	1.508336	0.020788	0.333446
C87	C	1.841669	0.354122	0.666780
C88	C	1.090421	-0.332071	0.000094
C89	C	1.423754	0.001263	0.333428
C90	C	1.757088	0.334596	0.666761
C91	C	0.921246	-0.371118	0.000045
C92	C	1.254579	-0.037785	0.333379
C93	C	1.587912	0.295548	0.666712
C94	C	0.922232	-0.320696	0.000045
C95	C	1.255565	0.012637	0.333378
C96	C	1.588898	0.345970	0.666711
C97	C	1.006820	-0.301171	0.000064
C98	C	1.340153	0.032162	0.333398
C99	C	1.673487	0.365496	0.666731
C100	C	1.007794	-0.250763	0.000094
C101	C	1.341128	0.082570	0.333428
C102	C	1.674461	0.415904	0.666761
N103	N	1.092377	-0.231235	0.000104
N104	N	1.425711	0.102098	0.333437
N105	N	1.759044	0.435432	0.666770
C106	C	1.175981	-0.262126	0.000113
C107	C	1.509315	0.071207	0.333446
C108	C	1.842648	0.404541	0.666780
C109	C	0.998893	-0.709574	0.000056
C110	C	1.332226	-0.376240	0.333389
C111	C	1.665559	-0.042907	0.666722
C112	C	0.997914	-0.759993	0.000056
C113	C	1.331247	-0.426659	0.333389
C114	C	1.664581	-0.093326	0.666722
C115	C	1.166108	-0.771356	0.000076
C116	C	1.499441	-0.438023	0.333409
C117	C	1.832775	-0.104689	0.666742
C118	C	1.167086	-0.720936	0.000083
C119	C	1.500419	-0.387603	0.333416
C120	C	1.833752	-0.054269	0.666750
C121	C	1.083476	-0.690045	0.000065
C122	C	1.416809	-0.356712	0.333399
C123	C	1.750142	-0.023379	0.666732
C124	C	1.178028	-0.156247	0.000133
C125	C	1.511361	0.177086	0.333467
C126	C	1.844694	0.510420	0.666800
C127	C	1.178998	-0.105825	0.000147
C128	C	1.512331	0.227508	0.333480
C129	C	1.845664	0.560841	0.666814
C130	C	1.010804	-0.094466	0.000122
C131	C	1.344137	0.238867	0.333455
C132	C	1.677471	0.572200	0.666788
C133	C	1.009833	-0.144883	0.000114
C134	C	1.343167	0.188450	0.333447
C135	C	1.676500	0.521783	0.666780
C136	C	1.093453	-0.175773	0.000116
C137	C	1.426786	0.157560	0.333449
C138	C	1.760119	0.490894	0.666783
O139	O	0.936822	-0.219818	0.000119
O140	O	1.270156	0.113515	0.333452
O141	O	1.603489	0.446849	0.666786
O142	O	1.248004	-0.240879	0.000109
O143	O	1.581337	0.092454	0.333442
O144	O	1.914670	0.425787	0.666776
C145	C	1.172071	-0.463795	0.000085
C146	C	1.505404	-0.130462	0.333418
C147	C	1.838737	0.202872	0.666752
C148	C	1.087489	-0.483320	0.000066
C149	C	1.420823	-0.149987	0.333400
C150	C	1.754156	0.183346	0.666733
C151	C	1.003885	-0.452429	0.000057
C152	C	1.337218	-0.119096	0.333390
C153	C	1.670552	0.214237	0.666724
C154	C	1.086510	-0.533740	0.000066
C155	C	1.419844	-0.200406	0.333400
C156	C	1.753177	0.132927	0.666733
C157	C	1.170115	-0.564631	0.000076
C158	C	1.503448	-0.231297	0.333409
C159	C	1.836781	0.102036	0.666742
C160	C	1.254698	-0.545103	0.000085
C161	C	1.588031	-0.211769	0.333418
C162	C	1.921364	0.121564	0.666752
C163	C	1.255675	-0.494686	0.000094
C164	C	1.589008	-0.161353	0.333428
C165	C	1.922342	0.171981	0.666761
C166	C	0.919302	-0.471957	0.000048
C167	C	1.252635	-0.138624	0.333381
C168	C	1.585969	0.194709	0.666714
C169	C	0.918331	-0.522375	0.000039
C170	C	1.251665	-0.189041	0.333373
C171	C	1.584998	0.144292	0.666706
C172	C	1.001936	-0.553266	0.000049
C173	C	1.335269	-0.219932	0.333382
C174	C	1.668602	0.113401	0.666715
C175	C	1.257113	0.063708	0.000124
C176	C	1.590446	0.397041	0.333457
C177	C	1.923779	0.730375	0.666791
C178	C	1.359476	0.064750	0.000129
C179	C	1.692809	0.398083	0.333462
C180	C	2.026143	0.731417	0.666796
C181	C	1.080464	0.155456	0.000080
C182	C	1.413797	0.488790	0.333414
C183	C	1.747130	0.822123	0.666747
C184	C	1.081518	0.209116	0.000065
C185	C	1.414851	0.542450	0.333398
C186	C	1.748185	0.875783	0.666732
N187	N	1.088442	0.067085	0.243646
N188	N	1.421775	0.400418	0.576979
N189	N	1.755108	0.733751	0.910312
N190	N	1.088477	0.067093	-0.243434
N191	N	1.421811	0.400427	0.089899
N192	N	1.755144	0.733760	0.423233
C193	C	1.088463	0.067094	0.663460
C194	C	1.421796	0.400427	0.996793
C195	C	1.755130	0.733761	1.330127
C196	C	1.088454	0.067093	0.546655
C197	C	1.421788	0.400426	0.879988
C198	C	1.755121	0.733760	1.213322
C199	C	1.088453	0.067090	0.453557
C200	C	1.421786	0.400423	0.786890
C201	C	1.755119	0.733756	1.120223
C202	C	1.088443	0.067088	0.336744
C203	C	1.421776	0.400421	0.670077
C204	C	1.755110	0.733755	1.003411
H205	H	1.247882	-0.089931	0.000166
H206	H	1.581216	0.243402	0.333499
H207	H	1.914549	0.576735	0.666832
H208	H	1.327488	-0.327544	0.000134
H209	H	1.660821	0.005789	0.333468
H210	H	1.994154	0.339123	0.666801
H211	H	1.322771	-0.570263	0.000097
H212	H	1.656105	-0.236930	0.333431
H213	H	1.989438	0.096404	0.666764
N214	N	1.342073	-0.474738	0.000119
N215	N	1.675406	-0.141404	0.333452
N216	N	2.008740	0.191929	0.666785
N217	N	1.361384	-0.447881	0.072261
N218	N	1.694717	-0.114547	0.405595
N219	N	2.028051	0.218786	0.738928
H220	H	1.422406	-0.433794	0.072279
H221	H	1.755740	-0.100461	0.405612
H222	H	2.089073	0.232872	0.738945
H223	H	0.851220	-0.446810	0.000038
H224	H	1.184553	-0.113477	0.333371
H225	H	1.517886	0.219856	0.666704
N226	N	1.263450	-0.187788	0.000133
N227	N	1.596783	0.145545	0.333466
N228	N	1.930116	0.478879	0.666799
N229	N	1.338957	-0.170340	0.000150
N230	N	1.672290	0.162994	0.333483
N231	N	2.005623	0.496327	0.666817
H232	H	1.399287	-0.192615	0.000155
H233	H	1.732620	0.140718	0.333488
H234	H	2.065954	0.474052	0.666822
N235	N	1.343028	-0.425410	0.000120
N236	N	1.676361	-0.092077	0.333453
N237	N	2.009695	0.241256	0.666787
N238	N	1.361269	-0.454809	-0.072008
N239	N	1.694602	-0.121475	0.261325
N240	N	2.027935	0.211858	0.594658
H241	H	1.421586	-0.477095	-0.071997
H242	H	1.754919	-0.143762	0.261337
H243	H	2.088252	0.189572	0.594670
N244	N	1.253498	-0.701002	0.000108
N245	N	1.586831	-0.367669	0.333441
N246	N	1.920165	-0.034335	0.666775
N247	N	1.328134	-0.728595	0.000124
N248	N	1.661467	-0.395261	0.333458
N249	N	1.994801	-0.061928	0.666791
H250	H	1.389167	-0.714519	0.000142
H251	H	1.722501	-0.381186	0.333475
H252	H	2.055834	-0.047853	0.666809
H253	H	0.849444	-0.538266	0.000032
H254	H	1.182778	-0.204933	0.333366
H255	H	1.516111	0.128400	0.666699
H256	H	1.234182	-0.796516	0.000084
H257	H	1.567515	-0.463183	0.333417
H258	H	1.900849	-0.129850	0.666750
N259	N	0.911509	-0.779934	0.000070
N260	N	1.244842	-0.446601	0.333403
N261	N	1.578176	-0.113267	0.666736
N262	N	0.855308	-0.770502	0.072202
N263	N	1.188641	-0.437168	0.405536
N264	N	1.521974	-0.103835	0.738869
H265	H	0.794281	-0.784584	0.072210
H266	H	1.127614	-0.451250	0.405543
H267	H	1.460948	-0.117917	0.738876
N268	N	0.913472	-0.678030	0.000038
N269	N	1.246805	-0.344696	0.333371
N270	N	1.580139	-0.011363	0.666704
N271	N	0.837965	-0.695478	0.000032
N272	N	1.171298	-0.362145	0.333365
N273	N	1.504631	-0.028811	0.666698
H274	H	0.777635	-0.673203	0.000023
H275	H	1.110968	-0.339869	0.333356
H276	H	1.444301	-0.006536	0.666690
N277	N	0.834831	-0.391046	0.000023
N278	N	1.168164	-0.057713	0.333356
N279	N	1.501498	0.275621	0.666689
N280	N	0.760199	-0.363450	0.000003
N281	N	1.093532	-0.030117	0.333336
N282	N	1.426866	0.303217	0.666670
H283	H	0.699162	-0.377522	-0.000016
H284	H	1.032496	-0.044189	0.333317
H285	H	1.365829	0.289144	0.666650
H286	H	0.942736	-0.069306	0.000118
H287	H	1.276069	0.264027	0.333451
H288	H	1.609402	0.597361	0.666784
H289	H	0.854144	-0.295547	0.000029
H290	H	1.187478	0.037786	0.333362
H291	H	1.520811	0.371120	0.666695
H292	H	0.940955	-0.160781	0.000126
H293	H	1.274288	0.172552	0.333459
H294	H	1.607621	0.505885	0.666793
