data_functionalizedCrystal
_audit_creation_method	'MofGen! by Chris Wilmer'
_symmetry_space_group_name_H-M	'P1'
_symmetry_Int_Tables_number	1
_symmetry_cell_setting	triclinic
loop_
_symmetry_equiv_pos_as_xyz
  x,y,z
_cell_length_a	15.995350
_cell_length_b	8.559649
_cell_length_c	7.088929
_cell_angle_alpha	95.344185
_cell_angle_beta	96.207399
_cell_angle_gamma	103.364480
loop_
_atom_site_label
_atom_site_type_symbol
_atom_site_fract_x
_atom_site_fract_y
_atom_site_fract_z
O1	O	1.088100	-0.222368	-0.158820
O2	O	0.842687	-0.247805	-0.158858
O3	O	0.987015	-0.002484	-0.158834
O4	O	0.943773	-0.467689	-0.158844
O5	O	1.006308	0.030375	0.159145
O6	O	0.861980	-0.214946	0.159120
O7	O	1.107393	-0.189509	0.159159
Cu8	Cu	0.986448	-0.199227	0.188173
Cu9	Cu	0.963632	-0.238087	-0.187873
O10	O	0.963065	-0.434830	0.159134
C11	C	0.821206	-0.230325	0.000126
C12	C	0.728458	-0.227174	0.000111
N13	N	1.002502	-0.171895	0.452664
C14	C	0.999938	0.073475	0.000152
C15	C	1.009692	0.250854	0.000143
C16	C	0.391440	-0.215849	0.000151
C17	C	0.450152	-0.041064	0.000865
C18	C	0.546595	-0.044292	0.000135
C19	C	0.558639	-0.221466	0.000132
C20	C	0.500994	-0.326403	-0.181443
C21	C	0.404632	-0.322029	-0.181582
C22	C	0.426000	-0.288272	0.180019
C23	C	0.523093	-0.287984	0.182406
C24	C	0.653130	-0.224651	0.000115
C25	C	0.296947	-0.212671	0.000155
C26	C	1.128874	-0.206990	0.000170
C27	C	1.221622	-0.210142	0.000173
C28	C	0.950142	-0.510789	0.000144
C29	C	0.940387	-0.688170	0.000140
N30	N	0.947586	-0.265407	-0.452364
H31	H	0.587277	0.036895	0.130296
H32	H	0.562605	-0.211197	0.316735
H33	H	0.506339	-0.457266	-0.188196
H34	H	1.076495	0.334363	0.000169
H35	H	1.059424	-0.074994	0.534330
H36	H	0.530815	-0.416051	0.193372
H37	H	0.890673	-0.362312	0.465980
H38	H	0.427172	0.015069	-0.128629
O39	O	0.442686	0.058315	0.156057
C40	C	0.355669	0.067638	0.152197
H41	H	0.321391	0.035713	-0.000871
H42	H	0.353588	0.195788	0.207974
H43	H	0.321666	-0.021044	0.246364
O44	O	0.575543	0.020729	-0.155627
C45	C	0.525674	-0.070306	-0.323063
H46	H	0.495054	-0.197542	-0.291318
H47	H	0.569171	-0.077535	-0.439172
H48	H	0.472475	-0.009455	-0.374094
H49	H	0.382129	-0.273213	-0.317313
H50	H	0.363635	-0.451151	-0.189824
H51	H	0.873590	0.228333	0.000136
H52	H	0.386030	-0.416959	0.181245
O53	O	0.529715	-0.271903	-0.342711
C54	C	0.553952	-0.396648	-0.451511
H55	H	0.569793	-0.487661	-0.354292
H56	H	0.613465	-0.343020	-0.520838
H57	H	0.498198	-0.460136	-0.567379
O58	O	0.415741	-0.203278	0.344195
C59	C	0.362118	-0.306919	0.449340
H60	H	0.320251	-0.414945	0.348754
H61	H	0.318643	-0.238340	0.521509
H62	H	0.404098	-0.351278	0.562779
