data_functionalizedCrystal
_audit_creation_method	'MofGen! by Chris Wilmer'
_symmetry_space_group_name_H-M	'P1'
_symmetry_Int_Tables_number	1
_symmetry_cell_setting	triclinic
loop_
_symmetry_equiv_pos_as_xyz
  x,y,z
_cell_length_a	12.759401
_cell_length_b	12.759399
_cell_length_c	18.215399
_cell_angle_alpha	89.976610
_cell_angle_beta	89.982063
_cell_angle_gamma	90.015037
loop_
_atom_site_label
_atom_site_type_symbol
_atom_site_fract_x
_atom_site_fract_y
_atom_site_fract_z
Zn1	Zn	1.606227	-0.418297	-0.416102
Zn2	Zn	1.606124	-0.593994	-0.293045
Zn3	Zn	1.430535	-0.418328	-0.293053
Zn4	Zn	1.430514	-0.593932	-0.416074
O5	O	1.518350	-0.506138	-0.354569
O6	O	1.753234	-0.441617	-0.399786
O7	O	1.582798	-0.570731	-0.190062
O8	O	1.453893	-0.271303	-0.309391
O9	O	1.753159	-0.570701	-0.309377
O10	O	1.582973	-0.271280	-0.399794
O11	O	1.453793	-0.441669	-0.190068
O12	O	1.283511	-0.441609	-0.309364
O13	O	1.453857	-0.570595	-0.519062
O14	O	1.283496	-0.570625	-0.399747
O15	O	1.582953	-0.441557	-0.519083
O16	O	1.582778	-0.741007	-0.309351
O17	O	1.453758	-0.740962	-0.399740
C18	C	1.245383	-0.506114	-0.354554
C19	C	1.128606	-0.506130	-0.354565
C20	C	1.518283	-0.779105	-0.354557
C21	C	1.518350	-0.895882	-0.354577
C22	C	0.963990	-0.438887	-0.307600
C23	C	1.073714	-0.438863	-0.307589
C24	C	1.073768	-0.573418	-0.401561
C25	C	0.964046	-0.573436	-0.401575
C26	C	1.223658	-0.314883	-0.281423
C27	C	1.278491	-0.247607	-0.234421
C28	C	1.242831	-0.231350	-0.162636
C29	C	1.152338	-0.282383	-0.137840
C30	C	1.097510	-0.349667	-0.184838
C31	C	1.133169	-0.365905	-0.256633
C32	C	0.814101	-0.697417	-0.427733
C33	C	0.759271	-0.764707	-0.474728
C34	C	0.794929	-0.780975	-0.546514
C35	C	0.885425	-0.729960	-0.571308
C36	C	0.940256	-0.662670	-0.524313
C37	C	0.904590	-0.646400	-0.452528
C38	C	1.451159	-0.950758	-0.401608
C39	C	1.451225	-1.060482	-0.401622
C40	C	1.585681	-1.060444	-0.307572
C41	C	1.585609	-0.950722	-0.307555
C42	C	1.327397	-1.210522	-0.427864
C43	C	1.260215	-1.265402	-0.474907
C44	C	1.244004	-1.229742	-0.546700
C45	C	1.294989	-1.139203	-0.571465
C46	C	1.362178	-1.084328	-0.524426
C47	C	1.378370	-1.119987	-0.452623
C48	C	1.709439	-0.800680	-0.281320
C49	C	1.776635	-0.745803	-0.234285
C50	C	1.792857	-0.781462	-0.162490
C51	C	1.741890	-0.872004	-0.137728
C52	C	1.674695	-0.926881	-0.184764
C53	C	1.658471	-0.891215	-0.256557
C54	C	1.792383	-0.506162	-0.354584
C55	C	1.909160	-0.506173	-0.354591
C56	C	1.518414	-0.506065	-0.546522
C57	C	1.518441	-0.506035	-0.628321
C58	C	1.518447	-0.232105	-0.354596
C59	C	1.518488	-0.115328	-0.354608
C60	C	1.585686	-0.438781	-0.816526
C61	C	1.585698	-0.438751	-0.893385
C62	C	1.451272	-0.573125	-0.893353
C63	C	1.451255	-0.573150	-0.816496
C64	C	1.518468	-0.505979	-0.778084
C65	C	1.518497	-0.505924	-0.931801
C66	C	1.518510	-0.505892	-1.015134
C67	C	1.518453	-0.506010	-0.694745
C68	C	1.518347	-0.506134	-0.163363
C69	C	1.518523	-0.505869	-0.081564
H70	H	0.919305	-0.384112	-0.269345
Cl71	Cl	1.107523	-0.261955	-0.047586
Cl72	Cl	1.159549	-1.298738	-0.605838
Cl73	Cl	1.196118	-1.379215	-0.443773
Cl74	Cl	1.366739	-0.657628	-0.768165
Cl75	Cl	1.366786	-0.657569	-0.941647
H76	H	1.023834	-0.391219	-0.164648
Cl77	Cl	1.610625	-1.040712	-0.153635
Cl78	Cl	1.762288	-0.916842	-0.047471
H79	H	1.287484	-0.176571	-0.124367
Cl80	Cl	1.670214	-0.354278	-0.941709
H81	H	1.340578	-1.239558	-0.369402
H82	H	1.352171	-0.206056	-0.254617
Cl83	Cl	1.670240	-1.129393	-0.248468
H84	H	1.252695	-0.328105	-0.339878
Cl85	Cl	0.930262	-0.750415	-0.661555
Cl86	Cl	1.142776	-0.657987	-0.460614
H87	H	1.013943	-0.621131	-0.544507
Cl88	Cl	1.840716	-0.631981	-0.265417
Cl89	Cl	0.645517	-0.828862	-0.443551
Cl90	Cl	0.726002	-0.865578	-0.605592
Cl91	Cl	0.769266	-0.676968	-0.337484
Cl92	Cl	1.689031	-0.755832	-0.371575
Cl93	Cl	1.366601	-0.881820	-0.460719
Cl94	Cl	1.274620	-1.094388	-0.661729
Cl95	Cl	1.426271	-0.970515	-0.555552
H96	H	1.847576	-0.736772	-0.124195
H97	H	1.640412	-0.384084	-0.785254
