data_functionalizedCrystal
_audit_creation_method	'MofGen! by Chris Wilmer'
_symmetry_space_group_name_H-M	'P1'
_symmetry_Int_Tables_number	1
_symmetry_cell_setting	triclinic
loop_
_symmetry_equiv_pos_as_xyz
  x,y,z
_cell_length_a	17.640112
_cell_length_b	25.639239
_cell_length_c	25.639233
_cell_angle_alpha	89.981253
_cell_angle_beta	101.179825
_cell_angle_gamma	101.263838
loop_
_atom_site_label
_atom_site_type_symbol
_atom_site_fract_x
_atom_site_fract_y
_atom_site_fract_z
Zn1	Zn	1.208290	-0.046428	-0.134303
Zn2	Zn	1.208174	-0.133862	-0.046882
Zn3	Zn	1.076121	-0.064124	-0.064526
Zn4	Zn	1.076038	-0.151542	-0.151927
O5	O	1.142156	-0.098989	-0.099409
O6	O	1.318888	-0.043221	-0.107946
O7	O	1.190644	-0.124618	0.023941
O8	O	1.093736	0.011400	-0.073790
O9	O	1.318803	-0.107458	-0.043719
O10	O	1.190841	0.024401	-0.125054
O11	O	1.093624	-0.073382	0.010978
O12	O	0.965497	-0.090525	-0.090880
O13	O	1.093595	-0.137592	-0.222752
O14	O	0.965436	-0.154751	-0.155093
O15	O	1.190760	-0.060365	-0.209804
O16	O	1.190563	-0.209384	-0.060809
O17	O	1.093483	-0.222373	-0.137985
C18	C	0.936785	-0.126478	-0.126814
C19	C	0.848927	-0.138250	-0.138550
C20	C	0.560021	-0.009547	-0.010257
C21	C	0.477465	-0.020619	-0.021291
C22	C	0.477455	-0.087590	-0.088041
C23	C	0.560013	-0.076521	-0.077014
C24	C	0.601290	-0.037500	-0.038121
C25	C	0.601282	-0.104474	-0.104878
C26	C	0.683833	-0.093408	-0.093849
C27	C	0.725115	-0.054389	-0.054957
C28	C	0.683840	-0.026434	-0.027092
C29	C	0.560004	-0.143498	-0.143769
C30	C	0.601273	-0.171450	-0.171633
C31	C	0.683825	-0.160382	-0.160607
C32	C	0.725107	-0.121363	-0.121714
C33	C	0.725100	-0.188337	-0.188472
C34	C	0.807651	-0.177271	-0.177443
C35	C	0.807658	-0.110297	-0.110685
C36	C	1.142023	-0.234849	-0.099403
C37	C	1.142038	-0.292961	-0.099408
C38	C	1.192837	-0.646515	-0.059263
C39	C	1.192868	-0.701115	-0.059266
O40	O	1.235921	-0.723580	-0.025126
N41	N	1.142295	-0.735209	-0.099426
C42	C	1.091693	-0.714701	-0.139588
O43	O	1.048680	-0.748714	-0.173747
C44	C	1.091667	-0.660101	-0.139586
C45	C	1.142238	-0.626009	-0.099421
C46	C	1.243405	-0.612424	-0.019102
C47	C	1.243373	-0.557828	-0.019099
C48	C	1.192774	-0.537322	-0.059257
C49	C	1.142206	-0.571413	-0.099418
C50	C	1.041070	-0.639592	-0.179750
C51	C	1.041049	-0.584988	-0.179745
C52	C	1.091620	-0.550897	-0.139580
C53	C	1.091575	-0.496312	-0.139573
N54	N	1.142148	-0.462217	-0.099413
C55	C	1.192748	-0.482722	-0.059255
C56	C	1.091753	-0.829363	-0.139588
C57	C	1.091774	-0.883963	-0.139587
C58	C	1.192950	-0.870373	-0.059266
C59	C	1.192924	-0.815773	-0.059265
C60	C	1.142326	-0.795269	-0.099428
C61	C	1.192676	-0.368067	-0.059251
C62	C	1.192638	-0.313467	-0.059250
C63	C	1.091465	-0.327061	-0.139573
C64	C	1.091500	-0.381656	-0.139572
C65	C	1.142112	-0.402157	-0.099409
O66	O	1.048546	-0.473808	-0.173697
O67	O	1.235761	-0.448702	-0.025106
C68	C	1.348328	-0.071394	-0.071899
C69	C	1.436186	-0.059634	-0.060175
C70	C	1.142181	-0.098976	-0.235779
C71	C	1.142192	-0.098971	-0.293892
C72	C	1.142311	0.037405	-0.099424
C73	C	1.142377	0.095528	-0.099430
C74	C	1.192850	-0.058651	-0.647510
C75	C	1.192860	-0.058635	-0.702113
O76	O	1.235868	-0.024424	-0.724623
N77	N	1.142279	-0.098837	-0.736163
C78	C	1.091680	-0.139054	-0.715608
O79	O	1.048657	-0.173247	-0.749584
C80	C	1.091667	-0.139067	-0.661007
C81	C	1.142256	-0.098866	-0.626958
C82	C	1.243435	-0.018453	-0.613462
C83	C	1.243426	-0.018469	-0.558862
C84	C	1.192832	-0.058684	-0.538311
C85	C	1.142247	-0.098882	-0.572359
C86	C	1.041064	-0.179281	-0.640453
C87	C	1.041054	-0.179291	-0.585848
C88	C	1.091644	-0.139090	-0.551799
C89	C	1.091645	-0.139113	-0.497208
N90	N	1.142225	-0.098912	-0.463158
C91	C	1.192819	-0.058697	-0.483709
C92	C	1.091710	-0.139023	-0.830275
C93	C	1.091727	-0.139012	-0.884875
C94	C	1.192906	-0.058593	-0.871376
C95	C	1.192893	-0.058606	-0.816774
C96	C	1.142291	-0.098821	-0.796225
C97	C	1.192797	-0.058735	-0.369047
C98	C	1.192786	-0.058756	-0.314443
C99	C	1.091604	-0.139174	-0.327947
C100	C	1.091618	-0.139154	-0.382546
C101	C	1.142217	-0.098930	-0.403094
O102	O	1.048657	-0.173306	-0.474660
O103	O	1.235827	-0.024506	-0.449728
C104	C	1.142176	-0.098958	0.036436
C105	C	1.142318	-0.098795	0.094569
H106	H	0.593630	0.022236	0.021407
O107	O	1.242136	-0.890374	-0.020338
C108	C	1.231326	-0.945873	-0.028966
H109	H	1.205323	-0.956794	-0.072753
H110	H	1.290570	-0.958639	-0.017614
H111	H	1.189346	-0.967063	-0.003506
O112	O	0.437498	0.006603	0.005810
C113	C	0.491635	0.043405	0.042512
H114	H	0.550493	0.053075	0.028956
H115	H	0.467808	0.081414	0.044834
H116	H	0.500380	0.025488	0.083423
O117	O	1.042248	-0.307226	-0.178611
C118	C	0.997635	-0.349017	-0.214074
H119	H	0.994921	-0.388315	-0.193025
H120	H	0.935349	-0.341613	-0.227939
H121	H	1.026558	-0.350917	-0.249935
H122	H	1.050587	-0.911717	-0.172290
H123	H	0.691480	-0.220112	-0.220135
H124	H	1.234101	-0.025846	-0.888119
H125	H	1.233997	-0.025979	-0.385771
H126	H	0.841252	-0.200033	-0.200133
H127	H	0.841268	-0.078514	-0.079022
H128	H	1.284620	0.014268	-0.531144
H129	H	0.492786	-0.152506	-0.152747
H130	H	1.284635	0.014298	-0.630188
H131	H	1.050324	-0.409415	-0.172279
O132	O	0.437234	-0.125460	-0.125821
C133	C	0.355523	-0.129244	-0.129571
H134	H	0.344265	-0.090380	-0.114021
H135	H	0.324168	-0.137049	-0.172917
H136	H	0.332062	-0.163364	-0.104809
H137	H	0.717450	0.005349	0.004571
H138	H	1.050540	-0.171752	-0.912592
H139	H	1.050431	-0.171893	-0.410269
H140	H	1.284613	-0.629112	0.013600
H141	H	0.567655	-0.203223	-0.203298
H142	H	0.792333	-0.045381	-0.045977
H143	H	1.233818	-0.285710	-0.026541
O144	O	1.241862	-0.387893	-0.020183
C145	C	1.286495	-0.346085	0.015253
H146	H	1.254092	-0.311526	0.012755
H147	H	1.294977	-0.360733	0.057576
H148	H	1.346506	-0.332191	0.004085
H149	H	1.050543	-0.812673	-0.172293
O150	O	0.991954	-0.218402	-0.673454
C151	C	1.009177	-0.268209	-0.657809
H152	H	1.039569	-0.265227	-0.614113
H153	H	0.952099	-0.299289	-0.663540
H154	H	1.049787	-0.280386	-0.683123
H155	H	1.284554	-0.530073	0.013606
O156	O	1.242125	-0.782730	-0.020224
C157	C	1.286770	-0.812546	0.015226
H158	H	1.289499	-0.851092	-0.005833
H159	H	1.349049	-0.788396	0.029084
H160	H	1.257865	-0.822260	0.051092
H161	H	0.999886	-0.667341	-0.212455
O162	O	1.042574	-0.178246	-0.307900
C163	C	1.087542	-0.206008	-0.270322
H164	H	1.147468	-0.179549	-0.254159
H165	H	1.055342	-0.217325	-0.236214
H166	H	1.096176	-0.243598	-0.290203
H167	H	0.999846	-0.568297	-0.212453
H168	H	1.233985	-0.026019	-0.286722
O169	O	1.242056	-0.019500	-0.783780
C170	C	1.286727	0.015986	-0.813633
H171	H	1.254359	0.013468	-0.856875
H172	H	1.295204	0.058313	-0.796735
H173	H	1.346739	0.004872	-0.811428
H174	H	1.050503	-0.171773	-0.813548
H175	H	0.999839	-0.212035	-0.569121
