data_functionalizedCrystal
_audit_creation_method	'MofGen! by Chris Wilmer'
_symmetry_space_group_name_H-M	'P1'
_symmetry_Int_Tables_number	1
_symmetry_cell_setting	triclinic
loop_
_symmetry_equiv_pos_as_xyz
  x,y,z
_cell_length_a	17.019292
_cell_length_b	10.654550
_cell_length_c	9.130313
_cell_angle_alpha	89.999737
_cell_angle_beta	86.122024
_cell_angle_gamma	96.063664
loop_
_atom_site_label
_atom_site_type_symbol
_atom_site_fract_x
_atom_site_fract_y
_atom_site_fract_z
O1	O	-1.047554	0.159930	0.010398
O2	O	-0.818000	0.180345	-0.018569
O3	O	-0.938055	-0.012685	-0.003425
O4	O	-0.927499	0.352960	-0.004745
O5	O	-0.938046	-0.012690	0.240172
O6	O	-0.817992	0.180340	0.225029
O7	O	-1.047545	0.159925	0.253996
Cu8	Cu	-0.932768	0.170132	0.261755
Cu9	Cu	-0.932778	0.170138	-0.026328
O10	O	-0.927491	0.352954	0.238852
C11	C	-0.788603	0.179570	0.099521
C12	C	-0.701020	0.177255	0.088468
C13	C	-0.659873	0.176162	0.216064
C14	C	-0.577581	0.173966	0.205683
C15	C	-0.536437	0.172874	0.067705
C16	C	-0.577589	0.173964	-0.059901
C17	C	-0.659880	0.176150	-0.049518
C18	C	-0.287971	0.166264	0.029714
C19	C	-0.205674	0.164082	0.019341
C20	C	-0.205672	0.164082	0.284926
C21	C	-0.287964	0.166276	0.295297
C22	C	-0.329110	0.167359	0.167691
C23	C	-0.452321	0.170634	0.057091
C24	C	-0.413225	0.169590	0.178307
C25	C	-0.937276	-0.059473	0.118271
C26	C	-0.934957	-0.198880	0.117964
N27	N	-0.932767	0.170126	0.464377
C28	C	-0.076943	0.160693	0.135901
C29	C	-0.164528	0.162988	0.146937
C30	C	-0.928270	0.399743	0.117153
C31	C	-0.930589	0.539150	0.117450
C32	C	-0.859903	0.619747	0.108526
C33	C	-0.862086	0.750733	0.108779
C34	C	-1.005648	0.720513	0.126884
C35	C	-1.003464	0.589529	0.126621
N36	N	-0.932785	0.170134	-0.228949
C37	C	-0.985945	0.084688	0.547737
C38	C	-0.985953	0.084689	0.701075
C39	C	-0.879601	0.255576	0.687679
C40	C	-0.879590	0.255568	0.534344
H41	H	-0.172163	0.163198	0.388815
H42	H	-1.029243	0.015114	0.490774
H43	H	-0.836282	0.325143	0.466467
H44	H	-0.693367	0.177062	0.328421
H45	H	-1.064981	0.761548	0.134366
C46	C	-1.081225	0.500862	0.136439
C47	C	-1.140742	0.506405	0.270438
C48	C	-1.218498	0.417739	0.280248
C49	C	-1.236737	0.323530	0.156058
C50	C	-1.177219	0.317983	0.022049
C51	C	-1.099462	0.406649	0.012239
H52	H	-1.127241	0.576148	0.362380
H53	H	-1.262558	0.421846	0.379451
H54	H	-1.294297	0.257894	0.163320
H55	H	-1.190719	0.248241	-0.069893
H56	H	-1.055403	0.402543	-0.086964
H57	H	-1.029254	0.015116	0.768942
C58	C	-0.821115	0.349569	0.764644
C59	C	-0.821168	0.349660	0.933313
C60	C	-0.762681	0.443659	1.010272
C61	C	-0.704142	0.537568	0.918564
C62	C	-0.704087	0.537481	0.749886
C63	C	-0.762573	0.443481	0.672926
H64	H	-0.864504	0.280140	1.001209
H65	H	-0.762723	0.443723	1.135139
H66	H	-0.660847	0.607152	0.975534
H67	H	-0.660750	0.607001	0.681990
H68	H	-0.762531	0.443417	0.548060
C69	C	-0.532324	0.172769	0.346047
C70	C	-0.467382	0.280258	0.374380
C71	C	-0.422128	0.279059	0.514754
C72	C	-0.441816	0.170371	0.626794
C73	C	-0.506761	0.062874	0.598464
C74	C	-0.552015	0.064073	0.458090
H75	H	-0.452805	0.360723	0.291439
H76	H	-0.374051	0.358636	0.535725
H77	H	-0.408316	0.169483	0.730707
H78	H	-0.521338	-0.017591	0.681405
H79	H	-0.600092	-0.015504	0.437119
C80	C	-0.160410	0.162873	-0.132441
C81	C	-0.112195	0.052380	-0.175022
C82	C	-0.066928	0.051175	-0.326793
C83	C	-0.069876	0.160464	-0.435983
C84	C	-0.118092	0.270966	-0.393405
C85	C	-0.163359	0.272171	-0.241634
H86	H	-0.110011	-0.028530	-0.094190
H87	H	-0.031235	-0.030627	-0.358312
H88	H	-0.036366	0.159572	-0.548333
H89	H	-0.120276	0.351875	-0.474236
H90	H	-0.199052	0.353972	-0.210115
H91	H	-0.321459	0.167160	0.407653
H92	H	-0.321463	0.167143	-0.074192
H93	H	-0.800563	0.578733	0.101063
C94	C	-0.532334	0.172759	-0.211682
C95	C	-0.535290	0.282053	-0.320861
C96	C	-0.490038	0.280851	-0.472647
C97	C	-0.441830	0.170355	-0.515253
C98	C	-0.438872	0.061053	-0.406071
C99	C	-0.484125	0.062255	-0.254285
H100	H	-0.570979	0.363856	-0.289324
H101	H	-0.492228	0.361765	-0.553470
H102	H	-0.408332	0.169466	-0.627614
H103	H	-0.403184	-0.020750	-0.437608
H104	H	-0.481935	-0.018659	-0.173462
C105	C	-0.705145	0.177358	-0.189875
C106	C	-0.702199	0.068063	-0.299800
C107	C	-0.747464	0.069264	-0.440160
C108	C	-0.795676	0.179759	-0.470595
C109	C	-0.798624	0.289062	-0.360667
C110	C	-0.753359	0.287861	-0.220307
H111	H	-0.666508	-0.013739	-0.277272
H112	H	-0.745281	-0.011650	-0.521536
H113	H	-0.829184	0.180648	-0.574498
H114	H	-0.834315	0.370864	-0.383194
H115	H	-0.755542	0.368775	-0.138931
H116	H	-0.418812	0.169744	-0.055252
C117	C	-0.784329	0.839389	0.098969
C118	C	-0.766084	0.933577	-0.029840
C119	C	-0.688324	1.022232	-0.039653
C120	C	-0.628807	1.016699	0.079343
C121	C	-0.647050	0.922507	0.208162
C122	C	-0.724811	0.833852	0.217974
H123	H	-0.810143	0.937676	-0.117937
H124	H	-0.674819	1.091959	-0.135013
H125	H	-0.571244	1.082327	0.072079
H126	H	-0.602992	0.918408	0.296258
H127	H	-0.738316	0.764125	0.313335
H128	H	-0.446729	0.170474	0.290648
