data_functionalizedCrystal
_audit_creation_method	'MofGen! by Chris Wilmer'
_symmetry_space_group_name_H-M	'P1'
_symmetry_Int_Tables_number	1
_symmetry_cell_setting	triclinic
loop_
_symmetry_equiv_pos_as_xyz
  x,y,z
_cell_length_a	15.995350
_cell_length_b	11.026607
_cell_length_c	9.482900
_cell_angle_alpha	101.363848
_cell_angle_beta	99.336743
_cell_angle_gamma	83.960804
loop_
_atom_site_label
_atom_site_type_symbol
_atom_site_fract_x
_atom_site_fract_y
_atom_site_fract_z
O1	O	0.340363	-1.629075	-0.120882
O2	O	0.300437	-1.275769	-0.120885
O3	O	0.199968	-1.462080	-0.120882
O4	O	0.440832	-1.442765	-0.120885
O5	O	0.220481	-1.424236	0.120910
O6	O	0.320950	-1.237926	0.120907
O7	O	0.360875	-1.591231	0.120910
Cu8	Cu	0.342785	-1.411123	0.142986
Cu9	Cu	0.318527	-1.455878	-0.142961
O10	O	0.461344	-1.404921	0.120907
C11	C	0.303328	-1.211637	0.000010
C12	C	0.281371	-1.076923	0.000009
C13	C	0.178909	-1.442360	0.000011
C14	C	0.085597	-1.439967	0.000003
C15	C	0.357984	-1.655364	0.000012
C16	C	0.379940	-1.790080	0.000004
C17	C	-0.253446	-1.431369	0.000008
C18	C	-0.226057	-1.298767	-0.000536
C19	C	-0.128960	-1.301076	0.000009
C20	C	-0.085243	-1.435634	0.000005
C21	C	-0.104742	-1.479470	0.138078
C22	C	-0.201871	-1.476118	0.138193
C23	C	-0.225142	-1.521895	-0.136769
C24	C	-0.128356	-1.522149	-0.138594
C25	C	0.009819	-1.438051	0.000008
C26	C	-0.348507	-1.428954	0.000014
C27	C	0.482403	-1.424641	0.000011
C28	C	0.575714	-1.427036	0.000009
N29	N	0.359848	-1.379654	0.344106
C30	C	0.341997	-1.003118	0.000007
C31	C	0.319305	-0.863884	0.000005
N32	N	0.301459	-1.487357	-0.344081
C33	C	0.323554	-1.446587	0.416306
C34	C	0.337759	-1.420413	0.583723
H35	H	-0.116689	-1.265122	-0.098967
N36	N	0.428194	-1.053126	0.000026
N37	N	0.484175	-1.013439	0.101949
H38	H	0.545054	-1.048753	0.101965
N39	N	0.249319	-1.583612	0.578024
N40	N	0.215214	-1.646580	0.645822
H41	H	0.178402	-1.714575	0.590810
H42	H	0.212664	-1.037037	-0.000028
N43	N	-0.269885	-1.251685	-0.124746
N44	N	-0.349212	-1.237239	-0.143552
H45	H	-0.380172	-1.203991	-0.231282
N46	N	0.412016	-1.283440	0.422010
N47	N	0.392704	-1.173865	0.405144
H48	H	0.429548	-1.105909	0.460160
H49	H	0.250594	-0.824003	-0.000031
N50	N	0.466134	-0.840118	0.000024
N51	N	0.484449	-0.953150	0.000036
H52	H	0.545322	-0.988492	0.000053
H53	H	0.379346	-1.343722	0.645846
N54	N	-0.250147	-1.213206	0.122984
N55	N	-0.287399	-1.249463	0.211414
H56	H	-0.304414	-1.189039	0.298653
N57	N	-0.223231	-1.597088	0.146095
N58	N	-0.191074	-1.646335	0.252300
H59	H	-0.206156	-1.731767	0.257893
N60	N	0.271348	-1.542716	0.338289
N61	N	0.206468	-1.517094	0.253340
H62	H	0.169587	-1.584966	0.198208
N63	N	-0.093241	-1.216631	0.124374
N64	N	-0.117750	-1.103968	0.140536
H65	H	-0.092524	-1.044325	0.228375
N66	N	-0.222863	-1.395962	0.267664
N67	N	-0.207300	-1.284393	0.292167
H68	H	-0.222121	-1.227776	0.383608
N69	N	-0.067767	-1.602467	0.144513
N70	N	0.010821	-1.625291	0.150600
H71	H	0.036939	-1.712158	0.155140
N72	N	-0.066797	-1.402265	0.266972
N73	N	-0.025372	-1.314917	0.257502
H74	H	0.001426	-1.260384	0.348531
H75	H	-0.261099	-1.494892	-0.241421
H76	H	-0.116985	-1.490286	-0.240737
H77	H	-0.098912	-1.621579	-0.146934
H78	H	-0.242236	-1.619870	-0.137701
