data_functionalizedCrystal
_audit_creation_method	'MofGen! by Chris Wilmer'
_symmetry_space_group_name_H-M	'P1'
_symmetry_Int_Tables_number	1
_symmetry_cell_setting	triclinic
loop_
_symmetry_equiv_pos_as_xyz
  x,y,z
_cell_length_a	16.974897
_cell_length_b	15.455301
_cell_length_c	16.992695
_cell_angle_alpha	87.173129
_cell_angle_beta	92.972799
_cell_angle_gamma	96.650569
loop_
_atom_site_label
_atom_site_type_symbol
_atom_site_fract_x
_atom_site_fract_y
_atom_site_fract_z
O1	O	1.062125	0.146612	-0.106206
O2	O	1.395458	0.479946	0.227127
O3	O	1.728791	0.813279	0.560461
O4	O	0.831990	0.130476	-0.118237
O5	O	1.165323	0.463810	0.215096
O6	O	1.498657	0.797143	0.548429
O7	O	0.946134	0.138473	0.001923
O8	O	1.279468	0.471806	0.335257
O9	O	1.612801	0.805139	0.668590
O10	O	0.947980	0.138616	-0.226366
O11	O	1.281314	0.471949	0.106967
O12	O	1.614647	0.805283	0.440300
O13	O	0.939537	-0.006253	0.008066
O14	O	1.272870	0.327080	0.341399
O15	O	1.606204	0.660414	0.674733
O16	O	0.825392	-0.014249	-0.112094
O17	O	1.158726	0.319084	0.221239
O18	O	1.492059	0.652417	0.554572
O19	O	1.055527	0.001887	-0.100063
O20	O	1.388860	0.335220	0.233270
O21	O	1.722194	0.668553	0.566604
Cu22	Cu	0.939857	-0.019396	-0.105518
Cu23	Cu	1.273191	0.313937	0.227816
Cu24	Cu	1.606524	0.647271	0.561149
Cu25	Cu	0.947660	0.151759	-0.112782
Cu26	Cu	1.280993	0.485092	0.220551
Cu27	Cu	1.614326	0.818426	0.553884
O28	O	0.941383	-0.006110	-0.220223
O29	O	1.274716	0.327224	0.113110
O30	O	1.608049	0.660557	0.446443
C31	C	0.799108	0.056039	-0.114592
C32	C	1.132441	0.389373	0.218741
C33	C	1.465775	0.722706	0.552075
C34	C	0.710959	0.049858	-0.112873
C35	C	1.044293	0.383192	0.220460
C36	C	1.377626	0.716525	0.553794
N37	N	0.934375	-0.139777	-0.100408
N38	N	1.267709	0.193557	0.232926
N39	N	1.601042	0.526890	0.566259
C40	C	0.673135	0.125838	-0.115416
C41	C	1.006469	0.459172	0.217918
C42	C	1.339802	0.792505	0.551251
C43	C	0.590309	0.120018	-0.113812
C44	C	0.923642	0.453351	0.219521
C45	C	1.256975	0.786685	0.552854
C46	C	0.545308	0.038217	-0.109661
C47	C	0.878641	0.371550	0.223672
C48	C	1.211974	0.704884	0.557006
C49	C	0.583137	-0.037768	-0.107121
C50	C	0.916470	0.295565	0.226213
C51	C	1.249803	0.628898	0.559546
C52	C	0.665962	-0.031947	-0.108730
C53	C	0.999295	0.301386	0.224604
C54	C	1.332628	0.634719	0.557937
C55	C	0.297212	0.012348	-0.104496
C56	C	0.630546	0.345681	0.228837
C57	C	0.963879	0.679015	0.562171
C58	C	0.214382	0.006532	-0.102885
C59	C	0.547715	0.339866	0.230448
C60	C	0.881049	0.673199	0.563782
C61	C	0.221560	0.164319	-0.109578
C62	C	0.554893	0.497653	0.223755
C63	C	0.888226	0.830986	0.557089
C64	C	0.304386	0.170133	-0.111182
C65	C	0.637719	0.503467	0.222151
C66	C	0.971053	0.836800	0.555485
C67	C	0.342208	0.094148	-0.108646
C68	C	0.675541	0.427481	0.224688
C69	C	1.008874	0.760815	0.558021
N70	N	0.460645	0.032266	-0.108020
N71	N	0.793979	0.365599	0.225313
N72	N	1.127312	0.698932	0.558647
N73	N	0.426868	0.100100	-0.110293
N74	N	0.760201	0.433433	0.223041
N75	N	1.093535	0.766767	0.556374
C76	C	0.983421	-0.181725	-0.146161
C77	C	1.316755	0.151608	0.187172
C78	C	1.650088	0.484941	0.520506
C79	C	0.979286	-0.272824	-0.142291
C80	C	1.312619	0.060510	0.191042
C81	C	1.645952	0.393843	0.524375
C82	C	0.926100	-0.321972	-0.092673
C83	C	1.259433	0.011361	0.240661
C84	C	1.592766	0.344695	0.573994
C85	C	0.877052	-0.280017	-0.046914
C86	C	1.210385	0.053316	0.286419
C87	C	1.543718	0.386650	0.619752
C88	C	0.881192	-0.188920	-0.050780
C89	C	1.214525	0.144413	0.282553
C90	C	1.547858	0.477747	0.615887
C91	C	0.908240	-0.594808	-0.075994
C92	C	1.241573	-0.261475	0.257340
C93	C	1.574907	0.071859	0.590673
C94	C	0.904102	-0.685911	-0.072133
C95	C	1.237435	-0.352578	0.261200
C96	C	1.570768	-0.019245	0.594534
C97	C	1.006337	-0.678712	-0.167510
C98	C	1.339671	-0.345378	0.165824
C99	C	1.673004	-0.012045	0.499157
C100	C	1.010469	-0.587613	-0.171375
C101	C	1.343803	-0.254280	0.161959
C102	C	1.677136	0.079053	0.495292
C103	C	0.961424	-0.545666	-0.125613
C104	C	1.294758	-0.212333	0.207720
C105	C	1.628091	0.121001	0.541053
N106	N	0.921869	-0.415089	-0.088718
N107	N	1.255203	-0.081756	0.244615
N108	N	1.588536	0.251577	0.577949
N109	N	0.965659	-0.452550	-0.129564
N110	N	1.298993	-0.119217	0.203769
N111	N	1.632326	0.214117	0.537103
C112	C	1.088409	0.076326	-0.103708
C113	C	1.421742	0.409659	0.229625
C114	C	1.755076	0.742992	0.562958
C115	C	1.176558	0.082512	-0.105427
C116	C	1.509892	0.415846	0.227906
C117	C	1.843225	0.749179	0.561239
C118	C	0.940462	0.065944	0.034212
C119	C	1.273795	0.399277	0.367545
C120	C	1.607129	0.732610	0.700879
C121	C	0.933380	0.065447	0.121270
C122	C	1.266713	0.398781	0.454603
C123	C	1.600047	0.732114	0.787936
N124	N	0.953148	0.272140	-0.117886
N125	N	1.286481	0.605473	0.215447
N126	N	1.619814	0.938807	0.548780
C127	C	0.947055	0.066421	-0.252512
C128	C	1.280388	0.399755	0.080821
C129	C	1.613722	0.733088	0.414155
C130	C	0.954138	0.066923	-0.339570
C131	C	1.287471	0.400257	-0.006237
C132	C	1.620804	0.733590	0.327096
C133	C	1.001713	0.070238	0.171377
C134	C	1.335046	0.403571	0.504710
C135	C	1.668380	0.736904	0.838044
C136	C	0.995054	0.069779	0.253176
C137	C	1.328387	0.403112	0.586509
C138	C	1.661721	0.736446	0.919843
C139	C	0.920061	0.064524	0.284867
C140	C	1.253395	0.397857	0.618200
C141	C	1.586728	0.731190	0.951534
C142	C	0.851723	0.059736	0.234753
C143	C	1.185057	0.393069	0.568087
C144	C	1.518390	0.726402	0.901420
C145	C	0.858383	0.060201	0.152955
C146	C	1.191717	0.393534	0.486289
C147	C	1.525050	0.726867	0.819622
C148	C	0.892459	0.062600	0.528518
C149	C	1.225793	0.395934	0.861851
C150	C	1.559126	0.729267	1.195185
C151	C	0.885805	0.062133	0.610323
C152	C	1.219138	0.395466	0.943656
C153	C	1.552471	0.728800	1.276989
C154	C	1.029136	0.072178	0.628740
C155	C	1.362469	0.405511	0.962073
C156	C	1.695803	0.738845	1.295406
C157	C	1.035789	0.072637	0.546940
C158	C	1.369122	0.405971	0.880273
C159	C	1.702456	0.739304	1.213606
C160	C	0.967451	0.067854	0.496833
C161	C	1.300785	0.401187	0.830166
C162	C	1.634118	0.734520	1.163500
N163	N	0.913253	0.064052	0.368479
N164	N	1.246586	0.397385	0.701812
N165	N	1.579920	0.730719	1.035146
N166	N	0.974260	0.068332	0.413222
N167	N	1.307594	0.401665	0.746556
N168	N	1.640927	0.734998	1.079889
H169	H	0.709770	0.192449	-0.118794
H170	H	1.043103	0.525783	0.214540
H171	H	1.376437	0.859116	0.547873
H172	H	1.026727	-0.141715	-0.186571
H173	H	1.360060	0.191618	0.146763
H174	H	1.693393	0.524952	0.480096
Cl175	Cl	1.130071	0.079272	0.507105
Cl176	Cl	1.463404	0.412606	0.840438
Cl177	Cl	1.796737	0.745939	1.173772
Cl178	Cl	1.080963	0.075799	0.316165
Cl179	Cl	1.414296	0.409132	0.649499
Cl180	Cl	1.747630	0.742465	0.982832
Cl181	Cl	1.040945	-0.325555	-0.199814
Cl182	Cl	1.374278	0.007778	0.133519
Cl183	Cl	1.707612	0.341111	0.466852
H184	H	0.177742	-0.060083	-0.099526
H185	H	0.511075	0.273250	0.233807
H186	H	0.844409	0.606584	0.567140
H187	H	1.053781	-0.547602	-0.211777
H188	H	1.387115	-0.214269	0.121556
H189	H	1.720448	0.119064	0.454889
Cl190	Cl	0.174008	0.259838	-0.112758
Cl191	Cl	0.507342	0.593171	0.220575
Cl192	Cl	0.840675	0.926504	0.553909
Cl193	Cl	1.115041	0.078194	0.691735
Cl194	Cl	1.448374	0.411527	1.025068
Cl195	Cl	1.781707	0.744860	1.358401
H196	H	1.046267	-0.712875	-0.204765
H197	H	1.379601	-0.379542	0.128568
H198	H	1.712934	-0.046208	0.461901
H199	H	0.860787	-0.725926	-0.031728
H200	H	1.194120	-0.392593	0.301606
H201	H	1.527454	-0.059260	0.634939
H202	H	0.868304	-0.560666	-0.038731
H203	H	1.201637	-0.227332	0.294602
H204	H	1.534971	0.106001	0.627936
Cl205	Cl	0.360954	0.272973	-0.116396
Cl206	Cl	0.694287	0.606306	0.216937
Cl207	Cl	1.027620	0.939640	0.550271
H208	H	0.833750	-0.320041	-0.006509
H209	H	1.167083	0.013293	0.326824
H210	H	1.500417	0.346626	0.660157
H211	H	0.696756	-0.093818	-0.106663
H212	H	1.030089	0.239515	0.226671
H213	H	1.363423	0.572848	0.560004
H214	H	0.546490	-0.104373	-0.103745
H215	H	0.879823	0.228961	0.229588
H216	H	1.213156	0.562294	0.562921
Cl217	Cl	0.819539	-0.136184	0.006749
Cl218	Cl	1.152872	0.197150	0.340082
Cl219	Cl	1.486206	0.530483	0.673416
H220	H	1.062780	0.074512	0.145581
H221	H	1.396113	0.407845	0.478915
H222	H	1.729446	0.741178	0.812248
Cl223	Cl	0.791521	0.055521	0.650161
Cl224	Cl	1.124854	0.388854	0.983494
Cl225	Cl	1.458187	0.722188	1.316828
H226	H	0.327997	-0.049525	-0.102425
H227	H	0.661330	0.283808	0.230908
H228	H	0.994663	0.617142	0.564241
H229	H	0.836814	0.058705	0.487731
H230	H	1.170147	0.392038	0.821064
H231	H	1.503480	0.725372	1.154397
Cl232	Cl	0.757447	0.053140	0.274593
Cl233	Cl	1.090780	0.386473	0.607926
Cl234	Cl	1.424113	0.719806	0.941260
H235	H	0.802739	0.056300	0.112158
H236	H	1.136072	0.389633	0.445492
H237	H	1.469406	0.722967	0.778825
H238	H	0.559517	0.181889	-0.115883
H239	H	0.892850	0.515222	0.217450
H240	H	1.226183	0.848555	0.550784
