data_functionalizedCrystal
_audit_creation_method	'MofGen! by Chris Wilmer'
_symmetry_space_group_name_H-M	'P1'
_symmetry_Int_Tables_number	1
_symmetry_cell_setting	triclinic
loop_
_symmetry_equiv_pos_as_xyz
  x,y,z
_cell_length_a	19.188930
_cell_length_b	11.792241
_cell_length_c	10.868271
_cell_angle_alpha	89.994719
_cell_angle_beta	89.981803
_cell_angle_gamma	83.669098
loop_
_atom_site_label
_atom_site_type_symbol
_atom_site_fract_x
_atom_site_fract_y
_atom_site_fract_z
O1	O	0.926947	0.141694	-0.102719
O2	O	1.426947	0.641694	0.397281
O3	O	0.723744	0.160769	-0.102634
O4	O	1.223744	0.660769	0.397366
O5	O	0.830277	-0.014013	-0.102670
O6	O	1.330277	0.485987	0.397330
O7	O	0.820414	0.316476	-0.102683
O8	O	1.320414	0.816476	0.397317
O9	O	0.830268	-0.014020	0.101975
O10	O	1.330268	0.485980	0.601975
O11	O	0.723735	0.160762	0.102010
O12	O	1.223735	0.660762	0.602010
O13	O	0.926938	0.141688	0.101926
O14	O	1.426938	0.641688	0.601926
Zn15	Zn	0.825335	0.151224	0.134460
Zn16	Zn	1.325335	0.651224	0.634460
Zn17	Zn	0.825347	0.151233	-0.135168
Zn18	Zn	1.325347	0.651233	0.364832
O19	O	0.820406	0.316469	0.101962
O20	O	1.320406	0.816469	0.601962
C21	C	0.697725	0.160148	-0.000301
C22	C	1.197725	0.660148	0.499699
C23	C	0.620210	0.158293	-0.000269
C24	C	1.120210	0.658293	0.499731
C25	C	0.829653	-0.056298	-0.000348
C26	C	1.329653	0.443702	0.499652
C27	C	0.827799	-0.182284	-0.000348
C28	C	1.327799	0.317716	0.499652
C29	C	0.824389	-0.412945	-0.000367
C30	C	1.324389	0.087055	0.499633
C31	C	0.826283	-0.284588	-0.000357
C32	C	1.326283	0.215412	0.499643
C33	C	0.575867	0.260849	-0.000292
C34	C	1.075867	0.760849	0.499708
C35	C	0.503033	0.259107	-0.000306
C36	C	1.003033	0.759107	0.499694
C37	C	0.474546	0.154803	-0.000320
C38	C	0.974546	0.654803	0.499680
C39	C	0.518899	0.052234	-0.000290
C40	C	1.018899	0.552234	0.499710
C41	C	0.591731	0.053979	-0.000264
C42	C	1.091731	0.553979	0.499736
N43	N	0.366117	0.075078	-0.070016
N44	N	0.866117	0.575078	0.429984
N45	N	0.296929	0.073428	-0.070043
N46	N	0.796929	0.573428	0.429957
C47	C	0.255107	0.149540	-0.000395
C48	C	0.755107	0.649540	0.499605
N49	N	0.285086	0.227382	0.069265
N50	N	0.785086	0.727382	0.569265
N51	N	0.354280	0.229036	0.069287
N52	N	0.854280	0.729036	0.569287
C53	C	0.395573	0.152900	-0.000348
C54	C	0.895573	0.652900	0.499652
C55	C	0.131789	0.250214	-0.000432
C56	C	0.631789	0.750214	0.499568
C57	C	0.058955	0.248468	-0.000438
C58	C	0.558955	0.748468	0.499562
C59	C	0.074822	0.041591	-0.000434
C60	C	0.574822	0.541591	0.499566
C61	C	0.147655	0.043341	-0.000416
C62	C	0.647655	0.543341	0.499584
C63	C	0.176134	0.147655	-0.000421
C64	C	0.676134	0.647655	0.499579
C65	C	0.952957	0.142309	-0.000410
C66	C	1.452957	0.642309	0.499590
C67	C	1.030472	0.144163	-0.000450
C68	C	1.530472	0.644163	0.499550
C69	C	0.821029	0.358754	-0.000363
C70	C	1.321029	0.858754	0.499637
C71	C	0.822884	0.484740	-0.000371
C72	C	1.322884	0.984740	0.499629
N73	N	0.825332	0.151217	0.318474
N74	N	1.325332	0.651217	0.818474
N75	N	0.825355	0.151230	-0.319182
N76	N	1.325355	0.651230	0.180818
C77	C	0.825343	0.151230	0.569480
C78	C	1.325343	0.651230	1.069480
C79	C	0.825335	0.151226	0.429803
C80	C	1.325335	0.651226	0.929803
H81	H	0.599050	0.345790	-0.000298
H82	H	1.099050	0.845790	0.499702
C83	C	0.162809	0.363384	-0.000222
C84	C	0.662809	0.863384	0.499778
C85	C	0.204144	0.370407	0.105060
C86	C	0.704144	0.870407	0.605060
C87	C	0.232735	0.474636	0.105290
C88	C	0.732735	0.974636	0.605290
H89	H	0.126037	0.424311	-0.000163
H90	H	0.626037	0.924311	0.499837
H91	H	0.190950	0.368386	-0.071541
H92	H	0.690950	0.868386	0.428459
H93	H	0.176005	0.365416	0.176360
H94	H	0.676005	0.865416	0.676360
H95	H	0.240928	0.309504	0.105023
H96	H	0.740928	0.809504	0.605023
H97	H	0.260875	0.479638	0.033971
H98	H	0.760875	0.979638	0.533971
H99	H	0.195958	0.535555	0.105346
H100	H	0.695958	1.035555	0.605346
H101	H	0.260789	0.479410	0.176716
H102	H	0.760789	0.979410	0.676716
H103	H	0.051628	-0.043335	-0.000523
H104	H	0.551628	0.456665	0.499477
C105	C	0.195839	-0.067973	-0.000157
C106	C	0.695839	0.432027	0.499843
C107	C	0.238074	-0.073034	0.105156
C108	C	0.738074	0.426966	0.605156
C109	C	0.282463	-0.175570	0.105447
C110	C	0.782463	0.324430	0.605447
H111	H	0.224665	-0.071694	-0.071429
H112	H	0.724665	0.428306	0.428571
H113	H	0.168469	-0.130378	-0.000103
H114	H	0.668469	0.369622	0.499897
H115	H	0.265441	-0.010646	0.105091
H116	H	0.765441	0.489354	0.605091
H117	H	0.209266	-0.069332	0.176445
H118	H	0.709266	0.430668	0.676445
H119	H	0.255094	-0.237975	0.105501
H120	H	0.755094	0.262025	0.605501
H121	H	0.311285	-0.179282	0.034171
H122	H	0.811285	0.320718	0.534171
H123	H	0.311121	-0.179022	0.176906
H124	H	0.811121	0.320978	0.676906
C125	C	0.454794	0.370372	-0.000532
C126	C	0.954794	0.870372	0.499468
C127	C	0.412540	0.375384	-0.105820
C128	C	0.912540	0.875384	0.394180
C129	C	0.368089	0.477855	-0.106064
C130	C	0.868089	0.977855	0.393936
H131	H	0.482098	0.432842	-0.000592
H132	H	0.982098	0.932842	0.499408
H133	H	0.425988	0.374002	0.070783
H134	H	0.925988	0.874002	0.570783
H135	H	0.441342	0.371766	-0.177116
H136	H	0.941342	0.871766	0.322884
H137	H	0.385221	0.312939	-0.105781
H138	H	0.885221	0.812939	0.394219
H139	H	0.339283	0.481485	-0.034750
H140	H	0.839283	0.981485	0.465250
H141	H	0.395398	0.540317	-0.106122
H142	H	0.895398	1.040317	0.393878
H143	H	0.339409	0.481265	-0.177494
H144	H	0.839409	0.981265	0.322506
H145	H	0.495700	-0.032691	-0.000319
H146	H	0.995700	0.467309	0.499681
H147	H	0.627836	-0.029537	-0.000246
H148	H	1.127836	0.470463	0.499754
C149	C	0.010924	0.359944	-0.000522
C150	C	0.510924	0.859944	0.499478
C151	C	0.051458	0.451665	-0.000554
C152	C	0.551458	0.951665	0.499446
C153	C	0.007235	0.554375	-0.000649
C154	C	0.507235	1.054375	0.499351
H155	H	-0.017852	0.363729	0.070815
H156	H	0.482148	0.863729	0.570815
H157	H	-0.017789	0.363622	-0.071923
H158	H	0.482211	0.863622	0.428077
H159	H	0.080158	0.447989	0.070839
H160	H	0.580158	0.947989	0.570839
H161	H	0.080232	0.447917	-0.071886
H162	H	0.580232	0.947917	0.428114
H163	H	-0.021477	0.558053	-0.072049
H164	H	0.478523	1.058053	0.427951
H165	H	-0.021538	0.558148	0.070690
H166	H	0.478462	1.058148	0.570690
H167	H	0.034731	0.616619	-0.000682
H168	H	0.534731	1.116619	0.499318
