data_functionalizedCrystal
_audit_creation_method	'MofGen! by Chris Wilmer'
_symmetry_space_group_name_H-M	'P1'
_symmetry_Int_Tables_number	1
_symmetry_cell_setting	triclinic
loop_
_symmetry_equiv_pos_as_xyz
  x,y,z
_cell_length_a	15.186229
_cell_length_b	10.654550
_cell_length_c	10.654550
_cell_angle_alpha	95.515070
_cell_angle_beta	90.005706
_cell_angle_gamma	90.000109
loop_
_atom_site_label
_atom_site_type_symbol
_atom_site_fract_x
_atom_site_fract_y
_atom_site_fract_z
O1	O	-0.073217	1.667834	-0.176402
O2	O	-0.073221	1.302355	-0.193208
O3	O	-0.073213	1.493497	-0.002066
O4	O	-0.073224	1.476691	-0.367544
O5	O	0.073244	1.493496	-0.002054
O6	O	0.073236	1.302354	-0.193196
O7	O	0.073241	1.667832	-0.176390
Zn8	Zn	0.096492	1.485093	-0.184791
Zn9	Zn	-0.096472	1.485095	-0.184807
O10	O	0.073233	1.476690	-0.367532
C11	C	0.000007	1.255556	-0.191968
C12	C	0.000006	1.116113	-0.188276
N13	N	-0.228165	1.485097	-0.184808
C14	C	0.000015	1.492263	0.044738
C15	C	0.000014	1.488571	0.184181
C16	C	-0.453884	1.569901	-0.100337
C17	C	-0.546074	1.569904	-0.100333
C18	C	-0.546090	1.400292	-0.269261
C19	C	-0.453902	1.400296	-0.269269
C20	C	-0.407801	1.485098	-0.184800
C21	C	-0.592179	1.485099	-0.184788
C22	C	-0.692135	1.485102	-0.184785
C23	C	-0.307839	1.485097	-0.184804
N24	N	0.228184	1.485100	-0.184780
C25	C	0.000011	1.714631	-0.177630
C26	C	0.000006	1.854074	-0.181322
C27	C	0.000007	1.933560	-0.068780
C28	C	0.000009	2.064580	-0.072257
C29	C	0.000008	2.036617	-0.300826
C30	C	0.000012	1.905599	-0.297349
C31	C	0.000003	1.477925	-0.414336
C32	C	-0.000002	1.481616	-0.553779
C33	C	0.000015	1.601112	0.263667
C34	C	0.000004	1.597636	0.394688
C35	C	-0.000005	1.369066	0.366725
C36	C	-0.000001	1.372544	0.235706
H37	H	-0.416351	1.638954	-0.031558
H38	H	0.000010	2.078585	-0.395291
H39	H	0.000003	1.689279	0.459401
Cl40	Cl	0.000008	1.868790	0.077081
Cl41	Cl	-0.395963	1.293685	-0.375466
H42	H	0.000011	2.129293	0.019386
Cl43	Cl	0.000016	1.805666	-0.438841
H44	H	0.000025	1.695588	0.221720
H45	H	-0.000015	1.274601	0.408693
Cl46	Cl	-0.000010	1.231051	0.135774
H47	H	-0.583634	1.331246	-0.338032
Cl48	Cl	-0.604003	1.676521	0.005852
