data_functionalizedCrystal
_audit_creation_method	'MofGen! by Chris Wilmer'
_symmetry_space_group_name_H-M	'P1'
_symmetry_Int_Tables_number	1
_symmetry_cell_setting	triclinic
loop_
_symmetry_equiv_pos_as_xyz
  x,y,z
_cell_length_a	8.559649
_cell_length_b	14.853567
_cell_length_c	7.088929
_cell_angle_alpha	83.771294
_cell_angle_beta	95.325015
_cell_angle_gamma	76.706797
loop_
_atom_site_label
_atom_site_type_symbol
_atom_site_fract_x
_atom_site_fract_y
_atom_site_fract_z
O1	O	2.103683	-0.020180	-0.158959
O2	O	1.638582	0.026373	-0.158964
O3	O	1.883556	-0.129002	-0.158967
O4	O	1.858710	0.135195	-0.158956
O5	O	1.916294	-0.149808	0.159008
O6	O	1.671320	0.005566	0.159011
O7	O	2.136422	-0.040986	0.159016
Cu8	Cu	1.906860	-0.019609	0.188047
Cu9	Cu	1.868144	0.004996	-0.187995
O10	O	1.891448	0.114389	0.159019
C11	C	1.595429	0.019497	0.000023
C12	C	1.418072	0.029999	0.000021
C13	C	1.898798	-0.172915	0.000015
C14	C	1.895423	-0.272761	-0.000002
C15	C	1.735645	-0.674122	0.000033
C16	C	2.026680	-0.715759	0.000036
C17	C	2.029851	-0.621946	0.000024
C18	C	1.885917	-0.554217	0.000020
C19	C	1.738813	-0.580300	0.000028
C20	C	2.176955	-0.595857	0.000037
C21	C	2.180133	-0.502039	0.000027
C22	C	2.036196	-0.434307	0.000010
C23	C	1.889085	-0.460395	0.000015
C24	C	1.745151	-0.392666	0.000011
C25	C	1.598037	-0.418751	0.000002
C26	C	1.594876	-0.512568	0.000010
C27	C	2.039357	-0.340490	0.000002
C28	C	1.748318	-0.298844	0.000005
C29	C	2.179574	-0.034110	0.000025
C30	C	2.356930	-0.044611	0.000015
C31	C	1.876205	0.158302	0.000033
C32	C	1.879579	0.258149	0.000037
N33	N	1.934103	-0.036917	0.452535
N34	N	1.840913	0.022296	-0.452483
H35	H	1.334725	0.101914	0.000013
N36	N	1.593071	-0.225794	-0.000015
H37	H	1.499404	-0.256558	-0.000022
H38	H	1.600176	-0.193674	0.117863
H39	H	1.440266	-0.116520	0.000002
N40	N	2.332196	-0.668895	0.000029
H41	H	2.408500	-0.669385	0.117906
H42	H	2.307736	-0.732247	-0.000054
N43	N	1.442813	-0.345690	0.000035
H44	H	1.425510	-0.298119	-0.117827
H45	H	1.349223	-0.376511	0.000109
N46	N	1.436216	-0.540703	0.000008
H47	H	1.456055	-0.610413	0.000024
H48	H	1.385364	-0.522921	0.117885
N49	N	2.181904	-0.788812	0.000039
H50	H	2.233937	-0.773882	-0.117838
H51	H	2.258097	-0.789267	0.117986
N52	N	1.576973	-0.702243	0.000026
H53	H	1.557030	-0.732526	-0.117848
H54	H	1.581405	-0.747917	0.117977
N55	N	2.338801	-0.473915	0.000012
H56	H	2.334463	-0.428212	-0.117870
H57	H	2.358662	-0.443669	0.117954
N58	N	2.198011	-0.312354	0.000035
H59	H	2.248959	-0.330073	-0.117827
H60	H	2.178047	-0.242647	0.000102
H61	H	1.744333	0.083658	0.465873
H62	H	2.030702	-0.098278	0.534189
