data_functionalizedCrystal
_audit_creation_method	'MofGen! by Chris Wilmer'
_symmetry_space_group_name_H-M	'P1'
_symmetry_Int_Tables_number	1
_symmetry_cell_setting	triclinic
loop_
_symmetry_equiv_pos_as_xyz
  x,y,z
_cell_length_a	10.654541
_cell_length_b	12.503572
_cell_length_c	14.044220
_cell_angle_alpha	86.156832
_cell_angle_beta	88.836403
_cell_angle_gamma	93.551091
loop_
_atom_site_label
_atom_site_type_symbol
_atom_site_fract_x
_atom_site_fract_y
_atom_site_fract_z
O1	O	1.687861	0.089291	0.127783
O2	O	1.323659	0.089300	0.140478
O3	O	1.500293	0.089285	-0.003890
O4	O	1.511228	0.089306	0.272150
O5	O	1.487011	-0.089356	0.006986
O6	O	1.310377	-0.089341	0.151353
O7	O	1.674580	-0.089350	0.138658
Cu8	Cu	1.491266	-0.105657	0.145999
Cu9	Cu	1.506973	0.105607	0.133137
O10	O	1.497946	-0.089335	0.283025
C11	C	1.270126	-0.000019	0.144984
C12	C	1.130403	-0.000016	0.142196
N13	N	1.480227	-0.254248	0.155044
C14	C	1.119782	0.000011	0.314826
C15	C	1.048831	0.000028	0.399827
C16	C	0.917549	0.000029	0.397202
C17	C	0.857216	0.000009	0.309567
C18	C	0.928167	-0.000008	0.224565
C19	C	1.059451	-0.000006	0.227200
C20	C	0.938787	-0.000042	0.051938
C21	C	1.070070	-0.000036	0.054560
C22	C	0.878454	-0.000062	-0.035697
C23	C	0.949406	-0.000072	-0.120701
C24	C	1.080695	-0.000072	-0.118073
C25	C	1.141021	-0.000053	-0.030441
C26	C	1.463989	-0.473362	0.168358
C27	C	1.534254	-0.526695	0.110773
C28	C	1.525220	-0.648618	0.118181
C29	C	1.473023	-0.351428	0.160951
C30	C	1.728112	-0.000029	0.134152
C31	C	1.867836	-0.000025	0.136939
C32	C	1.488866	-0.000036	-0.033798
C33	C	1.474590	-0.000037	-0.139117
N34	N	1.518021	0.254198	0.124084
C35	C	1.448493	-0.000021	-0.331951
C36	C	1.549741	-0.000020	-0.388919
C37	C	1.535220	-0.000011	-0.496219
C38	C	1.463012	-0.000030	-0.224642
C39	C	1.509373	-0.000012	0.312933
C40	C	1.523649	-0.000004	0.418252
H41	H	1.097969	0.000042	0.471179
H42	H	1.601196	-0.480788	0.055909
N43	N	1.326065	-0.000017	-0.371832
N44	N	1.257300	0.075275	-0.358378
H45	H	1.170833	0.075273	-0.386550
H46	H	1.397054	-0.519264	0.223220
H47	H	1.226680	0.000034	0.316971
H48	H	1.247918	-0.000040	-0.028293
N49	N	0.845086	0.000034	0.484036
N50	N	0.898960	0.000043	0.562274
H51	H	0.847784	0.000045	0.623601
N52	N	1.672157	-0.000030	-0.349004
N53	N	1.683935	-0.000041	-0.260631
H54	H	1.770387	-0.000052	-0.232435
H55	H	0.750318	-0.000003	0.307438
N56	N	0.887777	-0.000117	-0.210208
N57	N	0.810119	-0.075432	-0.226338
H58	H	0.766589	-0.075465	-0.289554
H59	H	1.138456	-0.000090	-0.187291
N60	N	0.744352	-0.000071	-0.038365
N61	N	0.681015	-0.000053	0.037533
H62	H	0.586304	-0.000056	0.035649
