data_functionalizedCrystal
_audit_creation_method	'MofGen! by Chris Wilmer'
_symmetry_space_group_name_H-M	'P1'
_symmetry_Int_Tables_number	1
_symmetry_cell_setting	triclinic
loop_
_symmetry_equiv_pos_as_xyz
  x,y,z
_cell_length_a	14.519709
_cell_length_b	10.654541
_cell_length_c	9.130307
_cell_angle_alpha	89.997307
_cell_angle_beta	89.997856
_cell_angle_gamma	95.917963
loop_
_atom_site_label
_atom_site_type_symbol
_atom_site_fract_x
_atom_site_fract_y
_atom_site_fract_z
O1	O	1.224719	-0.164620	0.121608
O2	O	0.956342	-0.184007	0.121653
O3	O	1.096702	0.008485	0.121620
O4	O	1.084359	-0.357112	0.121640
O5	O	1.096692	0.008485	-0.121979
O6	O	0.956332	-0.184007	-0.121946
O7	O	1.224709	-0.164620	-0.121991
Cu8	Cu	1.090520	-0.174314	-0.144211
Cu9	Cu	1.090532	-0.174313	0.143873
O10	O	1.084349	-0.357113	-0.121959
C11	C	0.921973	-0.183103	-0.000141
C12	C	0.819578	-0.180396	-0.000124
C13	C	1.095791	0.055275	-0.000178
C14	C	1.093081	0.194692	-0.000175
N15	N	1.090518	-0.174313	-0.346834
C16	C	0.444630	-0.170429	-0.000192
C17	C	0.548952	-0.173197	-0.000172
C18	C	0.632101	-0.175412	-0.000157
C19	C	0.736429	-0.178181	-0.000140
C20	C	1.259078	-0.165524	-0.000194
C21	C	1.361474	-0.168231	-0.000201
C22	C	1.085260	-0.403902	-0.000157
C23	C	1.087970	-0.543319	-0.000150
C24	C	1.260920	0.224277	-0.000222
C25	C	1.343562	0.304566	-0.000248
C26	C	1.341010	0.435559	-0.000243
C27	C	1.255806	0.486265	-0.000207
C28	C	1.173164	0.405976	-0.000181
C29	C	1.175725	0.274981	-0.000191
C30	C	1.005328	0.376392	-0.000124
C31	C	1.007878	0.245398	-0.000140
C32	C	0.920124	0.427098	-0.000089
C33	C	0.837480	0.346809	-0.000073
C34	C	0.840036	0.215808	-0.000080
C35	C	0.925236	0.165109	-0.000114
C36	C	1.214880	-0.003901	-0.653492
C37	C	1.277042	0.081303	-0.576819
C38	C	1.277030	0.081307	-0.423486
C39	C	1.214852	-0.003907	-0.346822
C40	C	1.152691	-0.089112	-0.423495
C41	C	1.152707	-0.089103	-0.576832
C42	C	1.028357	-0.259518	-0.423507
C43	C	1.028363	-0.259517	-0.576840
C44	C	0.966179	-0.344732	-0.346843
C45	C	0.904012	-0.429932	-0.423516
C46	C	0.904026	-0.429931	-0.576859
C47	C	0.966201	-0.344722	-0.653513
N48	N	1.090540	-0.174304	0.346496
H49	H	1.263006	0.117616	-0.000246
C50	C	0.966163	-0.344727	-0.178181
H51	H	1.012082	-0.281770	-0.143494
H52	H	0.979288	-0.425031	-0.143479
H53	H	0.907105	-0.327350	-0.143515
H54	H	1.412933	0.263266	-0.000290
C55	C	1.214846	-0.003921	-0.178160
H56	H	1.168919	-0.066875	-0.143483
H57	H	1.201721	0.076383	-0.143463
H58	H	1.273898	-0.021307	-0.143478
H59	H	0.853395	-0.499313	-0.361086
C60	C	0.743770	0.402587	-0.000036
H61	H	0.754087	0.492100	-0.000038
H62	H	0.709712	0.375033	0.084917
H63	H	0.709703	0.375056	-0.084991
C64	C	1.431913	0.523879	-0.000272
H65	H	1.483022	0.474925	-0.000301
H66	H	1.434411	0.575593	0.084674
H67	H	1.434391	0.575594	-0.085233
H68	H	1.253736	0.592928	-0.000185
H69	H	0.853410	-0.499320	-0.639278
C70	C	0.928046	0.021021	-0.000121
H71	H	0.866627	-0.019538	-0.000108
H72	H	0.959631	-0.003152	0.084813
H73	H	0.959606	-0.003143	-0.085094
C74	C	0.917316	0.571186	-0.000088
H75	H	0.978736	0.611744	-0.000124
H76	H	0.885753	0.595359	0.084870
H77	H	0.885734	0.595352	-0.085038
C78	C	0.966221	-0.344719	-0.822175
H79	H	1.012158	-0.281775	-0.856846
H80	H	0.907176	-0.327353	-0.856883
H81	H	0.979363	-0.425029	-0.856851
C82	C	1.214885	-0.003896	-0.822154
H83	H	1.168955	-0.066838	-0.856837
H84	H	1.273936	-0.021258	-0.856843
H85	H	1.201748	0.076416	-0.856837
H86	H	0.772738	0.150442	-0.000053
C87	C	1.345429	0.175035	-0.661151
H88	H	1.336530	0.162842	-0.763452
H89	H	1.407061	0.161211	-0.636012
H90	H	1.334872	0.258884	-0.636026
C91	C	1.345403	0.175030	-0.339142
H92	H	1.382433	0.225784	-0.406754
H93	H	1.384069	0.129734	-0.279312
H94	H	1.311884	0.227413	-0.279341
