data_functionalizedCrystal
_audit_creation_method	'MofGen! by Chris Wilmer'
_symmetry_space_group_name_H-M	'P1'
_symmetry_Int_Tables_number	1
_symmetry_cell_setting	triclinic
loop_
_symmetry_equiv_pos_as_xyz
  x,y,z
_cell_length_a	15.712078
_cell_length_b	14.971486
_cell_length_c	14.048226
_cell_angle_alpha	90.006640
_cell_angle_beta	89.985465
_cell_angle_gamma	78.402362
loop_
_atom_site_label
_atom_site_type_symbol
_atom_site_fract_x
_atom_site_fract_y
_atom_site_fract_z
O1	O	1.147409	-0.490664	-0.079390
O2	O	1.647409	0.009336	0.420610
O3	O	0.895683	-0.422551	-0.079342
O4	O	1.395683	0.077449	0.420658
O5	O	1.028293	-0.328607	-0.079361
O6	O	1.528293	0.171393	0.420639
O7	O	1.014799	-0.584608	-0.079372
O8	O	1.514799	-0.084608	0.420628
O9	O	1.028277	-0.328594	0.078961
O10	O	1.528277	0.171406	0.578961
O11	O	0.895667	-0.422537	0.078979
O12	O	1.395667	0.077463	0.578979
O13	O	1.147393	-0.490651	0.078931
O14	O	1.647393	0.009349	0.578931
Zn15	Zn	1.021527	-0.456592	0.104092
Zn16	Zn	1.521527	0.043408	0.604092
Zn17	Zn	1.021548	-0.456610	-0.104503
Zn18	Zn	1.521548	0.043390	0.395497
O19	O	1.014783	-0.584595	0.078950
O20	O	1.514783	-0.084595	0.578950
C21	C	0.863460	-0.411417	-0.000175
C22	C	1.363460	0.088583	0.499825
C23	C	0.767471	-0.378250	-0.000156
C24	C	1.267471	0.121750	0.499844
C25	C	0.400665	-0.659845	-0.000234
C26	C	0.900665	-0.159845	0.499766
C27	C	0.310471	-0.628659	-0.000256
C28	C	0.810471	-0.128659	0.499744
C29	C	0.330926	-0.472394	-0.000252
C30	C	0.830926	0.027606	0.499748
C31	C	0.421123	-0.503567	-0.000234
C32	C	0.921123	-0.003567	0.499766
C33	C	0.455986	-0.597294	-0.000224
C34	C	0.955986	-0.097294	0.499776
C35	C	0.476444	-0.441015	-0.000224
C36	C	0.976444	0.058985	0.499776
C37	C	0.566633	-0.472186	-0.000202
C38	C	1.066633	0.027814	0.499798
C39	C	0.601503	-0.565909	-0.000189
C40	C	1.101503	-0.065909	0.499811
C41	C	0.546175	-0.628465	-0.000202
C42	C	1.046175	-0.128465	0.499798
C43	C	0.441580	-0.347289	-0.000227
C44	C	0.941580	0.152711	0.499773
C45	C	0.496900	-0.284737	-0.000218
C46	C	0.996900	0.215263	0.499782
C47	C	0.587091	-0.315908	-0.000202
C48	C	1.087091	0.184092	0.499798
C49	C	0.621961	-0.409630	-0.000189
C50	C	1.121961	0.090370	0.499811
C51	C	0.642419	-0.253352	-0.000189
C52	C	1.142419	0.246648	0.499811
C53	C	0.732608	-0.284523	-0.000166
C54	C	1.232608	0.215477	0.499834
C55	C	0.712150	-0.440801	-0.000166
C56	C	1.212150	0.059199	0.499834
C57	C	1.027681	-0.295079	-0.000200
C58	C	1.527681	0.204921	0.499800
C59	C	1.025873	-0.195192	-0.000201
C60	C	1.525873	0.304808	0.499799
C61	C	1.179615	-0.501785	-0.000238
C62	C	1.679615	-0.001785	0.499762
C63	C	1.275605	-0.534952	-0.000263
C64	C	1.775605	-0.034952	0.499737
C65	C	1.015394	-0.618123	-0.000213
C66	C	1.515394	-0.118123	0.499787
C67	C	1.017203	-0.718009	-0.000219
C68	C	1.517203	-0.218009	0.499781
N69	N	1.021519	-0.456582	0.246453
N70	N	1.521519	0.043418	0.746453
C71	C	1.103777	-0.163367	-0.000215
C72	C	1.603777	0.336633	0.499785
C73	C	1.102073	-0.069512	-0.000224
C74	C	1.602073	0.430488	0.499776
C75	C	1.022463	-0.007484	-0.000212
C76	C	1.522463	0.492516	0.499788
C77	C	0.944552	-0.039314	-0.000201
C78	C	1.444552	0.460686	0.499799
C79	C	0.946258	-0.133168	-0.000198
C80	C	1.446258	0.366832	0.499802
C81	C	0.941004	0.156305	-0.000204
C82	C	1.441004	0.656305	0.499796
C83	C	0.939298	0.250165	-0.000204
C84	C	1.439298	0.750165	0.499796
C85	C	1.096819	0.219961	-0.000229
C86	C	1.596819	0.719961	0.499771
C87	C	1.098524	0.126108	-0.000227
C88	C	1.598524	0.626108	0.499773
C89	C	1.020613	0.094283	-0.000214
C90	C	1.520613	0.594283	0.499786
N91	N	1.021563	-0.456615	-0.246864
N92	N	1.521563	0.043385	0.253136
C93	C	1.080257	-0.415015	0.296263
C94	C	1.580257	0.084985	0.796263
C95	C	1.080263	-0.415016	0.395920
C96	C	1.580263	0.084984	0.895920
C97	C	1.021534	-0.456591	0.445766
C98	C	1.521534	0.043409	0.945766
C99	C	0.962790	-0.498158	0.395950
C100	C	1.462790	0.001842	0.895950
C101	C	0.962781	-0.498151	0.296294
C102	C	1.462781	0.001849	0.796294
C103	C	0.962815	-0.498173	0.603664
C104	C	1.462815	0.001827	1.103664
C105	C	0.962825	-0.498182	0.703327
C106	C	1.462825	0.001818	1.203327
C107	C	1.080297	-0.415038	0.703290
C108	C	1.580297	0.084962	1.203290
C109	C	1.080288	-0.415031	0.603635
C110	C	1.580288	0.084969	1.103635
C111	C	1.021544	-0.456600	0.553825
C112	C	1.521544	0.043400	1.053825
H113	H	0.740537	-0.517123	-0.000157
H114	H	1.240537	-0.017123	0.499843
H115	H	1.128085	-0.381165	0.255685
H116	H	1.628085	0.118835	0.755685
F117	F	0.697492	-0.599084	-0.000130
F118	F	1.197492	-0.099084	0.499870
H119	H	0.777652	-0.233587	-0.000161
H120	H	1.277652	0.266413	0.499839
H121	H	1.163350	0.075605	-0.000230
H122	H	1.663350	0.575605	0.499770
F123	F	1.179738	0.253831	-0.000248
F124	F	1.679738	0.753831	0.499752
H125	H	0.879732	0.011197	-0.000197
H126	H	1.379732	0.511197	0.499803
H127	H	0.914949	-0.531998	0.255740
H128	H	1.414949	-0.031998	0.755740
F129	F	0.858081	0.122438	-0.000192
F130	F	1.358081	0.622438	0.499808
F131	F	0.251597	-0.695244	-0.000260
F132	F	0.751597	-0.195244	0.499740
H133	H	0.302528	-0.396081	-0.000249
H134	H	0.802528	0.103919	0.499751
H135	H	0.914967	-0.532005	0.436540
H136	H	1.414967	-0.032005	0.936540
H137	H	0.574562	-0.704786	-0.000192
H138	H	1.074562	-0.204786	0.499808
F139	F	1.188511	-0.229375	-0.000218
F140	F	1.688511	0.270625	0.499782
F141	F	0.863341	-0.167037	-0.000186
F142	F	1.363341	0.332963	0.499814
F143	F	0.605304	-0.153604	-0.000187
F144	F	1.105304	0.346396	0.499813
H145	H	0.915001	-0.532035	0.743906
H146	H	1.415001	-0.032035	1.243906
H147	H	1.128091	-0.381168	0.436475
H148	H	1.628091	0.118832	0.936475
F149	F	0.854568	0.316179	-0.000191
F150	F	1.354568	0.816179	0.499809
F151	F	1.184990	-0.035646	-0.000238
F152	F	1.684990	0.464354	0.499762
H153	H	1.128113	-0.381183	0.563050
H154	H	1.628113	0.118817	1.063050
H155	H	0.368141	-0.321912	-0.000234
H156	H	0.868141	0.178088	0.499766
H157	H	0.429052	-0.736167	-0.000224
H158	H	0.929052	-0.236167	0.499776
F159	F	0.459787	-0.184989	-0.000225
F160	F	0.959787	0.315011	0.499775
F161	F	1.142817	-0.370799	0.756306
F162	F	1.642817	0.129201	1.256306
H163	H	0.914977	-0.532020	0.563112
H164	H	1.414977	-0.032020	1.063112
