data_functionalizedCrystal
_audit_creation_method	'MofGen! by Chris Wilmer'
_symmetry_space_group_name_H-M	'P1'
_symmetry_Int_Tables_number	1
_symmetry_cell_setting	triclinic
loop_
_symmetry_equiv_pos_as_xyz
  x,y,z
_cell_length_a	13.897449
_cell_length_b	13.897448
_cell_length_c	11.169409
_cell_angle_alpha	89.964482
_cell_angle_beta	89.974584
_cell_angle_gamma	90.018519
loop_
_atom_site_label
_atom_site_type_symbol
_atom_site_fract_x
_atom_site_fract_y
_atom_site_fract_z
Zn1	Zn	1.474722	-0.383916	-0.678671
Zn2	Zn	1.474610	-0.545252	-0.477977
Zn3	Zn	1.313405	-0.383974	-0.477988
Zn4	Zn	1.313393	-0.545173	-0.678605
O5	O	1.394033	-0.464579	-0.578310
O6	O	1.609689	-0.405326	-0.652071
O7	O	1.453185	-0.523915	-0.310028
O8	O	1.334856	-0.248985	-0.504642
O9	O	1.609607	-0.523858	-0.504622
O10	O	1.453375	-0.248942	-0.652083
O11	O	1.334748	-0.405426	-0.310037
O12	O	1.178422	-0.405349	-0.504578
O13	O	1.334835	-0.523725	-0.846563
O14	O	1.178413	-0.523781	-0.651969
O15	O	1.453363	-0.405250	-0.846612
O16	O	1.453172	-0.680223	-0.504558
O17	O	1.334727	-0.680165	-0.651958
C18	C	1.143418	-0.464564	-0.578268
C19	C	1.036204	-0.464581	-0.578279
C20	C	1.393962	-0.715193	-0.578275
C21	C	1.394020	-0.822407	-0.578301
C22	C	0.949135	-0.464584	-0.578299
C23	C	0.839902	-0.464591	-0.578335
C24	C	1.394122	-1.018702	-0.578376
C25	C	1.394063	-0.909470	-0.578338
C26	C	1.645625	-0.464594	-0.578353
C27	C	1.752839	-0.464601	-0.578371
C28	C	1.394110	-0.464472	-0.891353
C29	C	1.394143	-0.464426	-1.024753
C30	C	1.394130	-0.212986	-0.578371
C31	C	1.394171	-0.105772	-0.578397
C32	C	1.394011	-0.464616	-0.266485
C33	C	1.394165	-0.464389	-0.133086
