data_functionalizedCrystal
_audit_creation_method	'MofGen! by Chris Wilmer'
_symmetry_space_group_name_H-M	'P1'
_symmetry_Int_Tables_number	1
_symmetry_cell_setting	triclinic
loop_
_symmetry_equiv_pos_as_xyz
  x,y,z
_cell_length_a	8.559649
_cell_length_b	19.288864
_cell_length_c	17.766277
_cell_angle_alpha	90.023209
_cell_angle_beta	89.994756
_cell_angle_gamma	103.542544
loop_
_atom_site_label
_atom_site_type_symbol
_atom_site_fract_x
_atom_site_fract_y
_atom_site_fract_z
O1	O	0.199405	-0.910987	-0.062829
O2	O	0.226304	-0.707328	-0.062777
O3	O	-0.019877	-0.827100	-0.062807
O4	O	0.445585	-0.791215	-0.062799
O5	O	-0.019889	-0.827082	0.062381
O6	O	0.226291	-0.707310	0.062411
O7	O	0.199392	-0.910969	0.062359
Cu8	Cu	0.212841	-0.809138	0.073816
Cu9	Cu	0.212855	-0.809160	-0.074234
O10	O	0.445573	-0.791197	0.062389
C11	C	0.225432	-0.681488	-0.000176
C12	C	0.222834	-0.604519	-0.000157
C13	C	-0.079432	-0.829811	-0.000215
C14	C	-0.256871	-0.837906	-0.000221
N15	N	0.212829	-0.809128	0.177946
C16	C	0.505129	-0.788487	-0.000205
C17	C	0.682567	-0.780392	-0.000203
C18	C	0.200264	-0.936810	-0.000243
C19	C	0.202862	-1.013778	-0.000268
C20	C	0.367282	-0.552314	-0.000166
C21	C	0.364841	-0.479994	-0.000174
C22	C	0.217944	-0.459883	-0.000188
C23	C	0.073477	-0.512099	-0.000175
C24	C	0.075922	-0.584417	-0.000159
C25	C	0.102471	-0.357630	-0.044075
C26	C	0.100032	-0.285312	-0.044095
C27	C	0.210396	-0.236829	-0.000234
C28	C	0.323227	-0.260670	0.043638
C29	C	0.325672	-0.332989	0.043654
C30	C	0.215276	-0.381467	-0.000205
C31	C	0.352207	-0.106205	-0.000251
C32	C	0.349760	-0.033884	-0.000255
C33	C	0.058393	-0.065991	-0.000263
C34	C	0.060844	-0.138310	-0.000252
C35	C	0.207756	-0.158412	-0.000250
N36	N	0.212854	-0.809176	-0.178364
C37	C	0.103874	-0.862176	0.217320
C38	C	0.103866	-0.862180	0.296122
C39	C	0.212842	-0.809142	0.335547
C40	C	0.321806	-0.756085	0.296164
C41	C	0.321800	-0.756078	0.217364
C42	C	0.358486	-0.792272	0.460389
C43	C	0.358494	-0.792284	0.539188
C44	C	0.212861	-0.809160	0.578593
C45	C	0.067213	-0.826039	0.539190
C46	C	0.067207	-0.826032	0.460390
C47	C	0.212860	-0.809144	0.420993
C48	C	0.103889	-0.862215	0.703413
C49	C	0.103879	-0.862215	0.782216
C50	C	0.321833	-0.756123	0.782257
C51	C	0.321828	-0.756120	0.703455
C52	C	0.212858	-0.809170	0.664038
H53	H	-0.233537	-0.724959	-0.000187
C54	C	-0.370206	-0.912796	-0.000241
H55	H	-0.478598	-0.908598	-0.000242
H56	H	-0.350977	-0.937992	0.043405
H57	H	-0.350976	-0.937997	-0.043913
C58	C	0.441650	-0.697732	0.339524
H59	H	0.506525	-0.666130	0.304786
H60	H	0.508062	-0.719161	0.370255
H61	H	0.384276	-0.671890	0.370275
H62	H	0.482471	-0.437481	-0.000180
H63	H	0.015138	-0.905379	0.328186
C64	C	-0.098050	-0.195738	-0.000253
H65	H	-0.185889	-0.173405	-0.000269
H66	H	-0.103162	-0.224595	0.043407
H67	H	-0.103142	-0.224637	-0.043910
C68	C	0.441667	-0.697728	0.174051
H69	H	0.506576	-0.666142	0.208814
H70	H	0.384337	-0.671875	0.143325
H71	H	0.508066	-0.719174	0.143299
C72	C	0.528877	-0.574424	-0.000150
H73	H	0.614556	-0.532970	-0.000149
H74	H	0.535902	-0.601995	-0.043796
H75	H	0.535877	-0.601940	0.043521
H76	H	0.015146	-0.905411	0.814275
H77	H	0.015140	-0.905371	0.185229
C78	C	-0.092988	-0.844586	0.417047
H79	H	-0.179724	-0.854733	0.451794
H80	H	-0.096366	-0.885148	0.386200
H81	H	-0.101713	-0.805311	0.386415
C82	C	-0.024062	-0.259089	-0.092355
H83	H	-0.009699	-0.209074	-0.086092
H84	H	-0.129420	-0.282581	-0.076934
H85	H	-0.009601	-0.269423	-0.143821
C86	C	0.449761	-0.359214	0.091916
H87	H	0.515138	-0.319987	0.118042
H88	H	0.515258	-0.380334	0.060306
H89	H	0.395427	-0.393495	0.127189
H90	H	0.012596	-0.397100	-0.079796
C91	C	0.444643	-0.207348	0.091883
H92	H	0.427024	-0.160864	0.085597
H93	H	0.550798	-0.207556	0.076463
H94	H	0.430992	-0.220720	0.143356
C95	C	0.513800	-0.128322	-0.000241
H96	H	0.599481	-0.086869	-0.000237
H97	H	0.520816	-0.155888	-0.043893
H98	H	0.520803	-0.155844	0.043425
H99	H	0.467392	0.008622	-0.000259
C100	C	-0.103191	-0.043877	-0.000283
H101	H	-0.083962	0.006670	-0.000299
H102	H	-0.162662	-0.062301	0.043371
H103	H	-0.162631	-0.062348	-0.043946
H104	H	-0.051375	-0.839780	0.571273
H105	H	-0.046127	-0.495719	-0.000196
C106	C	-0.015988	-0.920557	0.660047
H107	H	-0.000376	-0.912960	0.607477
H108	H	-0.122624	-0.918702	0.672969
H109	H	0.001102	-0.966003	0.672936
C110	C	0.518688	-0.773704	0.417046
H111	H	0.497827	-0.776109	0.364473
H112	H	0.581119	-0.806695	0.429936
H113	H	0.575938	-0.726839	0.429984
H114	H	-0.041708	-0.626924	-0.000151
C115	C	0.441707	-0.697780	0.660138
H116	H	0.426093	-0.705371	0.607562
H117	H	0.548340	-0.699639	0.673048
H118	H	0.424624	-0.652334	0.673074
H119	H	0.410556	-0.712936	0.814356
H120	H	0.477089	-0.778545	0.571263
