data_functionalizedCrystal
_audit_creation_method	'MofGen! by Chris Wilmer'
_symmetry_space_group_name_H-M	'P1'
_symmetry_Int_Tables_number	1
_symmetry_cell_setting	triclinic
loop_
_symmetry_equiv_pos_as_xyz
  x,y,z
_cell_length_a	14.446369
_cell_length_b	14.628931
_cell_length_c	14.628931
_cell_angle_alpha	60.000000
_cell_angle_beta	89.998626
_cell_angle_gamma	60.000886
loop_
_atom_site_label
_atom_site_type_symbol
_atom_site_fract_x
_atom_site_fract_y
_atom_site_fract_z
Zr1	Zr	0.891719	1.000629	-0.120010
O2	O	0.743918	1.191327	-0.265963
O3	O	0.937029	0.809925	-0.075267
O4	O	0.937028	1.000631	-0.265973
O5	O	0.743919	1.000621	0.075175
O6	O	1.089357	1.000640	-0.265981
O7	O	0.743918	1.000621	-0.075257
O8	O	1.089358	0.659501	0.075157
O9	O	0.743917	1.341759	-0.265964
O10	O	1.070034	0.888373	-0.056191
O11	O	0.956353	0.888366	0.056080
O12	O	0.956352	1.112898	-0.168451
O13	O	0.842671	1.112892	-0.056180
Zr14	Zr	1.134667	1.000642	0.119899
Zr15	Zr	1.134666	1.000642	-0.120023
Zr16	Zr	0.891720	1.000629	0.119912
Zr17	Zr	0.891719	1.240551	-0.120010
Zr18	Zr	1.134667	0.760720	0.119899
O19	O	1.089357	1.191346	0.075156
O20	O	1.089357	1.191346	-0.265982
O21	O	0.743918	1.191327	0.075174
O22	O	1.282469	0.809944	0.265852
O23	O	1.282468	0.809944	-0.075285
O24	O	0.937030	0.809925	0.265870
O25	O	1.282468	1.000650	-0.075286
O26	O	1.089358	1.000640	0.265862
O27	O	0.937029	1.000631	0.265870
O28	O	1.282468	1.000650	0.075146
O29	O	0.937027	1.341770	-0.265974
O30	O	1.089359	0.659501	0.265863
O31	O	1.282469	0.659512	0.265852
O32	O	1.282469	0.659512	0.075147
O33	O	0.743918	1.341759	-0.075258
O34	O	0.937028	1.341770	-0.075268
O35	O	1.070034	0.888373	0.168340
O36	O	1.183715	0.888379	0.056068
O37	O	1.070033	1.112904	-0.056192
O38	O	0.956352	1.112898	0.056080
C39	C	1.013194	0.700530	-0.000055
C40	C	1.013194	0.598676	-0.000055
C41	C	0.933441	0.632022	-0.078810
C42	C	0.933440	0.526754	-0.078812
C43	C	0.709304	1.000619	-0.000040
C44	C	0.606166	1.000613	-0.000034
C45	C	0.531184	0.859020	0.070401
C46	C	0.638513	0.858924	0.070805
C47	C	0.531607	1.070951	0.051613
C48	C	0.424748	1.070052	0.052122
C49	C	0.423174	1.072968	-0.122230
C50	C	0.531845	1.070300	-0.122030
C51	C	1.317083	1.000652	-0.000072
C52	C	1.420220	1.000657	-0.000077
C53	C	1.013193	1.000635	-0.300161
C54	C	1.013192	1.000635	-0.402014
C55	C	1.013193	1.300741	-0.000056
C56	C	1.013192	1.402594	-0.000056
C57	C	1.092945	1.000640	-0.447427
C58	C	1.092946	1.000640	-0.552698
C59	C	1.013194	1.000635	0.300050
C60	C	1.013194	1.000635	0.401903
C61	C	1.317083	0.700546	-0.000071
C62	C	1.420221	0.598698	-0.000076
C63	C	1.013194	0.700530	0.300050
C64	C	1.013195	0.598676	0.401903
C65	C	1.317084	0.700546	0.300034
C66	C	1.420221	0.598698	0.401882
C67	C	0.709302	1.300725	-0.300145
C68	C	0.606165	1.402572	-0.401993
C69	C	0.709303	1.300725	-0.000040
C70	C	0.606166	1.402572	-0.000035
C71	C	1.013192	1.300741	-0.300161
C72	C	1.013191	1.402594	-0.402015
C73	C	1.409809	0.553289	-0.055767
C74	C	1.516406	0.448024	-0.055774
C75	C	1.069589	0.553270	0.503001
C76	C	1.069590	0.448000	0.608273
C77	C	1.522597	0.553295	0.391595
C78	C	1.629196	0.448030	0.496858
H79	H	0.865167	0.738505	-0.146238
H80	H	0.964920	0.441629	0.511265
Cl81	Cl	1.118615	0.358766	0.104057
H82	H	0.865158	0.555128	-0.146235
Cl83	Cl	1.144144	0.387710	0.742173
H84	H	1.321978	0.592347	-0.103446
H85	H	1.081474	0.492194	0.067368
H86	H	0.533519	0.803427	0.035937
H87	H	1.531329	0.592356	0.304859
Cl88	Cl	0.938644	0.538384	0.388587
H89	H	0.692376	0.803228	0.160926
H90	H	1.411493	0.559644	0.488619
Cl91	Cl	1.764789	0.387744	0.483520
Cl92	Cl	0.907776	1.000620	-0.462298
Cl93	Cl	1.198365	1.000656	-0.612994
H94	H	0.944907	1.000639	-0.559053
Cl95	Cl	0.425160	0.992875	0.190902
H96	H	0.692777	0.803758	0.036146
Cl97	Cl	0.532785	0.773612	0.208688
Cl98	Cl	1.198373	1.000635	-0.387135
H99	H	0.346168	1.173970	0.004106
H100	H	0.504376	1.175130	0.002756
H101	H	0.583210	1.022097	0.140652
Cl102	Cl	1.483191	0.462891	0.611301
H103	H	0.583268	1.019015	-0.160614
Cl104	Cl	0.416820	1.002990	-0.188845
H105	H	0.506325	1.173671	-0.178956
Cl106	Cl	1.502906	0.387729	-0.129383
Cl107	Cl	1.632283	0.462899	0.073538
H108	H	0.344959	1.177309	-0.174987
H109	H	1.117863	0.592336	0.511619
Cl110	Cl	1.555820	0.538418	0.073526
