data_functionalizedCrystal
_audit_creation_method	'MofGen! by Chris Wilmer'
_symmetry_space_group_name_H-M	'P1'
_symmetry_Int_Tables_number	1
_symmetry_cell_setting	triclinic
loop_
_symmetry_equiv_pos_as_xyz
  x,y,z
_cell_length_a	19.805407
_cell_length_b	10.686285
_cell_length_c	19.805399
_cell_angle_alpha	85.610534
_cell_angle_beta	89.975799
_cell_angle_gamma	85.630402
loop_
_atom_site_label
_atom_site_type_symbol
_atom_site_fract_x
_atom_site_fract_y
_atom_site_fract_z
Zn1	Zn	1.055501	-0.502400	-0.362195
Zn2	Zn	1.555501	-0.002400	0.137805
Zn3	Zn	1.064137	-0.713411	-0.240351
Zn4	Zn	1.564137	-0.213411	0.259649
Zn5	Zn	0.942317	-0.502432	-0.249009
Zn6	Zn	1.442317	-0.002432	0.250991
Zn7	Zn	0.950998	-0.713341	-0.353491
Zn8	Zn	1.450998	-0.213341	0.146509
O9	O	1.003238	-0.607896	-0.301261
O10	O	1.503238	-0.107896	0.198739
O11	O	1.151364	-0.530407	-0.346051
O12	O	1.651364	-0.030407	0.153949
O13	O	1.047959	-0.685467	-0.146781
O14	O	1.547959	-0.185467	0.353219
O15	O	0.950084	-0.325853	-0.271289
O16	O	1.450084	0.174147	0.228711
O17	O	1.157709	-0.685436	-0.256533
O18	O	1.657709	-0.185436	0.243467
O19	O	1.033240	-0.325829	-0.354446
O20	O	1.533240	0.174171	0.145554
O21	O	0.958458	-0.530462	-0.153142
O22	O	1.458458	-0.030462	0.346858
O23	O	0.848751	-0.530394	-0.262850
O24	O	1.348751	-0.030394	0.237150
O25	O	0.964879	-0.685317	-0.449364
O26	O	1.464879	-0.185317	0.050636
O27	O	0.855129	-0.685348	-0.339612
O28	O	1.355129	-0.185348	0.160388
O29	O	1.041657	-0.530339	-0.455758
O30	O	1.541657	-0.030339	0.044242
O31	O	1.056377	-0.889977	-0.248093
O32	O	1.556377	-0.389977	0.251907
O33	O	0.973253	-0.889926	-0.331217
O34	O	1.473253	-0.389926	0.168783
C35	C	0.827381	-0.607868	-0.301226
C36	C	1.327381	-0.107868	0.198774
C37	C	0.752150	-0.607886	-0.301226
C38	C	1.252150	-0.107886	0.198774
C39	C	0.293704	-0.688732	-0.341201
C40	C	0.793704	-0.188732	0.158799
C41	C	0.364393	-0.688730	-0.341187
C42	C	0.864393	-0.188730	0.158813
C43	C	0.396390	-0.607927	-0.301287
C44	C	0.896390	-0.107927	0.198713
C45	C	0.357695	-0.527129	-0.261393
C46	C	0.857695	-0.027129	0.238607
C47	C	0.287009	-0.527138	-0.261404
C48	C	0.787009	-0.027138	0.238596
C49	C	0.642767	-0.527090	-0.261347
C50	C	1.142767	-0.027090	0.238653
C51	C	0.713459	-0.527084	-0.261340
C52	C	1.213459	-0.027084	0.238660
C53	C	0.720151	-0.688682	-0.341130
C54	C	1.220151	-0.188682	0.158870
C55	C	0.649464	-0.688692	-0.341141
C56	C	1.149464	-0.188692	0.158859
C57	C	0.610776	-0.607899	-0.301244
C58	C	1.110776	-0.107899	0.198756
C59	C	0.534128	-0.607904	-0.301259
C60	C	1.034128	-0.107904	0.198741
C61	C	0.473036	-0.607914	-0.301275
C62	C	0.973036	-0.107914	0.198725
C63	C	1.016712	-0.935735	-0.287786
C64	C	1.516712	-0.435735	0.212214
C65	C	1.022539	-1.075986	-0.282044
C66	C	1.522539	-0.575986	0.217956
C67	C	1.179782	-0.607926	-0.301297
C68	C	1.679782	-0.107926	0.198703
C69	C	1.255015	-0.607938	-0.301312
C70	C	1.755015	-0.107938	0.198688
C71	C	1.003273	-0.607817	-0.477807
C72	C	1.503273	-0.107817	0.022193
C73	C	1.003288	-0.607783	-0.553041
C74	C	1.503288	-0.107783	-0.053041
C75	C	0.989730	-0.278777	-0.314804
C76	C	1.489730	0.221223	0.185196
C77	C	0.983974	-0.138526	-0.320575
C78	C	1.483974	0.361474	0.179425
C79	C	1.043267	-0.527082	-0.591716
C80	C	1.543267	-0.027082	-0.091716
C81	C	1.043272	-0.527045	-0.662406
C82	C	1.543272	-0.027045	-0.162406
C83	C	1.003302	-0.607717	-0.694419
C84	C	1.503302	-0.107717	-0.194419
C85	C	0.963318	-0.688421	-0.655739
C86	C	1.463318	-0.188421	-0.155739
C87	C	0.963309	-0.688451	-0.585051
C88	C	1.463309	-0.188451	-0.085051
C89	C	0.963351	-0.688304	-0.940817
C90	C	1.463351	-0.188304	-0.440817
C91	C	0.963365	-0.688271	-1.011511
C92	C	1.463365	-0.188271	-0.511511
C93	C	1.043314	-0.526898	-1.018172
C94	C	1.543314	-0.026898	-0.518172
C95	C	1.043306	-0.526928	-0.947484
C96	C	1.543306	-0.026928	-0.447484
C97	C	1.003320	-0.607627	-0.908810
C98	C	1.503320	-0.107627	-0.408810
C99	C	1.003313	-0.607664	-0.832160
C100	C	1.503313	-0.107664	-0.332160
C101	C	1.003311	-0.607687	-0.771068
C102	C	1.503311	-0.107687	-0.271068
C103	C	1.003239	-0.607884	-0.125406
C104	C	1.503239	-0.107884	0.374594
C105	C	1.003341	-0.607563	-0.050187
C106	C	1.503341	-0.107563	0.449813
H107	H	0.267657	-0.754525	-0.373696
H108	H	0.767657	-0.254525	0.126304
H109	H	0.383753	-0.461343	-0.228902
H110	H	0.883753	0.038657	0.271098
H111	H	0.946500	-1.084775	-0.357958
H112	H	1.446500	-0.584775	0.142042
Cl113	Cl	0.913046	-0.789904	-0.536430
Cl114	Cl	1.413046	-0.289904	-0.036430
H115	H	1.060011	-1.129745	-0.244654
H116	H	1.560011	-0.629745	0.255346
H117	H	0.930771	-0.754101	-0.681810
H118	H	1.430771	-0.254101	-0.181810
Cl119	Cl	0.413028	-0.790308	-0.391334
Cl120	Cl	0.913028	-0.290308	0.108666
Cl121	Cl	1.093558	-0.425512	-0.907242
Cl122	Cl	1.593558	0.074488	-0.407242
Cl123	Cl	1.093522	-0.425666	-0.551477
Cl124	Cl	1.593522	0.074334	-0.051477
Cl125	Cl	1.093566	-0.425644	-0.711021
Cl126	Cl	1.593566	0.074356	-0.211021
Cl127	Cl	0.238370	-0.425570	-0.211252
Cl128	Cl	0.738370	0.074430	0.288748
Cl129	Cl	1.093581	-0.425441	-1.066795
Cl130	Cl	1.593581	0.074559	-0.566795
H131	H	0.930813	-0.753966	-1.037574
H132	H	1.430813	-0.253966	-0.537574
Cl133	Cl	0.913083	-0.789755	-0.892208
Cl134	Cl	1.413083	-0.289755	-0.392208
H135	H	0.623416	-0.754486	-0.373634
H136	H	1.123416	-0.254486	0.126366
H137	H	0.751660	-0.754471	-0.373613
H138	H	1.251660	-0.254471	0.126387
H139	H	0.739508	-0.461279	-0.228848
H140	H	1.239508	0.038721	0.271152
H141	H	0.611276	-0.461309	-0.228858
H142	H	1.111276	0.038691	0.271142
