data_functionalizedCrystal
_audit_creation_method	'MofGen! by Chris Wilmer'
_symmetry_space_group_name_H-M	'P1'
_symmetry_Int_Tables_number	1
_symmetry_cell_setting	triclinic
loop_
_symmetry_equiv_pos_as_xyz
  x,y,z
_cell_length_a	13.635800
_cell_length_b	19.453103
_cell_length_c	12.908943
_cell_angle_alpha	83.885421
_cell_angle_beta	100.860631
_cell_angle_gamma	78.290822
loop_
_atom_site_label
_atom_site_type_symbol
_atom_site_fract_x
_atom_site_fract_y
_atom_site_fract_z
V1	V	1.993747	-0.096303	0.329167
O2	O	1.992405	0.005530	0.322397
O3	O	1.965285	-0.191821	0.327401
O4	O	1.962970	-0.094426	0.472508
O5	O	1.994736	-0.092539	0.176286
V6	V	2.236965	-0.084170	0.310823
O7	O	2.121180	-0.122919	0.369408
O8	O	2.334631	-0.057553	0.270582
O9	O	2.153824	0.011348	0.312589
O10	O	2.297005	-0.186003	0.317593
O11	O	2.294675	-0.087934	0.463704
O12	O	2.156139	-0.086047	0.167483
V13	V	2.493747	-0.096303	0.329167
O14	O	2.492405	0.005530	0.322397
O15	O	2.465285	-0.191821	0.327401
O16	O	2.462970	-0.094426	0.472508
O17	O	2.494736	-0.092539	0.176286
V18	V	2.736965	-0.084170	0.310823
O19	O	2.621180	-0.122919	0.369408
O20	O	2.834631	-0.057553	0.270582
O21	O	2.653824	0.011348	0.312589
O22	O	2.797005	-0.186003	0.317593
O23	O	2.794675	-0.087934	0.463704
O24	O	2.656139	-0.086047	0.167483
C25	C	1.886961	-0.215118	0.322333
C26	C	1.904290	-0.293203	0.321845
C27	C	2.003076	-0.333445	0.326886
C28	C	2.019359	-0.406814	0.326438
C29	C	1.936848	-0.439937	0.320926
C30	C	1.838049	-0.399686	0.315890
C31	C	1.821770	-0.326319	0.316349
N32	N	1.885445	-0.546374	0.255963
N33	N	1.900915	-0.616070	0.255525
C34	C	1.985891	-0.660987	0.319544
N35	N	2.054826	-0.633575	0.384006
N36	N	2.039356	-0.563873	0.384440
C37	C	1.954490	-0.519491	0.320428
C38	C	2.102341	-0.780786	0.324102
C39	C	2.118622	-0.854157	0.323660
C40	C	1.937307	-0.847026	0.313100
C41	C	1.921030	-0.773657	0.313553
C42	C	2.003550	-0.740541	0.319049
C43	C	1.884008	-0.090881	0.507430
C44	C	1.899459	-0.089978	0.624614
C45	C	2.063819	0.034642	0.317654
C46	C	2.036109	0.112725	0.318149
C47	C	2.066772	-0.089594	0.132555
C48	C	2.040941	-0.090494	0.015369
C49	C	2.386961	-0.215118	0.322333
C50	C	2.404290	-0.293203	0.321845
C51	C	2.384008	-0.090881	0.507430
C52	C	2.399459	-0.089978	0.624614
C53	C	2.109806	-0.095252	0.855587
C54	C	2.124328	-0.094404	0.965693
C55	C	1.943024	-0.087429	0.954932
C56	C	1.928502	-0.088277	0.844826
C57	C	2.011897	-0.092189	0.795158
C58	C	1.997376	-0.093042	0.685052
C59	C	1.816072	-0.086063	0.674292
C60	C	1.830594	-0.085215	0.784397
C61	C	2.563819	0.034642	0.317654
C62	C	2.536109	0.112725	0.318149
C63	C	2.566772	-0.089594	0.132555
C64	C	2.540941	-0.090494	0.015369
C65	C	2.503087	-0.333439	0.326900
C66	C	2.519386	-0.406810	0.326457
C67	C	2.436884	-0.439942	0.320951
C68	C	2.338079	-0.399700	0.315898
C69	C	2.321783	-0.326331	0.316349
C70	C	2.609806	-0.095252	0.855587
C71	C	2.624328	-0.094404	0.965693
C72	C	2.443024	-0.087429	0.954932
C73	C	2.428502	-0.088277	0.844826
C74	C	2.511897	-0.092189	0.795158
C75	C	2.497376	-0.093042	0.685052
C76	C	2.316072	-0.086063	0.674292
C77	C	2.330594	-0.085215	0.784397
C78	C	2.609805	0.152962	0.313097
C79	C	2.583778	0.226332	0.313545
C80	C	2.484056	0.259463	0.319054
C81	C	2.410355	0.219222	0.324103
C82	C	2.436380	0.145854	0.323648
H83	H	2.099805	-0.439586	0.330543
H84	H	1.741325	-0.293554	0.312244
O85	O	2.587313	-0.097253	0.631471
H86	H	2.657832	-0.099230	0.691992
O87	O	2.625952	-0.450204	0.331887
H88	H	2.680572	-0.414832	0.335768
H89	H	2.704053	-0.096898	1.014891
O90	O	1.853117	-0.083099	1.008576
H91	H	1.794614	-0.033485	0.973346
H92	H	2.643803	0.259086	0.309434
O93	O	1.749050	-0.435405	0.309950
H94	H	1.776964	-0.493182	0.310469
O95	O	2.302807	0.254967	0.330059
H96	H	2.247570	0.246504	0.260284
H97	H	2.270911	-0.426687	0.311416
H98	H	2.462878	0.319205	0.319423
H99	H	2.169533	-0.753821	0.328575
O100	O	2.356895	0.102456	0.329120
H101	H	2.283189	0.137825	0.333042
H102	H	1.736347	-0.083572	0.625079
O103	O	2.210465	-0.082757	0.609105
H104	H	2.182122	-0.128991	0.639154
H105	H	2.241329	-0.293575	0.312227
O106	O	2.454475	-0.519076	0.320462
H107	H	2.380513	-0.535362	0.315790
H108	H	2.677712	-0.098445	0.815149
O109	O	2.225176	-0.897562	0.329088
H110	H	2.276894	-0.892490	0.403917
O111	O	2.353083	-0.083209	1.008509
H112	H	2.379636	-0.083136	1.095225
O113	O	2.592082	-0.297714	0.332862
H114	H	2.663517	-0.338031	0.336321
O115	O	2.717360	0.117236	0.307135
H116	H	2.772590	0.125721	0.376898
H117	H	2.070272	-0.306487	0.331369
O118	O	1.848305	-0.882739	0.307157
H119	H	1.876219	-0.940517	0.307680
H120	H	2.204053	-0.096898	1.014891
H121	H	1.840588	-0.740891	0.309441
H122	H	2.065282	-0.096231	0.644615
H123	H	2.177712	-0.098445	0.815149
H124	H	1.762699	-0.082027	0.824851
H125	H	2.262699	-0.082027	0.824851
