data_functionalizedCrystal
_audit_creation_method	'MofGen! by Chris Wilmer'
_symmetry_space_group_name_H-M	'P1'
_symmetry_Int_Tables_number	1
_symmetry_cell_setting	triclinic
loop_
_symmetry_equiv_pos_as_xyz
  x,y,z
_cell_length_a	18.050591
_cell_length_b	18.050589
_cell_length_c	21.395364
_cell_angle_alpha	89.998272
_cell_angle_beta	90.023013
_cell_angle_gamma	90.024227
loop_
_atom_site_label
_atom_site_type_symbol
_atom_site_fract_x
_atom_site_fract_y
_atom_site_fract_z
Zn1	Zn	1.135308	-0.295932	0.354386
Zn2	Zn	1.635308	0.204068	0.854386
Zn3	Zn	1.135214	-0.420072	0.249619
Zn4	Zn	1.635214	0.079928	0.749619
Zn5	Zn	1.011122	-0.295892	0.249612
Zn6	Zn	1.511122	0.204108	0.749612
Zn7	Zn	1.011075	-0.420076	0.354348
Zn8	Zn	1.511075	0.079924	0.854348
O9	O	1.073180	-0.357993	0.301991
O10	O	1.573180	0.142007	0.801991
O11	O	1.239220	-0.312415	0.340507
O12	O	1.739220	0.187585	0.840507
O13	O	1.118734	-0.403581	0.161940
O14	O	1.618734	0.096419	0.661940
O15	O	1.027655	-0.191972	0.263523
O16	O	1.527655	0.308028	0.763523
O17	O	1.239151	-0.403620	0.263535
O18	O	1.739151	0.096380	0.763535
O19	O	1.118893	-0.192002	0.340500
O20	O	1.618893	0.307998	0.840500
O21	O	1.027564	-0.312346	0.161935
O22	O	1.527564	0.187654	0.661935
O23	O	0.907192	-0.312350	0.263486
O24	O	1.407192	0.187650	0.763486
O25	O	1.027574	-0.403626	0.442031
O26	O	1.527574	0.096374	0.942031
O27	O	0.907157	-0.403587	0.340436
O28	O	1.407157	0.096413	0.840436
O29	O	1.118847	-0.312418	0.442059
O30	O	1.618847	0.187582	0.942059
O31	O	1.118688	-0.523997	0.263498
O32	O	1.618688	-0.023997	0.763498
O33	O	1.027483	-0.524000	0.340443
O34	O	1.527483	-0.024000	0.840443
C35	C	0.880228	-0.357965	0.301957
C36	C	1.380228	0.142035	0.801957
C37	C	0.797682	-0.357971	0.301957
C38	C	1.297682	0.142029	0.801957
C39	C	0.598229	-0.308299	0.260208
C40	C	1.098229	0.191701	0.760208
C41	C	0.548808	-0.376028	0.244793
C42	C	1.048808	0.123972	0.744793
C43	C	0.646552	-0.357994	0.301985
C44	C	1.146552	0.142006	0.801985
C45	C	0.548890	-0.290288	0.317398
C46	C	1.048890	0.209712	0.817398
C47	C	0.500566	-0.358010	0.302011
C48	C	1.000566	0.141990	0.802011
C49	C	0.598218	-0.425759	0.286540
C50	C	1.098218	0.074241	0.786540
C51	C	0.598305	-0.339973	0.359172
C52	C	1.098305	0.160027	0.859172
C53	C	0.548907	-0.407749	0.343779
C54	C	1.048907	0.092251	0.843779
C55	C	0.730650	-0.357984	0.301968
C56	C	1.230650	0.142016	0.801968
C57	C	0.416470	-0.358027	0.302028
C58	C	0.916470	0.141973	0.802028
C59	C	1.073090	-0.550945	0.301981
C60	C	1.573090	-0.050945	0.801981
C61	C	1.073120	-0.633491	0.301997
C62	C	1.573120	-0.133491	0.801997
C63	C	1.023572	-0.832970	0.343825
C64	C	1.523572	-0.332970	0.843825
C65	C	1.005471	-0.882379	0.286650
C66	C	1.505471	-0.382379	0.786650
C67	C	1.073193	-0.784621	0.302005
C68	C	1.573193	-0.284621	0.802005
C69	C	1.091329	-0.882294	0.359187
C70	C	1.591329	-0.382294	0.859187
C71	C	1.073262	-0.930606	0.302018
C72	C	1.573262	-0.430606	0.802018
C73	C	1.055057	-0.832943	0.244800
C74	C	1.555057	-0.332943	0.744800
C75	C	1.140947	-0.832853	0.317376
C76	C	1.640947	-0.332853	0.817376
C77	C	1.122872	-0.882240	0.260162
C78	C	1.622872	-0.382240	0.760162
C79	C	1.073151	-0.700523	0.301999
C80	C	1.573151	-0.200523	0.801999
C81	C	1.073304	-1.014703	0.302019
C82	C	1.573304	-0.514703	0.802019
C83	C	1.266885	-0.358021	0.302026
C84	C	1.766885	0.141979	0.802026
C85	C	1.349431	-0.358033	0.302041
C86	C	1.849431	0.141967	0.802041
C87	C	1.073216	-0.358027	0.465414
C88	C	1.573216	0.141973	0.965414
C89	C	1.073231	-0.358042	0.535056
C90	C	1.573231	0.141958	1.035056
C91	C	1.073290	-0.164287	0.302015
C92	C	1.573290	0.335713	0.802015
C93	C	1.073337	-0.081741	0.302026
C94	C	1.573337	0.418259	0.802026
C95	C	1.120750	-0.310558	0.567784
C96	C	1.620750	0.189442	1.067784
C97	C	1.120739	-0.310546	0.633220
C98	C	1.620739	0.189454	1.133220
C99	C	1.073217	-0.358031	0.665924
C100	C	1.573217	0.141969	1.165924
C101	C	1.025689	-0.405518	0.633187
C102	C	1.525689	0.094482	1.133187
C103	C	1.025696	-0.405524	0.567753
C104	C	1.525696	0.094476	1.067753
C105	C	1.067305	-0.424931	0.769595
C106	C	1.567305	0.075069	1.269595
C107	C	1.067303	-0.424927	0.835027
C108	C	1.567303	0.075073	1.335027
C109	C	1.073190	-0.358014	0.867745
C110	C	1.573190	0.141986	1.367745
C111	C	1.079094	-0.291103	0.835021
C112	C	1.579094	0.208897	1.335021
C113	C	1.079101	-0.291108	0.769587
C114	C	1.579101	0.208892	1.269587
C115	C	1.073203	-0.358030	0.736876
C116	C	1.573203	0.141970	1.236876
C117	C	1.120699	-0.310512	0.971426
C118	C	1.620699	0.189488	1.471426
C119	C	1.120683	-0.310499	1.036863
C120	C	1.620683	0.189501	1.536863
C121	C	1.025636	-0.405478	1.036829
C122	C	1.525636	0.094522	1.536829
C123	C	1.025649	-0.405485	0.971394
C124	C	1.525649	0.094515	1.471394
C125	C	1.073184	-0.358003	0.938696
C126	C	1.573184	0.141997	1.438696
C127	C	1.073147	-0.357981	1.139204
C128	C	1.573147	0.142019	1.639204
C129	C	1.073159	-0.357984	1.069562
C130	C	1.573159	0.142016	1.569562
H131	H	0.527068	-0.391283	0.196443
H132	H	1.027068	0.108717	0.696443
H133	H	0.948206	-0.904150	0.273662
H134	H	1.448206	-0.404150	0.773662
H135	H	1.159456	-0.271893	0.541166
H136	H	1.659456	0.228107	1.041166
H137	H	0.620062	-0.324698	0.407507
H138	H	1.120062	0.175302	0.907507
F139	F	1.177761	-0.910340	0.213893
F140	F	1.677761	-0.410340	0.713893
F141	F	0.975053	-0.456011	1.071631
F142	F	1.475053	0.043989	1.571631
H143	H	1.039678	-0.811356	0.196435
H144	H	1.539678	-0.311356	0.696435
H145	H	1.062313	-0.479406	0.742962
H146	H	1.562313	0.020594	1.242962
H147	H	1.159401	-0.271846	0.944802
H148	H	1.659401	0.228154	1.444802
H149	H	0.986958	-0.444156	0.944746
H150	H	1.486958	0.055844	1.444746
F151	F	0.520563	-0.215440	0.334422
F152	F	1.020563	0.284560	0.834422
F153	F	1.061026	-0.496139	0.869848
F154	F	1.561026	0.003861	1.369848
H155	H	0.986997	-0.444190	0.541106
H156	H	1.486997	0.055810	1.041106
H157	H	0.981547	-0.811335	0.379140
H158	H	1.481547	-0.311335	0.879140
F159	F	1.171270	-0.259965	1.071695
F160	F	1.671270	0.240035	1.571695
H161	H	1.159433	-0.271874	0.659873
H162	H	1.659433	0.228126	1.159873
H163	H	1.106642	-0.903971	0.407539
H164	H	1.606642	-0.403971	0.907539
F165	F	0.520776	-0.462749	0.389972
F166	F	1.020776	0.037251	0.889972
F167	F	1.085362	-0.219883	0.869836
F168	F	1.585362	0.280117	1.369836
H169	H	1.083907	-0.236627	0.742946
H170	H	1.583907	0.263373	1.242946
H171	H	1.198198	-0.811085	0.330391
H172	H	1.698198	-0.311085	0.830391
F173	F	0.975110	-0.456053	0.667994
F174	F	1.475110	0.043947	1.167994
H175	H	0.619885	-0.266318	0.224840
H176	H	1.119885	0.233682	0.724840
H177	H	0.619796	-0.483041	0.273461
H178	H	1.119796	0.016959	0.773461
