data_functionalizedCrystal
_audit_creation_method	'MofGen! by Chris Wilmer'
_symmetry_space_group_name_H-M	'P1'
_symmetry_Int_Tables_number	1
_symmetry_cell_setting	triclinic
loop_
_symmetry_equiv_pos_as_xyz
  x,y,z
_cell_length_a	16.109301
_cell_length_b	10.654550
_cell_length_c	9.730223
_cell_angle_alpha	89.995798
_cell_angle_beta	90.006692
_cell_angle_gamma	96.026808
loop_
_atom_site_label
_atom_site_type_symbol
_atom_site_fract_x
_atom_site_fract_y
_atom_site_fract_z
O1	O	0.116775	-1.666250	0.114408
O2	O	0.127900	-1.300621	0.114386
O3	O	0.001366	-1.493479	0.114384
O4	O	0.243309	-1.473391	0.114410
O5	O	0.001360	-1.493477	-0.114196
O6	O	0.127894	-1.300618	-0.114194
O7	O	0.116769	-1.666248	-0.114172
Zn8	Zn	0.122330	-1.483432	-0.150475
Zn9	Zn	0.122339	-1.483436	0.150689
O10	O	0.243303	-1.473389	-0.114170
C11	C	-0.029616	-1.492665	0.000093
C12	C	-0.121926	-1.490225	0.000091
C13	C	0.127080	-1.253832	0.000093
C14	C	0.124636	-1.114422	0.000085
C15	C	0.117589	-1.713036	0.000124
C16	C	0.120033	-1.852446	0.000141
C17	C	-0.343552	-1.598991	0.000119
C18	C	-0.430286	-1.596689	0.000130
C19	C	-0.411772	-1.367868	0.000111
C20	C	-0.325040	-1.370172	0.000110
C21	C	-0.290932	-1.485737	0.000107
C22	C	-0.464399	-1.481131	0.000119
C23	C	-0.558440	-1.478634	0.000131
C24	C	-0.196885	-1.488234	0.000097
C25	C	0.274286	-1.474204	0.000124
C26	C	0.366595	-1.476643	0.000135
N27	N	0.122338	-1.483439	0.356225
C28	C	0.199138	-1.033926	0.000113
C29	C	0.196836	-0.902936	0.000136
C30	C	0.045526	-0.932952	0.000109
C31	C	0.047828	-1.063939	0.000076
C32	C	0.286496	-1.016595	0.000135
C33	C	0.284194	-0.885606	0.000158
N34	N	0.122324	-1.483439	-0.356011
C35	C	0.066419	-1.568994	0.428150
C36	C	0.066414	-1.568998	0.572033
C37	C	0.178249	-1.397880	0.572054
C38	C	0.178258	-1.397883	0.428173
C39	C	0.001849	-1.667784	0.428140
C40	C	0.001844	-1.667788	0.572023
H41	H	-0.315785	-1.693091	0.000119
H42	H	-0.062099	-1.647386	0.611048
C43	C	0.332645	-1.055599	-0.129100
N44	N	0.367402	-1.084978	-0.226439
H45	H	0.223778	-1.328224	0.630649
C46	C	-0.449299	-1.240754	0.000088
N47	N	-0.477563	-1.145008	0.000060
H48	H	-0.282194	-1.277941	0.000104
H49	H	0.317112	-0.843427	0.095829
H50	H	0.016212	-1.764047	0.389111
H51	H	-0.058577	-1.638258	0.383487
H52	H	-0.012838	-1.129476	0.000033
H53	H	-0.473126	-1.688912	0.000143
C54	C	-0.038959	-0.877408	0.000107
N55	N	-0.102595	-0.835574	0.000108
C56	C	0.239778	-1.303773	0.349061
N57	N	0.286117	-1.232884	0.289474
C58	C	0.319874	-0.823410	-0.133139
N59	N	0.346752	-0.776562	-0.233533
H60	H	0.022199	-1.758631	0.616664
C61	C	0.324062	-1.064265	0.133470
N62	N	0.352350	-1.100172	0.233906
