data_functionalizedCrystal
_audit_creation_method	'MofGen! by Chris Wilmer'
_symmetry_space_group_name_H-M	'P1'
_symmetry_Int_Tables_number	1
_symmetry_cell_setting	triclinic
loop_
_symmetry_equiv_pos_as_xyz
  x,y,z
_cell_length_a	17.699083
_cell_length_b	13.339070
_cell_length_c	16.176319
_cell_angle_alpha	89.996815
_cell_angle_beta	89.998611
_cell_angle_gamma	99.456154
loop_
_atom_site_label
_atom_site_type_symbol
_atom_site_fract_x
_atom_site_fract_y
_atom_site_fract_z
O1	O	1.031106	0.127864	-0.068625
O2	O	0.814244	0.144499	-0.068651
O3	O	0.897786	-0.011021	-0.068639
O4	O	0.947564	0.283384	-0.068637
O5	O	0.897768	-0.011031	0.068855
O6	O	0.814226	0.144489	0.068842
O7	O	1.031088	0.127854	0.068868
Cu8	Cu	0.922655	0.136171	0.081409
Cu9	Cu	0.922677	0.136182	-0.081192
O10	O	0.947546	0.283374	0.068856
C11	C	0.785912	0.143898	0.000092
C12	C	0.701516	0.142110	0.000082
C13	C	0.672191	0.233397	0.000082
C14	C	0.592891	0.231710	0.000093
C15	C	0.542918	0.138736	0.000097
C16	C	0.572248	0.047442	0.000099
C17	C	0.651546	0.049129	0.000094
C18	C	0.252446	0.040635	0.000119
C19	C	0.173143	0.038955	0.000122
C20	C	0.193791	0.223216	0.000118
C21	C	0.273089	0.224904	0.000113
C22	C	0.302412	0.133610	0.000120
C23	C	0.388398	0.135440	0.000110
C24	C	0.456933	0.136906	0.000101
C25	C	0.889369	-0.048694	0.000106
C26	C	0.864305	-0.160935	0.000100
C27	C	1.059185	-0.526207	0.000124
C28	C	1.082736	-0.420752	0.000134
C29	C	1.028130	-0.355792	0.000125
C30	C	0.949970	-0.396298	0.000106
C31	C	0.926417	-0.501763	0.000102
C32	C	0.895362	-0.331349	0.000104
C33	C	0.817202	-0.371855	0.000085
C34	C	0.793652	-0.477310	0.000080
C35	C	0.848258	-0.542269	0.000089
C36	C	0.918915	-0.225884	0.000108
C37	C	0.786147	-0.201441	0.000086
C38	C	0.762596	-0.306895	0.000076
C39	C	1.059420	0.128455	0.000123
C40	C	1.143816	0.130243	0.000128
C41	C	0.955963	0.321047	0.000110
C42	C	0.981027	0.433288	0.000110
N43	N	0.922646	0.136162	0.195775
N44	N	0.922691	0.136183	-0.195557
C45	C	0.959660	0.067326	0.239044
C46	C	0.959663	0.067324	0.325592
C47	C	0.922657	0.136165	0.368867
C48	C	0.885638	0.205005	0.325591
C49	C	0.885631	0.205000	0.239046
C50	C	0.885668	0.205024	0.674620
C51	C	0.885681	0.205025	0.761171
C52	C	0.959701	0.067348	0.761165
C53	C	0.959693	0.067343	0.674620
C54	C	0.922671	0.136179	0.631352
C55	C	0.922667	0.136178	0.537507
C56	C	0.922666	0.136172	0.462710
H57	H	0.712875	0.309107	0.000078
H58	H	0.313775	0.300613	0.000106
H59	H	0.730009	-0.510286	0.000071
H60	H	0.989798	0.011272	0.203815
H61	H	0.989802	0.011272	0.360821
H62	H	0.855544	0.261085	0.796405
H63	H	1.047310	-0.269927	0.000134
H64	H	0.569019	0.306046	0.000093
C65	C	1.211601	-0.455514	0.000156
C66	C	1.168645	-0.376231	0.000153
H67	H	1.264640	-0.428025	0.000163
H68	H	1.199645	-0.496143	0.048097
H69	H	1.199658	-0.496131	-0.047798
H70	H	1.180584	-0.335617	0.048110
H71	H	1.180607	-0.335584	-0.047793
C72	C	0.898140	0.342661	0.577299
C73	C	0.844988	0.280703	0.627070
H74	H	0.873024	0.389384	0.547939
H75	H	0.937268	0.378966	0.611056
H76	H	0.920165	0.301651	0.539137
H77	H	0.822966	0.321713	0.665236
H78	H	0.805846	0.244395	0.593309
H79	H	0.169907	0.297552	0.000118
C80	C	1.032854	-0.068758	0.683309
C81	C	1.000368	-0.008332	0.627052
H82	H	1.057959	-0.115483	0.653942
H83	H	1.068909	-0.026716	0.717054
H84	H	0.993721	-0.105069	0.717076
H85	H	1.039502	0.027985	0.593289
H86	H	0.964310	-0.050379	0.593293
H87	H	1.103637	-0.579105	0.000138
C88	C	0.852789	0.266154	0.458260
C89	C	0.844962	0.280679	0.373158
H90	H	0.827682	0.312880	0.487623
H91	H	0.830405	0.198696	0.472449
H92	H	0.905592	0.277052	0.472425
H93	H	0.792160	0.269773	0.358992
H94	H	0.867344	0.348153	0.358964
H95	H	0.698956	-0.339890	0.000061
C96	C	0.778398	-0.686669	-0.070618
C97	C	0.822375	-0.658192	0.000072
H98	H	0.762426	-0.758237	-0.070630
H99	H	0.734692	-0.653793	-0.070613
H100	H	0.808258	-0.667304	-0.118553
H101	H	0.792512	-0.677551	0.048007
H102	H	0.866087	-0.691080	0.000075
C103	C	0.329634	-0.064367	-0.070566
C104	C	0.284670	-0.059714	0.000115
H105	H	0.349532	-0.126320	-0.070566
H106	H	0.299128	-0.061187	-0.118502
H107	H	0.370746	-0.008754	-0.070556
H108	H	0.243554	-0.115323	0.000102
H109	H	0.315178	-0.062903	0.048063
C110	C	0.071979	-0.069834	0.070810
C111	C	0.118207	-0.063248	0.000131
H112	H	0.038061	-0.132924	0.070810
H113	H	0.103342	-0.065354	0.118748
H114	H	0.043172	-0.015698	0.070797
H115	H	0.147018	-0.117380	0.000148
H116	H	0.086839	-0.067739	-0.047818
C117	C	0.680236	-0.148135	-0.070610
C118	C	0.726114	-0.130051	0.000074
H119	H	0.643175	-0.104062	-0.070612
H120	H	0.711379	-0.135865	-0.118544
H121	H	0.655029	-0.216742	-0.070604
H122	H	0.751326	-0.061445	0.000065
H123	H	0.694967	-0.142313	0.048020
H124	H	0.989843	0.011295	0.796404
C125	C	0.812472	0.341101	0.247739
C126	C	0.844948	0.280672	0.191480
H127	H	0.787358	0.387821	0.218373
H128	H	0.776425	0.299061	0.281501
H129	H	0.851611	0.377419	0.281489
H130	H	0.805808	0.244348	0.157734
H131	H	0.880998	0.322718	0.157705
H132	H	0.531553	-0.028259	0.000114
H133	H	0.982554	-0.192915	0.000124
H134	H	0.675420	-0.025206	0.000093
