data_functionalizedCrystal
_audit_creation_method	'MofGen! by Chris Wilmer'
_symmetry_space_group_name_H-M	'P1'
_symmetry_Int_Tables_number	1
_symmetry_cell_setting	triclinic
loop_
_symmetry_equiv_pos_as_xyz
  x,y,z
_cell_length_a	14.809374
_cell_length_b	23.196402
_cell_length_c	23.196402
_cell_angle_alpha	59.997344
_cell_angle_beta	67.427441
_cell_angle_gamma	67.425524
loop_
_atom_site_label
_atom_site_type_symbol
_atom_site_fract_x
_atom_site_fract_y
_atom_site_fract_z
Zr1	Zr	0.792355	0.611025	0.131313
O2	O	0.832622	0.521797	0.226194
O3	O	0.661021	0.630020	0.093868
O4	O	0.661028	0.630014	0.214139
O5	O	0.967964	0.531317	0.020560
O6	O	0.661027	0.724885	0.214138
O7	O	0.832615	0.521803	0.105923
O8	O	0.661014	0.724897	-0.001005
O9	O	0.967977	0.531305	0.235702
O10	O	0.748768	0.719021	0.087996
O11	O	0.849779	0.655319	0.024291
O12	O	0.849787	0.655312	0.165895
O13	O	0.950797	0.591610	0.102190
Zr14	Zr	1.008219	0.777507	-0.004833
Zr15	Zr	0.792353	0.762334	0.131312
Zr16	Zr	1.008221	0.626198	-0.004832
Zr17	Zr	1.008230	0.626190	0.146478
Zr18	Zr	0.792344	0.762342	-0.019998
O19	O	1.139553	0.758512	0.032612
O20	O	0.832619	0.736939	0.226192
O21	O	1.139556	0.543370	0.032614
O22	O	0.967952	0.866735	-0.099714
O23	O	0.661019	0.845162	0.093866
O24	O	0.967955	0.651593	-0.099712
O25	O	0.832611	0.857215	0.105920
O26	O	1.139546	0.758518	-0.087659
O27	O	1.139547	0.663647	-0.087658
O28	O	0.967960	0.866729	0.020557
O29	O	0.967975	0.651575	0.235702
O30	O	0.832599	0.736957	-0.109221
O31	O	0.832597	0.857227	-0.109222
O32	O	0.661013	0.845167	-0.001006
O33	O	1.139561	0.543365	0.127486
O34	O	1.139560	0.663635	0.127485
O35	O	0.950787	0.733220	-0.039415
O36	O	0.849777	0.796922	0.024290
O37	O	0.950796	0.733213	0.102189
O38	O	1.051806	0.669511	0.038484
C39	C	0.630260	0.675298	0.044271
C40	C	0.538615	0.668860	0.037833
C41	C	0.900276	0.694276	-0.126025
C42	C	0.900272	0.694280	-0.190260
C43	C	0.900285	0.883530	0.063239
C44	C	0.900284	0.947765	0.063238
C45	C	0.447649	0.697591	0.066565
C46	C	0.352929	0.690938	0.059912
C47	C	1.170314	0.713234	0.082209
C48	C	1.261959	0.719672	0.088647
C49	C	0.900289	0.505002	0.063242
C50	C	0.900290	0.440767	0.063242
C51	C	0.847562	1.011194	0.022573
C52	C	0.847555	1.071549	0.022576
C53	C	0.900291	1.068472	0.063236
C54	C	0.953015	1.005030	0.103910
C55	C	0.953012	0.944677	0.103911
C56	C	0.988618	1.141978	0.064162
C57	C	0.988624	1.202332	0.064156
C58	C	0.900299	1.254620	0.063237
C59	C	0.811969	1.246553	0.062310
C60	C	0.811966	1.186200	0.062311
C61	C	0.900299	1.133911	0.063240
C62	C	0.847565	1.383495	0.022573
C63	C	0.847556	1.443849	0.022581
C64	C	0.953025	1.377329	0.103910
C65	C	0.953025	1.316976	0.103906
C66	C	0.900297	1.320064	0.063234
C67	C	0.952991	0.734945	-0.253687
C68	C	0.953002	0.734939	-0.314042
C69	C	0.900274	0.694276	-0.310966
C70	C	0.847553	0.653603	-0.247527
C71	C	0.847551	0.653604	-0.187174
C72	C	0.811956	0.693345	-0.384475
C73	C	0.811954	0.693348	-0.444829
C74	C	0.900280	0.694266	-0.497113
C75	C	0.988606	0.695196	-0.489044
C76	C	0.988605	0.695198	-0.428691
C77	C	0.900270	0.694269	-0.376405
C78	C	0.953015	0.734927	-0.625986
C79	C	0.953029	0.734917	-0.686340
C80	C	0.847570	0.653584	-0.619824
C81	C	0.847566	0.653591	-0.559471
C82	C	0.900287	0.694266	-0.562557
C83	C	0.900299	0.694256	0.252505
C84	C	0.900302	0.694252	0.316740
C85	C	0.630272	0.675288	0.233536
C86	C	0.538631	0.668847	0.291333
C87	C	0.630258	0.864562	0.044269
C88	C	0.538612	0.922359	0.037831
C89	C	0.900273	0.883540	-0.126027
C90	C	0.900269	0.947778	-0.190262
C91	C	0.900301	0.504992	0.252507
C92	C	0.900306	0.440754	0.316742
C93	C	1.170316	0.523970	0.082211
C94	C	1.261962	0.466173	0.088649
C95	C	1.170303	0.713244	-0.107056
C96	C	1.261943	0.719685	-0.164853
C97	C	0.548326	0.632566	0.359144
C98	C	0.462228	0.626518	0.413456
C99	C	0.366436	0.656746	0.399957
C100	C	0.356742	0.693031	0.332139
C101	C	0.442839	0.699083	0.277828
C102	C	0.442840	0.908837	0.068067
C103	C	0.356721	0.963137	0.062031
C104	C	0.366377	1.030958	0.025754
C105	C	0.462159	1.044480	-0.004482
C106	C	0.548276	0.990180	0.001558
C107	C	0.847540	1.011203	-0.187174
C108	C	0.847539	1.071568	-0.247524
C109	C	0.900262	1.068505	-0.310961
C110	C	0.952997	1.005074	-0.314047
C111	C	0.953003	0.944711	-0.253698
C112	C	0.953045	0.377330	0.313655
C113	C	0.953072	0.316967	0.374007
C114	C	0.900354	0.320030	0.437445
C115	C	0.847613	0.383461	0.440530
C116	C	0.847592	0.443822	0.380179
C117	C	1.357734	0.479695	0.058419
C118	C	1.443853	0.425395	0.064472
C119	C	1.434198	0.357574	0.100751
C120	C	1.338415	0.344052	0.130984
C121	C	1.252299	0.398352	0.124936
C122	C	1.357719	0.689449	-0.151332
C123	C	1.443833	0.695487	-0.205632
C124	C	1.434170	0.731767	-0.273452
C125	C	1.338385	0.762004	-0.286972
C126	C	1.252272	0.755961	-0.232673
H127	H	0.439892	0.727116	0.096086
H128	H	0.804691	0.385946	0.492188
H129	H	0.804593	1.123210	-0.244999
C130	C	0.549098	0.628975	-0.002054
N131	N	0.556996	0.598932	-0.032096
C132	C	0.251467	0.759562	0.128533
N133	N	0.243565	0.789607	0.158575
H134	H	1.060542	1.208888	0.064925
H135	H	0.278737	0.717641	0.321158
C136	C	0.653690	0.599313	0.374010
N137	N	0.733048	0.574269	0.385212
C138	C	0.271736	0.650075	0.459709
N139	N	0.200411	0.645044	0.504717
H140	H	0.278740	0.952114	0.086654
C141	C	1.011050	0.373944	0.243880
N142	N	1.054750	0.371390	0.191328
H143	H	0.804626	1.386009	-0.010542
C144	C	0.789537	1.014594	-0.022155
N145	N	0.745826	1.017153	-0.055839
C146	C	1.146921	0.789232	-0.247558
N147	N	1.067572	0.814295	-0.258774
H148	H	0.470006	1.099707	-0.034018
C149	C	1.010980	1.001716	-0.383836
N150	N	1.054645	0.999189	-0.436404
C151	C	1.528907	0.738414	-0.333176
N152	N	1.600266	0.743423	-0.378158
H153	H	0.900249	1.117662	-0.360097
H154	H	1.365615	0.534915	0.028874
C155	C	1.011091	0.247200	0.370597
N156	N	1.054792	0.194653	0.368027
H157	H	0.804637	1.123204	-0.010550
H158	H	0.360690	0.661415	0.030384
C159	C	0.714794	1.177317	0.061319
N160	N	0.641599	1.170623	0.060583
C161	C	1.528939	0.297850	0.107395
N162	N	1.600302	0.252868	0.112394
C163	C	1.549204	0.440284	0.031204
N164	N	1.628552	0.451500	0.006144
C165	C	1.085774	0.696201	-0.546552
N166	N	1.158959	0.696957	-0.589868
H167	H	0.995962	1.265329	0.137017
C168	C	0.900377	0.253623	0.503826
N169	N	0.900393	0.203602	0.553821
H170	H	1.330569	0.288825	0.160523
C171	C	0.714806	1.304071	0.061291
N172	N	0.641627	1.347396	0.060520
C173	C	1.368373	0.649533	-0.076733
N174	N	1.376406	0.619463	-0.020547
C175	C	1.549188	0.662229	-0.190745
N176	N	1.628538	0.637180	-0.179530
H177	H	0.804612	1.495497	-0.010530
C178	C	1.327772	0.802035	-0.361580
N179	N	1.319782	0.832236	-0.417776
C180	C	0.432157	0.738987	0.203237
N181	N	0.424104	0.769043	0.147054
H182	H	0.804641	0.495463	0.382701
H183	H	0.995959	1.374822	0.137019
H184	H	1.060547	1.099405	0.064913
H185	H	0.434959	0.853617	0.097615
H186	H	0.296247	1.075166	0.020840
H187	H	0.995951	1.002528	0.137017
H188	H	0.995946	0.893028	0.137027
H189	H	0.995920	0.768066	-0.256207
H190	H	0.995935	0.768054	-0.365694
H191	H	1.060523	0.695953	-0.422123
H192	H	0.804623	0.620493	-0.245026
H193	H	0.804604	1.013710	-0.135526
C194	C	1.011022	0.779662	-0.629379
N195	N	1.054716	0.813354	-0.631935
C196	C	1.011026	0.779655	-0.756115
N197	N	1.054707	0.813355	-0.808671
H198	H	1.174320	0.387332	0.149551
C199	C	0.714796	0.692321	-0.453698
N200	N	0.641614	0.691544	-0.460374
C201	C	0.789558	0.608863	-0.489697
N202	N	0.745864	0.575172	-0.437142
C203	C	0.714783	0.692337	-0.326966
N204	N	0.641595	0.691579	-0.283652
C205	C	0.789547	0.608872	-0.117399
N206	N	0.745853	0.575181	-0.064843
C207	C	0.472913	0.586585	0.488050
N208	N	0.480965	0.556503	0.544233
H209	H	0.804643	0.620473	-0.617318
H210	H	0.626254	1.001200	-0.023068
H211	H	0.995938	0.893070	-0.256222
