data_functionalizedCrystal
_audit_creation_method	'MofGen! by Chris Wilmer'
_symmetry_space_group_name_H-M	'P1'
_symmetry_Int_Tables_number	1
_symmetry_cell_setting	triclinic
loop_
_symmetry_equiv_pos_as_xyz
  x,y,z
_cell_length_a	16.120530
_cell_length_b	16.120484
_cell_length_c	16.120297
_cell_angle_alpha	84.385569
_cell_angle_beta	89.871860
_cell_angle_gamma	90.167327
loop_
_atom_site_label
_atom_site_type_symbol
_atom_site_fract_x
_atom_site_fract_y
_atom_site_fract_z
Zn1	Zn	1.224987	-0.422264	0.554813
Zn2	Zn	1.224883	-0.554948	0.422118
Zn3	Zn	1.093726	-0.408180	0.408056
Zn4	Zn	1.078880	-0.554181	0.554051
O5	O	1.155619	-0.484893	0.484760
O6	O	1.341009	-0.446081	0.543415
O7	O	1.213654	-0.529906	0.303620
O8	O	1.117395	-0.293418	0.421958
O9	O	1.340932	-0.543563	0.445925
O10	O	1.213832	-0.303765	0.529780
O11	O	1.117294	-0.422076	0.293289
O12	O	0.975721	-0.421332	0.421218
O13	O	1.092092	-0.542255	0.670785
O14	O	0.964814	-0.528598	0.528480
O15	O	1.199436	-0.445336	0.671345
O16	O	1.199258	-0.671477	0.445185
O17	O	1.091990	-0.670913	0.542116
C18	C	1.144023	-0.701438	0.495113
C19	C	1.139137	-0.794083	0.499574
C20	C	0.940181	-0.473354	0.473241
C21	C	0.848013	-0.468438	0.468334
C22	C	1.130220	-0.963706	0.507736
C23	C	1.181166	-1.005249	0.461804
C24	C	1.176204	-1.099633	0.466346
C25	C	1.135180	-0.869313	0.503196
C26	C	0.679262	-0.459445	0.459381
C27	C	0.632810	-0.510407	0.510202
C28	C	0.538911	-0.505403	0.505220
C29	C	0.773169	-0.464448	0.464361
C30	C	1.371899	-0.496479	0.496324
C31	C	1.464064	-0.501416	0.501252
C32	C	1.144119	-0.495281	0.702152
C33	C	1.139219	-0.499708	0.794791
C34	C	1.167282	-0.267505	0.474385
C35	C	1.172251	-0.174867	0.469964
C36	C	1.167125	-0.474489	0.268213
C37	C	1.172198	-0.469836	0.175571
C38	C	1.130243	-0.507770	0.964403
C39	C	1.181172	-0.461776	1.005965
C40	C	1.176177	-0.466262	1.100342
C41	C	1.135236	-0.503285	0.870017
H42	H	1.228508	-0.969931	0.419069
H43	H	1.228524	-0.419031	0.970668
C44	C	1.066980	-0.564657	1.011404
C45	C	0.987001	-0.541128	0.985058
C46	C	0.928706	-0.593509	1.028355
H47	H	1.076741	-0.620669	1.000550
H48	H	1.071921	-0.560124	1.069505
H49	H	0.982063	-0.545669	0.926970
H50	H	0.977214	-0.485125	0.995913
H51	H	0.933647	-0.588976	1.086457
H52	H	0.938474	-0.649518	1.017499
H53	H	0.874434	-0.577547	1.010492
C54	C	0.673761	-0.573503	0.573334
C55	C	0.649407	-0.558325	0.653879
C56	C	0.687125	-0.616425	0.712053
H57	H	0.657292	-0.628192	0.563092
H58	H	0.732344	-0.568511	0.568408
H59	H	0.590837	-0.563325	0.658803
H60	H	0.665876	-0.503647	0.664147
H61	H	0.745708	-0.611432	0.707127
H62	H	0.670653	-0.671111	0.701804
H63	H	0.670613	-0.606130	0.766710
C64	C	0.638108	-0.396348	0.396406
C65	C	0.551805	-0.403893	0.403907
C66	C	0.513857	-0.345793	0.345901
H67	H	0.654504	-0.341649	0.406688
H68	H	0.654503	-0.406529	0.341680
H69	H	0.535417	-0.393706	0.458620
H70	H	0.535386	-0.458579	0.393617
H71	H	0.530252	-0.355973	0.291174
H72	H	0.530259	-0.291098	0.356188
H73	H	0.455297	-0.350909	0.350977
H74	H	1.082881	-0.999022	0.550467
