data_functionalizedCrystal
_audit_creation_method	'MofGen! by Chris Wilmer'
_symmetry_space_group_name_H-M	'P1'
_symmetry_Int_Tables_number	1
_symmetry_cell_setting	triclinic
loop_
_symmetry_equiv_pos_as_xyz
  x,y,z
_cell_length_a	21.295417
_cell_length_b	21.295419
_cell_length_c	21.295420
_cell_angle_alpha	89.992868
_cell_angle_beta	90.018953
_cell_angle_gamma	89.952934
loop_
_atom_site_label
_atom_site_type_symbol
_atom_site_fract_x
_atom_site_fract_y
_atom_site_fract_z
Zn1	Zn	-0.250420	-0.962243	0.355924
Zn2	Zn	0.082914	-0.628909	0.689257
Zn3	Zn	0.416247	-0.295576	1.022590
Zn4	Zn	-0.355667	-0.962179	0.250649
Zn5	Zn	-0.022333	-0.628845	0.583982
Zn6	Zn	0.311000	-0.295512	0.917316
Zn7	Zn	-0.250446	-0.856999	0.250667
Zn8	Zn	0.082888	-0.523666	0.584001
Zn9	Zn	0.416221	-0.190333	0.917334
Zn10	Zn	-0.355685	-0.856935	0.355879
Zn11	Zn	-0.022352	-0.523602	0.689213
Zn12	Zn	0.310981	-0.190269	1.022546
O13	O	-0.303054	-0.909589	0.303280
O14	O	0.030279	-0.576256	0.636613
O15	O	0.363612	-0.242922	0.969946
O16	O	-0.264362	-1.050324	0.341969
O17	O	0.068971	-0.716990	0.675303
O18	O	0.402305	-0.383657	1.008636
O19	O	-0.341712	-0.948226	0.162562
O20	O	-0.008378	-0.614893	0.495895
O21	O	0.324955	-0.281559	0.829229
O22	O	-0.162353	-0.871014	0.264656
O23	O	0.170981	-0.537680	0.597989
O24	O	0.504314	-0.204347	0.931323
O25	O	-0.341687	-1.050276	0.264625
O26	O	-0.008353	-0.716943	0.597958
O27	O	0.324980	-0.383610	0.931291
O28	O	-0.162334	-0.948336	0.341987
O29	O	0.171000	-0.615002	0.675321
O30	O	0.504333	-0.281669	1.008654
O31	O	-0.264406	-0.870951	0.162575
O32	O	0.068927	-0.537618	0.495909
O33	O	0.402260	-0.204285	0.829242
O34	O	-0.264425	-0.768901	0.264613
O35	O	0.068909	-0.435568	0.597946
O36	O	0.402242	-0.102235	0.931280
O37	O	-0.341719	-0.870905	0.443975
O38	O	-0.008385	-0.537571	0.777308
O39	O	0.324948	-0.204238	1.110641
O40	O	-0.341744	-0.768854	0.341912
O41	O	-0.008410	-0.435521	0.675245
O42	O	0.324923	-0.102188	1.008579
O43	O	-0.264380	-0.948274	0.444007
O44	O	0.068953	-0.614940	0.777340
O45	O	0.402286	-0.281607	1.110674
O46	O	-0.443758	-0.948164	0.264582
O47	O	-0.110425	-0.614831	0.597915
O48	O	0.222908	-0.281497	0.931249
O49	O	-0.443772	-0.870842	0.341894
O50	O	-0.110439	-0.537509	0.675227
O51	O	0.222894	-0.204176	1.008561
C52	C	-0.303089	-0.746037	0.303260
C53	C	0.030244	-0.412704	0.636593
C54	C	0.363577	-0.079371	0.969927
C55	C	-0.303120	-0.676069	0.303266
C56	C	0.030214	-0.342736	0.636600
C57	C	0.363547	-0.009403	0.969933
C58	C	-0.262924	-0.643250	0.343602
C59	C	0.070410	-0.309916	0.676935
C60	C	0.403743	0.023417	1.010268
C61	C	-0.262909	-0.577507	0.343603
C62	C	0.070425	-0.244174	0.676937
C63	C	0.403758	0.089160	1.010270
C64	C	-0.303101	-0.544587	0.303276
C65	C	0.030232	-0.211253	0.636610
C66	C	0.363566	0.122080	0.969943
C67	C	-0.343300	-0.577414	0.262933
C68	C	-0.009967	-0.244081	0.596266
C69	C	0.323367	0.089252	0.929600
C70	C	-0.343309	-0.643156	0.262928
C71	C	-0.009976	-0.309822	0.596262
C72	C	0.323357	0.023511	0.929595
N73	N	-0.358181	-0.441313	0.298355
N74	N	-0.024848	-0.107980	0.631688
N75	N	0.308485	0.225354	0.965022
N76	N	-0.358171	-0.378861	0.298363
N77	N	-0.024837	-0.045528	0.631697
N78	N	0.308496	0.287805	0.965030
C79	C	-0.303075	-0.346512	0.303287
C80	C	0.030259	-0.013179	0.636621
C81	C	0.363592	0.320155	0.969954
N82	N	-0.247988	-0.378973	0.308215
N83	N	0.085345	-0.045640	0.641549
N84	N	0.418678	0.287693	0.974882
N85	N	-0.248000	-0.441431	0.308210
N86	N	0.085334	-0.108097	0.641544
N87	N	0.418667	0.225236	0.974877
C88	C	-0.303095	-0.473301	0.303277
C89	C	0.030238	-0.139968	0.636610
C90	C	0.363571	0.193365	0.969943
C91	C	-0.262859	-0.242407	0.343627
C92	C	0.070474	0.090926	0.676960
C93	C	0.403808	0.424260	1.010293
C94	C	-0.262843	-0.176663	0.343624
C95	C	0.070490	0.156670	0.676957
C96	C	0.403824	0.490004	1.010290
C97	C	-0.343240	-0.176572	0.262957
C98	C	-0.009907	0.156762	0.596290
C99	C	0.323427	0.490095	0.929624
C100	C	-0.343250	-0.242314	0.262956
C101	C	-0.009917	0.091019	0.596290
C102	C	0.323416	0.424353	0.929623
C103	C	-0.303061	-0.275228	0.303295
C104	C	0.030273	0.058106	0.636628
C105	C	0.363606	0.391439	0.969961
C106	C	-0.466606	-0.909506	0.303245
C107	C	-0.133273	-0.576173	0.636578
C108	C	0.200061	-0.242840	0.969912
C109	C	-0.536574	-0.909529	0.303251
C110	C	-0.203241	-0.576195	0.636584
C111	C	0.130093	-0.242862	0.969918
C112	C	-0.569413	-0.949826	0.263036
C113	C	-0.236079	-0.616493	0.596369
C114	C	0.097254	-0.283159	0.929702
C115	C	-0.635155	-0.949855	0.263050
C116	C	-0.301822	-0.616522	0.596383
C117	C	0.031512	-0.283189	0.929717
C118	C	-0.668056	-0.909577	0.303273
C119	C	-0.334723	-0.576243	0.636606
C120	C	-0.001390	-0.242910	0.969939
C121	C	-0.635210	-0.869277	0.343496
C122	C	-0.301877	-0.535943	0.676829
C123	C	0.031457	-0.202610	1.010162
C124	C	-0.569469	-0.869253	0.343485
C125	C	-0.236135	-0.535919	0.676818
C126	C	0.097198	-0.202586	1.010152
N127	N	-0.771339	-0.854508	0.308065
N128	N	-0.438006	-0.521175	0.641398
N129	N	-0.104673	-0.187841	0.974732
N130	N	-0.833791	-0.854532	0.308072
N131	N	-0.500457	-0.521199	0.641405
N132	N	-0.167124	-0.187866	0.974738
C133	C	-0.866131	-0.909647	0.303309
C134	C	-0.532798	-0.576314	0.636642
C135	C	-0.199464	-0.242980	0.969976
N136	N	-0.833661	-0.964737	0.298527
N137	N	-0.500328	-0.631404	0.631860
N138	N	-0.166994	-0.298071	0.965194
N139	N	-0.771204	-0.964712	0.298517
N140	N	-0.437870	-0.631379	0.631850
N141	N	-0.104537	-0.298046	0.965184
C142	C	-0.739342	-0.909598	0.303289
C143	C	-0.406008	-0.576265	0.636623
C144	C	-0.072675	-0.242932	0.969956
C145	C	-0.970255	-0.949980	0.263107
C146	C	-0.636922	-0.616646	0.596440
C147	C	-0.303589	-0.283313	0.929773
C148	C	-1.035999	-0.950010	0.263125
C149	C	-0.702666	-0.616677	0.596459
C150	C	-0.369332	-0.283343	0.929792
C151	C	-1.036053	-0.869426	0.343568
C152	C	-0.702719	-0.536092	0.676901
C153	C	-0.369386	-0.202759	1.010235
C154	C	-0.970310	-0.869401	0.343553
C155	C	-0.636977	-0.536067	0.676886
C156	C	-0.303643	-0.202734	1.010219
C157	C	-0.937415	-0.909677	0.303319
C158	C	-0.604082	-0.576343	0.636652
C159	C	-0.270749	-0.243010	0.969985
C160	C	-0.138864	-0.909689	0.303329
C161	C	0.194469	-0.576356	0.636662
C162	C	0.527803	-0.243022	0.969995
C163	C	-0.068896	-0.909732	0.303349
C164	C	0.264438	-0.576398	0.636683
C165	C	0.597771	-0.243065	0.970016
C166	C	-0.303049	-0.909589	0.467470
C167	C	0.030285	-0.576256	0.800803
C168	C	0.363618	-0.242923	1.134137
C169	C	-0.303046	-0.909589	0.537438
C170	C	0.030287	-0.576256	0.870771
C171	C	0.363620	-0.242923	1.204105
C172	C	-0.303027	-0.073779	0.303297
C173	C	0.030306	0.259554	0.636630
C174	C	0.363640	0.592887	0.969963
C175	C	-0.303035	-0.143747	0.303296
C176	C	0.030298	0.189586	0.636629
C177	C	0.363632	0.522919	0.969962
C178	C	-0.262783	-0.949847	1.036914
C179	C	0.070550	-0.616514	1.370247
C180	C	0.403883	-0.283181	1.703581
C181	C	-0.262784	-0.949854	0.971171
C182	C	0.070549	-0.616521	1.304505
C183	C	0.403882	-0.283187	1.637838
C184	C	-0.303049	-0.909574	0.938278
C185	C	0.030285	-0.576240	1.271611
C186	C	0.363618	-0.242907	1.604944
C187	C	-0.343326	-0.869295	0.971132
C188	C	-0.009993	-0.535962	1.304465
C189	C	0.323340	-0.202628	1.637798
C190	C	-0.343328	-0.869294	1.036873
C191	C	-0.009995	-0.535961	1.370206
C192	C	0.323338	-0.202627	1.703540
N193	N	-0.307886	-0.854470	0.835048
N194	N	0.025447	-0.521137	1.168382
N195	N	0.358780	-0.187804	1.501715
N196	N	-0.307881	-0.854473	0.772597
N197	N	0.025453	-0.521140	1.105930
N198	N	0.358786	-0.187806	1.439263
C199	C	-0.303046	-0.909575	0.740203
C200	C	0.030288	-0.576242	1.073536
C201	C	0.363621	-0.242909	1.406870
N202	N	-0.298205	-0.964676	0.772620
N203	N	0.035129	-0.631342	1.105953
N204	N	0.368462	-0.298009	1.439286
N205	N	-0.298207	-0.964672	0.835077
N206	N	0.035126	-0.631339	1.168410
N207	N	0.368460	-0.298006	1.501743
C208	C	-0.303051	-0.909571	0.866992
C209	C	0.030282	-0.576237	1.200326
C210	C	0.363615	-0.242904	1.533659
C211	C	-0.262775	-0.949862	0.636071
C212	C	0.070558	-0.616528	0.969405
C213	C	0.403891	-0.283195	1.302738
C214	C	-0.262781	-0.949869	0.570327
C215	C	0.070552	-0.616536	0.903661
C216	C	0.403886	-0.283203	1.236994
C217	C	-0.343319	-0.869305	0.570289
C218	C	-0.009986	-0.535971	0.903622
C219	C	0.323347	-0.202638	1.236956
C220	C	-0.343317	-0.869303	0.636031
C221	C	-0.009984	-0.535969	0.969365
C222	C	0.323350	-0.202636	1.302698
C223	C	-0.303042	-0.909580	0.668919
C224	C	0.030292	-0.576247	1.002252
C225	C	0.363625	-0.242914	1.335585
C226	C	-0.303068	-0.909581	1.139728
C227	C	0.030265	-0.576248	1.473061
C228	C	0.363599	-0.242914	1.806395
C229	C	-0.303053	-0.909572	1.069760
C230	C	0.030280	-0.576238	1.403093
C231	C	0.363614	-0.242905	1.736427
H232	H	-0.230130	-0.269207	0.376468
H233	H	0.103203	0.064127	0.709802
H234	H	0.436536	0.397460	1.043135
C235	C	-0.387533	-0.679258	0.218557
C236	C	-0.054200	-0.345925	0.551891
C237	C	0.279134	-0.012592	0.885224
N238	N	-0.420844	-0.706452	0.185138
N239	N	-0.087511	-0.373118	0.518471
N240	N	0.245822	-0.039785	0.851804
C241	C	-0.387452	-0.140363	0.218596
C242	C	-0.054118	0.192970	0.551929
C243	C	0.279215	0.526304	0.885263
N244	N	-0.420752	-0.113088	0.185181
N245	N	-0.087419	0.220246	0.518514
N246	N	0.245914	0.553579	0.851848
C247	C	-0.218621	-0.140562	0.387997
C248	C	0.114712	0.192772	0.721331
C249	C	0.448045	0.526105	1.054664
N250	N	-0.185313	-0.113370	0.421421
N251	N	0.148020	0.219964	0.754755
N252	N	0.481353	0.553297	1.088088
H253	H	-0.229980	-0.982658	0.662849
H254	H	0.103353	-0.649324	0.996183
H255	H	0.436686	-0.315991	1.329516
H256	H	-0.662003	-0.836482	0.376247
H257	H	-0.328669	-0.503149	0.709580
H258	H	0.004664	-0.169816	1.042913
C259	C	-0.533232	-0.994124	0.218770
C260	C	-0.199899	-0.660791	0.552104
C261	C	0.133435	-0.327458	0.885437
N262	N	-0.505980	-1.027488	0.185427
N263	N	-0.172647	-0.694154	0.518760
N264	N	0.160687	-0.360821	0.852093
C265	C	-0.387475	-0.278417	0.218589
C266	C	-0.054141	0.054916	0.551922
C267	C	0.279192	0.388250	0.885256
N268	N	-0.420786	-0.305610	0.185169
N269	N	-0.087453	0.027724	0.518502
N270	N	0.245881	0.361057	0.851835
C271	C	-0.533345	-0.824929	0.387735
C272	C	-0.200012	-0.491595	0.721068
C273	C	0.133321	-0.158262	1.054401
N274	N	-0.506136	-0.791545	0.421067
N275	N	-0.172803	-0.458212	0.754400
N276	N	0.160531	-0.124879	1.087734
C277	C	-0.387626	-0.824981	1.073005
C278	C	-0.054293	-0.491648	1.406338
C279	C	0.279040	-0.158315	1.739671
N280	N	-0.420990	-0.791602	1.100220
N281	N	-0.087657	-0.458269	1.433553
N282	N	0.245676	-0.124936	1.766887
H283	H	-0.376111	-0.836499	0.944345
H284	H	-0.042778	-0.503166	1.277678
H285	H	0.290556	-0.169833	1.611012
C286	C	-0.218477	-0.994177	0.534197
C287	C	0.114856	-0.660844	0.867530
C288	C	0.448190	-0.327510	1.200864
N289	N	-0.185105	-1.027549	0.506983
N290	N	0.148229	-0.694215	0.840316
N291	N	0.481562	-0.360882	1.173650
C292	C	-0.218692	-0.541398	0.387981
C293	C	0.114641	-0.208065	0.721314
C294	C	0.447975	0.125268	1.054647
N295	N	-0.185389	-0.514203	0.421407
N296	N	0.147944	-0.180870	0.754741
N297	N	0.481277	0.152464	1.088074
H298	H	-0.661897	-0.982672	0.230302
H299	H	-0.328564	-0.649339	0.563635
H300	H	0.004769	-0.316006	0.896969
H301	H	-0.943471	-0.982777	0.230348
H302	H	-0.610138	-0.649444	0.563681
H303	H	-0.276805	-0.316110	0.897014
C304	C	-0.218706	-0.679451	0.387967
C305	C	0.114628	-0.346117	0.721300
C306	C	0.447961	-0.012784	1.054634
N307	N	-0.185398	-0.706719	0.421381
N308	N	0.147935	-0.373385	0.754714
N309	N	0.481269	-0.040052	1.088047
H310	H	-0.376106	-0.836510	0.543507
H311	H	-0.042772	-0.503177	0.876841
H312	H	0.290561	-0.169843	1.210174
C313	C	-1.072240	-0.825119	0.387815
C314	C	-0.738907	-0.491786	0.721148
C315	C	-0.405574	-0.158453	1.054482
N316	N	-1.099500	-0.791748	0.421144
N317	N	-0.766167	-0.458414	0.754477
N318	N	-0.432834	-0.125081	1.087811
H319	H	-0.376024	-0.550606	0.230098
H320	H	-0.042691	-0.217273	0.563431
H321	H	0.290642	0.116060	0.896765
H322	H	-0.943571	-0.836584	0.376297
H323	H	-0.610238	-0.503251	0.709630
H324	H	-0.276905	-0.169918	1.042964
C325	C	-0.387611	-0.824988	0.672163
C326	C	-0.054277	-0.491655	1.005497
C327	C	0.279056	-0.158322	1.338830
N328	N	-0.420975	-0.791609	0.699378
N329	N	-0.087642	-0.458276	1.032711
N330	N	0.245692	-0.124942	1.366045
H331	H	-1.062735	-0.982829	0.230379
H332	H	-0.729402	-0.649496	0.563712
H333	H	-0.396068	-0.316162	0.897045
H334	H	-0.229991	-0.982647	1.063687
H335	H	0.103343	-0.649314	1.397020
H336	H	0.436676	-0.315981	1.730353
H337	H	-0.229990	-0.982651	0.944423
H338	H	0.103344	-0.649318	1.277756
H339	H	0.436677	-0.315985	1.611090
