data_functionalizedCrystal
_audit_creation_method	'MofGen! by Chris Wilmer'
_symmetry_space_group_name_H-M	'P1'
_symmetry_Int_Tables_number	1
_symmetry_cell_setting	triclinic
loop_
_symmetry_equiv_pos_as_xyz
  x,y,z
_cell_length_a	11.792241
_cell_length_b	19.188930
_cell_length_c	10.868271
_cell_angle_alpha	89.989749
_cell_angle_beta	89.999893
_cell_angle_gamma	83.669099
loop_
_atom_site_label
_atom_site_type_symbol
_atom_site_fract_x
_atom_site_fract_y
_atom_site_fract_z
O1	O	1.505476	0.095695	-0.102218
O2	O	1.174987	0.105557	-0.102248
O3	O	1.349769	-0.000975	-0.102208
O4	O	1.330695	0.202228	-0.102258
O5	O	1.349755	-0.000980	0.102437
O6	O	1.174973	0.105553	0.102396
O7	O	1.505462	0.095691	0.102427
Zn8	Zn	1.340215	0.100621	0.134903
Zn9	Zn	1.340234	0.100627	-0.134725
O10	O	1.330680	0.202224	0.102387
C11	C	1.132699	0.104936	0.000071
C12	C	1.006713	0.103082	0.000060
C13	C	0.776051	0.099672	0.000096
C14	C	0.904408	0.101566	0.000076
C15	C	1.349144	-0.026992	0.000118
C16	C	1.347290	-0.104507	0.000128
C17	C	1.449846	-0.148850	0.000143
C18	C	1.448104	-0.221684	0.000123
C19	C	1.343800	-0.250171	0.000113
C20	C	1.241230	-0.205818	0.000091
C21	C	1.242975	-0.132986	0.000098
N22	N	1.264067	-0.358629	0.069750
N23	N	1.262417	-0.427817	0.069746
C24	C	1.338536	-0.469609	0.000088
N25	N	1.416386	-0.439602	-0.069550
N26	N	1.418040	-0.370408	-0.069540
C27	C	1.341896	-0.329144	0.000104
C28	C	1.439211	-0.592928	0.000080
C29	C	1.437464	-0.665762	0.000052
C30	C	1.230588	-0.649895	0.000032
C31	C	1.232337	-0.577062	0.000047
C32	C	1.336652	-0.548583	0.000077
C33	C	1.547751	0.096313	0.000105
C34	C	1.673737	0.098167	0.000108
C35	C	1.331305	0.228240	0.000058
C36	C	1.333159	0.305755	0.000040
N37	N	1.340211	0.100617	0.318917
N38	N	1.340248	0.100626	-0.318739
C39	C	1.340228	0.100625	0.569923
C40	C	1.340215	0.100623	0.430246
H41	H	1.531620	-0.257795	0.000131
H42	H	1.148825	-0.540957	0.000042
C43	C	1.564592	-0.117527	0.000153
C44	C	1.649683	-0.134100	0.106421
C45	C	1.764430	-0.102776	0.106424
C46	C	1.794085	-0.054879	0.000158
C47	C	1.708992	-0.038303	-0.106118
C48	C	1.594245	-0.069627	-0.106121
H49	H	1.627732	-0.169558	0.185093
H50	H	1.827421	-0.115047	0.185097
H51	H	1.879028	-0.031691	0.000160
H52	H	1.730943	-0.002844	-0.184789
H53	H	1.531254	-0.057356	-0.184794
H54	H	1.156305	-0.229017	0.000080
H55	H	1.159459	-0.096881	0.000086
C56	C	1.115852	-0.681225	0.000020
C57	C	1.030767	-0.664655	-0.106255
C58	C	0.916029	-0.695989	-0.106272
C59	C	0.886376	-0.743893	-0.000014
C60	C	0.971464	-0.760465	0.106268
C61	C	1.086202	-0.729131	0.106285
H62	H	1.052716	-0.629192	-0.184920
H63	H	0.853042	-0.683721	-0.184950
H64	H	0.801440	-0.767088	-0.000027
H65	H	0.949515	-0.795928	0.184933
H66	H	1.149189	-0.741399	0.184963
H67	H	1.524150	-0.569739	0.000098
H68	H	1.520981	-0.701866	0.000058
