data_functionalizedCrystal
_audit_creation_method	'MofGen! by Chris Wilmer'
_symmetry_space_group_name_H-M	'P1'
_symmetry_Int_Tables_number	1
_symmetry_cell_setting	triclinic
loop_
_symmetry_equiv_pos_as_xyz
  x,y,z
_cell_length_a	29.839135
_cell_length_b	29.839131
_cell_length_c	25.639233
_cell_angle_alpha	90.027239
_cell_angle_beta	90.016634
_cell_angle_gamma	90.037758
loop_
_atom_site_label
_atom_site_type_symbol
_atom_site_fract_x
_atom_site_fract_y
_atom_site_fract_z
Zn1	Zn	0.686744	-0.178878	0.295634
Zn2	Zn	1.020077	0.154456	0.628968
Zn3	Zn	1.353411	0.487789	0.962301
Zn4	Zn	0.686683	-0.253992	0.208186
Zn5	Zn	1.020016	0.079341	0.541519
Zn6	Zn	1.353349	0.412675	0.874852
Zn7	Zn	0.611625	-0.178880	0.208207
Zn8	Zn	0.944959	0.154453	0.541540
Zn9	Zn	1.278292	0.487786	0.874873
Zn10	Zn	0.611583	-0.253985	0.295584
Zn11	Zn	0.944916	0.079349	0.628917
Zn12	Zn	1.278249	0.412682	0.962251
O13	O	0.649159	-0.216434	0.251903
O14	O	0.982492	0.116900	0.585236
O15	O	1.315825	0.450233	0.918569
O16	O	0.749603	-0.188844	0.284046
O17	O	1.082936	0.144490	0.617380
O18	O	1.416270	0.477823	0.950713
O19	O	0.676718	-0.244033	0.135023
O20	O	1.010052	0.089301	0.468357
O21	O	1.343385	0.422634	0.801690
O22	O	0.621633	-0.116013	0.219834
O23	O	0.954967	0.217321	0.553167
O24	O	1.288300	0.550654	0.886501
O25	O	0.749558	-0.244030	0.219798
O26	O	1.082891	0.089303	0.553131
O27	O	1.416225	0.422637	0.886465
O28	O	0.676823	-0.116011	0.284067
O29	O	1.010156	0.217322	0.617400
O30	O	1.343490	0.550656	0.950733
O31	O	0.621574	-0.188848	0.135039
O32	O	0.954907	0.144485	0.468372
O33	O	1.288241	0.477818	0.801705
O34	O	0.548753	-0.188841	0.219785
O35	O	0.882086	0.144492	0.553119
O36	O	1.215419	0.477826	0.886452
O37	O	0.621561	-0.244017	0.368756
O38	O	0.954894	0.089316	0.702089
O39	O	1.288227	0.422649	1.035423
O40	O	0.548721	-0.244020	0.283981
O41	O	0.882055	0.089313	0.617314
O42	O	1.215388	0.422647	0.950648
O43	O	0.676781	-0.188837	0.368793
O44	O	1.010115	0.144497	0.702126
O45	O	1.343448	0.477830	1.035459
O46	O	0.676677	-0.316858	0.219749
O47	O	1.010010	0.016475	0.553083
O48	O	1.343344	0.349808	0.886416
O49	O	0.621501	-0.316853	0.283961
O50	O	0.954835	0.016481	0.617294
O51	O	1.288168	0.349814	0.950627
C52	C	0.532436	-0.216430	0.251880
C53	C	0.865769	0.116903	0.585214
C54	C	1.199103	0.450236	0.918547
C55	C	0.482502	-0.216440	0.251883
C56	C	0.815835	0.116894	0.585217
C57	C	1.149168	0.450227	0.918550
C58	C	0.172879	-0.187742	0.285406
C59	C	0.506212	0.145592	0.618739
C60	C	0.839545	0.478925	0.952073
C61	C	-0.014794	-0.187745	0.285421
C62	C	0.318539	0.145589	0.618754
C63	C	0.651872	0.478922	0.952087
O64	O	-0.039042	-0.163335	0.313898
O65	O	0.294292	0.169999	0.647232
O66	O	0.627625	0.503332	0.980565
N67	N	-0.038283	-0.216434	0.251922
N68	N	0.295050	0.116899	0.585255
N69	N	0.628383	0.450232	0.918588
C70	C	-0.014851	-0.245123	0.218414
C71	C	0.318482	0.088211	0.551748
C72	C	0.651815	0.421544	0.885081
O73	O	-0.039136	-0.269522	0.189918
O74	O	0.294197	0.063812	0.523251
O75	O	0.627530	0.397145	0.856585
C76	C	0.172821	-0.245117	0.218397
C77	C	0.506154	0.088216	0.551731
C78	C	0.839488	0.421550	0.885064
C79	C	0.196308	-0.216429	0.251902
C80	C	0.529641	0.116904	0.585235
C81	C	0.862974	0.450238	0.918569
C82	C	0.196365	-0.159056	0.318908
C83	C	0.529699	0.174278	0.652241
C84	C	0.863032	0.507611	0.985574
C85	C	0.243281	-0.159057	0.318906
C86	C	0.576614	0.174276	0.652239
C87	C	0.909948	0.507610	0.985572
C88	C	0.266710	-0.187744	0.285402
C89	C	0.600043	0.145589	0.618735
C90	C	0.933376	0.478922	0.952068
C91	C	0.243223	-0.216430	0.251900
C92	C	0.576556	0.116903	0.585233
C93	C	0.909890	0.450236	0.918567
C94	C	0.196252	-0.273803	0.184888
C95	C	0.529585	0.059530	0.518221
C96	C	0.862919	0.392864	0.851554
C97	C	0.243173	-0.273798	0.184885
C98	C	0.576506	0.059535	0.518219
C99	C	0.909840	0.392869	0.851552
C100	C	0.266660	-0.245110	0.218390
C101	C	0.599993	0.088223	0.551723
C102	C	0.933326	0.421557	0.885057
C103	C	0.313567	-0.245119	0.218394
C104	C	0.646901	0.088215	0.551728
C105	C	0.980234	0.421548	0.885061
N106	N	0.337056	-0.216429	0.251893
N107	N	0.670390	0.116904	0.585227
N108	N	1.003723	0.450237	0.918560
C109	C	0.313628	-0.187742	0.285397
C110	C	0.646961	0.145591	0.618730
C111	C	0.980294	0.478925	0.952064
C112	C	-0.113382	-0.245124	0.218426
C113	C	0.219951	0.088209	0.551760
C114	C	0.553285	0.421542	0.885093
C115	C	-0.160300	-0.245126	0.218431
C116	C	0.173034	0.088207	0.551765
C117	C	0.506367	0.421540	0.885098
C118	C	-0.160239	-0.187748	0.285437
C119	C	0.173094	0.145586	0.618770
C120	C	0.506427	0.478919	0.952104
C121	C	-0.113321	-0.187748	0.285435
C122	C	0.220013	0.145585	0.618768
C123	C	0.553346	0.478918	0.952101
C124	C	-0.089893	-0.216435	0.251925
C125	C	0.243440	0.116898	0.585259
C126	C	0.576774	0.450232	0.918592
C127	C	0.412153	-0.187747	0.285390
C128	C	0.745487	0.145586	0.618724
C129	C	1.078820	0.478919	0.952057
C130	C	0.459073	-0.187752	0.285387
C131	C	0.792406	0.145581	0.618720
C132	C	1.125740	0.478914	0.952054
C133	C	0.459009	-0.245129	0.218379
C134	C	0.792342	0.088204	0.551713
C135	C	1.125675	0.421538	0.885046
C136	C	0.412093	-0.245126	0.218385
C137	C	0.745426	0.088208	0.551718
C138	C	1.078760	0.421541	0.885051
C139	C	0.388667	-0.216431	0.251892
C140	C	0.722000	0.116902	0.585225
C141	C	1.055333	0.450235	0.918559
O142	O	0.337844	-0.269513	0.189928
O143	O	0.671177	0.063821	0.523261
O144	O	1.004510	0.397154	0.856594
O145	O	0.337921	-0.163340	0.313881
O146	O	0.671254	0.169993	0.647214
O147	O	1.004587	0.503327	0.980548
C148	C	0.125963	-0.187740	0.285408
C149	C	0.459297	0.145593	0.618741
C150	C	0.792630	0.478926	0.952075
C151	C	0.102477	-0.216427	0.251906
C152	C	0.435810	0.116907	0.585240
C153	C	0.769143	0.450240	0.918573
C154	C	0.125905	-0.245114	0.218402
C155	C	0.459239	0.088220	0.551736
C156	C	0.792572	0.421553	0.885069
C157	C	0.055559	-0.216429	0.251911
C158	C	0.388892	0.116905	0.585244
C159	C	0.722225	0.450238	0.918578
C160	C	0.032130	-0.187741	0.285415
C161	C	0.365463	0.145592	0.618748
C162	C	0.698797	0.478925	0.952082
C163	C	0.055619	-0.159052	0.318914
C164	C	0.388952	0.174281	0.652247
C165	C	0.722286	0.507615	0.985580
C166	C	0.102535	-0.159053	0.318912
C167	C	0.435868	0.174280	0.652245
C168	C	0.769201	0.507613	0.985578
C169	C	0.102416	-0.273803	0.184903
C170	C	0.435750	0.059530	0.518237
C171	C	0.769083	0.392864	0.851570
C172	C	0.055501	-0.273800	0.184909
C173	C	0.388834	0.059533	0.518242
C174	C	0.722167	0.392867	0.851575
C175	C	0.032072	-0.245113	0.218412
C176	C	0.365405	0.088221	0.551746
C177	C	0.698739	0.421554	0.885079
C178	C	0.649090	-0.333156	0.251859
C179	C	0.982424	0.000177	0.585192
C180	C	1.315757	0.333510	0.918525
C181	C	0.649102	-0.383091	0.251857
C182	C	0.982435	-0.049757	0.585191
C183	C	1.315769	0.283576	0.918524
C184	C	0.677890	-0.692698	0.285396
C185	C	1.011223	-0.359365	0.618730
C186	C	1.344556	-0.026032	0.952063
C187	C	0.677938	-0.880371	0.285428
C188	C	1.011272	-0.547038	0.618761
C189	C	1.344605	-0.213705	0.952094
O190	O	0.702347	-0.904606	0.313911
O191	O	1.035681	-0.571272	0.647244
O192	O	1.369014	-0.237939	0.980578
N193	N	0.649235	-0.903876	0.251961
N194	N	0.982568	-0.570542	0.585294
N195	N	1.315902	-0.237209	0.918627
C196	C	0.620515	-0.880459	0.218486
C197	C	0.953849	-0.547126	0.551819
C198	C	1.287182	-0.213792	0.885153
O199	O	0.596099	-0.904757	0.190025
O200	O	0.929433	-0.571424	0.523358
O201	O	1.262766	-0.238091	0.856691
C202	C	0.620465	-0.692787	0.218458
C203	C	0.953798	-0.359454	0.551791
C204	C	1.287131	-0.026120	0.885124
C205	C	0.649173	-0.669285	0.251923
C206	C	0.982506	-0.335952	0.585256
C207	C	1.315840	-0.002618	0.918590
C208	C	0.706595	-0.669196	0.318859
C209	C	1.039929	-0.335863	0.652193
C210	C	1.373262	-0.002529	0.985526
C211	C	0.706585	-0.622281	0.318849
C212	C	1.039918	-0.288947	0.652182
C213	C	1.373251	0.044386	0.985516
C214	C	0.677868	-0.598867	0.285376
C215	C	1.011201	-0.265534	0.618709
C216	C	1.344535	0.067799	0.952042
C217	C	0.649162	-0.622369	0.251913
C218	C	0.982496	-0.289036	0.585246
C219	C	1.315829	0.044297	0.918579
C220	C	0.591743	-0.669371	0.184986
C221	C	0.925076	-0.336038	0.518319
C222	C	1.258410	-0.002705	0.851652
C223	C	0.591732	-0.622450	0.184983
C224	C	0.925066	-0.289117	0.518316
C225	C	1.258399	0.044216	0.851649
C226	C	0.620441	-0.598948	0.218448
C227	C	0.953774	-0.265615	0.551781
C228	C	1.287107	0.067719	0.885115
C229	C	0.620435	-0.552041	0.218429
C230	C	0.953768	-0.218707	0.551763
C231	C	1.287102	0.114626	0.885096
N232	N	0.649138	-0.528536	0.251896
N233	N	0.982472	-0.195203	0.585230
N234	N	1.315805	0.138131	0.918563
C235	C	0.677855	-0.551949	0.285369
C236	C	1.011188	-0.218616	0.618703
C237	C	1.344522	0.114717	0.952036
C238	C	0.620545	-0.978990	0.218502
C239	C	0.953878	-0.645656	0.551836
C240	C	1.287211	-0.312323	0.885169
C241	C	0.620558	-1.025908	0.218509
C242	C	0.953891	-0.692574	0.551842
C243	C	1.287224	-0.359241	0.885175
C244	C	0.677980	-1.025816	0.285451
C245	C	1.011314	-0.692483	0.618785
C246	C	1.344647	-0.359150	0.952118
C247	C	0.677969	-0.978898	0.285442
C248	C	1.011302	-0.645564	0.618775
C249	C	1.344636	-0.312231	0.952109
C250	C	0.649248	-0.955485	0.251969
C251	C	0.982581	-0.622152	0.585303
C252	C	1.315915	-0.288819	0.918636
C253	C	0.677830	-0.453424	0.285345
C254	C	1.011164	-0.120090	0.618679
C255	C	1.344497	0.213243	0.952012
C256	C	0.677818	-0.406504	0.285331
C257	C	1.011152	-0.073171	0.618664
C258	C	1.344485	0.260163	0.951997
C259	C	0.620395	-0.406599	0.218390
C260	C	0.953728	-0.073266	0.551723
C261	C	1.287061	0.260067	0.885057
C262	C	0.620408	-0.453515	0.218403
C263	C	0.953741	-0.120181	0.551736
C264	C	1.287075	0.213152	0.885069
C265	C	0.649127	-0.476926	0.251884
C266	C	0.982461	-0.143592	0.585218
C267	C	1.315794	0.189741	0.918551
O268	O	0.596035	-0.527777	0.189965
O269	O	0.929369	-0.194444	0.523298
O270	O	1.262702	0.138889	0.856632
O271	O	0.702260	-0.527643	0.313835
O272	O	1.035594	-0.194310	0.647168
O273	O	1.368927	0.139024	0.980501
C274	C	0.677900	-0.739614	0.285406
C275	C	1.011234	-0.406280	0.618740
C276	C	1.344567	-0.072947	0.952073
C277	C	0.649195	-0.763116	0.251943
C278	C	0.982528	-0.429782	0.585277
C279	C	1.315861	-0.096449	0.918610
C280	C	0.620478	-0.739702	0.218470
C281	C	0.953811	-0.406369	0.551803
C282	C	1.287145	-0.073036	0.885137
C283	C	0.649208	-0.810034	0.251950
C284	C	0.982541	-0.476700	0.585283
C285	C	1.315874	-0.143367	0.918616
C286	C	0.677924	-0.833447	0.285423
C287	C	1.011258	-0.500114	0.618756
C288	C	1.344591	-0.166780	0.952090
C289	C	0.706628	-0.809942	0.318890
C290	C	1.039961	-0.476609	0.652223
C291	C	1.373294	-0.143276	0.985557
C292	C	0.706617	-0.763027	0.318880
C293	C	1.039950	-0.429694	0.652213
C294	C	1.373283	-0.096360	0.985546
C295	C	0.591775	-0.763207	0.185003
C296	C	0.925108	-0.429874	0.518336
C297	C	1.258441	-0.096540	0.851670
C298	C	0.591788	-0.810122	0.185016
C299	C	0.925122	-0.476789	0.518349
C300	C	1.258455	-0.143456	0.851682
C301	C	0.620505	-0.833536	0.218489
C302	C	0.953838	-0.500202	0.551822
C303	C	1.287171	-0.166869	0.885156
C304	C	0.766337	-0.216437	0.251925
C305	C	1.099670	0.116896	0.585259
C306	C	1.433004	0.450229	0.918592
C307	C	0.816271	-0.216439	0.251935
C308	C	1.149605	0.116894	0.585268
C309	C	1.482938	0.450228	0.918602
C310	C	0.649173	-0.216426	0.388276
C311	C	0.982507	0.116908	0.721609
C312	C	1.315840	0.450241	1.054942
C313	C	0.649179	-0.216422	0.446390
C314	C	0.982513	0.116911	0.779723
C315	C	1.315846	0.450244	1.113056
C316	C	0.649240	-0.099255	0.251958
C317	C	0.982573	0.234078	0.585292
C318	C	1.315906	0.567411	0.918625
C319	C	0.649274	-0.049321	0.251982
C320	C	0.982608	0.284012	0.585315
C321	C	1.315941	0.617346	0.918649
C322	C	0.649170	-0.216409	0.116060
C323	C	0.982503	0.116924	0.449393
C324	C	1.315837	0.450258	0.782727
C325	C	0.649251	-0.216286	0.057946
C326	C	0.982584	0.117047	0.391280
C327	C	1.315918	0.450381	0.724613
C328	C	0.677969	-0.187604	0.806778
C329	C	1.011303	0.145729	1.140111
C330	C	1.344636	0.479062	1.473445
C331	C	0.677975	-0.187592	0.861382
C332	C	1.011308	0.145741	1.194716
C333	C	1.344641	0.479075	1.528049
O334	O	0.702417	-0.163143	0.889640
O335	O	1.035750	0.170190	1.222973
O336	O	1.369083	0.503524	1.556307
N337	N	0.649229	-0.216317	0.888672
N338	N	0.982562	0.117016	1.222006
N339	N	1.315896	0.450350	1.555339
C340	C	0.620472	-0.245053	0.861356
C341	C	0.953806	0.088280	1.194689
C342	C	1.287139	0.421613	1.528022
O343	O	0.596022	-0.269485	0.889582
O344	O	0.929355	0.063849	1.222915
O345	O	1.262689	0.397182	1.556249
C346	C	0.620465	-0.245063	0.806752
C347	C	0.953798	0.088270	1.140086
C348	C	1.287132	0.421604	1.473419
C349	C	0.649216	-0.216339	0.779465
C350	C	0.982549	0.116994	1.112798
C351	C	1.315883	0.450327	1.446131
C352	C	0.706718	-0.158883	0.779490
C353	C	1.040051	0.174451	1.112824
C354	C	1.373384	0.507784	1.446157
C355	C	0.706712	-0.158896	0.724890
C356	C	1.040046	0.174438	1.058223
C357	C	1.373379	0.507771	1.391556
C358	C	0.677959	-0.187631	0.697577
C359	C	1.011292	0.145703	1.030910
C360	C	1.344626	0.479036	1.364243
C361	C	0.649211	-0.216352	0.724864
C362	C	0.982544	0.116981	1.058198
C363	C	1.315877	0.450314	1.391531
C364	C	0.591706	-0.273797	0.779436
C365	C	0.925040	0.059537	1.112770
C366	C	1.258373	0.392870	1.446103
C367	C	0.591701	-0.273804	0.724829
C368	C	0.925034	0.059530	1.058163
C369	C	1.258368	0.392863	1.391496
C370	C	0.620452	-0.245080	0.697542
C371	C	0.953785	0.088253	1.030875
C372	C	1.287119	0.421587	1.364208
C373	C	0.620452	-0.245101	0.642951
C374	C	0.953786	0.088233	0.976284
C375	C	1.287119	0.421566	1.309617
N376	N	0.649198	-0.216375	0.615660
N377	N	0.982532	0.116958	0.948994
N378	N	1.315865	0.450291	1.282327
C379	C	0.677952	-0.187641	0.642973
C380	C	1.011285	0.145693	0.976307
C381	C	1.344618	0.479026	1.309640
C382	C	0.620490	-0.245030	0.976026
C383	C	0.953823	0.088303	1.309360
C384	C	1.287156	0.421637	1.642693
C385	C	0.620499	-0.245023	1.030629
C386	C	0.953832	0.088311	1.363962
C387	C	1.287166	0.421644	1.697295
C388	C	0.678001	-0.187561	1.030651
C389	C	1.011334	0.145773	1.363985
C390	C	1.344668	0.479106	1.697318
C391	C	0.677994	-0.187571	0.976048
C392	C	1.011327	0.145763	1.309381
C393	C	1.344660	0.479096	1.642715
C394	C	0.649236	-0.216305	0.948736
C395	C	0.982569	0.117028	1.282069
C396	C	1.315902	0.450362	1.615403
C397	C	0.677939	-0.187671	0.528308
C398	C	1.011272	0.145663	0.861642
C399	C	1.344606	0.478996	1.194975
C400	C	0.677933	-0.187688	0.473703
C401	C	1.011266	0.145646	0.807036
C402	C	1.344599	0.478979	1.140370
C403	C	0.620429	-0.245148	0.473685
C404	C	0.953763	0.088186	0.807018
C405	C	1.287096	0.421519	1.140351
C406	C	0.620437	-0.245133	0.528285
C407	C	0.953770	0.088201	0.861619
C408	C	1.287104	0.421534	1.194952
C409	C	0.649193	-0.216390	0.555596
C410	C	0.982527	0.116943	0.888929
C411	C	1.315860	0.450276	1.222262
O412	O	0.596022	-0.269536	0.614658
O413	O	0.929355	0.063797	0.947991
O414	O	1.262688	0.397131	1.281325
O415	O	0.702394	-0.163209	0.614740
O416	O	1.035727	0.170124	0.948074
O417	O	1.369060	0.503458	1.281407
H418	H	0.036535	-0.135695	0.346195
H419	H	0.369869	0.197638	0.679529
H420	H	0.703202	0.530971	1.012862
H421	H	0.701404	-0.164180	0.953834
H422	H	1.034738	0.169153	1.287168
H423	H	1.368071	0.502486	1.620501
H424	H	0.568294	-0.297187	0.801644
H425	H	0.901627	0.036147	1.134978
H426	H	1.234961	0.369480	1.468311
N427	N	0.589449	-0.478866	0.182303
N428	N	0.922783	-0.145532	0.515637
N429	N	1.256116	0.187801	0.848970
H430	H	0.607726	-0.498329	0.158099
H431	H	0.941059	-0.164996	0.491433
H432	H	1.274393	0.168337	0.824766
H433	H	0.571265	-0.456883	0.161130
H434	H	0.904599	-0.123549	0.494464
H435	H	1.237932	0.209784	0.827797
N436	N	0.708944	-0.156705	0.444273
N437	N	1.042278	0.176629	0.777607
N438	N	1.375611	0.509962	1.110940
H439	H	0.704582	-0.161073	0.405537
H440	H	1.037915	0.172261	0.738870
H441	H	1.371248	0.505594	1.072204
H442	H	0.741024	-0.163699	0.453827
H443	H	1.074357	0.169634	0.787160
H444	H	1.407691	0.502968	1.120493
H445	H	0.729960	-0.603148	0.346101
H446	H	1.063293	-0.269815	0.679434
H447	H	1.396627	0.063519	1.012768
H448	H	0.262246	-0.297158	0.157597
H449	H	0.595579	0.036175	0.490930
H450	H	0.928912	0.369509	0.824263
N451	N	0.708810	-0.478663	0.321457
N452	N	1.042144	-0.145330	0.654791
N453	N	1.375477	0.188003	0.988124
H454	H	0.729649	-0.498122	0.300240
H455	H	1.062982	-0.164789	0.633573
H456	H	1.396316	0.168544	0.966907
H457	H	0.690517	-0.498106	0.345669
H458	H	1.023850	-0.164773	0.679002
H459	H	1.357184	0.168560	1.012336
H460	H	0.036382	-0.297165	0.157626
H461	H	0.369715	0.036168	0.490959
H462	H	0.703049	0.369501	0.824293
H463	H	0.701354	-0.164264	0.550538
H464	H	1.034687	0.169069	0.883871
H465	H	1.368020	0.502402	1.217205
H466	H	0.729994	-0.743895	0.346130
H467	H	1.063327	-0.410562	0.679464
H468	H	1.396660	-0.077228	1.012797
N469	N	0.737721	-0.127914	0.695462
N470	N	1.071055	0.205420	1.028796
N471	N	1.404388	0.538753	1.362129
H472	H	0.755934	-0.109710	0.721057
H473	H	1.089267	0.223623	1.054391
H474	H	1.422600	0.556957	1.387724
H475	H	0.719447	-0.107126	0.672811
H476	H	1.052780	0.226208	1.006144
H477	H	1.386113	0.559541	1.339477
N478	N	0.484282	-0.276065	0.182240
N479	N	0.817615	0.057268	0.515573
N480	N	1.150949	0.390601	0.848906
H481	H	0.476103	-0.308177	0.190281
H482	H	0.809437	0.025156	0.523614
H483	H	1.142770	0.358490	0.856948
H484	H	0.517559	-0.271670	0.187339
H485	H	0.850893	0.061663	0.520673
H486	H	1.184226	0.394997	0.854006
N487	N	0.560755	-0.597203	0.148874
N488	N	0.894088	-0.263869	0.482207
N489	N	1.227421	0.069464	0.815540
H490	H	0.579021	-0.577734	0.124660
H491	H	0.912354	-0.244401	0.457993
H492	H	1.245687	0.088932	0.791326
H493	H	0.539923	-0.577769	0.170128
H494	H	0.873256	-0.244436	0.503462
H495	H	1.206589	0.088898	0.836795
N496	N	0.484405	-0.156808	0.321525
N497	N	0.817738	0.176525	0.654858
N498	N	1.151072	0.509858	0.988191
H499	H	0.503864	-0.175097	0.345713
H500	H	0.837197	0.158236	0.679046
H501	H	1.170531	0.491569	1.012379
H502	H	0.462412	-0.138641	0.342712
H503	H	0.795746	0.194692	0.676046
H504	H	1.129079	0.528025	1.009379
N505	N	0.386888	-0.156804	0.321533
N506	N	0.720221	0.176529	0.654866
N507	N	1.053554	0.509863	0.988199
H508	H	0.367429	-0.135954	0.300338
H509	H	0.700763	0.197379	0.633671
H510	H	1.034096	0.530712	0.967004
H511	H	0.408918	-0.138664	0.342748
H512	H	0.742251	0.194669	0.676081
H513	H	1.075584	0.528003	1.009414
N514	N	0.737738	-0.127891	0.808942
N515	N	1.071071	0.205442	1.142276
N516	N	1.404405	0.538775	1.475609
H517	H	0.733387	-0.132239	0.847676
H518	H	1.066721	0.201095	1.181009
H519	H	1.400054	0.534428	1.514342
H520	H	0.730769	-0.095808	0.799404
H521	H	1.064102	0.237526	1.132737
H522	H	1.397436	0.570859	1.466071
H523	H	0.729980	-0.688254	0.346120
H524	H	1.063313	-0.354921	0.679454
H525	H	1.396646	-0.021588	1.012787
H526	H	0.701413	-0.164162	1.052900
H527	H	1.034746	0.169171	1.386233
H528	H	1.368079	0.502505	1.719566
N529	N	0.589488	-0.276006	1.060051
N530	N	0.922822	0.057327	1.393384
N531	N	1.256155	0.390660	1.726718
H532	H	0.568683	-0.257744	1.082705
H533	H	0.902016	0.075589	1.416038
H534	H	1.235349	0.408923	1.749371
H535	H	0.607760	-0.296819	1.082675
H536	H	0.941094	0.036515	1.416009
H537	H	1.274427	0.369848	1.749342
H538	H	0.701363	-1.044887	0.312706
H539	H	1.034696	-0.711554	0.646039
H540	H	1.368030	-0.378221	0.979373
N541	N	0.589426	-0.381342	0.182285
N542	N	0.922759	-0.048009	0.515618
N543	N	1.256092	0.285325	0.848952
H544	H	0.593777	-0.348054	0.187361
H545	H	0.927110	-0.014721	0.520694
H546	H	1.260443	0.318613	0.854027
H547	H	0.557337	-0.389565	0.190388
H548	H	0.890671	-0.056232	0.523722
H549	H	1.224004	0.277101	0.857055
N550	N	0.589433	-0.276110	0.557730
N551	N	0.922766	0.057224	0.891064
N552	N	1.256099	0.390557	1.224397
H553	H	0.596383	-0.308213	0.548230
H554	H	0.929717	0.025120	0.881563
H555	H	1.263050	0.358453	1.214896
H556	H	0.557350	-0.269094	0.548211
H557	H	0.890684	0.064239	0.881544
H558	H	1.224017	0.397573	1.214878
H559	H	-0.094201	-0.164387	0.312716
H560	H	0.239132	0.168946	0.646049
H561	H	0.572466	0.502280	0.979383
H562	H	0.597071	-0.268431	0.953792
H563	H	0.930404	0.064902	1.287125
H564	H	1.263738	0.398235	1.620459
N565	N	0.386753	-0.276068	0.182255
N566	N	0.720087	0.057265	0.515588
N567	N	1.053420	0.390598	0.848921
H568	H	0.394896	-0.308178	0.190301
H569	H	0.728229	0.025155	0.523634
H570	H	1.061563	0.358488	0.856967
H571	H	0.394924	-0.269006	0.144928
H572	H	0.728257	0.064328	0.478261
H573	H	1.061590	0.397661	0.811594
H574	H	-0.179323	-0.164390	0.312718
H575	H	0.154010	0.168944	0.646051
H576	H	0.487344	0.502277	0.979384
H577	H	0.568278	-0.297199	0.702595
H578	H	0.901611	0.036135	1.035928
H579	H	1.234944	0.369468	1.369261
N580	N	0.589595	-1.051252	0.182411
N581	N	0.922928	-0.717919	0.515745
N582	N	1.256262	-0.384585	0.849078
H583	H	0.593958	-1.084528	0.187491
H584	H	0.927291	-0.751195	0.520824
H585	H	1.260624	-0.417861	0.854157
H586	H	0.596607	-1.043062	0.145078
H587	H	0.929941	-0.709728	0.478411
H588	H	1.263274	-0.376395	0.811745
H589	H	0.701346	-0.959765	0.312693
H590	H	1.034679	-0.626432	0.646026
H591	H	1.368012	-0.293098	0.979359
H592	H	0.701198	-0.387370	0.312582
H593	H	1.034531	-0.054037	0.645915
H594	H	1.367865	0.279297	0.979249
N595	N	0.127863	-0.128112	0.355050
N596	N	0.461197	0.205222	0.688383
N597	N	0.794530	0.538555	1.021716
H598	H	0.105896	-0.109940	0.376271
H599	H	0.439229	0.223393	0.709605
H600	H	0.772563	0.556726	1.042938
H601	H	0.147337	-0.107291	0.333816
H602	H	0.480670	0.226042	0.667149
H603	H	0.814003	0.559375	1.000483
H604	H	-0.094311	-0.268486	0.191138
H605	H	0.239022	0.064847	0.524471
H606	H	0.572355	0.398181	0.857805
H607	H	0.597020	-0.268544	0.451437
H608	H	0.930354	0.064789	0.784770
H609	H	1.263687	0.398122	1.118103
H610	H	0.177295	-0.135693	0.346191
H611	H	0.510628	0.197641	0.679524
H612	H	0.843961	0.530974	1.012857
N613	N	0.268610	-0.128113	0.355042
N614	N	0.601943	0.205220	0.688375
N615	N	0.935276	0.538553	1.021708
H616	H	0.246642	-0.109942	0.376262
H617	H	0.579976	0.223392	0.709596
H618	H	0.913309	0.556725	1.042929
H619	H	0.288082	-0.107294	0.333806
H620	H	0.621415	0.226039	0.667139
H621	H	0.954749	0.559373	1.000472
N622	N	0.560772	-0.694707	0.148893
N623	N	0.894105	-0.361373	0.482227
N624	N	1.227438	-0.028040	0.815560
H625	H	0.539944	-0.714178	0.170123
H626	H	0.873277	-0.380845	0.503456
H627	H	1.206611	-0.047511	0.836789
H628	H	0.579070	-0.714145	0.124687
H629	H	0.912403	-0.380811	0.458020
H630	H	1.245737	-0.047478	0.791353
N631	N	-0.185629	-0.276074	0.182301
N632	N	0.147704	0.057260	0.515634
N633	N	0.481037	0.390593	0.848967
H634	H	-0.163664	-0.294244	0.161076
H635	H	0.169670	0.039089	0.494410
H636	H	0.503003	0.372422	0.827743
H637	H	-0.205092	-0.257757	0.158147
H638	H	0.128242	0.075576	0.491480
H639	H	0.461575	0.408909	0.824813
N640	N	0.589570	-0.953739	0.182394
N641	N	0.922903	-0.620406	0.515727
N642	N	1.256236	-0.287073	0.849060
H643	H	0.557468	-0.961933	0.190475
H644	H	0.890801	-0.628600	0.523808
H645	H	1.224135	-0.295266	0.857142
H646	H	0.596615	-0.961931	0.145063
H647	H	0.929948	-0.628598	0.478396
H648	H	1.263281	-0.295264	0.811729
N649	N	0.170928	-0.304744	0.148748
N650	N	0.504261	0.028590	0.482081
N651	N	0.837594	0.361923	0.815414
H652	H	0.192896	-0.322911	0.127523
H653	H	0.526229	0.010423	0.460856
H654	H	0.859562	0.343756	0.794190
H655	H	0.151468	-0.286423	0.124594
H656	H	0.484801	0.046910	0.457928
H657	H	0.818135	0.380243	0.791261
N658	N	0.737602	-0.835194	0.354998
N659	N	1.070935	-0.501861	0.688331
N660	N	1.404268	-0.168528	1.021665
H661	H	0.758438	-0.854655	0.333780
H662	H	1.091772	-0.521322	0.667114
H663	H	1.425105	-0.187989	1.000447
H664	H	0.719300	-0.854636	0.379202
H665	H	1.052633	-0.521303	0.712535
H666	H	1.385967	-0.187970	1.045869
N667	N	0.560825	-0.835469	0.148914
N668	N	0.894159	-0.502135	0.482248
N669	N	1.227492	-0.168802	0.815581
H670	H	0.542633	-0.813513	0.127710
H671	H	0.875967	-0.480179	0.461044
H672	H	1.209300	-0.146846	0.794377
H673	H	0.540026	-0.854940	0.170178
H674	H	0.873359	-0.521607	0.503511
H675	H	1.206693	-0.188274	0.836844
H676	H	0.568390	-0.744147	0.157746
H677	H	0.901723	-0.410814	0.491079
H678	H	1.235056	-0.077481	0.824412
N679	N	0.127682	-0.304744	0.148763
N680	N	0.461016	0.028589	0.482097
N681	N	0.794349	0.361923	0.815430
H682	H	0.105679	-0.322916	0.127545
H683	H	0.439012	0.010418	0.460878
H684	H	0.772346	0.343751	0.794211
H685	H	0.147140	-0.325564	0.169996
H686	H	0.480474	0.007769	0.503329
H687	H	0.813807	0.341103	0.836662
