data_functionalizedCrystal
_audit_creation_method	'MofGen! by Chris Wilmer'
_symmetry_space_group_name_H-M	'P1'
_symmetry_Int_Tables_number	1
_symmetry_cell_setting	triclinic
loop_
_symmetry_equiv_pos_as_xyz
  x,y,z
_cell_length_a	10.654545
_cell_length_b	10.654551
_cell_length_c	9.730223
_cell_angle_alpha	90.002638
_cell_angle_beta	90.002833
_cell_angle_gamma	84.484254
loop_
_atom_site_label
_atom_site_type_symbol
_atom_site_fract_x
_atom_site_fract_y
_atom_site_fract_z
O1	O	1.667843	0.176371	0.114270
O2	O	1.302364	0.193183	0.114276
O3	O	1.493506	0.002038	0.114270
O4	O	1.476701	0.367517	0.114276
O5	O	1.493493	0.002033	-0.114310
O6	O	1.302352	0.193178	-0.114304
O7	O	1.667831	0.176366	-0.114310
Zn8	Zn	1.485089	0.184771	-0.150599
Zn9	Zn	1.485106	0.184778	0.150565
O10	O	1.476689	0.367511	-0.114304
C11	C	1.255560	0.191948	-0.000014
C12	C	1.116116	0.188258	-0.000012
C13	C	1.050605	0.186518	-0.124611
C14	C	0.919585	0.183031	-0.124611
C15	C	0.919599	0.183028	0.124599
C16	C	1.050618	0.186506	0.124598
C17	C	1.492265	-0.044762	-0.000018
C18	C	1.488573	-0.184205	-0.000011
C19	C	1.486847	-0.249706	0.124589
C20	C	1.483367	-0.380727	0.124590
C21	C	1.483345	-0.380734	-0.124620
C22	C	1.486816	-0.249715	-0.124620
C23	C	1.714635	0.177602	-0.000017
C24	C	1.854079	0.181292	-0.000010
C25	C	1.477929	0.414312	-0.000013
C26	C	1.481622	0.553755	-0.000010
N27	N	1.485087	0.184766	-0.356135
C28	C	1.569754	0.100163	-0.428064
C29	C	1.569766	0.100163	-0.571947
C30	C	1.400442	0.269381	-0.571960
C31	C	1.400424	0.269373	-0.428080
N32	N	1.485117	0.184774	0.356101
H33	H	0.866254	0.181603	0.226051
H34	H	1.488274	-0.196372	0.226053
C35	C	1.104125	0.079805	-0.337018
C36	C	1.122608	0.188424	-0.261577
H37	H	1.148582	0.080977	-0.421573
H38	H	1.016729	0.077494	-0.354846
H39	H	1.134550	0.007279	-0.285804
H40	H	1.092174	0.260951	-0.312787
H41	H	1.210022	0.190747	-0.243753
C42	C	1.587243	-0.541250	0.269154
C43	C	1.481473	-0.452729	0.261553
H44	H	1.586065	-0.585704	0.353711
H45	H	1.661694	-0.499081	0.263974
H46	H	1.585688	-0.599013	0.194941
H47	H	1.483033	-0.394960	0.335761
H48	H	1.407002	-0.494900	0.266747
C49	C	1.740458	0.074508	-0.733728
C50	C	1.662836	0.007169	-0.651015
H51	H	1.797910	0.017091	-0.782546
H52	H	1.786074	0.127196	-0.677586
H53	H	1.690029	0.124891	-0.797164
H54	H	1.713264	-0.043208	-0.587571
H55	H	1.617216	-0.045541	-0.707162
H56	H	1.331512	0.338268	-0.630552
H57	H	1.103959	0.187920	0.226068
H58	H	0.866252	0.181614	-0.226073
C59	C	1.486456	-0.262874	-0.370965
C60	C	1.488716	-0.177707	-0.261592
H61	H	1.487633	-0.218416	-0.455519
H62	H	1.411999	-0.305034	-0.365782
H63	H	1.558218	-0.322919	-0.365780
H64	H	1.416949	-0.117667	-0.266772
H65	H	1.563181	-0.135526	-0.266778
H66	H	1.481916	-0.434089	-0.226072
H67	H	1.331472	0.338268	-0.369512
C68	C	1.737113	-0.067111	-0.442508
C69	C	1.662802	0.007152	-0.348981
H70	H	1.794550	-0.124540	-0.393685
H71	H	1.782746	-0.014410	-0.498606
H72	H	1.684437	-0.112764	-0.498647
H73	H	1.715478	0.052812	-0.292849
H74	H	1.617166	-0.045556	-0.292860
