data_functionalizedCrystal
_audit_creation_method	'MofGen! by Chris Wilmer'
_symmetry_space_group_name_H-M	'P1'
_symmetry_Int_Tables_number	1
_symmetry_cell_setting	triclinic
loop_
_symmetry_equiv_pos_as_xyz
  x,y,z
_cell_length_a	15.944551
_cell_length_b	14.421503
_cell_length_c	15.944551
_cell_angle_alpha	90.003340
_cell_angle_beta	96.501262
_cell_angle_gamma	90.003141
loop_
_atom_site_label
_atom_site_type_symbol
_atom_site_fract_x
_atom_site_fract_y
_atom_site_fract_z
O1	O	1.114529	0.077017	-0.108320
O2	O	1.364529	0.327017	0.141680
O3	O	1.614529	0.577017	0.391680
O4	O	1.864529	0.827017	0.641680
O5	O	0.869980	0.077040	-0.121677
O6	O	1.119980	0.327040	0.128323
O7	O	1.369980	0.577040	0.378323
O8	O	1.619980	0.827040	0.628323
O9	O	0.998933	0.077020	0.007276
O10	O	1.248933	0.327020	0.257276
O11	O	1.498933	0.577020	0.507276
O12	O	1.748933	0.827020	0.757276
O13	O	0.985576	0.077038	-0.237273
O14	O	1.235576	0.327038	0.012727
O15	O	1.485576	0.577038	0.262727
O16	O	1.735576	0.827038	0.512727
O17	O	0.998911	-0.077204	0.007257
O18	O	1.248911	0.172796	0.257257
O19	O	1.498911	0.422796	0.507257
O20	O	1.748911	0.672796	0.757257
O21	O	0.869958	-0.077183	-0.121696
O22	O	1.119958	0.172817	0.128304
O23	O	1.369958	0.422817	0.378304
O24	O	1.619958	0.672817	0.628304
O25	O	1.114508	-0.077206	-0.108340
O26	O	1.364508	0.172794	0.141660
O27	O	1.614508	0.422794	0.391660
O28	O	1.864508	0.672794	0.641660
Cu29	Cu	0.992231	-0.091277	-0.115020
Cu30	Cu	1.242231	0.158723	0.134980
Cu31	Cu	1.492231	0.408723	0.384980
Cu32	Cu	1.742231	0.658723	0.634980
Cu33	Cu	0.992256	0.091110	-0.114997
Cu34	Cu	1.242256	0.341110	0.135003
Cu35	Cu	1.492256	0.591110	0.385003
Cu36	Cu	1.742256	0.841110	0.635003
O37	O	0.985555	-0.077186	-0.237293
O38	O	1.235555	0.172814	0.012707
O39	O	1.485555	0.422814	0.262707
O40	O	1.735555	0.672814	0.512707
C41	C	0.838675	-0.000069	-0.121132
C42	C	1.088675	0.249931	0.128868
C43	C	1.338675	0.499931	0.378868
C44	C	1.588675	0.749931	0.628868
C45	C	0.745429	-0.000060	-0.119470
C46	C	0.995429	0.249940	0.130530
C47	C	1.245429	0.499940	0.380530
C48	C	1.495429	0.749940	0.630530
C49	C	0.530572	-0.000084	-0.035565
C50	C	0.780572	0.249916	0.214435
C51	C	1.030572	0.499916	0.464435
C52	C	1.280572	0.749916	0.714435
C53	C	0.469563	0.075959	-0.074518
C54	C	0.719563	0.325959	0.175482
C55	C	0.969563	0.575959	0.425482
C56	C	1.219563	0.825959	0.675482
C57	C	0.574703	-0.000071	-0.116462
C58	C	0.824703	0.249929	0.133538
C59	C	1.074703	0.499929	0.383538
C60	C	1.324703	0.749929	0.633538
C61	C	0.469564	-0.076093	-0.074556
C62	C	0.719564	0.173907	0.175444
C63	C	0.969564	0.423907	0.425444
C64	C	1.219564	0.673907	0.675444
C65	C	0.409790	-0.000086	-0.113551
C66	C	0.659790	0.249914	0.136449
C67	C	0.909790	0.499914	0.386449
C68	C	1.159790	0.749914	0.636449
C69	C	0.514922	0.076035	-0.155437
C70	C	0.764922	0.326035	0.094563
C71	C	1.014922	0.576035	0.344563
C72	C	1.264922	0.826035	0.594563
C73	C	0.514929	-0.076086	-0.155464
C74	C	0.764929	0.173914	0.094536
C75	C	1.014929	0.423914	0.344536
C76	C	1.264929	0.673914	0.594536
C77	C	0.453937	-0.000024	-0.194476
C78	C	0.703937	0.249976	0.055524
C79	C	0.953937	0.499976	0.305524
C80	C	1.203937	0.749976	0.555524
C81	C	0.669705	-0.000062	-0.118137
C82	C	0.919705	0.249938	0.131863
C83	C	1.169705	0.499938	0.381863
C84	C	1.419705	0.749938	0.631863
C85	C	0.314789	-0.000089	-0.111883
C86	C	0.564789	0.249911	0.138117
C87	C	0.814789	0.499911	0.388117
C88	C	1.064789	0.749911	0.638117
N89	N	0.992219	-0.219558	-0.115035
N90	N	1.242219	0.030442	0.134965
N91	N	1.492219	0.280442	0.384965
N92	N	1.742219	0.530442	0.634965
C93	C	0.932581	-0.469202	-0.174636
C94	C	1.182581	-0.219202	0.075364
C95	C	1.432581	0.030798	0.325364
C96	C	1.682581	0.280798	0.575364
C97	C	1.008481	-0.531011	-0.190943
C98	C	1.258481	-0.281011	0.059057
C99	C	1.508481	-0.031011	0.309057
C100	C	1.758481	0.218989	0.559057
C101	C	0.992240	-0.408719	-0.115015
C102	C	1.242240	-0.158719	0.134985
C103	C	1.492240	0.091281	0.384985
C104	C	1.742240	0.341281	0.634985
C105	C	0.916359	-0.531005	-0.098727
C106	C	1.166359	-0.281005	0.151273
C107	C	1.416359	-0.031005	0.401273
C108	C	1.666359	0.218995	0.651273
C109	C	0.992253	-0.591441	-0.114997
C110	C	1.242253	-0.341441	0.135003
C111	C	1.492253	-0.091441	0.385003
C112	C	1.742253	0.158559	0.635003
C113	C	1.068178	-0.469167	-0.131360
C114	C	1.318178	-0.219167	0.118640
C115	C	1.568178	0.030833	0.368640
C116	C	1.818178	0.280833	0.618640
C117	C	0.976007	-0.469156	-0.039111
C118	C	1.226007	-0.219156	0.210889
C119	C	1.476007	0.030844	0.460889
C120	C	1.726007	0.280844	0.710889
C121	C	1.051961	-0.530936	-0.055386
C122	C	1.301961	-0.280936	0.194614
C123	C	1.551961	-0.030936	0.444614
C124	C	1.801961	0.219064	0.694614
C125	C	0.992231	-0.303458	-0.115027
C126	C	1.242231	-0.053458	0.134973
C127	C	1.492231	0.196542	0.384973
C128	C	1.742231	0.446542	0.634973
C129	C	0.992270	-0.696700	-0.114985
C130	C	1.242270	-0.446700	0.135015
C131	C	1.492270	-0.196700	0.385015
C132	C	1.742270	0.053300	0.635015
C133	C	1.145813	-0.000096	-0.108885
C134	C	1.395813	0.249904	0.141115
C135	C	1.645813	0.499904	0.391115
C136	C	1.895813	0.749904	0.641115
C137	C	1.239059	-0.000098	-0.110547
C138	C	1.489059	0.249902	0.139453
C139	C	1.739059	0.499902	0.389453
C140	C	1.989059	0.749902	0.639453
C141	C	0.998367	-0.000092	0.038561
C142	C	1.248367	0.249908	0.288561
C143	C	1.498367	0.499908	0.538561
C144	C	1.748367	0.749908	0.788561
C145	C	0.996705	-0.000093	0.131807
C146	C	1.246705	0.249907	0.381807
C147	C	1.496705	0.499907	0.631807
C148	C	1.746705	0.749907	0.881807
N149	N	0.992275	0.219392	-0.114975
N150	N	1.242275	0.469392	0.135025
N151	N	1.492275	0.719392	0.385025
N152	N	1.742275	0.969392	0.635025
C153	C	0.986120	-0.000072	-0.268577
C154	C	1.236120	0.249928	-0.018577
C155	C	1.486120	0.499928	0.231423
C156	C	1.736120	0.749928	0.481423
C157	C	0.987782	-0.000066	-0.361823
C158	C	1.237782	0.249934	-0.111823
C159	C	1.487782	0.499934	0.138177
C160	C	1.737782	0.749934	0.388177
C161	C	0.912801	-0.000072	0.346663
C162	C	1.162801	0.249928	0.596663
C163	C	1.412801	0.499928	0.846663
C164	C	1.662801	0.749928	1.096663
C165	C	0.951753	-0.076117	0.407671
C166	C	1.201753	0.173883	0.657671
C167	C	1.451753	0.423883	0.907671
C168	C	1.701753	0.673883	1.157671
C169	C	0.993698	-0.000085	0.302533
C170	C	1.243698	0.249915	0.552533
C171	C	1.493698	0.499915	0.802533
C172	C	1.743698	0.749915	1.052533
C173	C	0.951793	0.075935	0.407674
C174	C	1.201793	0.325935	0.657674
C175	C	1.451793	0.575935	0.907674
C176	C	1.701793	0.825935	1.157674
C177	C	0.990787	-0.000074	0.467445
C178	C	1.240787	0.249926	0.717445
C179	C	1.490787	0.499926	0.967445
C180	C	1.740787	0.749926	1.217445
C181	C	1.032672	-0.076193	0.362312
C182	C	1.282672	0.173807	0.612312
C183	C	1.532672	0.423807	0.862312
C184	C	1.782672	0.673807	1.112312
C185	C	1.032701	0.075927	0.362308
C186	C	1.282701	0.325927	0.612308
C187	C	1.532701	0.575927	0.862308
C188	C	1.782701	0.825927	1.112308
C189	C	1.071711	-0.000136	0.423298
C190	C	1.321711	0.249864	0.673298
C191	C	1.571711	0.499864	0.923298
C192	C	1.821711	0.749864	1.173298
C193	C	0.995372	-0.000092	0.207530
C194	C	1.245372	0.249908	0.457530
C195	C	1.495372	0.499908	0.707530
C196	C	1.745372	0.749908	0.957530
C197	C	0.989119	-0.000073	0.562446
C198	C	1.239119	0.249927	0.812446
C199	C	1.489119	0.499927	1.062446
C200	C	1.739119	0.749927	1.312446
H201	H	0.563905	0.000005	0.031573
H202	H	0.813905	0.250005	0.281573
H203	H	1.063905	0.500005	0.531573
H204	H	1.313905	0.750005	0.781573
H205	H	1.066897	0.140214	0.342186
H206	H	1.316897	0.390214	0.592186
H207	H	1.566897	0.640214	0.842186
H208	H	1.816897	0.890214	1.092186
H209	H	0.917575	0.140230	0.427758
H210	H	1.167575	0.390230	0.677758
H211	H	1.417575	0.640230	0.927758
H212	H	1.667575	0.890230	1.177758
Br213	Br	1.183726	-0.000212	0.478568
Br214	Br	1.433726	0.249788	0.728568
Br215	Br	1.683726	0.499788	0.978568
Br216	Br	1.933726	0.749788	1.228568
Br217	Br	0.548244	0.183305	-0.212412
Br218	Br	0.798244	0.433305	0.037588
Br219	Br	1.048244	0.683305	0.287588
Br220	Br	1.298244	0.933305	0.537588
Br221	Br	0.436062	0.183108	-0.017481
Br222	Br	0.686062	0.433108	0.232519
Br223	Br	0.936062	0.683108	0.482519
Br224	Br	1.186062	0.933108	0.732519
H225	H	1.022224	-0.558180	-0.255126
H226	H	1.272224	-0.308180	-0.005126
H227	H	1.522224	-0.058180	0.244874
H228	H	1.772224	0.191820	0.494874
Br229	Br	0.548471	-0.183236	-0.212462
Br230	Br	0.798471	0.066764	0.037538
Br231	Br	1.048471	0.316764	0.287538
Br232	Br	1.298471	0.566764	0.537538
H233	H	0.420779	0.000023	-0.261683
H234	H	0.670779	0.250023	-0.011683
H235	H	0.920779	0.500023	0.238317
H236	H	1.170779	0.750023	0.488317
H237	H	0.845652	-0.000141	0.313356
H238	H	1.095652	0.249859	0.563356
H239	H	1.345652	0.499859	0.813356
H240	H	1.595652	0.749859	1.063356
H241	H	0.449469	-0.140379	-0.040333
H242	H	0.699469	0.109621	0.209667
H243	H	0.949469	0.359621	0.459667
H244	H	1.199469	0.609621	0.709667
Br245	Br	0.953064	-0.423832	0.067833
Br246	Br	1.203064	-0.173832	0.317833
Br247	Br	1.453064	0.076168	0.567833
Br248	Br	1.703064	0.326168	0.817833
H249	H	0.882181	-0.442096	-0.225096
H250	H	1.132181	-0.192096	0.024904
H251	H	1.382181	0.057904	0.274904
H252	H	1.632181	0.307904	0.524904
Br253	Br	1.175170	-0.424092	-0.154432
Br254	Br	1.425170	-0.174092	0.095568
Br255	Br	1.675170	0.075908	0.345568
Br256	Br	1.925170	0.325908	0.595568
Br257	Br	1.136147	-0.575839	0.028668
Br258	Br	1.386147	-0.325839	0.278668
Br259	Br	1.636147	-0.075839	0.528668
Br260	Br	1.886147	0.174161	0.778668
H261	H	0.917527	-0.140401	0.427771
H262	H	1.167527	0.109599	0.677771
H263	H	1.417527	0.359599	0.927771
H264	H	1.667527	0.609599	1.177771
Br265	Br	0.809397	-0.576283	-0.075777
Br266	Br	1.059397	-0.326283	0.174223
Br267	Br	1.309397	-0.076283	0.424223
Br268	Br	1.559397	0.173717	0.674223
H269	H	1.066850	-0.140554	0.342314
H270	H	1.316850	0.109446	0.592314
H271	H	1.566850	0.359446	0.842314
H272	H	1.816850	0.609446	1.092314
