data_functionalizedCrystal
_audit_creation_method	'MofGen! by Chris Wilmer'
_symmetry_space_group_name_H-M	'P1'
_symmetry_Int_Tables_number	1
_symmetry_cell_setting	triclinic
loop_
_symmetry_equiv_pos_as_xyz
  x,y,z
_cell_length_a	6.394984
_cell_length_b	10.654550
_cell_length_c	9.730223
_cell_angle_alpha	90.000043
_cell_angle_beta	89.997126
_cell_angle_gamma	94.509859
loop_
_atom_site_label
_atom_site_type_symbol
_atom_site_fract_x
_atom_site_fract_y
_atom_site_fract_z
O1	O	0.293442	-1.670943	-0.114182
O2	O	0.321399	-1.305761	-0.114207
O3	O	0.003431	-1.493539	-0.114190
O4	O	0.611411	-1.483165	-0.114199
O5	O	0.003422	-1.493527	0.114390
O6	O	0.321391	-1.305748	0.114373
O7	O	0.293433	-1.670931	0.114398
Zn8	Zn	0.307411	-1.488337	0.150677
Zn9	Zn	0.307422	-1.488354	-0.150487
O10	O	0.611402	-1.483152	0.114381
C11	C	0.319342	-1.258935	0.000080
C12	C	0.313201	-1.119426	0.000070
C13	C	0.925578	-1.491470	0.000104
C14	C	0.689250	-1.485218	0.000101
C15	C	0.295491	-1.717757	0.000108
C16	C	0.301632	-1.857265	0.000108
N17	N	0.307402	-1.488335	0.356214
N18	N	0.307415	-1.488366	-0.356023
C19	C	0.500415	-1.041921	0.000071
C20	C	0.494632	-0.910839	0.000095
C21	C	0.114403	-0.934780	0.000111
C22	C	0.120188	-1.065860	0.000097
C23	C	0.166665	-1.571513	0.428147
C24	C	0.166666	-1.571526	0.572030
C25	C	0.448158	-1.405179	0.572034
C26	C	0.448145	-1.405161	0.428153
H27	H	0.647082	-0.847739	0.000099
O28	O	0.599925	-1.315432	0.350550
H29	H	0.702268	-1.369891	0.284963
H30	H	0.657578	-1.085531	0.000060
H31	H	0.052060	-1.639237	0.369577
O32	O	-0.081750	-1.149464	0.000108
H33	H	-0.088209	-1.209762	-0.093053
H34	H	0.052063	-1.639256	0.630594
H35	H	0.562752	-1.337461	0.630621
O36	O	-0.093762	-0.876997	0.000127
H37	H	-0.183801	-0.907894	0.093301
