data_functionalizedCrystal
_audit_creation_method	'MofGen! by Chris Wilmer'
_symmetry_space_group_name_H-M	'P1'
_symmetry_Int_Tables_number	1
_symmetry_cell_setting	triclinic
loop_
_symmetry_equiv_pos_as_xyz
  x,y,z
_cell_length_a	15.537862
_cell_length_b	14.185569
_cell_length_c	16.992695
_cell_angle_alpha	104.070102
_cell_angle_beta	68.966328
_cell_angle_gamma	82.122918
loop_
_atom_site_label
_atom_site_type_symbol
_atom_site_fract_x
_atom_site_fract_y
_atom_site_fract_z
O1	O	1.211603	0.083361	-0.226060
O2	O	0.944001	0.083376	-0.137401
O3	O	1.076731	0.083361	-0.295570
O4	O	1.078873	0.083377	-0.067891
O5	O	1.115941	-0.083478	-0.342290
O6	O	0.983211	-0.083463	-0.184121
O7	O	1.250813	-0.083478	-0.272781
Cu8	Cu	1.120592	-0.098704	-0.232717
Cu9	Cu	1.074222	0.098603	-0.177464
O10	O	1.118083	-0.083462	-0.114611
C11	C	0.929206	-0.000041	-0.151484
C12	C	0.826706	-0.000036	-0.123852
C13	C	0.676506	-0.000024	-0.011851
C14	C	0.772821	-0.000029	-0.037824
C15	C	0.784290	-0.000043	-0.183944
C16	C	0.687975	-0.000044	-0.157984
C17	C	0.634090	-0.000033	-0.071937
C18	C	0.645560	-0.000052	-0.218070
C19	C	0.549252	-0.000047	-0.192111
C20	C	0.495360	-0.000033	-0.106067
C21	C	0.537783	-0.000028	-0.045978
C22	C	0.699445	-0.000056	-0.304115
C23	C	0.657029	-0.000065	-0.364201
C24	C	0.560721	-0.000067	-0.338244
C25	C	0.506829	-0.000053	-0.252200
C26	C	0.518298	-0.000073	-0.398333
C27	C	0.421990	-0.000068	-0.372374
C28	C	0.410521	-0.000048	-0.226241
N29	N	1.153213	-0.237479	-0.271581
C30	C	0.945764	-0.605105	-0.024459
C31	C	0.970481	-0.710129	-0.053894
C32	C	1.088042	-0.710104	-0.193921
C33	C	1.063332	-0.605077	-0.164499
C34	C	0.992193	-0.552586	-0.079767
C35	C	1.109760	-0.552558	-0.219807
C36	C	1.085055	-0.447541	-0.190385
C37	C	1.013922	-0.395042	-0.105655
C38	C	0.967488	-0.447568	-0.050344
C39	C	1.180904	-0.605052	-0.304537
C40	C	1.227332	-0.552533	-0.359845
C41	C	1.202623	-0.447514	-0.330425
C42	C	1.131489	-0.395015	-0.245695
C43	C	1.249057	-0.394987	-0.385736
C44	C	1.224352	-0.289970	-0.356314
C45	C	1.106784	-0.289998	-0.216273
C46	C	1.265607	-0.000058	-0.258696
C47	C	1.368105	-0.000057	-0.286326
C48	C	1.093576	-0.000058	-0.347357
C49	C	1.085340	-0.000058	-0.432057
N50	N	1.041607	0.237377	-0.138608
C51	C	1.164799	-0.000063	-0.504917
C52	C	1.157053	-0.000053	-0.584496
C53	C	1.069850	-0.000045	-0.591216
C54	C	0.990385	-0.000036	-0.518347
C55	C	0.998130	-0.000039	-0.438767
C56	C	1.037751	-0.000029	-0.825673
C57	C	1.030013	-0.000029	-0.905262
C58	C	1.196681	-0.000044	-0.971405
C59	C	1.204419	-0.000053	-0.891823
C60	C	1.124953	-0.000039	-0.818959
N61	N	1.061932	-0.000038	-0.672559
N62	N	1.132871	-0.000039	-0.737616
C63	C	1.101237	-0.000041	-0.062824
C64	C	1.109471	-0.000035	0.021878
H65	H	0.562183	-0.000072	-0.468390
O66	O	0.896327	-0.000024	-0.525588
H67	H	0.873833	-0.068018	-0.513490
H68	H	1.306985	-0.437739	-0.454723
O69	O	0.618388	-0.000023	0.080957
H70	H	0.590227	-0.068028	0.077230
H71	H	0.700914	-0.000070	-0.434260
O72	O	0.376237	-0.000091	-0.437180
H73	H	0.381493	0.067897	-0.458169
O74	O	1.304056	-0.609159	-0.451232
H75	H	1.371945	-0.588992	-0.456229
H76	H	1.262160	-0.247209	-0.401351
O77	O	1.164765	-0.766720	-0.285311
H78	H	1.174142	-0.848569	-0.296482
O79	O	0.987264	-0.281772	-0.073920
H80	H	1.050564	-0.254059	-0.073462
O81	O	0.818576	-0.000028	0.026983
H82	H	0.764925	-0.000028	0.091174
H83	H	1.048849	-0.247257	-0.147279
H84	H	1.261377	-0.000054	-1.030737
O85	O	1.258852	-0.000063	-0.497667
H86	H	1.312799	-0.000052	-0.561701
H87	H	0.959002	-0.000039	-0.910730
H88	H	0.828175	-0.000049	-0.254003
H89	H	0.416939	-0.000026	-0.084931
O90	O	0.920402	-0.766781	0.005760
H91	H	0.843032	-0.746649	0.022048
H92	H	0.493909	-0.000032	0.024087
O93	O	1.298472	-0.000062	-0.884571
H94	H	1.289999	0.067933	-0.830842
O95	O	1.242758	-0.000076	-0.663089
H96	H	1.304700	-0.000100	-0.645052
O97	O	0.890758	-0.390938	0.041046
H98	H	0.862621	-0.445099	0.074568
O99	O	0.803325	-0.000076	-0.332128
H100	H	0.810277	0.067917	-0.288391
O101	O	0.869034	-0.548474	0.066932
H102	H	0.840897	-0.602635	0.100454
H103	H	1.201019	-0.690564	-0.328487
H104	H	0.933426	-0.000034	-0.379442
O105	O	0.352388	-0.000047	-0.133436
H106	H	0.352129	0.067958	-0.084334
O107	O	0.952051	-0.000040	-0.747097
H108	H	0.890120	-0.000052	-0.765148
