data_functionalizedCrystal
_audit_creation_method	'MofGen! by Chris Wilmer'
_symmetry_space_group_name_H-M	'P1'
_symmetry_Int_Tables_number	1
_symmetry_cell_setting	triclinic
loop_
_symmetry_equiv_pos_as_xyz
  x,y,z
_cell_length_a	13.262522
_cell_length_b	17.038272
_cell_length_c	12.376457
_cell_angle_alpha	102.103643
_cell_angle_beta	63.170097
_cell_angle_gamma	87.642882
loop_
_atom_site_label
_atom_site_type_symbol
_atom_site_fract_x
_atom_site_fract_y
_atom_site_fract_z
O1	O	1.513944	0.016510	-0.559442
O2	O	1.189435	0.043805	-0.459680
O3	O	1.349759	-0.083568	-0.508959
O4	O	1.353620	0.143884	-0.510163
O5	O	1.309689	-0.051766	-0.308630
O6	O	1.149365	0.075607	-0.259351
O7	O	1.473875	0.048312	-0.359114
Zn8	Zn	1.305258	0.067009	-0.277426
Zn9	Zn	1.358051	0.025109	-0.541367
O10	O	1.313550	0.175686	-0.309835
C11	C	1.127673	0.061101	-0.346688
C12	C	1.003341	0.065249	-0.308465
C13	C	0.923093	0.084535	-0.181302
C14	C	0.806276	0.088425	-0.145379
C15	C	0.769693	0.073036	-0.236616
C16	C	0.849941	0.053756	-0.363782
C17	C	0.966771	0.049859	-0.399708
C18	C	0.813370	0.038360	-0.455023
C19	C	0.893618	0.019080	-0.582188
C20	C	1.010436	0.015184	-0.618108
C21	C	1.047018	0.030573	-0.526871
C22	C	0.696541	0.042258	-0.419097
C23	C	0.740218	0.007581	-0.637503
C24	C	0.857036	0.003691	-0.673425
C25	C	1.326216	-0.096635	-0.407716
C26	C	1.315749	-0.182951	-0.404499
C27	C	1.411848	-0.237445	-0.434041
C28	C	1.402009	-0.318549	-0.431027
C29	C	1.296068	-0.345156	-0.398461
C30	C	1.199962	-0.290656	-0.368921
C31	C	1.209804	-0.209555	-0.371944
C32	C	1.261299	-0.589332	-0.387788
C33	C	1.251463	-0.670439	-0.384764
C34	C	1.453512	-0.698327	-0.446872
C35	C	1.463343	-0.617222	-0.449885
C36	C	1.367239	-0.562730	-0.420351
C37	C	1.286007	-0.428056	-0.395376
C38	C	1.377302	-0.479833	-0.423445
C39	C	1.535636	0.031016	-0.472109
C40	C	1.659970	0.026867	-0.510340
C41	C	1.337094	0.188753	-0.411080
C42	C	1.347563	0.275067	-0.414306
N43	N	1.269236	0.095604	-0.097296
N44	N	1.394082	-0.003493	-0.721500
C45	C	1.477699	-0.069887	0.193614
C46	C	1.502905	-0.089900	0.067527
C47	C	1.444489	-0.043526	0.026315
C48	C	1.360865	0.022866	0.111203
C49	C	1.335663	0.042885	0.237300
C50	C	1.302453	0.069246	0.070001
C51	C	1.218828	0.135637	0.154889
C52	C	1.193630	0.155653	0.280974
C53	C	1.252045	0.109279	0.322186
C54	C	1.327655	0.049226	-0.056097
C55	C	1.185619	0.161998	-0.012410
C56	C	1.160413	0.182011	0.113677
H57	H	0.740947	0.104113	-0.041842
C58	C	1.101646	0.228689	0.374347
N59	N	1.032360	0.283698	0.444674
C60	C	0.699983	-0.009346	-0.737871
N61	N	0.669671	-0.022095	-0.813461
C62	C	1.472211	-0.065549	-0.112384
N63	N	1.493089	-0.082143	-0.216856
H64	H	0.952892	0.097056	-0.107031
C65	C	1.594883	-0.162932	-0.025839
N66	N	1.664162	-0.217946	-0.096163
H67	H	1.075773	-0.000527	-0.721654
H68	H	1.138054	0.199762	-0.045963
C69	C	1.104086	-0.149610	-0.339442
N70	N	1.024456	-0.104461	-0.314963
H71	H	0.922389	-0.012008	-0.776965
H72	H	1.092324	0.236069	0.182808
H73	H	1.498115	-0.215788	-0.460551
H74	H	1.525259	-0.107635	0.227177
H75	H	1.463564	-0.458170	-0.449986
C76	C	1.507723	-0.378487	-0.463506
N77	N	1.587351	-0.423631	-0.487965
H78	H	1.549612	-0.595566	-0.476403
H79	H	1.199748	-0.449728	-0.368858
C80	C	0.608281	0.063475	-0.279217
N81	N	0.541803	0.079461	-0.173852
C82	C	1.134916	-0.699704	-0.348947
N83	N	1.047138	-0.721747	-0.321971
C84	C	1.559222	-0.758275	-0.479369
N85	N	1.638848	-0.803431	-0.503853
C86	C	1.175524	0.026292	-0.566379
N87	N	1.272316	0.023067	-0.596134
C88	C	1.155581	-0.529402	-0.355305
N89	N	1.075949	-0.484259	-0.330841
C90	C	1.224299	0.131276	0.460896
N91	N	1.203396	0.147838	0.565376
H92	H	0.674573	0.076207	-0.207361
H93	H	1.113703	-0.312326	-0.342413
H94	H	1.395742	-0.004830	-0.125202
