data_functionalizedCrystal
_audit_creation_method	'MofGen! by Chris Wilmer'
_symmetry_space_group_name_H-M	'P1'
_symmetry_Int_Tables_number	1
_symmetry_cell_setting	triclinic
loop_
_symmetry_equiv_pos_as_xyz
  x,y,z
_cell_length_a	23.532355
_cell_length_b	19.188925
_cell_length_c	17.666332
_cell_angle_alpha	89.993867
_cell_angle_beta	89.996463
_cell_angle_gamma	82.985024
loop_
_atom_site_label
_atom_site_type_symbol
_atom_site_fract_x
_atom_site_fract_y
_atom_site_fract_z
O1	O	0.755461	0.084585	-0.062845
O2	O	1.255461	0.584585	0.437155
O3	O	0.589619	0.096887	-0.062869
O4	O	1.089619	0.596887	0.437131
O5	O	0.677327	-0.010936	-0.062852
O6	O	1.177327	0.489064	0.437148
O7	O	0.667753	0.192408	-0.062862
O8	O	1.167753	0.692408	0.437138
O9	O	0.677312	-0.010942	0.063045
O10	O	1.177312	0.489058	0.563045
O11	O	0.589604	0.096881	0.063028
O12	O	1.089604	0.596881	0.563028
O13	O	0.755446	0.084580	0.063052
O14	O	1.255446	0.584580	0.563052
Cu15	Cu	0.672523	0.090730	0.074535
Cu16	Cu	1.172523	0.590730	0.574535
Cu17	Cu	0.672541	0.090737	-0.074352
Cu18	Cu	1.172541	0.590737	0.425648
O19	O	0.667737	0.192403	0.063035
O20	O	1.167737	0.692403	0.563035
C21	C	0.677010	-0.036949	0.000096
C22	C	1.177010	0.463051	0.500096
C23	C	0.676081	-0.114451	0.000094
C24	C	1.176081	0.385549	0.500094
C25	C	0.568394	0.096577	0.000076
C26	C	1.068394	0.596577	0.500076
C27	C	0.505174	0.095652	0.000067
C28	C	1.005174	0.595652	0.500067
C29	C	0.721323	-0.676375	0.000082
C30	C	1.221323	-0.176375	0.500082
C31	C	0.722201	-0.603555	0.000089
C32	C	1.222201	-0.103555	0.500089
C33	C	0.670737	-0.558445	0.000081
C34	C	1.170737	-0.058445	0.500081
C35	C	0.618390	-0.586160	0.000086
C36	C	1.118390	-0.086160	0.500086
C37	C	0.617514	-0.658979	0.000086
C38	C	1.117514	-0.158979	0.500086
N39	N	0.633484	-0.437635	-0.042776
N40	N	1.133484	0.062365	0.457224
N41	N	0.634320	-0.368461	-0.042779
N42	N	1.134320	0.131539	0.457221
C43	C	0.673375	-0.339045	0.000081
C44	C	1.173375	0.160955	0.500081
N45	N	0.711570	-0.381418	0.042933
N46	N	1.211570	0.118582	0.542933
N47	N	0.710736	-0.450599	0.042932
N48	N	1.210736	0.049401	0.542932
C49	C	0.671682	-0.479484	0.000081
C50	C	1.171682	0.020516	0.500081
C51	C	0.726670	-0.232378	0.000089
C52	C	1.226670	0.267622	0.500089
C53	C	0.727546	-0.159556	0.000101
C54	C	1.227546	0.340444	0.500101
C55	C	0.623734	-0.142162	0.000090
C56	C	1.123734	0.357838	0.500090
C57	C	0.622859	-0.214983	0.000086
C58	C	1.122859	0.285017	0.500086
C59	C	0.674329	-0.260087	0.000082
C60	C	1.174329	0.239913	0.500082
C61	C	0.113139	0.089840	0.068726
C62	C	0.613139	0.589840	0.568726
C63	C	0.053738	0.088961	0.068729
C64	C	0.553738	0.588961	0.568729
O65	O	0.023011	0.088479	0.127092
O66	O	0.523011	0.588479	0.627092
N67	N	0.024037	0.088528	0.000102
N68	N	0.524037	0.588528	0.500102
C69	C	0.053741	0.088967	-0.068531
C70	C	0.553741	0.588967	0.431469
O71	O	0.023024	0.088517	-0.126903
O72	O	0.523024	0.588517	0.373097
C73	C	0.113142	0.089842	-0.068533
C74	C	0.613142	0.589842	0.431467
C75	C	0.142839	0.090282	0.000097
C76	C	0.642839	0.590282	0.500097
C77	C	0.142837	0.090280	0.137351
C78	C	0.642837	0.590280	0.637351
C79	C	0.202234	0.091160	0.137347
C80	C	0.702234	0.591160	0.637347
C81	C	0.231933	0.091602	0.068719
C82	C	0.731933	0.591602	0.568719
C83	C	0.202236	0.091163	0.000094
C84	C	0.702236	0.591163	0.500094
C85	C	0.142845	0.090276	-0.137166
C86	C	0.642845	0.590276	0.362834
C87	C	0.202250	0.091150	-0.137162
C88	C	0.702250	0.591150	0.362838
C89	C	0.231947	0.091590	-0.068532
C90	C	0.731947	0.591590	0.431468
C91	C	0.291333	0.092485	-0.068537
C92	C	0.791333	0.592485	0.431463
N93	N	0.321034	0.092918	0.000089
N94	N	0.821034	0.592918	0.500089
C95	C	0.291334	0.092476	0.068717
C96	C	0.791334	0.592476	0.568717
C97	C	-0.071004	0.087129	-0.068521
C98	C	0.428996	0.587129	0.431479
C99	C	-0.130405	0.086260	-0.068520
C100	C	0.369595	0.586260	0.431480
C101	C	-0.130403	0.086252	0.068740
C102	C	0.369597	0.586252	0.568740
C103	C	-0.071003	0.087127	0.068738
C104	C	0.428997	0.587127	0.568738
C105	C	-0.041303	0.087562	0.000105
C106	C	0.458697	0.587562	0.500105
C107	C	0.416072	0.094327	0.068705
C108	C	0.916072	0.594327	0.568705
C109	C	0.475474	0.095211	0.068695
C110	C	0.975474	0.595211	0.568695
C111	C	0.475468	0.095214	-0.068564
C112	C	0.975468	0.595214	0.431436
C113	C	0.416071	0.094334	-0.068555
C114	C	0.916071	0.594334	0.431445
C115	C	0.386375	0.093888	0.000086
C116	C	0.886375	0.593888	0.500086
O117	O	0.322097	0.092964	-0.126871
O118	O	0.822097	0.592964	0.373129
O119	O	0.322060	0.092917	0.127079
O120	O	0.822060	0.592917	0.627079
C121	C	0.776670	0.084890	0.000105
C122	C	1.276670	0.584890	0.500105
C123	C	0.839891	0.085814	0.000109
C124	C	1.339891	0.585814	0.500109
C125	C	0.668054	0.218416	0.000085
C126	C	1.168054	0.718416	0.500085
C127	C	0.668984	0.295917	0.000082
C128	C	1.168984	0.795917	0.500082
N129	N	0.672515	0.090725	0.179255
N130	N	1.172515	0.590725	0.679255
N131	N	0.672555	0.090736	-0.179072
N132	N	1.172555	0.590736	0.320928
C133	C	0.711364	0.043004	0.218872
C134	C	1.211364	0.543004	0.718872
C135	C	0.711368	0.043001	0.298119
C136	C	1.211368	0.543001	0.798119
C137	C	0.672527	0.090730	0.337747
C138	C	1.172527	0.590730	0.837747
C139	C	0.633670	0.138455	0.298120
C140	C	1.133670	0.638455	0.798120
C141	C	0.633664	0.138452	0.218874
C142	C	1.133664	0.638452	0.718874
N143	N	0.665122	0.152563	0.462162
N144	N	1.165122	0.652563	0.962162
N145	N	0.665131	0.152563	0.537442
N146	N	1.165131	0.652563	1.037442
C147	C	0.672542	0.090740	0.576511
C148	C	1.172542	0.590740	1.076511
N149	N	0.679954	0.028914	0.537455
N150	N	1.179954	0.528914	1.037455
N151	N	0.679948	0.028914	0.462168
N152	N	1.179948	0.528914	0.962168
C153	C	0.672529	0.090738	0.423676
C154	C	1.172529	0.590738	0.923676
C155	C	0.711397	0.043011	0.702057
C156	C	1.211397	0.543011	1.202057
C157	C	0.711397	0.043007	0.781306
C158	C	1.211397	0.543007	1.281306
C159	C	0.633701	0.138467	0.781305
C160	C	1.133701	0.638467	1.281305
C161	C	0.633699	0.138465	0.702058
C162	C	1.133699	0.638465	1.202058
C163	C	0.672550	0.090738	0.662439
C164	C	1.172550	0.590738	1.162439
H165	H	0.764824	-0.580991	0.000088
H166	H	1.264824	-0.080991	0.500088
O167	O	0.572031	-0.241936	0.000209
O168	O	1.072031	0.258064	0.500209
C169	C	0.510803	-0.314099	0.065396
C170	C	1.010803	0.185901	0.565396
C171	C	0.568382	-0.283608	0.065358
C172	C	1.068382	0.216392	0.565358
H173	H	0.507839	-0.347809	0.118056
H174	H	1.007839	0.152191	0.618056
H175	H	0.474145	-0.269380	0.065439
H176	H	0.974145	0.230620	0.565439
H177	H	0.507813	-0.347721	0.012683
H178	H	1.007813	0.152279	0.512683
H179	H	0.571427	-0.249994	0.118063
H180	H	1.071427	0.250006	0.618063
H181	H	0.605012	-0.328360	0.065276
H182	H	1.105012	0.171640	0.565276
O183	O	0.573726	-0.098378	0.000217
O184	O	1.073726	0.401622	0.500217
C185	C	0.485247	-0.061264	0.065410
C186	C	0.985247	0.438736	0.565410
C187	C	0.541867	-0.110882	0.065365
C188	C	1.041867	0.389118	0.565365
H189	H	0.459468	-0.071366	0.118069
H190	H	0.959468	0.428634	0.618069
H191	H	0.494830	-0.004444	0.065460
H192	H	0.994830	0.495556	0.565460
H193	H	0.459507	-0.071282	0.012696
H194	H	0.959507	0.428718	0.512696
H195	H	0.567634	-0.100927	0.118070
H196	H	1.067634	0.399073	0.618070
H197	H	0.532243	-0.167685	0.065275
H198	H	1.032243	0.332315	0.565275
H199	H	0.118676	0.089917	-0.193052
H200	H	0.618676	0.589917	0.306948
O201	O	0.504237	0.095603	0.135434
O202	O	1.004237	0.595603	0.635434
C203	C	0.497954	0.095544	0.271577
C204	C	0.997954	0.595544	0.771577
C205	C	0.465314	0.095084	0.196054
C206	C	0.965314	0.595084	0.696054
H207	H	0.466497	0.095139	0.320607
H208	H	0.966497	0.595139	0.820607
H209	H	0.531089	0.047075	0.275063
H210	H	1.031089	0.547075	0.775063
H211	H	0.520439	0.144814	0.274966
H212	H	1.020439	0.644814	0.774966
H213	H	0.442794	0.045846	0.192614
H214	H	0.942794	0.545846	0.692614
H215	H	0.432211	0.143586	0.192599
H216	H	0.932211	0.643586	0.692599
O217	O	0.749220	-0.003237	0.663557
O218	O	1.249220	0.496763	1.163557
C219	C	0.827062	-0.018530	0.574121
C220	C	1.327062	0.481470	1.074121
C221	C	0.784248	0.033909	0.617669
C222	C	1.284248	0.533909	1.117669
H223	H	0.855386	0.011482	0.536998
H224	H	1.355386	0.511482	1.036998
H225	H	0.854866	-0.052604	0.616048
H226	H	1.354866	0.447396	1.116048
H227	H	0.802600	-0.053298	0.537037
H228	H	1.302600	0.446702	1.037037
H229	H	0.808665	0.068722	0.654754
H230	H	1.308665	0.568722	1.154754
H231	H	0.756445	0.067934	0.575701
H232	H	1.256445	0.567934	1.075701
O233	O	0.595892	0.184764	0.819755
O234	O	1.095892	0.684764	1.319755
C235	C	0.496764	0.226344	0.843977
C236	C	0.996764	0.726344	1.343977
C237	C	0.539524	0.173864	0.800395
C238	C	1.039524	0.673864	1.300395
H239	H	0.451182	0.217560	0.828329
H240	H	0.951182	0.717560	1.328329
H241	H	0.503390	0.218150	0.907431
H242	H	1.003390	0.718150	1.407431
H243	H	0.504071	0.282213	0.828394
H244	H	1.004071	0.782213	1.328394
H245	H	0.532243	0.117974	0.815915
H246	H	1.032243	0.617974	1.315915
H247	H	0.532888	0.182119	0.736951
H248	H	1.032888	0.682119	1.236951
H249	H	0.602066	0.177327	0.669799
H250	H	1.102066	0.677327	1.169799
H251	H	0.391900	0.093970	0.124598
H252	H	0.891900	0.593970	0.624598
H253	H	0.763234	-0.713095	0.000082
H254	H	1.263234	-0.213095	0.500082
O255	O	0.230994	0.091549	0.204083
O256	O	0.730994	0.591549	0.704083
C257	C	0.224699	0.091484	0.340225
C258	C	0.724699	0.591484	0.840225
C259	C	0.192065	0.091030	0.264697
C260	C	0.692065	0.591030	0.764697
H261	H	0.193238	0.091080	0.389250
H262	H	0.693238	0.591080	0.889250
H263	H	0.257832	0.043012	0.343713
H264	H	0.757832	0.543012	0.843713
H265	H	0.247188	0.140751	0.343620
H266	H	0.747188	0.640751	0.843620
H267	H	0.169542	0.041796	0.261250
H268	H	0.669542	0.541796	0.761250
H269	H	0.158965	0.139535	0.261240
H270	H	0.658965	0.639535	0.761240
O271	O	0.113982	0.089725	0.204003
O272	O	0.613982	0.589725	0.704003
C273	C	0.053509	0.028263	0.283676
C274	C	0.553509	0.528263	0.783676
C275	C	0.086166	0.028789	0.208166
C276	C	0.586166	0.528789	0.708166
H277	H	0.031002	-0.020991	0.287060
H278	H	0.531002	0.479009	0.787060
H279	H	0.084929	0.028681	0.332744
H280	H	0.584929	0.528681	0.832744
H281	H	0.020386	0.076747	0.287104
H282	H	0.520386	0.576747	0.787104
H283	H	0.119289	-0.019685	0.204665
H284	H	0.619289	0.480315	0.704665
H285	H	0.054711	0.028409	0.159135
H286	H	0.554711	0.528409	0.659135
O287	O	0.387169	0.093819	-0.135174
O288	O	0.887169	0.593819	0.364826
C289	C	0.326757	0.032305	-0.214857
C290	C	0.826757	0.532305	0.285143
C291	C	0.359443	0.032816	-0.139375
C292	C	0.859443	0.532816	0.360625
H293	H	0.304342	-0.017019	-0.218285
H294	H	0.804342	0.482981	0.281715
H295	H	0.293569	0.080725	-0.218305
H296	H	0.793569	0.580725	0.281695
H297	H	0.358199	0.032810	-0.263892
H298	H	0.858199	0.532810	0.236108
H299	H	0.328044	0.032287	-0.090297
H300	H	0.828044	0.532287	0.409703
H301	H	0.392639	-0.015600	-0.135993
H302	H	0.892639	0.484400	0.364007
H303	H	-0.046827	0.087486	0.124623
H304	H	0.453173	0.587486	0.624623
O305	O	0.231060	0.091702	-0.203854
O306	O	0.731060	0.591702	0.296146
C307	C	0.242597	0.152451	-0.321194
C308	C	0.742597	0.652451	0.178806
C309	C	0.209935	0.151918	-0.245689
C310	C	0.709935	0.651918	0.254311
H311	H	0.225522	0.201123	-0.355046
H312	H	0.725522	0.701123	0.144954
H313	H	0.290155	0.153201	-0.309457
H314	H	0.790155	0.653201	0.190543
H315	H	0.236267	0.103387	-0.355001
H316	H	0.736267	0.603387	0.144999
H317	H	0.216218	0.200972	-0.211844
H318	H	0.716218	0.700972	0.288156
H319	H	0.162389	0.151131	-0.257479
H320	H	0.662389	0.651131	0.242521
H321	H	-0.154595	0.085891	0.124621
H322	H	0.345405	0.585891	0.624621
O323	O	0.504270	0.095551	-0.135276
O324	O	1.004270	0.595551	0.364724
C325	C	0.529094	0.035302	-0.252562
C326	C	1.029094	0.535302	0.247438
C327	C	0.496438	0.034846	-0.177046
C328	C	0.996438	0.534846	0.322954
H329	H	0.522783	-0.013780	-0.286348
H330	H	1.022783	0.486220	0.213652
H331	H	0.512070	0.083965	-0.286464
H332	H	1.012070	0.583965	0.213536
H333	H	0.576643	0.036038	-0.240753
H334	H	1.076643	0.536038	0.259247
H335	H	0.448884	0.034084	-0.188786
H336	H	0.948884	0.534084	0.311214
H337	H	0.513508	-0.013812	-0.143167
H338	H	1.013508	0.486188	0.356833
H339	H	-0.046828	0.087490	-0.124414
H340	H	0.453172	0.587490	0.375586
O341	O	0.778342	-0.132523	0.000132
O342	O	1.278342	0.367477	0.500132
C343	C	0.825700	-0.028051	0.000086
C344	C	1.325700	0.471949	0.500086
C345	C	0.768134	-0.058573	0.000070
C346	C	1.268134	0.441427	0.500070
H347	H	0.817467	0.031741	0.000019
H348	H	1.317467	0.531741	0.500019
H349	H	0.851133	-0.046614	0.052783
H350	H	1.351133	0.453386	0.552783
H351	H	0.851122	-0.046693	-0.052592
H352	H	1.351122	0.453307	0.447408
H353	H	0.742666	-0.039945	0.052712
H354	H	1.242666	0.460055	0.552712
H355	H	0.742744	-0.040014	-0.052662
H356	H	1.242744	0.459986	0.447338
H357	H	-0.154580	0.085913	-0.124406
H358	H	0.345420	0.585913	0.375594
H359	H	0.742998	0.004140	0.186616
H360	H	1.242998	0.504140	0.686616
O361	O	0.595982	0.184910	0.180421
O362	O	1.095982	0.684910	0.680421
C363	C	0.562278	0.306533	0.156200
C364	C	1.062278	0.806533	0.656200
C365	C	0.604992	0.253994	0.199782
C366	C	1.104992	0.753994	0.699782
H367	H	0.569539	0.362399	0.171850
H368	H	1.069539	0.862399	0.671850
H369	H	0.568946	0.298397	0.092745
H370	H	1.068946	0.798397	0.592745
H371	H	0.516693	0.297692	0.171780
H372	H	1.016693	0.797692	0.671780
H373	H	0.650593	0.262803	0.184266
H374	H	1.150593	0.762803	0.684266
H375	H	0.598273	0.262143	0.263226
H376	H	1.098273	0.762143	0.763226
O377	O	0.749193	-0.003377	0.819676
O378	O	1.249193	0.496623	1.319676
C379	C	0.826242	-0.098075	0.811310
C380	C	1.326242	0.401925	1.311310
C381	C	0.783476	-0.045573	0.767762
C382	C	1.283476	0.454427	1.267762
H383	H	0.853962	-0.132213	0.769357
H384	H	1.353962	0.367787	1.269357
H385	H	0.854652	-0.068143	0.848381
H386	H	1.354652	0.431857	1.348381
H387	H	0.801739	-0.132770	0.848442
H388	H	1.301739	0.367230	1.348442
H389	H	0.807932	-0.010864	0.730590
H390	H	1.307932	0.489136	1.230590
H391	H	0.755066	-0.075548	0.730739
H392	H	1.255066	0.424452	1.230739
H393	H	0.602044	0.177316	0.330388
H394	H	1.102044	0.677316	0.830388
O395	O	0.568361	-0.542413	-0.000026
O396	O	1.068361	-0.042413	0.499974
C397	C	0.479925	-0.505231	-0.065282
C398	C	0.979925	-0.005231	0.434718
C399	C	0.536558	-0.554824	-0.065245
C400	C	1.036558	-0.054824	0.434755
H401	H	0.454202	-0.515238	-0.118015
H402	H	0.954202	-0.015238	0.381985
H403	H	0.454112	-0.515268	-0.012632
H404	H	0.954112	-0.015268	0.487368
H405	H	0.489556	-0.448432	-0.065249
H406	H	0.989556	0.051568	0.434751
H407	H	0.526979	-0.611642	-0.065305
H408	H	1.026979	-0.111642	0.434695
H409	H	0.562354	-0.544727	-0.117891
H410	H	1.062354	-0.044727	0.382109
O411	O	0.776717	-0.276097	0.000125
O412	O	1.276717	0.223903	0.500125
C413	C	0.879775	-0.285666	0.000089
C414	C	1.379775	0.214334	0.500089
C415	C	0.823140	-0.236077	0.000067
C416	C	1.323140	0.263923	0.500067
H417	H	0.917323	-0.253330	0.000026
H418	H	1.417323	0.246670	0.500026
H419	H	0.881995	-0.320188	0.052787
H420	H	1.381995	0.179812	0.552787
H421	H	0.881933	-0.320199	-0.052589
H422	H	1.381933	0.179801	0.447411
H423	H	0.820944	-0.201500	0.052709
H424	H	1.320944	0.298500	0.552709
H425	H	0.820944	-0.201603	-0.052665
H426	H	1.320944	0.298397	0.447335
O427	O	0.749083	-0.003453	0.336535
O428	O	1.249083	0.496547	0.836535
C429	C	0.782742	-0.125072	0.360847
C430	C	1.282742	0.374928	0.860847
C431	C	0.740010	-0.072541	0.317282
C432	C	1.240010	0.427459	0.817282
H433	H	0.775414	-0.180941	0.345309
H434	H	1.275414	0.319059	0.845309
H435	H	0.828345	-0.116327	0.345246
H436	H	1.328345	0.383673	0.845246
H437	H	0.776076	-0.116831	0.424287
H438	H	1.276076	0.383169	0.924287
H439	H	0.746624	-0.080750	0.253833
H440	H	1.246624	0.419250	0.753833
H441	H	0.694423	-0.081299	0.332946
H442	H	1.194423	0.418701	0.832946
H443	H	0.574891	-0.681537	0.000088
H444	H	1.074891	-0.181537	0.500088
