data_functionalizedCrystal
_audit_creation_method	'MofGen! by Chris Wilmer'
_symmetry_space_group_name_H-M	'P1'
_symmetry_Int_Tables_number	1
_symmetry_cell_setting	triclinic
loop_
_symmetry_equiv_pos_as_xyz
  x,y,z
_cell_length_a	10.723024
_cell_length_b	14.044220
_cell_length_c	9.198806
_cell_angle_alpha	89.995861
_cell_angle_beta	89.996352
_cell_angle_gamma	88.828373
loop_
_atom_site_label
_atom_site_type_symbol
_atom_site_fract_x
_atom_site_fract_y
_atom_site_fract_z
O1	O	1.670498	0.133040	-0.120888
O2	O	1.308620	0.145774	-0.120893
O3	O	1.484127	0.001387	-0.120876
O4	O	1.494991	0.277427	-0.120905
O5	O	1.484112	0.001387	0.120909
O6	O	1.308604	0.145774	0.120892
O7	O	1.670483	0.133039	0.120898
Cu8	Cu	1.489542	0.139407	0.142972
Cu9	Cu	1.489560	0.139407	-0.142967
O10	O	1.494975	0.277427	0.120881
C11	C	1.262020	0.144847	-0.000001
C12	C	1.123188	0.142075	-0.000003
C13	C	1.056288	0.222866	-0.000012
C14	C	0.912798	0.220002	-0.000013
C15	C	1.479364	-0.033958	0.000017
C16	C	1.465180	-0.139276	0.000019
C17	C	1.439248	-0.332106	-0.000003
C18	C	1.539849	-0.389085	-0.000006
C19	C	1.525420	-0.496383	-0.000017
C20	C	1.453675	-0.224799	0.000009
C21	C	1.717083	0.133966	0.000002
C22	C	1.855914	0.136739	-0.000006
C23	C	1.499738	0.312772	-0.000016
C24	C	1.513923	0.418090	-0.000027
N25	N	1.489539	0.139406	0.344086
N26	N	1.489573	0.139401	-0.344081
C27	C	1.563202	0.078514	0.416290
C28	C	1.563221	0.078511	0.583702
H29	H	0.913420	0.067571	-0.000007
Cl30	Cl	1.047617	0.032005	0.000019
H31	H	1.342291	-0.363906	-0.000008
Cl32	Cl	1.660250	-0.002187	0.320389
Cl33	Cl	1.660603	-0.001975	0.679562
Cl34	Cl	1.689556	-0.339991	0.000012
Cl35	Cl	1.392179	0.219888	0.439987
Cl36	Cl	1.131859	0.332936	-0.000019
Cl37	Cl	0.824010	0.326792	-0.000037
Cl38	Cl	1.392202	0.219899	0.560068
