data_functionalizedCrystal
_audit_creation_method	'MofGen! by Chris Wilmer'
_symmetry_space_group_name_H-M	'P1'
_symmetry_Int_Tables_number	1
_symmetry_cell_setting	triclinic
loop_
_symmetry_equiv_pos_as_xyz
  x,y,z
_cell_length_a	10.654549
_cell_length_b	9.798715
_cell_length_c	10.654550
_cell_angle_alpha	89.996755
_cell_angle_beta	95.515146
_cell_angle_gamma	90.002689
loop_
_atom_site_label
_atom_site_type_symbol
_atom_site_fract_x
_atom_site_fract_y
_atom_site_fract_z
O1	O	1.667840	0.113459	-0.176394
O2	O	2.167840	0.613459	0.323606
O3	O	1.302362	0.113469	-0.193201
O4	O	1.802362	0.613469	0.306799
O5	O	1.493504	0.113455	-0.002058
O6	O	1.993504	0.613455	0.497942
O7	O	1.476698	0.113473	-0.367537
O8	O	1.976698	0.613473	0.132463
O9	O	1.493490	-0.113527	-0.002057
O10	O	1.993490	0.386473	0.497943
O11	O	1.302347	-0.113513	-0.193200
O12	O	1.802347	0.386487	0.306800
O13	O	1.667826	-0.113523	-0.176393
O14	O	2.167826	0.386477	0.323607
Zn15	Zn	1.485084	-0.149556	-0.184796
Zn16	Zn	1.985084	0.350444	0.315204
Zn17	Zn	1.485103	0.149502	-0.184798
Zn18	Zn	1.985103	0.649502	0.315202
O19	O	1.476684	-0.113509	-0.367536
O20	O	1.976684	0.386491	0.132464
C21	C	1.255557	-0.000021	-0.191966
C22	C	1.755557	0.499979	0.308034
C23	C	1.116113	-0.000018	-0.188275
C24	C	1.616113	0.499982	0.311725
N25	N	1.485081	-0.353656	-0.184794
N26	N	1.985081	0.146344	0.315206
C27	C	0.905599	-0.000018	-0.297338
C28	C	1.405599	0.499982	0.202662
C29	C	1.036619	-0.000010	-0.300816
C30	C	1.536619	0.499990	0.199184
C31	C	1.064581	-0.000020	-0.072247
C32	C	1.564581	0.499980	0.427753
C33	C	0.933563	-0.000019	-0.068770
C34	C	1.433563	0.499981	0.431230
C35	C	1.558323	-0.421432	-0.257630
C36	C	2.058323	0.078568	0.242370
C37	C	1.558343	-0.578595	-0.257629
C38	C	2.058343	-0.078595	0.242371
C39	C	1.714631	-0.000030	-0.177628
C40	C	2.214631	0.499970	0.322372
C41	C	1.854074	-0.000025	-0.181319
C42	C	2.354074	0.499975	0.318681
C43	C	1.492263	-0.000035	0.044740
C44	C	1.992263	0.499965	0.544740
C45	C	1.488571	-0.000033	0.184183
C46	C	1.988571	0.499967	0.684183
N47	N	1.485117	0.353602	-0.184790
N48	N	1.985117	0.853602	0.315210
C49	C	1.477925	-0.000016	-0.414334
C50	C	1.977925	0.499984	0.085666
C51	C	1.481617	-0.000009	-0.553777
C52	C	1.981617	0.499991	-0.053777
C53	C	1.601113	-0.000035	0.263669
C54	C	2.101113	0.499965	0.763669
C55	C	1.597636	-0.000019	0.394690
C56	C	2.097636	0.499981	0.894690
C57	C	1.369067	-0.000003	0.366727
C58	C	1.869067	0.499997	0.866727
C59	C	1.372544	-0.000010	0.235708
C60	C	1.872544	0.499990	0.735708
H61	H	0.840882	-0.000022	-0.388983
H62	H	1.340882	0.499978	0.111017
H63	H	1.695589	-0.000051	0.221722
H64	H	2.195589	0.499949	0.721722
H65	H	1.280894	-0.000004	0.170987
H66	H	1.780894	0.499996	0.670987
H67	H	1.078563	-0.000003	-0.395290
H68	H	1.578563	0.499997	0.104710
H69	H	1.689279	-0.000018	0.459403
H70	H	2.189279	0.499982	0.959403
H71	H	1.621019	-0.363106	-0.319984
H72	H	2.121019	0.136894	0.180016
H73	H	1.274601	0.000014	0.408694
H74	H	1.774601	0.500014	0.908694
C75	C	1.228163	0.116647	0.056437
C76	C	1.728163	0.616647	0.556437
C77	C	1.151963	-0.000029	0.051460
C78	C	1.651963	0.499971	0.551460
H79	H	1.282112	0.116631	0.132807
H80	H	1.782112	0.616631	0.632807
H81	H	1.176477	0.195788	0.053053
H82	H	1.676477	0.695788	0.553053
H83	H	1.277594	0.116634	-0.013166
H84	H	1.777594	0.616634	0.486834
H85	H	1.102526	-0.000011	0.121058
H86	H	1.602526	0.499989	0.621058
H87	H	1.203655	-0.079191	0.054857
H88	H	1.703655	0.420809	0.554857
H89	H	0.891613	-0.000020	0.025712
H90	H	1.391613	0.499980	0.525712
H91	H	1.621042	-0.636881	-0.319993
H92	H	2.121042	-0.136881	0.180007
H93	H	1.422402	-0.588121	-0.122435
H94	H	1.922402	-0.088121	0.377565
H95	H	1.422393	-0.411983	-0.122432
H96	H	1.922393	0.088017	0.377568
