data_functionalizedCrystal
_audit_creation_method	'MofGen! by Chris Wilmer'
_symmetry_space_group_name_H-M	'P1'
_symmetry_Int_Tables_number	1
_symmetry_cell_setting	triclinic
loop_
_symmetry_equiv_pos_as_xyz
  x,y,z
_cell_length_a	19.077115
_cell_length_b	29.839131
_cell_length_c	19.076919
_cell_angle_alpha	87.728385
_cell_angle_beta	89.923103
_cell_angle_gamma	87.738067
loop_
_atom_site_label
_atom_site_type_symbol
_atom_site_fract_x
_atom_site_fract_y
_atom_site_fract_z
Zn1	Zn	1.058167	-0.217337	0.440404
Zn2	Zn	1.308167	0.032663	0.690404
Zn3	Zn	1.558167	0.282663	0.940404
Zn4	Zn	1.808167	0.532663	1.190404
Zn5	Zn	1.062773	-0.289570	0.322897
Zn6	Zn	1.312773	-0.039570	0.572897
Zn7	Zn	1.562773	0.210430	0.822897
Zn8	Zn	1.812773	0.460430	1.072897
Zn9	Zn	0.945388	-0.211319	0.318199
Zn10	Zn	1.195388	0.038681	0.568199
Zn11	Zn	1.445388	0.288681	0.818199
Zn12	Zn	1.695388	0.538681	1.068199
Zn13	Zn	0.940595	-0.289299	0.435651
Zn14	Zn	1.190595	-0.039299	0.685651
Zn15	Zn	1.440595	0.210701	0.935651
Zn16	Zn	1.690595	0.460701	1.185651
O17	O	1.001731	-0.251881	0.379288
O18	O	1.251731	-0.001881	0.629288
O19	O	1.501731	0.248119	0.879288
O20	O	1.751731	0.498119	1.129288
O21	O	1.157109	-0.229551	0.428772
O22	O	1.407109	0.020449	0.678772
O23	O	1.657109	0.270449	0.928772
O24	O	1.907109	0.520449	1.178772
O25	O	1.051135	-0.276785	0.223943
O26	O	1.301135	-0.026785	0.473943
O27	O	1.551135	0.223215	0.723943
O28	O	1.801135	0.473215	0.973943
O29	O	0.960427	-0.149253	0.334433
O30	O	1.210427	0.100747	0.584433
O31	O	1.460427	0.350747	0.834433
O32	O	1.710427	0.600747	1.084433
O33	O	1.160493	-0.282620	0.342440
O34	O	1.410493	-0.032620	0.592440
O35	O	1.660493	0.217380	0.842440
O36	O	1.910493	0.467380	1.092440
O37	O	1.043285	-0.153674	0.424217
O38	O	1.293285	0.096326	0.674217
O39	O	1.543285	0.346326	0.924217
O40	O	1.793285	0.596326	1.174217
O41	O	0.964893	-0.219294	0.220491
O42	O	1.214893	0.030706	0.470491
O43	O	1.464893	0.280706	0.720491
O44	O	1.714893	0.530706	0.970491
O45	O	0.846422	-0.219031	0.329824
O46	O	1.096422	0.030969	0.579824
O47	O	1.346422	0.280969	0.829824
O48	O	1.596422	0.530969	1.079824
O49	O	0.952258	-0.282158	0.534613
O50	O	1.202258	-0.032158	0.784613
O51	O	1.452258	0.217842	1.034613
O52	O	1.702258	0.467842	1.284613
O53	O	0.842900	-0.276323	0.416116
O54	O	1.092900	-0.026323	0.666116
O55	O	1.342900	0.223677	0.916116
O56	O	1.592900	0.473677	1.166116
O57	O	1.038638	-0.229288	0.538105
O58	O	1.288638	0.020712	0.788105
O59	O	1.538638	0.270712	1.038105
O60	O	1.788638	0.520712	1.288105
O61	O	1.046488	-0.352399	0.337831
O62	O	1.296488	-0.102399	0.587831
O63	O	1.546488	0.147601	0.837831
O64	O	1.796488	0.397601	1.087831
O65	O	0.956724	-0.352200	0.420671
O66	O	1.206724	-0.102200	0.670671
O67	O	1.456724	0.147800	0.920671
O68	O	1.706724	0.397800	1.170671
C69	C	0.819165	-0.246995	0.371945
C70	C	1.069165	0.003005	0.621945
C71	C	1.319165	0.253005	0.871945
C72	C	1.569165	0.503005	1.121945
C73	C	0.741062	-0.244916	0.368820
C74	C	0.991062	0.005084	0.618820
C75	C	1.241062	0.255084	0.868820
C76	C	1.491062	0.505084	1.118820
C77	C	0.301618	-0.229984	0.346415
C78	C	0.551618	0.020016	0.596415
C79	C	0.801618	0.270016	0.846415
C80	C	1.051618	0.520016	1.096415
C81	C	0.375004	-0.231940	0.349354
C82	C	0.625004	0.018060	0.599354
C83	C	0.875004	0.268060	0.849354
C84	C	1.125004	0.518060	1.099354
C85	C	0.409883	-0.262793	0.395679
C86	C	0.659883	-0.012793	0.645679
C87	C	0.909883	0.237207	0.895679
C88	C	1.159883	0.487207	1.145679
C89	C	0.371371	-0.291687	0.439071
C90	C	0.621371	-0.041687	0.689071
C91	C	0.871371	0.208313	0.939071
C92	C	1.121371	0.458313	1.189071
C93	C	0.297987	-0.289729	0.436134
C94	C	0.547987	-0.039729	0.686134
C95	C	0.797987	0.210271	0.936134
C96	C	1.047987	0.460271	1.186134
C97	C	0.629166	-0.271852	0.409275
C98	C	0.879166	-0.021852	0.659275
C99	C	1.129166	0.228148	0.909275
C100	C	1.379166	0.478148	1.159275
C101	C	0.702556	-0.273809	0.412207
C102	C	0.952556	-0.023809	0.662207
C103	C	1.202556	0.226191	0.912207
C104	C	1.452556	0.476191	1.162207
C105	C	0.706184	-0.214062	0.322491
C106	C	0.956184	0.035938	0.572491
C107	C	1.206184	0.285938	0.822491
C108	C	1.456184	0.535938	1.072491
C109	C	0.632797	-0.212107	0.319555
C110	C	0.882797	0.037893	0.569555
C111	C	1.132797	0.287893	0.819555
C112	C	1.382797	0.537893	1.069555
C113	C	0.594292	-0.241001	0.362950
C114	C	0.844292	0.008999	0.612950
C115	C	1.094292	0.258999	0.862950
C116	C	1.344292	0.508999	1.112950
N117	N	0.484895	-0.264794	0.398683
N118	N	0.734895	-0.014794	0.648683
N119	N	0.984895	0.235206	0.898683
N120	N	1.234895	0.485206	1.148683
N121	N	0.519281	-0.238997	0.359949
N122	N	0.769281	0.011003	0.609949
N123	N	1.019281	0.261003	0.859949
N124	N	1.269281	0.511003	1.109949
C125	C	1.001604	-0.368600	0.379261
C126	C	1.251604	-0.118600	0.629261
C127	C	1.501604	0.131400	0.879261
C128	C	1.751604	0.381400	1.129261
C129	C	1.001613	-0.418535	0.379276
C130	C	1.251613	-0.168535	0.629276
C131	C	1.501613	0.081465	0.879276
C132	C	1.751613	0.331465	1.129276
C133	C	0.955020	-0.775038	0.422421
C134	C	1.205020	-0.525038	0.672421
C135	C	1.455020	-0.275038	0.922421
C136	C	1.705020	-0.025038	1.172421
C137	C	0.954928	-0.587362	0.422395
C138	C	1.204928	-0.337362	0.672395
C139	C	1.454928	-0.087362	0.922395
C140	C	1.704928	0.162638	1.172395
O141	O	0.915160	-0.563022	0.459059
O142	O	1.165160	-0.313022	0.709059
O143	O	1.415160	-0.063022	0.959059
O144	O	1.665160	0.186978	1.209059
N145	N	1.001686	-0.563983	0.379300
N146	N	1.251686	-0.313983	0.629300
N147	N	1.501686	-0.063983	0.879300
N148	N	1.751686	0.186017	1.129300
C149	C	1.048474	-0.587525	0.336211
C150	C	1.298474	-0.337525	0.586211
C151	C	1.548474	-0.087525	0.836211
C152	C	1.798474	0.162475	1.086211
O153	O	1.088248	-0.563333	0.299561
O154	O	1.338248	-0.313333	0.549561
O155	O	1.588248	-0.063333	0.799561
O156	O	1.838248	0.186667	1.049561
C157	C	1.048569	-0.775201	0.336241
C158	C	1.298569	-0.525201	0.586241
C159	C	1.548569	-0.275201	0.836241
C160	C	1.798569	-0.025201	1.086241
C161	C	1.001803	-0.798577	0.379334
C162	C	1.251803	-0.548577	0.629334
C163	C	1.501803	-0.298577	0.879334
C164	C	1.751803	-0.048577	1.129334
C165	C	0.908258	-0.798415	0.465511
C166	C	1.158258	-0.548415	0.715511
C167	C	1.408258	-0.298415	0.965511
C168	C	1.658258	-0.048415	1.215511
C169	C	0.908279	-0.845331	0.465514
C170	C	1.158279	-0.595331	0.715514
C171	C	1.408279	-0.345331	0.965514
C172	C	1.658279	-0.095331	1.215514
C173	C	0.955062	-0.868870	0.422427
C174	C	1.205062	-0.618870	0.672427
C175	C	1.455062	-0.368870	0.922427
C176	C	1.705062	-0.118870	1.172427
C177	C	1.001824	-0.845493	0.379337
C178	C	1.251824	-0.595493	0.629337
C179	C	1.501824	-0.345493	0.879337
C180	C	1.751824	-0.095493	1.129337
C181	C	1.095360	-0.798742	0.293157
C182	C	1.345360	-0.548742	0.543157
C183	C	1.595360	-0.298742	0.793157
C184	C	1.845360	-0.048742	1.043157
C185	C	1.095381	-0.845664	0.293170
C186	C	1.345381	-0.595664	0.543170
C187	C	1.595381	-0.345664	0.793170
C188	C	1.845381	-0.095664	1.043170
C189	C	1.048614	-0.869041	0.336262
C190	C	1.298614	-0.619041	0.586262
C191	C	1.548614	-0.369041	0.836262
C192	C	1.798614	-0.119041	1.086262
C193	C	1.048628	-0.915949	0.336254
C194	C	1.298628	-0.665949	0.586254
C195	C	1.548628	-0.415949	0.836254
C196	C	1.798628	-0.165949	1.086254
N197	N	1.001869	-0.939328	0.379349
N198	N	1.251869	-0.689328	0.629349
N199	N	1.501869	-0.439328	0.879349
N200	N	1.751869	-0.189328	1.129349
C201	C	0.955086	-0.915789	0.422436
C202	C	1.205086	-0.665789	0.672436
C203	C	1.455086	-0.415789	0.922436
C204	C	1.705086	-0.165789	1.172436
C205	C	1.048420	-0.488993	0.336198
C206	C	1.298420	-0.238993	0.586198
C207	C	1.548420	0.011007	0.836198
C208	C	1.798420	0.261007	1.086198
C209	C	1.048396	-0.442074	0.336189
C210	C	1.298396	-0.192074	0.586189
C211	C	1.548396	0.057926	0.836189
C212	C	1.798396	0.307926	1.086189
C213	C	0.954850	-0.441914	0.422374
C214	C	1.204850	-0.191914	0.672374
C215	C	1.454850	0.058086	0.922374
C216	C	1.704850	0.308086	1.172374
C217	C	0.954872	-0.488834	0.422378
C218	C	1.204872	-0.238834	0.672378
C219	C	1.454872	0.011166	0.922378
C220	C	1.704872	0.261166	1.172378
C221	C	1.001662	-0.512372	0.379293
C222	C	1.251662	-0.262372	0.629293
C223	C	1.501662	-0.012372	0.879293
C224	C	1.751662	0.237628	1.129293
C225	C	0.955133	-1.014316	0.422439
C226	C	1.205133	-0.764316	0.672439
C227	C	1.455133	-0.514316	0.922439
C228	C	1.705133	-0.264316	1.172439
C229	C	0.955156	-1.061236	0.422436
C230	C	1.205156	-0.811236	0.672436
C231	C	1.455156	-0.561236	0.922436
C232	C	1.705156	-0.311236	1.172436
C233	C	1.048704	-1.061392	0.336254
C234	C	1.298704	-0.811392	0.586254
C235	C	1.548704	-0.561392	0.836254
C236	C	1.798704	-0.311392	1.086254
C237	C	1.048679	-1.014476	0.336254
C238	C	1.298679	-0.764476	0.586254
C239	C	1.548679	-0.514476	0.836254
C240	C	1.798679	-0.264476	1.086254
C241	C	1.001891	-0.990939	0.379352
C242	C	1.251891	-0.740939	0.629352
C243	C	1.501891	-0.490939	0.879352
C244	C	1.751891	-0.240939	1.129352
O245	O	1.088380	-0.940318	0.299615
O246	O	1.338380	-0.690318	0.549615
O247	O	1.588380	-0.440318	0.799615
O248	O	1.838380	-0.190318	1.049615
O249	O	0.915329	-0.939989	0.459092
O250	O	1.165329	-0.689989	0.709092
O251	O	1.415329	-0.439989	0.959092
O252	O	1.665329	-0.189989	1.209092
C253	C	0.954999	-0.728122	0.422418
C254	C	1.204999	-0.478122	0.672418
C255	C	1.454999	-0.228122	0.922418
C256	C	1.704999	0.021878	1.172418
C257	C	1.001761	-0.704745	0.379328
C258	C	1.251761	-0.454745	0.629328
C259	C	1.501761	-0.204745	0.879328
C260	C	1.751761	0.045255	1.129328
C261	C	1.048544	-0.728284	0.336241
C262	C	1.298544	-0.478284	0.586241
C263	C	1.548544	-0.228284	0.836241
C264	C	1.798544	0.021716	1.086241
C265	C	1.001737	-0.657827	0.379319
C266	C	1.251737	-0.407827	0.629319
C267	C	1.501737	-0.157827	0.879319
C268	C	1.751737	0.092173	1.129319
C269	C	0.954954	-0.634287	0.422406
C270	C	1.204954	-0.384287	0.672406
C271	C	1.454954	-0.134287	0.922406
C272	C	1.704954	0.115713	1.172406
C273	C	0.908195	-0.657667	0.465501
C274	C	1.158195	-0.407667	0.715501
C275	C	1.408195	-0.157667	0.965501
C276	C	1.658195	0.092333	1.215501
C277	C	0.908216	-0.704583	0.465504
C278	C	1.158216	-0.454583	0.715504
C279	C	1.408216	-0.204583	0.965504
C280	C	1.658216	0.045417	1.215504
C281	C	1.095302	-0.704905	0.293146
C282	C	1.345302	-0.454905	0.543146
C283	C	1.595302	-0.204905	0.793146
C284	C	1.845302	0.045095	1.043146
C285	C	1.095277	-0.657989	0.293146
C286	C	1.345277	-0.407989	0.543146
C287	C	1.595277	-0.157989	0.793146
C288	C	1.845277	0.092011	1.043146
C289	C	1.048494	-0.634450	0.336232
C290	C	1.298494	-0.384450	0.586232
C291	C	1.548494	-0.134450	0.836232
C292	C	1.798494	0.115550	1.086232
C293	C	1.185010	-0.256787	0.386660
C294	C	1.435010	-0.006787	0.636660
C295	C	1.685010	0.243213	0.886660
C296	C	1.935010	0.493213	1.136660
C297	C	1.263112	-0.258878	0.389802
C298	C	1.513112	-0.008878	0.639802
C299	C	1.763112	0.241122	0.889802
C300	C	2.013112	0.491122	1.139802
C301	C	0.994399	-0.256364	0.562568
C302	C	1.244399	-0.006364	0.812568
C303	C	1.494399	0.243636	1.062568
C304	C	1.744399	0.493636	1.312568
C305	C	0.991275	-0.258275	0.640671
C306	C	1.241275	-0.008275	0.890671
C307	C	1.491275	0.241725	1.140671
C308	C	1.741275	0.491725	1.390671
C309	C	1.001877	-0.134708	0.379331
C310	C	1.251877	0.115292	0.629331
C311	C	1.501877	0.365292	0.879331
C312	C	1.751877	0.615292	1.129331
C313	C	1.001939	-0.084775	0.379349
C314	C	1.251939	0.165225	0.629349
C315	C	1.501939	0.415225	0.879349
C316	C	1.751939	0.665225	1.129349
C317	C	1.009074	-0.247384	0.196722
C318	C	1.259074	0.002616	0.446722
C319	C	1.509074	0.252616	0.696722
C320	C	1.759074	0.502616	0.946722
C321	C	1.012335	-0.245351	0.118625
C322	C	1.262335	0.004649	0.368625
C323	C	1.512335	0.254649	0.618625
C324	C	1.762335	0.504649	0.868625
C325	C	1.034778	-0.231647	0.679184
C326	C	1.284778	0.018353	0.929184
C327	C	1.534778	0.268353	1.179184
C328	C	1.784778	0.518353	1.429184
C329	C	1.031834	-0.233440	0.752569
C330	C	1.281834	0.016560	1.002569
C331	C	1.531834	0.266560	1.252569
C332	C	1.781834	0.516560	1.502569
C333	C	0.985390	-0.261864	0.787442
C334	C	1.235390	-0.011864	1.037442
C335	C	1.485390	0.238136	1.287442
C336	C	1.735390	0.488136	1.537442
C337	C	0.941882	-0.288493	0.748924
C338	C	1.191882	-0.038493	0.998924
C339	C	1.441882	0.211507	1.248924
C340	C	1.691882	0.461507	1.498924
C341	C	0.944823	-0.286697	0.675540
C342	C	1.194823	-0.036697	0.925540
C343	C	1.444823	0.213303	1.175540
C344	C	1.694823	0.463303	1.425540
C345	C	0.971768	-0.270184	1.006723
C346	C	1.221768	-0.020184	1.256723
C347	C	1.471768	0.229816	1.506723
C348	C	1.721768	0.479816	1.756723
C349	C	0.968832	-0.271979	1.080113
C350	C	1.218832	-0.021979	1.330113
C351	C	1.468832	0.228021	1.580113
C352	C	1.718832	0.478021	1.830113
C353	C	1.058783	-0.216925	1.083753
C354	C	1.308783	0.033075	1.333753
C355	C	1.558783	0.283075	1.583753
C356	C	1.808783	0.533075	1.833753
C357	C	1.061723	-0.215134	1.010367
C358	C	1.311723	0.034866	1.260367
C359	C	1.561723	0.284866	1.510367
C360	C	1.811723	0.534866	1.760367
C361	C	1.018213	-0.241761	0.971856
C362	C	1.268213	0.008239	1.221856
C363	C	1.518213	0.258239	1.471856
C364	C	1.768213	0.508239	1.721856
N365	N	0.982381	-0.263698	0.862454
N366	N	1.232381	-0.013698	1.112454
N367	N	1.482381	0.236302	1.362454
N368	N	1.732381	0.486302	1.612454
N369	N	1.021219	-0.239924	0.896845
N370	N	1.271219	0.010076	1.146845
N371	N	1.521219	0.260076	1.396845
N372	N	1.771219	0.510076	1.646845
H373	H	0.597823	-0.295380	0.444608
H374	H	0.847823	-0.045380	0.694608
H375	H	1.097823	0.204620	0.944608
H376	H	1.347823	0.454620	1.194608
O377	O	1.145860	-0.871045	0.246699
O378	O	1.395860	-0.621045	0.496699
O379	O	1.645860	-0.371045	0.746699
O380	O	1.895860	-0.121045	0.996699
H381	H	1.180338	-0.894111	0.279626
H382	H	1.430338	-0.644111	0.529626
H383	H	1.680338	-0.394111	0.779626
H384	H	1.930338	-0.144111	1.029626
O385	O	1.145766	-0.730286	0.246667
O386	O	1.395766	-0.480286	0.496667
O387	O	1.645766	-0.230286	0.746667
O388	O	1.895766	0.019714	0.996667
H389	H	1.180250	-0.753355	0.279581
H390	H	1.430250	-0.503355	0.529581
H391	H	1.680250	-0.253355	0.779581
H392	H	1.930250	-0.003355	1.029581
H393	H	0.916757	-0.422741	0.457456
H394	H	1.166757	-0.172741	0.707456
H395	H	1.416757	0.077259	0.957456
H396	H	1.666757	0.327259	1.207456
H397	H	0.406353	-0.208414	0.314020
H398	H	0.656353	0.041586	0.564020
H399	H	0.906353	0.291586	0.814020
H400	H	1.156353	0.541586	1.064020
H401	H	0.904063	-0.311634	0.777323
H402	H	1.154063	-0.061634	1.027323
H403	H	1.404063	0.188366	1.277323
H404	H	1.654063	0.438366	1.527323
O405	O	1.145726	-0.632780	0.246664
O406	O	1.395726	-0.382780	0.496664
O407	O	1.645726	-0.132780	0.746664
O408	O	1.895726	0.117220	0.996664
H409	H	1.180176	-0.613102	0.279587
H410	H	1.430176	-0.363102	0.529587
H411	H	1.680176	-0.113102	0.779587
H412	H	1.930176	0.136898	1.029587
H413	H	0.931009	-0.295126	1.108504
H414	H	1.181009	-0.045126	1.358504
H415	H	1.431009	0.204874	1.608504
H416	H	1.681009	0.454874	1.858504
H417	H	1.067261	-0.211758	0.783923
H418	H	1.317261	0.038242	1.033923
H419	H	1.567261	0.288242	1.283923
H420	H	1.817261	0.538242	1.533923
H421	H	0.917035	-0.995158	0.457534
H422	H	1.167035	-0.745158	0.707534
H423	H	1.417035	-0.495158	0.957534
H424	H	1.667035	-0.245158	1.207534
H425	H	0.737542	-0.190538	0.287162
H426	H	0.987542	0.059462	0.537162
H427	H	1.237542	0.309462	0.787162
H428	H	1.487542	0.559462	1.037162
O429	O	0.904714	-1.086452	0.468915
O430	O	1.154714	-0.836452	0.718915
O431	O	1.404714	-0.586452	0.968915
O432	O	1.654714	-0.336452	1.218915
H433	H	0.914512	-1.079104	0.524557
H434	H	1.164512	-0.829104	0.774557
H435	H	1.414512	-0.579104	1.024557
H436	H	1.664512	-0.329104	1.274557
H437	H	1.086524	-0.508154	0.301110
H438	H	1.336524	-0.258154	0.551110
H439	H	1.586524	-0.008154	0.801110
H440	H	1.836524	0.241846	1.051110
H441	H	1.099545	-0.191990	0.981979
H442	H	1.349545	0.058010	1.231979
H443	H	1.599545	0.308010	1.481979
H444	H	1.849545	0.558010	1.731979
O445	O	0.924844	-0.298894	0.965173
O446	O	1.174844	-0.048894	1.215173
O447	O	1.424844	0.201106	1.465173
O448	O	1.674844	0.451106	1.715173
H449	H	0.890467	-0.276999	0.930318
H450	H	1.140467	-0.026999	1.180318
H451	H	1.390467	0.223001	1.430318
H452	H	1.640467	0.473001	1.680318
O453	O	1.099116	-0.989258	0.289775
O454	O	1.349116	-0.739258	0.539775
O455	O	1.599116	-0.489258	0.789775
O456	O	1.849116	-0.239258	1.039775
H457	H	1.131652	-1.013511	0.259818
H458	H	1.381652	-0.763511	0.509818
H459	H	1.631652	-0.513511	0.759818
H460	H	1.881652	-0.263511	1.009818
H461	H	1.133442	-0.779716	0.258067
H462	H	1.383442	-0.529716	0.508067
H463	H	1.633442	-0.279716	0.758067
H464	H	1.883442	-0.029716	1.008067
O465	O	1.099182	-1.086785	0.289804
O466	O	1.349182	-0.836785	0.539804
O467	O	1.599182	-0.586785	0.789804
O468	O	1.849182	-0.336785	1.039804
H469	H	1.091348	-1.123338	0.297064
H470	H	1.341348	-0.873338	0.547064
H471	H	1.591348	-0.623338	0.797064
H472	H	1.841348	-0.373338	1.047064
O473	O	0.263993	-0.196712	0.296449
O474	O	0.513993	0.053288	0.546449
O475	O	0.763993	0.303288	0.796449
O476	O	1.013993	0.553288	1.046449
H477	H	0.277621	-0.162138	0.309166
H478	H	0.527621	0.087862	0.559166
H479	H	0.777621	0.337862	0.809166
H480	H	1.027621	0.587862	1.059166
O481	O	0.857777	-0.729796	0.511984
O482	O	1.107777	-0.479796	0.761984
O483	O	1.357777	-0.229796	1.011984
O484	O	1.607777	0.020204	1.261984
H485	H	0.867577	-0.722443	0.567624
H486	H	1.117577	-0.472443	0.817624
H487	H	1.367577	-0.222443	1.067624
H488	H	1.617577	0.027557	1.317624
H489	H	0.870100	-0.638493	0.500582
H490	H	1.120100	-0.388493	0.750582
H491	H	1.370100	-0.138493	1.000582
H492	H	1.620100	0.111507	1.250582
O493	O	0.897893	-0.315410	0.633995
O494	O	1.147893	-0.065410	0.883995
O495	O	1.397893	0.184590	1.133995
O496	O	1.647893	0.434590	1.383995
H497	H	0.865103	-0.335477	0.670572
H498	H	1.115103	-0.085477	0.920572
H499	H	1.365103	0.164523	1.170572
H500	H	1.615103	0.414523	1.420572
H501	H	0.604404	-0.186987	0.281828
H502	H	0.854404	0.063013	0.531828
H503	H	1.104404	0.313013	0.781828
H504	H	1.354404	0.563013	1.031828
O505	O	1.084876	-0.200989	0.641578
O506	O	1.334876	0.049011	0.891578
O507	O	1.584876	0.299011	1.141578
O508	O	1.834876	0.549011	1.391578
H509	H	1.121946	-0.221236	0.609584
H510	H	1.371946	0.028764	0.859584
H511	H	1.621946	0.278764	1.109584
H512	H	1.871946	0.528764	1.359584
O513	O	1.105691	-0.188193	1.125287
O514	O	1.355691	0.061807	1.375287
O515	O	1.605691	0.311807	1.625287
O516	O	1.855691	0.561807	1.875287
H517	H	1.095836	-0.194209	1.182174
H518	H	1.345836	0.055791	1.432174
H519	H	1.595836	0.305791	1.682174
H520	H	1.845836	0.555791	1.932174
H521	H	0.399775	-0.316806	0.476792
H522	H	0.649775	-0.066806	0.726792
H523	H	0.899775	0.183194	0.976792
H524	H	1.149775	0.433194	1.226792
O525	O	0.740179	-0.307084	0.462178
O526	O	0.990179	-0.057084	0.712178
O527	O	1.240179	0.192916	0.962178
O528	O	1.490179	0.442916	1.212178
H529	H	0.701076	-0.326843	0.491866
H530	H	0.951076	-0.076843	0.741866
H531	H	1.201076	0.173157	0.991866
H532	H	1.451076	0.423157	1.241866
H533	H	0.266635	-0.313256	0.471467
H534	H	0.516635	-0.063256	0.721467
H535	H	0.766635	0.186744	0.971467
H536	H	1.016635	0.436744	1.221467
H537	H	0.870196	-0.864360	0.500603
H538	H	1.120196	-0.614360	0.750603
H539	H	1.370196	-0.364360	1.000603
H540	H	1.620196	-0.114360	1.250603
H541	H	0.870162	-0.779254	0.500600
H542	H	1.120162	-0.529254	0.750600
H543	H	1.370162	-0.279254	1.000600
H544	H	1.620162	-0.029254	1.250600
H545	H	0.916794	-0.507864	0.457472
H546	H	1.166794	-0.257864	0.707472
H547	H	1.416794	-0.007864	0.957472
H548	H	1.666794	0.242136	1.207472
H549	H	1.086470	-0.423044	0.301091
H550	H	1.336470	-0.173044	0.551091
H551	H	1.586470	0.076956	0.801091
H552	H	1.836470	0.326956	1.051091
