data_functionalizedCrystal
_audit_creation_method	'MofGen! by Chris Wilmer'
_symmetry_space_group_name_H-M	'P1'
_symmetry_Int_Tables_number	1
_symmetry_cell_setting	triclinic
loop_
_symmetry_equiv_pos_as_xyz
  x,y,z
_cell_length_a	15.021413
_cell_length_b	16.992694
_cell_length_c	16.992695
_cell_angle_alpha	89.331777
_cell_angle_beta	89.996007
_cell_angle_gamma	89.997805
loop_
_atom_site_label
_atom_site_type_symbol
_atom_site_fract_x
_atom_site_fract_y
_atom_site_fract_z
O1	O	0.073921	-1.050854	0.166906
O2	O	0.073948	-0.822454	0.165075
O3	O	0.073927	-0.935739	0.051791
O4	O	0.073941	-0.937570	0.280191
O5	O	-0.074137	-0.935721	0.051807
O6	O	-0.074117	-0.822436	0.165091
O7	O	-0.074143	-1.050836	0.166922
Zn8	Zn	-0.097638	-0.936633	0.166009
Zn9	Zn	0.097443	-0.936657	0.165988
O10	O	-0.074123	-0.937552	0.280207
C11	C	-0.000081	-0.793085	0.162727
C12	C	-0.000071	-0.705600	0.155699
N13	N	-0.230776	-0.936623	0.166024
C14	C	-0.000104	-0.933374	0.022439
C15	C	-0.000103	-0.926345	-0.065046
C16	C	-0.470450	-0.884230	0.218380
C17	C	-0.529791	-0.956318	0.238115
C18	C	-0.412383	-0.936642	0.166005
C19	C	-0.529783	-0.864574	0.146288
C20	C	-0.587807	-0.936654	0.165989
C21	C	-0.470418	-1.008768	0.185779
C22	C	-0.470404	-0.916975	0.093918
C23	C	-0.529719	-0.989113	0.113627
C24	C	-0.311325	-0.936634	0.166017
C25	C	-0.688862	-0.936670	0.165977
N26	N	0.230580	-0.936674	0.165968
C27	C	-0.000112	-1.080205	0.169270
C28	C	-0.000116	-1.167690	0.176299
C29	C	-0.000068	-0.659610	0.223517
C30	C	-0.000081	-0.577409	0.216908
C31	C	-0.000090	-0.541201	0.142480
C32	C	-0.000097	-0.587198	0.074657
C33	C	-0.000090	-0.669397	0.081267
C34	C	-0.000116	-0.295886	0.115086
C35	C	-0.000120	-0.213681	0.108481
C36	C	-0.000105	-0.203898	0.250732
C37	C	-0.000094	-0.286099	0.257336
C38	C	-0.000104	-0.332089	0.189512
N39	N	-0.000101	-0.457178	0.135723
N40	N	-0.000101	-0.416110	0.196270
C41	C	-0.000112	-0.994163	-0.111037
C42	C	-0.000103	-0.987554	-0.193238
C43	C	-0.000091	-0.913127	-0.229446
C44	C	-0.000080	-0.845303	-0.183449
C45	C	-0.000083	-0.851913	-0.101250
C46	C	-0.000076	-0.885732	-0.474760
C47	C	-0.000076	-0.879127	-0.556966
C48	C	-0.000097	-1.021379	-0.566749
C49	C	-0.000105	-1.027982	-0.484547
C50	C	-0.000089	-0.960159	-0.438558
N51	N	-0.000085	-0.906369	-0.313468
N52	N	-0.000089	-0.966917	-0.354537
C53	C	-0.000089	-0.939917	0.309559
C54	C	-0.000084	-0.946945	0.397044
H55	H	-0.444426	-0.839957	0.262712
H56	H	-0.555877	-0.972963	0.299071
H57	H	-0.444451	-1.069737	0.202520
Br58	Br	-0.000103	-0.731814	-0.010776
H59	H	-0.000077	-0.539966	0.272133
Br60	Br	-0.000092	-0.141480	0.342773
Br61	Br	-0.000140	-1.095177	-0.061905
H62	H	-0.555862	-0.803623	0.129620
Br63	Br	-0.000069	-0.778112	-0.606105
Br64	Br	-0.000152	-0.164541	0.007465
H65	H	-0.000065	-0.784703	-0.212936
H66	H	-0.000075	-0.796688	-0.063804
Br67	Br	-0.000070	-0.335233	0.358348
H68	H	-0.555579	-1.033492	0.069329
H69	H	-0.000117	-0.557710	0.014056
H70	H	-0.000112	-1.042779	-0.230680
H71	H	-0.444298	-0.900309	0.032980
H72	H	-0.000115	-1.088589	-0.455073
Br73	Br	-0.000048	-0.793685	-0.412356
Br74	Br	-0.000046	-0.708741	0.324531
H75	H	-0.000108	-1.076596	-0.604202
H76	H	-0.000125	-0.333322	0.059859
