data_functionalizedCrystal
_audit_creation_method	'MofGen! by Chris Wilmer'
_symmetry_space_group_name_H-M	'P1'
_symmetry_Int_Tables_number	1
_symmetry_cell_setting	triclinic
loop_
_symmetry_equiv_pos_as_xyz
  x,y,z
_cell_length_a	19.288835
_cell_length_b	19.288865
_cell_length_c	18.366186
_cell_angle_alpha	89.988521
_cell_angle_beta	90.017524
_cell_angle_gamma	96.869897
loop_
_atom_site_label
_atom_site_type_symbol
_atom_site_fract_x
_atom_site_fract_y
_atom_site_fract_z
O1	O	-0.921366	0.086549	-0.060701
O2	O	-0.421366	0.586549	0.439299
O3	O	-0.719102	0.098260	-0.060672
O4	O	-0.219102	0.598260	0.439328
O5	O	-0.826079	-0.008727	-0.060673
O6	O	-0.326079	0.491273	0.439327
O7	O	-0.814390	0.193535	-0.060700
O8	O	-0.314390	0.693535	0.439300
O9	O	-0.826061	-0.008732	0.060427
O10	O	-0.326061	0.491268	0.560427
O11	O	-0.719084	0.098255	0.060427
O12	O	-0.219084	0.598255	0.560427
O13	O	-0.921348	0.086544	0.060399
O14	O	-0.421348	0.586544	0.560399
Zn15	Zn	-0.820213	0.092398	0.079640
Zn16	Zn	-0.320213	0.592398	0.579640
Zn17	Zn	-0.820237	0.092405	-0.079913
Zn18	Zn	-0.320237	0.592405	0.420087
O19	O	-0.814372	0.193530	0.060399
O20	O	-0.314372	0.693530	0.560399
C21	C	-0.693217	0.097884	-0.000118
C22	C	-0.193217	0.597884	0.499882
C23	C	-0.616112	0.096763	-0.000107
C24	C	-0.116112	0.596763	0.499893
C25	C	-0.825694	-0.034606	-0.000121
C26	C	-0.325694	0.465394	0.499879
C27	C	-0.824565	-0.111709	-0.000114
C28	C	-0.324565	0.388291	0.499886
C29	C	-0.579918	0.096228	-0.066119
C30	C	-0.079918	0.596228	0.433881
C31	C	-0.507471	0.095167	-0.066126
C32	C	-0.007471	0.595167	0.433874
C33	C	-0.471222	0.094628	-0.000117
C34	C	0.028778	0.594628	0.499883
C35	C	-0.507424	0.095167	0.065904
C36	C	-0.007424	0.595167	0.565904
C37	C	-0.579869	0.096235	0.065909
C38	C	-0.079869	0.596235	0.565909
C39	C	-0.361887	0.052250	0.050452
C40	C	0.138113	0.552250	0.550452
C41	C	-0.289444	0.051178	0.050444
C42	C	0.210556	0.551178	0.550444
C43	C	-0.247778	0.091338	-0.000131
C44	C	0.252222	0.591338	0.499869
C45	C	-0.278565	0.132561	-0.050710
C46	C	0.221435	0.632561	0.449290
C47	C	-0.351010	0.133628	-0.050705
C48	C	0.148990	0.633628	0.449295
C49	C	-0.392668	0.093470	-0.000116
C50	C	0.107332	0.593470	0.499884
C51	C	-0.133029	0.089653	-0.066155
C52	C	0.366971	0.589653	0.433845
C53	C	-0.060580	0.088597	-0.066159
C54	C	0.439420	0.588597	0.433841
C55	C	-0.060536	0.088590	0.065872
C56	C	0.439464	0.588590	0.565872
C57	C	-0.132982	0.089653	0.065875
C58	C	0.367018	0.589653	0.565875
C59	C	-0.169225	0.090181	-0.000141
C60	C	0.330775	0.590181	0.499859
C61	C	-0.887333	-0.156412	-0.000120
C62	C	-0.387333	0.343588	0.499880
C63	C	-0.886273	-0.228859	-0.000131
C64	C	-0.386273	0.271141	0.499869
C65	C	-0.822440	-0.256600	-0.000122
C66	C	-0.322440	0.243400	0.499878
C67	C	-0.759663	-0.211887	-0.000121
C68	C	-0.259663	0.288113	0.499879
C69	C	-0.760725	-0.139441	-0.000117
C70	C	-0.260725	0.360559	0.499883
C71	C	-0.772253	-0.364883	0.042303
C72	C	-0.272253	0.135117	0.542303
C73	C	-0.771193	-0.437328	0.042304
C74	C	-0.271193	0.062672	0.542304
C75	C	-0.819160	-0.480045	-0.000138
C76	C	-0.319160	0.019955	0.499862
C77	C	-0.868198	-0.450310	-0.042571
C78	C	-0.368198	0.049690	0.457429
C79	C	-0.869261	-0.377865	-0.042567
C80	C	-0.369261	0.122135	0.457433
C81	C	-0.821280	-0.335154	-0.000127
C82	C	-0.321280	0.164846	0.499873
C83	C	-0.880783	-0.603304	-0.000157
C84	C	-0.380783	-0.103304	0.499843
C85	C	-0.879720	-0.675752	-0.000173
C86	C	-0.379720	-0.175752	0.499827
C87	C	-0.753108	-0.658778	-0.000156
C88	C	-0.253108	-0.158778	0.499844
C89	C	-0.754173	-0.586332	-0.000147
C90	C	-0.254173	-0.086332	0.499853
C91	C	-0.818012	-0.558599	-0.000144
C92	C	-0.318012	-0.058599	0.499856
C93	C	0.052767	0.086924	-0.000151
C94	C	0.552767	0.586924	0.499849
C95	C	-0.024336	0.088059	-0.000150
C96	C	0.475664	0.588059	0.499850
C97	C	-0.814757	0.219409	-0.000154
C98	C	-0.314757	0.719409	0.499846
C99	C	-0.815886	0.296513	-0.000165
C100	C	-0.315886	0.796513	0.499835
N101	N	-0.820202	0.092393	0.188531
N102	N	-0.320202	0.592393	0.688531
N103	N	-0.820254	0.092405	-0.188805
N104	N	-0.320254	0.592405	0.311195
C105	C	-0.867587	0.045043	0.226631
C106	C	-0.367587	0.545043	0.726631
C107	C	-0.867591	0.045040	0.302859
C108	C	-0.367591	0.545040	0.802859
C109	C	-0.820217	0.092399	0.340984
C110	C	-0.320217	0.592399	0.840984
C111	C	-0.772824	0.139753	0.302875
C112	C	-0.272824	0.639753	0.802875
C113	C	-0.772816	0.139750	0.226648
C114	C	-0.272816	0.639750	0.726648
C115	C	-0.810919	0.155688	0.461737
C116	C	-0.310919	0.655688	0.961737
C117	C	-0.810932	0.155692	0.537962
C118	C	-0.310932	0.655692	1.037962
C119	C	-0.820237	0.092408	0.576092
C120	C	-0.320237	0.592408	1.076092
C121	C	-0.829545	0.029117	0.537987
C122	C	-0.329545	0.529117	1.037987
C123	C	-0.829537	0.029114	0.461761
C124	C	-0.329537	0.529114	0.961761
C125	C	-0.820220	0.092407	0.423639
C126	C	-0.320220	0.592407	0.923639
C127	C	-0.867629	0.045050	0.696847
C128	C	-0.367629	0.545050	1.196847
C129	C	-0.867629	0.045046	0.773076
C130	C	-0.367629	0.545046	1.273076
C131	C	-0.772865	0.139765	0.773090
C132	C	-0.272865	0.639765	1.273090
C133	C	-0.772862	0.139763	0.696862
C134	C	-0.272862	0.639763	1.196862
C135	C	-0.820248	0.092406	0.658745
C136	C	-0.320248	0.592406	1.158745
H137	H	-0.609423	0.096658	-0.119874
H138	H	-0.109423	0.596658	0.380126
C139	C	-0.923197	-0.345159	-0.089248
C140	C	-0.423197	0.154841	0.410752
N141	N	-0.963820	-0.320524	-0.124412
N142	N	-0.463820	0.179476	0.375588
H143	H	-0.477906	0.094730	0.119649
H144	H	0.022094	0.594730	0.619649
C145	C	-0.255584	0.005838	0.106088
C146	C	0.244416	0.505838	0.606088
N147	N	-0.230083	-0.028309	0.148003
N148	N	0.269917	0.471691	0.648003
C149	C	-0.920964	-0.497294	-0.089264
C150	C	-0.420964	0.002706	0.410736
N151	N	-0.960706	-0.532685	-0.124432
N152	N	-0.460706	-0.032685	0.375568
H153	H	-0.709609	-0.103043	-0.000112
H154	H	-0.209609	0.396957	0.499888
C155	C	-0.467651	0.094573	-0.138748
C156	C	0.032349	0.594573	0.361252
N157	N	-0.437660	0.094124	-0.193446
N158	N	0.062340	0.594124	0.306554
C159	C	-0.020767	0.088004	-0.138782
C160	C	0.479233	0.588004	0.361218
N161	N	0.009220	0.087556	-0.193483
N162	N	0.509220	0.587556	0.306517
C163	C	-0.172897	0.090246	-0.138773
C164	C	0.327103	0.590246	0.361227
N165	N	-0.202923	0.090696	-0.193469
N166	N	0.297077	0.590696	0.306531
C167	C	-0.020666	0.087998	0.138483
C168	C	0.479334	0.587998	0.638483
N169	N	0.009367	0.087553	0.193176
N170	N	0.509367	0.587553	0.693176
H171	H	-0.731260	-0.461531	0.076851
H172	H	-0.231260	0.038469	0.576851
H173	H	-0.162452	0.090085	0.119629
H174	H	0.337548	0.590085	0.619629
H175	H	-0.932765	-0.580723	-0.000158
H176	H	-0.432765	-0.080723	0.499842
C177	C	-0.689446	-0.242403	-0.000106
C178	C	-0.189446	0.257597	0.499894
N179	N	-0.636557	-0.265387	-0.000096
N180	N	-0.136557	0.234613	0.499904
C181	C	-0.800682	0.225310	0.419801
C182	C	-0.300682	0.725310	0.919801
N183	N	-0.792972	0.277747	0.388217
N184	N	-0.292972	0.777747	0.888217
C185	C	-0.919727	-0.007044	0.344778
C186	C	-0.419727	0.492956	0.844778
N187	N	-0.958998	-0.046272	0.376349
N188	N	-0.458998	0.453728	0.876349
H189	H	-0.395806	0.019545	0.091640
H190	H	0.104194	0.519545	0.591640
C191	C	-0.800686	0.225312	0.579869
C192	C	-0.300686	0.725312	1.079869
N193	N	-0.792965	0.277752	0.611432
N194	N	-0.292965	0.777752	1.111432
H195	H	-0.376074	0.167195	-0.091886
H196	H	0.123926	0.667195	0.408114
H197	H	-0.930836	-0.712149	-0.000181
H198	H	-0.430836	-0.212149	0.499819
C199	C	-0.720717	0.191872	0.184737
C200	C	-0.220717	0.691872	0.684737
N201	N	-0.681487	0.231142	0.153168
N202	N	-0.181487	0.731142	0.653168
H203	H	-0.939316	-0.133837	-0.000120
H204	H	-0.439316	0.366163	0.499880
C205	C	-0.232737	0.176745	-0.106343
C206	C	0.267263	0.676745	0.393657
N207	N	-0.198217	0.210024	-0.148244
N208	N	0.301783	0.710024	0.351756
C209	C	-0.619684	0.096818	0.138531
C210	C	-0.119684	0.596818	0.638531
N211	N	-0.649674	0.097255	0.193231
N212	N	-0.149674	0.597255	0.693231
H213	H	-0.701133	-0.681363	-0.000152
H214	H	-0.201133	-0.181363	0.499848
H215	H	-0.937388	-0.265263	-0.000138
H216	H	-0.437388	0.234737	0.499862
H217	H	-0.906169	0.006481	0.195599
H218	H	-0.406169	0.506481	0.695599
H219	H	-0.703059	-0.549933	-0.000139
H220	H	-0.203059	-0.049933	0.499861
H221	H	-0.837114	-0.022419	0.430739
H222	H	-0.337114	0.477581	0.930739
C223	C	-0.719485	-0.317901	0.088999
C224	C	-0.219485	0.182099	0.588999
N225	N	-0.679742	-0.282516	0.124171
N226	N	-0.179742	0.217484	0.624171
H227	H	-0.837122	-0.022415	0.569031
H228	H	-0.337122	0.477585	1.069031
C229	C	-0.919747	-0.007049	0.654915
C230	C	-0.419747	0.492951	1.154915
N231	N	-0.959002	-0.046292	0.623334
N232	N	-0.459002	0.453708	1.123334
H233	H	-0.906213	0.006484	0.804097
H234	H	-0.406213	0.506484	1.304097
C235	C	-0.720754	0.191862	0.815023
C236	C	-0.220754	0.691862	1.315023
N237	N	-0.681502	0.231102	0.846611
N238	N	-0.181502	0.731102	1.346611
C239	C	-0.720785	0.191903	0.654950
C240	C	-0.220785	0.691903	1.154950
N241	N	-0.681573	0.231193	0.623383
N242	N	-0.181573	0.731193	1.123383
H243	H	-0.734251	0.178312	0.333920
H244	H	-0.234251	0.678312	0.833920
