data_functionalizedCrystal
_audit_creation_method	'MofGen! by Chris Wilmer'
_symmetry_space_group_name_H-M	'P1'
_symmetry_Int_Tables_number	1
_symmetry_cell_setting	triclinic
loop_
_symmetry_equiv_pos_as_xyz
  x,y,z
_cell_length_a	19.805407
_cell_length_b	12.759400
_cell_length_c	19.805399
_cell_angle_alpha	90.020600
_cell_angle_beta	90.019573
_cell_angle_gamma	90.014284
loop_
_atom_site_label
_atom_site_type_symbol
_atom_site_fract_x
_atom_site_fract_y
_atom_site_fract_z
Zn1	Zn	1.034793	-0.418291	0.382752
Zn2	Zn	1.034732	-0.593984	0.269578
Zn3	Zn	0.921607	-0.418320	0.269577
Zn4	Zn	0.921595	-0.593928	0.382725
O5	O	0.978182	-0.506131	0.326158
O6	O	1.129501	-0.441608	0.367752
O7	O	1.019705	-0.570717	0.174861
O8	O	0.936653	-0.271295	0.284601
O9	O	1.129456	-0.570689	0.284603
O10	O	1.019809	-0.271273	0.367751
O11	O	0.936593	-0.441657	0.174861
O12	O	0.826889	-0.441603	0.284574
O13	O	0.936631	-0.570594	0.477445
O14	O	0.826880	-0.570622	0.367704
O15	O	1.019797	-0.441554	0.477465
O16	O	1.019693	-0.740998	0.284576
O17	O	0.936572	-0.740957	0.367704
C18	C	0.802326	-0.506110	0.326136
C19	C	0.727094	-0.506127	0.326143
C20	C	0.691762	-0.573408	0.369358
C21	C	0.621074	-0.573410	0.369368
C22	C	0.585718	-0.506135	0.326158
C23	C	0.621054	-0.438847	0.282941
C24	C	0.691741	-0.438840	0.282935
C25	C	0.335981	-0.438870	0.282963
C26	C	0.265289	-0.438884	0.282971
C27	C	0.265313	-0.573440	0.369396
C28	C	0.336001	-0.573433	0.369390
C29	C	0.371331	-0.506141	0.326176
C30	C	0.447979	-0.506139	0.326167
C31	C	0.509071	-0.506142	0.326163
C32	C	0.978143	-0.779098	0.326152
C33	C	0.978188	-0.895875	0.326172
C34	C	0.934898	-0.950753	0.369423
C35	C	0.934933	-1.060477	0.369429
C36	C	1.021556	-1.060434	0.282932
C37	C	1.021516	-0.950712	0.282923
C38	C	0.891569	-0.895916	0.412672
C39	C	0.848276	-0.950795	0.455927
C40	C	0.848312	-1.060519	0.455933
C41	C	0.891641	-1.115364	0.412685
C42	C	1.154724	-0.506152	0.326180
C43	C	1.229956	-0.506160	0.326190
C44	C	0.978220	-0.506064	0.502701
C45	C	0.978236	-0.506036	0.577933
C46	C	0.978239	-0.232097	0.326179
C47	C	0.978264	-0.115321	0.326188
C48	C	0.978183	-0.506121	0.150302
C49	C	0.978298	-0.505853	0.075070
C50	C	1.021541	-0.438842	0.613289
C51	C	1.021548	-0.438811	0.683977
C52	C	0.978253	-0.505981	0.719309
C53	C	0.934942	-0.573179	0.683948
C54	C	0.934932	-0.573203	0.613261
C55	C	0.934980	-0.573081	0.969021
C56	C	0.934995	-0.573054	1.039713
C57	C	1.021596	-0.438689	1.039738
C58	C	1.021586	-0.438713	0.969051
C59	C	0.978274	-0.505906	0.933696
C60	C	0.978266	-0.505937	0.857048
C61	C	0.978263	-0.505957	0.795956
H62	H	0.720507	-0.384048	0.247748
C63	C	0.891527	-0.775224	0.412666
H64	H	0.859521	-0.750422	0.444614
H65	H	0.935192	-0.750343	0.424405
H66	H	0.879832	-0.750448	0.368974
C67	C	1.069167	-0.364956	0.574427
H68	H	1.062964	-0.374599	0.527264
H69	H	1.059278	-0.294361	0.586016
H70	H	1.114644	-0.380341	0.586021
C71	C	0.800617	-0.890471	0.503495
H72	H	0.806799	-0.817264	0.497302
H73	H	0.755151	-0.908512	0.493551
H74	H	0.810509	-0.908411	0.548984
H75	H	1.056834	-1.105098	0.247723
C76	C	0.891681	-1.236058	0.412694
H77	H	0.859695	-1.260890	0.444649
H78	H	0.880013	-1.260931	0.369007
H79	H	0.935365	-1.260812	0.424447
C80	C	0.887298	-0.647115	0.574366
H81	H	0.893488	-0.637503	0.527208
H82	H	0.897187	-0.717705	0.585944
H83	H	0.841824	-0.631719	0.585944
H84	H	0.899723	-0.627809	0.940244
H85	H	1.056844	-0.384020	0.940287
C86	C	1.069137	-0.890341	0.235351
H87	H	1.094954	-0.938713	0.209602
H88	H	1.043246	-0.847592	0.205834
H89	H	1.098599	-0.847483	0.261272
C90	C	1.069188	-0.364902	0.722866
H91	H	1.094978	-0.324912	0.691700
H92	H	1.043313	-0.319108	0.750440
H93	H	1.098674	-0.405096	0.750443
C94	C	0.582209	-0.647420	0.416902
H95	H	0.535047	-0.637782	0.410724
H96	H	0.593779	-0.717989	0.406918
H97	H	0.593818	-0.632132	0.462397
C98	C	0.800692	-1.120883	0.503509
H99	H	0.774887	-1.072506	0.529267
H100	H	0.771228	-1.163743	0.477598
H101	H	0.826588	-1.163630	0.533029
C102	C	0.887319	-0.647066	0.722810
H103	H	0.893531	-0.637436	0.769973
H104	H	0.841843	-0.631691	0.711220
H105	H	0.897213	-0.717664	0.711220
H106	H	0.899736	-0.627754	1.068478
C107	C	0.582165	-0.364849	0.235409
H108	H	0.535005	-0.374496	0.241595
H109	H	0.593760	-0.294276	0.245387
H110	H	0.593731	-0.380142	0.189913
C111	C	1.069237	-0.364768	1.078627
H112	H	1.095026	-0.324778	1.047459
H113	H	1.043363	-0.318973	1.106200
H114	H	1.098725	-0.404960	1.106203
C115	C	0.730648	-0.647410	0.416891
H116	H	0.699479	-0.687473	0.442634
H117	H	0.758207	-0.693134	0.390950
H118	H	0.758238	-0.607270	0.446425
H119	H	0.236539	-0.628228	0.404586
C120	C	0.374889	-0.647432	0.416923
H121	H	0.343722	-0.687496	0.442667
H122	H	0.402449	-0.693154	0.390982
H123	H	0.402478	-0.607288	0.446456
H124	H	0.236504	-0.384094	0.247784
H125	H	0.364738	-0.384085	0.247770
