data_functionalizedCrystal
_audit_creation_method	'MofGen! by Chris Wilmer'
_symmetry_space_group_name_H-M	'P1'
_symmetry_Int_Tables_number	1
_symmetry_cell_setting	triclinic
loop_
_symmetry_equiv_pos_as_xyz
  x,y,z
_cell_length_a	21.295417
_cell_length_b	17.639874
_cell_length_c	17.640968
_cell_angle_alpha	87.863041
_cell_angle_beta	78.765192
_cell_angle_gamma	78.745842
loop_
_atom_site_label
_atom_site_type_symbol
_atom_site_fract_x
_atom_site_fract_y
_atom_site_fract_z
Zn1	Zn	-0.018120	-1.247783	-0.195118
Zn2	Zn	-0.147998	-1.221989	-0.068125
Zn3	Zn	-0.059065	-1.095106	-0.093756
Zn4	Zn	-0.139709	-1.120730	-0.220704
O5	O	-0.091223	-1.171402	-0.144426
O6	O	-0.021681	-1.350634	-0.156837
O7	O	-0.156806	-1.183639	0.034750
O8	O	0.034470	-1.115430	-0.107220
O9	O	-0.117102	-1.331683	-0.063536
O10	O	0.064553	-1.227601	-0.181690
O11	O	-0.091467	-1.090419	0.015919
O12	O	-0.083430	-0.992233	-0.132031
O13	O	-0.102975	-1.159103	-0.323585
O14	O	-0.142678	-1.011059	-0.225299
O15	O	-0.013644	-1.252448	-0.304787
O16	O	-0.235002	-1.208485	-0.088346
O17	O	-0.228912	-1.134091	-0.200446
C18	C	-0.116598	-0.974091	-0.184223
C19	C	-0.127465	-0.889684	-0.201267
C20	C	-0.008621	-0.563041	-0.014915
C21	C	-0.018843	-0.483730	-0.030940
C22	C	-0.080682	-0.503354	-0.127893
C23	C	-0.070462	-0.582669	-0.111879
C24	C	-0.034432	-0.612506	-0.055388
C25	C	-0.096273	-0.632133	-0.152352
C26	C	-0.086057	-0.711441	-0.136336
C27	C	-0.050030	-0.741284	-0.079846
C28	C	-0.024216	-0.691813	-0.039372
C29	C	-0.132307	-0.602294	-0.208838
C30	C	-0.158117	-0.651759	-0.249312
C31	C	-0.147897	-0.731069	-0.233299
C32	C	-0.111871	-0.760911	-0.176810
C33	C	-0.173711	-0.780539	-0.273774
C34	C	-0.163495	-0.859847	-0.257757
C35	C	-0.101654	-0.840219	-0.160794
C36	C	-0.254795	-1.171294	-0.144404
C37	C	-0.324759	-1.171322	-0.144406
C38	C	-0.360760	-1.210112	-0.086077
C39	C	-0.426495	-1.210152	-0.086087
C40	C	-0.456229	-1.171385	-0.144420
C41	C	-0.420218	-1.132594	-0.202760
C42	C	-0.354483	-1.132562	-0.202752
N43	N	-0.566921	-1.106122	-0.163610
N44	N	-0.629367	-1.106153	-0.163612
C45	C	-0.654284	-1.171479	-0.144447
N46	N	-0.614398	-1.236771	-0.125264
N47	N	-0.551947	-1.236738	-0.125258
C48	C	-0.527507	-1.171415	-0.144435
C49	C	-0.761562	-1.210315	-0.086125
C50	C	-0.827297	-1.210357	-0.086140
C51	C	-0.821020	-1.132791	-0.202810
C52	C	-0.755285	-1.132757	-0.202798
C53	C	-0.725561	-1.171517	-0.144451
C54	C	0.072994	-1.171535	-0.144460
C55	C	0.142974	-1.171591	-0.144475
C56	C	-0.052817	-1.211511	-0.342513
C57	C	-0.036451	-1.228603	-0.426926
C58	C	-0.065742	-0.369482	-0.104465
C59	C	-0.054868	-0.453888	-0.087417
C60	C	-0.215175	-1.041847	-0.753480
C61	C	-0.199787	-1.057924	-0.832795
C62	C	-0.106774	-1.155115	-0.813212
C63	C	-0.122153	-1.139044	-0.733893
C64	C	-0.176355	-1.082410	-0.704034
C65	C	-0.083333	-1.179607	-0.684448
C66	C	-0.098713	-1.163540	-0.605136
C67	C	-0.152913	-1.106910	-0.575270
C68	C	-0.191735	-1.066343	-0.624722
C69	C	-0.029134	-1.236245	-0.714308
C70	C	0.009686	-1.276808	-0.664862
C71	C	-0.005691	-1.260737	-0.585549
C72	C	-0.059891	-1.204107	-0.555683
C73	C	0.033131	-1.301304	-0.536097
C74	C	0.017751	-1.285237	-0.456785
C75	C	-0.075271	-1.188040	-0.476371
C76	C	-0.129428	-1.131493	0.052899
C77	C	-0.145598	-1.114548	0.137342
H78	H	-0.140623	-0.537716	-0.221877
C79	C	-0.217514	-1.039386	-0.963072
C80	C	-0.242458	-1.013326	-0.887150
H81	H	-0.243859	-1.011856	-0.996626
H82	H	-0.174126	-1.030938	-0.978313
H83	H	-0.217650	-1.093036	-0.965766
H84	H	-0.242316	-0.959677	-0.884455
H85	H	-0.285857	-1.021768	-0.871905
H86	H	-0.165436	-1.093832	-0.510688
H87	H	-0.444431	-1.101032	-0.250256
C88	C	-0.201234	-0.538901	-0.316921
C89	C	-0.197717	-0.618958	-0.311408
H90	H	-0.225678	-0.518655	-0.355262
H91	H	-0.221959	-0.515558	-0.268508
H92	H	-0.158449	-0.528198	-0.330745
H93	H	-0.240503	-0.629661	-0.297578
H94	H	-0.176994	-0.642308	-0.359831
H95	H	-0.041714	-0.805861	-0.066805
H96	H	-0.845228	-1.101231	-0.250309
C97	C	-0.041893	-1.222902	-0.926095
C98	C	-0.047196	-1.217364	-0.846039
H99	H	-0.005107	-1.261329	-0.946359
H100	H	-0.080239	-1.236621	-0.936836
H101	H	-0.036724	-1.174514	-0.949385
H102	H	-0.052370	-1.265751	-0.822748
H103	H	-0.008840	-1.203650	-0.835292
C104	C	-0.191379	-1.146041	-0.459372
C105	C	-0.134857	-1.125801	-0.443526
H106	H	-0.228165	-1.107626	-0.439084
H107	H	-0.187780	-1.149782	-0.513678
H108	H	-0.196529	-1.194437	-0.436086
H109	H	-0.129705	-1.077408	-0.466816
H110	H	-0.138457	-1.122051	-0.389209
C111	C	-0.295066	-1.037670	-0.537623
C112	C	-0.251313	-1.004093	-0.591878
H113	H	-0.331843	-0.999241	-0.517340
H114	H	-0.308897	-1.076991	-0.561889
H115	H	-0.274132	-1.059537	-0.496837
H116	H	-0.272246	-0.982230	-0.632668
H117	H	-0.237481	-0.964757	-0.567612
H118	H	-0.455812	-1.241742	-0.038588
H119	H	-0.072304	-0.864516	-0.114805
C120	C	-0.182758	-0.782158	-0.407233
C121	C	-0.213313	-0.747735	-0.335867
H122	H	-0.207209	-0.761908	-0.445566
H123	H	-0.139983	-0.771442	-0.421052
H124	H	-0.180372	-0.836469	-0.403481
H125	H	-0.215696	-0.693423	-0.339617
H126	H	-0.256100	-0.758444	-0.322045
C127	C	-0.761502	-1.221372	0.049931
C128	C	-0.728882	-1.252924	-0.021997
H129	H	-0.741329	-1.247681	0.089520
H130	H	-0.759497	-1.168098	0.050794
H131	H	-0.805802	-1.226952	0.058263
H132	H	-0.684583	-1.247340	-0.030332
H133	H	-0.730881	-1.306211	-0.022861
C134	C	-0.354882	-1.055897	-0.318076
C135	C	-0.314907	-1.089915	-0.266869
H136	H	-0.330449	-1.029564	-0.357655
H137	H	-0.370590	-1.094862	-0.340487
H138	H	-0.390714	-1.020183	-0.290814
H139	H	-0.279077	-1.125633	-0.294130
H140	H	-0.299190	-1.050946	-0.244456
C141	C	0.018910	-0.804677	0.028225
C142	C	0.015395	-0.724620	0.022718
H143	H	0.043366	-0.824930	0.066552
H144	H	-0.023869	-0.815378	0.042059
H145	H	0.039627	-0.828016	-0.020201
H146	H	-0.005326	-0.701280	0.071143
H147	H	0.058182	-0.713912	0.008889
H148	H	-0.259299	-0.995712	-0.729171
C149	C	-0.305313	-1.200031	0.018234
C150	C	-0.328089	-1.252724	-0.021945
H151	H	-0.285147	-1.226340	0.057828
H152	H	-0.274460	-1.176933	-0.016501
H153	H	-0.340889	-1.161092	0.040633
H154	H	-0.292512	-1.291660	-0.044350
H155	H	-0.358944	-1.275835	0.012795
H156	H	-0.856608	-1.241949	-0.038642
C157	C	-0.755689	-1.056082	-0.318111
C158	C	-0.715711	-1.090105	-0.266908
H159	H	-0.731257	-1.029746	-0.357689
H160	H	-0.771397	-1.095045	-0.340524
H161	H	-0.791521	-1.020371	-0.290845
H162	H	-0.679882	-1.125821	-0.294173
H163	H	-0.699993	-1.051137	-0.244493
C164	C	-0.141070	-0.969746	-0.341869
C165	C	-0.191863	-0.914228	-0.302243
H166	H	-0.158587	-1.003321	-0.369326
H167	H	-0.112027	-0.944719	-0.377224
H168	H	-0.118155	-0.998858	-0.305924
H169	H	-0.214775	-0.885112	-0.338189
H170	H	-0.220917	-0.939257	-0.266884
C171	C	0.074568	-1.344595	-0.777746
C172	C	0.069265	-1.339057	-0.697689
H173	H	0.111353	-1.383021	-0.798009
H174	H	0.036221	-1.358314	-0.788486
H175	H	0.079737	-1.296206	-0.801036
H176	H	0.064091	-1.387444	-0.674398
H177	H	0.107621	-1.325342	-0.686942
H178	H	-0.016615	-1.249327	-0.778889
C179	C	0.123531	-1.395772	-0.508772
C180	C	0.092705	-1.363559	-0.568923
H181	H	0.160307	-1.434209	-0.529038
H182	H	0.137363	-1.356437	-0.484526
H183	H	0.093831	-1.418527	-0.471966
H184	H	0.122404	-1.340799	-0.605727
H185	H	0.078874	-1.402901	-0.593182
C186	C	0.051478	-0.535681	0.079334
C187	C	0.030979	-0.595845	0.047187
H188	H	0.075918	-0.555934	0.117676
H189	H	0.077964	-0.511482	0.039952
H190	H	0.014452	-0.498831	0.102187
H191	H	0.068005	-0.632692	0.024328
H192	H	0.004492	-0.620056	0.086575
C193	C	-0.041243	-0.373828	0.053168
C194	C	0.009541	-0.429352	0.013535
H195	H	-0.023717	-0.340260	0.080623
H196	H	-0.064159	-0.344716	0.017234
H197	H	-0.070287	-0.398856	0.088534
H198	H	0.038583	-0.404324	-0.021835
H199	H	0.032468	-0.458468	0.049473
C200	C	-0.183338	-0.486353	-0.169608
C201	C	-0.120279	-0.470557	-0.189993
H202	H	-0.207781	-0.466104	-0.207948
H203	H	-0.180942	-0.540659	-0.165862
H204	H	-0.204060	-0.462995	-0.121192
H205	H	-0.099555	-0.493919	-0.238407
H206	H	-0.122672	-0.416240	-0.193747
H207	H	0.049363	-1.318267	-0.416525
