data_functionalizedCrystal
_audit_creation_method	'MofGen! by Chris Wilmer'
_symmetry_space_group_name_H-M	'P1'
_symmetry_Int_Tables_number	1
_symmetry_cell_setting	triclinic
loop_
_symmetry_equiv_pos_as_xyz
  x,y,z
_cell_length_a	11.169417
_cell_length_b	29.839131
_cell_length_c	11.169409
_cell_angle_alpha	90.040119
_cell_angle_beta	90.019824
_cell_angle_gamma	90.042299
loop_
_atom_site_label
_atom_site_type_symbol
_atom_site_fract_x
_atom_site_fract_y
_atom_site_fract_z
Zn1	Zn	1.834703	-0.178806	0.678478
Zn2	Zn	2.334703	0.321194	1.178478
Zn3	Zn	1.834484	-0.253948	0.477767
Zn4	Zn	2.334484	0.246052	0.977767
Zn5	Zn	1.633989	-0.178834	0.477812
Zn6	Zn	2.133989	0.321166	0.977812
Zn7	Zn	1.633888	-0.253911	0.678412
Zn8	Zn	2.133888	0.246089	1.178412
O9	O	1.734266	-0.216375	0.578117
O10	O	2.234266	0.283625	1.078117
O11	O	2.002624	-0.188778	0.651862
O12	O	2.502624	0.311222	1.151862
O13	O	1.807838	-0.244011	0.309823
O14	O	2.307838	0.255989	0.809823
O15	O	1.660748	-0.115963	0.504477
O16	O	2.160748	0.384037	1.004477
O17	O	2.002462	-0.243984	0.504401
O18	O	2.502462	0.256016	1.004401
O19	O	1.808212	-0.115943	0.651905
O20	O	2.308212	0.384057	1.151905
O21	O	1.660536	-0.188825	0.309856
O22	O	2.160536	0.311175	0.809856
O23	O	1.466026	-0.188789	0.504413
O24	O	1.966026	0.311211	1.004413
O25	O	1.660576	-0.243922	0.846371
O26	O	2.160576	0.256078	1.346371
O27	O	1.465951	-0.243948	0.651794
O28	O	1.965951	0.256052	1.151794
O29	O	1.808114	-0.188742	0.846419
O30	O	2.308114	0.311258	1.346419
O31	O	1.807740	-0.316810	0.504337
O32	O	2.307740	0.183190	1.004337
O33	O	1.660363	-0.316783	0.651750
O34	O	2.160363	0.183217	1.151750
C35	C	1.422441	-0.216368	0.578102
C36	C	1.922441	0.283632	1.078102
C37	C	1.289041	-0.216376	0.578124
C38	C	1.789041	0.283624	1.078124
C39	C	1.734049	-0.333097	0.578058
C40	C	2.234049	0.166903	1.078058
C41	C	1.734066	-0.383032	0.578073
C42	C	2.234066	0.116968	1.078073
C43	C	1.811145	-0.692677	0.501472
C44	C	2.311145	-0.192677	1.001472
C45	C	1.811293	-0.880350	0.501518
C46	C	2.311293	-0.380350	1.001518
O47	O	1.876656	-0.904616	0.436344
O48	O	2.376656	-0.404616	0.936344
N49	N	1.734515	-0.903817	0.578208
N50	N	2.234515	-0.403817	1.078208
C51	C	1.657700	-0.880363	0.654897
C52	C	2.157700	-0.380363	1.154897
O53	O	1.592407	-0.904630	0.720136
O54	O	2.092407	-0.404630	1.220136
C55	C	1.657559	-0.692691	0.654856
C56	C	2.157559	-0.192691	1.154856
C57	C	1.734333	-0.669226	0.578152
C58	C	2.234333	-0.169226	1.078152
C59	C	1.887914	-0.669212	0.424776
C60	C	2.387914	-0.169212	0.924776
C61	C	1.887871	-0.622296	0.424760
C62	C	2.387871	-0.122296	0.924760
C63	C	1.811060	-0.598846	0.501441
C64	C	2.311060	-0.098846	1.001441
C65	C	1.734291	-0.622311	0.578137
C66	C	2.234291	-0.122311	1.078137
C67	C	1.580751	-0.669238	0.731550
C68	C	2.080751	-0.169238	1.231550
C69	C	1.580724	-0.622317	0.731535
C70	C	2.080724	-0.122317	1.231535
C71	C	1.657499	-0.598852	0.654831
C72	C	2.157499	-0.098852	1.154831
C73	C	1.657437	-0.551945	0.654802
C74	C	2.157437	-0.051945	1.154802
N75	N	1.734215	-0.528477	0.578112
N76	N	2.234215	-0.028477	1.078112
C77	C	1.811026	-0.551928	0.501432
C78	C	2.311026	-0.051928	1.001432
C79	C	1.657778	-0.978894	0.654912
C80	C	2.157778	-0.478894	1.154912
C81	C	1.657811	-1.025811	0.654921
C82	C	2.157811	-0.525811	1.154921
C83	C	1.811406	-1.025795	0.501543
C84	C	2.311406	-0.525795	1.001543
C85	C	1.811366	-0.978876	0.501529
C86	C	2.311366	-0.478876	1.001529
C87	C	1.734556	-0.955426	0.578222
C88	C	2.234556	-0.455426	1.078222
C89	C	1.810931	-0.453402	0.501404
C90	C	2.310931	0.046598	1.001404
C91	C	1.810878	-0.406482	0.501392
C92	C	2.310878	0.093518	1.001392
C93	C	1.657288	-0.406503	0.654773
C94	C	2.157288	0.093497	1.154773
C95	C	1.657336	-0.453419	0.654782
C96	C	2.157336	0.046581	1.154782
C97	C	1.734167	-0.476867	0.578093
C98	C	2.234167	0.023133	1.078093
O99	O	1.592118	-0.527650	0.719952
O100	O	2.092118	-0.027650	1.219952
O101	O	1.876328	-0.527653	0.436221
O102	O	2.376328	-0.027653	0.936221
C103	C	1.811187	-0.739592	0.501487
C104	C	2.311187	-0.239592	1.001487
C105	C	1.734418	-0.763057	0.578183
C106	C	2.234418	-0.263057	1.078183
C107	C	1.657606	-0.739606	0.654864
C108	C	2.157606	-0.239606	1.154864
C109	C	1.734451	-0.809975	0.578192
C110	C	2.234451	-0.309975	1.078192
C111	C	1.811263	-0.833425	0.501512
C112	C	2.311263	-0.333425	1.001512
C113	C	1.888041	-0.809958	0.424822
C114	C	2.388041	-0.309958	0.924822
C115	C	1.887999	-0.763043	0.424807
C116	C	2.387999	-0.263043	0.924807
C117	C	1.580828	-0.763074	0.731553
C118	C	2.080828	-0.263074	1.231553
C119	C	1.580876	-0.809989	0.731562
C120	C	2.080876	-0.309989	1.231562
C121	C	1.657688	-0.833440	0.654881
C122	C	2.157688	-0.333440	1.154881
C123	C	2.047308	-0.216382	0.578134
C124	C	2.547308	0.283618	1.078134
C125	C	2.180708	-0.216385	0.578140
C126	C	2.680708	0.283615	1.078140
C127	C	1.734358	-0.216325	0.891160
C128	C	2.234358	0.283675	1.391160
C129	C	1.734397	-0.216304	1.024560
C130	C	2.234397	0.283696	1.524560
C131	C	1.734516	-0.099196	0.578203
C132	C	2.234516	0.400804	1.078203
C133	C	1.734623	-0.049262	0.578240
C134	C	2.234623	0.450738	1.078240
C135	C	1.734243	-0.216392	0.266293
C136	C	2.234243	0.283608	0.766293
C137	C	1.734436	-0.216287	0.132893
C138	C	2.234436	0.283713	0.632893
H139	H	1.873496	-0.472488	0.438960
H140	H	2.373496	0.027512	0.938960
O141	O	1.970696	-0.596990	0.342048
O142	O	2.470696	-0.096990	0.842048
H143	H	2.024118	-0.621185	0.288749
H144	H	2.524118	-0.121185	0.788749
H145	H	1.873949	-1.044896	0.439107
H146	H	2.373949	-0.544896	0.939107
O147	O	1.497975	-0.737781	0.814256
O148	O	1.997975	-0.237781	1.314256
H149	H	1.436932	-0.716445	0.760471
H150	H	1.936932	-0.216445	1.260471
O151	O	1.574923	-0.953601	0.737626
O152	O	2.074923	-0.453601	1.237626
H153	H	1.513883	-0.932263	0.683845
H154	H	2.013883	-0.432263	1.183845
O155	O	1.497951	-0.694540	0.814288
O156	O	1.997951	-0.194540	1.314288
H157	H	1.444555	-0.670344	0.867611
H158	H	1.944555	-0.170344	1.367611
H159	H	1.873397	-0.387379	0.438927
H160	H	2.373397	0.112621	0.938927
H161	H	1.518178	-0.603226	0.793991
H162	H	2.018178	-0.103226	1.293991
H163	H	1.950516	-0.743941	0.362348
H164	H	2.450516	-0.243941	0.862348
H165	H	1.518346	-0.829090	0.794022
H166	H	2.018346	-0.329090	1.294022
O167	O	1.574530	-0.478732	0.737505
O168	O	2.074530	0.021268	1.237505
H169	H	1.521115	-0.454541	0.790826
H170	H	2.021115	0.045459	1.290826
O171	O	1.574448	-0.381206	0.737484
O172	O	2.074448	0.118794	1.237484
H173	H	1.587336	-0.344640	0.724591
H174	H	2.087336	0.155360	1.224591
H175	H	1.950580	-0.829060	0.362382
H176	H	2.450580	-0.329060	0.862382
H177	H	1.873882	-0.959774	0.439071
H178	H	2.373882	-0.459774	0.939071
O179	O	1.970764	-0.694504	0.342066
O180	O	2.470764	-0.194504	0.842066
H181	H	1.950207	-0.685534	0.247856
H182	H	2.450207	-0.185534	0.747856
O183	O	1.574997	-1.051119	0.737641
O184	O	2.074997	-0.551119	1.237641
H185	H	1.521593	-1.026925	0.790965
H186	H	2.021593	-0.526925	1.290965
