data_functionalizedCrystal
_audit_creation_method	'MofGen! by Chris Wilmer'
_symmetry_space_group_name_H-M	'P1'
_symmetry_Int_Tables_number	1
_symmetry_cell_setting	triclinic
loop_
_symmetry_equiv_pos_as_xyz
  x,y,z
_cell_length_a	13.897449
_cell_length_b	12.645330
_cell_length_c	13.897441
_cell_angle_alpha	89.972699
_cell_angle_beta	89.979267
_cell_angle_gamma	90.018972
loop_
_atom_site_label
_atom_site_type_symbol
_atom_site_fract_x
_atom_site_fract_y
_atom_site_fract_z
Zn1	Zn	1.474703	-0.421969	-0.545403
Zn2	Zn	1.974703	0.078031	-0.045403
Zn3	Zn	1.474597	-0.599265	-0.384114
Zn4	Zn	1.974597	-0.099265	0.115886
Zn5	Zn	1.313392	-0.422020	-0.384122
Zn6	Zn	1.813392	0.077980	0.115878
Zn7	Zn	1.313373	-0.599195	-0.545367
Zn8	Zn	1.813373	-0.099195	-0.045367
O9	O	1.394016	-0.510612	-0.464751
O10	O	1.894016	-0.010612	0.035249
O11	O	1.609670	-0.445496	-0.524020
O12	O	2.109670	0.054504	-0.024020
O13	O	1.453176	-0.575803	-0.249133
O14	O	1.953176	-0.075803	0.250867
O15	O	1.334842	-0.273666	-0.405535
O16	O	1.834842	0.226334	0.094465
O17	O	1.609592	-0.575754	-0.405521
O18	O	2.109592	-0.075754	0.094479
O19	O	1.453356	-0.273629	-0.524028
O20	O	1.953356	0.226371	-0.024028
O21	O	1.334739	-0.445582	-0.249139
O22	O	1.834739	0.054418	0.250861
O23	O	1.178408	-0.445514	-0.405499
O24	O	1.678408	0.054486	0.094501
O25	O	1.334811	-0.575636	-0.680353
O26	O	1.834811	-0.075636	-0.180353
O27	O	1.178394	-0.575684	-0.523965
O28	O	1.678394	-0.075684	-0.023965
O29	O	1.453339	-0.445428	-0.680380
O30	O	1.953339	0.054572	-0.180380
O31	O	1.453158	-0.747603	-0.405486
O32	O	1.953158	-0.247603	0.094514
O33	O	1.334708	-0.747552	-0.523957
O34	O	1.834708	-0.247552	-0.023957
C35	C	1.143402	-0.510598	-0.464729
C36	C	1.643402	-0.010598	0.035271
C37	C	1.036188	-0.510618	-0.464743
C38	C	1.536188	-0.010618	0.035257
C39	C	0.839893	-0.510621	-0.464768
C40	C	1.339893	-0.010621	0.035232
C41	C	0.949125	-0.510616	-0.464751
C42	C	1.449125	-0.010616	0.035249
C43	C	1.393946	-0.786042	-0.464738
C44	C	1.893946	-0.286042	0.035262
C45	C	1.394004	-0.903872	-0.464764
C46	C	1.894004	-0.403872	0.035236
C47	C	1.319794	-1.071448	-0.539525
C48	C	1.819794	-0.571448	-0.039525
C49	C	1.319415	-0.948889	-0.539284
C50	C	1.819415	-0.448889	-0.039284
C51	C	1.366485	-0.948472	-0.363109
C52	C	1.866485	-0.448472	0.136891
C53	C	1.366032	-1.071070	-0.363563
C54	C	1.866032	-0.571070	0.136437
C55	C	1.496187	-1.070958	-0.490835
C56	C	1.996187	-0.570958	0.009165
C57	C	1.495561	-0.948351	-0.493058
C58	C	1.995561	-0.448351	0.006942
C59	C	1.645609	-0.510627	-0.464774
C60	C	2.145609	-0.010627	0.035226
C61	C	1.752823	-0.510634	-0.464784
C62	C	2.252823	-0.010634	0.035216
C63	C	1.394085	-0.510519	-0.716344
C64	C	1.894085	-0.010519	-0.216344
C65	C	1.394114	-0.510479	-0.823558
C66	C	1.894114	-0.010479	-0.323558
C67	C	1.394113	-0.234107	-0.464786
C68	C	1.894113	0.265893	0.035214
C69	C	1.394154	-0.116277	-0.464801
C70	C	1.894154	0.383723	0.035199
C71	C	1.394140	-0.510407	-1.019854
C72	C	1.894140	-0.010407	-0.519854
C73	C	1.394122	-0.510450	-0.910621
C74	C	1.894122	-0.010450	-0.410621
C75	C	1.394003	-0.510629	-0.214137
C76	C	1.894003	-0.010629	0.285863
C77	C	1.394161	-0.510370	-0.106924
C78	C	1.894161	-0.010370	0.393076
H79	H	1.336632	-0.918731	-0.614661
H80	H	1.836632	-0.418731	-0.114661
H81	H	1.244625	-1.102351	-0.522497
H82	H	1.744625	-0.602351	-0.022497
H83	H	1.551587	-1.099947	-0.436411
H84	H	2.051587	-0.599947	0.063589
H85	H	1.516314	-0.919196	-0.567871
H86	H	2.016314	-0.419196	-0.067871
O87	O	1.427726	-1.106608	-0.294842
O88	O	1.927726	-0.606608	0.205158
C89	C	1.446874	-1.208584	-0.149593
C90	C	1.946874	-0.708584	0.350407
C91	C	1.376902	-1.168424	-0.227354
C92	C	1.876902	-0.668424	0.272646
H93	H	1.405807	-1.258552	-0.094998
H94	H	1.905807	-0.758552	0.405002
H95	H	1.505396	-1.258646	-0.184631
H96	H	2.005396	-0.758646	0.315369
H97	H	1.481216	-1.138210	-0.111545
H98	H	1.981216	-0.638210	0.388455
H99	H	1.342490	-1.238734	-0.265429
H100	H	1.842490	-0.738734	0.234571
H101	H	1.318437	-1.118329	-0.192261
H102	H	1.818437	-0.618329	0.307739
H103	H	1.336854	-1.100856	-0.615149
H104	H	1.836854	-0.600856	-0.115149
O105	O	1.429004	-0.913861	-0.294761
O106	O	1.929004	-0.413861	0.205239
C107	C	1.473117	-0.915986	-0.127103
C108	C	1.973117	-0.415986	0.372897
C109	C	1.402240	-0.955256	-0.204406
C110	C	1.902240	-0.455256	0.295594
H111	H	1.451492	-0.949419	-0.054030
H112	H	1.951492	-0.449419	0.445970
H113	H	1.548965	-0.943482	-0.145806
H114	H	2.048965	-0.443482	0.354194
H115	H	1.471329	-0.825911	-0.124240
H116	H	1.971329	-0.325911	0.375760
H117	H	1.403942	-1.045327	-0.207309
H118	H	1.903942	-0.545327	0.292691
H119	H	1.326424	-0.927679	-0.185673
H120	H	1.826424	-0.427679	0.314327
O121	O	1.278381	-0.912151	-0.336269
O122	O	1.778381	-0.412151	0.163731
C123	C	1.115911	-0.957100	-0.291478
C124	C	1.615911	-0.457100	0.208522
C125	C	1.215649	-0.998372	-0.321836
C126	C	1.715649	-0.498372	0.178164
H127	H	1.065160	-1.026787	-0.279819
H128	H	1.565160	-0.526787	0.220181
H129	H	1.122761	-0.910193	-0.221780
H130	H	1.622761	-0.410193	0.278220
H131	H	1.085957	-0.903748	-0.350433
H132	H	1.585957	-0.403748	0.149567
H133	H	1.245660	-1.051766	-0.262946
H134	H	1.745660	-0.551766	0.237054
H135	H	1.208739	-1.045219	-0.391560
H136	H	1.708739	-0.545219	0.108440
O137	O	1.229111	-0.914135	-0.518815
O138	O	1.729111	-0.414135	-0.018815
C139	C	1.062257	-0.912163	-0.565876
C140	C	1.562257	-0.412163	-0.065876
C141	C	1.164477	-0.951610	-0.589164
C142	C	1.664477	-0.451610	-0.089164
H143	H	1.009976	-0.942426	-0.622750
H144	H	1.509976	-0.442426	-0.122750
H145	H	1.039555	-0.942771	-0.492106
H146	H	1.539555	-0.442771	0.007894
H147	H	1.061581	-0.822014	-0.565561
H148	H	1.561581	-0.322014	-0.065561
H149	H	1.165231	-1.041754	-0.589532
H150	H	1.665231	-0.541754	-0.089532
H151	H	1.187137	-0.920922	-0.662918
H152	H	1.687137	-0.420922	-0.162918
O153	O	1.526190	-1.107561	-0.577812
O154	O	2.026190	-0.607561	-0.077812
C155	C	1.575309	-1.063235	-0.739174
C156	C	2.075309	-0.563235	-0.239174
C157	C	1.541373	-1.021636	-0.640712
C158	C	2.041373	-0.521636	-0.140712
H159	H	1.587575	-0.993788	-0.790063
H160	H	2.087575	-0.493788	-0.290063
H161	H	1.645386	-1.108944	-0.729863
H162	H	2.145386	-0.608944	-0.229863
H163	H	1.518017	-1.117787	-0.770510
H164	H	2.018017	-0.617787	-0.270510
H165	H	1.598597	-0.967043	-0.609322
H166	H	2.098597	-0.467043	-0.109322
H167	H	1.471272	-0.975988	-0.650084
H168	H	1.971272	-0.475988	-0.150084
O169	O	1.565203	-0.911974	-0.432841
O170	O	2.065203	-0.411974	0.067159
C171	C	1.688784	-0.956750	-0.318287
C172	C	2.188784	-0.456750	0.181713
C173	C	1.609966	-0.998087	-0.386475
C174	C	2.109966	-0.498087	0.113525
H175	H	1.724983	-1.026350	-0.280766
H176	H	2.224983	-0.526350	0.219234
H177	H	1.744658	-0.910747	-0.361418
H178	H	2.244658	-0.410747	0.138582
H179	H	1.655009	-0.902532	-0.262143
H180	H	2.155009	-0.402532	0.237857
H181	H	1.643656	-1.052347	-0.442632
H182	H	2.143656	-0.552347	0.057368
H183	H	1.554102	-1.044030	-0.343279
H184	H	2.054102	-0.544030	0.156721
H185	H	1.291445	-1.099764	-0.341508
H186	H	1.791445	-0.599764	0.158492
