data_functionalizedCrystal
_audit_creation_method	'MofGen! by Chris Wilmer'
_symmetry_space_group_name_H-M	'P1'
_symmetry_Int_Tables_number	1
_symmetry_cell_setting	triclinic
loop_
_symmetry_equiv_pos_as_xyz
  x,y,z
_cell_length_a	13.032831
_cell_length_b	25.639240
_cell_length_c	13.032268
_cell_angle_alpha	82.864661
_cell_angle_beta	89.113023
_cell_angle_gamma	82.835975
loop_
_atom_site_label
_atom_site_type_symbol
_atom_site_fract_x
_atom_site_fract_y
_atom_site_fract_z
Zn1	Zn	1.498317	-0.353075	0.780663
Zn2	Zn	1.998317	0.146925	1.280663
Zn3	Zn	1.520023	-0.430970	0.608645
Zn4	Zn	2.020023	0.069030	1.108645
Zn5	Zn	1.348185	-0.331235	0.586915
Zn6	Zn	1.848185	0.168765	1.086915
Zn7	Zn	1.326273	-0.428143	0.758772
Zn8	Zn	1.826273	0.071857	1.258772
O9	O	1.423200	-0.385856	0.683749
O10	O	1.923200	0.114144	1.183749
O11	O	1.645112	-0.373732	0.776101
O12	O	2.145112	0.126268	1.276101
O13	O	1.515483	-0.409783	0.461850
O14	O	2.015483	0.090217	0.961850
O15	O	1.368187	-0.260977	0.612683
O16	O	1.868187	0.239023	1.112683
O17	O	1.661060	-0.430960	0.649720
O18	O	2.161060	0.069040	1.149720
O19	O	1.478488	-0.277023	0.755029
O20	O	1.978488	0.222977	1.255029
O21	O	1.389235	-0.336508	0.445884
O22	O	1.889235	0.163492	0.945884
O23	O	1.201363	-0.333767	0.591456
O24	O	1.701363	0.166233	1.091456
O25	O	1.330840	-0.426143	0.905589
O26	O	1.830840	0.073857	1.405589
O27	O	1.185264	-0.404965	0.717719
O28	O	1.685264	0.095035	1.217719
O29	O	1.457240	-0.370991	0.921672
O30	O	1.957240	0.129009	1.421672
O31	O	1.494236	-0.503750	0.628493
O32	O	1.994236	-0.003750	1.128493
O33	O	1.351888	-0.501674	0.738790
O34	O	1.851888	-0.001674	1.238790
C35	C	1.155997	-0.366690	0.649854
C36	C	1.655997	0.133310	1.149854
C37	C	1.041684	-0.358504	0.635379
C38	C	1.541684	0.141496	1.135379
C39	C	1.423064	-0.521684	0.683650
C40	C	1.923064	-0.021684	1.183650
C41	C	1.423096	-0.579800	0.683654
C42	C	1.923096	-0.079800	1.183654
C43	C	0.982793	-0.390128	0.691304
C44	C	1.482793	0.109872	1.191304
C45	C	0.864644	-0.381669	0.676344
C46	C	1.364644	0.118331	1.176344
C47	C	1.480651	-0.948501	0.757991
C48	C	1.980651	-0.448501	1.257991
C49	C	1.480679	-1.003109	0.758016
C50	C	1.980679	-0.503109	1.258016
O51	O	1.529451	-1.038418	0.821116
O52	O	2.029451	-0.538418	1.321116
N53	N	1.423330	-1.022111	0.683866
N54	N	1.923330	-0.522111	1.183866
C55	C	1.365941	-0.986502	0.609693
C56	C	1.865941	-0.486502	1.109693
O57	O	1.317163	-1.007678	0.546626
O58	O	1.817163	-0.507678	1.046626
C59	C	1.365908	-0.931895	0.609674
C60	C	1.865908	-0.431895	1.109674
C61	C	1.423269	-0.912896	0.683822
C62	C	1.923269	-0.412896	1.183822
C63	C	1.538006	-0.929502	0.832134
C64	C	2.038006	-0.429502	1.332134
C65	C	1.537980	-0.874898	0.832108
C66	C	2.037980	-0.374898	1.332108
C67	C	1.480598	-0.839293	0.757939
C68	C	1.980598	-0.339293	1.257939
C69	C	1.423243	-0.858293	0.683796
C70	C	1.923243	-0.358293	1.183796
C71	C	1.308514	-0.896287	0.535507
C72	C	1.808514	-0.396287	1.035507
C73	C	1.308486	-0.841677	0.535494
C74	C	1.808486	-0.341677	1.035494
C75	C	1.365847	-0.822679	0.609642
C76	C	1.865847	-0.322679	1.109642
C77	C	1.365835	-0.768084	0.609601
C78	C	1.865835	-0.268084	1.109601
N79	N	1.423184	-0.749082	0.683750
N80	N	1.923184	-0.249082	1.183750
C81	C	1.480565	-0.784687	0.757919
C82	C	1.980565	-0.284687	1.257919
C83	C	1.366013	-1.101180	0.609741
C84	C	1.866013	-0.601180	1.109741
C85	C	1.366051	-1.155785	0.609755
C86	C	1.866051	-0.655785	1.109755
C87	C	1.480787	-1.172389	0.758079
C88	C	1.980787	-0.672389	1.258079
C89	C	1.480754	-1.117782	0.758059
C90	C	1.980754	-0.617782	1.258059
C91	C	1.423362	-1.082178	0.683890
C92	C	1.923362	-0.582178	1.183890
C93	C	1.480506	-0.670014	0.757858
C94	C	1.980506	-0.170014	1.257858
C95	C	1.480478	-0.615405	0.757823
C96	C	1.980478	-0.115405	1.257823
C97	C	1.365738	-0.598806	0.609503
C98	C	1.865738	-0.098806	1.109503
C99	C	1.365770	-0.653411	0.609534
C100	C	1.865770	-0.153411	1.109534
C101	C	1.423156	-0.689014	0.683721
C102	C	1.923156	-0.189014	1.183721
O103	O	1.317084	-0.732744	0.546536
O104	O	1.817084	-0.232744	1.046536
O105	O	1.529324	-0.763502	0.820984
O106	O	2.029324	-0.263502	1.320984
C107	C	1.691445	-0.405097	0.717776
C108	C	2.191445	0.094903	1.217776
C109	C	1.805755	-0.413297	0.732276
C110	C	2.305755	0.086703	1.232276
C111	C	1.389174	-0.400687	0.951989
C112	C	1.889174	0.099313	1.451989
C113	C	1.374675	-0.407008	1.066297
C114	C	1.874675	0.092992	1.566297
C115	C	1.423360	-0.249501	0.683874
C116	C	1.923360	0.250499	1.183874
C117	C	1.423429	-0.191395	0.683928
C118	C	1.923429	0.308605	1.183928
C119	C	1.457151	-0.371049	0.416560
C120	C	1.957151	0.128951	0.916560
C121	C	1.471850	-0.364595	0.302278
C122	C	1.971850	0.135405	0.802278
C123	C	1.430751	-0.382537	1.125216
C124	C	1.930751	0.117463	1.625216
C125	C	1.415766	-0.389069	1.243360
C126	C	1.915766	0.110931	1.743360
H127	H	0.827597	-0.348328	0.617389
H128	H	1.327597	0.151672	1.117389
H129	H	0.842799	-0.446634	0.791242
H130	H	1.342799	0.053366	1.291242
O131	O	1.337467	-0.423227	1.292378
O132	O	1.837467	0.076773	1.792378
H133	H	1.337988	-0.422999	1.377480
H134	H	1.837988	0.077001	1.877480
O135	O	0.992624	-0.314351	0.557264
O136	O	1.492624	0.185649	1.057264
H137	H	0.907526	-0.314642	0.557758
H138	H	1.407526	0.185358	1.057758
H139	H	1.527509	-1.201389	0.818473
H140	H	2.027509	-0.701389	1.318473
O141	O	1.542361	-0.594913	0.837789
O142	O	2.042361	-0.094913	1.337789
H143	H	1.582262	-0.628848	0.889368
H144	H	2.082262	-0.128848	1.389368
H145	H	1.584685	-0.859433	0.892488
H146	H	2.084685	-0.359433	1.392488
H147	H	1.530951	-0.338805	1.265262
H148	H	2.030951	0.161195	1.765262
H149	H	1.527228	-0.698997	0.818274
H150	H	2.027228	-0.198997	1.318274
O151	O	1.509039	-0.348380	1.076184
O152	O	2.009039	0.151620	1.576184
H153	H	1.547832	-0.331445	1.137315
H154	H	2.047832	0.168555	1.637315
H155	H	1.315566	-0.432789	1.103317
H156	H	1.815566	0.067211	1.603317
H157	H	1.319281	-1.072192	0.549335
H158	H	1.819281	-0.572192	1.049335
H159	H	1.019844	-0.423463	0.750262
H160	H	1.519844	0.076537	1.250262
O161	O	1.599906	-0.967901	0.912133
O162	O	2.099906	-0.467901	1.412133
H163	H	1.639782	-0.945506	0.963673
H164	H	2.139782	-0.445506	1.463673
O165	O	1.542625	-1.097291	0.838028
O166	O	2.042625	-0.597291	1.338028
H167	H	1.582528	-1.131229	0.889601
H168	H	2.082528	-0.631229	1.389601
H169	H	1.319354	-1.171249	0.549366
H170	H	1.819354	-0.671249	1.049366
H171	H	1.261805	-0.911745	0.475127
H172	H	1.761805	-0.411745	0.975127
O173	O	1.246593	-0.803274	0.455488
O174	O	1.746593	-0.303274	0.955488
H175	H	1.206726	-0.825663	0.403931
H176	H	1.706726	-0.325663	0.903931
O177	O	1.303908	-0.673908	0.529562
O178	O	1.803908	-0.173908	1.029562
H179	H	1.263999	-0.639973	0.477986
H180	H	1.763999	-0.139973	0.977986
O181	O	1.303846	-0.560400	0.529509
O182	O	1.803846	-0.060400	1.029509
H183	H	1.313459	-0.519238	0.541963
H184	H	1.813459	-0.019238	1.041963
