data_functionalizedCrystal
_audit_creation_method	'MofGen! by Chris Wilmer'
_symmetry_space_group_name_H-M	'P1'
_symmetry_Int_Tables_number	1
_symmetry_cell_setting	triclinic
loop_
_symmetry_equiv_pos_as_xyz
  x,y,z
_cell_length_a	15.944551
_cell_length_b	19.288865
_cell_length_c	18.366186
_cell_angle_alpha	90.011479
_cell_angle_beta	90.004555
_cell_angle_gamma	83.317493
loop_
_atom_site_label
_atom_site_type_symbol
_atom_site_fract_x
_atom_site_fract_y
_atom_site_fract_z
O1	O	-1.114185	-0.089583	-0.060482
O2	O	-0.614185	0.410417	0.439518
O3	O	-0.869592	-0.100628	-0.060501
O4	O	-0.369592	0.399372	0.439499
O5	O	-0.998956	0.006006	-0.060477
O6	O	-0.498956	0.506006	0.439523
O7	O	-0.984821	-0.196217	-0.060507
O8	O	-0.484821	0.303783	0.439493
O9	O	-0.998934	0.006012	0.060622
O10	O	-0.498934	0.506012	0.560622
O11	O	-0.869570	-0.100622	0.060598
O12	O	-0.369570	0.399378	0.560598
O13	O	-1.114163	-0.089578	0.060617
O14	O	-0.614163	0.410422	0.560617
Zn15	Zn	-0.991863	-0.095099	0.079835
Zn16	Zn	-0.491863	0.404901	0.579835
Zn17	Zn	-0.991892	-0.095106	-0.079719
Zn18	Zn	-0.491892	0.404894	0.420281
O19	O	-0.984799	-0.196212	0.060593
O20	O	-0.484799	0.303788	0.560593
C21	C	-0.838289	-0.100167	0.000046
C22	C	-0.338289	0.399833	0.500046
C23	C	-0.745048	-0.098792	0.000039
C24	C	-0.245048	0.401208	0.500039
C25	C	-1.145466	-0.090039	0.000068
C26	C	-0.645466	0.409961	0.500068
C27	C	-1.238706	-0.091414	0.000070
C28	C	-0.738706	0.408586	0.500070
N29	N	-0.991849	-0.095094	0.188726
N30	N	-0.491849	0.404906	0.688726
C31	C	-0.530459	-0.029410	0.000064
C32	C	-0.030459	0.470590	0.500064
C33	C	-0.469326	-0.061631	-0.059649
C34	C	0.030674	0.438369	0.440351
C35	C	-0.574332	-0.096305	0.000048
C36	C	-0.074332	0.403695	0.500048
C37	C	-0.469326	-0.061642	0.059745
C38	C	0.030674	0.438358	0.559745
C39	C	-0.409429	-0.093898	0.000060
C40	C	0.090571	0.406102	0.500060
C41	C	-0.514427	-0.128545	-0.059714
C42	C	-0.014427	0.371455	0.440286
C43	C	-0.514434	-0.128546	0.059734
C44	C	-0.014434	0.371454	0.559734
C45	C	-0.453318	-0.160816	0.000006
C46	C	0.046682	0.339184	0.500006
C47	C	-0.669329	-0.097690	0.000041
C48	C	-0.169329	0.402310	0.500041
C49	C	-0.314433	-0.092519	0.000062
C50	C	0.185567	0.407481	0.500062
C51	C	-0.998490	0.031887	0.000075
C52	C	-0.498490	0.531887	0.500075
C53	C	-0.997125	0.108994	0.000081
C54	C	-0.497125	0.608994	0.500081
C55	C	-0.985265	-0.222092	0.000039
C56	C	-0.485265	0.277908	0.500039
C57	C	-0.986630	-0.299199	0.000028
C58	C	-0.486630	0.200801	0.500028
C59	C	-1.073030	0.153490	0.000091
C60	C	-0.573030	0.653490	0.500091
C61	C	-1.071747	0.225941	0.000079
C62	C	-0.571747	0.725941	0.500079
C63	C	-0.994555	0.253891	0.000073
C64	C	-0.494555	0.753891	0.500073
C65	C	-0.918641	0.209385	0.000059
C66	C	-0.418641	0.709385	0.500059
C67	C	-0.919925	0.136936	0.000063
C68	C	-0.419925	0.636936	0.500063
C69	C	-0.933866	0.362341	0.042486
C70	C	-0.433866	0.862341	0.542486
C71	C	-0.932584	0.434788	0.042486
C72	C	-0.432584	0.934788	0.542486
C73	C	-0.990589	0.477347	0.000056
C74	C	-0.490589	0.977347	0.500056
C75	C	-1.049890	0.447451	-0.042365
C76	C	-0.549890	0.947451	0.457635
C77	C	-1.051175	0.375003	-0.042361
C78	C	-0.551175	0.875003	0.457639
C79	C	-0.993153	0.332449	0.000067
C80	C	-0.493153	0.832449	0.500067
C81	C	-1.065108	0.600404	0.000052
C82	C	-0.565108	1.100404	0.500052
C83	C	-1.063822	0.672855	0.000036
C84	C	-0.563822	1.172855	0.500036
C85	C	-0.910714	0.656298	0.000023
C86	C	-0.410714	1.156298	0.500023
C87	C	-0.912002	0.583848	0.000032
C88	C	-0.412002	1.083848	0.500032
C89	C	-0.989201	0.555906	0.000050
C90	C	-0.489201	1.055906	0.500050
N91	N	-0.991912	-0.095106	-0.188610
N92	N	-0.491912	0.404894	0.311390
C93	C	-1.049150	-0.047900	0.226837
C94	C	-0.549150	0.452100	0.726837
C95	C	-1.049156	-0.047897	0.303065
C96	C	-0.549156	0.452103	0.803065
C97	C	-0.991868	-0.095100	0.341178
C98	C	-0.491868	0.404900	0.841178
C99	C	-0.934556	-0.142298	0.303058
C100	C	-0.434556	0.357702	0.803058
C101	C	-0.934547	-0.142295	0.226832
C102	C	-0.434547	0.357705	0.726832
C103	C	-0.980624	-0.158358	0.461929
C104	C	-0.480624	0.341642	0.961929
C105	C	-0.980639	-0.158362	0.538154
C106	C	-0.480639	0.341638	1.038154
C107	C	-0.991892	-0.095109	0.576286
C108	C	-0.491892	0.404891	1.076286
C109	C	-1.003148	-0.031849	0.538184
C110	C	-0.503148	0.468151	1.038184
C111	C	-1.003138	-0.031846	0.461957
C112	C	-0.503138	0.468154	0.961957
C113	C	-0.991871	-0.095108	0.423833
C114	C	-0.491871	0.404892	0.923833
C115	C	-1.049202	-0.047907	0.697052
C116	C	-0.549202	0.452093	1.197052
C117	C	-1.049201	-0.047903	0.773281
C118	C	-0.549201	0.452097	1.273281
C119	C	-0.934606	-0.142310	0.773273
C120	C	-0.434606	0.357690	1.273273
C121	C	-0.934603	-0.142308	0.697045
C122	C	-0.434603	0.357692	1.197045
C123	C	-0.991905	-0.095107	0.658939
C124	C	-0.491905	0.404893	1.158939
H125	H	-0.564006	0.026108	-0.000002
H126	H	-0.064006	0.526108	0.499998
C127	C	-1.112227	0.004021	0.655133
C128	C	-0.612227	0.504021	1.155133
N129	N	-1.159697	0.043134	0.623562
N130	N	-0.659697	0.543134	1.123562
H131	H	-0.534315	-0.156820	-0.110252
H132	H	-0.034315	0.343180	0.389748
H133	H	-1.125636	0.709084	0.000039
H134	H	-0.625636	1.209084	0.500039
C135	C	-0.442310	-0.023409	-0.127836
C136	C	0.057690	0.476591	0.372164
N137	N	-0.421964	0.005384	-0.179191
N138	N	0.078036	0.505384	0.320809
C139	C	-1.015508	0.037739	0.420048
C140	C	-0.515508	0.537739	0.920048
N141	N	-1.024820	0.090151	0.388482
N142	N	-0.524820	0.590151	0.888482
C143	C	-0.871536	-0.194218	0.344985
C144	C	-0.371536	0.305782	0.844985
N145	N	-0.824065	-0.233324	0.376564
N146	N	-0.324065	0.266676	0.876564
C147	C	-0.442327	-0.023399	0.127944
C148	C	0.057673	0.476601	0.627944
N149	N	-0.421995	0.005410	0.179309
N150	N	0.078005	0.505410	0.679309
H151	H	-0.886629	0.327694	0.077042
H152	H	-0.386629	0.827694	0.577042
H153	H	-0.887885	-0.180727	0.195801
H154	H	-0.387885	0.319273	0.695801
H155	H	-1.135891	0.130744	0.000103
H156	H	-0.635891	0.630744	0.500103
C157	C	-1.150028	0.569664	0.000060
C158	C	-0.650028	1.069664	0.500060
N159	N	-1.213991	0.546513	0.000065
N160	N	-0.713991	1.046513	0.500065
C161	C	-0.408225	-0.235893	-0.000051
C162	C	0.091775	0.264107	0.499949
N163	N	-0.374258	-0.292440	-0.000098
N164	N	0.125742	0.207560	0.499902
C165	C	-0.871627	-0.194277	0.655121
C166	C	-0.371627	0.305723	1.155121
N167	N	-0.824209	-0.233437	0.623544
N168	N	-0.324209	0.266563	1.123544
H169	H	-0.534447	-0.156815	0.110211
H170	H	-0.034447	0.343185	0.610211
C171	C	-0.836420	0.087988	0.000055
C172	C	-0.336420	0.587988	0.500055
N173	N	-0.773523	0.051119	0.000050
N174	N	-0.273523	0.551119	0.500050
H175	H	-0.850192	0.547618	0.000028
H176	H	-0.350192	1.047618	0.500028
C177	C	-1.155251	0.274896	0.000094
C178	C	-0.655251	0.774896	0.500094
N179	N	-1.218147	0.311767	0.000108
N180	N	-0.718147	0.811767	0.500108
H181	H	-1.095818	-0.009464	0.334101
H182	H	-0.595818	0.490536	0.834101
C183	C	-1.116399	0.342119	-0.089029
C184	C	-0.616399	0.842119	0.410971
N185	N	-1.165523	0.317351	-0.124183
N186	N	-0.665523	0.817351	0.375817
C187	C	-0.871589	-0.194235	0.815194
C188	C	-0.371589	0.305765	1.315194
N189	N	-0.824123	-0.233346	0.846772
N190	N	-0.324123	0.266654	1.346772
H191	H	-1.012310	0.019658	0.569229
H192	H	-0.512310	0.519658	1.069229
C193	C	-1.113698	0.494261	-0.089046
C194	C	-0.613698	0.994261	0.410954
N195	N	-1.161757	0.529521	-0.124204
N196	N	-0.661757	1.029521	0.375796
C197	C	-0.825802	0.687040	0.000013
C198	C	-0.325802	1.187040	0.500013
N199	N	-0.761843	0.710197	0.000004
N200	N	-0.261843	1.210197	0.500004
C201	C	-1.112226	0.004029	0.815204
C202	C	-0.612226	0.504029	1.315204
N203	N	-1.159694	0.043148	0.846780
N204	N	-0.659694	0.543148	1.346780
C205	C	-0.833729	0.240133	0.000057
C206	C	-0.333729	0.740133	0.500057
N207	N	-0.769772	0.263291	0.000055
N208	N	-0.269772	0.763291	0.500055
H209	H	-1.095807	-0.009465	0.195813
H210	H	-0.595807	0.490535	0.695813
C211	C	-0.968249	-0.227948	0.580059
C212	C	-0.468249	0.272052	1.080059
N213	N	-0.958912	-0.280363	0.611620
N214	N	-0.458912	0.219637	1.111620
C215	C	-0.867352	0.467667	0.089150
C216	C	-0.367352	0.967667	0.589150
N217	N	-0.818217	0.492429	0.124298
N218	N	-0.318217	0.992429	0.624298
C219	C	-0.968244	-0.227946	0.419991
C220	C	-0.468244	0.272054	0.919991
N221	N	-0.958920	-0.280359	0.388405
N222	N	-0.458920	0.219641	0.888405
