data_functionalizedCrystal
_audit_creation_method	'MofGen! by Chris Wilmer'
_symmetry_space_group_name_H-M	'P1'
_symmetry_Int_Tables_number	1
_symmetry_cell_setting	triclinic
loop_
_symmetry_equiv_pos_as_xyz
  x,y,z
_cell_length_a	12.759401
_cell_length_b	12.594516
_cell_length_c	12.759393
_cell_angle_alpha	90.029124
_cell_angle_beta	90.018496
_cell_angle_gamma	90.016214
loop_
_atom_site_label
_atom_site_type_symbol
_atom_site_fract_x
_atom_site_fract_y
_atom_site_fract_z
Zn1	Zn	1.606246	-0.423675	0.593999
Zn2	Zn	1.606136	-0.601694	0.418327
Zn3	Zn	1.430547	-0.423730	0.418339
Zn4	Zn	1.430532	-0.601612	0.593968
O5	O	1.518365	-0.512678	0.506158
O6	O	1.753252	-0.447300	0.570704
O7	O	1.582804	-0.578144	0.271307
O8	O	1.453907	-0.274777	0.441658
O9	O	1.753171	-0.578090	0.441638
O10	O	1.582991	-0.274736	0.570715
O11	O	1.453800	-0.447395	0.271316
O12	O	1.283524	-0.447316	0.441628
O13	O	1.453880	-0.577951	0.740993
O14	O	1.283513	-0.578005	0.570663
O15	O	1.582976	-0.447221	0.741016
O16	O	1.582789	-0.750629	0.441608
O17	O	1.453774	-0.750569	0.570651
C18	C	1.245398	-0.512658	0.506144
C19	C	1.128621	-0.512676	0.506163
C20	C	1.073781	-0.580834	0.573240
C21	C	0.964057	-0.580848	0.573251
C22	C	0.964023	-0.444541	0.439099
C23	C	1.073745	-0.444523	0.439094
C24	C	1.128657	-0.648987	0.640308
C25	C	1.073816	-0.717152	0.707390
C26	C	0.964092	-0.717165	0.707402
C27	C	0.909209	-0.649014	0.640331
C28	C	1.518296	-0.789219	0.506148
C29	C	1.518363	-0.907524	0.506179
C30	C	1.448185	-0.976783	0.576316
C31	C	1.422585	-1.047654	0.480449
C32	C	1.544058	-1.047453	0.602062
C33	C	1.492713	-0.976836	0.410261
C34	C	1.614230	-0.976629	0.531938
C35	C	1.588667	-1.047468	0.436006
C36	C	1.792398	-0.512698	0.506173
C37	C	1.909175	-0.512707	0.506179
C38	C	1.518439	-0.512570	0.780192
C39	C	1.518470	-0.512525	0.896968
C40	C	1.518463	-0.235057	0.506192
C41	C	1.518505	-0.116752	0.506206
C42	C	1.518352	-0.512708	0.233191
C43	C	1.518525	-0.512454	0.116415
C44	C	1.585700	-0.444447	0.951844
C45	C	1.585725	-0.444409	1.061568
C46	C	1.451288	-0.580534	1.061531
C47	C	1.451258	-0.580567	0.951809
C48	C	1.652912	-0.376405	0.897003
C49	C	1.720147	-0.308323	0.951879
C50	C	1.720172	-0.308284	1.061603
C51	C	1.652962	-0.376328	1.116451
H52	H	1.118509	-0.772632	0.762003
C53	C	1.722531	-0.823311	0.560098
C54	C	1.723563	-0.934476	0.561373
H55	H	1.790031	-0.797289	0.578271
H56	H	1.672465	-0.798064	0.609217
H57	H	1.704413	-0.799191	0.491931
H58	H	1.741673	-0.958596	0.629543
H59	H	1.773644	-0.959733	0.512252
C60	C	1.499654	-1.053638	0.784802
C61	C	1.573329	-1.089326	0.711509
H62	H	1.517724	-1.079482	0.852371
H63	H	1.432094	-1.079007	0.766033
H64	H	1.499192	-0.978220	0.785719
H65	H	1.573785	-1.164745	0.710586
H66	H	1.640907	-1.063963	0.730283
C67	C	1.726069	-0.302344	0.739843
C68	C	1.652882	-0.376442	0.776394
H69	H	1.726044	-0.302366	0.665385
H70	H	1.793855	-0.320758	0.764663
H71	H	1.707929	-0.233650	0.764682
H72	H	1.671026	-0.445137	0.751562
H73	H	1.585081	-0.358034	0.751563
H74	H	1.396498	-0.635985	0.907128
C75	C	1.771380	-0.128107	0.918131
C76	C	1.794017	-0.233526	0.891595
H77	H	1.816981	-0.081930	0.880910
H78	H	1.781019	-0.118350	0.991322
H79	H	1.700788	-0.112544	0.900138
H80	H	1.864607	-0.249091	0.909594
H81	H	1.784387	-0.243287	0.818387
H82	H	0.819864	-0.649021	0.640355
C83	C	1.734850	-0.165058	1.185007
C84	C	1.794068	-0.233440	1.121919
H85	H	1.780474	-0.118848	1.222235
H86	H	1.694844	-0.205574	1.233373
H87	H	1.689081	-0.124362	1.142193
H88	H	1.839831	-0.274141	1.164735
H89	H	1.834091	-0.192919	1.073548
H90	H	1.652975	-0.376279	1.205796
H91	H	1.396567	-0.635932	1.106198
H92	H	0.919444	-0.772661	0.762030
H93	H	0.919328	-0.389056	0.384493
C94	C	1.285855	-0.723180	0.713332
C95	C	1.249266	-0.648971	0.640300
H96	H	1.360313	-0.723164	0.713328
H97	H	1.261018	-0.791835	0.695042
H98	H	1.261058	-0.704855	0.781162
H99	H	1.274056	-0.667300	0.572470
H100	H	1.274113	-0.580300	0.658585
H101	H	1.388731	-0.945746	0.635542
C102	C	1.107487	-0.392479	0.261272
C103	C	1.134042	-0.369617	0.365355
H104	H	1.144719	-0.346238	0.215750
H105	H	1.034298	-0.382725	0.251677
H106	H	1.125452	-0.463979	0.245797
H107	H	1.116070	-0.298119	0.380832
H108	H	1.207247	-0.379362	0.374954
C109	C	1.239782	-1.054104	0.524573
C110	C	1.313227	-1.089775	0.451041
H111	H	1.172269	-1.080111	0.506424
H112	H	1.238782	-0.978696	0.524972
H113	H	1.258478	-1.079329	0.592191
H114	H	1.294535	-1.064544	0.383423
H115	H	1.314223	-1.165198	0.450632
H116	H	1.470943	-0.945945	0.329163
H117	H	1.648075	-1.078309	0.376636
