data_functionalizedCrystal
_audit_creation_method	'MofGen! by Chris Wilmer'
_symmetry_space_group_name_H-M	'P1'
_symmetry_Int_Tables_number	1
_symmetry_cell_setting	triclinic
loop_
_symmetry_equiv_pos_as_xyz
  x,y,z
_cell_length_a	16.120484
_cell_length_b	13.032831
_cell_length_c	13.032268
_cell_angle_alpha	89.113023
_cell_angle_beta	80.357249
_cell_angle_gamma	86.078521
loop_
_atom_site_label
_atom_site_type_symbol
_atom_site_fract_x
_atom_site_fract_y
_atom_site_fract_z
Zn1	Zn	-0.562103	1.458766	0.811459
Zn2	Zn	-0.686112	1.471747	0.646236
Zn3	Zn	-0.527333	1.311081	0.615806
Zn4	Zn	-0.681612	1.278313	0.796116
O5	O	-0.614290	1.379976	0.717404
O6	O	-0.594988	1.603247	0.808698
O7	O	-0.652382	1.469580	0.497592
O8	O	-0.415480	1.338953	0.635446
O9	O	-0.686097	1.612784	0.687309
O10	O	-0.441026	1.447456	0.779192
O11	O	-0.535727	1.351539	0.475236
O12	O	-0.531364	1.163974	0.620568
O13	O	-0.678427	1.283104	0.942758
O14	O	-0.644712	1.139900	0.753041
O15	O	-0.590624	1.415682	0.954031
O16	O	-0.801980	1.437806	0.672431
O17	O	-0.798674	1.295691	0.782547
C18	C	-0.583777	1.114921	0.681838
C19	C	-0.570746	1.001525	0.666648
C20	C	-0.621091	0.939092	0.725332
C21	C	-0.607624	0.821890	0.709634
C22	C	-0.830530	1.364626	0.729153
C23	C	-0.923053	1.358148	0.734226
C24	C	-1.092455	1.346324	0.743510
C25	C	-1.135307	1.413810	0.691340
C26	C	-1.229569	1.407231	0.696506
C27	C	-0.998185	1.352901	0.738345
C28	C	-0.397210	1.395412	0.705636
C29	C	-0.304704	1.401989	0.700622
C30	C	-0.637902	1.344290	0.986938
C31	C	-0.647964	1.329082	1.101797
C32	C	-0.644923	1.646067	0.753110
C33	C	-0.657977	1.759458	0.768325
C34	C	-0.590717	1.415587	0.448924
C35	C	-0.580443	1.431009	0.334079
C36	C	-0.609007	1.387900	1.158582
C37	C	-0.619405	1.372183	1.277296
H38	H	-0.517670	0.968208	0.604790
H39	H	-0.554544	0.788578	0.647771
H40	H	-0.539383	1.492999	1.294813
O41	O	-0.673782	1.290055	1.329293
H42	H	-0.725663	1.326236	1.386891
O43	O	-0.728283	0.803566	0.850283
H44	H	-0.727832	0.888698	0.849752
H45	H	-0.689009	1.267086	1.141066
H46	H	-0.674162	0.972408	0.787198
H47	H	-1.101202	1.476527	0.642796
H48	H	-1.126557	1.283610	0.792048
H49	H	-0.567952	1.449887	1.119311
