data_functionalizedCrystal
_audit_creation_method	'MofGen! by Chris Wilmer'
_symmetry_space_group_name_H-M	'P1'
_symmetry_Int_Tables_number	1
_symmetry_cell_setting	triclinic
loop_
_symmetry_equiv_pos_as_xyz
  x,y,z
_cell_length_a	14.044220
_cell_length_b	17.699083
_cell_length_c	16.776229
_cell_angle_alpha	90.001114
_cell_angle_beta	89.992645
_cell_angle_gamma	91.764054
loop_
_atom_site_label
_atom_site_type_symbol
_atom_site_fract_x
_atom_site_fract_y
_atom_site_fract_z
O1	O	0.119850	-1.012346	-0.066178
O2	O	0.135443	-0.793043	-0.066204
O3	O	-0.010330	-0.899403	-0.066183
O4	O	0.265624	-0.905986	-0.066198
O5	O	-0.010339	-0.899387	0.066393
O6	O	0.135434	-0.793027	0.066372
O7	O	0.119841	-1.012330	0.066399
Zn8	Zn	0.127636	-0.902676	0.087435
Zn9	Zn	0.127648	-0.902697	-0.087240
O10	O	0.265615	-0.905970	0.066378
C11	C	0.134880	-0.764800	0.000081
C12	C	0.133204	-0.680666	0.000071
C13	C	-0.045643	-0.896513	0.000105
C14	C	-0.150849	-0.887917	0.000105
C15	C	0.120404	-1.040574	0.000112
C16	C	0.122081	-1.124707	0.000117
C17	C	-0.343474	-0.872202	0.000091
C18	C	-0.401248	-0.933168	0.000096
C19	C	-0.508431	-0.924424	0.000089
C20	C	-0.236281	-0.880945	0.000099
C21	C	0.300927	-0.908860	0.000088
C22	C	0.406133	-0.917456	0.000083
N23	N	0.127628	-0.902667	0.206646
C24	C	0.218769	-0.637948	0.000067
C25	C	0.217189	-0.558895	0.000077
C26	C	0.130041	-0.522563	0.000086
C27	C	0.044469	-0.565287	0.000093
C28	C	0.046050	-0.644338	0.000088
C29	C	0.038089	-0.246484	0.000113
C30	C	0.036514	-0.167427	0.000115
C31	C	0.209227	-0.161041	0.000102
C32	C	0.210809	-0.240092	0.000097
C33	C	0.125237	-0.282809	0.000108
C34	C	0.126952	-0.368527	0.000098
C35	C	0.128325	-0.436847	0.000090
N36	N	0.127649	-0.902712	-0.206452
C37	C	0.063106	-0.949781	0.248372
C38	C	0.063105	-0.949785	0.331825
C39	C	0.127631	-0.902679	0.373549
C40	C	0.192156	-0.855560	0.331817
C41	C	0.192152	-0.855552	0.248366
C42	C	0.192175	-0.855589	0.668364
C43	C	0.192176	-0.855601	0.751821
C44	C	0.063128	-0.949821	0.751822
C45	C	0.063123	-0.949813	0.668372
C46	C	0.127645	-0.902692	0.626647
C47	C	0.127644	-0.902687	0.536159
C48	C	0.127638	-0.902687	0.464036
H49	H	-0.370212	-0.991930	0.000050
H50	H	-0.374508	-0.813445	0.000082
C51	C	-0.056038	-0.293466	0.000111
C52	C	-0.151896	-0.253499	0.000110
C53	C	-0.246027	-0.300485	0.000105
C54	C	-0.244302	-0.387439	0.000099
C55	C	-0.148441	-0.427411	0.000100
C56	C	-0.054309	-0.380424	0.000106
H57	H	-0.153176	-0.189127	0.000114
H58	H	-0.316990	-0.270895	0.000104
H59	H	-0.313984	-0.422221	0.000095
H60	H	-0.147160	-0.491783	0.000096
H61	H	0.016654	-0.410015	0.000107
C62	C	0.311313	-0.511905	0.000075
C63	C	0.407174	-0.551868	0.000062
C64	C	0.501302	-0.504877	0.000065
C65	C	0.499571	-0.417924	0.000080
C66	C	0.403707	-0.377957	0.000093
C67	C	0.309578	-0.424947	0.000091
H68	H	0.408459	-0.616240	0.000050
H69	H	0.572267	-0.534465	0.000055
H70	H	0.569250	-0.383139	0.000082
H71	H	0.402422	-0.313584	0.000105
H72	H	0.238613	-0.395360	0.000101
C73	C	-0.007877	-1.001599	0.202480
C74	C	-0.078853	-1.053419	0.248383
C75	C	-0.149840	-1.105237	0.202493
C76	C	-0.149850	-1.105235	0.110700
C77	C	-0.078871	-1.053413	0.064793
C78	C	-0.007884	-1.001595	0.110682
H79	H	-0.078848	-1.053422	0.316338
H80	H	-0.202383	-1.143599	0.236478
H81	H	-0.202398	-1.143594	0.076730
H82	H	-0.078876	-1.053410	-0.003162
H83	H	0.044660	-0.963233	0.076698
H84	H	0.244712	-0.817222	0.634398
H85	H	0.010565	-0.988148	0.365798
C86	C	-0.007858	-1.001629	0.622475
C87	C	-0.078838	-1.053451	0.668370
C88	C	-0.149823	-1.105265	0.622474
C89	C	-0.149828	-1.105256	0.530681
C90	C	-0.078844	-1.053432	0.484780
C91	C	-0.007859	-1.001618	0.530677
H92	H	-0.078837	-1.053460	0.736325
H93	H	-0.202370	-1.143629	0.656453
H94	H	-0.202375	-1.143612	0.496706
H95	H	-0.078845	-1.053424	0.416825
H96	H	0.044687	-0.963255	0.496697
H97	H	0.289735	-0.667523	0.000059
H98	H	-0.026488	-0.535699	0.000112
C99	C	-0.007857	-1.001650	0.797721
C100	C	-0.006395	-1.087930	0.786236
C101	C	-0.077375	-1.139760	0.832132
C102	C	-0.149817	-1.105310	0.889512
C103	C	-0.151281	-1.019026	0.900999
C104	C	-0.080301	-0.967196	0.855104
H105	H	0.047232	-1.113435	0.743758
H106	H	-0.076291	-1.203633	0.823628
H107	H	-0.202361	-1.143678	0.923486
H108	H	-0.204909	-0.993521	0.943477
H109	H	-0.081385	-0.903323	0.863607
H110	H	0.244692	-0.817201	0.365794
H111	H	0.244691	-0.817187	0.214394
C112	C	0.263154	-0.803777	0.797720
C113	C	0.261686	-0.717494	0.786266
C114	C	0.332660	-0.665674	0.832166
C115	C	0.405103	-0.700136	0.889520
C116	C	0.406574	-0.786422	0.900976
C117	C	0.335600	-0.838243	0.855076
H118	H	0.208057	-0.691980	0.743807
H119	H	0.331571	-0.601798	0.823685
H120	H	0.457642	-0.661775	0.923497
H121	H	0.460203	-0.811937	0.943435
H122	H	0.336689	-0.902118	0.863557
H123	H	0.281773	-0.269670	0.000086
H124	H	-0.023626	-0.679119	0.000091
H125	H	0.278904	-0.126251	0.000097
H126	H	-0.034456	-0.137848	0.000124
