data_functionalizedCrystal
_audit_creation_method	'MofGen! by Chris Wilmer'
_symmetry_space_group_name_H-M	'P1'
_symmetry_Int_Tables_number	1
_symmetry_cell_setting	triclinic
loop_
_symmetry_equiv_pos_as_xyz
  x,y,z
_cell_length_a	6.394989
_cell_length_b	10.654550
_cell_length_c	9.730223
_cell_angle_alpha	90.004253
_cell_angle_beta	90.002753
_cell_angle_gamma	85.491321
loop_
_atom_site_label
_atom_site_type_symbol
_atom_site_fract_x
_atom_site_fract_y
_atom_site_fract_z
O1	O	-2.774472	-0.205783	-0.114276
O2	O	-2.166494	-0.216150	-0.114281
O3	O	-2.484462	-0.028376	-0.114270
O4	O	-2.456505	-0.393558	-0.114287
O5	O	-2.484441	-0.028370	0.114310
O6	O	-2.166473	-0.216145	0.114299
O7	O	-2.774452	-0.205778	0.114304
Zn8	Zn	-2.470459	-0.210960	0.150593
Zn9	Zn	-2.470486	-0.210968	-0.150570
O10	O	-2.456484	-0.393552	0.114293
C11	C	-2.482399	0.018447	0.000020
C12	C	-2.476257	0.157955	0.000017
C13	C	-2.458547	-0.440375	0.000000
C14	C	-2.464689	-0.579883	-0.000006
N15	N	-2.470456	-0.210955	0.356130
C16	C	-2.088633	-0.214098	0.000015
C17	C	-1.852307	-0.207833	0.000021
N18	N	-2.470506	-0.210963	-0.356107
C19	C	-2.663471	0.235458	0.000019
C20	C	-2.657688	0.366540	0.000002
C21	C	-2.277460	0.342604	-0.000012
C22	C	-2.283245	0.211524	-0.000005
C23	C	-2.611301	-0.127845	0.428061
C24	C	-2.611321	-0.127846	0.571944
C25	C	-2.329647	-0.294077	0.571952
C26	C	-2.329617	-0.294070	0.428072
H27	H	-2.820634	0.191847	0.000034
C28	C	-2.766245	-0.036407	0.651062
N29	N	-2.882933	0.032473	0.710652
H30	H	-2.214982	-0.361749	0.630541
H31	H	-2.120316	0.386236	-0.000027
C32	C	-2.174765	-0.385561	0.348943
N33	N	-2.058167	-0.454488	0.289343
H34	H	-2.130783	0.148418	-0.000010
H35	H	-2.725977	-0.060166	0.369489
C36	C	-2.863640	0.451788	0.000015
N37	N	-3.018772	0.515997	0.000028
