data_functionalizedCrystal
_audit_creation_method	'MofGen! by Chris Wilmer'
_symmetry_space_group_name_H-M	'P1'
_symmetry_Int_Tables_number	1
_symmetry_cell_setting	triclinic
loop_
_symmetry_equiv_pos_as_xyz
  x,y,z
_cell_length_a	18.050591
_cell_length_b	12.645330
_cell_length_c	12.645324
_cell_angle_alpha	90.031659
_cell_angle_beta	89.972200
_cell_angle_gamma	89.986302
loop_
_atom_site_label
_atom_site_type_symbol
_atom_site_fract_x
_atom_site_fract_y
_atom_site_fract_z
Zn1	Zn	1.135397	0.422073	-0.599611
Zn2	Zn	1.135316	0.599382	-0.422351
Zn3	Zn	1.011202	0.422120	-0.422337
Zn4	Zn	1.011187	0.599282	-0.599548
O5	O	1.073276	0.510714	-0.510962
O6	O	1.239311	0.445615	-0.576129
O7	O	1.118824	0.575929	-0.274002
O8	O	1.027716	0.273767	-0.445873
O9	O	1.239251	0.575883	-0.445897
O10	O	1.118963	0.273732	-0.576116
O11	O	1.027638	0.445696	-0.273992
O12	O	0.907275	0.445600	-0.445813
O13	O	1.027692	0.575714	-0.747904
O14	O	0.907265	0.575760	-0.576009
O15	O	1.118949	0.445518	-0.747950
O16	O	1.118810	0.747716	-0.445836
O17	O	1.027613	0.747643	-0.576022
C18	C	0.880323	0.510675	-0.510903
C19	C	0.797778	0.510684	-0.510903
C20	C	1.073221	0.786144	-0.510947
C21	C	1.073266	0.903974	-0.510976
C22	C	1.073328	0.510600	-0.787467
C23	C	1.073350	0.510551	-0.905297
C24	C	0.598311	0.439820	-0.440266
C25	C	0.548902	0.536516	-0.414186
C26	C	0.646647	0.510716	-0.510951
C27	C	0.548975	0.414053	-0.537028
C28	C	0.500662	0.510738	-0.510995
C29	C	0.598325	0.607463	-0.484821
C30	C	0.598403	0.484934	-0.607708
C31	C	0.549016	0.581697	-0.581665
C32	C	0.730746	0.510701	-0.510923
C33	C	0.416566	0.510764	-0.511024
C34	C	1.266981	0.510755	-0.511021
C35	C	1.349527	0.510772	-0.511047
C36	C	1.073350	0.234209	-0.511000
C37	C	1.073382	0.116379	-0.511016
C38	C	1.016131	1.071536	-0.593129
C39	C	1.015839	0.948977	-0.592865
C40	C	1.052079	0.948579	-0.399251
C41	C	1.051730	1.071178	-0.399750
C42	C	1.151938	1.071068	-0.539642
C43	C	1.151456	0.948461	-0.542085
C44	C	1.130773	0.428627	-0.950208
C45	C	1.131019	0.428841	-1.072768
C46	C	1.094336	0.622322	-1.073182
C47	C	1.094731	0.621876	-0.950584
C48	C	0.994843	0.481621	-0.950457
C49	C	0.995285	0.479128	-1.073064
C50	C	1.073266	0.510752	-0.235532
C51	C	1.073388	0.510502	-0.117703
H52	H	0.619956	0.379931	-0.380424
H53	H	1.054695	0.684995	-0.920870
H54	H	0.958257	1.102433	-0.574405
C55	C	0.937168	0.909470	-0.567229
H56	H	0.905265	0.968349	-0.556926
H57	H	0.919324	0.867736	-0.624266
H58	H	0.938381	0.867966	-0.504655
C59	C	0.974155	1.109945	-0.367003
H60	H	0.973259	1.185063	-0.367015
H61	H	0.938439	1.084005	-0.415679
H62	H	0.962914	1.084691	-0.298099
H63	H	1.188615	0.447574	-0.919422
C64	C	1.178048	1.112715	-0.647832
H65	H	1.141279	1.158131	-0.676559
H66	H	1.222983	1.150848	-0.639259
H67	H	1.185972	1.054854	-0.694437
C68	C	0.519693	0.303612	-0.566808
H69	H	0.536581	0.253323	-0.516500
H70	H	0.467072	0.304564	-0.567246
H71	H	0.537378	0.284804	-0.635046
C72	C	1.033720	0.908224	-0.704784
H73	H	1.041227	0.966596	-0.750822
H74	H	1.077358	0.866280	-0.702631
H75	H	0.993585	0.866670	-0.729958
C76	C	1.212120	0.907078	-0.467183
H77	H	1.258728	0.935206	-0.487837
H78	H	1.201269	0.928421	-0.396822
H79	H	1.213794	0.832068	-0.470690
H80	H	0.975704	0.401487	-0.919537
C81	C	1.113307	0.316294	-0.910418
H82	H	1.148588	0.268045	-0.938420
H83	H	1.115490	0.315069	-0.835374
H84	H	1.065065	0.296457	-0.932930
H85	H	1.117930	0.345942	-1.102873
C86	C	1.033801	1.111386	-0.705387
H87	H	1.076257	1.155720	-0.703191
H88	H	1.043249	1.052760	-0.750422
H89	H	0.992780	1.150328	-0.731793
H90	H	1.194592	1.100067	-0.479837
C91	C	0.519523	0.565996	-0.303678
H92	H	0.536396	0.515549	-0.253519
H93	H	0.537145	0.634185	-0.284681
H94	H	0.466899	0.566417	-0.304657
C95	C	1.105602	1.111264	-0.314269
H96	H	1.127599	1.052619	-0.279387
H97	H	1.143168	1.152935	-0.346369
H98	H	1.079262	1.152953	-0.264297
H99	H	0.620162	0.463081	-0.689491
C100	C	1.209617	0.454737	-1.112426
H101	H	1.241519	0.465177	-1.053608
H102	H	1.227573	0.397743	-1.154166
H103	H	1.208252	0.517287	-1.153957
H104	H	0.527507	0.641730	-0.641461
C105	C	0.973932	0.367964	-1.112376
H106	H	1.012447	0.340780	-1.155818
H107	H	0.966804	0.322502	-1.053467
H108	H	0.929375	0.372036	-1.152121
C109	C	1.106617	0.909202	-0.314336
H110	H	1.142877	0.865098	-0.346344
H111	H	1.130236	0.968057	-0.282047
H112	H	1.080380	0.870134	-0.262239
C113	C	1.172246	0.654921	-0.911974
H114	H	1.203199	0.668486	-0.971215
H115	H	1.168314	0.717069	-0.870110
H116	H	1.193054	0.599577	-0.870793
H117	H	1.053804	0.685016	-1.102283
H118	H	0.995252	0.917965	-0.374564
C119	C	1.173052	0.909058	-0.653152
H120	H	1.134584	0.865671	-0.680458
H121	H	1.180307	0.967931	-0.698617
H122	H	1.217584	0.869235	-0.648897
C123	C	1.171015	0.655932	-1.114672
H124	H	1.190365	0.601978	-1.159113
H125	H	1.166420	0.719695	-1.153808
H126	H	1.203573	0.666835	-1.056680
H127	H	0.950246	0.534402	-1.103646
C128	C	0.937050	0.562212	-0.911210
H129	H	0.960609	0.613245	-0.867515
H130	H	0.915017	0.596539	-0.970136
H131	H	0.899877	0.526571	-0.871744
H132	H	0.619912	0.689243	-0.462693
