data_functionalizedCrystal
_audit_creation_method	'MofGen! by Chris Wilmer'
_symmetry_space_group_name_H-M	'P1'
_symmetry_Int_Tables_number	1
_symmetry_cell_setting	triclinic
loop_
_symmetry_equiv_pos_as_xyz
  x,y,z
_cell_length_a	14.044191
_cell_length_b	11.792254
_cell_length_c	10.268362
_cell_angle_alpha	90.004525
_cell_angle_beta	89.998454
_cell_angle_gamma	91.304813
loop_
_atom_site_label
_atom_site_type_symbol
_atom_site_fract_x
_atom_site_fract_y
_atom_site_fract_z
O1	O	-0.130045	1.519112	0.108289
O2	O	-0.143429	1.190030	0.108290
O3	O	0.001273	1.349627	0.108292
O4	O	-0.274747	1.359515	0.108287
O5	O	0.001279	1.349612	-0.108309
O6	O	-0.143423	1.190014	-0.108310
O7	O	-0.130039	1.519097	-0.108312
Cu8	Cu	-0.136730	1.354554	-0.128088
Cu9	Cu	-0.136738	1.354573	0.128067
O10	O	-0.274741	1.359499	-0.108314
C11	C	-0.142583	1.147652	-0.000009
C12	C	-0.140059	1.021402	-0.000008
C13	C	-0.138009	0.918873	-0.000003
C14	C	-0.135445	0.790246	-0.000002
C15	C	-0.310081	1.363832	-0.000014
C16	C	-0.415374	1.376735	-0.000015
C17	C	-0.665309	1.308817	-0.000004
C18	C	-0.608153	1.400304	-0.000006
C19	C	-0.500881	1.387187	-0.000011
C20	C	-0.772591	1.321933	0.000001
C21	C	0.036613	1.345294	-0.000005
C22	C	0.141906	1.332392	0.000005
C23	C	-0.130885	1.561474	-0.000009
C24	C	-0.133409	1.687724	-0.000002
N25	N	-0.136725	1.354549	-0.308254
C26	C	-0.136736	1.354567	-0.573925
C27	C	-0.136732	1.354554	-0.426087
N28	N	-0.136736	1.354586	0.308233
H29	H	-0.639785	1.488480	0.000087
O30	O	-0.623421	1.192021	-0.000032
H31	H	-0.544516	1.199919	-0.000053
