data_functionalizedCrystal
_audit_creation_method	'MofGen! by Chris Wilmer'
_symmetry_space_group_name_H-M	'P1'
_symmetry_Int_Tables_number	1
_symmetry_cell_setting	triclinic
loop_
_symmetry_equiv_pos_as_xyz
  x,y,z
_cell_length_a	23.532407
_cell_length_b	15.995350
_cell_length_c	15.072220
_cell_angle_alpha	89.998899
_cell_angle_beta	89.992868
_cell_angle_gamma	96.829474
loop_
_atom_site_label
_atom_site_type_symbol
_atom_site_fract_x
_atom_site_fract_y
_atom_site_fract_z
O1	O	0.755658	-0.101636	-0.073668
O2	O	1.255658	0.398364	0.426332
O3	O	0.589851	-0.116342	-0.073693
O4	O	1.089851	0.383658	0.426307
O5	O	0.677287	0.012936	-0.073679
O6	O	1.177287	0.512936	0.426321
O7	O	0.668222	-0.230914	-0.073682
O8	O	1.168222	0.269086	0.426318
O9	O	0.677265	0.012929	0.073886
O10	O	1.177265	0.512929	0.573886
O11	O	0.589829	-0.116350	0.073872
O12	O	1.089829	0.383650	0.573872
O13	O	0.755636	-0.101643	0.073897
O14	O	1.255636	0.398357	0.573897
Zn15	Zn	0.672729	-0.108997	0.097314
Zn16	Zn	1.172729	0.391003	0.597314
Zn17	Zn	0.672758	-0.108988	-0.097110
Zn18	Zn	1.172758	0.391012	0.402890
O19	O	0.668200	-0.230922	0.073883
O20	O	1.168200	0.269078	0.573883
C21	C	0.568623	-0.115971	0.000086
C22	C	1.068623	0.384029	0.500086
C23	C	0.505401	-0.114846	0.000076
C24	C	1.005401	0.385154	0.500076
C25	C	0.106565	-0.184288	0.000116
C26	C	0.606565	0.315712	0.500116
C27	C	0.047161	-0.183242	0.000121
C28	C	0.547161	0.316758	0.500121
O29	O	0.010664	-0.247615	0.000152
O30	O	0.510664	0.252385	0.500152
N31	N	0.024239	-0.106386	0.000120
N32	N	0.524239	0.393614	0.500120
C33	C	0.060725	-0.030570	0.000124
C34	C	0.560725	0.469430	0.500124
O35	O	0.035773	0.034898	0.000124
O36	O	0.535773	0.534898	0.500124
C37	C	0.120128	-0.031617	0.000124
C38	C	0.620128	0.468383	0.500124
C39	C	0.143047	-0.108478	0.000116
C40	C	0.643047	0.391522	0.500116
C41	C	0.129484	-0.261143	0.000108
C42	C	0.629484	0.238857	0.500108
C43	C	0.188885	-0.262188	0.000101
C44	C	0.688885	0.237812	0.500101
C45	C	0.225366	-0.186379	0.000101
C46	C	0.725366	0.313621	0.500101
C47	C	0.202447	-0.109524	0.000109
C48	C	0.702447	0.390476	0.500109
C49	C	0.156613	0.044197	0.000134
C50	C	0.656613	0.544197	0.500134
C51	C	0.216019	0.043143	0.000135
C52	C	0.716019	0.543143	0.500135
C53	C	0.238938	-0.033718	0.000127
C54	C	0.738938	0.466282	0.500127
C55	C	0.298328	-0.034760	0.000102
C56	C	0.798328	0.465240	0.500102
N57	N	0.321250	-0.111617	0.000103
N58	N	0.821250	0.388383	0.500103
C59	C	0.284769	-0.187426	0.000102
C60	C	0.784769	0.312574	0.500102
C61	C	-0.064026	-0.028378	0.000123
C62	C	0.435974	0.471622	0.500123
C63	C	-0.123428	-0.027330	0.000116
C64	C	0.376572	0.472670	0.500116
C65	C	-0.136988	-0.180002	0.000115
C66	C	0.363012	0.319998	0.500115
C67	C	-0.077585	-0.181049	0.000116
C68	C	0.422415	0.318951	0.500116
C69	C	-0.041104	-0.105234	0.000124
C70	C	0.458896	0.394766	0.500124
C71	C	0.409514	-0.189616	0.000087
C72	C	0.909514	0.310384	0.500087
C73	C	0.468920	-0.190655	0.000076
C74	C	0.968920	0.309345	0.500076
C75	C	0.482475	-0.037984	0.000081
C76	C	0.982475	0.462016	0.500081
C77	C	0.423074	-0.036944	0.000087
C78	C	0.923074	0.463056	0.500087
C79	C	0.386594	-0.112767	0.000093
C80	C	0.886594	0.387233	0.500093
O81	O	0.334860	0.029579	0.000074
O82	O	0.834860	0.529579	0.500074
O83	O	0.309729	-0.252883	0.000113
O84	O	0.809729	0.247117	0.500113
C85	C	0.676901	0.044124	0.000102
C86	C	1.176901	0.544124	0.500102
C87	C	0.675778	0.137065	0.000097
C88	C	1.175778	0.637065	0.500097
C89	C	0.776864	-0.102014	0.000116
C90	C	1.276864	0.397986	0.500116
C91	C	0.840086	-0.103140	0.000120
C92	C	1.340086	0.396860	0.500120
C93	C	0.668586	-0.262110	0.000100
C94	C	1.168586	0.237890	0.500100
C95	C	0.669709	-0.355051	0.000100
C96	C	1.169709	0.144949	0.500100
N97	N	0.672714	-0.109004	0.230003
N98	N	1.172714	0.390996	0.730003
C99	C	0.671743	0.474779	0.000099
C100	C	1.171743	0.974779	0.500099
C101	C	0.609473	0.426827	-0.000241
C102	C	1.109473	0.926827	0.499759
C103	C	0.610596	0.330146	0.000091
C104	C	1.110596	0.830146	0.500091
C105	C	0.673744	0.307235	0.000097
C106	C	1.173744	0.807235	0.500097
C107	C	0.704446	0.348564	0.084367
C108	C	1.204446	0.848564	0.584367
C109	C	0.702881	0.445187	0.084438
C110	C	1.202881	0.945187	0.584438
C111	C	0.704192	0.445564	-0.083371
C112	C	1.204192	0.945564	0.416629
C113	C	0.704178	0.348619	-0.084485
C114	C	1.204178	0.848619	0.415515
C115	C	0.674879	0.212547	0.000099
C116	C	1.174879	0.712547	0.500099
C117	C	0.670610	0.569468	0.000103
C118	C	1.170610	1.069468	0.500103
N119	N	0.672777	-0.108975	-0.229798
N120	N	1.172777	0.391025	0.270202
C121	C	0.672757	-0.108985	0.589204
C122	C	1.172757	0.391015	1.089204
C123	C	0.625814	-0.177930	0.551590
C124	C	1.125814	0.322070	1.051590
C125	C	0.625922	-0.178179	0.448764
C126	C	1.125922	0.321821	0.948764
C127	C	0.672735	-0.108994	0.411000
C128	C	1.172735	0.391006	0.911000
C129	C	0.732157	-0.127581	0.448300
C130	C	1.232157	0.372419	0.948300
C131	C	0.731894	-0.128071	0.551158
C132	C	1.231894	0.371929	1.051158
C133	C	0.660806	-0.021244	0.551303
C134	C	1.160806	0.478756	1.051303
C135	C	0.659443	-0.021842	0.448440
C136	C	1.159443	0.478158	0.948440
C137	C	0.672726	-0.108998	0.310287
C138	C	1.172726	0.391002	0.810287
C139	C	0.672769	-0.108983	0.689917
C140	C	1.172769	0.391017	1.189917
H141	H	0.245720	0.104882	0.000142
H142	H	0.745720	0.604882	0.500142
Cl143	Cl	0.557394	-0.161224	0.589787
Cl144	Cl	1.057394	0.338776	1.089787
Cl145	Cl	0.708807	0.061025	0.408770
Cl146	Cl	1.208807	0.561025	0.908770
Cl147	Cl	-0.048780	-0.277677	0.000108
Cl148	Cl	0.451220	0.222323	0.500108
H149	H	0.767923	-0.078681	0.423837
H150	H	1.267923	0.421319	0.923837
H151	H	0.615731	-0.007724	0.424061
H152	H	1.115731	0.492276	0.924061
Cl153	Cl	0.217687	-0.358819	0.000097
Cl154	Cl	0.717687	0.141181	0.500097
Cl155	Cl	0.776073	0.327353	0.089218
Cl156	Cl	1.276073	0.827353	0.589218
H157	H	0.680476	0.463299	0.147426
H158	H	1.180476	0.963299	0.647426
Cl159	Cl	0.637439	-0.277911	0.591462
Cl160	Cl	1.137439	0.222089	1.091462
Cl161	Cl	-0.182861	-0.275306	0.000119
Cl162	Cl	0.317139	0.224694	0.500119
Cl163	Cl	0.671497	0.304472	0.181184
Cl164	Cl	1.171497	0.804472	0.681184
H165	H	0.695039	0.030056	0.575627
H166	H	1.195039	0.530056	1.075627
Cl167	Cl	0.528347	0.057314	0.000086
Cl168	Cl	1.028347	0.557314	0.500086
H169	H	0.404413	0.025642	0.000081
H170	H	0.904413	0.525642	0.500081
Cl171	Cl	0.672768	0.477006	-0.181985
Cl172	Cl	1.172768	0.977006	0.318015
Cl173	Cl	0.363663	-0.284938	0.000093
Cl174	Cl	0.863663	0.215062	0.500093
H175	H	0.618417	-0.003248	0.577287
H176	H	1.118417	0.496752	1.077287
H177	H	0.742425	-0.192044	0.575141
H178	H	1.242425	0.307956	1.075141
Cl179	Cl	0.083632	-0.356459	0.000105
Cl180	Cl	0.583632	0.143541	0.500105
H181	H	-0.142082	0.035258	0.000109
H182	H	0.357918	0.535258	0.500109
H183	H	0.137964	0.106785	0.000141
H184	H	0.637964	0.606785	0.500141
H185	H	0.584593	0.445155	-0.060673
H186	H	1.084593	0.945155	0.439327
Cl187	Cl	0.773463	0.495566	0.090360
Cl188	Cl	1.273463	0.995566	0.590360
Cl189	Cl	0.557717	-0.161249	0.409826
Cl190	Cl	1.057717	0.338751	0.909826
Cl191	Cl	-0.018170	0.066942	0.000123
Cl192	Cl	0.481830	0.566942	0.500123
Cl193	Cl	0.573334	0.285956	-0.093174
Cl194	Cl	1.073334	0.785956	0.406826
H195	H	0.586282	0.302077	0.060595
H196	H	1.086282	0.802077	0.560595
Cl197	Cl	0.669806	0.305778	-0.180750
Cl198	Cl	1.169806	0.805778	0.319250
H199	H	0.767916	-0.079808	0.576039
H200	H	1.267916	0.420192	1.076039
H201	H	0.633553	-0.243300	0.424151
H202	H	1.133553	0.256700	0.924151
H203	H	0.584686	0.446212	0.059846
H204	H	1.084686	0.946212	0.559846
Cl205	Cl	0.748806	-0.225221	0.408520
Cl206	Cl	1.248806	0.274779	0.908520
Cl207	Cl	0.775277	0.325490	-0.092340
Cl208	Cl	1.275277	0.825490	0.407660
H209	H	0.750104	0.477707	-0.083933
H210	H	1.250104	0.977707	0.416067
H211	H	0.487576	-0.253247	0.000068
H212	H	0.987576	0.246753	0.500068
