data_functionalizedCrystal
_audit_creation_method	'MofGen! by Chris Wilmer'
_symmetry_space_group_name_H-M	'P1'
_symmetry_Int_Tables_number	1
_symmetry_cell_setting	triclinic
loop_
_symmetry_equiv_pos_as_xyz
  x,y,z
_cell_length_a	21.395364
_cell_length_b	16.625546
_cell_length_c	21.395356
_cell_angle_alpha	89.972354
_cell_angle_beta	89.976411
_cell_angle_gamma	90.037419
loop_
_atom_site_label
_atom_site_type_symbol
_atom_site_fract_x
_atom_site_fract_y
_atom_site_fract_z
Zn1	Zn	0.957889	-0.320700	-0.354262
Zn2	Zn	1.457889	0.179300	0.145738
Zn3	Zn	0.957808	-0.455537	-0.249484
Zn4	Zn	1.457808	0.044463	0.250516
Zn5	Zn	0.853106	-0.320757	-0.249498
Zn6	Zn	1.353106	0.179243	0.250502
Zn7	Zn	0.853088	-0.455530	-0.354224
Zn8	Zn	1.353088	0.044470	0.145776
O9	O	0.905473	-0.388131	-0.301867
O10	O	1.405473	0.111869	0.198133
O11	O	1.045556	-0.338566	-0.340372
O12	O	1.545556	0.161434	0.159628
O13	O	0.943893	-0.437685	-0.161808
O14	O	1.443893	0.062315	0.338192
O15	O	0.867047	-0.207917	-0.263417
O16	O	1.367047	0.292083	0.236583
O17	O	1.045497	-0.437630	-0.263393
O18	O	1.545497	0.062370	0.236607
O19	O	0.944031	-0.207876	-0.340386
O20	O	1.444031	0.292124	0.159614
O21	O	0.866968	-0.338663	-0.161819
O22	O	1.366968	0.161337	0.338181
O23	O	0.765426	-0.338656	-0.263381
O24	O	1.265426	0.161344	0.236619
O25	O	0.867017	-0.437618	-0.441907
O26	O	1.367017	0.062382	0.058093
O27	O	0.765413	-0.437673	-0.340323
O28	O	1.265413	0.062327	0.159677
O29	O	0.944014	-0.338559	-0.441935
O30	O	1.444014	0.161441	0.058065
O31	O	0.943876	-0.568369	-0.263357
O32	O	1.443876	-0.068369	0.236643
O33	O	0.866939	-0.568363	-0.340309
O34	O	1.366939	-0.068363	0.159691
C35	C	0.742685	-0.388170	-0.301850
C36	C	1.242685	0.111830	0.198150
C37	C	0.673044	-0.388207	-0.301857
C38	C	1.173044	0.111793	0.198143
C39	C	0.640384	-0.336708	-0.342002
C40	C	1.140384	0.163292	0.157998
C41	C	0.574949	-0.336687	-0.342005
C42	C	1.074949	0.163313	0.157995
C43	C	0.542176	-0.388178	-0.301868
C44	C	1.042176	0.111822	0.198132
C45	C	0.574844	-0.439680	-0.261715
C46	C	1.074844	0.060320	0.238285
C47	C	0.640278	-0.439694	-0.261710
C48	C	1.140278	0.060306	0.238290
C49	C	0.438460	-0.460792	-0.296831
C50	C	0.938460	0.039208	0.203169
C51	C	0.373027	-0.460779	-0.296841
C52	C	0.873027	0.039221	0.203159
C53	C	0.340355	-0.388134	-0.301882
C54	C	0.840355	0.111866	0.198118
C55	C	0.373124	-0.315499	-0.306927
C56	C	0.873124	0.184501	0.193073
C57	C	0.438559	-0.315513	-0.306921
C58	C	0.938559	0.184487	0.193079
C59	C	0.471223	-0.388168	-0.301870
C60	C	0.971223	0.111832	0.198130
C61	C	0.236743	-0.336608	-0.342032
C62	C	0.736743	0.163392	0.157968
C63	C	0.171306	-0.336585	-0.342030
C64	C	0.671306	0.163415	0.157970
C65	C	0.171202	-0.439585	-0.261744
C66	C	0.671202	0.060415	0.238256
C67	C	0.236637	-0.439601	-0.261743
C68	C	0.736637	0.060399	0.238257
C69	C	0.269404	-0.388113	-0.301890
C70	C	0.769404	0.111887	0.198110
C71	C	0.905414	-0.597622	-0.301841
C72	C	1.405414	-0.097622	0.198159
C73	C	0.905446	-0.687243	-0.301851
C74	C	1.405446	-0.187243	0.198149
C75	C	0.905555	-1.015419	-0.301916
C76	C	1.405555	-0.515419	0.198084
C77	C	0.905523	-0.924110	-0.301900
C78	C	1.405523	-0.424110	0.198100
C79	C	0.905500	-0.851334	-0.301883
C80	C	1.405500	-0.351334	0.198117
C81	C	0.905468	-0.760020	-0.301867
C82	C	1.405468	-0.260020	0.198133
C83	C	1.068896	-0.388092	-0.301885
C84	C	1.568896	0.111908	0.198115
C85	C	1.138538	-0.388076	-0.301893
C86	C	1.638538	0.111924	0.198107
C87	C	0.905522	-0.388081	-0.465291
C88	C	1.405522	0.111919	0.034709
C89	C	0.905543	-0.388060	-0.534932
C90	C	1.405543	0.111940	-0.034932
C91	C	0.905550	-0.177822	-0.301907
C92	C	1.405550	0.322178	0.198093
C93	C	0.905582	-0.088201	-0.301924
C94	C	1.405582	0.411799	0.198076
C95	C	0.865499	-0.336493	-0.567640
C96	C	1.365499	0.163507	-0.067640
C97	C	0.865497	-0.336478	-0.633076
C98	C	1.365497	0.163522	-0.133076
C99	C	0.905550	-0.388022	-0.665800
C100	C	1.405550	0.111978	-0.165800
C101	C	0.945597	-0.439598	-0.633084
C102	C	1.445597	0.060402	-0.133084
C103	C	0.945593	-0.439617	-0.567649
C104	C	1.445593	0.060383	-0.067649
C105	C	0.962003	-0.394342	-0.769487
C106	C	1.462003	0.105658	-0.269487
C107	C	0.962007	-0.394317	-0.834920
C108	C	1.462007	0.105683	-0.334920
C109	C	0.905560	-0.387967	-0.867621
C110	C	1.405560	0.112033	-0.367621
C111	C	0.849107	-0.381625	-0.834882
C112	C	1.349107	0.118375	-0.334882
C113	C	0.849104	-0.381644	-0.769447
C114	C	1.349104	0.118356	-0.269447
C115	C	0.905558	-0.388007	-0.736753
C116	C	1.405558	0.111993	-0.236753
C117	C	0.865511	-0.336381	-0.971282
C118	C	1.365511	0.163619	-0.471282
C119	C	0.865508	-0.336372	-1.036719
C120	C	1.365508	0.163628	-0.536719
C121	C	0.945613	-0.439488	-1.036725
C122	C	1.445613	0.060512	-0.536725
C123	C	0.945611	-0.439501	-0.971290
C124	C	1.445611	0.060499	-0.471290
C125	C	0.905560	-0.387944	-0.938572
C126	C	1.405560	0.112056	-0.438572
C127	C	0.905460	-0.388123	-0.139080
C128	C	1.405460	0.111877	0.360920
C129	C	0.905560	-0.387917	-0.069439
C130	C	1.405560	0.112083	0.430561
H131	H	0.346351	-0.519922	-0.292736
H132	H	0.846351	-0.019922	0.207264
H133	H	0.978226	-0.481454	-1.063369
H134	H	1.478226	0.018546	-0.563369
H135	H	0.667059	-0.294783	-0.374693
H136	H	1.167059	0.205217	0.125307
H137	H	0.263229	-0.481540	-0.229055
H138	H	0.763229	0.018460	0.270945
H139	H	0.548352	-0.294747	-0.374695
H140	H	1.048352	0.205253	0.125305
H141	H	0.548156	-0.481604	-0.229036
H142	H	1.048156	0.018396	0.270964
H143	H	0.263422	-0.294679	-0.374719
H144	H	0.763422	0.205321	0.125281
H145	H	0.144715	-0.294644	-0.374720
H146	H	0.644715	0.205356	0.125280
H147	H	0.978220	-0.481491	-0.944658
H148	H	1.478220	0.018509	-0.444658
H149	H	0.666869	-0.481632	-0.229018
H150	H	1.166869	0.018368	0.270982
H151	H	0.832899	-0.294401	-0.944642
H152	H	1.332899	0.205599	-0.444642
H153	H	0.144519	-0.481510	-0.229065
H154	H	0.644519	0.018490	0.270935
H155	H	1.007973	-0.399506	-0.742866
H156	H	1.507973	0.100494	-0.242866
H157	H	1.007975	-0.399477	-0.861571
H158	H	1.507975	0.100523	-0.361571
H159	H	0.465055	-0.519953	-0.292725
H160	H	0.965055	-0.019953	0.207275
H161	H	0.832885	-0.294514	-0.541006
H162	H	1.332885	0.205486	-0.041006
H163	H	0.832890	-0.294483	-0.659713
H164	H	1.332890	0.205517	-0.159713
H165	H	0.465237	-0.256372	-0.311026
H166	H	0.965237	0.243628	0.188974
H167	H	0.978208	-0.481565	-0.659732
H168	H	1.478208	0.018435	-0.159732
H169	H	0.803138	-0.376482	-0.742794
H170	H	1.303138	0.123518	-0.242794
H171	H	0.803143	-0.376449	-0.861506
H172	H	1.303143	0.123551	-0.361506
H173	H	0.832895	-0.294383	-1.063349
H174	H	1.332895	0.205617	-0.563349
H175	H	0.346525	-0.256344	-0.311032
H176	H	0.846525	0.243656	0.188968
H177	H	0.978205	-0.481608	-0.541018
H178	H	1.478205	0.018392	-0.041018
