data_functionalizedCrystal
_audit_creation_method	'MofGen! by Chris Wilmer'
_symmetry_space_group_name_H-M	'P1'
_symmetry_Int_Tables_number	1
_symmetry_cell_setting	triclinic
loop_
_symmetry_equiv_pos_as_xyz
  x,y,z
_cell_length_a	10.489741
_cell_length_b	14.044220
_cell_length_c	12.503572
_cell_angle_alpha	93.835250
_cell_angle_beta	93.559494
_cell_angle_gamma	91.135974
loop_
_atom_site_label
_atom_site_type_symbol
_atom_site_fract_x
_atom_site_fract_y
_atom_site_fract_z
O1	O	0.300990	-1.265220	-0.089205
O2	O	0.289883	-0.989177	-0.089232
O3	O	0.110477	-1.133479	-0.089211
O4	O	0.480397	-1.120918	-0.089225
O5	O	0.123993	-1.122627	0.089429
O6	O	0.303400	-0.978325	0.089408
O7	O	0.314507	-1.254368	0.089436
Cu8	Cu	0.310188	-1.115355	0.105733
Cu9	Cu	0.294203	-1.128189	-0.105530
O10	O	0.493914	-1.110065	0.089415
C11	C	0.069607	-1.127104	0.000108
C12	C	-0.072311	-1.124266	0.000106
C13	C	0.291780	-0.948403	0.000085
C14	C	0.277280	-0.843079	0.000074
C15	C	0.312610	-1.295142	0.000116
C16	C	0.327110	-1.400466	0.000120
C17	C	-0.149764	-1.032451	0.000089
C18	C	-0.230823	-1.070473	0.088172
C19	C	-0.244122	-1.081194	-0.087953
C20	C	-0.151494	-1.162321	0.088262
C21	C	-0.164791	-1.173035	-0.087943
C22	C	-0.245814	-1.211122	0.000162
C23	C	0.534783	-1.116440	0.000093
C24	C	0.676700	-1.119279	0.000088
N25	N	0.321431	-1.106335	0.254324
C26	C	0.250773	-0.650235	0.000097
C27	C	0.353611	-0.593304	0.000097
C28	C	0.338862	-0.485999	0.000110
C29	C	0.265520	-0.757550	0.000084
N30	N	0.282950	-1.137217	-0.254121
C31	C	0.337981	-1.093067	0.473438
C32	C	0.266404	-1.150482	0.526773
C33	C	0.275613	-1.143099	0.648695
C34	C	0.328774	-1.100449	0.351504
H35	H	-0.260141	-1.027100	0.162633
C36	C	-0.093013	-0.930466	0.000192
C37	C	-0.115326	-0.856685	0.093498
C38	C	-0.058572	-0.754703	0.093607
C39	C	0.020496	-0.726503	0.000410
C40	C	0.042813	-0.800286	-0.092903
C41	C	-0.013942	-0.902267	-0.093012
H42	H	-0.173860	-0.877558	0.162494
H43	H	-0.075092	-0.700084	0.162684
H44	H	0.062509	-0.651010	0.000491
H45	H	0.101346	-0.779412	-0.161899
H46	H	0.002579	-0.956886	-0.162089
H47	H	0.406172	-1.038372	0.519337
H48	H	0.452730	-0.625152	0.000088
H49	H	0.151662	-0.618389	0.000106
C50	C	0.174285	-1.224386	0.464765
C51	C	0.165019	-1.231716	0.341080
C52	C	0.072909	-1.305620	0.279066
C53	C	-0.009934	-1.372192	0.340738
C54	C	-0.000671	-1.364863	0.464431
C55	C	0.091439	-1.290960	0.526444
H56	H	0.226348	-1.182434	0.295420
H57	H	0.066053	-1.311044	0.187500
H58	H	-0.078120	-1.426899	0.294832
H59	H	-0.061999	-1.414146	0.510090
H60	H	0.098295	-1.285536	0.618010
H61	H	-0.287570	-1.286677	0.000218
H62	H	-0.111084	-1.196608	0.162813
H63	H	-0.135444	-1.216375	-0.162407
H64	H	-0.284662	-1.046857	-0.162428
