data_functionalizedCrystal
_audit_creation_method	'MofGen! by Chris Wilmer'
_symmetry_space_group_name_H-M	'P1'
_symmetry_Int_Tables_number	1
_symmetry_cell_setting	triclinic
loop_
_symmetry_equiv_pos_as_xyz
  x,y,z
_cell_length_a	19.077105
_cell_length_b	17.639789
_cell_length_c	19.076919
_cell_angle_alpha	81.481054
_cell_angle_beta	90.076224
_cell_angle_gamma	76.100290
loop_
_atom_site_label
_atom_site_type_symbol
_atom_site_fract_x
_atom_site_fract_y
_atom_site_fract_z
Zn1	Zn	-1.129833	0.382643	0.374434
Zn2	Zn	-0.629833	0.882643	0.874434
Zn3	Zn	-1.158257	0.509816	0.234997
Zn4	Zn	-0.658257	1.009816	0.734997
Zn5	Zn	-1.015069	0.372048	0.254054
Zn6	Zn	-0.515069	0.872048	0.754054
Zn7	Zn	-1.035990	0.509339	0.347832
Zn8	Zn	-0.535990	1.009339	0.847832
O9	O	-1.084787	0.443461	0.302829
O10	O	-0.584787	0.943461	0.802829
O11	O	-1.232802	0.404147	0.359095
O12	O	-0.732802	0.904147	0.859095
O13	O	-1.142403	0.487306	0.139924
O14	O	-0.642403	0.987306	0.639924
O15	O	-1.009642	0.262774	0.289131
O16	O	-0.509642	0.762774	0.789131
O17	O	-1.253685	0.497580	0.256651
O18	O	-0.753685	0.997580	0.756651
O19	O	-1.093959	0.270559	0.377574
O20	O	-0.593959	0.770559	0.877574
O21	O	-1.037204	0.386088	0.153925
O22	O	-0.537204	0.886088	0.653925
O23	O	-0.918646	0.385626	0.263337
O24	O	-0.418646	0.885626	0.763337
O25	O	-1.045298	0.496767	0.448962
O26	O	-0.545298	0.996767	0.948962
O27	O	-0.934016	0.486493	0.332235
O28	O	-0.434016	0.986493	0.832235
O29	O	-1.114244	0.403684	0.468506
O30	O	-0.614244	0.903684	0.968506
O31	O	-1.162689	0.620431	0.230856
O32	O	-0.662689	1.120431	0.730856
O33	O	-1.072859	0.620081	0.313756
O34	O	-0.572859	1.120081	0.813756
C35	C	-1.123147	0.648956	0.267367
C36	C	-0.623147	1.148956	0.767367
C37	C	-1.139622	0.736871	0.252222
C38	C	-0.639622	1.236871	0.752222
C39	C	-1.078934	0.451354	0.484748
C40	C	-0.578934	0.951354	0.984748
C41	C	-1.076440	0.454718	0.562271
C42	C	-0.576440	0.954718	1.062271
C43	C	-0.900610	0.434858	0.296967
C44	C	-0.400610	0.934858	0.796967
C45	C	-0.821821	0.431198	0.294473
C46	C	-0.321821	0.931198	0.794473
C47	C	-1.269684	0.452098	0.308714
C48	C	-0.769684	0.952098	0.808714
C49	C	-1.348476	0.455779	0.311222
C50	C	-0.848476	0.955779	0.811222
C51	C	-0.792843	0.482067	0.329089
C52	C	-0.292843	0.982067	0.829089
C53	C	-0.718811	0.478618	0.326750
C54	C	-0.218811	0.978618	0.826750
C55	C	-0.673758	0.424301	0.289791
C56	C	-0.173758	0.924301	0.789791
C57	C	-0.702740	0.373426	0.255173
C58	C	-0.202740	0.873426	0.755173
C59	C	-0.776771	0.376873	0.257517
C60	C	-0.276771	0.876873	0.757517
C61	C	-0.451488	0.408351	0.278949
C62	C	0.048512	0.908351	0.778949
C63	C	-0.377453	0.404910	0.276606
C64	C	0.122547	0.904910	0.776606
C65	C	-0.393529	0.510100	0.348184
C66	C	0.106471	1.010100	0.848184
C67	C	-0.467561	0.513545	0.350521
C68	C	0.032439	1.013545	0.850521
C69	C	-0.496536	0.462667	0.315907
C70	C	0.003464	0.962667	0.815907
N71	N	-0.598086	0.420776	0.287397
N72	N	-0.098086	0.920776	0.787397
N73	N	-0.572206	0.466190	0.318305
N74	N	-0.072206	0.966190	0.818305
C75	C	-1.209639	0.860943	0.187760
C76	C	-0.709639	1.360943	0.687760
C77	C	-1.194153	0.778333	0.201997
C78	C	-0.694153	1.278333	0.701997
C79	C	-1.100558	0.778009	0.288233
C80	C	-0.600558	1.278009	0.788233
C81	C	-1.116039	0.860621	0.274006
C82	C	-0.616039	1.360621	0.774006
C83	C	-1.170579	0.902081	0.223769
C84	C	-0.670579	1.402081	0.723769
C85	C	-1.076980	0.901759	0.310015
C86	C	-0.576980	1.401759	0.810015
C87	C	-1.092457	0.984363	0.295787
C88	C	-0.592457	1.484363	0.795787
C89	C	-1.146993	1.025830	0.245550
C90	C	-0.646993	1.525830	0.745550
C91	C	-1.186057	0.984686	0.209541
C92	C	-0.686057	1.484686	0.709541
C93	C	-1.022436	0.860297	0.360249
C94	C	-0.522436	1.360297	0.860249
C95	C	-0.983377	0.901435	0.396257
C96	C	-0.483377	1.401435	0.896257
C97	C	-0.998857	0.984041	0.382033
C98	C	-0.498857	1.484041	0.882033
C99	C	-1.053394	1.025507	0.331796
C100	C	-0.553394	1.525507	0.831796
C101	C	-0.959794	1.025185	0.418042
C102	C	-0.459794	1.525185	0.918042
C103	C	-0.975271	1.107789	0.403814
C104	C	-0.475271	1.607789	0.903814
C105	C	-1.068871	1.108112	0.317568
C106	C	-0.568871	1.608112	0.817568
C107	C	-1.046276	1.237165	0.338434
C108	C	-0.546276	1.737165	0.838434
C109	C	-1.029812	1.149250	0.353576
C110	C	-0.529812	1.649250	0.853576
C111	C	-1.090648	0.435544	0.121629
C112	C	-0.590648	0.935544	0.621629
C113	C	-1.093238	0.431964	0.044149
C114	C	-0.593238	0.931964	0.544149
C115	C	-1.111163	0.407837	0.608868
C116	C	-0.611163	0.907837	1.108868
C117	C	-1.108810	0.410994	0.681710
C118	C	-0.608810	0.910994	1.181710
C119	C	-1.071738	0.461036	0.707952
C120	C	-0.571738	0.961036	1.207952
C121	C	-1.037010	0.507919	0.661350
C122	C	-0.537010	1.007919	1.161350
C123	C	-1.039359	0.504757	0.588510
C124	C	-0.539359	1.004757	1.088510
C125	C	-1.060859	0.475685	0.924707
C126	C	-0.560859	0.975685	1.424707
C127	C	-1.058515	0.478845	0.997552
C128	C	-0.558515	0.978845	1.497552
C129	C	-1.130313	0.381918	1.017907
C130	C	-0.630313	0.881918	1.517907
C131	C	-1.132663	0.378765	0.945065
C132	C	-0.632663	0.878765	1.445065
C133	C	-1.097932	0.425644	0.898470
C134	C	-0.597932	0.925644	1.398470
N135	N	-1.069334	0.464266	0.782407
N136	N	-0.569334	0.964266	1.282407
N137	N	-1.100332	0.422409	0.824016
N138	N	-0.600332	0.922409	1.324016
H139	H	-0.829521	0.526300	0.359183
H140	H	-0.329521	1.026300	0.859183
H141	H	-1.028325	0.519597	1.018915
H142	H	-0.528325	1.019597	1.518915
H143	H	-0.938968	0.867668	0.437159
H144	H	-0.438968	1.367668	0.937159
Br145	Br	-0.922253	1.163624	0.452673
Br146	Br	-0.422253	1.663624	0.952673
Br147	Br	-1.155976	0.347405	0.744941
Br148	Br	-0.655976	0.847405	1.244941
H149	H	-1.032592	0.513870	0.886776
H150	H	-0.532592	1.013870	1.386776
Br151	Br	-0.316312	0.331198	0.226434
Br152	Br	0.183688	0.831198	0.726434
Br153	Br	-0.816098	0.307829	0.210540
Br154	Br	-0.316098	0.807829	0.710540
H155	H	-1.009830	0.793034	0.371825
H156	H	-0.509830	1.293034	0.871825
H157	H	-0.475071	0.366928	0.250757
H158	H	0.024929	0.866928	0.750757
H159	H	-1.006823	0.548662	0.682722
H160	H	-0.506823	1.048662	1.182722
H161	H	-1.159594	1.093091	0.233966
H162	H	-0.659594	1.593091	0.733966
H163	H	-1.141353	0.367090	0.587508
H164	H	-0.641353	0.867090	1.087508
Br165	Br	-1.247157	0.722503	0.153111
Br166	Br	-0.747157	1.222503	0.653111
Br167	Br	-1.182979	0.310850	0.909455
Br168	Br	-0.682979	0.810850	1.409455
Br169	Br	-1.177443	0.318298	1.081147
Br170	Br	-0.677443	0.818298	1.581147
Br171	Br	-1.283667	0.917220	0.119589
Br172	Br	-0.783667	1.417220	0.619589
Br173	Br	-0.641597	0.299703	0.205021
Br174	Br	-0.141597	0.799703	0.705021
Br175	Br	-0.679486	0.547656	0.373734
Br176	Br	-0.179486	1.047656	0.873734
Br177	Br	-1.260085	1.040962	0.141369
Br178	Br	-0.760085	1.540962	0.641369
H179	H	-0.504239	0.557777	0.380615
H180	H	-0.004239	1.057777	0.880615
Br181	Br	-1.142900	1.164388	0.249396
Br182	Br	-0.642900	1.664388	0.749396
Br183	Br	-0.354202	0.579148	0.395155
Br184	Br	0.145798	1.079148	0.895155
Br185	Br	-0.885772	0.968907	0.486212
Br186	Br	-0.385772	1.468907	0.986212
Br187	Br	-1.026543	0.721735	0.356411
Br188	Br	-0.526543	1.221735	0.856411
Br189	Br	-0.992228	0.568379	0.525271
Br190	Br	-0.492228	1.068379	1.025271
