data_functionalizedCrystal
_audit_creation_method	'MofGen! by Chris Wilmer'
_symmetry_space_group_name_H-M	'P1'
_symmetry_Int_Tables_number	1
_symmetry_cell_setting	triclinic
loop_
_symmetry_equiv_pos_as_xyz
  x,y,z
_cell_length_a	16.992694
_cell_length_b	15.455387
_cell_length_c	16.974813
_cell_angle_alpha	96.657409
_cell_angle_beta	92.975366
_cell_angle_gamma	87.192853
loop_
_atom_site_label
_atom_site_type_symbol
_atom_site_fract_x
_atom_site_fract_y
_atom_site_fract_z
O1	O	-1.043758	0.084056	0.171481
O2	O	-0.815470	0.083952	0.169637
O3	O	-0.935637	0.075922	0.055489
O4	O	-0.923591	0.092086	0.285628
O5	O	-0.929519	-0.068801	0.048888
O6	O	-0.809353	-0.060771	0.163036
O7	O	-1.037640	-0.060667	0.164880
Cu8	Cu	-0.922938	-0.073934	0.163355
Cu9	Cu	-0.930173	0.097219	0.171161
O10	O	-0.917474	-0.052637	0.279027
C11	C	-0.783194	0.011427	0.163963
C12	C	-0.696137	0.010940	0.156881
N13	N	-0.917855	-0.194313	0.157864
C14	C	-0.932006	0.001485	0.022605
C15	C	-0.930293	-0.004700	-0.065546
C16	C	-1.069916	0.011860	0.170554
C17	C	-1.156973	0.012353	0.177636
C18	C	-0.646026	0.015738	0.225215
C19	C	-0.564226	0.015259	0.218555
C20	C	-0.532540	0.009986	0.143561
C21	C	-0.582657	0.005185	0.075221
C22	C	-0.664455	0.005658	0.081881
C23	C	-0.288889	0.008024	0.115957
C24	C	-0.207085	0.007554	0.109301
C25	C	-0.188659	0.017626	0.252636
C26	C	-0.270460	0.018105	0.259290
C27	C	-0.320570	0.013298	0.190951
N28	N	-0.448928	0.009499	0.136752
N29	N	-0.404180	0.013780	0.197760
N30	N	-0.935262	0.217597	0.176646
C31	C	-0.963474	0.763729	0.207029
C32	C	-0.959619	0.672631	0.202872
C33	C	-0.910140	0.623492	0.149552
C34	C	-0.864519	0.665455	0.100382
C35	C	-0.868379	0.756552	0.104536
C36	C	-0.893501	0.350657	0.131630
C37	C	-0.889643	0.259555	0.127481
C38	C	-0.984744	0.266737	0.229970
C39	C	-0.988596	0.357835	0.234123
C40	C	-0.942978	0.399790	0.184950
N41	N	-0.906196	0.530374	0.145303
N42	N	-0.946927	0.492906	0.189196
C43	C	-0.932825	0.071282	-0.103356
C44	C	-0.931210	0.065468	-0.186183
C45	C	-0.927069	-0.016330	-0.231198
C46	C	-0.924535	-0.092318	-0.193382
C47	C	-0.926144	-0.086503	-0.110556
C48	C	-0.921893	-0.042180	-0.479296
C49	C	-0.920286	-0.047990	-0.562127
C50	C	-0.926960	0.109797	-0.554922
C51	C	-0.928574	0.115604	-0.472096
C52	C	-0.926035	0.039616	-0.434287
N53	N	-0.925421	-0.022275	-0.315860
N54	N	-0.927678	0.045562	-0.349625
C55	C	-0.921104	0.021802	0.311912
C56	C	-0.922818	0.027993	0.400062
H57	H	-0.671818	0.020032	0.286284
H58	H	-0.849347	0.219548	0.084062
H59	H	-0.523428	0.019167	0.274201
H60	H	-0.933275	0.127341	-0.216965
H61	H	-0.296253	0.022408	0.320359
H62	H	-1.003760	0.803733	0.250452
H63	H	-1.021883	0.232567	0.270004
H64	H	-0.147851	0.021538	0.308275
H65	H	-1.028889	0.397838	0.277539
H66	H	-0.831231	0.790712	0.064501
H67	H	-0.921158	-0.158919	-0.230039
H68	H	-0.916910	-0.114603	-0.598776
H69	H	-0.996768	0.638473	0.242906
H70	H	-0.919842	-0.104056	-0.448523
H71	H	-0.556851	0.000879	0.014158
H72	H	-0.931946	0.182213	-0.435450
H73	H	-0.924071	-0.148376	-0.079771
H74	H	-0.181289	0.003261	0.048229
H75	H	-0.824237	0.625438	0.056964
H76	H	-0.705256	0.001751	0.026236
H77	H	-0.329679	0.004110	0.060309
H78	H	-0.929025	0.171662	-0.585716
H79	H	-0.936201	0.137891	-0.066711
H80	H	-0.856356	0.384806	0.091589
