data_functionalizedCrystal
_audit_creation_method	'MofGen! by Chris Wilmer'
_symmetry_space_group_name_H-M	'P1'
_symmetry_Int_Tables_number	1
_symmetry_cell_setting	triclinic
loop_
_symmetry_equiv_pos_as_xyz
  x,y,z
_cell_length_a	14.908520
_cell_length_b	11.169417
_cell_length_c	11.169409
_cell_angle_alpha	90.021683
_cell_angle_beta	93.260332
_cell_angle_gamma	86.680427
loop_
_atom_site_label
_atom_site_type_symbol
_atom_site_fract_x
_atom_site_fract_y
_atom_site_fract_z
Zn1	Zn	-0.359109	-1.807295	-0.706122
Zn2	Zn	0.140891	-1.307295	-0.206122
Zn3	Zn	-0.510000	-1.795559	-0.517002
Zn4	Zn	-0.010000	-1.295559	-0.017002
Zn5	Zn	-0.359158	-1.606577	-0.505454
Zn6	Zn	0.140842	-1.106577	-0.005454
Zn7	Zn	-0.509922	-1.594969	-0.717635
Zn8	Zn	-0.009922	-1.094969	-0.217635
O9	O	-0.434547	-1.701100	-0.611553
O10	O	0.065453	-1.201100	-0.111553
O11	O	-0.379137	-1.973687	-0.681050
O12	O	0.120863	-1.473687	-0.181050
O13	O	-0.490045	-1.770436	-0.347525
O14	O	0.009955	-1.270436	0.152475
O15	O	-0.232908	-1.642972	-0.522422
O16	O	0.267092	-1.142972	-0.022422
O17	O	-0.489996	-1.965064	-0.542104
O18	O	0.010004	-1.465064	-0.042104
O19	O	-0.232871	-1.790439	-0.669852
O20	O	0.267129	-1.290439	-0.169852
O21	O	-0.379222	-1.631592	-0.339040
O22	O	0.120778	-1.131592	0.160960
O23	O	-0.379145	-1.437088	-0.533585
O24	O	0.120855	-0.937088	-0.033585
O25	O	-0.489862	-1.623188	-0.884053
O26	O	0.010138	-1.123188	-0.384053
O27	O	-0.489911	-1.428560	-0.689473
O28	O	0.010089	-0.928560	-0.189473
O29	O	-0.379060	-1.779183	-0.875595
O30	O	0.120940	-1.279183	-0.375595
O31	O	-0.636234	-1.759180	-0.553268
O32	O	-0.136234	-1.259180	-0.053268
O33	O	-0.636176	-1.611808	-0.700671
O34	O	-0.136176	-1.111808	-0.200671
C35	C	-0.434526	-1.389277	-0.611526
C36	C	0.065474	-0.889277	-0.111526
C37	C	-0.434538	-1.255876	-0.611544
C38	C	0.065462	-0.755876	-0.111544
C39	C	-0.668938	-1.682994	-0.629498
C40	C	-0.168938	-1.182994	-0.129498
C41	C	-0.769212	-1.675357	-0.637215
C42	C	-0.269212	-1.175357	-0.137215
C43	C	-0.957635	-1.814625	-0.498349
C44	C	-0.457635	-1.314625	0.001651
C45	C	-1.051851	-1.807454	-0.505596
C46	C	-0.551851	-1.307454	-0.005596
C47	C	-1.051861	-1.653852	-0.658962
C48	C	-0.551861	-1.153852	-0.158962
C49	C	-0.957645	-1.661023	-0.651715
C50	C	-0.457645	-1.161023	-0.151715
C51	C	-0.910536	-1.741411	-0.571404
C52	C	-0.410536	-1.241411	-0.071404
C53	C	-0.816318	-1.748575	-0.564152
C54	C	-0.316318	-1.248575	-0.064152
C55	C	-0.816330	-1.594979	-0.717523
C56	C	-0.316330	-1.094979	-0.217523
C57	C	-0.910546	-1.587808	-0.724770
C58	C	-0.410546	-1.087808	-0.224770
C59	C	-0.199241	-1.719309	-0.593564
C60	C	0.300759	-1.219309	-0.093564
C61	C	-0.098967	-1.727069	-0.585898
C62	C	0.401033	-1.227069	-0.085898
C63	C	-0.434447	-1.701200	-0.924588
C64	C	0.065553	-1.201200	-0.424588
C65	C	-0.434404	-1.701242	-1.057985
C66	C	0.065596	-1.201242	-0.557985
C67	C	-0.434562	-1.014141	-0.611571
C68	C	0.065438	-0.514141	-0.111571
C69	C	-0.434549	-1.147542	-0.611553
C70	C	0.065451	-0.647542	-0.111553
C71	C	-0.434582	-1.701074	-0.299731
C72	C	0.065418	-1.201074	0.200269
C73	C	-0.434370	-1.701284	-0.166315
C74	C	0.065630	-1.201284	0.333685
H75	H	-0.777962	-1.814027	-0.498756
H76	H	-0.277962	-1.314027	0.001244
H77	H	-0.777970	-1.535359	-0.777006
H78	H	-0.277970	-1.035359	-0.277006
H79	H	-0.919278	-1.880072	-0.432949
H80	H	-0.419278	-1.380072	0.067051
H81	H	-1.090234	-1.588412	-0.724354
H82	H	-0.590234	-1.088412	-0.224354
H83	H	-1.090196	-1.867076	-0.446109
H84	H	-0.590196	-1.367076	0.053891
H85	H	-0.948915	-1.522362	-0.790159
H86	H	-0.448915	-1.022362	-0.290159
