data_functionalizedCrystal
_audit_creation_method	'MofGen! by Chris Wilmer'
_symmetry_space_group_name_H-M	'P1'
_symmetry_Int_Tables_number	1
_symmetry_cell_setting	triclinic
loop_
_symmetry_equiv_pos_as_xyz
  x,y,z
_cell_length_a	29.839131
_cell_length_b	19.805407
_cell_length_c	19.805399
_cell_angle_alpha	89.978936
_cell_angle_beta	90.029565
_cell_angle_gamma	89.959595
loop_
_atom_site_label
_atom_site_type_symbol
_atom_site_fract_x
_atom_site_fract_y
_atom_site_fract_z
Zn1	Zn	-0.178876	-1.034665	0.382737
Zn2	Zn	-0.254003	-1.034550	0.269545
Zn3	Zn	-0.178887	-0.921480	0.269559
Zn4	Zn	-0.253978	-0.921414	0.382689
O5	O	-0.216436	-0.978027	0.326132
O6	O	-0.188848	-1.129366	0.367736
O7	O	-0.244054	-1.019531	0.174830
O8	O	-0.116018	-0.936570	0.284598
O9	O	-0.244044	-1.129282	0.284575
O10	O	-0.116010	-1.019727	0.367750
O11	O	-0.188867	-0.936458	0.174840
O12	O	-0.188842	-0.826754	0.284551
O13	O	-0.244001	-0.936457	0.477412
O14	O	-0.244011	-0.826706	0.367667
O15	O	-0.188823	-1.019662	0.477447
O16	O	-0.316867	-1.019467	0.284528
O17	O	-0.316849	-0.936346	0.367654
C18	C	-0.216425	-0.802171	0.326106
C19	C	-0.216432	-0.726939	0.326111
C20	C	-0.333159	-0.977905	0.326099
C21	C	-0.383093	-0.977915	0.326107
C22	C	-0.245201	-0.691587	0.369318
C23	C	-0.245201	-0.620899	0.369326
C24	C	-0.216434	-0.585564	0.326122
C25	C	-0.187661	-0.620920	0.282913
C26	C	-0.187659	-0.691607	0.282909
C27	C	-0.187668	-0.335847	0.282928
C28	C	-0.187673	-0.265155	0.282933
C29	C	-0.245210	-0.265139	0.369345
C30	C	-0.245208	-0.335826	0.369341
C31	C	-0.216434	-0.371176	0.326134
C32	C	-0.216433	-0.447825	0.326127
C33	C	-0.216436	-0.508916	0.326125
C34	C	-0.692734	-1.021387	0.282912
C35	C	-0.880407	-1.021471	0.282938
O36	O	-0.904669	-1.058335	0.246186
N37	N	-0.903878	-0.978168	0.326184
C38	C	-0.880429	-0.934844	0.369429
O39	O	-0.904699	-0.898019	0.406217
C40	C	-0.692757	-0.934764	0.369405
C41	C	-0.669287	-0.978065	0.326152
C42	C	-0.669264	-1.064685	0.239663
C43	C	-0.622349	-1.064661	0.239654
C44	C	-0.598903	-1.021339	0.282894
C45	C	-0.622372	-0.978041	0.326143
C46	C	-0.669308	-0.891444	0.412653
C47	C	-0.622387	-0.891429	0.412645
C48	C	-0.598918	-0.934730	0.369392
C49	C	-0.552010	-0.934695	0.369375
N50	N	-0.528539	-0.977998	0.326130
C51	C	-0.551985	-1.021320	0.282889
C52	C	-0.978959	-0.934888	0.369437
C53	C	-1.025877	-0.934907	0.369442
C54	C	-1.025852	-1.021534	0.282952
C55	C	-0.978933	-1.021512	0.282944
C56	C	-0.955488	-0.978191	0.326191
C57	C	-0.453459	-1.021266	0.282874
C58	C	-0.406539	-1.021236	0.282867
C59	C	-0.406569	-0.934611	0.369359
C60	C	-0.453484	-0.934638	0.369363
C61	C	-0.476928	-0.977971	0.326119
O62	O	-0.527719	-0.897855	0.406113
O63	O	-0.527706	-1.058150	0.246117
C64	C	-0.739649	-1.021411	0.282921
C65	C	-0.763118	-0.978113	0.326170
C66	C	-0.739672	-0.934791	0.369410
C67	C	-0.810036	-0.978132	0.326175
C68	C	-0.833482	-1.021454	0.282934
C69	C	-0.810011	-1.064757	0.239689
C70	C	-0.763095	-1.064733	0.239680
C71	C	-0.763144	-0.891488	0.412655
C72	C	-0.810059	-0.891515	0.412660
C73	C	-0.833505	-0.934837	0.369420
C74	C	-0.099258	-0.978168	0.326181
C75	C	-0.049323	-0.978228	0.326202
C76	C	-0.216408	-0.978065	0.502675
C77	C	-0.216396	-0.978081	0.577907
C78	C	-0.216444	-0.154570	0.326153
C79	C	-0.216440	-0.229802	0.326145
C80	C	-0.216432	-0.978028	0.150277
C81	C	-0.216317	-0.978143	0.075045
C82	C	-0.187664	-1.021407	0.613271
C83	C	-0.187650	-1.021414	0.683960
C84	C	-0.216372	-0.978098	0.719283
C85	C	-0.245106	-0.934767	0.683914
C86	C	-0.245116	-0.934757	0.613227
C87	C	-0.245064	-0.934806	0.968988
C88	C	-0.245052	-0.934820	1.039680
C89	C	-0.187598	-1.021462	1.039720
C90	C	-0.187609	-1.021453	0.969033
C91	C	-0.216340	-0.978120	0.933670
C92	C	-0.216353	-0.978112	0.857022
C93	C	-0.216362	-0.978109	0.795930
H94	H	-0.268629	-0.592119	0.404509
H95	H	-0.688349	-1.099967	0.204451
H96	H	-0.268490	-0.899496	0.712680
H97	H	-0.387432	-1.056497	0.247643
H98	H	-0.164230	-0.720390	0.247728
H99	H	-0.744057	-0.856211	0.447868
H100	H	-0.472541	-1.056554	0.247661
H101	H	-0.268629	-0.720352	0.404498
H102	H	-0.387472	-0.899337	0.404563
O103	O	-0.692077	-0.849456	0.454771
C104	C	-0.680558	-0.864204	0.522236
H105	H	-0.667628	-0.918272	0.525691
H106	H	-0.653335	-0.827902	0.539886
C107	C	-0.738097	-0.789910	0.563179
C108	C	-0.722219	-0.856319	0.567423
H109	H	-0.763795	-0.785043	0.591053
H110	H	-0.745857	-0.779971	0.517726
H111	H	-0.715407	-0.759665	0.577886
H112	H	-0.744907	-0.886561	0.552708
H113	H	-0.714464	-0.866263	0.612874
H114	H	-0.743990	-1.099993	0.204460
O115	O	-0.273221	-0.230830	0.411254
C116	C	-0.317983	-0.248063	0.396348
H117	H	-0.320205	-0.267463	0.342266
H118	H	-0.329755	-0.289103	0.432597
C119	C	-0.345246	-0.161418	0.470579
C120	C	-0.347975	-0.185240	0.404153
H121	H	-0.363747	-0.122666	0.475396
H122	H	-0.315089	-0.149808	0.480624
H123	H	-0.355056	-0.195623	0.500779
H124	H	-0.338160	-0.151038	0.373955
H125	H	-0.378131	-0.196842	0.394104
O126	O	-0.273104	-0.370119	0.411407
C127	C	-0.263351	-0.352870	0.478893
H128	H	-0.227465	-0.333474	0.482408
H129	H	-0.287453	-0.311823	0.496522
C130	C	-0.312690	-0.439499	0.519732
C131	C	-0.268613	-0.415682	0.524050
H132	H	-0.315938	-0.478243	0.547588
H133	H	-0.319263	-0.451118	0.474266
H134	H	-0.332771	-0.405287	0.534422
H135	H	-0.248534	-0.449890	0.509352
H136	H	-0.262037	-0.404070	0.569515
O137	O	-0.272891	-0.892706	1.074070
C138	C	-0.247302	-0.849023	1.114952
H139	H	-0.213256	-0.872941	1.125557
H140	H	-0.242366	-0.798862	1.087707
C141	C	-0.313822	-0.807378	1.169062
C142	C	-0.272008	-0.836758	1.182092
H143	H	-0.329063	-0.799809	1.210476
H144	H	-0.331062	-0.836806	1.141518
H145	H	-0.309703	-0.765581	1.146356
H146	H	-0.276128	-0.878558	1.204789
H147	H	-0.254769	-0.807336	1.209642
H148	H	-0.164244	-0.236387	0.247752
H149	H	-0.603243	-1.099922	0.204436
O150	O	-0.159677	-1.063471	0.718232
C151	C	-0.114904	-1.048721	0.700979
H152	H	-0.113983	-1.022692	0.649652
H153	H	-0.099759	-1.013949	0.740761
C154	C	-0.088828	-1.146708	0.760771
C155	C	-0.087697	-1.114744	0.697727
H156	H	-0.072045	-1.187433	0.758767
H157	H	-0.118993	-1.156645	0.772397
H158	H	-0.076209	-1.117725	0.793915
H159	H	-0.100322	-1.143723	0.664585
H160	H	-0.057534	-1.104814	0.686095
H161	H	-1.044982	-0.899640	0.404657
O162	O	-0.159739	-1.063390	0.578888
C163	C	-0.130719	-1.024881	0.538018
H164	H	-0.146564	-0.973569	0.527407
H165	H	-0.097423	-1.017484	0.565276
C166	C	-0.103131	-1.125146	0.483919
C167	C	-0.122594	-1.062125	0.470881
H168	H	-0.098117	-1.148120	0.442507
H169	H	-0.122681	-1.151091	0.511455
H170	H	-0.075387	-1.118973	0.506636
H171	H	-0.150340	-1.068299	0.448173
H172	H	-0.103049	-1.036182	0.443340
H173	H	-0.268466	-0.899531	0.940204
H174	H	-0.164241	-0.364621	0.247741
O175	O	-0.159666	-1.063551	0.934825
C176	C	-0.134309	-1.101806	0.981197
H177	H	-0.132745	-1.074093	1.031581
H178	H	-0.150762	-1.153193	0.988718
C179	C	-0.088422	-1.145649	0.891750
C180	C	-0.086497	-1.111609	0.953630
H181	H	-0.058929	-1.151700	0.874745
H182	H	-0.105505	-1.119879	0.860508
H183	H	-0.102134	-1.188469	0.898025
H184	H	-0.072790	-1.068787	0.947352
H185	H	-0.069410	-1.137373	0.984871
H186	H	-0.164236	-0.592145	0.247738
O187	O	-0.159697	-1.063488	1.074177
C188	C	-0.165851	-1.054221	1.144142
H189	H	-0.180558	-1.001970	1.153780
H190	H	-0.189774	-1.094342	1.164203
C191	C	-0.102325	-1.124662	1.168613
C192	C	-0.120385	-1.060483	1.180451
H193	H	-0.074280	-1.128527	1.191011
H194	H	-0.098180	-1.130907	1.121476
H195	H	-0.122265	-1.158089	1.185330
H196	H	-0.100448	-1.027058	1.163726
H197	H	-0.124526	-1.054232	1.227585
O198	O	-0.956206	-1.063640	0.240909
C199	C	-0.986967	-1.101863	0.202734
H200	H	-1.020399	-1.104199	0.230467
H201	H	-0.991994	-1.077106	0.151307
C202	C	-0.927558	-1.171031	0.158980
C203	C	-0.968618	-1.173905	0.193044
H204	H	-0.916239	-1.215469	0.153000
H205	H	-0.906833	-1.145278	0.184697
H206	H	-0.931752	-1.150397	0.116127
H207	H	-0.964422	-1.194530	0.235899
H208	H	-0.989342	-1.199663	0.167334
O209	O	-0.832903	-0.849543	0.454714
C210	C	-0.859985	-0.888071	0.498485
H211	H	-0.866993	-0.939379	0.474658
H212	H	-0.841872	-0.895476	0.548642
C213	C	-0.895963	-0.787826	0.539992
C214	C	-0.904574	-0.850842	0.510726
H215	H	-0.923467	-0.764861	0.547546
H216	H	-0.877717	-0.761869	0.510505
H217	H	-0.880868	-0.794007	0.581787
H218	H	-0.919664	-0.844660	0.468928
H219	H	-0.922824	-0.876797	0.540207
H220	H	-1.044950	-1.056809	0.247744
H221	H	-0.268509	-0.899470	0.584435
H222	H	-0.959873	-0.899609	0.404655
O223	O	-0.599592	-0.849442	0.454727
C224	C	-0.572399	-0.887939	0.498464
H225	H	-0.586500	-0.941253	0.502695
H226	H	-0.536848	-0.890263	0.477534
C227	C	-0.554355	-0.789352	0.563600
C228	C	-0.571676	-0.854832	0.568801
H229	H	-0.553907	-0.768930	0.606987
H230	H	-0.572674	-0.763415	0.534132
H231	H	-0.524731	-0.791298	0.546155
H232	H	-0.601302	-0.852885	0.586237
H233	H	-0.553362	-0.880768	0.598273
O234	O	-0.832736	-1.106943	0.197719
C235	C	-0.821223	-1.174384	0.212598
H236	H	-0.787145	-1.175745	0.238612
H237	H	-0.847597	-1.197171	0.247428
C238	C	-0.860907	-1.213761	0.114709
C239	C	-0.819051	-1.215434	0.146654
H240	H	-0.859569	-1.239084	0.074033
H241	H	-0.868665	-1.168325	0.104686
H242	H	-0.882881	-1.232749	0.143740
H243	H	-0.797079	-1.196438	0.117626
H244	H	-0.811289	-1.260868	0.156671
H245	H	-0.472594	-0.899381	0.404586
