data_functionalizedCrystal
_audit_creation_method	'MofGen! by Chris Wilmer'
_symmetry_space_group_name_H-M	'P1'
_symmetry_Int_Tables_number	1
_symmetry_cell_setting	triclinic
loop_
_symmetry_equiv_pos_as_xyz
  x,y,z
_cell_length_a	19.288864
_cell_length_b	17.766277
_cell_length_c	19.288874
_cell_angle_alpha	90.008252
_cell_angle_beta	83.138236
_cell_angle_gamma	90.012907
loop_
_atom_site_label
_atom_site_type_symbol
_atom_site_fract_x
_atom_site_fract_y
_atom_site_fract_z
O1	O	0.921345	0.062836	0.086651
O2	O	1.254679	0.396170	0.419984
O3	O	1.588012	0.729503	0.753318
O4	O	0.719085	0.062785	0.098340
O5	O	1.052418	0.396118	0.431673
O6	O	1.385752	0.729452	0.765006
O7	O	0.826056	0.062806	-0.008635
O8	O	1.159389	0.396140	0.324699
O9	O	1.492723	0.729473	0.658032
O10	O	0.814374	0.062815	0.193625
O11	O	1.147708	0.396149	0.526959
O12	O	1.481041	0.729482	0.860292
O13	O	0.826059	-0.062382	-0.008645
O14	O	1.159392	0.270951	0.324688
O15	O	1.492725	0.604284	0.658021
O16	O	0.719088	-0.062403	0.098329
O17	O	1.052421	0.270930	0.431662
O18	O	1.385754	0.604263	0.764996
O19	O	0.921348	-0.062352	0.086640
O20	O	1.254681	0.270981	0.419974
O21	O	1.588015	0.604315	0.753307
Cu22	Cu	0.820218	-0.073808	0.092484
Cu23	Cu	1.153551	0.259525	0.425817
Cu24	Cu	1.486885	0.592858	0.759150
Cu25	Cu	0.820215	0.074241	0.092496
Cu26	Cu	1.153548	0.407575	0.425830
Cu27	Cu	1.486882	0.740908	0.759163
O28	O	0.814377	-0.062373	0.193614
O29	O	1.147710	0.270960	0.526948
O30	O	1.481044	0.604293	0.860281
C31	C	0.693210	0.000184	0.097958
C32	C	1.026543	0.333518	0.431292
C33	C	1.359877	0.666851	0.764625
C34	C	0.616106	0.000164	0.096829
C35	C	0.949440	0.333498	0.430163
C36	C	1.282773	0.666831	0.763496
C37	C	0.571412	0.000179	0.159597
C38	C	0.904746	0.333512	0.492930
C39	C	1.238079	0.666846	0.826263
C40	C	0.498965	0.000187	0.158536
C41	C	0.832299	0.333521	0.491869
C42	C	1.165632	0.666854	0.825203
C43	C	0.471215	0.000196	0.094704
C44	C	0.804549	0.333529	0.428038
C45	C	1.137882	0.666863	0.761371
C46	C	0.515919	0.000177	0.031928
C47	C	0.849253	0.333511	0.365262
C48	C	1.182586	0.666844	0.698595
C49	C	0.588365	0.000161	0.032991
C50	C	0.921698	0.333495	0.366324
C51	C	1.255031	0.666828	0.699658
C52	C	0.362951	0.044078	0.044529
C53	C	0.696284	0.377412	0.377862
C54	C	1.029617	0.710745	0.711196
C55	C	0.290506	0.044099	0.043469
C56	C	0.623840	0.377432	0.376803
C57	C	0.957173	0.710765	0.710136
C58	C	0.247770	0.000241	0.091425
C59	C	0.581103	0.333575	0.424758
C60	C	0.914436	0.666908	0.758091
C61	C	0.277485	-0.043626	0.140452
C62	C	0.610818	0.289707	0.473785
C63	C	0.944152	0.623040	0.807118
C64	C	0.349931	-0.043642	0.141514
C65	C	0.683264	0.289691	0.474848
C66	C	1.016597	0.623024	0.808181
C67	C	0.392661	0.000213	0.093545
C68	C	0.725995	0.333546	0.426878
C69	C	1.059328	0.666879	0.760212
C70	C	0.124520	0.000264	0.153047
C71	C	0.457853	0.333597	0.486380
C72	C	0.791186	0.666931	0.819713
C73	C	0.052071	0.000268	0.151983
C74	C	0.385405	0.333601	0.485317
C75	C	0.718738	0.666934	0.818650
C76	C	0.069027	0.000265	0.025374
C77	C	0.402361	0.333598	0.358707
C78	C	0.735694	0.666932	0.692040
C79	C	0.141474	0.000254	0.026439
C80	C	0.474807	0.333587	0.359772
C81	C	0.808140	0.666921	0.693105
C82	C	0.169215	0.000257	0.090277
C83	C	0.502549	0.333590	0.423610
C84	C	0.835882	0.666924	0.756944
C85	C	0.825680	0.000212	-0.034516
C86	C	1.159014	0.333545	0.298817
C87	C	1.492347	0.666879	0.632150
C88	C	0.824549	0.000212	-0.111619
C89	C	1.157882	0.333545	0.221714
C90	C	1.491215	0.666879	0.555047
C91	C	0.947223	0.000250	0.087022
C92	C	1.280556	0.333584	0.420355
C93	C	1.613890	0.666917	0.753688
C94	C	1.024327	0.000275	0.088151
C95	C	1.357660	0.333608	0.421484
C96	C	1.690993	0.666942	0.754817
N97	N	0.820213	0.178372	0.092500
N98	N	1.153547	0.511705	0.425833
N99	N	1.486880	0.845038	0.759167
N100	N	0.820225	-0.177939	0.092474
N101	N	1.153559	0.155395	0.425808
N102	N	1.486892	0.488728	0.759141
C103	C	0.867664	0.217768	0.045224
C104	C	1.200997	0.551101	0.378558
C105	C	1.534331	0.884435	0.711891
C106	C	0.867670	0.296570	0.045223
C107	C	1.201003	0.629903	0.378556
C108	C	1.534337	0.963237	0.711890
C109	C	0.820213	0.335972	0.092491
C110	C	1.153547	0.669306	0.425824
C111	C	1.486880	1.002639	0.759158
C112	C	0.772759	0.296566	0.139776
C113	C	1.106092	0.629900	0.473109
C114	C	1.439426	0.963233	0.806443
C115	C	0.772759	0.217766	0.139780
C116	C	1.106092	0.551100	0.473114
C117	C	1.439426	0.884433	0.806447
C118	C	0.756926	0.460802	0.101636
C119	C	1.090260	0.794135	0.434970
C120	C	1.423593	1.127468	0.768303
C121	C	0.756925	0.539600	0.101627
C122	C	1.090259	0.872934	0.434960
C123	C	1.423592	1.206267	0.768294
C124	C	0.820214	0.579019	0.092481
C125	C	1.153547	0.912352	0.425815
C126	C	1.486880	1.245685	0.759148
C127	C	0.883506	0.539628	0.083330
C128	C	1.216839	0.872962	0.416663
C129	C	1.550172	1.206295	0.749997
C130	C	0.883506	0.460828	0.083335
C131	C	1.216839	0.794161	0.416668
C132	C	1.550172	1.127495	0.750001
C133	C	0.820208	0.421418	0.092492
C134	C	1.153542	0.754751	0.425825
C135	C	1.486875	1.088085	0.759158
C136	C	0.867675	0.703861	0.045201
C137	C	1.201008	1.037194	0.378535
C138	C	1.534342	1.370528	0.711868
C139	C	0.867682	0.782664	0.045205
C140	C	1.201015	1.115998	0.378538
C141	C	1.534349	1.449331	0.711872
C142	C	0.772765	0.782659	0.139755
C143	C	1.106098	1.115993	0.473088
C144	C	1.439431	1.449326	0.806421
C145	C	0.772764	0.703857	0.139754
C146	C	1.106097	1.037191	0.473088
C147	C	1.439430	1.370524	0.806421
C148	C	0.820218	0.664463	0.092474
C149	C	1.153551	0.997796	0.425807
C150	C	1.486885	1.331130	0.759141
C151	C	0.816424	-0.068012	-0.667195
C152	C	1.149758	0.265321	-0.333861
C153	C	1.483091	0.598655	-0.000528
C154	C	0.817480	-0.068016	-0.594747
C155	C	1.150814	0.265318	-0.261413
C156	C	1.484147	0.598651	0.071920
C157	C	0.818010	0.000224	-0.558510
C158	C	1.151343	0.333557	-0.225176
C159	C	1.484677	0.666891	0.108157
C160	C	0.817466	0.068472	-0.594724
C161	C	1.150799	0.401806	-0.261391
C162	C	1.484133	0.735139	0.071943
C163	C	0.816403	0.068474	-0.667170
C164	C	1.149737	0.401808	-0.333836
C165	C	1.483070	0.735141	-0.000503
C166	C	0.860374	0.052513	-0.449174
C167	C	1.193708	0.385847	-0.115841
C168	C	1.527041	0.719180	0.217493
C169	C	0.861441	0.052509	-0.376730
C170	C	1.194775	0.385842	-0.043397
C171	C	1.528108	0.719175	0.289936
C172	C	0.821285	0.000221	-0.335064
C173	C	1.154618	0.333554	-0.001730
C174	C	1.487952	0.666888	0.331603
C175	C	0.780070	-0.052075	-0.365850
C176	C	1.113404	0.281259	-0.032517
C177	C	1.446737	0.614592	0.300816
C178	C	0.779007	-0.052073	-0.438296
C179	C	1.112341	0.281261	-0.104962
C180	C	1.445674	0.614594	0.228371
C181	C	0.819162	0.000229	-0.479955
C182	C	1.152495	0.333563	-0.146621
C183	C	1.485829	0.666896	0.186712
C184	C	0.822969	-0.068027	-0.220301
C185	C	1.156302	0.265306	0.113032
C186	C	1.489635	0.598639	0.446365
C187	C	0.824020	-0.068028	-0.147852
C188	C	1.157353	0.265305	0.185482
C189	C	1.490687	0.598638	0.518815
C190	C	0.824013	0.068462	-0.147831
C191	C	1.157346	0.401795	0.185502
C192	C	1.490680	0.735128	0.518835
C193	C	0.822954	0.068461	-0.220279
C194	C	1.156288	0.401794	0.113055
C195	C	1.489621	0.735127	0.446388
C196	C	0.822436	0.000214	-0.256510
C197	C	1.155769	0.333547	0.076824
C198	C	1.489102	0.666881	0.410157
C199	C	0.814753	0.000223	0.219496
C200	C	1.148086	0.333556	0.552829
C201	C	1.481419	0.666889	0.886163
C202	C	0.815884	0.000228	0.296599
C203	C	1.149218	0.333561	0.629933
C204	C	1.482551	0.666894	0.963266
H205	H	0.462568	0.000197	0.209651
H206	H	0.795902	0.333530	0.542984
H207	H	1.129235	0.666864	0.876317
Br208	Br	0.671033	0.593051	0.114112
Br209	Br	1.004366	0.926384	0.447445
Br210	Br	1.337699	1.259718	0.780778
Br211	Br	0.649026	0.000140	-0.052201
Br212	Br	0.982359	0.333473	0.281133
Br213	Br	1.315692	0.666807	0.614466
H214	H	0.705386	0.428714	0.109087
H215	H	1.038719	0.762047	0.442421
H216	H	1.372052	1.095381	0.775754
H217	H	0.906306	0.185696	0.006727
H218	H	1.239639	0.519029	0.340061
H219	H	1.572973	0.852362	0.673394
H220	H	0.374122	-0.079364	0.181432
H221	H	0.707455	0.253970	0.514765
H222	H	1.040789	0.587303	0.848098
Br223	Br	0.250184	0.103643	-0.023058
Br224	Br	0.583518	0.436977	0.310276
Br225	Br	0.916851	0.770310	0.643609
H226	H	0.893071	0.095100	-0.483093
H227	H	1.226405	0.428434	-0.149760
H228	H	1.559738	0.761767	0.183573
H229	H	0.397742	0.079797	0.005477
H230	H	0.731075	0.413130	0.338810
H231	H	1.064408	0.746463	0.672143
Br232	Br	0.219494	-0.103149	0.205541
Br233	Br	0.552828	0.230184	0.538875
Br234	Br	0.886161	0.563518	0.872208
H235	H	0.906317	0.671785	0.006705
H236	H	1.239651	1.005118	0.340038
H237	H	1.572984	1.338451	0.673371
Br238	Br	0.824698	0.161075	-0.098656
Br239	Br	1.158032	0.494408	0.234677
Br240	Br	1.491365	0.827741	0.568011
Br241	Br	-0.008588	0.000281	0.237176
Br242	Br	0.324746	0.333614	0.570509
Br243	Br	0.658079	0.666947	0.903842
Br244	Br	0.478261	0.000181	-0.054701
Br245	Br	0.811595	0.333515	0.278632
Br246	Br	1.144928	0.666848	0.611965
Br247	Br	0.708357	0.350038	0.203931
Br248	Br	1.041691	0.683371	0.537265
Br249	Br	1.375024	1.016705	0.870598
Br250	Br	0.708366	0.836127	0.203912
Br251	Br	1.041699	1.169461	0.537246
Br252	Br	1.375032	1.502794	0.870579
Br253	Br	0.723073	-0.123038	-0.480076
Br254	Br	1.056407	0.210295	-0.146743
Br255	Br	1.389740	0.543628	0.186590
Br256	Br	0.822226	0.161077	-0.269420
Br257	Br	1.155559	0.494410	0.063914
Br258	Br	1.488893	0.827743	0.397247
Br259	Br	0.818219	-0.160633	-0.545600
Br260	Br	1.151552	0.172700	-0.212266
Br261	Br	1.484886	0.506034	0.121067
Br262	Br	0.932090	0.836135	-0.018954
Br263	Br	1.265424	1.169469	0.314379
Br264	Br	1.598757	1.502802	0.647713
Br265	Br	0.822263	-0.160645	-0.269476
Br266	Br	1.155596	0.172688	0.063857
Br267	Br	1.488929	0.506022	0.397191
Br268	Br	0.969397	0.407372	0.070922
Br269	Br	1.302730	0.740705	0.404255
Br270	Br	1.636063	1.074038	0.737588
H271	H	0.734118	0.185689	0.178279
H272	H	1.067451	0.519022	0.511612
H273	H	1.400785	0.852356	0.844946
H274	H	0.815963	0.124045	-0.696648
H275	H	1.149296	0.457378	-0.363315
H276	H	1.482629	0.790711	-0.029981
H277	H	0.734122	0.671779	0.178248
H278	H	1.067455	1.005112	0.511581
H279	H	1.400789	1.338445	0.844915
H280	H	0.906312	0.328652	0.006724
H281	H	1.239645	0.661986	0.340057
H282	H	1.572978	0.995319	0.673391
H283	H	0.824458	-0.123599	-0.118374
H284	H	1.157791	0.209734	0.214960
H285	H	1.491125	0.543067	0.548293
H286	H	0.593994	0.000183	0.211579
H287	H	0.927328	0.333516	0.544912
H288	H	1.260661	0.666850	0.878246
H289	H	0.895004	0.095087	-0.351670
H290	H	1.228337	0.428421	-0.018337
H291	H	1.561671	0.761754	0.314997
Br292	Br	0.969403	0.593114	0.070909
Br293	Br	1.302737	0.926447	0.404243
Br294	Br	1.636070	1.259781	0.737576
H295	H	0.177865	0.000246	-0.024674
H296	H	0.511198	0.333580	0.308660
H297	H	0.844532	0.666913	0.641993
H298	H	0.817895	0.124033	-0.565215
H299	H	1.151228	0.457367	-0.231882
H300	H	1.484561	0.790700	0.101452
Br301	Br	0.725574	-0.123048	-0.309313
Br302	Br	1.058908	0.210286	0.024021
Br303	Br	1.392241	0.543619	0.357354
Br304	Br	0.031375	0.000264	-0.061257
Br305	Br	0.364708	0.333598	0.272076
Br306	Br	0.698042	0.666931	0.605410
Br307	Br	0.162173	0.000263	0.239682
Br308	Br	0.495507	0.333596	0.573015
Br309	Br	0.828840	0.666929	0.906348
Br310	Br	0.815715	-0.160632	-0.716361
Br311	Br	1.149048	0.172702	-0.383028
Br312	Br	1.482381	0.506035	-0.049695
