data_functionalizedCrystal
_audit_creation_method	'MofGen! by Chris Wilmer'
_symmetry_space_group_name_H-M	'P1'
_symmetry_Int_Tables_number	1
_symmetry_cell_setting	triclinic
loop_
_symmetry_equiv_pos_as_xyz
  x,y,z
_cell_length_a	13.339071
_cell_length_b	27.731996
_cell_length_c	11.804917
_cell_angle_alpha	78.265255
_cell_angle_beta	105.117150
_cell_angle_gamma	99.125332
loop_
_atom_site_label
_atom_site_type_symbol
_atom_site_fract_x
_atom_site_fract_y
_atom_site_fract_z
O1	O	1.317837	0.248813	-0.099107
O2	O	1.023821	0.217073	-0.099096
O3	O	1.179994	0.163804	-0.099076
O4	O	1.161665	0.302082	-0.099127
O5	O	1.221086	0.149805	0.098967
O6	O	1.064913	0.203074	0.098947
O7	O	1.358930	0.234814	0.098936
Cu8	Cu	1.215673	0.217666	0.117025
Cu9	Cu	1.167077	0.234221	-0.117184
O10	O	1.202757	0.288083	0.098916
C11	C	1.006764	0.204712	-0.000072
C12	C	0.894720	0.188731	-0.000067
C13	C	0.854825	0.138894	-0.000045
C14	C	0.749553	0.123878	-0.000045
C15	C	0.684167	0.158696	-0.000059
C16	C	0.724063	0.208534	-0.000073
C17	C	0.829344	0.223552	-0.000082
C18	C	0.658686	0.243354	-0.000097
C19	C	0.698582	0.293192	-0.000111
C20	C	0.803852	0.308208	-0.000119
C21	C	0.869238	0.273389	-0.000105
C22	C	0.553405	0.228336	-0.000088
C23	C	0.527924	0.312994	-0.000125
C24	C	0.633196	0.328010	-0.000125
C25	C	1.200164	0.138745	-0.000050
C26	C	1.199033	0.084932	-0.000038
C27	C	1.169491	-0.241131	-0.108049
C28	C	1.165183	-0.443381	-0.108070
O29	O	1.145533	-0.463044	-0.199881
N30	N	1.187047	-0.476302	-0.000118
C31	C	1.209984	-0.458659	0.107847
O32	O	1.228472	-0.491303	0.199667
C33	C	1.214285	-0.256411	0.107867
C34	C	1.192429	-0.223491	-0.000092
C35	C	1.147636	-0.208212	-0.216000
C36	C	1.148719	-0.157652	-0.215993
C37	C	1.171657	-0.140012	-0.108037
C38	C	1.193512	-0.172932	-0.000086
C39	C	1.237214	-0.238770	0.215831
C40	C	1.238284	-0.188204	0.215826
C41	C	1.216429	-0.155284	0.107867
C42	C	1.217532	-0.104732	0.107877
N43	N	1.195668	-0.071810	-0.000075
C44	C	1.172730	-0.089450	-0.108032
C45	C	1.207726	-0.564842	0.107830
C46	C	1.206653	-0.615404	0.107825
C47	C	1.161850	-0.600122	-0.108093
C48	C	1.162931	-0.549558	-0.108087
C49	C	1.185862	-0.531920	-0.000123
C50	C	1.175006	0.016728	-0.108011
C51	C	1.176095	0.067292	-0.107995
C52	C	1.220893	0.052005	0.107922
C53	C	1.219809	0.001446	0.107907
C54	C	1.196861	-0.016191	-0.000069
O55	O	1.237161	-0.085035	0.199640
O56	O	1.154223	-0.056801	-0.199838
C57	C	1.168408	-0.291691	-0.108055
C58	C	1.190263	-0.324611	-0.000105
C59	C	1.213201	-0.306970	0.107852
C60	C	1.189190	-0.375172	-0.000110
C61	C	1.166252	-0.392812	-0.108066
C62	C	1.144388	-0.359891	-0.216019
C63	C	1.145471	-0.309331	-0.216012
C64	C	1.235066	-0.339892	0.215804
C65	C	1.233982	-0.390451	0.215789
C66	C	1.211044	-0.408091	0.107832
C67	C	1.375986	0.247175	-0.000090
C68	C	1.488029	0.263157	-0.000103
C69	C	1.182586	0.313143	-0.000112
C70	C	1.183715	0.366956	-0.000132
N71	N	1.249861	0.206022	0.281755
N72	N	1.132898	0.245862	-0.281914
C73	C	1.331964	0.178039	0.344075
C74	C	1.357829	0.169215	0.468728
C75	C	1.301598	0.188376	0.531074
C76	C	1.219498	0.216363	0.468754
C77	C	1.193626	0.225185	0.344088
C78	C	1.163260	0.235522	0.531087
C79	C	1.081160	0.263508	0.468767
C80	C	1.055292	0.272329	0.344113
C81	C	1.111523	0.253168	0.281768
C82	C	1.189133	0.226700	0.655753
C83	C	1.050795	0.273845	0.655766
C84	C	1.024930	0.282669	0.531112
H85	H	0.665694	0.368589	-0.000137
Cl86	Cl	1.334118	0.177284	0.687783
H87	H	0.717077	0.083301	-0.000035
Cl88	Cl	1.402637	0.153949	0.265697
H89	H	1.255979	0.203913	0.706483
Cl90	Cl	1.461033	0.134034	0.547071
Cl91	Cl	1.079009	0.264264	0.125053
Cl92	Cl	0.952070	0.307505	0.265766
Cl93	Cl	0.921720	0.317851	0.452755
Cl94	Cl	1.234150	-0.656782	0.243551
Cl95	Cl	1.264685	-0.280144	0.351560
Cl96	Cl	1.121232	-0.116275	-0.351722
Cl97	Cl	0.937025	0.095129	-0.000034
H98	H	0.474686	0.341346	-0.000137
H99	H	1.226405	-0.550486	0.195752
H100	H	1.005005	0.289447	0.706527
Cl101	Cl	1.148620	0.108675	-0.243725
H102	H	1.156314	0.002374	-0.195935
Cl103	Cl	1.001561	0.292274	-0.000231
Cl104	Cl	1.267115	-0.166034	0.351562
Cl105	Cl	1.118798	-0.230378	-0.351736
H106	H	0.520932	0.187758	-0.000077
H107	H	0.598450	0.146467	-0.000059
H108	H	1.145132	-0.522758	-0.195997
Cl109	Cl	0.854000	0.370862	-0.000159
H110	H	1.237615	-0.025359	0.195816
Cl111	Cl	1.249727	0.074191	0.243632
Cl112	Cl	1.133008	-0.622307	-0.243809
H113	H	1.127673	-0.282531	-0.303924
H114	H	1.125716	-0.374262	-0.303921
H115	H	1.251789	-0.417251	0.303709
H116	H	1.253746	-0.325535	0.303717
