data_functionalizedCrystal
_audit_creation_method	'MofGen! by Chris Wilmer'
_symmetry_space_group_name_H-M	'P1'
_symmetry_Int_Tables_number	1
_symmetry_cell_setting	triclinic
loop_
_symmetry_equiv_pos_as_xyz
  x,y,z
_cell_length_a	12.503572
_cell_length_b	9.065218
_cell_length_c	9.065218
_cell_angle_alpha	94.984115
_cell_angle_beta	86.422702
_cell_angle_gamma	86.429307
loop_
_atom_site_label
_atom_site_type_symbol
_atom_site_fract_x
_atom_site_fract_y
_atom_site_fract_z
O1	O	0.089319	-1.968796	0.207934
O2	O	0.089320	-1.539511	0.225681
O3	O	0.089317	-1.763027	0.002165
O4	O	0.089322	-1.745281	0.431450
O5	O	-0.089325	-1.746218	0.019003
O6	O	-0.089322	-1.522702	0.242519
O7	O	-0.089323	-1.951987	0.224772
Cu8	Cu	-0.105634	-1.735810	0.235183
Cu9	Cu	0.105631	-1.755689	0.215270
O10	O	-0.089320	-1.728471	0.448288
C11	C	-0.000001	-1.476120	0.232394
C12	C	-0.000000	-1.312277	0.227294
N13	N	-0.254226	-1.721839	0.249188
C14	C	-0.000002	-1.752917	-0.044402
C15	C	0.000003	-1.747818	-0.208246
C16	C	-0.473341	-1.701287	0.269802
C17	C	-0.526669	-1.790218	0.180645
C18	C	-0.648592	-1.778783	0.192115
C19	C	-0.351407	-1.712720	0.258334
N20	N	0.254223	-1.769671	0.201254
C21	C	0.000000	-2.015378	0.218059
C22	C	0.000007	-2.179222	0.223158
C23	C	0.000001	-1.738582	0.494855
C24	C	0.000003	-1.743682	0.658698
H25	H	-0.480757	-1.874944	0.095702
F26	F	-0.533345	-1.590554	0.380827
