data_functionalizedCrystal
_audit_creation_method	'MofGen! by Chris Wilmer'
_symmetry_space_group_name_H-M	'P1'
_symmetry_Int_Tables_number	1
_symmetry_cell_setting	triclinic
loop_
_symmetry_equiv_pos_as_xyz
  x,y,z
_cell_length_a	14.908520
_cell_length_b	19.077220
_cell_length_c	14.908294
_cell_angle_alpha	89.157972
_cell_angle_beta	96.360837
_cell_angle_gamma	84.261754
loop_
_atom_site_label
_atom_site_type_symbol
_atom_site_fract_x
_atom_site_fract_y
_atom_site_fract_z
Zn1	Zn	-0.339680	-1.034461	-0.583138
Zn2	Zn	-0.482329	-1.034381	-0.440504
Zn3	Zn	-0.336344	-0.923971	-0.426394
Zn4	Zn	-0.497061	-0.909531	-0.585710
O5	O	-0.413854	-0.975586	-0.508937
O6	O	-0.353834	-1.132941	-0.569046
O7	O	-0.455402	-1.025745	-0.312266
O8	O	-0.209827	-0.944704	-0.440205
O9	O	-0.458638	-1.132883	-0.464254
O10	O	-0.212278	-1.025880	-0.555364
O11	O	-0.348148	-0.944627	-0.301899
O12	O	-0.362432	-0.823565	-0.442699
O13	O	-0.483745	-0.920093	-0.711736
O14	O	-0.480510	-0.812956	-0.559748
O15	O	-0.368119	-1.011878	-0.709846
O16	O	-0.611243	-1.011743	-0.466748
O17	O	-0.622066	-0.920016	-0.573430
C18	C	-0.422708	-0.792723	-0.499972
C19	C	-0.426519	-0.714491	-0.496160
C20	C	-0.453821	-0.274125	-0.468861
C21	C	-0.450235	-0.347633	-0.472436
C22	C	-0.393977	-0.384410	-0.528883
C23	C	-0.341295	-0.347676	-0.581751
C24	C	-0.344877	-0.274170	-0.578171
C25	C	-0.377419	-0.604252	-0.545448
C26	C	-0.373843	-0.677762	-0.549026
C27	C	-0.482783	-0.677714	-0.439709
C28	C	-0.486364	-0.604206	-0.436138
C29	C	-0.433678	-0.567479	-0.489003
N30	N	-0.390312	-0.459546	-0.532541
N31	N	-0.437339	-0.492345	-0.485339
C32	C	-0.649574	-0.964322	-0.521920
C33	C	-0.750415	-0.959567	-0.527507
C34	C	-0.928575	-1.046234	-0.427016
C35	C	-1.023324	-1.041768	-0.432263
C36	C	-1.034663	-0.946173	-0.543253
C37	C	-0.939914	-0.950639	-0.538005
C38	C	-0.886873	-1.000670	-0.479884
C39	C	-0.792123	-1.005132	-0.474633
C40	C	-0.803463	-0.909541	-0.585626
C41	C	-0.898212	-0.905075	-0.590874
C42	C	-0.177213	-0.986912	-0.495924
C43	C	-0.076371	-0.991738	-0.490378
C44	C	-0.427947	-0.964384	-0.744473
C45	C	-0.433953	-0.959610	-0.844844
C46	C	-0.404957	-0.159164	-0.517926
C47	C	-0.401145	-0.237396	-0.521728
C48	C	-0.502608	-0.905096	-0.987298
C49	C	-0.496971	-0.909580	-0.892990
C50	C	-0.376566	-1.005158	-0.891012
C51	C	-0.382202	-1.000674	-0.985320
C52	C	-0.445226	-0.950642	-1.033459
C53	C	-0.450867	-0.946162	-1.127769
C54	C	-0.330457	-1.041737	-1.125789
C55	C	-0.324821	-1.046221	-1.031481
C56	C	-0.399747	-0.986788	-0.274315
C57	C	-0.393479	-0.991711	-0.173937
H58	H	-0.493128	-0.377534	-0.429385
F59	F	-0.313961	-0.716902	-0.609106
F60	F	-0.288808	-0.235082	-0.634435
F61	F	-0.269388	-1.090217	-1.174925
H62	H	-0.334523	-0.574357	-0.588498
F63	F	-1.091127	-0.892938	-0.605114
F64	F	-1.067703	-1.090264	-0.375996
F65	F	-0.735675	-1.058377	-0.412772
F66	F	-0.538848	-0.716807	-0.383449
F67	F	-0.872124	-1.099471	-0.365148
H68	H	-0.295484	-0.377626	-0.627707
F69	F	-0.954671	-0.851833	-0.652730
F70	F	-0.759074	-0.861039	-0.641886
F71	F	-0.546220	-0.565073	-0.376038
H72	H	-0.543692	-0.872487	-0.855408
F73	F	-0.517943	-0.892916	-1.179002
F74	F	-0.569688	-0.851854	-1.038534
F75	F	-0.257735	-1.099454	-0.980237
H76	H	-0.499638	-0.244186	-0.422901
F77	F	-0.309454	-1.058369	-0.839760
