data_functionalizedCrystal
_audit_creation_method	'MofGen! by Chris Wilmer'
_symmetry_space_group_name_H-M	'P1'
_symmetry_Int_Tables_number	1
_symmetry_cell_setting	triclinic
loop_
_symmetry_equiv_pos_as_xyz
  x,y,z
_cell_length_a	12.759401
_cell_length_b	14.908520
_cell_length_c	12.759393
_cell_angle_alpha	93.263606
_cell_angle_beta	89.980324
_cell_angle_gamma	93.320968
loop_
_atom_site_label
_atom_site_type_symbol
_atom_site_fract_x
_atom_site_fract_y
_atom_site_fract_z
Zn1	Zn	1.582078	-0.359104	-0.618086
Zn2	Zn	1.571807	-0.509988	-0.452533
Zn3	Zn	1.406374	-0.359149	-0.442428
Zn4	Zn	1.396211	-0.509922	-0.628170
O5	O	1.489117	-0.434541	-0.535304
O6	O	1.727736	-0.379128	-0.596134
O7	O	1.549816	-0.490025	-0.304175
O8	O	1.438234	-0.232899	-0.457281
O9	O	1.720190	-0.489981	-0.474503
O10	O	1.567323	-0.232866	-0.586336
O11	O	1.428274	-0.379204	-0.296751
O12	O	1.258006	-0.379141	-0.467058
O13	O	1.420912	-0.489869	-0.773850
O14	O	1.250538	-0.489913	-0.603522
O15	O	1.557468	-0.379064	-0.766442
O16	O	1.539961	-0.636223	-0.484280
O17	O	1.410951	-0.636175	-0.613320
C18	C	1.216151	-0.434525	-0.535288
C19	C	1.099374	-0.434540	-0.535308
C20	C	1.048435	-0.376923	-0.598752
C21	C	0.938710	-0.376932	-0.598760
C22	C	0.930872	-0.492183	-0.471877
C23	C	1.040595	-0.492169	-0.471864
C24	C	1.473267	-0.668933	-0.551014
C25	C	1.466583	-0.769207	-0.557769
C26	C	1.588497	-0.957621	-0.436204
C27	C	1.582220	-1.051838	-0.442548
C28	C	1.447757	-1.051857	-0.576806
C29	C	1.454034	-0.957641	-0.570462
C30	C	1.524406	-0.910526	-0.500157
C31	C	1.530677	-0.816308	-0.493809
C32	C	1.396220	-0.816330	-0.628072
C33	C	1.389942	-0.910546	-0.634416
C34	C	1.763150	-0.434557	-0.535321
C35	C	1.879926	-0.434564	-0.535328
C36	C	1.489202	-0.434454	-0.809332
C37	C	1.489238	-0.434417	-0.926106
C38	C	1.505058	-0.199233	-0.519556
C39	C	1.511851	-0.098959	-0.512846
C40	C	1.560348	-0.376712	-0.977112
C41	C	1.560369	-0.376673	-1.086833
C42	C	1.418165	-0.492053	-1.094535
C43	C	1.418140	-0.492086	-0.984815
C44	C	1.489098	-0.434562	-0.262338
C45	C	1.489283	-0.434344	-0.145548
H46	H	1.096289	-0.329995	-0.650408
H47	H	0.897241	-0.330013	-0.650420
O48	O	1.629486	-0.320743	-1.136506
C49	C	1.693891	-0.372087	-1.203407
H50	H	1.652209	-0.440448	-1.224415
H51	H	1.771072	-0.382018	-1.161803
C52	C	1.767487	-0.238454	-1.278509
C53	C	1.716288	-0.322413	-1.304317
H54	H	1.781307	-0.207812	-1.340753
H55	H	1.724100	-0.203861	-1.233434
H56	H	1.831798	-0.246742	-1.243837
H57	H	1.651973	-0.314124	-1.338976
H58	H	1.759666	-0.357003	-1.349401
O59	O	0.873718	-0.548263	-0.410415
C60	C	0.806324	-0.606586	-0.474036
H61	H	0.839048	-0.612238	-0.557146
H62	H	0.725051	-0.578708	-0.475851
C63	C	0.758096	-0.693376	-0.326734
C64	C	0.798294	-0.700324	-0.428809
H65	H	0.753138	-0.751197	-0.298834
H66	H	0.803498	-0.654081	-0.283870
H67	H	0.690372	-0.670141	-0.328260
H68	H	0.866021	-0.723548	-0.427280
H69	H	0.752904	-0.739625	-0.471672
O70	O	1.656933	-0.911988	-0.367882
C71	C	1.712132	-0.973760	-0.312766
H72	H	1.711282	-1.040891	-0.360323
H73	H	1.673020	-0.983861	-0.233624
C74	C	1.827452	-0.854457	-0.236818
C75	C	1.826416	-0.936907	-0.295232
H76	H	1.897947	-0.831724	-0.225997
H77	H	1.790262	-0.812840	-0.273947
H78	H	1.794853	-0.862886	-0.170872
H79	H	1.859002	-0.928475	-0.361181
H80	H	1.863615	-0.978523	-0.258114
H81	H	1.082070	-0.539089	-0.420195
O82	O	1.379429	-1.097772	-0.645007
C83	C	1.387660	-1.191028	-0.636910
H84	H	1.421261	-1.203915	-0.556730
H85	H	1.441799	-1.217679	-0.701075
C86	C	1.236861	-1.223656	-0.748177
C87	C	1.278122	-1.239485	-0.649695
H88	H	1.169294	-1.253548	-0.756068
H89	H	1.231317	-1.160828	-0.753635
H90	H	1.281986	-1.245865	-0.801637
H91	H	1.233003	-1.217266	-0.596238
H92	H	1.283655	-1.302311	-0.644228
O93	O	1.321725	-0.956417	-0.702762
C94	C	1.377875	-1.010809	-0.774360
H95	H	1.456582	-1.024884	-0.738333
H96	H	1.391789	-0.974442	-0.849781
C97	C	1.217426	-1.083052	-0.843602
C98	C	1.314091	-1.100345	-0.799350
H99	H	1.178080	-1.138281	-0.859022
H100	H	1.179596	-1.046405	-0.795369
H101	H	1.229035	-1.052744	-0.906448
H102	H	1.302481	-1.130643	-0.736499
H103	H	1.351918	-1.137000	-0.847573
H104	H	1.360282	-0.539007	-1.142348
H105	H	1.344028	-0.777974	-0.680145
O106	O	1.629442	-0.320603	-0.920238
C107	C	1.692226	-0.269678	-0.988792
H108	H	1.649421	-0.266529	-1.066788
H109	H	1.769783	-0.302715	-1.002684
C110	C	1.766437	-0.177543	-0.843754
C111	C	1.713859	-0.173669	-0.939547
H112	H	1.779786	-0.118321	-0.813377
H113	H	1.724142	-0.211854	-0.797567
H114	H	1.831062	-0.205077	-0.855344
H115	H	1.649229	-0.146145	-0.927955
H116	H	1.756144	-0.139351	-0.985732
O117	O	1.349022	-0.548232	-0.935429
C118	C	1.286263	-0.599115	-1.010771
H119	H	1.329099	-0.602222	-1.089200
H120	H	1.208712	-0.566069	-1.020217
C121	C	1.211994	-0.691325	-0.878038
C122	C	1.264609	-0.695147	-0.974364
H123	H	1.198632	-0.750561	-0.855579
H124	H	1.254272	-0.657042	-0.827277
H125	H	1.147374	-0.663782	-0.885922
H126	H	1.329233	-0.722679	-0.966475
H127	H	1.222341	-0.729437	-1.025122
H128	H	1.587974	-0.777948	-0.436560
H129	H	1.634412	-1.090179	-0.390472
