data_functionalizedCrystal
_audit_creation_method	'MofGen! by Chris Wilmer'
_symmetry_space_group_name_H-M	'P1'
_symmetry_Int_Tables_number	1
_symmetry_cell_setting	triclinic
loop_
_symmetry_equiv_pos_as_xyz
  x,y,z
_cell_length_a	16.120530
_cell_length_b	21.395361
_cell_length_c	16.120297
_cell_angle_alpha	87.133067
_cell_angle_beta	90.128140
_cell_angle_gamma	92.874023
loop_
_atom_site_label
_atom_site_type_symbol
_atom_site_fract_x
_atom_site_fract_y
_atom_site_fract_z
Zn1	Zn	1.247389	0.317425	-0.534523
Zn2	Zn	1.254324	0.417167	-0.395452
Zn3	Zn	1.115381	0.306838	-0.388442
Zn4	Zn	1.108280	0.416590	-0.527422
O5	O	1.181344	0.364505	-0.461460
O6	O	1.364675	0.335329	-0.521980
O7	O	1.241767	0.398342	-0.278157
O8	O	1.132962	0.220569	-0.407859
O9	O	1.369770	0.408608	-0.419806
O10	O	1.229948	0.228347	-0.515183
O11	O	1.139686	0.317284	-0.273007
O12	O	0.998074	0.316724	-0.400973
O13	O	1.120860	0.407625	-0.644728
O14	O	0.992857	0.397359	-0.503080
O15	O	1.223062	0.334769	-0.649946
O16	O	1.234881	0.504764	-0.412920
O17	O	1.127584	0.504340	-0.509877
C18	C	1.181236	0.527287	-0.461408
C19	C	1.181265	0.596929	-0.461417
C20	C	0.965293	0.355831	-0.450496
C21	C	0.872865	0.352135	-0.445825
C22	C	1.170395	0.372314	-0.678353
C23	C	1.165730	0.375641	-0.770780
C24	C	0.703636	0.345375	-0.437304
C25	C	0.659889	0.383684	-0.485676
C26	C	0.565724	0.379922	-0.480935
C27	C	0.797809	0.349135	-0.442044
C28	C	1.398238	0.373214	-0.472467
C29	C	1.490666	0.376925	-0.477158
C30	C	1.181473	0.201089	-0.461531
C31	C	1.181529	0.131451	-0.461562
C32	C	1.237179	0.629846	-0.410989
C33	C	1.237217	0.695284	-0.411009
C34	C	1.181326	0.727801	-0.461449
C35	C	1.125408	0.694877	-0.511888
C36	C	1.125377	0.629441	-0.511872
C37	C	1.106121	0.828750	-0.464174
C38	C	1.106151	0.894184	-0.464184
C39	C	1.181420	0.929628	-0.461503
C40	C	1.256664	0.899628	-0.458795
C41	C	1.256633	0.834192	-0.458779
C42	C	1.181353	0.798756	-0.461472
C43	C	1.237380	1.033500	-0.411094
C44	C	1.237419	1.098939	-0.411120
C45	C	1.125603	1.098530	-0.511994
C46	C	1.125571	1.033092	-0.511973
C47	C	1.181459	1.000581	-0.461518
C48	C	1.157181	0.381702	-0.940004
C49	C	1.205670	0.347128	-0.983776
C50	C	1.200914	0.350499	-1.077938
C51	C	1.161937	0.378330	-0.845833
C52	C	1.192297	0.356684	-0.245413
C53	C	1.197124	0.353186	-0.152995
H54	H	0.693155	0.419306	-0.530650
O55	O	1.103285	0.419965	-0.979611
C56	C	1.021462	0.402221	-0.954238
H57	H	1.018478	0.351160	-0.930091
H58	H	0.977551	0.407978	-1.009317
H59	H	1.002193	0.433175	-0.902788
H60	H	0.670372	0.309755	-0.392334
H61	H	1.282688	0.603378	-0.369907
H62	H	1.250755	0.314995	-0.950533
O63	O	1.033082	0.923348	-0.466671
C64	C	1.026016	0.958268	-0.395353
H65	H	1.066899	0.938146	-0.343837
H66	H	0.958588	0.955673	-0.373749
H67	H	1.046848	1.009220	-0.410804
O68	O	1.291636	0.727212	-0.362062
C69	C	1.373583	0.715166	-0.384496
H70	H	1.373670	0.668860	-0.416532
H71	H	1.413932	0.712272	-0.326396
H72	H	1.399412	0.754624	-0.428698
O73	O	1.329794	0.805152	-0.456190
C74	C	1.396240	0.850459	-0.453805
H75	H	1.375146	0.897325	-0.480739
H76	H	1.450305	0.835013	-0.492002
H77	H	1.416999	0.855676	-0.386747
H78	H	1.317956	0.928485	-0.456612
H79	H	1.282890	1.007028	-0.370013
O80	O	1.291769	1.130818	-0.362054
C81	C	1.341099	1.088088	-0.317537
H82	H	1.307164	1.039998	-0.312890
H83	H	1.353334	1.105012	-0.252484
H84	H	1.402689	1.084702	-0.351235
O85	O	1.071343	1.130204	-0.560919
C86	C	1.083376	1.195021	-0.550140
H87	H	1.113902	1.202748	-0.487375
H88	H	1.020816	1.217636	-0.552581
H89	H	1.125140	1.217090	-0.601749
H90	H	1.080037	1.006289	-0.553033
H91	H	1.044823	0.799897	-0.466360
O92	O	1.071228	0.726536	-0.560931
C93	C	1.115833	0.768158	-0.617098
H94	H	1.180356	0.779402	-0.591021
H95	H	1.081412	0.813233	-0.626505
H96	H	1.121799	0.745497	-0.679185
O97	O	1.070977	0.597557	-0.560881
C98	C	1.021670	0.640287	-0.605427
H99	H	1.020559	0.685607	-0.571235
H100	H	0.955691	0.619112	-0.610915
H101	H	1.048886	0.650694	-0.670151
