data_functionalizedCrystal
_audit_creation_method	'MofGen! by Chris Wilmer'
_symmetry_space_group_name_H-M	'P1'
_symmetry_Int_Tables_number	1
_symmetry_cell_setting	triclinic
loop_
_symmetry_equiv_pos_as_xyz
  x,y,z
_cell_length_a	8.559649
_cell_length_b	7.088929
_cell_length_c	8.559649
_cell_angle_alpha	95.344185
_cell_angle_beta	110.221336
_cell_angle_gamma	95.324331
loop_
_atom_site_label
_atom_site_type_symbol
_atom_site_fract_x
_atom_site_fract_y
_atom_site_fract_z
O1	O	-2.108181	0.158989	-0.036315
O2	O	-1.632696	0.158989	0.047467
O3	O	-1.912330	0.158987	-0.232167
O4	O	-1.828548	0.158991	0.243319
O5	O	-1.949709	-0.158988	-0.269612
O6	O	-1.670076	-0.158986	0.010021
O7	O	-2.145561	-0.158986	-0.073760
Cu8	Cu	-1.911231	-0.188020	-0.035289
Cu9	Cu	-1.867026	0.188023	0.008995
O10	O	-1.865927	-0.158984	0.205873
C11	C	-1.591077	0.000002	0.035093
C12	C	-1.411378	0.000002	0.053992
N13	N	-1.942335	-0.452508	-0.066438
C14	C	-1.187180	0.000002	-0.061387
C15	C	-1.366879	0.000003	-0.080286
C16	C	-1.937368	0.000003	-0.311198
C17	C	-1.956266	0.000014	-0.490896
N18	N	-1.835937	0.452511	0.040130
C19	C	-1.840888	0.000004	0.284905
C20	C	-1.821989	0.000006	0.464604
H21	H	-1.311988	0.000012	0.183421
C22	C	-1.593651	-0.567212	0.282791
C23	C	-1.687068	-0.437281	0.189217
H24	H	-1.501752	-0.499162	0.374838
H25	H	-1.552598	-0.645293	0.213367
H26	H	-1.663248	-0.645279	0.323653
H27	H	-1.617474	-0.359223	0.148344
H28	H	-1.728120	-0.359168	0.258653
C29	C	-1.659051	-0.000009	-0.240542
C30	C	-1.501028	-0.000004	-0.255006
H31	H	-1.741874	-0.000025	-0.348412
H32	H	-1.658199	0.110871	-0.168665
H33	H	-1.684257	-0.110900	-0.194763
H34	H	-1.475816	0.110895	-0.300774
H35	H	-1.501877	-0.110895	-0.326910
C36	C	-2.078940	-0.514483	-0.366214
C37	C	-2.091211	-0.562724	-0.215533
H38	H	-2.170853	-0.582520	-0.458255
H39	H	-1.976620	-0.547229	-0.374263
H40	H	-2.081052	-0.380984	-0.368323
H41	H	-2.089086	-0.696222	-0.213418
H42	H	-2.193558	-0.529992	-0.207482
C43	C	-1.526852	0.000001	-0.477918
C44	C	-1.647267	0.000013	-0.401248
H45	H	-1.418987	-0.000006	-0.395092
H46	H	-1.526906	0.110874	-0.532262
H47	H	-1.552987	-0.110897	-0.558379
H48	H	-1.621139	0.110919	-0.320796
H49	H	-1.647208	-0.110871	-0.346877
H50	H	-2.085696	-0.000002	-0.590286
