data_functionalizedCrystal
_audit_creation_method	'MofGen! by Chris Wilmer'
_symmetry_space_group_name_H-M	'P1'
_symmetry_Int_Tables_number	1
_symmetry_cell_setting	triclinic
loop_
_symmetry_equiv_pos_as_xyz
  x,y,z
_cell_length_a	16.959455
_cell_length_b	16.625545
_cell_length_c	16.959447
_cell_angle_alpha	90.029927
_cell_angle_beta	90.016723
_cell_angle_gamma	90.024506
loop_
_atom_site_label
_atom_site_type_symbol
_atom_site_fract_x
_atom_site_fract_y
_atom_site_fract_z
Zn1	Zn	1.208354	-0.321008	0.446961
Zn2	Zn	1.208264	-0.455856	0.314784
Zn3	Zn	1.076182	-0.321038	0.314793
Zn4	Zn	1.076134	-0.455800	0.446917
O5	O	1.142233	-0.388426	0.380864
O6	O	1.318953	-0.338907	0.429442
O7	O	1.190725	-0.438008	0.204174
O8	O	1.093773	-0.208202	0.332349
O9	O	1.318886	-0.437979	0.332332
O10	O	1.190879	-0.208180	0.429452
O11	O	1.093685	-0.338958	0.204181
O12	O	0.965565	-0.338904	0.332305
O13	O	1.093691	-0.437884	0.557534
O14	O	0.965530	-0.437913	0.429376
O15	O	1.190832	-0.338853	0.557567
O16	O	1.190678	-0.568681	0.332289
O17	O	1.093604	-0.568640	0.429366
C18	C	0.936867	-0.388406	0.380837
C19	C	0.849011	-0.388418	0.380844
C20	C	0.807731	-0.336795	0.330385
C21	C	0.807736	-0.440047	0.431315
C22	C	0.725190	-0.440056	0.431327
C23	C	0.683911	-0.388433	0.380868
C24	C	0.725178	-0.336801	0.330397
C25	C	0.683917	-0.491681	0.481802
C26	C	0.601366	-0.491692	0.481817
C27	C	0.560086	-0.440073	0.431353
C28	C	0.601358	-0.388439	0.380880
C29	C	0.560078	-0.336816	0.330420
C30	C	0.601349	-0.285186	0.279942
C31	C	0.683897	-0.285181	0.279933
C32	C	0.477537	-0.440077	0.431362
C33	C	0.477525	-0.336822	0.330432
C34	C	1.142147	-0.597917	0.380839
C35	C	1.142183	-0.687538	0.380855
C36	C	1.142214	-0.760320	0.380871
C37	C	1.142260	-0.851628	0.380888
C38	C	1.142301	-0.924405	0.380898
C39	C	1.142346	-1.015719	0.380914
C40	C	1.348402	-0.388446	0.380891
C41	C	1.436258	-0.388454	0.380903
C42	C	1.142266	-0.388359	0.587032
C43	C	1.142280	-0.388330	0.674889
C44	C	1.142341	-0.178117	0.380906
C45	C	1.142387	-0.088496	0.380924
C46	C	1.142246	-0.388434	0.175498
C47	C	1.142385	-0.388235	0.087641
C48	C	1.091798	-0.439806	1.046350
C49	C	1.192952	-0.336685	1.046379
C50	C	1.192931	-0.336702	0.963833
C51	C	1.142343	-0.388273	0.922542
C52	C	1.091777	-0.439827	0.963797
C53	C	1.243502	-0.285154	0.922573
C54	C	1.243483	-0.285170	0.840022
C55	C	1.192891	-0.336738	0.798729
C56	C	1.142322	-0.388293	0.839988
C57	C	1.091735	-0.439864	0.798697
C58	C	1.041161	-0.491416	0.839955
C59	C	1.041185	-0.491394	0.922504
C60	C	1.192868	-0.336759	0.716180
C61	C	1.091714	-0.439884	0.716143
H62	H	0.841350	-0.482072	0.472400
N63	N	0.728412	-0.229490	0.225504
H64	H	0.689738	-0.196788	0.193538
H65	H	0.762638	-0.262263	0.188867
N66	N	1.247515	-0.281065	1.090907
H67	H	1.284137	-0.313829	1.125147
H68	H	1.215364	-0.243700	1.125122
H69	H	0.443939	-0.482109	0.472465
H70	H	0.841337	-0.294761	0.289285
N71	N	0.986600	-0.547030	0.795407
H72	H	0.930133	-0.534495	0.809767
H73	H	0.998909	-0.604619	0.809770
H74	H	1.050620	-0.481776	1.079946
N75	N	1.298028	-0.229567	0.795531
H76	H	1.285783	-0.171953	0.809917
H77	H	1.290315	-0.237467	0.736985
N78	N	1.298065	-0.229539	0.967105
H79	H	1.290400	-0.237347	1.025660
H80	H	1.285792	-0.171956	0.952690
H81	H	0.717533	-0.533708	0.522886
H82	H	0.567771	-0.533734	0.522918
H83	H	1.050512	-0.481873	0.682530
N84	N	0.986654	-0.547002	0.967005
H85	H	0.954602	-0.579676	0.928323
H86	H	0.950101	-0.514173	1.001267
H87	H	1.234046	-0.294789	0.682592
H88	H	0.567729	-0.243150	0.238862
N89	N	0.433004	-0.281147	0.276002
H90	H	0.471676	-0.248443	0.244025
H91	H	0.398783	-0.243870	0.308242
