data_functionalizedCrystal
_audit_creation_method	'MofGen! by Chris Wilmer'
_symmetry_space_group_name_H-M	'P1'
_symmetry_Int_Tables_number	1
_symmetry_cell_setting	triclinic
loop_
_symmetry_equiv_pos_as_xyz
  x,y,z
_cell_length_a	15.995350
_cell_length_b	15.995350
_cell_length_c	14.472310
_cell_angle_alpha	90.001162
_cell_angle_beta	90.009379
_cell_angle_gamma	96.507625
loop_
_atom_site_label
_atom_site_type_symbol
_atom_site_fract_x
_atom_site_fract_y
_atom_site_fract_z
O1	O	1.110997	-0.107921	0.076758
O2	O	0.867221	-0.121248	0.076776
O3	O	0.995773	0.007303	0.076766
O4	O	0.982445	-0.236472	0.076769
O5	O	0.995740	0.007296	-0.076916
O6	O	0.867188	-0.121256	-0.076906
O7	O	1.110963	-0.107928	-0.076924
Cu8	Cu	0.989073	-0.114593	-0.090947
Cu9	Cu	0.989112	-0.114584	0.090800
O10	O	0.982412	-0.236480	-0.076913
C11	C	0.836010	-0.120701	-0.000062
C12	C	0.743060	-0.119049	-0.000055
C13	C	0.405312	-0.113117	-0.000074
C14	C	0.452746	-0.021565	-0.000418
C15	C	0.549436	-0.023217	-0.000065
C16	C	0.572873	-0.116060	-0.000065
C17	C	0.531804	-0.161212	0.087692
C18	C	0.435169	-0.158912	0.087759
C19	C	0.434792	-0.160812	-0.087007
C20	C	0.531737	-0.160790	-0.088160
C21	C	0.667570	-0.117727	-0.000057
C22	C	0.310614	-0.111452	-0.000076
C23	C	0.995205	0.038494	-0.000073
C24	C	0.993553	0.131444	-0.000068
C25	C	1.142175	-0.108476	-0.000083
C26	C	1.235125	-0.110127	-0.000084
N27	N	0.989051	-0.114598	-0.218778
C28	C	0.982980	-0.267671	-0.000072
C29	C	0.984631	-0.360621	-0.000071
C30	C	0.987621	0.469192	-0.000071
C31	C	0.896069	0.421758	0.000281
C32	C	0.897721	0.325068	-0.000066
C33	C	0.990564	0.301631	-0.000069
C34	C	1.035701	0.342705	-0.087831
C35	C	1.033401	0.439340	-0.087904
C36	C	1.035330	0.439707	0.086861
C37	C	1.035309	0.342762	0.088021
C38	C	0.992231	0.206934	-0.000071
C39	C	0.985956	0.563890	-0.000075
C40	C	0.989111	-0.114581	-0.592869
C41	C	0.920095	-0.183135	-0.553698
C42	C	0.920254	-0.183385	-0.446610
C43	C	0.989081	-0.114590	-0.407278
C44	C	1.076445	-0.133671	-0.446122
C45	C	1.076057	-0.134159	-0.553243
C46	C	0.971542	-0.026741	-0.553398
C47	C	0.969538	-0.027327	-0.446270
C48	C	0.989069	-0.114593	-0.302390
C49	C	0.989128	-0.114579	-0.697757
N50	N	0.989140	-0.114572	0.218631
H51	H	0.414242	-0.130885	-0.153524
H52	H	0.403031	-0.228313	-0.087600
N53	N	0.429495	0.024293	-0.079405
N54	N	0.354388	0.036283	-0.091417
H55	H	0.337968	0.068655	-0.147220
H56	H	1.005412	0.460250	0.153379
H57	H	0.862239	0.296649	0.062846
N58	N	1.121270	0.324996	-0.091955
N59	N	1.179637	0.383993	-0.091677
H60	H	1.240070	0.371485	-0.094592
H61	H	0.859490	0.440293	0.063217
H62	H	1.091540	-0.198219	-0.578220
N63	N	0.850356	0.446341	-0.078225
N64	N	0.884911	0.498642	-0.134433
H65	H	0.852628	0.516007	-0.189879
H66	H	0.559040	-0.127830	-0.153082
N67	N	0.838372	-0.169107	-0.586069
N68	N	0.823197	-0.169804	-0.670811
H69	H	0.765480	-0.159893	-0.693683
N70	N	0.567392	-0.121867	0.169636
N71	N	0.542884	-0.148766	0.247251
H72	H	0.568015	-0.120975	0.305124
H73	H	0.416874	-0.125979	0.153359
H74	H	0.433166	0.014865	0.062168
N75	N	1.142411	-0.073910	-0.585777
N76	N	1.143295	0.001984	-0.564765
H77	H	1.190160	0.044527	-0.587747
N78	N	0.893331	-0.003751	-0.587301
N79	N	0.826401	-0.049586	-0.570860
H80	H	0.771159	-0.033359	-0.594799
H81	H	0.577308	0.012521	0.062951
N82	N	0.933978	-0.264444	-0.587462
N83	N	0.994481	-0.272122	-0.640249
H84	H	1.004290	-0.329546	-0.664097
H85	H	0.402921	-0.226128	0.091741
H86	H	0.545930	-0.229421	0.090955
H87	H	0.931473	-0.248569	-0.420976
H88	H	1.129029	-0.085068	-0.420643
H89	H	0.547101	-0.228494	-0.093461
H90	H	1.092297	-0.197002	-0.419285
H91	H	0.855314	-0.172016	-0.420349
N92	N	0.585077	0.021316	-0.078980
N93	N	0.538547	0.053839	-0.134701
H94	H	0.563715	0.085298	-0.190435
H95	H	0.905272	-0.012845	-0.420883
H96	H	0.861973	0.297200	-0.063079
N97	N	1.117712	0.479815	-0.092926
N98	N	1.131033	0.558337	-0.093879
H99	H	1.190576	0.586921	-0.097431
H100	H	1.000459	0.457639	-0.153505
H101	H	1.002307	0.315516	0.152945
H102	H	1.004324	0.314320	-0.153137
N103	N	1.028501	0.039666	-0.412676
N104	N	1.086147	0.024117	-0.359215
H105	H	1.127796	0.071429	-0.335488
N106	N	1.034682	0.037252	-0.585181
N107	N	1.092400	0.018365	-0.636676
H108	H	1.136995	0.063554	-0.659129
H109	H	1.102831	0.471468	0.087449
N110	N	1.120239	0.323471	0.094669
N111	N	1.149303	0.278902	0.034319
H112	H	1.209287	0.265274	0.039010
