data_functionalizedCrystal
_audit_creation_method	'MofGen! by Chris Wilmer'
_symmetry_space_group_name_H-M	'P1'
_symmetry_Int_Tables_number	1
_symmetry_cell_setting	triclinic
loop_
_symmetry_equiv_pos_as_xyz
  x,y,z
_cell_length_a	33.592126
_cell_length_b	33.591377
_cell_length_c	33.588093
_cell_angle_alpha	60.004089
_cell_angle_beta	60.008299
_cell_angle_gamma	59.994549
loop_
_atom_site_label
_atom_site_type_symbol
_atom_site_fract_x
_atom_site_fract_y
_atom_site_fract_z
O1	O	0.055297	-0.581666	0.486338
O2	O	0.020882	-0.452873	0.391864
O3	O	0.102445	-0.534352	0.391775
O4	O	-0.026266	-0.500187	0.486427
O5	O	0.129510	-0.507292	0.418747
O6	O	0.047947	-0.425814	0.418835
O7	O	0.082362	-0.554606	0.513309
Cu8	Cu	0.067626	-0.487739	0.468535
Cu9	Cu	0.035618	-0.519740	0.436638
O10	O	0.000799	-0.473128	0.513398
N11	N	0.090139	-0.465235	0.490972
N12	N	0.013110	-0.542249	0.414202
C13	C	0.124394	-0.431229	0.734914
C14	C	0.334265	-0.431145	0.524799
C15	C	0.124204	-0.431200	0.524965
C16	C	0.124184	-0.221175	0.524955
C17	C	0.158017	-0.322536	0.558710
C18	C	0.158027	-0.397406	0.558711
C19	C	0.176763	-0.378688	0.577408
C20	C	0.258412	-0.364594	0.534386
C21	C	0.309454	-0.381596	0.517340
C22	C	0.309485	-0.464188	0.548836
C23	C	0.258444	-0.447186	0.565883
C24	C	0.170304	-0.297002	0.508532
C25	C	0.153260	-0.245956	0.491537
C26	C	0.111648	-0.245983	0.574901
C27	C	0.128691	-0.297029	0.591896
C28	C	0.107841	-0.385091	0.571080
C29	C	0.090813	-0.402108	0.554078
C30	C	0.174153	-0.443755	0.512351
C31	C	0.191183	-0.426739	0.529347
C32	C	0.107923	-0.385106	0.659111
C33	C	0.090955	-0.402138	0.710156
C34	C	0.174335	-0.443795	0.710087
C35	C	0.191302	-0.426764	0.659041
C36	C	0.158095	-0.397418	0.633555
C37	C	0.232909	-0.397388	0.558656
C38	C	0.105069	-0.449619	0.791057
C39	C	0.390406	-0.449193	0.505789
C40	C	0.104813	-0.449599	0.506607
C41	C	0.105125	-0.165028	0.506915
C42	C	-0.020560	-0.576246	0.169890
C43	C	-0.020889	-0.786183	0.379970
C44	C	-0.020859	-0.576235	0.380063
C45	C	-0.230772	-0.576015	0.379658
C46	C	-0.129417	-0.609898	0.346025
C47	C	-0.054587	-0.609979	0.346172
C48	C	-0.073269	-0.628671	0.327396
C49	C	-0.087401	-0.710299	0.370335
C50	C	-0.070424	-0.761345	0.387369
C51	C	0.012165	-0.761428	0.356003
C52	C	-0.004813	-0.710383	0.338967
C53	C	-0.155001	-0.622196	0.396191
C54	C	-0.206043	-0.605128	0.413125
C55	C	-0.205914	-0.563467	0.329724
C56	C	-0.154872	-0.580535	0.312790
C57	C	-0.066886	-0.559797	0.333828
C58	C	-0.049903	-0.542809	0.350903
C59	C	-0.008321	-0.626180	0.392654
C60	C	-0.025304	-0.643170	0.375585
C61	C	-0.066758	-0.559805	0.245702
C62	C	-0.049671	-0.542819	0.194658
C63	C	-0.008026	-0.626194	0.194706
C64	C	-0.025111	-0.643179	0.245752
C65	C	-0.054479	-0.609983	0.271248
C66	C	-0.054597	-0.684821	0.346135
C67	C	-0.002109	-0.556901	0.113746
C68	C	-0.002869	-0.842328	0.398966
C69	C	-0.002496	-0.556887	0.398501
C70	C	-0.286914	-0.556929	0.397631
N71	N	0.436349	-0.465146	0.490703
O72	O	0.592194	-0.469605	0.374236
O73	O	0.592389	-0.564393	0.502890
O74	O	0.592305	-0.564176	0.421300
O75	O	0.592277	-0.469822	0.455826
O76	O	0.511216	-0.537214	0.448415
O77	O	0.511300	-0.537431	0.530004
O78	O	0.511104	-0.442643	0.401350
Cu79	Cu	0.503798	-0.487575	0.468153
Cu80	Cu	0.599695	-0.519461	0.436087
O81	O	0.511188	-0.442860	0.482940
N82	N	0.667145	-0.541890	0.413532
N83	N	0.090108	-0.119085	0.490958
O84	O	-0.026275	0.036848	0.486394
O85	O	0.102381	0.036888	0.391584
O86	O	0.020751	0.036852	0.391854
O87	O	0.055356	0.036884	0.486124
O88	O	0.047821	-0.044242	0.418876
O89	O	0.129452	-0.044207	0.418606
O90	O	0.000796	-0.044246	0.513417
Cu91	Cu	0.067596	-0.051631	0.468479
Cu92	Cu	0.035582	0.044273	0.436522
O93	O	0.082426	-0.044211	0.513146
N94	N	0.013063	0.111726	0.414043
N95	N	0.090453	-0.465282	0.837001
O96	O	0.085913	-0.581648	0.992925
O97	O	-0.008857	-0.452947	0.992970
O98	O	-0.008635	-0.534562	0.992946
O99	O	0.085691	-0.500033	0.992949
O100	O	0.018365	-0.507512	0.911855
O101	O	0.018143	-0.425898	0.911878
O102	O	0.112912	-0.554598	0.911834
Cu103	Cu	0.067993	-0.487778	0.904452
Cu104	Cu	0.036063	-0.519767	1.000352
O105	O	0.112691	-0.472984	0.911857
N106	N	0.013602	-0.542269	1.067803
C107	C	0.031188	-0.423114	0.392334
C108	C	0.132194	-0.524016	0.392223
C109	C	0.072056	-0.584366	0.512840
C110	C	-0.028950	-0.483464	0.512950
C111	C	0.551868	-0.563965	0.532655
C112	C	0.551766	-0.563697	0.431617
C113	C	0.551623	-0.443070	0.371586
C114	C	0.551728	-0.443339	0.472623
C115	C	0.132090	-0.003555	0.392006
C116	C	0.031035	-0.003698	0.392374
C117	C	-0.028947	-0.003703	0.512961
C118	C	0.072143	-0.003661	0.512626
C119	C	-0.008408	-0.423209	0.952430
C120	C	-0.008128	-0.524272	0.952385
C121	C	0.112464	-0.584336	0.952374
C122	C	0.112190	-0.483267	0.952401
H123	H	0.050098	-0.392105	0.730957
C124	C	0.081989	-0.634348	0.552927
N125	N	0.089471	-0.671995	0.583120
C126	C	0.021027	-0.003720	0.352365
N127	N	0.013490	-0.003741	0.322233
C128	C	-0.048603	-0.373274	0.952446
N129	N	-0.078879	-0.335663	0.952458
C130	C	-0.078871	-0.003690	0.553162
N131	N	-0.116478	-0.003669	0.583438
C132	C	0.152631	-0.634300	0.952443
N133	N	0.182874	-0.671943	0.952528
H134	H	0.551779	-0.593338	0.424228
C135	C	0.551471	-0.402842	0.321694
N136	N	0.551332	-0.372534	0.284124
C137	C	0.551941	-0.604167	0.582573
N138	N	0.551997	-0.634448	0.620171
H139	H	0.023834	-0.386116	0.362662
C140	C	0.082155	-0.003652	0.552639
N141	N	0.089696	-0.003646	0.582777
H142	H	0.141823	-0.475877	0.952395
C143	C	0.182135	-0.533849	0.352069
N144	N	0.219752	-0.541255	0.321826
C145	C	-0.078891	-0.473631	0.553103
N146	N	-0.116508	-0.466224	0.583347
H147	H	0.168963	-0.003318	0.362168
C148	C	0.210868	-0.476066	0.738116
N149	N	0.238386	-0.500373	0.759227
C150	C	0.071389	-0.352821	0.631079
N151	N	0.043873	-0.328504	0.609965
H152	H	-0.037749	-0.531650	0.952352
C153	C	0.024271	-0.662714	0.166666
N154	N	0.048600	-0.690222	0.145546
C155	C	0.246497	-0.440312	0.630933
N156	N	0.288069	-0.450516	0.609763
C157	C	0.035607	-0.388561	0.567681
N158	N	-0.005975	-0.378357	0.577928
H159	H	0.201155	-0.467643	0.488446
C160	C	0.246390	-0.440296	0.515754
N161	N	0.287971	-0.450513	0.505521
H162	H	0.080840	-0.361208	0.594989
H163	H	0.237680	-0.473893	0.585645
C164	C	0.337507	-0.345519	0.490640
N165	N	0.358638	-0.318345	0.470528
C166	C	0.230328	-0.309815	0.526436
N167	N	0.209174	-0.268555	0.520448
C168	C	0.202560	-0.325059	0.472027
N169	N	0.226854	-0.346191	0.444530
C170	C	0.337576	-0.518968	0.556781
N171	N	0.358733	-0.560228	0.562766
H172	H	0.163263	-0.225165	0.450676
H173	H	0.551722	-0.413701	0.480010
H174	H	0.118680	-0.317820	0.632757
C175	C	0.079371	-0.217924	0.611406
N176	N	0.055049	-0.196790	0.638902
H177	H	-0.090673	-0.532769	0.266460
C178	C	-0.011600	-0.698381	0.273849
N179	N	-0.001424	-0.739958	0.295010
C180	C	-0.063191	-0.487616	0.166565
N181	N	-0.073375	-0.446039	0.145405
H182	H	-0.059919	-0.501948	0.340854
C183	C	0.023909	-0.662695	0.424988
N184	N	0.048191	-0.690200	0.449338
C185	C	-0.099099	-0.523284	0.301476
N186	N	-0.123362	-0.495780	0.277108
H187	H	0.021903	-0.689639	0.319262
C188	C	0.066929	-0.789548	0.348120
N189	N	0.108178	-0.810728	0.342181
C190	C	-0.106514	-0.789372	0.414001
N191	N	-0.133698	-0.810482	0.434065
C192	C	-0.142164	-0.682185	0.378220
N193	N	-0.183413	-0.661009	0.384159
C194	C	-0.011773	-0.698371	0.389159
N195	N	-0.001580	-0.739949	0.399381
H196	H	-0.226875	-0.615140	0.453976
C197	C	-0.233915	-0.531173	0.293164
N198	N	-0.255005	-0.506847	0.265627
C199	C	-0.126728	-0.567007	0.257602
N200	N	-0.105530	-0.556817	0.216035
C201	C	-0.127002	-0.654494	0.432751
N202	N	-0.105914	-0.678821	0.460289
