data_functionalizedCrystal
_audit_creation_method	'MofGen! by Chris Wilmer'
_symmetry_space_group_name_H-M	'P1'
_symmetry_Int_Tables_number	1
_symmetry_cell_setting	triclinic
loop_
_symmetry_equiv_pos_as_xyz
  x,y,z
_cell_length_a	12.827893
_cell_length_b	16.959454
_cell_length_c	12.827885
_cell_angle_alpha	89.970356
_cell_angle_beta	89.980538
_cell_angle_gamma	90.020046
loop_
_atom_site_label
_atom_site_type_symbol
_atom_site_fract_x
_atom_site_fract_y
_atom_site_fract_z
Zn1	Zn	1.597638	-0.314644	-0.590850
Zn2	Zn	1.597517	-0.446843	-0.416110
Zn3	Zn	1.422878	-0.314682	-0.416123
Zn4	Zn	1.422850	-0.446784	-0.590810
O5	O	1.510221	-0.380738	-0.503473
O6	O	1.743858	-0.332189	-0.567681
O7	O	1.574312	-0.429352	-0.269876
O8	O	1.446123	-0.204066	-0.439323
O9	O	1.743769	-0.429315	-0.439301
O10	O	1.574518	-0.204038	-0.567694
O11	O	1.446006	-0.332254	-0.269885
O12	O	1.276639	-0.332197	-0.439285
O13	O	1.446075	-0.429215	-0.737052
O14	O	1.276618	-0.429252	-0.567627
O15	O	1.574490	-0.332132	-0.737081
O16	O	1.574284	-0.557446	-0.439263
O17	O	1.445957	-0.557403	-0.567614
C18	C	1.238711	-0.380723	-0.503454
C19	C	1.122558	-0.380736	-0.503470
C20	C	1.070790	-0.428836	-0.566880
C21	C	0.950740	-0.428850	-0.566898
C22	C	1.510133	-0.586105	-0.503456
C23	C	1.510191	-0.673961	-0.503483
C24	C	1.443498	-1.045444	-0.570299
C25	C	1.577235	-1.045429	-0.436755
C26	C	1.577198	-0.962883	-0.436745
C27	C	1.510309	-0.921614	-0.503512
C28	C	1.443457	-0.962891	-0.570289
C29	C	1.644042	-0.921601	-0.369962
C30	C	1.644007	-0.839050	-0.369949
C31	C	1.577123	-0.797779	-0.436722
C32	C	1.510269	-0.839061	-0.503502
C33	C	1.443380	-0.797791	-0.570270
C34	C	1.376530	-0.839071	-0.637056
C35	C	1.376573	-0.921620	-0.637062
C36	C	1.577080	-0.715231	-0.436716
C37	C	1.443339	-0.715238	-0.570260
C38	C	1.782791	-0.380754	-0.503494
C39	C	1.898944	-0.380761	-0.503503
C40	C	1.510293	-0.380662	-0.776044
C41	C	1.510323	-0.380630	-0.892197
C42	C	1.510337	-0.174570	-0.503514
C43	C	1.510387	-0.086714	-0.503532
C44	C	1.446854	-0.332574	-0.943986
C45	C	1.446884	-0.332539	-1.064037
C46	C	1.510209	-0.380757	-0.231964
C47	C	1.510381	-0.380567	-0.115811
H48	H	0.943456	-0.339581	-0.449209
H49	H	0.906221	-0.470034	-0.621182
H50	H	1.078001	-0.339562	-0.449200
H51	H	1.564683	-0.421748	-0.936735
H52	H	1.388874	-0.681641	-0.624634
C53	C	1.130972	-0.484456	-0.640203
H54	H	1.203765	-0.477153	-0.630567
H55	H	1.113172	-0.472966	-0.710461
H56	H	1.113117	-0.537568	-0.624801
H57	H	1.392550	-0.291393	-1.108575
C58	C	1.302958	-0.793670	-0.710496
H59	H	1.312515	-0.738596	-0.700923
H60	H	1.232757	-0.807243	-0.695150
H61	H	1.318230	-0.807151	-0.780731
H62	H	1.322146	-0.955238	-0.691435
H63	H	1.392489	-0.291459	-0.899448
H64	H	1.564726	-0.421709	-1.071280
H65	H	1.389073	-1.079058	-0.624678
H66	H	1.631686	-1.079036	-0.382389
H67	H	1.698440	-0.805445	-0.315569
C68	C	1.717626	-0.966996	-0.296539
H69	H	1.708088	-1.022071	-0.306125
H70	H	1.702378	-0.953519	-0.226304
H71	H	1.787823	-0.953415	-0.311912
H72	H	1.631503	-0.681624	-0.382334
