data_functionalizedCrystal
_audit_creation_method	'MofGen! by Chris Wilmer'
_symmetry_space_group_name_H-M	'P1'
_symmetry_Int_Tables_number	1
_symmetry_cell_setting	triclinic
loop_
_symmetry_equiv_pos_as_xyz
  x,y,z
_cell_length_a	19.077105
_cell_length_b	29.839131
_cell_length_c	29.839126
_cell_angle_alpha	89.970347
_cell_angle_beta	87.677237
_cell_angle_gamma	87.731134
loop_
_atom_site_label
_atom_site_type_symbol
_atom_site_fract_x
_atom_site_fract_y
_atom_site_fract_z
Zn1	Zn	1.075974	-0.206539	-0.281538
Zn2	Zn	1.075852	-0.281653	-0.206395
Zn3	Zn	0.958263	-0.203517	-0.203406
Zn4	Zn	0.958222	-0.278617	-0.278484
O5	O	1.017078	-0.242582	-0.242456
O6	O	1.174448	-0.219038	-0.274100
O7	O	1.060220	-0.271294	-0.143131
O8	O	0.973946	-0.141053	-0.213798
O9	O	1.174359	-0.274224	-0.218892
O10	O	1.060427	-0.143272	-0.271201
O11	O	0.973828	-0.213888	-0.140935
O12	O	0.859767	-0.210944	-0.210836
O13	O	0.973876	-0.269050	-0.341757
O14	O	0.859737	-0.266120	-0.265996
O15	O	1.060388	-0.216094	-0.344001
O16	O	1.060180	-0.344116	-0.215930
O17	O	0.973758	-0.341885	-0.268894
C18	C	0.834215	-0.237875	-0.237761
C19	C	0.755985	-0.235873	-0.235763
C20	C	0.719235	-0.263702	-0.263497
C21	C	0.645730	-0.261815	-0.261622
C22	C	0.608976	-0.232100	-0.232009
C23	C	0.645731	-0.204267	-0.204274
C24	C	0.719235	-0.206153	-0.206152
C25	C	0.389143	-0.223373	-0.223321
C26	C	0.315634	-0.221490	-0.221444
C27	C	0.315638	-0.279038	-0.278793
C28	C	0.389144	-0.280923	-0.280666
C29	C	0.425892	-0.253088	-0.252932
N30	N	0.533842	-0.230171	-0.230091
N31	N	0.501025	-0.255016	-0.254853
C32	C	1.016970	-0.359301	-0.242415
C33	C	1.016989	-0.409236	-0.242415
C34	C	1.062099	-0.720003	-0.272387
C35	C	1.062175	-0.907678	-0.272416
O36	O	1.100424	-0.932895	-0.297868
N37	N	1.017197	-0.930027	-0.242509
C38	C	0.972194	-0.905454	-0.212595
O39	O	0.933934	-0.928769	-0.187161
C40	C	0.972114	-0.717780	-0.212568
C41	C	1.017100	-0.695433	-0.242474
C42	C	1.107080	-0.697656	-0.302290
C43	C	1.107064	-0.650740	-0.302281
C44	C	1.062065	-0.626171	-0.272368
C45	C	1.017083	-0.648517	-0.242465
C46	C	0.927108	-0.693208	-0.182657
C47	C	0.927091	-0.646286	-0.182654
C48	C	0.972077	-0.623940	-0.212559
C49	C	0.972068	-0.577032	-0.212543
N50	N	1.017046	-0.554683	-0.242450
C51	C	1.062044	-0.579253	-0.272362
C52	C	0.972240	-1.003986	-0.212610
C53	C	0.972260	-1.050904	-0.212616
C54	C	1.062241	-1.053125	-0.272438
C55	C	1.062223	-1.006205	-0.272429
C56	C	1.017218	-0.981637	-0.242517
C57	C	1.062006	-0.480726	-0.272340
C58	C	1.061987	-0.433806	-0.272327
C59	C	0.972004	-0.431589	-0.212508
C60	C	0.972025	-0.478505	-0.212519
C61	C	1.017029	-0.503072	-0.242439
O62	O	0.933834	-0.551787	-0.187107
O63	O	1.100288	-0.555929	-0.297799
C64	C	1.062116	-0.766919	-0.272396
C65	C	1.017134	-0.789265	-0.242492
C66	C	0.972135	-0.764696	-0.212580
C67	C	1.017155	-0.836183	-0.242498
C68	C	1.062153	-0.860753	-0.272411
C69	C	1.107131	-0.838404	-0.302318
C70	C	1.107114	-0.791488	-0.302308
C71	C	0.927158	-0.787045	-0.182673
C72	C	0.927179	-0.833961	-0.182684
C73	C	0.972177	-0.858530	-0.212597
C74	C	1.200655	-0.247307	-0.247170
C75	C	1.278885	-0.249320	-0.249179
C76	C	1.017141	-0.242570	-0.359636
C77	C	1.017168	-0.242566	-0.409571
C78	C	1.017205	-0.125406	-0.242507
C79	C	1.017259	-0.075473	-0.242529
C80	C	1.062142	-0.272397	-0.767305
C81	C	1.062144	-0.272428	-0.579631
O82	O	1.100376	-0.297862	-0.556341
N83	N	1.017165	-0.242544	-0.555016
C84	C	0.972179	-0.212652	-0.577322
O85	O	0.933916	-0.187237	-0.552079
C86	C	0.972174	-0.212623	-0.764994
C87	C	1.017162	-0.242506	-0.789607
C88	C	1.107125	-0.302278	-0.791918
C89	C	1.107127	-0.302268	-0.838833
C90	C	1.062146	-0.272377	-0.861136
C91	C	1.017164	-0.242496	-0.836523
C92	C	0.927186	-0.182733	-0.787299
C93	C	0.927187	-0.182729	-0.834220
C94	C	0.972174	-0.212612	-0.858833
C95	C	0.972185	-0.212596	-0.905741
N96	N	1.017164	-0.242480	-0.930356
C97	C	1.062145	-0.272371	-0.908053
C98	C	0.972185	-0.212668	-0.478791
C99	C	0.972187	-0.212675	-0.431874
C100	C	1.062151	-0.272452	-0.434186
C101	C	1.062152	-0.272443	-0.481105
C102	C	1.017164	-0.242552	-0.503407
C103	C	1.062146	-0.272348	-1.006579
C104	C	1.062146	-0.272334	-1.053499
C105	C	0.972179	-0.212558	-1.051182
C106	C	0.972182	-0.212570	-1.004267
C107	C	1.017167	-0.242469	-0.981966
O108	O	0.933967	-0.187178	-0.929060
O109	O	1.100390	-0.297788	-0.933304
C110	C	1.062140	-0.272407	-0.720389
C111	C	1.017158	-0.242526	-0.695776
C112	C	0.972177	-0.212635	-0.718079
C113	C	1.017159	-0.242532	-0.648858
C114	C	1.062140	-0.272423	-0.626556
C115	C	1.107119	-0.302307	-0.651171
C116	C	1.107121	-0.302297	-0.698086
C117	C	0.927198	-0.182750	-0.693463
C118	C	0.927200	-0.182762	-0.646548
C119	C	0.972181	-0.212653	-0.624245
C120	C	1.017055	-0.242561	-0.125733
C121	C	1.017165	-0.242443	-0.075802
H122	H	1.098623	-0.415613	-0.296680
H123	H	1.098785	-0.296777	-0.501142
H124	H	1.098777	-0.296790	-0.416020
N125	N	0.428784	-0.312975	-0.312603
H126	H	0.394349	-0.330319	-0.329889
H127	H	0.459318	-0.295503	-0.334210
H128	H	0.419055	-0.200712	-0.200734
H129	H	1.143747	-0.326644	-0.633004
H130	H	0.935636	-1.069095	-0.188260
H131	H	0.615812	-0.284477	-0.284206
H132	H	0.935562	-0.188336	-0.411838
N133	N	0.878679	-0.150522	-0.620009
H134	H	0.828386	-0.156206	-0.626874
H135	H	0.885554	-0.155073	-0.586910
N136	N	0.923659	-0.180427	-0.502842
H137	H	0.895171	-0.161499	-0.480125
H138	H	0.952327	-0.160369	-0.523059
H139	H	0.935559	-0.188221	-1.069349
N140	N	0.758875	-0.295756	-0.295433
H141	H	0.724437	-0.313098	-0.312719
H142	H	0.789407	-0.278283	-0.317040
H143	H	1.143693	-0.632549	-0.326634
H144	H	0.890476	-0.711394	-0.158305
N145	N	0.878673	-0.150496	-0.760760
H146	H	0.850182	-0.131562	-0.782015
H147	H	0.846078	-0.167942	-0.740441
H148	H	0.935369	-0.411578	-0.188152
H149	H	0.890552	-0.158388	-0.852375
H150	H	1.098782	-0.296691	-0.988428
H151	H	0.890567	-0.158410	-0.711617
H152	H	0.935400	-0.496701	-0.188164
H153	H	0.285710	-0.301698	-0.301373
N154	N	1.155631	-0.767393	-0.334569
H155	H	1.127007	-0.747194	-0.354637
H156	H	1.188250	-0.748784	-0.317137
H157	H	0.285711	-0.197288	-0.197333
H158	H	0.890547	-0.852151	-0.158328
N159	N	1.155669	-0.864908	-0.334579
H160	H	1.148849	-0.898021	-0.330043
H161	H	1.144688	-0.856412	-0.366376
H162	H	1.098881	-1.073137	-0.296793
H163	H	0.749155	-0.183488	-0.183569
H164	H	0.935559	-0.188231	-0.984226
N165	N	0.606093	-0.172225	-0.172326
H166	H	0.553952	-0.175257	-0.175339
H167	H	0.618919	-0.179511	-0.140559
N168	N	1.155643	-0.334529	-0.724630
H169	H	1.184133	-0.353464	-0.703376
H170	H	1.126974	-0.354581	-0.743346
H171	H	1.098854	-0.988014	-0.296781
H172	H	1.143724	-0.717656	-0.326651
N173	N	1.110551	-0.507213	-0.304611
H174	H	1.143192	-0.527512	-0.287215
H175	H	1.081899	-0.525918	-0.324682
N176	N	0.923699	-0.977490	-0.180343
H177	H	0.895215	-0.998771	-0.161400
H178	H	0.952356	-0.958758	-0.160301
N179	N	0.878546	-0.619787	-0.150392
H180	H	0.850054	-0.641066	-0.131450
H181	H	0.907200	-0.601056	-0.130347
N182	N	0.878623	-0.760549	-0.150407
H183	H	0.850137	-0.781830	-0.131465
H184	H	0.907284	-0.741820	-0.130364
N185	N	1.110666	-0.304566	-1.080049
H186	H	1.160960	-0.298885	-1.073186
H187	H	1.099639	-0.336371	-1.071578
N188	N	1.155645	-0.334502	-0.865377
H189	H	1.184133	-0.353438	-0.844123
H190	H	1.126972	-0.354553	-0.884091
N191	N	1.155643	-0.334521	-0.767868
H192	H	1.184134	-0.353447	-0.790586
H193	H	1.188237	-0.317076	-0.749254
