data_functionalizedCrystal
_audit_creation_method	'MofGen! by Chris Wilmer'
_symmetry_space_group_name_H-M	'P1'
_symmetry_Int_Tables_number	1
_symmetry_cell_setting	triclinic
loop_
_symmetry_equiv_pos_as_xyz
  x,y,z
_cell_length_a	22.010155
_cell_length_b	19.188930
_cell_length_c	19.188930
_cell_angle_alpha	83.144779
_cell_angle_beta	89.999121
_cell_angle_gamma	89.977687
loop_
_atom_site_label
_atom_site_type_symbol
_atom_site_fract_x
_atom_site_fract_y
_atom_site_fract_z
O1	O	0.050727	-0.926150	-0.087158
O2	O	0.050686	-0.722839	-0.098892
O3	O	0.050696	-0.830361	0.008631
O4	O	0.050718	-0.818627	-0.194681
O5	O	-0.050354	-0.830342	0.008615
O6	O	-0.050364	-0.722819	-0.098908
O7	O	-0.050323	-0.926130	-0.087174
Cu8	Cu	-0.059570	-0.824473	-0.093043
Cu9	Cu	0.059934	-0.824496	-0.093024
O10	O	-0.050333	-0.818608	-0.194697
C11	C	0.000156	-0.696818	-0.098520
C12	C	0.000140	-0.619313	-0.097380
C13	C	0.000169	-0.829972	0.034634
C14	C	0.000164	-0.828831	0.112138
N15	N	-0.143623	-0.824462	-0.093056
C16	C	-0.563398	-0.872110	-0.045419
C17	C	-0.627005	-0.872113	-0.045414
O18	O	-0.659893	-0.912597	-0.004921
N19	N	-0.658830	-0.824496	-0.093009
C20	C	-0.627043	-0.776867	-0.140607
O21	O	-0.659953	-0.736365	-0.181089
C22	C	-0.563437	-0.776861	-0.140608
C23	C	-0.531616	-0.824486	-0.093015
C24	C	-0.531577	-0.919731	0.002170
C25	C	-0.467973	-0.919728	0.002165
C26	C	-0.436191	-0.872105	-0.045431
C27	C	-0.468013	-0.824484	-0.093020
C28	C	-0.531652	-0.729230	-0.188201
C29	C	-0.468041	-0.729228	-0.188198
C30	C	-0.436220	-0.776853	-0.140605
C31	C	-0.372627	-0.776858	-0.140622
N32	N	-0.340803	-0.824475	-0.093027
C33	C	-0.372585	-0.872099	-0.045432
C34	C	-0.760621	-0.776883	-0.140600
C35	C	-0.824226	-0.776891	-0.140603
C36	C	-0.824184	-0.872137	-0.045410
C37	C	-0.760578	-0.872131	-0.045411
C38	C	-0.728797	-0.824500	-0.093006
C39	C	-0.239014	-0.872090	-0.045448
C40	C	-0.175405	-0.872085	-0.045460
C41	C	-0.175453	-0.776838	-0.140651
C42	C	-0.239056	-0.776845	-0.140641
C43	C	-0.270835	-0.824474	-0.093034
O44	O	-0.339699	-0.736393	-0.181092
O45	O	-0.339667	-0.912588	-0.004950
N46	N	0.143986	-0.824513	-0.093005
C47	C	0.000209	-0.952151	-0.087546
C48	C	0.000229	-1.029656	-0.088687
C49	C	0.000156	-0.574389	-0.160470
C50	C	0.000163	-0.501566	-0.159399
C51	C	0.000165	-0.473669	-0.095233
C52	C	0.000146	-0.518603	-0.032133
C53	C	0.000133	-0.591425	-0.033207
N54	N	0.034576	-0.365696	-0.046180
N55	N	0.034590	-0.296517	-0.045165
C56	C	0.000202	-0.254260	-0.091994
N57	N	-0.034192	-0.283795	-0.139889
N58	N	-0.034202	-0.352979	-0.140906
C59	C	0.000179	-0.394707	-0.094061
C60	C	0.000224	-0.130372	-0.153928
C61	C	0.000227	-0.057547	-0.152853
C62	C	0.000216	-0.074586	-0.025586
C63	C	0.000207	-0.147409	-0.026662
C64	C	0.000214	-0.175298	-0.090835
C65	C	0.000196	-0.818997	-0.220700
C66	C	0.000205	-0.820138	-0.298204
C67	C	0.000173	-0.891922	0.157062
C68	C	0.000183	-0.890850	0.229886
C69	C	0.000171	-0.826684	0.257782
C70	C	0.000164	-0.763585	0.212849
C71	C	0.000161	-0.764658	0.140026
N72	N	-0.034229	-0.777630	0.365782
N73	N	-0.034227	-0.776615	0.434961
C74	C	0.000182	-0.823446	0.477191
N75	N	0.034581	-0.871342	0.447631
N76	N	0.034577	-0.872359	0.378446
C77	C	0.000175	-0.825513	0.336745
C78	C	0.000203	-0.885379	0.601079
C79	C	0.000216	-0.884305	0.673904
C80	C	0.000192	-0.757038	0.656865
C81	C	0.000184	-0.758114	0.584042
C82	C	0.000187	-0.822287	0.556154
H83	H	-0.149498	-0.910870	-0.006704
H84	H	0.000256	-0.051874	0.026659
Br85	Br	-0.867405	-0.712266	-0.205207
Br86	Br	0.000149	-0.679028	0.079054
Br87	Br	-0.282240	-0.712218	-0.205243
Br88	Br	0.000236	-0.969936	0.734875
Br89	Br	-0.717399	-0.936767	0.019182
H90	H	0.000198	-0.183988	0.024713
H91	H	-0.734748	-0.738098	-0.179363
Br92	Br	0.000201	-0.972468	0.563226
H93	H	0.000184	-0.704792	0.679578
Br94	Br	-0.574824	-0.664592	-0.252794
H95	H	0.000237	-0.020970	-0.204232
Br96	Br	-0.132310	-0.712210	-0.205244
H97	H	0.000221	-0.153080	-0.206181
Br98	Br	0.000194	-0.979013	0.119216
Br99	Br	0.000199	-0.976479	0.290866
Br100	Br	0.000155	-0.676502	0.250706
Br101	Br	0.000171	-0.672486	0.523070
H102	H	-0.442068	-0.958507	0.040921
Br103	Br	0.000143	-0.480745	0.054950
H104	H	-0.557448	-0.958512	0.040932
Br105	Br	-0.282132	-0.936730	0.019162
H106	H	-0.442168	-0.690439	-0.226955
H107	H	0.000163	-0.597091	-0.212725
H108	H	0.000174	-0.464982	-0.210776
H109	H	0.000120	-0.628003	0.018171
Br110	Br	-0.867330	-0.936769	0.019184
