data_functionalizedCrystal
_audit_creation_method	'MofGen! by Chris Wilmer'
_symmetry_space_group_name_H-M	'P1'
_symmetry_Int_Tables_number	1
_symmetry_cell_setting	triclinic
loop_
_symmetry_equiv_pos_as_xyz
  x,y,z
_cell_length_a	15.298206
_cell_length_b	15.297327
_cell_length_c	11.169409
_cell_angle_alpha	99.639791
_cell_angle_beta	99.666949
_cell_angle_gamma	88.422996
loop_
_atom_site_label
_atom_site_type_symbol
_atom_site_fract_x
_atom_site_fract_y
_atom_site_fract_z
Zn1	Zn	1.278599	-0.580140	-0.517158
Zn2	Zn	1.253128	-0.726628	-0.356042
Zn3	Zn	1.132124	-0.554868	-0.344454
Zn4	Zn	1.106761	-0.701247	-0.584599
O5	O	1.192653	-0.640721	-0.450563
O6	O	1.397776	-0.620770	-0.472411
O7	O	1.237032	-0.703890	-0.186576
O8	O	1.172828	-0.435655	-0.334290
O9	O	1.379063	-0.728394	-0.354039
O10	O	1.280443	-0.454222	-0.461175
O11	O	1.148130	-0.577699	-0.178062
O12	O	1.006204	-0.553088	-0.399685
O13	O	1.129601	-0.685136	-0.743581
O14	O	0.987569	-0.660632	-0.576118
O15	O	1.255849	-0.596159	-0.694033
O16	O	1.212438	-0.845827	-0.419434
O17	O	1.104902	-0.827180	-0.587354
C18	C	0.965109	-0.601364	-0.493963
C19	C	0.867761	-0.584548	-0.512564
C20	C	0.831762	-0.520700	-0.583081
C21	C	0.740300	-0.504892	-0.600558
C22	C	0.684828	-0.552935	-0.547527
C23	C	0.720826	-0.616789	-0.477016
C24	C	0.812298	-0.632593	-0.459529
C25	C	0.665364	-0.664829	-0.423976
C26	C	0.701363	-0.728682	-0.353465
C27	C	0.792825	-0.744484	-0.335982
C28	C	0.848297	-0.696441	-0.389012
C29	C	0.573893	-0.649024	-0.441463
C30	C	0.554429	-0.760918	-0.317911
C31	C	0.645891	-0.776726	-0.300435
C32	C	1.153178	-0.868288	-0.511991
C33	C	1.136370	-0.965656	-0.538295
C34	C	1.313139	-1.278863	-0.262905
C35	C	1.328930	-1.187381	-0.238185
C36	C	1.280792	-1.131945	-0.313210
C37	C	1.216859	-1.168000	-0.412960
C38	C	1.201062	-1.259490	-0.437677
C39	C	1.168715	-1.112573	-0.487982
C40	C	1.104782	-1.148628	-0.587732
C41	C	1.088988	-1.240109	-0.612444
C42	C	1.137126	-1.295545	-0.537419
C43	C	1.184512	-1.021083	-0.463266
C44	C	1.072435	-1.001710	-0.638037
C45	C	1.056644	-1.093192	-0.662757
C46	C	1.421085	-0.680232	-0.406995
C47	C	1.518429	-0.697070	-0.388428
C48	C	1.192737	-0.640635	-0.763567
C49	C	1.192773	-0.640599	-0.896950
C50	C	1.232306	-0.412270	-0.388917
C51	C	1.249204	-0.314917	-0.362647
C52	C	1.192630	-0.640752	-0.138751
C53	C	1.192807	-0.640571	-0.005269
H54	H	0.876935	-0.481586	-0.626243
Br55	Br	0.841684	-0.831115	-0.240243
H56	H	1.036920	-1.269461	-0.693655
Br57	Br	0.969883	-1.142136	-0.798129
H58	H	0.710996	-0.452903	-0.657969
H59	H	0.675214	-0.828716	-0.243024
H60	H	1.352321	-1.324005	-0.201824
H61	H	0.610357	-0.540058	-0.561757
Br62	Br	1.007091	-0.926482	-0.739854
H63	H	0.922772	-0.709320	-0.374804
H64	H	1.124275	-1.370038	-0.557543
Br65	Br	1.271273	-0.972161	-0.327894
Br66	Br	0.479154	-0.826117	-0.245927
Br67	Br	0.525049	-0.562367	-0.537151
Br68	Br	1.415699	-1.138455	-0.102826
H69	H	1.293652	-1.057457	-0.293076
