data_functionalizedCrystal
_audit_creation_method	'MofGen! by Chris Wilmer'
_symmetry_space_group_name_H-M	'P1'
_symmetry_Int_Tables_number	1
_symmetry_cell_setting	triclinic
loop_
_symmetry_equiv_pos_as_xyz
  x,y,z
_cell_length_a	13.897449
_cell_length_b	12.645329
_cell_length_c	13.897441
_cell_angle_alpha	89.971321
_cell_angle_beta	89.979267
_cell_angle_gamma	90.019257
loop_
_atom_site_label
_atom_site_type_symbol
_atom_site_fract_x
_atom_site_fract_y
_atom_site_fract_z
Zn1	Zn	1.474701	-0.421969	-0.545394
Zn2	Zn	1.474594	-0.599265	-0.384101
Zn3	Zn	1.313390	-0.422020	-0.384112
Zn4	Zn	1.313371	-0.599195	-0.545353
O5	O	1.394014	-0.510612	-0.464740
O6	O	1.609668	-0.445496	-0.524010
O7	O	1.453173	-0.575803	-0.249121
O8	O	1.334841	-0.273666	-0.405529
O9	O	1.609590	-0.575754	-0.405509
O10	O	1.453355	-0.273629	-0.524022
O11	O	1.334737	-0.445582	-0.249129
O12	O	1.178406	-0.445515	-0.405489
O13	O	1.334808	-0.575636	-0.680341
O14	O	1.178392	-0.575684	-0.523952
O15	O	1.453337	-0.445428	-0.680370
O16	O	1.453155	-0.747603	-0.405470
O17	O	1.334705	-0.747552	-0.523941
C18	C	1.143399	-0.510598	-0.464718
C19	C	1.036186	-0.510618	-0.464732
C20	C	0.839890	-0.510621	-0.464757
C21	C	0.949123	-0.510616	-0.464740
C22	C	1.393942	-0.786042	-0.464721
C23	C	1.394000	-0.903872	-0.464745
C24	C	1.319448	-0.948766	-0.539232
C25	C	1.319757	-1.071326	-0.539555
C26	C	1.495839	-1.071635	-0.492137
C27	C	1.495318	-0.949037	-0.492647
C28	C	1.367789	-0.949168	-0.362743
C29	C	1.365635	-1.071776	-0.363318
C30	C	1.645607	-0.510627	-0.464763
C31	C	1.752821	-0.510634	-0.464772
C32	C	1.394082	-0.510519	-0.716333
C33	C	1.394111	-0.510479	-0.823547
C34	C	1.394112	-0.234107	-0.464781
C35	C	1.394154	-0.116277	-0.464798
C36	C	1.394138	-0.510407	-1.019843
C37	C	1.394120	-0.510450	-0.910610
C38	C	1.394001	-0.510629	-0.214126
C39	C	1.394159	-0.510370	-0.106912
H40	H	1.243773	-0.919395	-0.522332
H41	H	1.294859	-0.918350	-0.337795
O42	O	1.564082	-1.106406	-0.429566
C43	C	1.634469	-1.164355	-0.480119
H44	H	1.634162	-1.139535	-0.558988
H45	H	1.708333	-1.147956	-0.447734
H46	H	1.617830	-1.252431	-0.474514
O47	O	1.340072	-0.911870	-0.628832
C48	C	1.421561	-0.845597	-0.624491
H49	H	1.465803	-0.866081	-0.557989
H50	H	1.467305	-0.857569	-0.691713
H51	H	1.397469	-0.759554	-0.620260
H52	H	1.290801	-1.100969	-0.342696
H53	H	1.517505	-0.920359	-0.567202
H54	H	1.518454	-1.102256	-0.565889
H55	H	1.415990	-1.102390	-0.304883
H56	H	1.422082	-0.920122	-0.307247
O57	O	1.340486	-1.106410	-0.629689
C58	C	1.340873	-1.217906	-0.630333
H59	H	1.295507	-1.248629	-0.567932
H60	H	1.309532	-1.247570	-0.701150
H61	H	1.417890	-1.247676	-0.622438
O62	O	1.229821	-1.107472	-0.519326
C63	C	1.196125	-1.169140	-0.596810
H64	H	1.259968	-1.200447	-0.639715
H65	H	1.152262	-1.238410	-0.567883
H66	H	1.148900	-1.118431	-0.645486
O67	O	1.563803	-0.913709	-0.430603
C68	C	1.543482	-0.951176	-0.337208
H69	H	1.496744	-1.025074	-0.342164
H70	H	1.613671	-0.971252	-0.298912
H71	H	1.503601	-0.887501	-0.295026
