data_functionalizedCrystal
_audit_creation_method	'MofGen! by Chris Wilmer'
_symmetry_space_group_name_H-M	'P1'
_symmetry_Int_Tables_number	1
_symmetry_cell_setting	triclinic
loop_
_symmetry_equiv_pos_as_xyz
  x,y,z
_cell_length_a	15.995292
_cell_length_b	10.489741
_cell_length_c	14.472310
_cell_angle_alpha	90.000699
_cell_angle_beta	90.014199
_cell_angle_gamma	84.003895
loop_
_atom_site_label
_atom_site_type_symbol
_atom_site_fract_x
_atom_site_fract_y
_atom_site_fract_z
O1	O	1.112016	0.164046	0.076865
O2	O	0.868357	0.184426	0.076862
O3	O	0.995731	-0.011441	0.076858
O4	O	0.984642	0.359913	0.076869
O5	O	0.995698	-0.011430	-0.076824
O6	O	0.868324	0.184437	-0.076820
O7	O	1.111983	0.164057	-0.076817
Cu8	Cu	0.990150	0.174248	-0.090851
Cu9	Cu	0.990190	0.174235	0.090896
O10	O	0.984609	0.359924	-0.076813
C11	C	0.837140	0.183602	0.000020
C12	C	0.744172	0.181115	0.000019
C13	C	0.406378	0.171973	0.000029
C14	C	0.430543	0.313345	0.000376
C15	C	0.527235	0.316032	0.000026
C16	C	0.573962	0.176510	0.000024
C17	C	0.544415	0.105837	-0.087735
C18	C	0.447614	0.104135	-0.087804
C19	C	0.447779	0.101235	0.086961
C20	C	0.544303	0.106474	0.088117
C21	C	0.668673	0.179066	0.000019
C22	C	0.311667	0.169413	0.000028
C23	C	0.994877	-0.058955	0.000018
C24	C	0.992371	-0.200549	0.000019
C25	C	0.911327	-0.267529	0.000025
C26	C	0.949595	-0.360194	-0.075748
C27	C	0.949647	-0.360180	0.075771
C28	C	1.030673	-0.291349	-0.075816
C29	C	1.030713	-0.291325	0.075771
C30	C	1.069040	-0.383963	-0.000020
C31	C	1.143200	0.164881	0.000027
C32	C	1.236168	0.167368	0.000035
N33	N	0.990129	0.174257	-0.218682
C34	C	0.985463	0.407438	0.000030
C35	C	0.987969	0.549032	0.000034
C36	C	0.990188	0.174230	-0.592773
C37	C	0.921800	0.278683	-0.553605
C38	C	0.921962	0.279064	-0.446517
C39	C	0.990158	0.174243	-0.407182
C40	C	1.077700	0.203283	-0.446017
C41	C	1.077317	0.204026	-0.553138
C42	C	0.971812	0.040426	-0.553306
C43	C	0.969814	0.041319	-0.446179
C44	C	0.990147	0.174248	-0.302294
C45	C	0.990206	0.174227	-0.697661
N46	N	0.990217	0.174216	0.218727
H47	H	0.563197	0.157931	0.153040
Cl48	Cl	0.424178	-0.055890	-0.094016
H49	H	1.064990	-0.260776	0.139835
Cl50	Cl	0.896703	-0.407268	0.174669
Cl51	Cl	1.158203	0.088948	-0.406680
Cl52	Cl	0.821045	0.252400	-0.593399
H53	H	0.546609	0.371373	0.062937
H54	H	0.933780	0.378357	-0.420880
H55	H	0.856916	0.261766	-0.420263
H56	H	0.421078	0.153089	-0.153405
H57	H	0.402889	0.367831	0.063313
H58	H	0.933460	0.377417	-0.580511
H59	H	0.576660	0.004637	0.093416
H60	H	1.093388	0.301607	-0.578111
Cl61	Cl	0.808450	-0.189399	-0.000088
H62	H	0.401838	0.367538	-0.062203
Cl63	Cl	0.592650	-0.052683	-0.092774
H64	H	1.129839	0.130945	-0.579045
Cl65	Cl	0.875310	-0.002673	-0.595067
Cl66	Cl	1.103077	0.352223	-0.404581
H67	H	0.915290	-0.390710	-0.139809
H68	H	0.905413	0.019280	-0.420798
Cl69	Cl	0.575815	0.181622	-0.188569
H70	H	0.419732	0.145418	0.153477
H71	H	1.016327	-0.040050	-0.419407
H72	H	1.021675	-0.037304	-0.578634
Cl73	Cl	1.083552	-0.244505	-0.174830
Cl74	Cl	0.425211	-0.059425	0.087874
H75	H	1.135734	-0.434342	-0.000062
H76	H	0.545961	0.371724	-0.062987
