data_functionalizedCrystal
_audit_creation_method	'MofGen! by Chris Wilmer'
_symmetry_space_group_name_H-M	'P1'
_symmetry_Int_Tables_number	1
_symmetry_cell_setting	triclinic
loop_
_symmetry_equiv_pos_as_xyz
  x,y,z
_cell_length_a	25.639242
_cell_length_b	21.295417
_cell_length_c	21.295411
_cell_angle_alpha	90.021644
_cell_angle_beta	89.966692
_cell_angle_gamma	89.973967
loop_
_atom_site_label
_atom_site_type_symbol
_atom_site_fract_x
_atom_site_fract_y
_atom_site_fract_z
Zn1	Zn	0.799312	0.250756	-0.356058
Zn2	Zn	1.299312	0.750756	0.143942
Zn3	Zn	0.799231	0.356008	-0.250784
Zn4	Zn	1.299231	0.856008	0.249216
Zn5	Zn	0.711872	0.250748	-0.250787
Zn6	Zn	1.211872	0.750748	0.249213
Zn7	Zn	0.711846	0.355983	-0.355999
Zn8	Zn	1.211846	0.855983	0.144001
O9	O	0.755565	0.303374	-0.303407
O10	O	1.255565	0.803374	0.196593
O11	O	0.872467	0.264731	-0.342117
O12	O	1.372467	0.764731	0.157883
O13	O	0.787620	0.342052	-0.162695
O14	O	1.287620	0.842052	0.337305
O15	O	0.723515	0.162660	-0.264778
O16	O	1.223515	0.662660	0.235222
O17	O	0.872407	0.342060	-0.264772
O18	O	1.372407	0.842060	0.235228
O19	O	0.787758	0.162666	-0.342120
O20	O	1.287758	0.662666	0.157880
O21	O	0.723437	0.264718	-0.162697
O22	O	1.223437	0.764718	0.337303
O23	O	0.638703	0.264694	-0.264721
O24	O	1.138703	0.764694	0.235279
O25	O	0.723472	0.342017	-0.444097
O26	O	1.223472	0.842017	0.055903
O27	O	0.638684	0.342010	-0.342020
O28	O	1.138684	0.842010	0.157980
O29	O	0.787733	0.264707	-0.444140
O30	O	1.287733	0.764707	0.055860
O31	O	0.787595	0.444094	-0.264715
O32	O	1.287595	0.944094	0.235285
O33	O	0.723393	0.444076	-0.342016
O34	O	1.223393	0.944076	0.157984
C35	C	0.619723	0.303349	-0.303364
C36	C	1.119723	0.803349	0.196636
C37	C	0.561609	0.303354	-0.303361
C38	C	1.061609	0.803354	0.196639
C39	C	0.755609	0.303361	-0.467597
C40	C	1.255609	0.803361	0.032403
C41	C	0.755627	0.303355	-0.537566
C42	C	1.255627	0.803355	-0.037566
C43	C	0.755497	0.466925	-0.303372
C44	C	1.255497	0.966925	0.196628
C45	C	0.755515	0.536894	-0.303378
C46	C	1.255515	1.036894	0.196622
C47	C	0.201245	0.343699	-0.343619
C48	C	0.701245	0.843699	0.156381
C49	C	0.146641	0.343703	-0.343628
C50	C	0.646641	0.843703	0.156372
O51	O	0.118403	0.377976	-0.377821
O52	O	0.618403	0.877976	0.122179
N53	N	0.119326	0.303391	-0.303448
N54	N	0.619326	0.803391	0.196552
C55	C	0.146619	0.263068	-0.263260
C56	C	0.646619	0.763068	0.236740
O57	O	0.118372	0.228780	-0.229085
O58	O	0.618372	0.728780	0.270915
C59	C	0.201222	0.263062	-0.263254
C60	C	0.701222	0.763062	0.236746
C61	C	0.228534	0.303381	-0.303432
C62	C	0.728534	0.803381	0.196568
C63	C	0.228556	0.384015	-0.383794
C64	C	0.728556	0.884015	0.116206
C65	C	0.283157	0.384011	-0.383783
C66	C	0.783157	0.884011	0.116217
C67	C	0.310446	0.343693	-0.343597
C68	C	0.810446	0.843693	0.156403
C69	C	0.283134	0.303378	-0.303421
C70	C	0.783134	0.803378	0.196579
C71	C	0.228514	0.222736	-0.223069
C72	C	0.728514	0.722736	0.276931
C73	C	0.283121	0.222732	-0.223067
C74	C	0.783121	0.722732	0.276933
C75	C	0.310433	0.263052	-0.263245
C76	C	0.810433	0.763052	0.236755
C77	C	0.365024	0.263056	-0.263224
C78	C	0.865024	0.763056	0.236776
N79	N	0.392338	0.303368	-0.303404
N80	N	0.892338	0.803368	0.196596
C81	C	0.365049	0.343686	-0.343590
C82	C	0.865049	0.843686	0.156410
C83	C	0.031949	0.263084	-0.263277
C84	C	0.531949	0.763084	0.236723
C85	C	-0.022654	0.263093	-0.263280
C86	C	0.477346	0.763093	0.236720
C87	C	-0.022629	0.343728	-0.343649
C88	C	0.477371	0.843728	0.156351
C89	C	0.031975	0.343721	-0.343643
C90	C	0.531975	0.843721	0.156357
C91	C	0.059263	0.303396	-0.303457
C92	C	0.559263	0.803396	0.196543
C93	C	0.479714	0.343677	-0.343564
C94	C	0.979714	0.843677	0.156436
C95	C	0.534320	0.343672	-0.343548
C96	C	1.034320	0.843672	0.156452
C97	C	0.534290	0.263036	-0.263181
C98	C	1.034290	0.763036	0.236819
C99	C	0.479689	0.263043	-0.263195
C100	C	0.979689	0.763043	0.236805
C101	C	0.452403	0.303365	-0.303391
C102	C	0.952403	0.803365	0.196609
O103	O	0.393296	0.228799	-0.229051
O104	O	0.893296	0.728799	0.270949
O105	O	0.393303	0.377963	-0.377766
O106	O	0.893303	0.877963	0.122234
C107	C	0.891938	0.303399	-0.303450
C108	C	1.391938	0.803399	0.196550
C109	C	0.950052	0.303410	-0.303469
C110	C	1.450052	0.803410	0.196531
C111	C	0.755648	0.139184	-0.303456
C112	C	1.255648	0.639184	0.196544
C113	C	0.755684	0.069215	-0.303477
C114	C	1.255684	0.569215	0.196523
C115	C	0.788975	0.569749	-0.263169
C116	C	1.288975	1.069749	0.236831
C117	C	0.788999	0.635491	-0.263183
C118	C	1.288999	1.135491	0.236817
C119	C	0.755555	0.668376	-0.303400
C120	C	1.255555	1.168376	0.196600
C121	C	0.722093	0.635513	-0.343618
C122	C	1.222093	1.135513	0.156382
C123	C	0.722073	0.569772	-0.343607
C124	C	1.222073	1.069772	0.156393
N125	N	0.709817	0.771638	-0.308185
N126	N	1.209817	1.271638	0.191815
N127	N	0.709838	0.834090	-0.308191
N128	N	1.209838	1.334090	0.191809
C129	C	0.755614	0.866451	-0.303436
C130	C	1.255614	1.366451	0.196564
N131	N	0.801369	0.834001	-0.298662
N132	N	1.301369	1.334001	0.201338
N133	N	0.801348	0.771544	-0.298652
N134	N	1.301348	1.271544	0.201348
C135	C	0.755573	0.739661	-0.303417
C136	C	1.255573	1.239661	0.196583
C137	C	0.789102	0.970591	-0.263240
C138	C	1.289102	1.470591	0.236760
C139	C	0.789128	1.036335	-0.263258
C140	C	1.289128	1.536335	0.236742
C141	C	0.722217	1.036356	-0.343690
C142	C	1.222217	1.536356	0.156310
C143	C	0.722196	0.970613	-0.343674
C144	C	1.222196	1.470613	0.156326
C145	C	0.755638	0.937735	-0.303446
C146	C	1.255638	1.437735	0.196554
C147	C	0.789086	0.263098	-0.570456
C148	C	1.289086	0.763098	-0.070456
C149	C	0.789086	0.263071	-0.636198
C150	C	1.289086	0.763071	-0.136198
C151	C	0.755631	0.303312	-0.669048
C152	C	1.255631	0.803312	-0.169048
C153	C	0.722166	0.343571	-0.636150
C154	C	1.222166	0.843571	-0.136150
C155	C	0.722163	0.343593	-0.570409
C156	C	1.222163	0.843593	-0.070409
N157	N	0.751597	0.358379	-0.772263
N158	N	1.251597	0.858379	-0.272263
N159	N	0.751602	0.358357	-0.834714
N160	N	1.251602	0.858357	-0.334714
C161	C	0.755635	0.303248	-0.867123
C162	C	1.255635	0.803248	-0.367123
N163	N	0.759672	0.248161	-0.834721
N164	N	1.259672	0.748161	-0.334721
N165	N	0.759670	0.248184	-0.772264
N166	N	1.259670	0.748184	-0.272264
C167	C	0.755630	0.303292	-0.740334
C168	C	1.255630	0.803292	-0.240334
C169	C	0.789095	0.262958	-0.971299
C170	C	1.289095	0.762958	-0.471299
C171	C	0.789090	0.262929	-1.037043
C172	C	1.289090	0.762929	-0.537043
C173	C	0.722173	0.343436	-1.036993
C174	C	1.222173	0.843436	-0.536993
C175	C	0.722175	0.343459	-0.971250
C176	C	1.222175	0.843459	-0.471250
C177	C	0.755638	0.303220	-0.938407
C178	C	1.255638	0.803220	-0.438407
C179	C	0.755552	0.303342	-0.139856
C180	C	1.255552	0.803342	0.360144
C181	C	0.755635	0.303170	-0.069888
C182	C	1.255635	0.803170	0.430112
H183	H	0.556554	0.376507	-0.376266
H184	H	1.056554	0.876507	0.123734
H185	H	0.816378	1.063085	-0.230516
H186	H	1.316378	1.563085	0.269484
N187	N	0.825051	0.534289	-0.219791
N188	N	1.325051	1.034289	0.280209
H189	H	0.803812	0.507048	-0.190585
H190	H	1.303812	1.007048	0.309415
H191	H	0.846245	0.565124	-0.194366
H192	H	1.346245	1.065124	0.305634
H193	H	0.457504	0.376510	-0.376297
H194	H	0.957504	0.876510	0.123703
H195	H	0.054163	0.230247	-0.230548
H196	H	0.554163	0.730247	0.269452
H197	H	0.054208	0.376552	-0.376361
H198	H	0.554208	0.876552	0.123639
H199	H	0.556518	0.230211	-0.230460
H200	H	1.056518	0.730211	0.269540
H201	H	0.305337	0.189890	-0.190346
H202	H	0.805337	0.689890	0.309654
H203	H	0.816336	0.230143	-1.063821
H204	H	1.316336	0.730143	-0.563821
N205	N	0.686074	0.386965	-0.671576
N206	N	1.186074	0.886965	-0.171576
H207	H	0.691151	0.380841	-0.718214
H208	H	1.191151	0.880841	-0.218214
H209	H	0.694180	0.431931	-0.660091
H210	H	1.194180	0.931931	-0.160091
H211	H	0.694988	1.063130	-0.376438
H212	H	1.194988	1.563130	0.123562
N213	N	0.686104	0.935171	-0.387039
N214	N	1.186104	1.435171	0.112961
H215	H	0.664919	0.965977	-0.412519
H216	H	1.164919	1.465977	0.087481
H217	H	0.661911	0.907934	-0.361377
H218	H	1.161911	1.407934	0.138623
H219	H	0.694915	0.376374	-0.543630
H220	H	1.194915	0.876374	-0.043630
H221	H	0.816334	0.943821	-0.230485
H222	H	1.316334	1.443821	0.269515
H223	H	0.816335	0.230332	-0.543719
H224	H	1.316335	0.730332	-0.043719
H225	H	0.816340	0.230190	-0.944557
H226	H	1.316340	0.730190	-0.444557
N227	N	0.825084	0.670945	-0.219812
N228	N	1.325084	1.170945	0.280188
H229	H	0.862436	0.659468	-0.229627
H230	H	1.362436	1.159468	0.270373
H231	H	0.816930	0.659525	-0.174840
H232	H	1.316930	1.159525	0.325160
N233	N	0.825175	0.219649	-0.671684
N234	N	1.325175	0.719649	-0.171684
H235	H	0.846373	0.194161	-0.640902
H236	H	1.346373	0.694161	-0.140902
H237	H	0.849355	0.245274	-0.698974
H238	H	1.349355	0.745274	-0.198974
H239	H	0.206287	0.189905	-0.190350
H240	H	0.706287	0.689905	0.309650
N241	N	0.686085	0.386835	-1.072414
N242	N	1.186085	0.886835	-0.572414
H243	H	0.691161	0.380712	-1.119052
H244	H	1.191161	0.880712	-0.619052
H245	H	0.694198	0.431799	-1.060928
H246	H	1.194198	0.931799	-0.560928
N247	N	0.686078	0.386869	-0.935771
N248	N	1.186078	0.886869	-0.435771
H249	H	0.664880	0.412354	-0.966555
H250	H	1.164880	0.912354	-0.466555
H251	H	0.707334	0.416018	-0.908500
H252	H	1.207334	0.916018	-0.408500
H253	H	0.694864	0.662292	-0.376364
H254	H	1.194864	1.162292	0.123636
H255	H	0.305389	0.416842	-0.416502
H256	H	0.805389	0.916842	0.083498
N257	N	0.199128	0.427508	-0.427138
N258	N	0.699128	0.927508	0.072862
H259	H	0.224723	0.453044	-0.452582
H260	H	0.724723	0.953044	0.047418
H261	H	0.176454	0.456606	-0.401459
H262	H	0.676454	0.956606	0.098541
N263	N	0.450223	0.219579	-0.219844
N264	N	0.950223	0.719579	0.280156
H265	H	0.427588	0.190444	-0.245474
H266	H	0.927588	0.690444	0.254526
H267	H	0.427576	0.245183	-0.190649
H268	H	0.927576	0.745183	0.309351
N269	N	-0.052067	0.387216	-0.386995
N270	N	0.447933	0.887216	0.113005
H271	H	-0.090802	0.381097	-0.380900
H272	H	0.409198	0.881097	0.119100
H273	H	-0.042495	0.377483	-0.431970
H274	H	0.457505	0.877483	0.068030
N275	N	-0.052108	0.219616	-0.219935
N276	N	0.447892	0.719616	0.280065
H277	H	-0.026530	0.194077	-0.194477
H278	H	0.473470	0.694077	0.305523
H279	H	-0.074738	0.190521	-0.245613
H280	H	0.425262	0.690521	0.254387
H281	H	0.694826	0.543020	-0.376351
H282	H	1.194826	1.043020	0.123649
