data_functionalizedCrystal
_audit_creation_method	'MofGen! by Chris Wilmer'
_symmetry_space_group_name_H-M	'P1'
_symmetry_Int_Tables_number	1
_symmetry_cell_setting	triclinic
loop_
_symmetry_equiv_pos_as_xyz
  x,y,z
_cell_length_a	18.215407
_cell_length_b	12.645330
_cell_length_c	12.645323
_cell_angle_alpha	89.975130
_cell_angle_beta	89.977371
_cell_angle_gamma	90.018140
loop_
_atom_site_label
_atom_site_type_symbol
_atom_site_fract_x
_atom_site_fract_y
_atom_site_fract_z
Zn1	Zn	1.125129	-0.422018	-0.599445
Zn2	Zn	1.625129	0.077982	-0.099445
Zn3	Zn	1.125047	-0.599306	-0.422185
Zn4	Zn	1.625047	-0.099306	0.077815
Zn5	Zn	1.002056	-0.422059	-0.422189
Zn6	Zn	1.502056	0.077941	0.077811
Zn7	Zn	1.002043	-0.599242	-0.599401
Zn8	Zn	1.502043	-0.099242	-0.099401
O9	O	1.063569	-0.510656	-0.510805
O10	O	1.563569	-0.010656	-0.010805
O11	O	1.228102	-0.445546	-0.575948
O12	O	1.728102	0.054454	-0.075948
O13	O	1.108703	-0.575838	-0.273838
O14	O	1.608703	-0.075838	0.226162
O15	O	1.018421	-0.273706	-0.445723
O16	O	1.518421	0.226294	0.054277
O17	O	1.228042	-0.575799	-0.445716
O18	O	1.728042	-0.075799	0.054284
O19	O	1.108843	-0.273676	-0.575952
O20	O	1.608843	0.226324	-0.075952
O21	O	1.018342	-0.445615	-0.273842
O22	O	1.518342	0.054385	0.226158
O23	O	0.899070	-0.445552	-0.445680
O24	O	1.399070	0.054448	0.054320
O25	O	1.018400	-0.575689	-0.747754
O26	O	1.518400	-0.075689	-0.247754
O27	O	0.899060	-0.575728	-0.575876
O28	O	1.399060	-0.075728	-0.075876
O29	O	1.108830	-0.445483	-0.747786
O30	O	1.608830	0.054517	-0.247786
O31	O	1.108690	-0.747645	-0.445673
O32	O	1.608690	-0.247645	0.054327
O33	O	1.018320	-0.747597	-0.575872
O34	O	1.518320	-0.247597	-0.075872
C35	C	0.872362	-0.510638	-0.510775
C36	C	1.372362	-0.010638	-0.010775
C37	C	0.790563	-0.510656	-0.510787
C38	C	1.290563	-0.010656	-0.010787
C39	C	1.063515	-0.786086	-0.510790
C40	C	1.563515	-0.286086	-0.010790
C41	C	1.063559	-0.903916	-0.510819
C42	C	1.563559	-0.403916	-0.010819
C43	C	0.602384	-0.578545	-0.578495
C44	C	1.102384	-0.078545	-0.078495
C45	C	0.525525	-0.578548	-0.578508
C46	C	1.025525	-0.078548	-0.078508
C47	C	0.525505	-0.442787	-0.443138
C48	C	1.025505	0.057213	0.056862
C49	C	0.602363	-0.442779	-0.443131
C50	C	1.102363	0.057221	0.056869
C51	C	0.640800	-0.510664	-0.510808
C52	C	1.140800	-0.010664	-0.010808
C53	C	0.487084	-0.510675	-0.510828
C54	C	0.987084	-0.010675	-0.010828
C55	C	0.403750	-0.510678	-0.510842
C56	C	0.903750	-0.010678	-0.010842
C57	C	0.724139	-0.510660	-0.510796
C58	C	1.224139	-0.010660	-0.010796
C59	C	1.006942	-1.071494	-0.592980
C60	C	1.506942	-0.571494	-0.092980
C61	C	1.006652	-0.948935	-0.592716
C62	C	1.506652	-0.448935	-0.092716
C63	C	1.042563	-0.948510	-0.399097
C64	C	1.542563	-0.448510	0.100903
C65	C	1.042217	-1.071109	-0.399596
C66	C	1.542217	-0.571109	0.100404
C67	C	1.141520	-1.071004	-0.539474
C68	C	1.641520	-0.571004	-0.039474
C69	C	1.141042	-0.948398	-0.541917
C70	C	1.641042	-0.448398	-0.041917
C71	C	1.255522	-0.510675	-0.510836
C72	C	1.755522	-0.010675	-0.010836
C73	C	1.337320	-0.510683	-0.510849
C74	C	1.837320	-0.010683	-0.010849
C75	C	1.063623	-0.510574	-0.787310
C76	C	1.563623	-0.010574	-0.287310
C77	C	1.063646	-0.510539	-0.905141
C78	C	1.563646	-0.010539	-0.405141
C79	C	1.063643	-0.234151	-0.510843
C80	C	1.563643	0.265849	-0.010843
C81	C	1.063674	-0.116321	-0.510859
C82	C	1.563674	0.383679	-0.010859
C83	C	1.006580	-0.592065	-1.072684
C84	C	1.506580	-0.092065	-0.572684
C85	C	1.006730	-0.592469	-0.950124
C86	C	1.506730	-0.092469	-0.450124
C87	C	1.141189	-0.540857	-0.949660
C88	C	1.641189	-0.040857	-0.449660
C89	C	1.140876	-0.541368	-1.072259
C90	C	1.640876	-0.041368	-0.572259
C91	C	1.043902	-0.398240	-1.072338
C92	C	1.543902	0.101760	-0.572338
C93	C	1.042172	-0.398913	-0.949732
C94	C	1.542172	0.101087	-0.449732
C95	C	1.063557	-0.510661	-0.235375
C96	C	1.563557	-0.010661	0.264625
C97	C	1.063676	-0.510398	-0.117546
C98	C	1.563676	-0.010398	0.382454
H99	H	0.633677	-0.633818	-0.633604
H100	H	1.133677	-0.133818	-0.133604
H101	H	0.949229	-0.573497	-0.920022
H102	H	1.449229	-0.073497	-0.420022
Cl103	Cl	0.477179	-0.357453	-0.358061
Cl104	Cl	0.977179	0.142547	0.141939
Cl105	Cl	0.955618	-0.901259	-0.360994
Cl106	Cl	1.455618	-0.401259	0.139006
Cl107	Cl	0.958119	-0.355574	-1.120046
Cl108	Cl	1.458119	0.144426	-0.620046
H109	H	0.494250	-0.633822	-0.633627
H110	H	0.994250	-0.133822	-0.133627
H111	H	1.080720	-0.334849	-0.919111
H112	H	1.580720	0.165151	-0.419111
H113	H	1.082574	-0.919351	-0.336239
H114	H	1.582574	-0.419351	0.163761
H115	H	1.158238	-0.621987	-0.918972
H116	H	1.658238	-0.121987	-0.418972
H117	H	0.633642	-0.387496	-0.388012
H118	H	1.133642	0.112504	0.111988
Cl119	Cl	1.026931	-0.902374	-0.720618
Cl120	Cl	1.526931	-0.402374	-0.220618
Cl121	Cl	1.026494	-0.719623	-1.120342
Cl122	Cl	1.526494	-0.219623	-0.620342
Cl123	Cl	1.027032	-1.116907	-0.721305
Cl124	Cl	1.527032	-0.616907	-0.221305
Cl125	Cl	0.918398	-1.119225	-0.564109
Cl126	Cl	1.418398	-0.619225	-0.064109
H127	H	0.948941	-0.919701	-0.573759
H128	H	1.448941	-0.419701	-0.073759
H129	H	1.183787	-1.099992	-0.479662
H130	H	1.683787	-0.599992	0.020338
H131	H	1.085488	-0.337394	-1.101352
H132	H	1.585488	0.162606	-0.601352
Cl133	Cl	0.954359	-1.115412	-0.362172
Cl134	Cl	1.454359	-0.615412	0.137828
H135	H	1.160673	-1.101848	-0.619557
H136	H	1.660673	-0.601848	-0.119557
H137	H	0.985107	-0.376049	-0.920633
H138	H	1.485107	0.123951	-0.420633
H139	H	1.156876	-0.919247	-0.624139
H140	H	1.656876	-0.419247	-0.124139
Cl141	Cl	1.103236	-1.116902	-0.301900
Cl142	Cl	1.603236	-0.616902	0.198100
H143	H	1.185537	-0.917747	-0.486460
H144	H	1.685537	-0.417747	0.013540
Cl145	Cl	0.917535	-0.563054	-1.118178
Cl146	Cl	1.417535	-0.063054	-0.618178
Cl147	Cl	1.026927	-0.720829	-0.904858
Cl148	Cl	1.526927	-0.220829	-0.404858
H149	H	1.157638	-0.623358	-1.100869
H150	H	1.657638	-0.123358	-0.600869
H151	H	1.184859	-0.484467	-1.101937
H152	H	1.684859	0.015533	-0.601937
Cl153	Cl	1.208633	-0.451927	-0.904682
Cl154	Cl	1.708633	0.048073	-0.404682
