data_functionalizedCrystal
_audit_creation_method	'MofGen! by Chris Wilmer'
_symmetry_space_group_name_H-M	'P1'
_symmetry_Int_Tables_number	1
_symmetry_cell_setting	triclinic
loop_
_symmetry_equiv_pos_as_xyz
  x,y,z
_cell_length_a	19.077115
_cell_length_b	19.121063
_cell_length_c	19.077174
_cell_angle_alpha	94.804191
_cell_angle_beta	85.484425
_cell_angle_gamma	90.263014
loop_
_atom_site_label
_atom_site_type_symbol
_atom_site_fract_x
_atom_site_fract_y
_atom_site_fract_z
Zn1	Zn	1.079659	-0.341255	-0.455830
Zn2	Zn	1.412992	-0.007922	-0.122497
Zn3	Zn	1.746326	0.325412	0.210836
Zn4	Zn	1.070212	-0.453789	-0.342559
Zn5	Zn	1.403546	-0.120455	-0.009226
Zn6	Zn	1.736879	0.212878	0.324107
Zn7	Zn	0.957448	-0.331437	-0.332827
Zn8	Zn	1.290782	0.001896	0.000507
Zn9	Zn	1.624115	0.335230	0.333840
Zn10	Zn	0.957108	-0.453743	-0.455677
Zn11	Zn	1.290442	-0.120409	-0.122343
Zn12	Zn	1.623775	0.212924	0.210990
O13	O	1.016107	-0.395056	-0.396723
O14	O	1.349440	-0.061722	-0.063390
O15	O	1.682774	0.271611	0.269943
O16	O	1.176886	-0.360311	-0.444942
O17	O	1.510219	-0.026978	-0.111609
O18	O	1.843553	0.306356	0.221724
O19	O	1.051443	-0.433469	-0.242451
O20	O	1.384776	-0.100135	0.090882
O21	O	1.718110	0.233198	0.424216
O22	O	0.977756	-0.234459	-0.345134
O23	O	1.311089	0.098875	-0.011801
O24	O	1.644422	0.432208	0.321532
O25	O	1.169946	-0.442989	-0.361723
O26	O	1.503279	-0.109655	-0.028389
O27	O	1.836612	0.223678	0.304944
O28	O	1.067543	-0.241672	-0.435505
O29	O	1.400877	0.091662	-0.102172
O30	O	1.734210	0.424995	0.231162
O31	O	0.968596	-0.343578	-0.235300
O32	O	1.301929	-0.010244	0.098033
O33	O	1.635262	0.323089	0.431366
O34	O	0.858923	-0.343533	-0.344985
O35	O	1.192257	-0.010200	-0.011652
O36	O	1.525590	0.323133	0.321681
O37	O	0.977176	-0.442910	-0.554515
O38	O	1.310509	-0.109577	-0.221181
O39	O	1.643843	0.223756	0.112152
O40	O	0.858673	-0.433390	-0.435243
O41	O	1.192007	-0.100057	-0.101910
O42	O	1.525340	0.233276	0.231424
O43	O	1.067214	-0.360266	-0.554628
O44	O	1.400547	-0.026933	-0.221294
O45	O	1.733880	0.306400	0.112039
O46	O	1.051113	-0.552063	-0.361574
O47	O	1.384447	-0.218730	-0.028240
O48	O	1.717780	0.114603	0.305093
O49	O	0.968016	-0.552030	-0.444680
O50	O	1.301349	-0.218696	-0.111347
O51	O	1.634683	0.114637	0.221986
C52	C	0.833263	-0.387392	-0.389042
C53	C	1.166597	-0.054059	-0.055708
C54	C	1.499930	0.279275	0.277625
C55	C	0.755042	-0.384131	-0.385773
C56	C	1.088375	-0.050798	-0.052440
C57	C	1.421709	0.282536	0.280894
C58	C	0.314753	-0.360712	-0.362334
C59	C	0.648086	-0.027379	-0.029001
C60	C	0.981419	0.305954	0.304332
C61	C	0.388250	-0.363780	-0.365410
C62	C	0.721583	-0.030447	-0.032076
C63	C	1.054917	0.302886	0.301257
C64	C	0.424879	-0.412169	-0.413869
C65	C	0.758212	-0.078836	-0.080536
C66	C	1.091545	0.254498	0.252797
C67	C	0.388007	-0.457488	-0.459261
C68	C	0.721340	-0.124154	-0.125928
C69	C	1.054674	0.209179	0.207405
C70	C	0.314511	-0.454416	-0.456189
C71	C	0.647845	-0.121082	-0.122856
C72	C	0.981178	0.212251	0.210478
C73	C	0.644675	-0.426378	-0.428093
C74	C	0.978008	-0.093044	-0.094759
C75	C	1.311341	0.240289	0.238574
C76	C	0.718175	-0.429448	-0.431160
C77	C	1.051509	-0.096114	-0.097827
C78	C	1.384842	0.237219	0.235506
C79	C	0.718413	-0.335739	-0.337309
C80	C	1.051747	-0.002406	-0.003976
C81	C	1.385080	0.330928	0.329358
C82	C	0.644916	-0.332674	-0.334238
C83	C	0.978249	0.000659	-0.000905
C84	C	1.311583	0.333993	0.332428
C85	C	0.608051	-0.377990	-0.379633
C86	C	0.941384	-0.044657	-0.046299
C87	C	1.274718	0.288676	0.287034
N88	N	0.500005	-0.415308	-0.417012
N89	N	0.833338	-0.081975	-0.083679
N90	N	1.166671	0.251359	0.249654
N91	N	0.532927	-0.374848	-0.376493
N92	N	0.866260	-0.041514	-0.043159
N93	N	1.199593	0.291819	0.290174
C94	C	1.008522	-0.577531	-0.404183
C95	C	1.341856	-0.244198	-0.070849
C96	C	1.675189	0.089136	0.262484
C97	C	1.005343	-0.655598	-0.407400
C98	C	1.338676	-0.322265	-0.074067
C99	C	1.672010	0.011068	0.259267
C100	C	1.047150	-0.692272	-0.365681
C101	C	1.380483	-0.358939	-0.032348
C102	C	1.713817	-0.025605	0.300985
C103	C	1.044164	-0.765625	-0.368712
C104	C	1.377497	-0.432292	-0.035378
C105	C	1.710831	-0.098958	0.297955
C106	C	0.999367	-0.802303	-0.413457
C107	C	1.332700	-0.468969	-0.080124
C108	C	1.666034	-0.135636	0.253209
C109	C	0.957558	-0.765624	-0.455181
C110	C	1.290892	-0.432291	-0.121848
C111	C	1.624225	-0.098957	0.211486
C112	C	0.960549	-0.692273	-0.452154
C113	C	1.293882	-0.358940	-0.118821
C114	C	1.627215	-0.025606	0.214513
C115	C	0.988176	-1.023777	-0.424763
C116	C	1.321509	-0.690443	-0.091430
C117	C	1.654843	-0.357110	0.241903
C118	C	0.985187	-1.097133	-0.427786
C119	C	1.318521	-0.763800	-0.094452
C120	C	1.651854	-0.430466	0.238881
C121	C	1.071794	-1.097129	-0.341317
C122	C	1.405128	-0.763795	-0.007984
C123	C	1.738461	-0.430462	0.325350
C124	C	1.074777	-1.023776	-0.338291
C125	C	1.408111	-0.690442	-0.004957
C126	C	1.741444	-0.357109	0.328376
C127	C	1.032971	-0.987104	-0.380017
C128	C	1.366305	-0.653770	-0.046684
C129	C	1.699638	-0.320437	0.286650
C130	C	0.996312	-0.877281	-0.416554
C131	C	1.329645	-0.543948	-0.083221
C132	C	1.662979	-0.210614	0.250112
C133	C	1.036030	-0.912127	-0.376923
C134	C	1.369364	-0.578794	-0.043590
C135	C	1.702697	-0.245460	0.289743
C136	C	1.199665	-0.402750	-0.404435
C137	C	1.532998	-0.069417	-0.071102
C138	C	1.866331	0.263917	0.262231
C139	C	1.277886	-0.406029	-0.407722
C140	C	1.611219	-0.072696	-0.074388
C141	C	1.944553	0.260638	0.258945
C142	C	1.023211	-0.402678	-0.580910
C143	C	1.356544	-0.069345	-0.247576
C144	C	1.689877	0.263988	0.085757
C145	C	1.026238	-0.405927	-0.659399
C146	C	1.359571	-0.072593	-0.326066
C147	C	1.692905	0.260740	0.007268
C148	C	1.023741	-0.211869	-0.389251
C149	C	1.357074	0.121464	-0.055918
C150	C	1.690408	0.454797	0.277416
C151	C	1.026994	-0.133806	-0.386067
C152	C	1.360328	0.199527	-0.052734
C153	C	1.693661	0.532860	0.280600
C154	C	0.984528	-0.360652	-0.692550
C155	C	1.317861	-0.027319	-0.359217
C156	C	1.651194	0.306014	-0.025883
C157	C	0.987369	-0.363710	-0.766299
C158	C	1.320703	-0.030377	-0.432966
C159	C	1.654036	0.302957	-0.099633
C160	C	1.031925	-0.412039	-0.806896
C161	C	1.365258	-0.078706	-0.473563
C162	C	1.698592	0.254627	-0.140229
C163	C	1.073636	-0.457319	-0.773740
C164	C	1.406970	-0.123985	-0.440407
C165	C	1.740303	0.209348	-0.107073
C166	C	1.070791	-0.454264	-0.699992
C167	C	1.404124	-0.120930	-0.366659
C168	C	1.737458	0.212403	-0.033326
C169	C	1.045057	-0.426198	-1.027858
C170	C	1.378390	-0.092864	-0.694525
C171	C	1.711724	0.240469	-0.361191
C172	C	1.047901	-0.429248	-1.101611
C173	C	1.381234	-0.095915	-0.768277
C174	C	1.714568	0.237419	-0.434944
C175	C	0.961632	-0.335640	-1.094165
C176	C	1.294966	-0.002306	-0.760831
C177	C	1.628299	0.331027	-0.427498
C178	C	0.958794	-0.332586	-1.020416
C179	C	1.292127	0.000747	-0.687083
C180	C	1.625461	0.334080	-0.353749
C181	C	1.000503	-0.377868	-0.987266
C182	C	1.333836	-0.044535	-0.653933
C183	C	1.667169	0.288799	-0.320600
N184	N	1.034832	-0.415165	-0.882280
N185	N	1.368165	-0.081831	-0.548946
N186	N	1.701499	0.251502	-0.215613
N187	N	0.997592	-0.374746	-0.911884
N188	N	1.330925	-0.041412	-0.578551
N189	N	1.664258	0.291921	-0.245217
C190	C	1.009074	-0.387414	-0.213253
C191	C	1.342407	-0.054081	0.120080
C192	C	1.675740	0.279253	0.453414
C193	C	1.006191	-0.383973	-0.134762
C194	C	1.339524	-0.050640	0.198572
C195	C	1.672858	0.282693	0.531905
H196	H	0.748437	-0.298844	-0.300352
H197	H	1.081770	0.034489	0.032981
H198	H	1.415104	0.367822	0.366314
H199	H	0.927675	-0.298775	-1.121163
H200	H	1.261008	0.034559	-0.787830
H201	H	1.594341	0.367892	-0.454497
H202	H	1.109911	-0.496673	-0.806800
H203	H	1.443244	-0.163340	-0.473467
H204	H	1.776578	0.169994	-0.140133
H205	H	0.954135	-0.993924	-0.458737
H206	H	1.287468	-0.660591	-0.125404
H207	H	1.620801	-0.327257	0.207930
H208	H	1.084187	-0.468604	-1.134663
H209	H	1.417520	-0.135271	-0.801330
H210	H	1.750853	0.198062	-0.467997
H211	H	1.104761	-0.491126	-0.673002
H212	H	1.438095	-0.157793	-0.339669
H213	H	1.771428	0.175541	-0.006335
H214	H	0.615098	-0.293276	-0.294772
H215	H	0.948431	0.040058	0.038561
H216	H	1.281764	0.373391	0.371894
H217	H	0.948717	-1.126995	-0.464236
H218	H	1.282050	-0.793661	-0.130903
H219	H	1.615384	-0.460328	0.202431
H220	H	1.078207	-0.795481	-0.334739
H221	H	1.411540	-0.462148	-0.001406
H222	H	1.744874	-0.128814	0.331928
H223	H	0.418263	-0.326882	-0.328448
H224	H	0.751597	0.006452	0.004886
H225	H	1.084930	0.339785	0.338219
H226	H	0.948250	-0.321293	-0.659501
H227	H	1.281583	0.012040	-0.326168
H228	H	1.614917	0.345373	0.007166
H229	H	1.079011	-0.463077	-1.000877
H230	H	1.412345	-0.129743	-0.667543
H231	H	1.745678	0.203590	-0.334210
H232	H	0.953402	-0.326845	-0.793287
H233	H	1.286735	0.006488	-0.459954
H234	H	1.620068	0.339821	-0.126621
H235	H	0.284935	-0.321309	-0.322873
H236	H	0.618268	0.012024	0.010461
H237	H	0.951601	0.345357	0.343794
H238	H	0.747997	-0.468852	-0.470625
H239	H	1.081330	-0.135519	-0.137292
H240	H	1.414663	0.197815	0.196041
H241	H	0.614668	-0.463280	-0.465054
H242	H	0.948001	-0.129946	-0.131720
H243	H	1.281334	0.203387	0.201613
H244	H	0.417836	-0.496884	-0.498721
H245	H	0.751169	-0.163551	-0.165388
H246	H	1.084503	0.169783	0.167946
H247	H	1.083625	-0.662413	-0.329241
H248	H	1.416958	-0.329080	0.004092
H249	H	1.750292	0.004253	0.337425
H250	H	0.284495	-0.491316	-0.493150
H251	H	0.617829	-0.157982	-0.159817
H252	H	0.951162	0.175351	0.173517
H253	H	0.922510	-0.293233	-0.987367
H254	H	1.255843	0.040100	-0.654033
H255	H	1.589177	0.373434	-0.320700
H256	H	0.959837	-0.907152	-0.452985
H257	H	1.293170	-0.573819	-0.119652
H258	H	1.626503	-0.240485	0.213682
H259	H	1.072507	-0.882262	-0.340494
H260	H	1.405840	-0.548929	-0.007161
H261	H	1.739174	-0.215595	0.326173
H262	H	1.111254	-0.993914	-0.301855
H263	H	1.444588	-0.660581	0.031478
H264	H	1.777921	-0.327247	0.364812
H265	H	1.105831	-1.126995	-0.307347
H266	H	1.439164	-0.793661	0.025986
H267	H	1.772498	-0.460328	0.359320
H268	H	0.921087	-0.795493	-0.491617
H269	H	1.254420	-0.462160	-0.158284
H270	H	1.587754	-0.128827	0.175050
H271	H	0.926506	-0.662414	-0.486127
H272	H	1.259839	-0.329081	-0.152793
H273	H	1.593173	0.004253	0.180540
