data_functionalizedCrystal
_audit_creation_method	'MofGen! by Chris Wilmer'
_symmetry_space_group_name_H-M	'P1'
_symmetry_Int_Tables_number	1
_symmetry_cell_setting	triclinic
loop_
_symmetry_equiv_pos_as_xyz
  x,y,z
_cell_length_a	21.395364
_cell_length_b	25.639240
_cell_length_c	21.395355
_cell_angle_alpha	89.973484
_cell_angle_beta	89.975448
_cell_angle_gamma	90.047709
loop_
_atom_site_label
_atom_site_type_symbol
_atom_site_fract_x
_atom_site_fract_y
_atom_site_fract_z
Zn1	Zn	0.957850	-0.208003	-0.354227
Zn2	Zn	0.957749	-0.295422	-0.249435
Zn3	Zn	0.853065	-0.208026	-0.249463
Zn4	Zn	0.853031	-0.295432	-0.354175
O5	O	0.905424	-0.251721	-0.301825
O6	O	1.045515	-0.219586	-0.340335
O7	O	0.943835	-0.283835	-0.161760
O8	O	0.867022	-0.134857	-0.263394
O9	O	1.045440	-0.283813	-0.263345
O10	O	0.944007	-0.134841	-0.340363
O11	O	0.866924	-0.219625	-0.161782
O12	O	0.765383	-0.219634	-0.263344
O13	O	0.866963	-0.283828	-0.441860
O14	O	0.765357	-0.283851	-0.340275
O15	O	0.943974	-0.219595	-0.441898
O16	O	0.943801	-0.368589	-0.263295
O17	O	0.866865	-0.368596	-0.340247
C18	C	0.742636	-0.251746	-0.301807
C19	C	0.672995	-0.251770	-0.301815
C20	C	0.640343	-0.218381	-0.341965
C21	C	0.574907	-0.218368	-0.341968
C22	C	0.542127	-0.251751	-0.301826
C23	C	0.574787	-0.285142	-0.261667
C24	C	0.640221	-0.285151	-0.261662
C25	C	0.438400	-0.298836	-0.296781
C26	C	0.372967	-0.298828	-0.296791
C27	C	0.340306	-0.251722	-0.301840
C28	C	0.373086	-0.204624	-0.306892
C29	C	0.438520	-0.204633	-0.306887
C30	C	0.471174	-0.251745	-0.301827
C31	C	0.236701	-0.218316	-0.341995
C32	C	0.171265	-0.218301	-0.341994
C33	C	0.171145	-0.285080	-0.261696
C34	C	0.236580	-0.285090	-0.261695
C35	C	0.269355	-0.251709	-0.301848
C36	C	0.905335	-0.387563	-0.301776
C37	C	0.905355	-0.445677	-0.301776
C38	C	0.945530	-0.805993	-0.341975
C39	C	0.945548	-0.860597	-0.341988
O40	O	0.979601	-0.888794	-0.376116
N41	N	0.905511	-0.887960	-0.301885
C42	C	0.865448	-0.860715	-0.261772
O43	O	0.831394	-0.889003	-0.227664
C44	C	0.865426	-0.806112	-0.261763
C45	C	0.905471	-0.778752	-0.301864
C46	C	0.985571	-0.778634	-0.382073
C47	C	0.985553	-0.724033	-0.382059
C48	C	0.945494	-0.696792	-0.341948
C49	C	0.905453	-0.724152	-0.301850
C50	C	0.825361	-0.778868	-0.221654
C51	C	0.825342	-0.724261	-0.221648
C52	C	0.865387	-0.696901	-0.261749
C53	C	0.865377	-0.642310	-0.261725
N54	N	0.905414	-0.614948	-0.301827
C55	C	0.945473	-0.642189	-0.341938
C56	C	0.865494	-0.975385	-0.261795
C57	C	0.865518	-1.029988	-0.261801
C58	C	0.945618	-1.029867	-0.342017
C59	C	0.945597	-0.975263	-0.342008
C60	C	0.905532	-0.948023	-0.301897
C61	C	0.945433	-0.527524	-0.341906
C62	C	0.945413	-0.472918	-0.341887
C63	C	0.865311	-0.473044	-0.261673
C64	C	0.865333	-0.527645	-0.261690
C65	C	0.905396	-0.554883	-0.301811
O66	O	0.831339	-0.614079	-0.227616
O67	O	0.979515	-0.613894	-0.376047
C68	C	1.068847	-0.251696	-0.301843
C69	C	1.138488	-0.251685	-0.301851
C70	C	0.905476	-0.251710	-0.465248
C71	C	0.905498	-0.251706	-0.534889
C72	C	0.905530	-0.115348	-0.301888
C73	C	0.905575	-0.057234	-0.301915
C74	C	0.945596	-0.218258	-0.567623
C75	C	0.945595	-0.218235	-0.633059
C76	C	0.905503	-0.251670	-0.665758
C77	C	0.865397	-0.285120	-0.633016
C78	C	0.865395	-0.285138	-0.567582
C79	C	0.900525	-0.298748	-0.769416
C80	C	0.900532	-0.298731	-0.834849
C81	C	0.905507	-0.251615	-0.867579
C82	C	0.910488	-0.204513	-0.834868
C83	C	0.910486	-0.204531	-0.769434
C84	C	0.905501	-0.251654	-0.736710
C85	C	0.945606	-0.218140	-0.971265
C86	C	0.945600	-0.218116	-1.036702
C87	C	0.865406	-0.285006	-1.036658
C88	C	0.865408	-0.285025	-0.971222
C89	C	0.905511	-0.251592	-0.938530
C90	C	0.905408	-0.251694	-0.139037
C91	C	0.905507	-0.251551	-0.069396
H92	H	0.346494	-0.166266	-0.311004
Br93	Br	0.810988	-0.330422	-0.926794
H94	H	0.464988	-0.337198	-0.292668
Br95	Br	1.000027	-0.172767	-0.926893
H96	H	0.832756	-0.312224	-1.063281
H97	H	0.978205	-0.952990	-0.374662
H98	H	0.263388	-0.191132	-0.374686
Br99	Br	0.893780	-0.362654	-0.879235
H100	H	0.548092	-0.312322	-0.228983
Br101	Br	1.000033	-0.172726	-1.081128
H102	H	0.144681	-0.191110	-0.374688
H103	H	0.666806	-0.312340	-0.228965
Br104	Br	0.810971	-0.330534	-0.523154
H105	H	1.018191	-0.800807	-0.414740
H106	H	1.018159	-0.701760	-0.414714
Br107	Br	0.811180	-1.067112	-0.207366
H108	H	0.832870	-0.953209	-0.229127
H109	H	0.914540	-0.166180	-0.742803
H110	H	0.667024	-0.191199	-0.374661
H111	H	0.832730	-0.549922	-0.229032
H112	H	0.896306	-0.337107	-0.742772
H113	H	0.978246	-0.190995	-0.659716
H114	H	0.978235	-1.052056	-0.374679
Br115	Br	0.126664	-0.330382	-0.207210
H116	H	0.792752	-0.801135	-0.188999
Br117	Br	0.810982	-0.330493	-0.677391
H118	H	0.548317	-0.191176	-0.374662
Br119	Br	0.999766	-0.435791	-0.396310
Br120	Br	0.999805	-0.564481	-0.396356
H121	H	0.465206	-0.166284	-0.310998
H122	H	0.263166	-0.312281	-0.229002
Br123	Br	0.328487	-0.362747	-0.289948
H124	H	0.792715	-0.702085	-0.188986
Br125	Br	0.810949	-0.436064	-0.207238
Br126	Br	1.000018	-0.172883	-0.523258
H127	H	0.914540	-0.166147	-0.861515
