data_functionalizedCrystal
_audit_creation_method	'MofGen! by Chris Wilmer'
_symmetry_space_group_name_H-M	'P1'
_symmetry_Int_Tables_number	1
_symmetry_cell_setting	triclinic
loop_
_symmetry_equiv_pos_as_xyz
  x,y,z
_cell_length_a	6.817900
_cell_length_b	19.551823
_cell_length_c	16.418042
_cell_angle_alpha	95.898690
_cell_angle_beta	103.389568
_cell_angle_gamma	101.663376
loop_
_atom_site_label
_atom_site_type_symbol
_atom_site_fract_x
_atom_site_fract_y
_atom_site_fract_z
V1	V	-4.016523	-0.097244	-0.261548
O2	O	-4.013474	0.004089	-0.256166
O3	O	-3.959221	-0.192256	-0.260146
O4	O	-3.967713	-0.096004	-0.375441
O5	O	-4.004924	-0.092829	-0.140073
V6	V	-4.501358	-0.085093	-0.246971
O7	O	-4.274905	-0.123897	-0.293522
O8	O	-4.693174	-0.058439	-0.214997
O9	O	-4.335454	0.009919	-0.248372
O10	O	-4.621804	-0.186425	-0.252353
O11	O	-4.630355	-0.089507	-0.368445
O12	O	-4.326962	-0.086332	-0.133078
C13	C	-3.802070	-0.215410	-0.256120
C14	C	-3.836503	-0.293085	-0.255734
C15	C	-4.034430	-0.333139	-0.259741
C16	C	-4.066788	-0.406125	-0.259386
C17	C	-3.901198	-0.439050	-0.255008
C18	C	-3.703246	-0.398987	-0.251005
C19	C	-3.670898	-0.326005	-0.251368
C20	C	-3.788161	-0.545423	-0.201894
C21	C	-3.820513	-0.618404	-0.201526
C22	C	-4.000965	-0.664154	-0.253891
C23	C	-4.149088	-0.636914	-0.306614
C24	C	-4.116740	-0.563931	-0.306977
C25	C	-3.936254	-0.518188	-0.254614
C26	C	-4.233991	-0.783348	-0.257515
C27	C	-4.266345	-0.856335	-0.257165
C28	C	-3.902793	-0.849195	-0.248775
C29	C	-3.870449	-0.776211	-0.249134
C30	C	-4.036054	-0.743291	-0.253499
C31	C	-3.812901	-0.092630	-0.403189
C32	C	-3.854218	-0.092246	-0.496299
C33	C	-4.130997	-0.094845	-0.714796
C34	C	-4.169800	-0.094478	-0.802282
C35	C	-3.806241	-0.087488	-0.793711
C36	C	-3.767438	-0.087850	-0.706226
C37	C	-3.929825	-0.091533	-0.666771
C38	C	-4.007431	-0.090803	-0.841742
C39	C	-4.049501	-0.090404	-0.936599
C40	C	-3.887752	-0.091930	-0.571909
C41	C	-4.155947	0.033069	-0.252396
C42	C	-4.100752	0.110744	-0.252788
C43	C	-4.145116	-0.089708	-0.105326
C44	C	-4.083038	-0.090089	-0.012214
H45	H	-4.227969	-0.438743	-0.262649
H46	H	-4.295847	-0.674174	-0.349370
H47	H	-4.333610	-0.097174	-0.841380
H48	H	-3.674038	-0.084492	-0.825846
H49	H	-4.368836	-0.756543	-0.261068
H50	H	-4.169284	-0.306342	-0.263302
Cl51	Cl	-4.302932	-0.529688	-0.373261
Cl52	Cl	-4.515193	-0.906691	-0.262209
H53	H	-3.509720	-0.293392	-0.248106
Cl54	Cl	-3.514514	-0.083684	-0.645847
H55	H	-3.709274	-0.743597	-0.245865
Cl56	Cl	-3.694623	-0.890582	-0.243281
Cl57	Cl	-3.634321	-0.652640	-0.135234
Cl58	Cl	-3.561284	-0.487915	-0.136061
H59	H	-3.568425	-0.425800	-0.247442
Cl60	Cl	-4.335138	-0.099470	-0.665198
