data_functionalizedCrystal
_audit_creation_method	'MofGen! by Chris Wilmer'
_symmetry_space_group_name_H-M	'P1'
_symmetry_Int_Tables_number	1
_symmetry_cell_setting	triclinic
loop_
_symmetry_equiv_pos_as_xyz
  x,y,z
_cell_length_a	27.732048
_cell_length_b	27.732048
_cell_length_c	7.540329
_cell_angle_alpha	89.991480
_cell_angle_beta	90.002547
_cell_angle_gamma	82.642655
loop_
_atom_site_label
_atom_site_type_symbol
_atom_site_fract_x
_atom_site_fract_y
_atom_site_fract_z
O1	O	0.640926	0.057516	-0.147273
O2	O	0.974259	0.390850	0.186061
O3	O	1.307593	0.724183	0.519394
O4	O	0.500133	0.066262	-0.147329
O5	O	0.833466	0.399595	0.186004
O6	O	1.166799	0.732928	0.519338
O7	O	0.574902	-0.008508	-0.147265
O8	O	0.908235	0.324826	0.186068
O9	O	1.241569	0.658159	0.519401
O10	O	0.566157	0.132286	-0.147336
O11	O	0.899490	0.465619	0.185997
O12	O	1.232823	0.798952	0.519330
O13	O	0.574898	-0.008509	0.147700
O14	O	0.908231	0.324825	0.481033
O15	O	1.241564	0.658158	0.814366
O16	O	0.500128	0.066261	0.147636
O17	O	0.833462	0.399594	0.480969
O18	O	1.166795	0.732928	0.814303
O19	O	0.640922	0.057515	0.147692
O20	O	0.974255	0.390849	0.481026
O21	O	1.307588	0.724182	0.814359
Cu22	Cu	0.570525	0.061888	0.174597
Cu23	Cu	0.903858	0.395221	0.507930
Cu24	Cu	1.237191	0.728555	0.841263
Cu25	Cu	0.570530	0.061889	-0.174234
Cu26	Cu	0.903863	0.395222	0.159100
Cu27	Cu	1.237196	0.728556	0.492433
O28	O	0.566152	0.132285	0.147629
O29	O	0.899486	0.465618	0.480962
O30	O	1.232819	0.798952	0.814295
C31	C	0.482124	0.066078	0.000147
C32	C	0.815457	0.399411	0.333480
C33	C	1.148790	0.732744	0.666813
C34	C	0.428469	0.065525	0.000127
C35	C	0.761802	0.398858	0.333460
C36	C	1.095135	0.732192	0.666793
C37	C	0.089654	0.106229	0.000183
C38	C	0.422987	0.439562	0.333516
C39	C	0.756320	0.772895	0.666850
C40	C	-0.112006	0.104178	0.000200
C41	C	0.221327	0.437511	0.333533
C42	C	0.554661	0.770844	0.666866
O43	O	-0.143262	0.141398	0.000258
O44	O	0.190072	0.474732	0.333591
O45	O	0.523405	0.808065	0.666925
N46	N	-0.131130	0.059843	0.000219
N47	N	0.202204	0.393176	0.333552
N48	N	0.535537	0.726509	0.666886
C49	C	-0.099835	0.016017	0.000246
C50	C	0.233498	0.349350	0.333579
C51	C	0.566832	0.682684	0.666912
O52	O	-0.120728	-0.021740	0.000281
O53	O	0.212605	0.311593	0.333614
O54	O	0.545938	0.644927	0.666947
C55	C	0.101824	0.018068	0.000241
C56	C	0.435157	0.351402	0.333575
C57	C	0.768490	0.684735	0.666908
C58	C	0.120944	0.062407	0.000204
C59	C	0.454278	0.395740	0.333538
C60	C	0.787611	0.729073	0.666871
C61	C	0.108775	0.150563	0.000148
C62	C	0.442108	0.483897	0.333481
C63	C	0.775442	0.817230	0.666814
C64	C	0.159187	0.151075	0.000134
C65	C	0.492520	0.484409	0.333467
C66	C	0.825853	0.817742	0.666801
C67	C	0.190477	0.107253	0.000155
C68	C	0.523811	0.440587	0.333489
C69	C	0.857144	0.773920	0.666822
C70	C	0.171356	0.062919	0.000190
C71	C	0.504690	0.396252	0.333524
C72	C	0.838023	0.729585	0.666857
C73	C	0.133117	-0.025757	0.000281
C74	C	0.466451	0.307577	0.333614
C75	C	0.799784	0.640910	0.666947
C76	C	0.183535	-0.025240	0.000284
C77	C	0.516868	0.308094	0.333618
C78	C	0.850201	0.641427	0.666951
C79	C	0.202655	0.019098	0.000247
C80	C	0.535989	0.352432	0.333580
C81	C	0.869322	0.685765	0.666914
C82	C	0.253059	0.019609	0.000198
C83	C	0.586392	0.352942	0.333531
C84	C	0.919725	0.686276	0.666864
N85	N	0.272183	0.063944	0.000179
N86	N	0.605516	0.397277	0.333512
N87	N	0.938849	0.730611	0.666845
C88	C	0.240892	0.107766	0.000157
C89	C	0.574225	0.441100	0.333491
C90	C	0.907559	0.774433	0.666824
C91	C	-0.205709	0.014943	0.000244
C92	C	0.127624	0.348276	0.333578
C93	C	0.460957	0.681610	0.666911
C94	C	-0.256124	0.014430	0.000242
C95	C	0.077210	0.347763	0.333576
C96	C	0.410543	0.681097	0.666909
C97	C	-0.268291	0.102591	0.000200
C98	C	0.065042	0.435924	0.333533
C99	C	0.398376	0.769258	0.666866
C100	C	-0.217876	0.103104	0.000189
C101	C	0.115458	0.436437	0.333522
C102	C	0.448791	0.769770	0.666856
C103	C	-0.186585	0.059278	0.000225
C104	C	0.146748	0.392612	0.333558
C105	C	0.480081	0.725945	0.666892
C106	C	0.346761	0.108839	0.000127
C107	C	0.680094	0.442172	0.333460
C108	C	1.013428	0.775505	0.666793
C109	C	0.397178	0.109347	0.000105
C110	C	0.730511	0.442681	0.333439
C111	C	1.063845	0.776014	0.666772
C112	C	0.409341	0.021186	0.000157
C113	C	0.742674	0.354520	0.333491
C114	C	1.076008	0.687853	0.666824
C115	C	0.358929	0.020678	0.000169
C116	C	0.692262	0.354011	0.333502
C117	C	1.025595	0.687344	0.666836
C118	C	0.327639	0.064508	0.000160
C119	C	0.660973	0.397841	0.333493
C120	C	0.994306	0.731175	0.666826
O121	O	0.284343	-0.017592	0.000160
O122	O	0.617676	0.315741	0.333493
O123	O	0.951009	0.649075	0.666826
O124	O	0.261794	0.145518	0.000162
O125	O	0.595128	0.478851	0.333495
O126	O	0.928461	0.812184	0.666828
C127	C	0.039242	0.105716	0.000197
C128	C	0.372575	0.439050	0.333530
C129	C	0.705908	0.772383	0.666864
C130	C	0.020120	0.061382	0.000232
C131	C	0.353454	0.394715	0.333565
C132	C	0.686787	0.728049	0.666899
C133	C	0.051411	0.017560	0.000253
C134	C	0.384744	0.350893	0.333587
C135	C	0.718078	0.684226	0.666920
C136	C	-0.030294	0.060869	0.000230
C137	C	0.303039	0.394202	0.333563
C138	C	0.636373	0.727536	0.666897
C139	C	-0.061585	0.104691	0.000209
C140	C	0.271749	0.438025	0.333542
C141	C	0.605082	0.771358	0.666875
C142	C	-0.042461	0.149026	0.000189
C143	C	0.290872	0.482360	0.333523
C144	C	0.624206	0.815693	0.666856
C145	C	0.007951	0.149539	0.000176
C146	C	0.341284	0.482872	0.333509
C147	C	0.674618	0.816205	0.666842
C148	C	0.032287	-0.026775	0.000273
C149	C	0.365621	0.306558	0.333606
C150	C	0.698954	0.639891	0.666939
C151	C	-0.018125	-0.027284	0.000284
C152	C	0.315208	0.306049	0.333618
C153	C	0.648541	0.639383	0.666951
C154	C	-0.049416	0.016538	0.000263
C155	C	0.283917	0.349871	0.333596
C156	C	0.617251	0.683205	0.666930
C157	C	0.574716	-0.026515	0.000222
C158	C	0.908050	0.306818	0.333555
C159	C	1.241383	0.640152	0.666889
C160	C	0.574164	-0.080170	0.000236
C161	C	0.907497	0.253163	0.333570
C162	C	1.240830	0.586497	0.666903
C163	C	0.614867	-0.418985	0.000162
C164	C	0.948201	-0.085652	0.333495
C165	C	1.281534	0.247682	0.666828
C166	C	0.612816	-0.620645	0.000136
C167	C	0.946150	-0.287311	0.333469
C168	C	1.279483	0.046022	0.666803
O169	O	0.650037	-0.651900	0.000073
O170	O	0.983370	-0.318567	0.333407
O171	O	1.316704	0.014766	0.666740
N172	N	0.568481	-0.639768	0.000120
N173	N	0.901814	-0.306435	0.333453
N174	N	1.235148	0.026898	0.666787
C175	C	0.524656	-0.608474	0.000099
C176	C	0.857989	-0.275140	0.333432
C177	C	1.191322	0.058193	0.666765
O178	O	0.486899	-0.629367	0.000066
O179	O	0.820232	-0.296033	0.333399
O180	O	1.153565	0.037300	0.666733
C181	C	0.526707	-0.406815	0.000111
C182	C	0.860040	-0.073482	0.333445
C183	C	1.193374	0.259852	0.666778
C184	C	0.571045	-0.387694	0.000145
C185	C	0.904378	-0.054361	0.333479
C186	C	1.237712	0.278972	0.666812
C187	C	0.659202	-0.399864	0.000194
C188	C	0.992535	-0.066530	0.333527
C189	C	1.325868	0.266803	0.666860
C190	C	0.659714	-0.349452	0.000210
C191	C	0.993047	-0.016118	0.333543
C192	C	1.326381	0.317215	0.666876
C193	C	0.615892	-0.318161	0.000194
C194	C	0.949225	0.015172	0.333527
C195	C	1.282559	0.348506	0.666860
C196	C	0.571557	-0.337282	0.000162
C197	C	0.904891	-0.003949	0.333495
C198	C	1.238224	0.329384	0.666828
C199	C	0.482882	-0.375521	0.000077
C200	C	0.816215	-0.042188	0.333411
C201	C	1.149549	0.291145	0.666744
C202	C	0.483399	-0.325104	0.000076
C203	C	0.816732	0.008229	0.333409
C204	C	1.150066	0.341563	0.666743
C205	C	0.527737	-0.305983	0.000110
C206	C	0.861070	0.027350	0.333443
C207	C	1.194404	0.360683	0.666777
C208	C	0.528248	-0.255580	0.000162
C209	C	0.861581	0.077754	0.333495
C210	C	1.194914	0.411087	0.666828
N211	N	0.572583	-0.236456	0.000178
N212	N	0.905916	0.096877	0.333511
N213	N	1.239249	0.430211	0.666844
C214	C	0.616405	-0.267747	0.000194
C215	C	0.949738	0.065587	0.333527
C216	C	1.283072	0.398920	0.666860
C217	C	0.523582	-0.714348	0.000095
C218	C	0.856915	-0.381014	0.333429
C219	C	1.190248	-0.047681	0.666762
C220	C	0.523069	-0.764762	0.000095
C221	C	0.856402	-0.431429	0.333429
C222	C	1.189735	-0.098096	0.666762
C223	C	0.611230	-0.776930	0.000129
C224	C	0.944563	-0.443596	0.333463
C225	C	1.277896	-0.110263	0.666796
C226	C	0.611742	-0.726514	0.000142
C227	C	0.945075	-0.393181	0.333475
C228	C	1.278409	-0.059848	0.666809
C229	C	0.567917	-0.695224	0.000111
C230	C	0.901250	-0.361891	0.333445
C231	C	1.234583	-0.028557	0.666778
C232	C	0.617477	-0.161878	0.000229
C233	C	0.950811	0.171456	0.333562
C234	C	1.284144	0.504789	0.666896
C235	C	0.617986	-0.111461	0.000252
C236	C	0.951319	0.221873	0.333586
C237	C	1.284652	0.555206	0.666919
C238	C	0.529825	-0.099298	0.000209
C239	C	0.863158	0.234036	0.333542
C240	C	1.196492	0.567369	0.666876
C241	C	0.529316	-0.149710	0.000195
C242	C	0.862650	0.183623	0.333528
C243	C	1.195983	0.516957	0.666861
C244	C	0.573147	-0.180999	0.000199
C245	C	0.906480	0.152334	0.333532
C246	C	1.239813	0.485667	0.666865
O247	O	0.491047	-0.224296	0.000204
O248	O	0.824380	0.109038	0.333538
O249	O	1.157713	0.442371	0.666871
O250	O	0.654156	-0.246844	0.000187
O251	O	0.987490	0.086489	0.333520
O252	O	1.320823	0.419823	0.666853
C253	C	0.614355	-0.469397	0.000145
C254	C	0.947688	-0.136064	0.333479
C255	C	1.281022	0.197270	0.666812
C256	C	0.570021	-0.488518	0.000113
C257	C	0.903354	-0.155185	0.333447
C258	C	1.236687	0.178148	0.666780
C259	C	0.526198	-0.457228	0.000097
C260	C	0.859532	-0.123894	0.333431
C261	C	1.192865	0.209439	0.666764
C262	C	0.569508	-0.538933	0.000113
C263	C	0.902841	-0.205599	0.333447
C264	C	1.236174	0.127734	0.666780
C265	C	0.613330	-0.570223	0.000129
C266	C	0.946663	-0.236890	0.333463
C267	C	1.279996	0.096443	0.666796
C268	C	0.657665	-0.551100	0.000145
C269	C	0.990998	-0.217766	0.333479
C270	C	1.324332	0.115567	0.666812
C271	C	0.658177	-0.500688	0.000161
C272	C	0.991511	-0.167354	0.333495
C273	C	1.324844	0.165979	0.666828
C274	C	0.481863	-0.476351	0.000081
C275	C	0.815197	-0.143018	0.333415
C276	C	1.148530	0.190315	0.666748
C277	C	0.481355	-0.526764	0.000067
C278	C	0.814688	-0.193430	0.333401
C279	C	1.148021	0.139903	0.666734
C280	C	0.525177	-0.558054	0.000083
C281	C	0.858510	-0.224721	0.333417
C282	C	1.191843	0.108612	0.666750
C283	C	0.658931	0.057699	0.000213
C284	C	0.992264	0.391033	0.333546
C285	C	1.325598	0.724366	0.666879
C286	C	0.712586	0.058252	0.000221
C287	C	1.045919	0.391586	0.333554
C288	C	1.379252	0.724919	0.666888
C289	C	0.566338	0.150292	0.000137
C290	C	0.899671	0.483626	0.333471
C291	C	1.233005	0.816959	0.666804
C292	C	0.566891	0.203947	0.000111
C293	C	0.900224	0.537280	0.333445
C294	C	1.233557	0.870614	0.666778
N295	N	0.570524	0.061887	0.419945
N296	N	0.903858	0.395220	0.753279
N297	N	1.237191	0.728554	1.086612
N298	N	0.570534	0.061886	-0.419582
N299	N	0.903867	0.395220	-0.086249
N300	N	1.237200	0.728553	0.247085
H301	H	0.057760	-0.062462	0.000294
H302	H	0.391093	0.270872	0.333628
H303	H	0.724427	0.604205	0.666961
C304	C	0.666759	-0.090431	0.000279
C305	C	1.000093	0.242903	0.333613
C306	C	1.333426	0.576236	0.666946
H307	H	0.692784	-0.116290	0.000267
H308	H	1.026117	0.217044	0.333601
H309	H	1.359450	0.550377	0.666934
H310	H	0.668793	-0.071023	0.103144
H311	H	1.002127	0.262311	0.436478
H312	H	1.335460	0.595644	0.769811
H313	H	0.668793	-0.071012	-0.102590
H314	H	1.002127	0.262321	0.230743
H315	H	1.335460	0.595654	0.564076
H316	H	-0.202311	0.139207	0.000169
H317	H	0.131022	0.472541	0.333502
H318	H	0.464355	0.805874	0.666836
C319	C	0.312350	0.157051	0.000093
C320	C	0.645683	0.490384	0.333426
C321	C	0.979017	0.823717	0.666760
H322	H	0.330965	0.183525	0.000051
H323	H	0.664298	0.516858	0.333384
H324	H	0.997631	0.850191	0.666718
H325	H	0.292430	0.158691	0.102950
H326	H	0.625763	0.492025	0.436283
H327	H	0.959097	0.825358	0.769616
H328	H	0.292431	0.158682	-0.102785
H329	H	0.625764	0.492016	0.230549
H330	H	0.959097	0.825349	0.563882
H331	H	0.653168	-0.187348	0.000225
H332	H	0.986501	0.145985	0.333559
H333	H	1.319835	0.479319	0.666892
C334	C	0.708486	-0.328425	0.000213
C335	C	1.041820	0.004908	0.333547
C336	C	1.375153	0.338241	0.666880
H337	H	0.734508	-0.354287	0.000200
H338	H	1.067841	-0.020953	0.333533
H339	H	1.401175	0.312380	0.666867
H340	H	0.710526	-0.309015	0.103069
H341	H	1.043859	0.024318	0.436403
H342	H	1.377192	0.357651	0.769736
H343	H	0.710519	-0.309010	-0.102665
H344	H	1.043853	0.024323	0.230668
H345	H	1.377186	0.357657	0.564001
H346	H	0.647846	-0.710950	0.000168
H347	H	0.981179	-0.377617	0.333502
H348	H	1.314513	-0.044283	0.666835
C349	C	0.659433	-0.811355	0.000119
C350	C	0.992766	-0.478022	0.333453
C351	C	1.326100	-0.144689	0.666786
H352	H	0.652773	-0.844117	0.000096
H353	H	0.986107	-0.510784	0.333429
H354	H	1.319440	-0.177451	0.666762
H355	H	0.677636	-0.805604	0.102973
H356	H	1.010969	-0.472271	0.436306
H357	H	1.344303	-0.138938	0.769640
H358	H	0.677623	-0.805589	-0.102762
H359	H	1.010956	-0.472255	0.230572
H360	H	1.344290	-0.138922	0.563905
H361	H	0.486964	-0.780325	0.000098
H362	H	0.820297	-0.446992	0.333432
H363	H	1.153631	-0.113659	0.666765
C364	C	0.481623	-0.064874	0.000180
C365	C	0.814957	0.268459	0.333513
C366	C	1.148290	0.601793	0.666846
H367	H	0.455142	-0.083479	0.000169
H368	H	0.788475	0.249854	0.333502
H369	H	1.121809	0.583187	0.666835
H370	H	0.479999	-0.044950	-0.102681
H371	H	0.813332	0.288383	0.230652
H372	H	1.146665	0.621716	0.563985
H373	H	0.479988	-0.044959	0.103053
H374	H	0.813322	0.288374	0.436387
H375	H	1.146655	0.621708	0.769720
C376	C	0.418208	0.158121	0.000074
C377	C	0.751541	0.491454	0.333408
C378	C	1.084875	0.824788	0.666741
H379	H	0.392349	0.184145	0.000083
H380	H	0.725682	0.517478	0.333416
H381	H	1.059016	0.850812	0.666750
H382	H	0.437619	0.160156	-0.102790
H383	H	0.770952	0.493490	0.230543
H384	H	1.104285	0.826823	0.563877
H385	H	0.437623	0.160153	0.102945
H386	H	0.770957	0.493486	0.436278
H387	H	1.104290	0.826820	0.769611
C388	C	0.180213	0.199848	0.000128
C389	C	0.513547	0.533181	0.333461
C390	C	0.846880	0.866514	0.666794
H391	H	0.154352	0.225869	0.000138
H392	H	0.487685	0.559203	0.333471
H393	H	0.821019	0.892536	0.666804
H394	H	0.199627	0.201889	-0.102727
H395	H	0.532960	0.535222	0.230606
H396	H	0.866293	0.868556	0.563939
H397	H	0.199625	0.201879	0.103007
H398	H	0.532959	0.535212	0.436341
H399	H	0.866292	0.868545	0.769674
H400	H	0.434827	-0.014492	0.000168
H401	H	0.768160	0.318841	0.333501
H402	H	1.101494	0.652174	0.666835
C403	C	0.475371	-0.679934	0.000086
C404	C	0.808704	-0.346601	0.333419
C405	C	1.142037	-0.013268	0.666752
H406	H	0.448897	-0.698549	0.000096
H407	H	0.782230	-0.365215	0.333429
H408	H	1.115563	-0.031882	0.666762
H409	H	0.473732	-0.660008	-0.102770
H410	H	0.807066	-0.326675	0.230563
H411	H	1.140399	0.006659	0.563896
H412	H	0.473737	-0.660021	0.102964
H413	H	0.807070	-0.326688	0.436298
H414	H	1.140403	0.006646	0.769631
H415	H	0.445246	-0.542327	0.000055
H416	H	0.778580	-0.208993	0.333388
H417	H	1.111913	0.124340	0.666722
H418	H	0.694282	-0.485125	0.000189
H419	H	1.027615	-0.151791	0.333522
H420	H	1.360949	0.181542	0.666855
H421	H	0.446777	-0.391080	0.000039
H422	H	0.780111	-0.057747	0.333372
H423	H	1.113444	0.275586	0.666706
H424	H	0.023514	0.185643	0.000148
H425	H	0.356847	0.518977	0.333481
H426	H	0.690181	0.852310	0.666814
C427	C	-0.076887	0.197229	0.000172
C428	C	0.256446	0.530563	0.333506
C429	C	0.589780	0.863896	0.666839
H430	H	-0.109649	0.190569	0.000198
H431	H	0.223684	0.523903	0.333532
H432	H	0.557018	0.857236	0.666865
H433	H	-0.071132	0.215429	-0.102694
H434	H	0.262201	0.548763	0.230639
H435	H	0.595534	0.882096	0.563973
H436	H	-0.071124	0.215423	0.103041
H437	H	0.262209	0.548756	0.436374
H438	H	0.595542	0.882089	0.769707
C439	C	0.337894	-0.028092	0.000191
C440	C	0.671228	0.305241	0.333524
C441	C	1.004561	0.638574	0.666858
H442	H	0.363752	-0.054117	0.000206
H443	H	0.697086	0.279216	0.333540
H444	H	1.030419	0.612549	0.666873
H445	H	0.318475	-0.030126	-0.102657
H446	H	0.651808	0.303208	0.230677
H447	H	0.985142	0.636541	0.564010
H448	H	0.318487	-0.030125	0.103078
H449	H	0.651821	0.303208	0.436411
H450	H	0.985154	0.636541	0.769745
H451	H	0.447710	-0.299629	0.000048
H452	H	0.781043	0.033704	0.333382
H453	H	1.114377	0.367037	0.666715
C454	C	0.074362	0.198772	0.000109
C455	C	0.407695	0.532105	0.333442
C456	C	0.741029	0.865439	0.666776
H457	H	0.092978	0.225245	0.000074
H458	H	0.426311	0.558578	0.333408
H459	H	0.759645	0.891912	0.666741
H460	H	0.054440	0.200413	0.102960
H461	H	0.387773	0.533746	0.436293
H462	H	0.721107	0.867080	0.769627
H463	H	0.054445	0.200405	-0.102774
H464	H	0.387778	0.533738	0.230559
H465	H	0.721112	0.867072	0.563892
C466	C	0.480546	-0.170744	0.000153
C467	C	0.813880	0.162589	0.333487
C468	C	1.147213	0.495922	0.666820
H469	H	0.454521	-0.144886	0.000134
H470	H	0.787855	0.188447	0.333468
H471	H	1.121188	0.521781	0.666801
H472	H	0.478507	-0.190168	0.102993
H473	H	0.811840	0.143165	0.436326
H474	H	1.145174	0.476498	0.769660
H475	H	0.478519	-0.190147	-0.102741
H476	H	0.811853	0.143187	0.230592
H477	H	1.145186	0.476520	0.563925
C478	C	-0.039152	-0.076059	0.000330
C479	C	0.294181	0.257274	0.333663
C480	C	0.627515	0.590607	0.666996
H481	H	-0.013292	-0.102082	0.000359
H482	H	0.320041	0.231251	0.333692
H483	H	0.653375	0.564584	0.667025
H484	H	-0.058571	-0.078098	-0.102517
H485	H	0.274763	0.255235	0.230817
H486	H	0.608096	0.588568	0.564150
H487	H	-0.058559	-0.078090	0.103218
H488	H	0.274774	0.255243	0.436551
H489	H	0.608107	0.588577	0.769885
C490	C	0.112095	-0.074529	0.000346
C491	C	0.445429	0.258804	0.333679
C492	C	0.778762	0.592137	0.667013
H493	H	0.137958	-0.100550	0.000385
H494	H	0.471291	0.232783	0.333719
H495	H	0.804624	0.566117	0.667052
H496	H	0.092679	-0.076572	-0.102503
H497	H	0.426012	0.256761	0.230831
H498	H	0.759345	0.590094	0.564164
H499	H	0.092687	-0.076560	0.103232
H500	H	0.426021	0.256774	0.436565
H501	H	0.759354	0.590107	0.769899
C502	C	0.705868	-0.585526	0.000149
C503	C	1.039201	-0.252192	0.333483
C504	C	1.372535	0.081141	0.666816
H505	H	0.699208	-0.618288	0.000121
H506	H	1.032541	-0.284954	0.333454
H507	H	1.365875	0.048379	0.666787
H508	H	0.724067	-0.579775	0.103012
H509	H	1.057401	-0.246441	0.436346
H510	H	1.390734	0.086892	0.769679
H511	H	0.724062	-0.579759	-0.102722
H512	H	1.057395	-0.246426	0.230611
H513	H	1.390729	0.086908	0.563944
H514	H	-0.293777	0.138273	0.000183
H515	H	0.039557	0.471606	0.333516
H516	H	0.372890	0.804939	0.666849
C517	C	0.707411	-0.434276	0.000226
C518	C	1.040744	-0.100943	0.333559
C519	C	1.374077	0.232390	0.666892
H520	H	0.733884	-0.415661	0.000258
H521	H	1.067217	-0.082327	0.333592
H522	H	1.400550	0.251006	0.666925
H523	H	0.709053	-0.454195	-0.102627
H524	H	1.042387	-0.120862	0.230706
H525	H	1.375720	0.212471	0.564040
H526	H	0.709042	-0.454197	0.103108
H527	H	1.042375	-0.120863	0.436441
H528	H	1.375708	0.212470	0.769774
C529	C	-0.277151	-0.034342	0.000266
C530	C	0.056182	0.298992	0.333599
C531	C	0.389516	0.632325	0.666932
H532	H	-0.251291	-0.060365	0.000296
H533	H	0.082042	0.272969	0.333630
H534	H	0.415376	0.606302	0.666963
H535	H	-0.296567	-0.036378	-0.102590
H536	H	0.036767	0.296955	0.230743
H537	H	0.370100	0.630288	0.564076
H538	H	-0.296562	-0.036375	0.103144
H539	H	0.036772	0.296958	0.436478
H540	H	0.370105	0.630292	0.769811
H541	H	-0.180236	-0.020747	0.000274
H542	H	0.153097	0.312586	0.333607
H543	H	0.486430	0.645920	0.666940
C544	C	0.433656	-0.441938	0.000082
C545	C	0.766989	-0.108605	0.333415
C546	C	1.100323	0.224729	0.666749
H547	H	0.407182	-0.460552	0.000085
H548	H	0.740515	-0.127219	0.333419
H549	H	1.073848	0.206115	0.666752
H550	H	0.432018	-0.422009	-0.102766
H551	H	0.765351	-0.088676	0.230567
H552	H	1.098684	0.244658	0.563900
H553	H	0.432023	-0.422028	0.102968
H554	H	0.765356	-0.088694	0.436301
H555	H	1.098689	0.244639	0.769635
C556	C	0.217951	-0.073449	0.000304
C557	C	0.551284	0.259884	0.333637
C558	C	0.884618	0.593218	0.666971
H559	H	0.199340	-0.099925	0.000310
H560	H	0.532673	0.233408	0.333643
H561	H	0.866006	0.566742	0.666976
H562	H	0.237876	-0.075085	0.103156
H563	H	0.571209	0.258249	0.436489
H564	H	0.904543	0.591582	0.769823
H565	H	0.237865	-0.075081	-0.102579
H566	H	0.571199	0.258252	0.230755
H567	H	0.904532	0.591585	0.564088
