data_functionalizedCrystal
_audit_creation_method	'MofGen! by Chris Wilmer'
_symmetry_space_group_name_H-M	'P1'
_symmetry_Int_Tables_number	1
_symmetry_cell_setting	triclinic
loop_
_symmetry_equiv_pos_as_xyz
  x,y,z
_cell_length_a	23.532361
_cell_length_b	23.532407
_cell_length_c	13.448316
_cell_angle_alpha	89.988737
_cell_angle_beta	89.997511
_cell_angle_gamma	82.839173
loop_
_atom_site_label
_atom_site_type_symbol
_atom_site_fract_x
_atom_site_fract_y
_atom_site_fract_z
O1	O	0.755278	0.069010	-0.082602
O2	O	0.589411	0.079041	-0.082627
O3	O	0.677347	-0.008907	-0.082596
O4	O	0.667343	0.156958	-0.082634
O5	O	0.677336	-0.008913	0.082788
O6	O	0.589400	0.079035	0.082756
O7	O	0.755267	0.069005	0.082782
Cu8	Cu	0.672333	0.074020	0.097870
Cu9	Cu	0.672346	0.074026	-0.097716
O10	O	0.667332	0.156953	0.082750
C11	C	0.568189	0.078787	0.000062
C12	C	0.504971	0.078032	0.000053
C13	C	0.231733	0.074731	-0.090091
C14	C	0.291133	0.075446	-0.090094
O15	O	0.321864	0.075799	-0.166762
N16	N	0.320832	0.075804	0.000057
C17	C	0.291130	0.075442	0.090217
O18	O	0.321846	0.075812	0.166897
C19	C	0.231732	0.074723	0.090218
C20	C	0.202035	0.074370	0.000061
C21	C	0.202036	0.074378	-0.180241
C22	C	0.142640	0.073664	-0.180238
C23	C	0.112941	0.073303	-0.090085
C24	C	0.142639	0.073657	0.000064
C25	C	0.202031	0.074356	0.180377
C26	C	0.142629	0.073637	0.180370
C27	C	0.112932	0.073284	0.090214
C28	C	0.053545	0.072582	0.090220
N29	N	0.023845	0.072224	0.000069
C30	C	0.053543	0.072584	-0.090084
C31	C	0.415870	0.076951	0.090206
C32	C	0.475267	0.077674	0.090206
C33	C	0.475265	0.077677	-0.090105
C34	C	0.415867	0.076958	-0.090103
C35	C	0.386171	0.076593	0.000055
C36	C	-0.071192	0.071086	-0.090071
C37	C	-0.130594	0.070374	-0.090060
C38	C	-0.130587	0.070368	0.090251
C39	C	-0.071191	0.071083	0.090240
C40	C	-0.041495	0.071440	0.000071
O41	O	0.022776	0.072227	0.166849
O42	O	0.022821	0.072207	-0.166751
C43	C	0.677086	-0.030126	0.000099
C44	C	0.676320	-0.093343	0.000106
C45	C	0.723555	-0.492454	0.000059
C46	C	0.722844	-0.551854	0.000051
O47	O	0.766630	-0.588606	0.000021
N48	N	0.670566	-0.574471	0.000044
C49	C	0.618997	-0.537685	0.000034
O50	O	0.574465	-0.562377	0.000026
C51	C	0.619709	-0.478286	0.000035
C52	C	0.671990	-0.455672	0.000052
C53	C	0.775832	-0.469839	0.000075
C54	C	0.776543	-0.410443	0.000085
C55	C	0.724977	-0.373662	0.000078
C56	C	0.672701	-0.396276	0.000062
C57	C	0.568140	-0.441501	0.000018
C58	C	0.568857	-0.382099	0.000018
C59	C	0.621137	-0.359485	0.000035
C60	C	0.621847	-0.300099	0.000064
N61	N	0.674124	-0.277481	0.000072
C62	C	0.725690	-0.314263	0.000078
C63	C	0.617505	-0.662427	0.000031
C64	C	0.616793	-0.721825	0.000038
C65	C	0.720640	-0.735990	0.000053
C66	C	0.721352	-0.676591	0.000054
C67	C	0.669783	-0.639810	0.000039
C68	C	0.727179	-0.189526	0.000099
C69	C	0.727886	-0.130124	0.000113
C70	C	0.624039	-0.115965	0.000093
C71	C	0.623332	-0.175361	0.000084
C72	C	0.674907	-0.212141	0.000084
O73	O	0.578083	-0.263312	0.000090
O74	O	0.770214	-0.289562	0.000073
C75	C	0.776489	0.069258	0.000091
C76	C	0.839708	0.070014	0.000093
C77	C	0.667592	0.178171	0.000053
C78	C	0.668358	0.241388	0.000039
N79	N	0.672328	0.074015	0.235434
N80	N	0.672355	0.074026	-0.235280
C81	C	0.711278	0.035087	0.287489
C82	C	0.711281	0.035087	0.391592
C83	C	0.672337	0.074017	0.443639
C84	C	0.633384	0.112946	0.391577
C85	C	0.633378	0.112944	0.287476
C86	C	0.633399	0.112950	0.608557
C87	C	0.633406	0.112954	0.712666
C88	C	0.711303	0.035093	0.712673
C89	C	0.711297	0.035090	0.608572
C90	C	0.672344	0.074021	0.556517
H91	H	0.391694	0.076661	0.163629
H92	H	0.525567	-0.459902	-0.000002
C93	C	0.512131	-0.341640	0.000002
H94	H	0.520038	-0.303024	0.000001
H95	H	0.490673	-0.348473	0.057667
H96	H	0.490689	-0.348459	-0.057687
H97	H	0.580761	-0.193774	0.000098
C98	C	0.754134	-0.007732	0.551322
H99	H	0.777330	-0.030921	0.597231
H100	H	0.777719	0.012630	0.510694
H101	H	0.733774	-0.031334	0.510730
H102	H	0.601660	0.144642	0.245094
C103	C	0.567322	-0.075498	0.000079
H104	H	0.575238	-0.036885	0.000075
H105	H	0.545860	-0.082324	0.057743
H106	H	0.545880	-0.082314	-0.057611
H107	H	0.763923	-0.658183	0.000067
H108	H	0.742992	0.003388	0.245119
C109	C	0.777361	-0.776457	0.000042
H110	H	0.769445	-0.815070	0.000025
H111	H	0.798816	-0.769648	0.057713
H112	H	0.798810	-0.769625	-0.057640
C113	C	0.234694	0.074780	-0.279418
H114	H	0.208492	0.074471	-0.333098
H115	H	0.262404	0.041847	-0.283176
H116	H	0.253325	0.108283	-0.283175
C117	C	0.383206	0.076569	-0.189275
H118	H	0.409405	0.076886	-0.242962
H119	H	0.355498	0.109504	-0.193032
H120	H	0.364572	0.043069	-0.193022
H121	H	0.118466	0.073375	-0.253653
C122	C	-0.038536	0.071485	-0.189254
H123	H	-0.064737	0.071178	-0.242936
H124	H	-0.010829	0.038550	-0.193010
H125	H	-0.019902	0.104986	-0.193010
C126	C	0.754146	-0.007734	0.769928
H127	H	0.748568	-0.002163	0.839381
H128	H	0.792119	-0.001748	0.752859
H129	H	0.748174	-0.045713	0.752880
C130	C	0.590533	0.155740	0.769916
H131	H	0.567317	0.178909	0.724007
H132	H	0.610850	0.179357	0.810542
H133	H	0.566962	0.135335	0.810509
H134	H	0.118453	0.073344	0.253790
C135	C	-0.163256	0.069923	0.189410
H136	H	-0.202881	0.069426	0.176492
H137	H	-0.158075	0.103238	0.226507
H138	H	-0.148970	0.036803	0.226402
H139	H	0.499457	0.077970	-0.163512
C140	C	0.507927	0.078064	0.189378
H141	H	0.481728	0.077742	0.243065
H142	H	0.526568	0.111556	0.193127
H143	H	0.535630	0.045121	0.193133
C144	C	0.590554	0.155775	0.551299
H145	H	0.567366	0.178966	0.597204
H146	H	0.566961	0.135414	0.510701
H147	H	0.610909	0.179375	0.510678
H148	H	0.226201	0.074641	0.253792
H149	H	0.742997	0.003389	0.433974
H150	H	0.601672	0.144642	0.433960
C151	C	-0.038520	0.071452	0.189409
H152	H	-0.064716	0.071127	0.243100
H153	H	-0.019868	0.104937	0.193177
H154	H	-0.010826	0.038501	0.193138
H155	H	-0.154771	0.070089	-0.163480
H156	H	0.770461	-0.111716	0.000130
H157	H	0.769176	-0.219466	0.000095
H158	H	0.819115	-0.392037	0.000095
C159	C	0.832557	-0.510293	0.000080
H160	H	0.824656	-0.548911	0.000070
H161	H	0.854002	-0.503470	0.057756
H162	H	0.854009	-0.503458	-0.057597
C163	C	0.559285	-0.746697	0.000030
H164	H	0.566241	-0.787341	0.000033
H165	H	0.538072	-0.734040	-0.057644
H166	H	0.538067	-0.734058	0.057709
C167	C	0.560775	-0.621973	0.000034
H168	H	0.529543	-0.643954	0.000039
H169	H	0.558892	-0.598498	-0.057636
H170	H	0.558891	-0.598516	0.057717
