data_functionalizedCrystal
_audit_creation_method	'MofGen! by Chris Wilmer'
_symmetry_space_group_name_H-M	'P1'
_symmetry_Int_Tables_number	1
_symmetry_cell_setting	triclinic
loop_
_symmetry_equiv_pos_as_xyz
  x,y,z
_cell_length_a	10.723023
_cell_length_b	10.723023
_cell_length_c	17.766277
_cell_angle_alpha	90.003520
_cell_angle_beta	90.005256
_cell_angle_gamma	84.467548
loop_
_atom_site_label
_atom_site_type_symbol
_atom_site_fract_x
_atom_site_fract_y
_atom_site_fract_z
O1	O	1.657191	0.175022	0.062585
O2	O	1.294038	0.191776	0.062588
O3	O	1.483992	0.001823	0.062583
O4	O	1.467237	0.364975	0.062589
O5	O	1.483971	0.001818	-0.062605
O6	O	1.294017	0.191772	-0.062601
O7	O	1.657170	0.175017	-0.062604
Cu8	Cu	1.475592	0.183394	-0.074033
Cu9	Cu	1.475617	0.183400	0.074017
O10	O	1.467216	0.364971	-0.062599
C11	C	1.247528	0.190555	-0.000006
C12	C	1.108974	0.186908	-0.000005
C13	C	1.047191	0.185279	-0.064856
C14	C	0.903988	0.181509	-0.064856
C15	C	1.482762	-0.044679	-0.000010
C16	C	1.479115	-0.183233	-0.000008
C17	C	1.477500	-0.244997	0.064845
C18	C	1.473730	-0.388200	0.064849
C19	C	1.703680	0.176239	-0.000008
C20	C	1.842234	0.179886	-0.000004
C21	C	1.468446	0.411473	-0.000004
C22	C	1.472093	0.550027	-0.000001
N23	N	1.475583	0.183389	-0.178163
C24	C	1.559748	0.099306	-0.782454
C25	C	1.559750	0.099309	-0.703652
C26	C	1.475617	0.183388	-0.664252
C27	C	1.391497	0.267492	-0.703660
C28	C	1.391506	0.267495	-0.782461
C29	C	1.362096	0.198715	-0.539419
C30	C	1.362085	0.198703	-0.460620
C31	C	1.475590	0.183386	-0.421206
C32	C	1.589110	0.168054	-0.460600
C33	C	1.589119	0.168058	-0.539400
C34	C	1.475598	0.183395	-0.578806
C35	C	1.559712	0.099296	-0.296361
C36	C	1.559716	0.099308	-0.217558
C37	C	1.391452	0.267485	-0.217567
C38	C	1.391459	0.267479	-0.296369
C39	C	1.475588	0.183378	-0.335761
N40	N	1.475635	0.183395	0.178147
H41	H	1.478902	-0.191856	0.120364
H42	H	0.895357	0.181294	0.055520
N43	N	1.117538	0.187138	-0.138406
H44	H	1.104396	0.109321	-0.168261
H45	H	1.209837	0.189617	-0.127918
H46	H	0.850855	0.180116	-0.120377
H47	H	1.472347	-0.441315	0.120371
N48	N	1.038616	0.185047	0.073541
H49	H	0.975140	0.260846	0.076544
H50	H	1.099602	0.186605	0.116778
N51	N	1.711549	0.151550	-0.581888
H52	H	1.694326	0.153880	-0.637787
H53	H	1.758134	0.068315	-0.568119
H54	H	1.473488	-0.396867	-0.055527
N55	N	1.477256	-0.253604	-0.073556
H56	H	1.398613	-0.298174	-0.076557
H57	H	1.553112	-0.317010	-0.076508
H58	H	1.628254	0.030830	-0.814525
H59	H	1.628248	0.030833	-0.671568
H60	H	1.681537	0.155592	-0.428510
H61	H	1.628219	0.030820	-0.328436
N62	N	1.650451	0.008616	-0.175060
H63	H	1.703742	-0.044658	-0.211975
H64	H	1.602200	-0.046982	-0.142369
H65	H	1.322953	0.335948	-0.185488
N66	N	1.300717	0.358157	-0.338870
H67	H	1.247413	0.411418	-0.301955
H68	H	1.245153	0.309864	-0.371567
H69	H	1.269650	0.211172	-0.428552
N70	N	1.300741	0.358172	-0.661173
H71	H	1.315870	0.446874	-0.674877
H72	H	1.313536	0.345301	-0.605287
H73	H	1.323009	0.335972	-0.814540
H74	H	1.269660	0.211194	-0.571504
