data_functionalizedCrystal
_audit_creation_method	'MofGen! by Chris Wilmer'
_symmetry_space_group_name_H-M	'P1'
_symmetry_Int_Tables_number	1
_symmetry_cell_setting	triclinic
loop_
_symmetry_equiv_pos_as_xyz
  x,y,z
_cell_length_a	21.295417
_cell_length_b	14.908780
_cell_length_c	14.908308
_cell_angle_alpha	90.212689
_cell_angle_beta	93.260635
_cell_angle_gamma	86.680642
loop_
_atom_site_label
_atom_site_type_symbol
_atom_site_fract_x
_atom_site_fract_y
_atom_site_fract_z
Zn1	Zn	-0.220203	-1.345259	-0.587834
Zn2	Zn	0.279797	-0.845259	-0.087834
Zn3	Zn	-0.319080	-1.353815	-0.437460
Zn4	Zn	0.180920	-0.853815	0.062540
Zn5	Zn	-0.219518	-1.203572	-0.428801
Zn6	Zn	0.280482	-0.703572	0.071199
Zn7	Zn	-0.331131	-1.194838	-0.579075
Zn8	Zn	0.168869	-0.694838	-0.079075
O9	O	-0.272483	-1.274371	-0.508292
O10	O	0.227517	-0.774371	-0.008292
O11	O	-0.228562	-1.472223	-0.575175
O12	O	0.271438	-0.972223	-0.075175
O13	O	-0.300543	-1.341122	-0.310489
O14	O	0.199457	-0.841122	0.189511
O15	O	-0.131518	-1.222442	-0.449939
O16	O	0.368482	-0.722442	0.050061
O17	O	-0.301207	-1.478509	-0.464696
O18	O	0.198793	-0.978509	0.035304
O19	O	-0.132021	-1.326538	-0.566779
O20	O	0.367979	-0.826538	-0.066779
O21	O	-0.227396	-1.230739	-0.304127
O22	O	0.272604	-0.730739	0.195873
O23	O	-0.239081	-1.076585	-0.441446
O24	O	0.260919	-0.576585	0.058554
O25	O	-0.321745	-1.207555	-0.706059
O26	O	0.178255	-0.707555	-0.206059
O27	O	-0.321082	-1.070168	-0.551852
O28	O	0.178918	-0.570168	-0.051852
O29	O	-0.240247	-1.318069	-0.712494
O30	O	0.259753	-0.818069	-0.212494
O31	O	-0.408769	-1.332652	-0.456203
O32	O	0.091231	-0.832652	0.043797
O33	O	-0.417623	-1.215852	-0.560248
O34	O	0.082377	-0.715852	-0.060248
C35	C	-0.281315	-1.040751	-0.494760
C36	C	0.218685	-0.540751	0.005240
C37	C	-0.285110	-0.940805	-0.488992
C38	C	0.214890	-0.440805	0.011008
C39	C	-0.216712	-0.746440	-0.593371
C40	C	0.283288	-0.246440	-0.093371
C41	C	-0.220276	-0.652532	-0.587955
C42	C	0.279724	-0.152532	-0.087955
C43	C	-0.295795	-0.659081	-0.472738
C44	C	0.204205	-0.159081	0.027262
C45	C	-0.292232	-0.752989	-0.478155
C46	C	0.207768	-0.252989	0.021845
C47	C	-0.252690	-0.796665	-0.538474
C48	C	0.247310	-0.296665	-0.038474
C49	C	-0.249131	-0.890574	-0.543895
C50	C	0.250869	-0.390574	-0.043895
C51	C	-0.324647	-0.897121	-0.428675
C52	C	0.175353	-0.397121	0.071325
C53	C	-0.328210	-0.803214	-0.423258
C54	C	0.171790	-0.303214	0.076742
C55	C	-0.436037	-1.274256	-0.508236
C56	C	0.063963	-0.774256	-0.008236
C57	C	-0.506004	-1.274287	-0.508246
C58	C	-0.006004	-0.774287	-0.008246
C59	C	-0.534241	-1.335153	-0.454132
C60	C	-0.034241	-0.835153	0.045868
C61	C	-0.599982	-1.335194	-0.454155
C62	C	-0.099982	-0.835194	0.045845
C63	C	-0.637485	-1.274354	-0.508281
C64	C	-0.137485	-0.774354	-0.008281
C65	C	-0.609242	-1.213484	-0.562406
C66	C	-0.109242	-0.713484	-0.062406
C67	C	-0.543501	-1.213451	-0.562389
C68	C	-0.043501	-0.713451	-0.062389
N69	N	-0.744021	-1.195299	-0.510579
N70	N	-0.244021	-0.695299	-0.010579
N71	N	-0.806471	-1.195333	-0.510591
N72	N	-0.306471	-0.695333	-0.010591
C73	C	-0.835558	-1.274452	-0.508339
C74	C	-0.335558	-0.774452	-0.008339
N75	N	-0.799835	-1.353537	-0.506057
N76	N	-0.299835	-0.853537	-0.006057
N77	N	-0.737379	-1.353502	-0.506041
N78	N	-0.237379	-0.853502	-0.006041
C79	C	-0.708771	-1.274384	-0.508307
C80	C	-0.208771	-0.774384	-0.008307
C81	C	-0.935079	-1.335367	-0.454246
C82	C	-0.435079	-0.835367	0.045754
C83	C	-1.000822	-1.335409	-0.454275
C84	C	-0.500822	-0.835409	0.045725
C85	C	-1.010081	-1.213691	-0.562522
C86	C	-0.510081	-0.713691	-0.062522
C87	C	-0.944339	-1.213657	-0.562498
C88	C	-0.444339	-0.713657	-0.062498
C89	C	-0.906842	-1.274493	-0.508355
C90	C	-0.406842	-0.774493	-0.008355
C91	C	-0.108290	-1.274510	-0.508370
C92	C	0.391710	-0.774510	-0.008370
C93	C	-0.038321	-1.274569	-0.508404
C94	C	0.461679	-0.774569	-0.008404
C95	C	-0.282417	-1.260883	-0.742813
C96	C	0.217583	-0.760883	-0.242813
C97	C	-0.286650	-1.255136	-0.842752
C98	C	0.213350	-0.755136	-0.342752
C99	C	-0.263611	-0.508904	-0.521872
C100	C	0.236389	-0.008904	-0.021872
C101	C	-0.259816	-0.608849	-0.527641
C102	C	0.240184	-0.108849	-0.027641
C103	C	-0.209726	-1.359410	-1.037250
C104	C	0.290274	-0.859410	-0.537250
C105	C	-0.213701	-1.354013	-1.131151
C106	C	0.286299	-0.854013	-0.631151
C107	C	-0.298572	-1.238939	-1.124458
C108	C	0.201428	-0.738939	-0.624458
C109	C	-0.294597	-1.244337	-1.030557
C110	C	0.205403	-0.744337	-0.530557
C111	C	-0.250173	-1.304575	-0.986956
C112	C	0.249827	-0.804575	-0.486956
C113	C	-0.246201	-1.309977	-0.893053
C114	C	0.253799	-0.809977	-0.393053
C115	C	-0.331069	-1.194899	-0.886361
C116	C	0.168931	-0.694899	-0.386361
C117	C	-0.335044	-1.189502	-0.980263
C118	C	0.164956	-0.689502	-0.480263
C119	C	-0.262540	-1.287858	-0.274687
C120	C	0.237460	-0.787858	0.225313
C121	C	-0.258123	-1.293780	-0.174759
C122	C	0.241877	-0.793780	0.325241
H123	H	-0.503712	-1.384692	-0.410049
H124	H	-0.003712	-0.884692	0.089951
Cl125	Cl	-0.369883	-0.960266	-0.359664
Cl126	Cl	0.130117	-0.460266	0.140336
H127	H	-0.216934	-0.926133	-0.593011
H128	H	0.283066	-0.426133	-0.093011
H129	H	-0.622977	-1.384761	-0.410089
H130	H	-0.122977	-0.884761	0.089911
H131	H	-0.639781	-1.163949	-0.606478
H132	H	-0.139781	-0.663949	-0.106478
Cl133	Cl	-0.175043	-0.589395	-0.656969
Cl134	Cl	0.324957	-0.089395	-0.156969
H135	H	-0.921347	-1.164091	-0.606559
H136	H	-0.421347	-0.664091	-0.106559
Cl137	Cl	-1.057221	-1.137211	-0.630574
Cl138	Cl	-0.557221	-0.637211	-0.130574
Cl139	Cl	-0.190356	-1.385706	-0.838241
Cl140	Cl	0.309644	-0.885706	-0.338241
Cl141	Cl	-0.153887	-1.435146	-0.982434
Cl142	Cl	0.346113	-0.935146	-0.482434
Cl143	Cl	-0.167010	-0.801349	-0.669207
Cl144	Cl	0.332990	-0.301349	-0.169207
Cl145	Cl	-0.508002	-1.136927	-0.630423
Cl146	Cl	-0.008002	-0.636927	-0.130423
H147	H	-0.327981	-0.623505	-0.423620
H148	H	0.172019	-0.123505	0.076380
Cl149	Cl	-0.887937	-1.411845	-0.386183
Cl150	Cl	-0.387937	-0.911845	0.113817
Cl151	Cl	-0.162850	-1.422950	-1.194375
Cl152	Cl	0.337150	-0.922950	-0.694375
Cl153	Cl	-0.354410	-1.163211	-1.179286
Cl154	Cl	0.145590	-0.663211	-0.679286
Cl155	Cl	-1.036320	-1.411939	-0.386247
Cl156	Cl	-0.536320	-0.911939	0.113753
Cl157	Cl	-0.390887	-1.113777	-1.035084
Cl158	Cl	0.109113	-0.613777	-0.535084
H159	H	-0.364005	-1.150251	-0.845402
H160	H	0.135995	-0.650251	-0.345402
H161	H	-0.360402	-0.767640	-0.374145
H162	H	0.139598	-0.267640	0.125855
