data_functionalizedCrystal
_audit_creation_method	'MofGen! by Chris Wilmer'
_symmetry_space_group_name_H-M	'P1'
_symmetry_Int_Tables_number	1
_symmetry_cell_setting	triclinic
loop_
_symmetry_equiv_pos_as_xyz
  x,y,z
_cell_length_a	8.497374
_cell_length_b	12.759401
_cell_length_c	12.759399
_cell_angle_alpha	89.983359
_cell_angle_beta	89.991562
_cell_angle_gamma	90.001753
loop_
_atom_site_label
_atom_site_type_symbol
_atom_site_fract_x
_atom_site_fract_y
_atom_site_fract_z
Zn1	Zn	0.891958	1.606064	0.418406
Zn2	Zn	0.628160	1.606013	0.594052
Zn3	Zn	0.628185	1.430422	0.418393
Zn4	Zn	0.891892	1.430354	0.594048
O5	O	0.760048	1.518213	0.506225
O6	O	0.856982	1.753079	0.441713
O7	O	0.407401	1.582728	0.570747
O8	O	0.663213	1.453771	0.271373
O9	O	0.663171	1.753041	0.570760
O10	O	0.857005	1.582815	0.271383
O11	O	0.407419	1.453722	0.441691
O12	O	0.663149	1.283392	0.441686
O13	O	1.112663	1.453655	0.570752
O14	O	0.856893	1.283342	0.570739
O15	O	1.112711	1.582749	0.441709
O16	O	0.663107	1.582661	0.741073
O17	O	0.856869	1.453605	0.741069
C18	C	0.760017	1.245246	0.506212
C19	C	0.760041	1.128469	0.506232
C20	C	0.760013	1.518149	0.779192
C21	C	0.760050	1.518217	0.895969
C22	C	0.860765	1.073609	0.573532
C23	C	0.860796	0.963885	0.573536
C24	C	0.659366	0.963891	0.438937
C25	C	0.659344	1.073613	0.438928
C26	C	1.046781	0.813947	0.611283
C27	C	1.147491	0.759083	0.678599
C28	C	1.171437	0.794674	0.781136
C29	C	1.094649	0.885128	0.816378
C30	C	0.993928	0.939987	0.749067
C31	C	0.970012	0.904397	0.646515
C32	C	0.473357	1.223553	0.401192
C33	C	0.372627	1.278414	0.333885
C34	C	0.348665	1.242824	0.231346
C35	C	0.425424	1.152367	0.196109
C36	C	0.526155	1.097506	0.263415
C37	C	0.550119	1.133103	0.365953
C38	C	1.171529	1.518205	0.506226
C39	C	1.350173	1.518208	0.506237
C40	C	0.760081	1.792246	0.506238
C41	C	0.760095	1.909023	0.506244
C42	C	0.760119	1.518307	0.232191
C43	C	0.760149	1.518346	0.115415
C44	C	0.659273	1.585494	0.950797
C45	C	0.659326	1.585561	1.060521
C46	C	0.860938	1.451067	1.060578
C47	C	0.860891	1.451006	0.950856
C48	C	0.603186	1.709582	1.210382
C49	C	0.502384	1.776849	1.265215
C50	C	0.348458	1.793046	1.229634
C51	C	0.295302	1.741961	1.139222
C52	C	0.396096	1.674686	1.084396
C53	C	0.550044	1.658509	1.119975
C54	C	0.917015	1.326983	0.800993
C55	C	1.017802	1.259702	0.746165
C56	C	1.171731	1.243495	0.781743
C57	C	1.224880	1.294561	0.872158
C58	C	1.124094	1.361842	0.926987
C59	C	0.970167	1.378052	0.891401
H60	H	0.942763	1.118269	0.628332
H61	H	0.728530	1.696411	1.239354
C62	C	0.971853	1.377133	1.120957
C63	C	0.971907	1.377195	1.241647
C64	C	1.082824	1.303258	1.302024
C65	C	1.193686	1.229260	1.241710
C66	C	1.193635	1.229195	1.121013
C67	C	1.082719	1.303132	1.060637
H68	H	0.889837	1.431975	1.286301
H69	H	1.082861	1.303306	1.391372
H70	H	1.275793	1.174527	1.286404
H71	H	1.275706	1.174415	1.076359
H72	H	1.082682	1.303084	0.971289
H73	H	0.266627	1.287497	0.176550
H74	H	1.350223	1.281365	0.901127
C75	C	0.499706	1.262699	0.513994
C76	C	0.415246	1.362184	0.552762
C77	C	0.441581	1.401327	0.665565
C78	C	0.552376	1.340985	0.739600
C79	C	0.636843	1.241493	0.700833
C80	C	0.610508	1.202350	0.588030
H81	H	0.333223	1.406859	0.497956
H82	H	0.379052	1.474978	0.694262
H83	H	0.571871	1.369961	0.823103
H84	H	0.718867	1.196819	0.755639
H85	H	0.673037	1.128700	0.559333
H86	H	0.931408	1.013632	0.777760
H87	H	1.253788	1.188705	0.737092
H88	H	1.253439	0.749996	0.835946
H89	H	0.577164	1.640223	0.906111
H90	H	0.588668	1.023856	0.234713
C91	C	1.120980	0.924273	0.929178
C92	C	1.231771	0.863933	1.003217
C93	C	1.258106	0.903082	1.116018
C94	C	1.173650	1.002571	1.154779
C95	C	1.062851	1.062918	1.080739
C96	C	1.036516	1.023768	0.967938
H97	H	1.294297	0.790280	0.974525
H98	H	1.340127	0.858409	1.170827
H99	H	1.193145	1.031552	1.238281
H100	H	1.000325	1.136571	1.109431
H101	H	0.954495	1.068441	0.913129
H102	H	0.974517	1.218127	0.672539
C103	C	1.020455	0.774799	0.498483
C104	C	1.104900	0.675302	0.459732
C105	C	1.078572	0.636148	0.346932
C106	C	0.967800	0.696492	0.272884
C107	C	0.883347	0.795996	0.311634
C108	C	0.909675	0.835149	0.424434
H109	H	1.186908	0.630626	0.514548
H110	H	1.141090	0.562489	0.318247
H111	H	0.948310	0.667509	0.189382
H112	H	0.801340	0.840671	0.256818
H113	H	0.847157	0.908809	0.453119
H114	H	0.791677	1.340183	0.772010
C115	C	0.337649	1.618500	0.984944
C116	C	0.168326	1.636309	0.945802
C117	C	0.109878	1.580130	0.846343
C118	C	0.220753	1.506142	0.786028
C119	C	0.390087	1.488330	0.825170
C120	C	0.448535	1.544509	0.924628
H121	H	0.086240	1.691082	0.990452
H122	H	-0.015475	1.593316	0.817368
H123	H	0.177487	1.464556	0.712403
H124	H	0.472173	1.433557	0.780520
H125	H	0.573887	1.531322	0.953603
C126	C	0.237576	1.867043	1.289945
C127	C	0.296032	1.923229	1.389391
C128	C	0.185161	1.997230	1.449704
C129	C	0.015834	2.015046	1.410572
C130	C	-0.042631	1.958858	1.311121
C131	C	0.068240	1.884857	1.250808
H132	H	0.421385	1.910042	1.418364
H133	H	0.228441	2.038823	1.523324
H134	H	-0.066240	2.069826	1.455219
H135	H	-0.167985	1.972045	1.282148
H136	H	0.024960	1.843264	1.177187
C137	C	1.182557	1.418024	1.026442
C138	C	1.351877	1.400202	1.065586
C139	C	1.410338	1.456384	1.165039
C140	C	1.299479	1.530388	1.225349
C141	C	1.130149	1.548213	1.186206
C142	C	1.071688	1.492032	1.086753
H143	H	1.433950	1.345417	1.020940
H144	H	1.535688	1.443188	1.194015
H145	H	1.342756	1.571977	1.298970
H146	H	1.048076	1.602998	1.230851
H147	H	0.946339	1.505228	1.057777
H148	H	1.210013	0.685435	0.649896
H149	H	0.545678	1.818443	1.338828
H150	H	0.577380	0.919214	0.384142
H151	H	0.310124	1.352069	0.362585
H152	H	0.405889	1.123377	0.112620
H153	H	0.169953	1.755146	1.110266
