data_functionalizedCrystal
_audit_creation_method	'MofGen! by Chris Wilmer'
_symmetry_space_group_name_H-M	'P1'
_symmetry_Int_Tables_number	1
_symmetry_cell_setting	triclinic
loop_
_symmetry_equiv_pos_as_xyz
  x,y,z
_cell_length_a	6.817900
_cell_length_b	14.125469
_cell_length_c	10.943624
_cell_angle_alpha	94.577781
_cell_angle_beta	108.838799
_cell_angle_gamma	100.398878
loop_
_atom_site_label
_atom_site_type_symbol
_atom_site_fract_x
_atom_site_fract_y
_atom_site_fract_z
V1	V	-4.072455	-0.133089	-0.402053
O2	O	-4.075281	0.006421	-0.394912
O3	O	-4.008096	-0.263918	-0.398809
O4	O	-4.051083	-0.131030	-0.577627
O5	O	-4.031996	-0.127386	-0.214857
V6	V	-4.554648	-0.116403	-0.379722
O7	O	-4.336629	-0.169690	-0.451036
O8	O	-4.740671	-0.079802	-0.330739
O9	O	-4.395801	0.014426	-0.382966
O10	O	-4.669219	-0.255913	-0.386863
O11	O	-4.712504	-0.122106	-0.566918
O12	O	-4.352814	-0.118462	-0.204148
C13	C	-3.848340	-0.295811	-0.392339
C14	C	-3.877185	-0.402765	-0.390858
C15	C	-3.930069	-0.598591	-0.388165
C16	C	-4.116402	-0.650913	-0.393615
C17	C	-4.145829	-0.759877	-0.392116
C18	C	-3.900634	-0.489617	-0.389663
C19	C	-3.903173	-0.126299	-0.620437
C20	C	-3.966877	-0.125481	-0.763967
C21	C	-3.813488	-0.119977	-0.841135
C22	C	-3.976422	-0.201683	-0.946819
C23	C	-3.917476	-0.042328	-0.914029
C24	C	-4.128998	-0.207264	-0.867774
C25	C	-4.069995	-0.047837	-0.834961
C26	C	-4.233059	-0.129567	-0.940615
C27	C	-4.218898	0.046314	-0.389432
C28	C	-4.169292	0.153268	-0.390922
C29	C	-4.164064	-0.123196	-0.161331
C30	C	-4.079599	-0.124009	-0.017800
H31	H	-3.635563	-0.116032	-0.797701
H32	H	-3.937527	-0.266723	-0.995524
O33	O	-4.280103	-0.606570	-0.400451
C34	C	-4.399616	-0.455968	-0.408314
C35	C	-4.214052	-0.506065	-0.400547
H36	H	-4.346294	-0.374705	-0.408422
H37	H	-4.451476	-0.467468	-0.320452
H38	H	-4.538522	-0.488667	-0.501920
H39	H	-4.075022	-0.473399	-0.306996
H40	H	-4.162372	-0.494571	-0.488474
H41	H	-4.217813	-0.277047	-0.846968
O42	O	-3.766315	-0.642917	-0.381192
C43	C	-3.646887	-0.793539	-0.373441
C44	C	-3.832491	-0.743447	-0.381317
H45	H	-3.700336	-0.874829	-0.373567
H46	H	-3.507993	-0.760962	-0.279778
H47	H	-3.594958	-0.781913	-0.461249
H48	H	-3.884604	-0.755054	-0.293576
H49	H	-3.971263	-0.776032	-0.475034
H50	H	-3.828664	0.027362	-0.935052
O51	O	-4.445331	-0.134247	-0.992219
C52	C	-4.720680	-0.056088	-1.109366
C53	C	-4.480230	-0.050647	-1.050953
H54	H	-4.748973	0.011483	-1.156890
H55	H	-4.792333	-0.060056	-1.028610
H56	H	-4.798753	-0.123765	-1.185926
H57	H	-4.401976	0.017024	-0.974408
H58	H	-4.408733	-0.046732	-1.131782
O59	O	-4.115994	0.029863	-0.776832
C60	C	-4.055780	0.204603	-0.733798
C61	C	-4.003489	0.116685	-0.799671
H62	H	-3.964882	0.274820	-0.752264
H63	H	-4.007709	0.202868	-0.624226
H64	H	-4.233606	0.201200	-0.776219
H65	H	-3.825683	0.120031	-0.757357
H66	H	-4.051709	0.118451	-0.909241
