data_functionalizedCrystal
_audit_creation_method	'MofGen! by Chris Wilmer'
_symmetry_space_group_name_H-M	'P1'
_symmetry_Int_Tables_number	1
_symmetry_cell_setting	triclinic
loop_
_symmetry_equiv_pos_as_xyz
  x,y,z
_cell_length_a	14.971486
_cell_length_b	15.944551
_cell_length_c	14.048226
_cell_angle_alpha	89.998721
_cell_angle_beta	90.000107
_cell_angle_gamma	96.443567
loop_
_atom_site_label
_atom_site_type_symbol
_atom_site_fract_x
_atom_site_fract_y
_atom_site_fract_z
O1	O	1.186827	-0.109460	-0.079041
O2	O	0.926413	-0.122568	-0.079065
O3	O	1.063731	0.006254	-0.079058
O4	O	1.049509	-0.238282	-0.079048
O5	O	1.063718	0.006255	0.079264
O6	O	0.926400	-0.122567	0.079256
O7	O	1.186814	-0.109459	0.079281
Zn8	Zn	1.056605	-0.116013	0.104405
Zn9	Zn	1.056622	-0.116014	-0.104190
O10	O	1.049496	-0.238281	0.079273
C11	C	0.893082	-0.121982	0.000092
C12	C	0.793787	-0.120225	0.000082
C13	C	0.736480	-0.195904	0.000087
C14	C	0.643182	-0.194249	0.000101
C15	C	0.607194	-0.116913	0.000104
C16	C	0.664508	-0.041227	0.000102
C17	C	0.757804	-0.042884	0.000095
C18	C	0.470049	-0.037780	0.000115
C19	C	0.376747	-0.036123	0.000121
C20	C	0.355428	-0.189145	0.000121
C21	C	0.448724	-0.190801	0.000114
C22	C	0.506032	-0.115116	0.000110
C23	C	1.050093	-0.269576	0.000114
C24	C	1.051863	-0.362824	0.000118
C25	C	1.141210	-0.577766	0.000112
C26	C	1.099714	-0.638742	0.078170
C27	C	1.055065	-0.533553	0.000110
C28	C	1.099706	-0.638729	-0.077922
C29	C	1.058165	-0.698469	0.000098
C30	C	1.013545	-0.593301	0.078232
C31	C	1.013550	-0.593281	-0.077930
C32	C	0.971991	-0.654240	0.000146
C33	C	1.053282	-0.438549	0.000118
C34	C	1.059941	-0.793471	0.000097
C35	C	1.220145	-0.110046	0.000121
C36	C	1.319440	-0.111802	0.000125
C37	C	1.063134	0.037549	0.000099
C38	C	1.061364	0.130797	0.000089
N39	N	1.056600	-0.116011	0.246766
N40	N	1.056634	-0.116009	-0.246550
C41	C	1.110847	-0.167042	0.296588
C42	C	1.110859	-0.167038	0.396245
C43	C	1.056617	-0.116008	0.446080
C44	C	1.002368	-0.064972	0.396251
C45	C	1.002362	-0.064971	0.296595
C46	C	1.002382	-0.064977	0.603965
C47	C	1.002387	-0.064979	0.703628
C48	C	1.110879	-0.167044	0.703615
C49	C	1.110873	-0.167044	0.603959
C50	C	1.056622	-0.116009	0.554138
H51	H	0.635199	0.021741	0.000118
H52	H	0.958218	-0.023426	0.744201
O53	O	1.163644	-0.216637	0.555696
C54	C	1.211514	-0.261697	0.621037
H55	H	1.216742	-0.226937	0.692076
H56	H	1.281842	-0.267016	0.592233
H57	H	1.174668	-0.327574	0.631636
H58	H	1.155011	-0.208602	0.256020
H59	H	0.958207	-0.023418	0.563404
O60	O	0.970134	-0.569358	-0.156738
C61	C	0.942013	-0.641022	-0.212468
H62	H	0.985529	-0.693340	-0.195435
H63	H	0.949038	-0.623936	-0.291117
H64	H	0.868733	-0.663740	-0.195918
O65	O	0.813347	0.030709	0.000043
C66	C	0.761579	0.099324	0.000069
H67	H	0.691947	0.078076	-0.029899
H68	H	0.795990	0.152356	-0.045900
H69	H	0.754941	0.123026	0.076023
H70	H	1.212715	-0.544528	0.000196
H71	H	0.958208	-0.023418	0.436834
H72	H	1.136144	-0.658883	0.144169
O73	O	0.970162	-0.569270	0.157017
C74	C	0.969031	-0.480971	0.156078
H75	H	1.026456	-0.450829	0.109826
H76	H	0.977474	-0.455527	0.231765
H77	H	0.902250	-0.465157	0.125886
H78	H	1.136164	-0.658853	-0.143910
O79	O	0.949745	-0.015427	0.248048
C80	C	0.961354	-0.026383	0.149404
H81	H	1.029096	-0.050435	0.135789
H82	H	0.959098	0.036578	0.111529
H83	H	0.905255	-0.074150	0.121128
H84	H	0.900423	-0.687330	0.000183
H85	H	1.155034	-0.208591	0.436805
H86	H	0.765774	-0.258881	0.000083
H87	H	0.308763	-0.250771	0.000128
O88	O	1.163691	-0.216490	0.752046
C89	C	1.224715	-0.165370	0.809698
H90	H	1.234316	-0.098545	0.779664
H91	H	1.292089	-0.192319	0.810816
H92	H	1.197090	-0.163908	0.885230
O93	O	0.587642	-0.267842	0.000061
C94	C	0.639413	-0.336455	0.000075
H95	H	0.709039	-0.315204	-0.029907
H96	H	0.604995	-0.389486	-0.045886
H97	H	0.646067	-0.360158	0.076029
H98	H	0.478022	-0.253775	0.000102
H99	H	0.516708	0.023852	0.000114
O100	O	0.341934	0.039073	0.000168
C101	C	0.412519	0.105520	0.000146
H102	H	0.475900	0.081914	0.030118
H103	H	0.393014	0.159505	0.046113
H104	H	0.425717	0.128873	-0.075808
