data_functionalizedCrystal
_audit_creation_method	'MofGen! by Chris Wilmer'
_symmetry_space_group_name_H-M	'P1'
_symmetry_Int_Tables_number	1
_symmetry_cell_setting	triclinic
loop_
_symmetry_equiv_pos_as_xyz
  x,y,z
_cell_length_a	10.723024
_cell_length_b	11.295483
_cell_length_c	10.723024
_cell_angle_alpha	94.135327
_cell_angle_beta	95.532131
_cell_angle_gamma	94.144104
loop_
_atom_site_label
_atom_site_type_symbol
_atom_site_fract_x
_atom_site_fract_y
_atom_site_fract_z
O1	O	1.665521	0.099014	-0.166696
O2	O	1.302369	0.099018	-0.183449
O3	O	1.492322	0.099011	0.006503
O4	O	1.475569	0.099020	-0.356648
O5	O	1.475637	-0.099039	-0.010155
O6	O	1.285685	-0.099032	-0.200107
O7	O	1.648837	-0.099036	-0.183354
Cu8	Cu	1.465738	-0.117118	-0.193252
Cu9	Cu	1.485469	0.117099	-0.173552
O10	O	1.458885	-0.099030	-0.373306
C11	C	1.247528	-0.000007	-0.190559
C12	C	1.108974	-0.000005	-0.186911
N13	N	1.451869	-0.281854	-0.207107
C14	C	1.033991	-0.000002	-0.293198
C15	C	0.890788	-0.000000	-0.289431
C16	C	1.599180	-0.531148	-0.059879
C17	C	1.588709	-0.655811	-0.070359
C18	C	1.420449	-0.655846	-0.238538
C19	C	1.430921	-0.531183	-0.228059
C20	C	1.520290	-0.468838	-0.138728
C21	C	1.530767	-0.344172	-0.128255
C22	C	1.362502	-0.344209	-0.296428
C23	C	1.352031	-0.468873	-0.306908
C24	C	1.703679	-0.000009	-0.176244
C25	C	1.842234	-0.000003	-0.179891
C26	C	1.482760	-0.000012	0.044674
C27	C	1.479113	-0.000008	0.183229
N28	N	1.499347	0.281835	-0.159687
C29	C	1.468446	-0.000003	-0.411477
C30	C	1.472094	0.000000	-0.550031
C31	C	1.585401	-0.000007	0.258211
C32	C	1.581634	-0.000003	0.401415
H33	H	1.075813	-0.000006	-0.386985
C34	C	1.771425	-0.101810	0.233020
C35	C	1.712021	-0.000004	0.201775
H36	H	1.849601	-0.101799	0.198188
H37	H	1.719488	-0.170862	0.200213
H38	H	1.785490	-0.101798	0.321853
H39	H	1.697947	-0.000020	0.112941
H40	H	1.763969	0.069066	0.234576
H41	H	1.279264	-0.519648	-0.379636
H42	H	1.672624	-0.000008	0.465847
C43	C	1.352954	0.101813	0.295869
C44	C	1.349245	0.000004	0.363008
H45	H	1.277108	0.101817	0.242183
H46	H	1.422154	0.101799	0.246846
H47	H	1.362094	0.170871	0.353049
H48	H	1.340114	-0.069054	0.305827
H49	H	1.280025	0.000007	0.412034
C50	C	0.736693	0.101815	-0.408574
C51	C	0.803815	0.000005	-0.412272
H52	H	0.682992	0.101813	-0.484412
H53	H	0.793874	0.170865	-0.399454
H54	H	0.687673	0.101802	-0.339358
H55	H	0.852842	0.000022	-0.481483
H56	H	0.746626	-0.069062	-0.421405
H57	H	0.906659	0.000002	-0.088895
C58	C	1.201818	-0.694292	-0.313049
C59	C	1.322207	-0.724399	-0.336705
H60	H	1.141166	-0.736623	-0.373646
H61	H	1.196766	-0.611142	-0.318118
H62	H	1.185869	-0.714712	-0.231343
H63	H	1.338159	-0.703970	-0.418408
H64	H	1.327262	-0.807567	-0.331647
H65	H	1.067154	0.000023	-0.093123
H66	H	1.298269	-0.293462	-0.360635
H67	H	1.603540	-0.293413	-0.055521
H68	H	1.385328	0.000001	0.225051
H69	H	1.652947	-0.706541	-0.006151
C70	C	1.764453	-0.543630	0.105301
C71	C	1.697415	-0.462611	0.038307
H72	H	1.825094	-0.501317	0.165921
H73	H	1.805697	-0.592240	0.048858
H74	H	1.708032	-0.592268	0.146575
H75	H	1.753835	-0.413979	-0.002975
H76	H	1.656170	-0.413980	0.094758
