data_functionalizedCrystal
_audit_creation_method	'MofGen! by Chris Wilmer'
_symmetry_space_group_name_H-M	'P1'
_symmetry_Int_Tables_number	1
_symmetry_cell_setting	triclinic
loop_
_symmetry_equiv_pos_as_xyz
  x,y,z
_cell_length_a	13.897449
_cell_length_b	25.639233
_cell_length_c	13.897448
_cell_angle_alpha	90.015038
_cell_angle_beta	89.981028
_cell_angle_gamma	89.987757
loop_
_atom_site_label
_atom_site_type_symbol
_atom_site_fract_x
_atom_site_fract_y
_atom_site_fract_z
Zn1	Zn	1.474622	-0.295617	0.384099
Zn2	Zn	1.474540	-0.208187	0.545377
Zn3	Zn	1.313335	-0.208197	0.384101
Zn4	Zn	1.313293	-0.295592	0.545358
O5	O	1.393947	-0.251898	0.464734
O6	O	1.609592	-0.284026	0.405501
O7	O	1.453139	-0.135023	0.523993
O8	O	1.334782	-0.219807	0.249120
O9	O	1.609532	-0.219792	0.523991
O10	O	1.453279	-0.284035	0.249118
O11	O	1.334702	-0.135030	0.405504
O12	O	1.178348	-0.219783	0.405485
O13	O	1.334710	-0.368761	0.523957
O14	O	1.178317	-0.283993	0.523959
O15	O	1.453238	-0.368779	0.405482
O16	O	1.453098	-0.219768	0.680356
O17	O	1.334630	-0.283984	0.680342
C18	C	1.143333	-0.251886	0.464721
C19	C	1.036119	-0.251894	0.464739
C20	C	0.839824	-0.251907	0.464742
C21	C	0.949056	-0.251898	0.464737
C22	C	1.393978	-0.388271	0.464717
C23	C	1.393992	-0.446386	0.464710
C24	C	1.455787	-0.806764	0.402836
C25	C	1.455799	-0.861368	0.402810
O26	O	1.508262	-0.889618	0.350316
N27	N	1.394098	-0.888668	0.464484
C28	C	1.332374	-0.861361	0.526182
O29	O	1.279892	-0.889596	0.578637
C30	C	1.332358	-0.806758	0.526203
C31	C	1.394070	-0.779461	0.464531
C32	C	1.517494	-0.779467	0.341169
C33	C	1.517483	-0.724866	0.341197
C34	C	1.455765	-0.697563	0.402893
C35	C	1.394059	-0.724860	0.464560
C36	C	1.270629	-0.779451	0.587895
C37	C	1.270618	-0.724844	0.587910
C38	C	1.332330	-0.697547	0.526239
C39	C	1.332331	-0.642956	0.526283
N40	N	1.394032	-0.615656	0.464609
C41	C	1.455749	-0.642959	0.402914
C42	C	1.332411	-0.976032	0.526131
C43	C	1.332431	-1.030634	0.526116
C44	C	1.455856	-1.030638	0.402742
C45	C	1.455839	-0.976034	0.402763
C46	C	1.394112	-0.948732	0.464457
C47	C	1.455722	-0.528294	0.402978
C48	C	1.455709	-0.473689	0.403015
C49	C	1.332281	-0.473690	0.526384
C50	C	1.332298	-0.528291	0.526352
C51	C	1.394022	-0.555592	0.464641
O52	O	1.279892	-0.614672	0.578747
O53	O	1.508213	-0.614718	0.350458
C54	C	1.645540	-0.251911	0.464748
C55	C	1.752754	-0.251916	0.464753
C56	C	1.393877	-0.251883	0.715348
C57	C	1.393935	-0.251894	0.822562
C58	C	1.393972	-0.116056	0.464681
C59	C	1.394145	-0.057942	0.464417
C60	C	1.394044	-0.251925	0.213141
C61	C	1.394085	-0.251936	0.105927
C62	C	1.394036	-0.251927	1.018857
C63	C	1.393977	-0.251910	0.909625
H64	H	1.505981	-0.550516	0.352724
H65	H	1.567734	-0.702646	0.290976
H66	H	1.506107	-1.052878	0.352504
N67	N	1.269401	-1.058506	0.589131
N68	N	1.214307	-1.034115	0.644211
H69	H	1.169785	-1.053797	0.688716
H70	H	1.220376	-0.801667	0.638114
H71	H	1.567752	-0.801691	0.290924
H72	H	1.506089	-0.953812	0.352543
H73	H	1.282144	-0.953805	0.576375
N74	N	1.207551	-0.696965	0.650931
N75	N	1.152459	-0.721348	0.705982
H76	H	1.107918	-0.701659	0.750492
N77	N	1.269239	-0.556169	0.589335
N78	N	1.214125	-0.531782	0.644400
H79	H	1.169571	-0.551467	0.688868
H80	H	1.282036	-0.451450	0.576618
H81	H	1.505966	-0.451466	0.352794
