data_functionalizedCrystal
_audit_creation_method	'MofGen! by Chris Wilmer'
_symmetry_space_group_name_H-M	'P1'
_symmetry_Int_Tables_number	1
_symmetry_cell_setting	triclinic
loop_
_symmetry_equiv_pos_as_xyz
  x,y,z
_cell_length_a	19.188930
_cell_length_b	19.188924
_cell_length_c	15.186229
_cell_angle_alpha	89.994194
_cell_angle_beta	89.982767
_cell_angle_gamma	83.143372
loop_
_atom_site_label
_atom_site_type_symbol
_atom_site_fract_x
_atom_site_fract_y
_atom_site_fract_z
O1	O	0.926142	0.087167	-0.073516
O2	O	0.722830	0.098901	-0.073456
O3	O	0.830355	-0.008622	-0.073477
O4	O	0.818616	0.194690	-0.073494
O5	O	0.830348	-0.008623	0.072980
O6	O	0.722823	0.098900	0.073001
O7	O	0.926134	0.087166	0.072942
Zn8	Zn	0.824478	0.093032	0.096225
Zn9	Zn	0.824487	0.093034	-0.096739
O10	O	0.818609	0.194689	0.072963
C11	C	0.696815	0.098521	-0.000219
C12	C	0.619311	0.097380	-0.000196
C13	C	0.574385	0.160471	-0.000215
C14	C	0.501562	0.159399	-0.000225
C15	C	0.473667	0.095233	-0.000233
C16	C	0.518602	0.032134	-0.000209
C17	C	0.591424	0.033207	-0.000190
N18	N	0.365690	0.046186	-0.050110
N19	N	0.296512	0.045171	-0.050129
C20	C	0.254258	0.091995	-0.000287
N21	N	0.283795	0.139883	0.049565
N22	N	0.352980	0.140901	0.049581
C23	C	0.394704	0.094062	-0.000252
C24	C	0.130368	0.153928	-0.000315
C25	C	0.057543	0.152854	-0.000319
C26	C	0.074585	0.025586	-0.000312
C27	C	0.147409	0.026663	-0.000299
C28	C	0.175295	0.090835	-0.000305
C29	C	0.829973	-0.034634	-0.000248
C30	C	0.828834	-0.112138	-0.000245
C31	C	0.828306	-0.148537	-0.080079
C32	C	0.827226	-0.221359	-0.080085
C33	C	0.826688	-0.257783	-0.000253
C34	C	0.827212	-0.221376	0.079591
C35	C	0.828285	-0.148553	0.079596
N36	N	0.864733	-0.377447	0.059153
N37	N	0.863715	-0.446625	0.059143
C38	C	0.823454	-0.477192	-0.000261
N39	N	0.784258	-0.435969	-0.059668
N40	N	0.785279	-0.366784	-0.059662
C41	C	0.825524	-0.336746	-0.000249
C42	C	0.821754	-0.592553	-0.080107
C43	C	0.820670	-0.665376	-0.080110
C44	C	0.820663	-0.665392	0.079569
C45	C	0.821740	-0.592569	0.079570
C46	C	0.822289	-0.556154	-0.000271
C47	C	0.952149	0.087546	-0.000297
C48	C	1.029654	0.088687	-0.000326
C49	C	0.818992	0.220700	-0.000269
C50	C	0.820131	0.298205	-0.000277
N51	N	0.824476	0.093031	0.227917
N52	N	0.824494	0.093031	-0.228432
C53	C	0.872105	0.045435	0.453631
C54	C	0.872107	0.045434	0.545821
C55	C	0.776860	0.140628	0.545849
C56	C	0.776855	0.140626	0.453661
C57	C	0.824481	0.093030	0.407554
C58	C	0.824489	0.093031	0.591932
C59	C	0.824491	0.093029	0.691888
C60	C	0.824479	0.093031	0.307592
H61	H	0.051874	-0.026659	-0.000373
C62	C	0.161046	0.224519	-0.000310
N63	N	0.184151	0.277688	-0.000305
C64	C	0.605056	0.231063	-0.000204
N65	N	0.628159	0.284234	-0.000190
H66	H	0.910885	0.006677	0.583334
C67	C	0.822328	-0.552531	0.167395
N68	N	0.822769	-0.522374	0.233548
C69	C	0.724473	0.192979	0.596574
N70	N	0.685014	0.232411	0.634780
C71	C	0.828904	-0.108484	-0.167906
N72	N	0.829352	-0.078314	-0.234058
H73	H	0.183988	-0.024713	-0.000288
H74	H	0.020965	0.204232	-0.000330
C75	C	0.826642	-0.261405	-0.167912
N76	N	0.826200	-0.291565	-0.234064
C77	C	0.724495	0.193019	0.402973
N78	N	0.685069	0.232489	0.364795
C79	C	0.826618	-0.261443	0.167407
N80	N	0.826168	-0.291621	0.233552
C81	C	0.924489	-0.006927	0.402917
N82	N	0.963944	-0.046370	0.364722
C83	C	0.828869	-0.108515	0.167423
N84	N	0.829312	-0.078357	0.233576
H85	H	0.464976	0.210777	-0.000238
C86	C	0.820125	-0.705419	-0.167938
N87	N	0.819729	-0.735581	-0.234093
H88	H	0.495885	-0.020111	-0.000228
C89	C	0.822348	-0.552493	-0.167932
N90	N	0.822793	-0.522321	-0.234083
H91	H	0.628003	-0.018171	-0.000175
C92	C	0.820070	-0.705454	0.167386
N93	N	0.819623	-0.735632	0.233532
