data_functionalizedCrystal
_audit_creation_method	'MofGen! by Chris Wilmer'
_symmetry_space_group_name_H-M	'P1'
_symmetry_Int_Tables_number	1
_symmetry_cell_setting	triclinic
loop_
_symmetry_equiv_pos_as_xyz
  x,y,z
_cell_length_a	10.489741
_cell_length_b	17.699077
_cell_length_c	16.176319
_cell_angle_alpha	89.993140
_cell_angle_beta	89.993511
_cell_angle_gamma	83.909875
loop_
_atom_site_label
_atom_site_type_symbol
_atom_site_fract_x
_atom_site_fract_y
_atom_site_fract_z
O1	O	0.161260	1.005137	-0.068735
O2	O	0.182252	0.784895	-0.068739
O3	O	-0.013935	0.900027	-0.068732
O4	O	0.357447	0.890004	-0.068742
O5	O	-0.013948	0.900011	0.068761
O6	O	0.182240	0.784879	0.068754
O7	O	0.161247	1.005120	0.068758
Cu8	Cu	0.171742	0.894998	0.081310
Cu9	Cu	0.171757	0.895017	-0.081291
O10	O	0.357435	0.889988	0.068751
C11	C	0.181495	0.756685	0.000007
C12	C	0.179243	0.672652	0.000006
C13	C	0.178174	0.633169	0.074954
C14	C	0.176037	0.554212	0.074955
C15	C	0.174977	0.514740	0.000007
C16	C	0.176042	0.554228	-0.074948
C17	C	0.178170	0.633184	-0.074948
C18	C	0.167459	0.235809	-0.074949
C19	C	0.165335	0.156847	-0.074943
C20	C	0.165326	0.156837	0.074954
C21	C	0.167454	0.235793	0.074954
C22	C	0.168511	0.275275	-0.000000
C23	C	0.170826	0.360889	-0.000000
C24	C	0.172672	0.429127	0.000006
C25	C	-0.061459	0.899262	0.000014
C26	C	-0.203046	0.896997	0.000012
C27	C	-0.269823	0.823742	0.000005
C28	C	-0.362595	0.858339	0.067797
C29	C	-0.362558	0.858372	-0.067761
C30	C	-0.293954	0.931625	0.067860
C31	C	-0.293907	0.931648	-0.067758
C32	C	-0.386654	0.966298	0.000050
C33	C	0.404958	0.890753	0.000003
C34	C	0.546546	0.893018	-0.000001
C35	C	0.162004	1.033331	0.000010
C36	C	0.164257	1.117364	0.000006
N37	N	0.171731	0.894990	0.195676
N38	N	0.171758	0.895031	-0.195657
C39	C	0.084895	0.945987	0.238943
C40	C	0.084893	0.945990	0.325490
C41	C	0.171736	0.895001	0.368768
C42	C	0.258576	0.843999	0.325495
C43	C	0.258570	0.843992	0.238949
C44	C	0.258600	0.844025	0.674523
C45	C	0.258602	0.844038	0.761075
C46	C	0.084923	0.946023	0.761064
C47	C	0.084917	0.946017	0.674518
C48	C	0.171753	0.895012	0.631252
C49	C	0.171752	0.895008	0.537408
C50	C	0.171744	0.895009	0.462611
H51	H	0.168323	0.267927	0.135984
H52	H	0.014184	0.987515	0.360718
O53	O	0.342783	0.794467	0.803208
C54	C	0.274563	0.747408	0.853275
H55	H	0.174695	0.777019	0.866238
H56	H	0.327824	0.735730	0.914133
H57	H	0.266006	0.691423	0.819939
O58	O	-0.257741	0.968635	0.136227
C59	C	-0.197149	1.032521	0.112040
H60	H	-0.158004	1.023636	0.046618
H61	H	-0.114939	1.040260	0.156272
H62	H	-0.269505	1.085324	0.113672
H63	H	-0.437200	1.026582	0.000089
O64	O	0.000412	0.995547	0.197034
C65	C	-0.076211	1.040570	0.253786
H66	H	-0.077579	1.009537	0.315486
H67	H	-0.178100	1.051561	0.228790
H68	H	-0.034917	1.097016	0.262974
O69	O	-0.209300	0.751877	0.000227
C70	C	-0.244105	0.713523	0.071827
H71	H	-0.277642	0.756784	0.121538
H72	H	-0.157754	0.675057	0.095486
H73	H	-0.325060	0.677716	0.056358
O74	O	-0.257504	0.968714	-0.136045
C75	C	-0.197910	1.032928	-0.111743
H76	H	-0.230991	1.050852	-0.046852
H77	H	-0.225137	1.081547	-0.156739
H78	H	-0.089415	1.018311	-0.111987
H79	H	-0.392940	0.827374	-0.125079
O80	O	0.164124	0.118432	-0.147700
C81	C	0.052459	0.080748	-0.152181
H82	H	0.015332	0.071575	-0.087102
H83	H	0.075800	0.023435	-0.183899
H84	H	-0.024047	0.116761	-0.189163
O85	O	0.164114	0.118579	0.147819
C86	C	0.054197	0.145835	0.193411
H87	H	0.018933	0.205822	0.172098
H88	H	0.079102	0.146739	0.261976
H89	H	-0.024325	0.106985	0.183028
H90	H	0.014207	0.987539	0.639284
O91	O	0.342979	0.794560	0.196825
C92	C	0.421600	0.835512	0.146760
H93	H	0.370674	0.894457	0.133786
H94	H	0.441838	0.804027	0.085906
H95	H	0.515861	0.841166	0.180101
H96	H	0.014213	0.987552	0.796300
H97	H	0.329281	0.802479	0.360737
O98	O	0.179142	0.671396	0.147834
C99	C	0.177769	0.619610	0.213985
H100	H	0.135892	0.566245	0.192011
H101	H	0.116477	0.646887	0.266405
H102	H	0.279826	0.603824	0.237030
O103	O	0.174763	0.515847	0.147742
C104	C	0.063116	0.478145	0.152224
H105	H	-0.013408	0.507516	0.109686
H106	H	0.026014	0.479931	0.218512
H107	H	0.086459	0.416501	0.132098
H108	H	0.168316	0.267946	-0.135981
O109	O	0.343078	0.794458	0.632630
C110	C	0.419706	0.749447	0.689390
H111	H	0.421081	0.780494	0.751073
H112	H	0.521593	0.738449	0.664379
H113	H	0.378412	0.693003	0.698616
H114	H	0.179042	0.665330	-0.135979
O115	O	0.175065	0.515766	-0.147679
C116	C	0.172929	0.437613	-0.131610
H117	H	0.212999	0.423907	-0.067198
H118	H	0.234025	0.403141	-0.179479
H119	H	0.070041	0.422593	-0.135159
H120	H	-0.393035	0.827336	0.125109
