data_functionalizedCrystal
_audit_creation_method	'MofGen! by Chris Wilmer'
_symmetry_space_group_name_H-M	'P1'
_symmetry_Int_Tables_number	1
_symmetry_cell_setting	triclinic
loop_
_symmetry_equiv_pos_as_xyz
  x,y,z
_cell_length_a	11.792241
_cell_length_b	10.723024
_cell_length_c	9.198806
_cell_angle_alpha	89.997255
_cell_angle_beta	89.996670
_cell_angle_gamma	84.330643
loop_
_atom_site_label
_atom_site_type_symbol
_atom_site_fract_x
_atom_site_fract_y
_atom_site_fract_z
O1	O	0.159192	1.656767	-0.120853
O2	O	0.659192	2.156767	0.379147
O3	O	0.174430	1.293574	-0.120865
O4	O	0.674430	1.793574	0.379135
O5	O	0.001660	1.483984	-0.120849
O6	O	0.501660	1.983984	0.379151
O7	O	0.331962	1.466357	-0.120870
O8	O	0.831962	1.966357	0.379130
O9	O	0.001659	1.483969	0.120936
O10	O	0.501659	1.983969	0.620936
O11	O	0.174430	1.293559	0.120920
O12	O	0.674430	1.793559	0.620920
O13	O	0.159192	1.656751	0.120932
O14	O	0.659192	2.156751	0.620932
Cu15	Cu	0.166811	1.475154	0.143003
Cu16	Cu	0.666811	1.975154	0.643003
Cu17	Cu	0.166811	1.475172	-0.142936
Cu18	Cu	0.666811	1.975172	0.357064
O19	O	0.331962	1.466341	0.120915
O20	O	0.831962	1.966341	0.620915
C21	C	-0.040634	1.482869	0.000043
C22	C	0.459366	1.982869	0.500043
C23	C	-0.166655	1.479555	0.000042
C24	C	0.333345	1.979555	0.500042
C25	C	0.173321	1.247070	0.000026
C26	C	0.673321	1.747070	0.500026
C27	C	0.170003	1.108524	0.000022
C28	C	0.670003	1.608524	0.500022
N29	N	0.166810	1.475150	0.344117
N30	N	0.666810	1.975150	0.844117
C31	C	-0.397380	1.473461	0.000017
C32	C	0.102620	1.973461	0.500017
C33	C	-0.268988	1.476847	0.000031
C34	C	0.231012	1.976847	0.500031
C35	C	0.374255	1.467456	0.000020
C36	C	0.874255	1.967456	0.500020
C37	C	0.500276	1.470770	0.000012
C38	C	1.000276	1.970770	0.500012
C39	C	0.160301	1.703256	0.000038
C40	C	0.660301	2.203256	0.500038
C41	C	0.163619	1.841801	0.000032
C42	C	0.663619	2.341801	0.500032
C43	C	0.066945	1.917040	0.000036
C44	C	0.566945	2.417040	0.500036
C45	C	0.070372	2.060234	0.000031
C46	C	0.570372	2.560234	0.500031
N47	N	0.166803	1.475185	-0.344050
N48	N	0.666803	1.975185	0.155950
C49	C	0.093948	1.555099	0.416321
C50	C	0.593948	2.055099	0.916321
C51	C	0.093944	1.555118	0.583733
C52	C	0.593944	2.055118	1.083733
H53	H	-0.012387	2.124885	0.000025
H54	H	0.487613	2.624885	0.500025
H55	H	-0.018357	1.875443	0.000066
H56	H	0.481643	2.375443	0.500066
C57	C	0.009670	1.647589	0.667598
C58	C	0.509670	2.147589	1.167598
H59	H	-0.036035	1.697741	0.600572
H60	H	0.463965	2.197741	1.100572
H61	H	-0.037780	1.602185	0.726990
H62	H	0.462220	2.102185	1.226990
H63	H	0.050838	1.699913	0.726957
H64	H	0.550838	2.199913	1.226957
C65	C	0.281817	2.021207	0.000011
C66	C	0.781817	2.521207	0.500011
H67	H	0.344768	2.070080	-0.000007
H68	H	0.844768	2.570080	0.499993
H69	H	0.284839	1.969832	0.084324
H70	H	0.784839	2.469832	0.584324
H71	H	0.284832	1.969847	-0.084318
H72	H	0.784832	2.469847	0.415682
C73	C	0.009679	1.647547	0.332411
C74	C	0.509679	2.147547	0.832411
H75	H	0.020741	1.635410	0.230899
H76	H	0.520741	2.135410	0.730899
H77	H	-0.066149	1.633275	0.357293
H78	H	0.433851	2.133275	0.857293
H79	H	0.022471	1.731000	0.357263
H80	H	0.522471	2.231000	0.857263
C81	C	0.251083	1.382712	0.572095
C82	C	0.751083	1.882712	1.072095
H83	H	0.296798	1.332572	0.639121
H84	H	0.796798	1.832572	1.139121
H85	H	0.209925	1.330396	0.512725
H86	H	0.709925	1.830396	1.012725
H87	H	0.298539	1.428127	0.512712
H88	H	0.798539	1.928127	1.012712
H89	H	0.248921	1.883398	0.000033
H90	H	0.748921	2.383398	0.500033
H91	H	0.229182	1.406713	0.406239
H92	H	0.729182	1.906713	0.906239
