data_functionalizedCrystal
_audit_creation_method	'MofGen! by Chris Wilmer'
_symmetry_space_group_name_H-M	'P1'
_symmetry_Int_Tables_number	1
_symmetry_cell_setting	triclinic
loop_
_symmetry_equiv_pos_as_xyz
  x,y,z
_cell_length_a	19.188933
_cell_length_b	19.188930
_cell_length_c	10.868271
_cell_angle_alpha	89.989749
_cell_angle_beta	89.997098
_cell_angle_gamma	83.145175
loop_
_atom_site_label
_atom_site_type_symbol
_atom_site_fract_x
_atom_site_fract_y
_atom_site_fract_z
O1	O	0.926144	0.087174	-0.102295
O2	O	1.426144	0.587174	0.397705
O3	O	0.722833	0.098907	-0.102308
O4	O	1.222833	0.598907	0.397692
O5	O	0.830355	-0.008615	-0.102277
O6	O	1.330355	0.491385	0.397723
O7	O	0.818621	0.194696	-0.102326
O8	O	1.318621	0.694696	0.397674
O9	O	0.830346	-0.008619	0.102367
O10	O	1.330346	0.491381	0.602367
O11	O	0.722824	0.098903	0.102336
O12	O	1.222824	0.598903	0.602336
O13	O	0.926135	0.087170	0.102350
O14	O	1.426135	0.587170	0.602350
Zn15	Zn	0.824478	0.093036	0.134835
Zn16	Zn	1.324478	0.593036	0.634835
Zn17	Zn	0.824490	0.093042	-0.134793
Zn18	Zn	1.324490	0.593042	0.365207
O19	O	0.818612	0.194692	0.102319
O20	O	1.318612	0.694692	0.602319
C21	C	0.696817	0.098525	0.000013
C22	C	1.196817	0.598525	0.500013
C23	C	0.619313	0.097384	0.000009
C24	C	1.119313	0.597384	0.500009
C25	C	0.066062	0.089241	-0.111528
C26	C	0.566062	0.589241	0.388472
C27	C	0.138886	0.090309	-0.111533
C28	C	0.638886	0.590309	0.388467
C29	C	0.175299	0.090844	0.000018
C30	C	0.675299	0.590844	0.500018
C31	C	0.138883	0.090293	0.111583
C32	C	0.638883	0.590293	0.611583
C33	C	0.066061	0.089218	0.111585
C34	C	0.566061	0.589218	0.611585
N35	N	0.284315	0.132261	0.083041
N36	N	0.784315	0.632261	0.583041
N37	N	0.353493	0.133284	0.083032
N38	N	0.853493	0.633284	0.583032
C39	C	0.394707	0.094082	0.000020
C40	C	0.894707	0.594082	0.500020
N41	N	0.364130	0.053827	-0.083002
N42	N	0.864130	0.553827	0.416998
N43	N	0.294945	0.052808	-0.082996
N44	N	0.794945	0.552808	0.417004
C45	C	0.254262	0.092009	0.000029
C46	C	0.754262	0.592009	0.500029
C47	C	0.510079	0.095786	-0.111543
C48	C	1.010079	0.595786	0.388457
C49	C	0.582905	0.096850	-0.111544
C50	C	1.082905	0.596850	0.388456
C51	C	0.582900	0.096841	0.111575
C52	C	1.082900	0.596841	0.611575
C53	C	0.510076	0.095770	0.111572
C54	C	1.010076	0.595770	0.611572
C55	C	0.473669	0.095246	0.000010
C56	C	0.973669	0.595246	0.500010
C57	C	0.829971	-0.034628	0.000049
C58	C	1.329971	0.465372	0.500049
C59	C	0.828830	-0.112132	0.000059
C60	C	1.328830	0.387868	0.500059
C61	C	0.891921	-0.157056	0.000069
C62	C	1.391921	0.342944	0.500069
C63	C	0.890849	-0.229880	0.000049
C64	C	1.390849	0.270120	0.500049
C65	C	0.826683	-0.257777	0.000044
C66	C	1.326683	0.242223	0.500044
C67	C	0.763584	-0.212843	0.000027
C68	C	1.263584	0.287157	0.500027
C69	C	0.764658	-0.140021	0.000035
C70	C	1.264658	0.359979	0.500035
N71	N	0.777633	-0.365783	0.069686
N72	N	1.277633	0.134217	0.569686
N73	N	0.776618	-0.434962	0.069681
N74	N	1.276618	0.065038	0.569681
C75	C	0.823445	-0.477185	0.000019
C76	C	1.323445	0.022815	0.500019
N77	N	0.871337	-0.447618	-0.069623
N78	N	1.371337	0.052382	0.430377
N79	N	0.872355	-0.378433	-0.069613
N80	N	1.372355	0.121567	0.430387
C81	C	0.825512	-0.336739	0.000035
C82	C	1.325512	0.163261	0.500035
C83	C	0.885378	-0.601073	0.000006
C84	C	1.385378	-0.101073	0.500006
C85	C	0.884304	-0.673898	-0.000021
C86	C	1.384304	-0.173898	0.499979
C87	C	0.757037	-0.656860	-0.000031
C88	C	1.257037	-0.156860	0.499969
C89	C	0.758113	-0.584037	-0.000016
C90	C	1.258113	-0.084037	0.499984
C91	C	0.822286	-0.556148	0.000008
C92	C	1.322286	-0.056148	0.500008
C93	C	0.952150	0.087553	0.000026
C94	C	1.452150	0.587553	0.500026
C95	C	1.029655	0.088694	0.000022
C96	C	1.529655	0.588694	0.500022
C97	C	0.818997	0.220705	-0.000010
C98	C	1.318997	0.720705	0.499990
C99	C	0.820137	0.298210	-0.000029
C100	C	1.320137	0.798210	0.499971
N101	N	0.824475	0.093032	0.318849
N102	N	1.324475	0.593032	0.818849
N103	N	0.824498	0.093040	-0.318807
N104	N	1.324498	0.593040	0.181193
C105	C	0.824486	0.093040	0.569855
C106	C	1.324486	0.593040	1.069855
C107	C	0.824478	0.093038	0.430177
C108	C	1.324478	0.593038	0.930177
H109	H	0.036418	0.088775	0.202425
H110	H	0.536418	0.588775	0.702425
N111	N	0.620096	0.097379	0.225513
N112	N	1.120096	0.597379	0.725513
N113	N	0.685116	0.098334	0.225499
N114	N	1.185116	0.598334	0.725499
H115	H	0.711391	0.098711	0.305971
H116	H	1.211391	0.598711	0.805971
H117	H	0.704792	-0.679573	-0.000041
H118	H	1.204792	-0.179573	0.499959
N119	N	0.472893	0.095212	0.225531
N120	N	0.972893	0.595212	0.725531
N121	N	0.505409	0.095687	0.325124
N122	N	1.005409	0.595687	0.825124
H123	H	0.479150	0.095290	0.405614
H124	H	0.979150	0.595290	0.905614
H125	H	0.944175	-0.134354	0.000085
H126	H	1.444175	0.365646	0.500085
N127	N	0.693660	-0.538154	-0.000022
N128	N	1.193660	-0.038154	0.499978
N129	N	0.636372	-0.563068	-0.000031
N130	N	1.136372	-0.063068	0.499969
H131	H	0.590848	-0.530664	-0.000039
H132	H	1.090848	-0.030664	0.499961
N133	N	0.176060	0.090858	0.225541
N134	N	0.676060	0.590858	0.725541
N135	N	0.143540	0.090379	0.325136
N136	N	0.643540	0.590379	0.825136
H137	H	0.169794	0.090780	0.405625
H138	H	0.669794	0.590780	0.905625
N139	N	0.472897	0.095246	-0.225506
N140	N	0.972897	0.595246	0.274494
N141	N	0.505418	0.095726	-0.325101
N142	N	1.005418	0.595726	0.174899
H143	H	0.479161	0.095344	-0.405590
H144	H	0.979161	0.595344	0.094410
H145	H	0.036425	0.088811	-0.202371
H146	H	0.536425	0.588811	0.297629
H147	H	0.612548	0.097290	-0.202385
H148	H	1.112548	0.597290	0.297615
N149	N	0.700209	-0.094128	0.000006
N150	N	1.200209	0.405872	0.500006
N151	N	0.657491	-0.096543	-0.086268
N152	N	1.157491	0.403457	0.413732
H153	H	0.611973	-0.064129	-0.086289
H154	H	1.111973	0.435871	0.413711
H155	H	0.937631	-0.578365	0.000020
H156	H	1.437631	-0.078365	0.500020
H157	H	0.168535	0.090758	-0.202373
H158	H	0.668535	0.590758	0.297627
N159	N	0.955304	-0.275769	0.000058
N160	N	1.455304	0.224231	0.500058
N161	N	1.012594	-0.250859	0.000077
N162	N	1.512594	0.249141	0.500077
H163	H	1.058116	-0.283266	0.000085
H164	H	1.558116	0.216734	0.500085
H165	H	0.711340	-0.235562	0.000020
H166	H	1.211340	0.264438	0.500020
H167	H	0.935682	-0.710475	-0.000020
H168	H	1.435682	-0.210475	0.499980
