data_functionalizedCrystal
_audit_creation_method	'MofGen! by Chris Wilmer'
_symmetry_space_group_name_H-M	'P1'
_symmetry_Int_Tables_number	1
_symmetry_cell_setting	triclinic
loop_
_symmetry_equiv_pos_as_xyz
  x,y,z
_cell_length_a	19.188905
_cell_length_b	23.532357
_cell_length_c	18.266242
_cell_angle_alpha	89.988103
_cell_angle_beta	89.983837
_cell_angle_gamma	82.981423
loop_
_atom_site_label
_atom_site_type_symbol
_atom_site_fract_x
_atom_site_fract_y
_atom_site_fract_z
O1	O	0.925918	0.071036	-0.061010
O2	O	0.722572	0.080622	-0.060987
O3	O	0.830395	-0.007092	-0.060984
O4	O	0.818095	0.158750	-0.061013
O5	O	0.830377	-0.007097	0.060778
O6	O	0.722553	0.080618	0.060775
O7	O	0.925900	0.071031	0.060752
Zn8	Zn	0.824224	0.075824	0.080096
Zn9	Zn	0.824248	0.075830	-0.080331
O10	O	0.818077	0.158746	0.060749
C11	C	0.696552	0.080312	-0.000102
C12	C	0.619050	0.079387	-0.000093
C13	C	0.830078	-0.028311	-0.000101
C14	C	0.829153	-0.091532	-0.000094
C15	C	0.582670	0.078945	-0.066467
C16	C	0.509849	0.078070	-0.066476
C17	C	0.473413	0.077625	-0.000107
C18	C	0.509802	0.078070	0.066276
C19	C	0.582620	0.078951	0.066284
N20	N	0.364501	0.043830	0.049291
N21	N	0.295327	0.042992	0.049280
C22	C	0.254016	0.074972	-0.000124
N23	N	0.284493	0.107815	-0.049527
N24	N	0.353674	0.108651	-0.049518
C25	C	0.394454	0.076670	-0.000107
C26	C	0.138675	0.073582	-0.066512
C27	C	0.065852	0.072710	-0.066519
C28	C	0.065808	0.072705	0.066236
C29	C	0.138628	0.073582	0.066240
C30	C	0.175058	0.074018	-0.000136
C31	C	0.823356	-0.483553	-0.066505
C32	C	0.822477	-0.542954	-0.066509
O33	O	0.822007	-0.573669	-0.122956
N34	N	0.822031	-0.572669	-0.000138
C35	C	0.822457	-0.542978	0.066242
O36	O	0.821996	-0.573707	0.122696
C37	C	0.823331	-0.483577	0.066246
C38	C	0.823784	-0.453867	-0.000130
C39	C	0.823808	-0.453842	-0.132876
C40	C	0.824689	-0.394445	-0.132871
C41	C	0.825117	-0.364759	-0.066496
C42	C	0.824665	-0.394470	-0.000126
C43	C	0.823753	-0.453887	0.132625
C44	C	0.824626	-0.394482	0.132623
C45	C	0.825079	-0.364772	0.066247
C46	C	0.825974	-0.305386	0.066253
N47	N	0.826420	-0.275672	-0.000118
C48	C	0.825991	-0.305358	-0.066493
C49	C	0.820620	-0.667723	0.066230
C50	C	0.819750	-0.727123	0.066228
C51	C	0.819769	-0.727095	-0.066524
C52	C	0.820643	-0.667695	-0.066521
C53	C	0.821066	-0.638009	-0.000141
C54	C	0.827841	-0.180620	-0.066479
C55	C	0.828725	-0.121218	-0.066469
C56	C	0.828703	-0.121251	0.066283
C57	C	0.827823	-0.180648	0.066273
C58	C	0.827390	-0.210331	-0.000114
O59	O	0.826442	-0.274633	0.122672
O60	O	0.826443	-0.274621	-0.122937
C61	C	0.951919	0.071342	-0.000134
C62	C	1.029422	0.072266	-0.000149
C63	C	0.818393	0.179965	-0.000136
C64	C	0.819318	0.243186	-0.000147
N65	N	0.824213	0.075819	0.189583
N66	N	0.824265	0.075830	-0.189818
C67	C	0.871972	0.036999	0.227893
C68	C	0.871977	0.036996	0.304538
C69	C	0.824228	0.075824	0.342870
C70	C	0.776460	0.114648	0.304551
C71	C	0.776452	0.114646	0.227907
N72	N	0.814980	0.126241	0.463194
N73	N	0.814992	0.126241	0.536002
C74	C	0.824248	0.075832	0.573792
N75	N	0.833505	0.025421	0.536024
N76	N	0.833497	0.025421	0.463209
C77	C	0.824231	0.075830	0.425977
C78	C	0.872015	0.037005	0.695209
C79	C	0.872014	0.037002	0.771856
C80	C	0.776501	0.114659	0.771867
C81	C	0.776498	0.114657	0.695222
C82	C	0.824258	0.075831	0.656898
H83	H	0.480222	0.077711	-0.120527
H84	H	0.910904	0.005386	0.803048
C85	C	0.827227	-0.212861	-0.138529
C86	C	0.766635	-0.240381	-0.142414
C87	C	0.766044	-0.270083	-0.208777
H88	H	0.867557	-0.240526	-0.141366
H89	H	0.827584	-0.186671	-0.178077
H90	H	0.766285	-0.266569	-0.102876
H91	H	0.726295	-0.212729	-0.139590
H92	H	0.766401	-0.243893	-0.248325
H93	H	0.806377	-0.297745	-0.211607
H94	H	0.724931	-0.288755	-0.211424
C95	C	0.829041	-0.089067	0.138394
C96	C	0.768743	-0.096966	0.178437
C97	C	0.769023	-0.067328	0.244872
H98	H	0.829587	-0.049424	0.128981
H99	H	0.869587	-0.103256	0.165719
H100	H	0.728207	-0.082775	0.151117
H101	H	0.768184	-0.136603	0.187869
H102	H	0.809569	-0.081517	0.272197
H103	H	0.769571	-0.027686	0.235451
H104	H	0.728115	-0.072688	0.272051
C105	C	0.819190	-0.759247	-0.138646
C106	C	0.759340	-0.738217	-0.178691
C107	C	0.758789	-0.767818	-0.245132
H108	H	0.818566	-0.798883	-0.129241
H109	H	0.860038	-0.753946	-0.165965
H110	H	0.718503	-0.743523	-0.151378
H111	H	0.759951	-0.698585	-0.188115
H112	H	0.799637	-0.762517	-0.272451
H113	H	0.758167	-0.807452	-0.235720
H114	H	0.718185	-0.753550	-0.272314
H115	H	0.910860	0.005383	0.196691
C116	C	0.724762	0.156843	0.653532
C117	C	0.761701	0.191618	0.609493
C118	C	0.714063	0.230482	0.571072
H119	H	0.696306	0.180023	0.687253
H120	H	0.695852	0.136433	0.623607
H121	H	0.790599	0.212026	0.639415
H122	H	0.790154	0.168453	0.575758
H123	H	0.685153	0.210073	0.541148
H124	H	0.685610	0.253659	0.604799
H125	H	0.739119	0.254078	0.541182
C126	C	0.724650	0.156895	0.346069
C127	C	0.735549	0.212838	0.327387
C128	C	0.687824	0.251770	0.365610
H129	H	0.731443	0.151419	0.397214
H130	H	0.678083	0.150839	0.333514
H131	H	0.782105	0.218893	0.339947
H132	H	0.728750	0.218333	0.276249
H133	H	0.641258	0.245714	0.353055
H134	H	0.694622	0.246288	0.416753
H135	H	0.695209	0.289732	0.352935
H136	H	0.612326	0.079300	-0.120515
H137	H	0.825055	-0.370259	-0.186921
C138	C	0.178012	0.074024	0.138382
C139	C	0.130523	0.073432	0.196505
C140	C	0.166778	0.073833	0.262976
H141	H	0.200852	0.107562	0.141243
H142	H	0.211974	0.041149	0.141188
H143	H	0.096573	0.106304	0.193700
H144	H	0.107680	0.039896	0.193668
H145	H	0.200740	0.040959	0.265782
H146	H	0.189617	0.107372	0.265830
H147	H	0.134563	0.073427	0.302421
C148	C	0.825196	-0.362196	0.204643
C149	C	0.885767	-0.334650	0.208522
C150	C	0.886311	-0.304898	0.274852
H151	H	0.824836	-0.388342	0.244228
H152	H	0.784837	-0.334543	0.207416
H153	H	0.926115	-0.362299	0.205757
H154	H	0.886139	-0.308494	0.168953
H155	H	0.845953	-0.277246	0.277624
H156	H	0.885950	-0.331049	0.314431
H157	H	0.927405	-0.286201	0.277490
H158	H	0.036142	0.072346	0.120275
C159	C	0.820945	-0.635450	0.138283
C160	C	0.761361	-0.594794	0.142187
C161	C	0.761632	-0.565061	0.208553
H162	H	0.861962	-0.616677	0.141112
H163	H	0.820518	-0.661635	0.177828
H164	H	0.761795	-0.568612	0.102652
H165	H	0.720336	-0.613551	0.139370
H166	H	0.761204	-0.591247	0.248098
H167	H	0.802650	-0.546292	0.211376
H168	H	0.721202	-0.537476	0.211213
C169	C	0.470127	0.077555	0.138259
C170	C	0.398571	0.076671	0.124047
C171	C	0.362002	0.076190	0.190342
H172	H	0.476396	0.110892	0.165582
H173	H	0.487585	0.044480	0.165544
H174	H	0.381118	0.109742	0.096775
H175	H	0.392280	0.043335	0.096735
H176	H	0.379460	0.043116	0.217627
H177	H	0.368277	0.109529	0.217660
H178	H	0.313449	0.075586	0.180709
C179	C	0.827237	-0.212976	0.138279
C180	C	0.766664	-0.240523	0.142160
C181	C	0.766103	-0.270312	0.208476
H182	H	0.827588	-0.186852	0.177876
H183	H	0.867594	-0.240631	0.141030
H184	H	0.726317	-0.212871	0.139417
H185	H	0.766301	-0.266656	0.102579
H186	H	0.806460	-0.297968	0.211226
H187	H	0.766455	-0.244185	0.248067
H188	H	0.725008	-0.289011	0.211115
C189	C	0.819233	-0.759271	0.138371
C190	C	0.819780	-0.720550	0.196494
C191	C	0.819289	-0.750140	0.262965
H192	H	0.859599	-0.786897	0.141232
H193	H	0.778151	-0.777977	0.141176
H194	H	0.860857	-0.701854	0.193690
H195	H	0.779416	-0.692924	0.193657
H196	H	0.778208	-0.768846	0.265770
H197	H	0.859657	-0.777765	0.265819
H198	H	0.819654	-0.723872	0.302410
H199	H	0.910870	0.005382	0.335735
C200	C	0.829177	-0.089060	-0.138614
C201	C	0.828592	-0.127774	-0.196741
C202	C	0.828997	-0.098172	-0.263209
H203	H	0.870231	-0.070336	-0.141484
H204	H	0.788782	-0.061446	-0.141409
H205	H	0.868983	-0.155378	-0.193948
H206	H	0.787541	-0.146500	-0.193896
H207	H	0.788603	-0.070559	-0.266004
H208	H	0.870052	-0.079450	-0.266071
H209	H	0.828594	-0.124435	-0.302656
C210	C	0.622003	0.079396	0.138428
C211	C	0.574515	0.078807	0.196552
C212	C	0.610772	0.079207	0.263022
H213	H	0.644847	0.112933	0.141288
H214	H	0.655963	0.046520	0.141234
H215	H	0.540568	0.111680	0.193748
H216	H	0.551670	0.045272	0.193716
H217	H	0.644731	0.046331	0.265828
H218	H	0.633614	0.112744	0.265875
H219	H	0.578557	0.078802	0.302467
H220	H	0.737559	0.146259	0.196714
H221	H	0.737620	0.146271	0.803076
C222	C	0.823384	-0.485968	-0.205024
C223	C	0.823985	-0.447225	-0.263138
C224	C	0.823610	-0.476795	-0.329616
H225	H	0.782335	-0.504695	-0.207896
H226	H	0.863784	-0.513576	-0.207831
H227	H	0.783589	-0.419627	-0.260332
H228	H	0.865031	-0.428496	-0.260290
H229	H	0.864009	-0.504404	-0.332423
H230	H	0.782560	-0.495521	-0.332480
H231	H	0.824024	-0.450514	-0.369054
C232	C	0.178100	0.074095	-0.138651
C233	C	0.130645	0.073545	-0.196783
C234	C	0.166934	0.074028	-0.263247
H235	H	0.212079	0.041245	-0.141512
H236	H	0.200920	0.107657	-0.141446
H237	H	0.107837	0.039987	-0.193989
H238	H	0.096666	0.106393	-0.193946
H239	H	0.189754	0.107590	-0.266042
H240	H	0.200912	0.041176	-0.266101
H241	H	0.134741	0.073660	-0.302698
C242	C	0.821003	-0.635360	-0.138537
C243	C	0.761427	-0.594693	-0.142395
C244	C	0.761730	-0.564896	-0.208727
H245	H	0.820583	-0.661488	-0.178120
H246	H	0.862039	-0.616595	-0.141327
H247	H	0.720402	-0.613457	-0.139613
H248	H	0.761834	-0.568552	-0.102828
H249	H	0.802766	-0.546130	-0.211516
H250	H	0.761313	-0.591029	-0.248304
H251	H	0.721313	-0.537296	-0.211350
C252	C	0.026295	0.072349	-0.138566
C253	C	-0.023710	0.120840	-0.142471
C254	C	-0.060156	0.120531	-0.208835
H255	H	0.003393	0.038841	-0.141391
H256	H	0.058397	0.072765	-0.178113
H257	H	-0.055807	0.120420	-0.102935
H258	H	-0.000826	0.154356	-0.139659
H259	H	-0.028054	0.120947	-0.248383
H260	H	-0.083054	0.087021	-0.211654
H261	H	-0.094084	0.153434	-0.211497
C262	C	0.923892	-0.005216	0.653726
C263	C	0.965704	-0.039230	0.703686
C264	C	1.013494	-0.078135	0.665501
H265	H	0.952874	0.015143	0.623808
H266	H	0.898962	-0.028902	0.623859
H267	H	0.990632	-0.015546	0.733540
H268	H	0.936742	-0.059601	0.733605
H269	H	0.988564	-0.101822	0.635634
H270	H	1.042470	-0.057771	0.635584
H271	H	1.041864	-0.101222	0.699392
H272	H	0.823385	-0.478068	0.186675
