data_functionalizedCrystal
_audit_creation_method	'MofGen! by Chris Wilmer'
_symmetry_space_group_name_H-M	'P1'
_symmetry_Int_Tables_number	1
_symmetry_cell_setting	triclinic
loop_
_symmetry_equiv_pos_as_xyz
  x,y,z
_cell_length_a	12.811434
_cell_length_b	14.421503
_cell_length_c	12.811415
_cell_angle_alpha	95.426546
_cell_angle_beta	95.439200
_cell_angle_gamma	95.424800
loop_
_atom_site_label
_atom_site_type_symbol
_atom_site_fract_x
_atom_site_fract_y
_atom_site_fract_z
O1	O	-1.393274	-0.028178	0.141401
O2	O	-1.087763	-0.001190	0.156764
O3	O	-1.248203	-0.028180	-0.003674
O4	O	-1.232834	-0.001188	0.301839
O5	O	-1.248176	-0.182399	-0.003650
O6	O	-1.087736	-0.155409	0.156788
O7	O	-1.393248	-0.182397	0.141425
Cu8	Cu	-1.240489	-0.182984	0.149109
Cu9	Cu	-1.240521	-0.000602	0.149080
O10	O	-1.232807	-0.155407	0.301863
C11	C	-1.048642	-0.075083	0.155913
C12	C	-0.932115	-0.065499	0.153330
C13	C	-0.767887	0.032063	0.149677
C14	C	-0.877375	0.023066	0.152103
C15	C	-0.877361	-0.145074	0.152129
C16	C	-0.767873	-0.136077	0.149702
C17	C	-0.713140	-0.047505	0.148478
C18	C	-0.603650	-0.038508	0.146059
C19	C	-0.603639	-0.206648	0.146078
C20	C	-0.713126	-0.215645	0.148504
N21	N	-1.240475	-0.311263	0.149128
C22	C	-1.166274	-0.548438	0.223281
C23	C	-1.261205	-0.616477	0.244070
C24	C	-1.240500	-0.500429	0.149103
C25	C	-1.145594	-0.616484	0.128338
C26	C	-1.240517	-0.683153	0.149081
C27	C	-1.335479	-0.567106	0.169939
C28	C	-1.219806	-0.567107	0.054166
C29	C	-1.314805	-0.635126	0.074915
C30	C	-1.240490	-0.395165	0.149118
C31	C	-1.240538	-0.788415	0.149065
C32	C	-0.432368	-0.108503	0.142275
C33	C	-0.548895	-0.118083	0.144857
C34	C	-1.247328	-0.108505	-0.042769
C35	C	-1.244747	-0.118084	-0.159297
N36	N	-1.240544	0.127675	0.149053
C37	C	-1.239908	0.032067	-0.378280
C38	C	-1.237483	0.023071	-0.487768
C39	C	-1.237465	-0.145070	-0.487763
C40	C	-1.239890	-0.136074	-0.378275
C41	C	-1.241113	-0.047503	-0.323537
C42	C	-1.243545	-0.038508	-0.214048
C43	C	-1.243520	-0.206648	-0.214044
C44	C	-1.241095	-0.215644	-0.323532
C45	C	-1.233683	-0.075080	0.340958
C46	C	-1.236263	-0.065495	0.457486
H47	H	-0.757705	-0.287757	0.149497
Br48	Br	-1.245212	0.081692	-0.139762
Br49	Br	-1.235768	-0.265261	-0.562063
Br50	Br	-0.529368	0.081694	0.144405
H51	H	-0.921945	-0.217185	0.153113
H52	H	-1.278724	-0.638370	0.324346
H53	H	-0.723321	0.104182	0.148691
Br54	Br	-1.241588	0.152264	-0.303991
Br55	Br	-0.529332	-0.314639	0.144463
Br56	Br	-1.469298	-0.530804	0.199350
H57	H	-1.377652	-0.672617	0.012173
Br58	Br	-0.951674	0.131055	0.153722
Br59	Br	-1.235841	0.131063	-0.562059
Br60	Br	-1.190559	-0.530570	-0.079593
Br61	Br	-1.061759	-0.485675	0.327913
H62	H	-1.065327	-0.638380	0.110786
Br63	Br	-1.239422	-0.335840	-0.397826
Br64	Br	-1.245171	-0.314644	-0.139747
