data_functionalizedCrystal
_audit_creation_method	'MofGen! by Chris Wilmer'
_symmetry_space_group_name_H-M	'P1'
_symmetry_Int_Tables_number	1
_symmetry_cell_setting	triclinic
loop_
_symmetry_equiv_pos_as_xyz
  x,y,z
_cell_length_a	15.995350
_cell_length_b	15.995350
_cell_length_c	15.072220
_cell_angle_alpha	90.008851
_cell_angle_beta	90.001101
_cell_angle_gamma	96.507625
loop_
_atom_site_label
_atom_site_type_symbol
_atom_site_fract_x
_atom_site_fract_y
_atom_site_fract_z
O1	O	0.107921	-1.110996	-0.073703
O2	O	0.121249	-0.867221	-0.073721
O3	O	-0.007303	-0.995772	-0.073710
O4	O	0.236472	-0.982444	-0.073713
O5	O	-0.007296	-0.995740	0.073855
O6	O	0.121256	-0.867189	0.073844
O7	O	0.107928	-1.110964	0.073862
Zn8	Zn	0.114593	-0.989071	0.097283
Zn9	Zn	0.114584	-0.989113	-0.097141
O10	O	0.236480	-0.982413	0.073852
C11	C	-0.038494	-0.995205	0.000070
C12	C	-0.131444	-0.993553	0.000065
C13	C	0.120701	-0.836010	0.000060
C14	C	0.119049	-0.743060	0.000053
C15	C	0.108476	-1.142175	0.000080
C16	C	0.110127	-1.235125	0.000081
C17	C	-0.469192	-0.987621	0.000068
C18	C	-0.421758	-0.896069	-0.000270
C19	C	-0.325068	-0.897721	0.000063
C20	C	-0.301631	-0.990564	0.000066
C21	C	-0.342705	-1.035702	0.084335
C22	C	-0.439341	-1.033402	0.084405
C23	C	-0.439707	-1.035330	-0.083404
C24	C	-0.342761	-1.035308	-0.084518
C25	C	-0.206934	-0.992231	0.000068
C26	C	-0.563890	-0.985956	0.000072
C27	C	0.267671	-0.982980	0.000069
C28	C	0.360621	-0.984631	0.000069
N29	N	0.114599	-0.989049	0.229971
C30	C	0.113117	-0.405312	0.000071
C31	C	0.021565	-0.452746	0.000401
C32	C	0.023217	-0.549436	0.000063
C33	C	0.116060	-0.572873	0.000063
C34	C	0.161212	-0.531804	-0.084201
C35	C	0.158912	-0.435168	-0.084266
C36	C	0.160812	-0.434793	0.083543
C37	C	0.160790	-0.531738	0.084651
C38	C	0.117727	-0.667570	0.000055
C39	C	0.111452	-0.310614	0.000073
N40	N	0.114571	-0.989142	-0.229830
C41	C	0.114580	-0.989112	0.589173
C42	C	0.183135	-0.920095	0.551560
C43	C	0.183385	-0.920254	0.448735
C44	C	0.114590	-0.989080	0.410969
C45	C	0.133671	-1.076445	0.448266
C46	C	0.134159	-1.076058	0.551124
C47	C	0.026741	-0.971542	0.551272
C48	C	0.027327	-0.969537	0.448409
C49	C	0.114593	-0.989067	0.310255
C50	C	0.114579	-0.989130	0.689886
H51	H	-0.296649	-0.862238	-0.060344
O52	O	0.121607	-0.564314	0.159093
C53	C	0.179230	-0.603426	0.211174
H54	H	0.246096	-0.575650	0.194143
H55	H	0.171651	-0.673904	0.197071
C56	C	0.079959	-0.622579	0.331040
C57	C	0.162085	-0.588459	0.310127
H58	H	0.069382	-0.613351	0.392079
H59	H	0.041136	-0.596232	0.295951
H60	H	0.073654	-0.681309	0.319281
H61	H	0.168386	-0.529729	0.321875
H62	H	0.200910	-0.614796	0.345220
O63	O	0.123921	-0.565607	-0.159108
C64	C	0.165217	-0.528020	-0.234169
H65	H	0.231919	-0.501210	-0.215277
H66	H	0.129306	-0.475181	-0.259457
C67	C	0.086807	-0.627487	-0.330726
C68	C	0.168735	-0.594564	-0.307524
H69	H	0.088974	-0.668532	-0.375977
H70	H	0.058982	-0.652808	-0.280157
H71	H	0.056890	-0.583447	-0.351794
H72	H	0.198646	-0.638602	-0.286446
H73	H	0.196564	-0.569252	-0.358092
O74	O	-0.019293	-0.582634	-0.072223
C75	C	0.019340	-0.547682	-0.149925
H76	H	0.087734	-0.523525	-0.135192
H77	H	-0.015311	-0.493332	-0.173607
C78	C	-0.068042	-0.645223	-0.240808
C79	C	0.015963	-0.615559	-0.222715
H80	H	-0.070128	-0.687091	-0.285710
H81	H	-0.094073	-0.668769	-0.188459
H82	H	-0.096909	-0.599924	-0.260538
H83	H	0.044825	-0.660856	-0.202974
H84	H	0.041998	-0.592022	-0.275062
H85	H	0.229421	-0.545929	-0.087335
H86	H	-0.015027	-0.434211	0.060830
O87	O	0.241558	-0.550105	0.090570
C88	C	0.259461	-0.600833	0.018037
H89	H	0.214609	-0.591162	-0.038873
H90	H	0.251182	-0.669772	0.038933
C91	C	0.405876	-0.588060	0.057356
C92	C	0.350793	-0.576177	-0.012546
H93	H	0.462215	-0.572855	0.038492
H94	H	0.393814	-0.553887	0.106224
H95	H	0.398967	-0.645510	0.074762
H96	H	0.357695	-0.518726	-0.029944
H97	H	0.362858	-0.610340	-0.061418
O98	O	0.124901	-0.410372	0.159661
C99	C	0.056108	-0.366162	0.138617
H100	H	0.032123	-0.384826	0.069370
H101	H	0.076966	-0.295626	0.140456
C102	C	0.014647	-0.365018	0.291737
C103	C	-0.014817	-0.387946	0.206689
H104	H	-0.029102	-0.378451	0.333729
H105	H	0.060996	-0.394800	0.305916
H106	H	0.032028	-0.306238	0.293257
H107	H	-0.032188	-0.446726	0.205168
H108	H	-0.061171	-0.358174	0.192512
O109	O	-0.308790	-0.998150	0.159060
C110	C	-0.247910	-0.931119	0.135454
H111	H	-0.261274	-0.908827	0.065574
H112	H	-0.182694	-0.953353	0.137508
C113	C	-0.235035	-0.885353	0.287121
C114	C	-0.251454	-0.857969	0.201295
H115	H	-0.237218	-0.840232	0.327736
H116	H	-0.276049	-0.930515	0.303026
H117	H	-0.180689	-0.903881	0.288820
H118	H	-0.305803	-0.839452	0.199595
H119	H	-0.210450	-0.812802	0.185392
O120	O	0.241309	-0.396822	0.084103
C121	C	0.254533	-0.343893	0.009430
H122	H	0.191587	-0.325628	-0.014836
H123	H	0.285311	-0.378500	-0.045653
C124	C	0.389745	-0.286435	0.064854
C125	C	0.312434	-0.263996	0.035055
H126	H	0.425463	-0.237152	0.080658
H127	H	0.380838	-0.322096	0.115161
H128	H	0.415382	-0.315275	0.018946
H129	H	0.286793	-0.235166	0.080966
H130	H	0.321338	-0.228328	-0.015244
O131	O	-0.291761	-0.854965	0.072152
C132	C	-0.233934	-0.787013	0.044106
H133	H	-0.249226	-0.769207	-0.026819
H134	H	-0.167437	-0.806092	0.046794
C135	C	-0.221155	-0.732935	0.192757
C136	C	-0.239941	-0.711061	0.105649
H137	H	-0.224857	-0.686085	0.230722
H138	H	-0.260112	-0.778717	0.211654
H139	H	-0.165742	-0.748835	0.194985
H140	H	-0.295357	-0.695172	0.103421
H141	H	-0.200994	-0.665274	0.086753
O142	O	0.210584	-1.094412	0.579853
C143	C	0.248954	-1.026974	0.631160
H144	H	0.198560	-0.989052	0.658604
H145	H	0.294393	-0.984672	0.587910
C146	C	0.359456	-1.108256	0.674847
C147	C	0.297561	-1.061683	0.708561
H148	H	0.389443	-1.129664	0.722590
H149	H	0.333608	-1.153690	0.640279
H150	H	0.397313	-1.072997	0.638806
H151	H	0.259699	-1.096944	0.744592
H152	H	0.323404	-1.016256	0.743138
H153	H	0.171953	-0.854945	0.576317
O154	O	-0.022035	-0.429454	-0.071220
C155	C	-0.103980	-0.472503	-0.070052
H156	H	-0.121205	-0.493011	0.000675
H157	H	-0.106455	-0.530282	-0.114682
C158	C	-0.145725	-0.388584	-0.190900
C159	C	-0.166884	-0.413767	-0.104029
H160	H	-0.184527	-0.352356	-0.211862
H161	H	-0.090516	-0.359583	-0.191689
H162	H	-0.147787	-0.436739	-0.228081
H163	H	-0.164811	-0.365613	-0.066849
H164	H	-0.222094	-0.442759	-0.103235
H165	H	0.086195	-1.129019	0.576003
H166	H	-0.012275	-0.577852	0.060467
H167	H	0.125979	-0.416873	-0.147255
H168	H	0.226128	-0.402920	-0.088090
H169	H	0.085068	-1.129029	0.423801
H170	H	-0.457639	-1.000460	0.147395
H171	H	-0.440293	-0.859490	-0.060701
O172	O	0.209261	-1.095213	0.417486
C173	C	0.245046	-1.029586	0.362204
H174	H	0.217329	-0.969041	0.379492
H175	H	0.230652	-1.046574	0.289915
C176	C	0.375065	-1.091097	0.354880
C177	C	0.341028	-1.016733	0.376119
H178	H	0.434272	-1.083170	0.363459
H179	H	0.350955	-1.135313	0.392122
H180	H	0.363062	-1.105246	0.294640
H181	H	0.353022	-1.002591	0.436360
H182	H	0.365142	-0.972514	0.338888
O183	O	0.260463	-0.933172	0.582480
C184	C	0.294943	-0.862151	0.631033
H185	H	0.242064	-0.825960	0.655691
H186	H	0.338988	-0.819687	0.586510
C187	C	0.409487	-0.935269	0.680615
C188	C	0.344540	-0.890824	0.710908
H189	H	0.440084	-0.952955	0.729884
H190	H	0.386260	-0.983117	0.647902
H191	H	0.446182	-0.899876	0.643512
H192	H	0.307841	-0.926220	0.748001
H193	H	0.367763	-0.842982	0.743629
H194	H	0.172016	-0.855314	0.423519
H195	H	-0.471588	-1.100617	0.088231
H196	H	0.008392	-0.909219	0.577258
O197	O	0.261175	-0.933490	0.419322
C198	C	0.294800	-0.864414	0.367407
H199	H	0.263060	-0.806576	0.386119
H200	H	0.283170	-0.879436	0.294197
C201	C	0.429100	-0.917833	0.361336
C202	C	0.390121	-0.846794	0.384323
H203	H	0.487899	-0.906966	0.371766
H204	H	0.406446	-0.964373	0.396308
H205	H	0.419400	-0.930345	0.300328
H206	H	0.399813	-0.834290	0.445331
H207	H	0.412779	-0.800251	0.349360
H208	H	0.012846	-0.905271	0.424032
O209	O	-0.036286	-1.025704	0.417702
C210	C	-0.003131	-1.084151	0.361384
H211	H	0.066074	-1.086804	0.377870
H212	H	-0.009268	-1.063880	0.289385
C213	C	-0.137110	-1.168536	0.354605
C214	C	-0.052112	-1.171800	0.374859
H215	H	-0.167325	-1.222601	0.362913
H216	H	-0.159448	-1.129158	0.392544
H217	H	-0.142212	-1.151640	0.294607
H218	H	-0.047010	-1.188685	0.434858
H219	H	-0.029773	-1.211183	0.336929
O220	O	-0.477731	-1.115805	-0.084131
C221	C	-0.565753	-1.115175	-0.087322
H222	H	-0.581089	-1.052906	-0.116381
H223	H	-0.592706	-1.122863	-0.017400
C224	C	-0.585942	-1.264698	-0.110319
C225	C	-0.604778	-1.188220	-0.146016
H226	H	-0.610016	-1.309757	-0.146520
H227	H	-0.526640	-1.265124	-0.108166
H228	H	-0.608404	-1.271093	-0.052051
H229	H	-0.582307	-1.181822	-0.204277
H230	H	-0.664077	-1.187795	-0.148180
H231	H	-0.024275	-1.021872	0.575595
H232	H	-0.328579	-1.103910	0.087471
H233	H	-0.441349	-0.859626	0.059819
H234	H	-0.460250	-1.005411	-0.147274
H235	H	-0.315516	-1.002306	-0.146857
O236	O	-0.324270	-1.116028	-0.090543
C237	C	-0.236316	-1.116495	-0.095794
H238	H	-0.203755	-1.055848	-0.065979
H239	H	-0.216923	-1.121311	-0.168235
C240	C	-0.250414	-1.266908	-0.080569
C241	C	-0.210422	-1.192424	-0.043942
H242	H	-0.234441	-1.313747	-0.048588
H243	H	-0.309671	-1.266595	-0.077034
H244	H	-0.234250	-1.270911	-0.140935
H245	H	-0.226595	-1.188418	0.016419
H246	H	-0.151168	-1.192738	-0.047465
