data_functionalizedCrystal
_audit_creation_method	'MofGen! by Chris Wilmer'
_symmetry_space_group_name_H-M	'P1'
_symmetry_Int_Tables_number	1
_symmetry_cell_setting	triclinic
loop_
_symmetry_equiv_pos_as_xyz
  x,y,z
_cell_length_a	9.065218
_cell_length_b	14.971486
_cell_length_c	14.048226
_cell_angle_alpha	90.001501
_cell_angle_beta	89.995444
_cell_angle_gamma	95.684993
loop_
_atom_site_label
_atom_site_type_symbol
_atom_site_fract_x
_atom_site_fract_y
_atom_site_fract_z
O1	O	0.192261	-1.188380	-0.079047
O2	O	0.215285	-0.928151	-0.079073
O3	O	-0.010979	-1.063645	-0.079057
O4	O	0.418524	-1.052887	-0.079062
O5	O	-0.010992	-1.063628	0.079264
O6	O	0.215271	-0.928135	0.079249
O7	O	0.192248	-1.188363	0.079274
Zn8	Zn	0.203758	-1.058246	0.104398
Zn9	Zn	0.203775	-1.058268	-0.104197
O10	O	0.418511	-1.052870	0.079259
C11	C	0.214248	-0.894811	0.000085
C12	C	0.211163	-0.795491	0.000075
C13	C	-0.065951	-1.062602	0.000102
C14	C	-0.229731	-1.059511	0.000097
N15	N	0.203745	-1.058238	0.246759
C16	C	0.473483	-1.053912	0.000098
C17	C	0.637264	-1.057004	0.000097
C18	C	0.193284	-1.221704	0.000115
C19	C	0.196370	-1.321024	0.000118
C20	C	0.344086	-0.739256	0.000075
C21	C	0.341178	-0.645935	0.000089
C22	C	0.205345	-0.608850	0.000097
C23	C	0.072412	-0.665092	0.000100
C24	C	0.075321	-0.758411	0.000092
C25	C	0.066357	-0.470584	0.000113
C26	C	0.063446	-0.377259	0.000118
C27	C	0.332214	-0.358108	0.000110
C28	C	0.335123	-0.451427	0.000102
C29	C	0.202189	-0.507663	0.000103
N30	N	0.203776	-1.058284	-0.246557
C31	C	0.103597	-1.118254	0.296584
C32	C	0.103596	-1.118260	0.396242
C33	C	0.203751	-1.058254	0.446073
C34	C	0.303904	-0.998231	0.396241
C35	C	0.303896	-0.998222	0.296585
C36	C	0.303915	-0.998257	0.603955
C37	C	0.303924	-0.998268	0.703618
C38	C	0.103614	-1.118295	0.703612
C39	C	0.103607	-1.118286	0.603956
C40	C	0.203762	-1.058264	0.554131
H41	H	0.454697	-0.769442	0.000068
C42	C	0.478443	-0.296247	0.000113
N43	N	0.588579	-0.249650	0.000113
H44	H	0.022045	-1.167121	0.256018
C45	C	-0.006569	-1.184296	0.549144
N46	N	-0.089560	-1.234013	0.507859
H47	H	0.449418	-0.600152	0.000088
C48	C	0.484546	-0.492218	0.000098
N49	N	0.597094	-0.522941	0.000100
C50	C	-0.006563	-1.184316	0.758421
N51	N	-0.089543	-1.234043	0.799707
H52	H	-0.047161	-0.347068	0.000126
H53	H	-0.041893	-0.516370	0.000115
C54	C	-0.070905	-0.820270	0.000090
N55	N	-0.181048	-0.866861	0.000090
C56	C	0.414076	-0.932221	0.549150
N57	N	0.497047	-0.882483	0.507871
C58	C	0.414079	-0.932207	0.241778
N59	N	0.497073	-0.882483	0.200499
C60	C	-0.077007	-0.624296	0.000110
N61	N	-0.189552	-0.593569	0.000114
H62	H	0.022047	-1.167128	0.436808
C63	C	0.414092	-0.932253	0.758430
N64	N	0.497069	-0.882528	0.799715
H65	H	0.385447	-0.949369	0.436819
