data_functionalizedCrystal
_audit_creation_method	'MofGen! by Chris Wilmer'
_symmetry_space_group_name_H-M	'P1'
_symmetry_Int_Tables_number	1
_symmetry_cell_setting	triclinic
loop_
_symmetry_equiv_pos_as_xyz
  x,y,z
_cell_length_a	23.532407
_cell_length_b	16.109301
_cell_length_c	14.586319
_cell_angle_alpha	90.005214
_cell_angle_beta	89.998161
_cell_angle_gamma	83.155079
loop_
_atom_site_label
_atom_site_type_symbol
_atom_site_fract_x
_atom_site_fract_y
_atom_site_fract_z
O1	O	-0.755631	-0.100925	-0.076129
O2	O	-0.255631	0.399075	0.423871
O3	O	-0.589822	-0.115528	-0.076156
O4	O	-0.089822	0.384472	0.423844
O5	O	-0.677281	0.012841	-0.076132
O6	O	-0.177281	0.512841	0.423868
O7	O	-0.668171	-0.229293	-0.076153
O8	O	-0.168171	0.270707	0.423847
O9	O	-0.677275	0.012843	0.076348
O10	O	-0.177275	0.512843	0.576348
O11	O	-0.589816	-0.115526	0.076325
O12	O	-0.089816	0.384474	0.576325
O13	O	-0.755625	-0.100923	0.076352
O14	O	-0.255625	0.399077	0.576352
Cu15	Cu	-0.672720	-0.108224	0.090261
Cu16	Cu	-0.172720	0.391776	0.590261
Cu17	Cu	-0.672727	-0.108226	-0.090065
Cu18	Cu	-0.172727	0.391774	0.409935
O19	O	-0.668165	-0.229291	0.076328
O20	O	-0.168165	0.270709	0.576328
C21	C	-0.568601	-0.115155	0.000081
C22	C	-0.068601	0.384845	0.500081
C23	C	-0.505380	-0.114037	0.000071
C24	C	-0.005380	0.385963	0.500071
C25	C	-0.676909	0.043814	0.000108
C26	C	-0.176909	0.543814	0.500108
C27	C	-0.675803	0.136100	0.000110
C28	C	-0.175803	0.636100	0.500110
C29	C	-0.776846	-0.101295	0.000113
C30	C	-0.276846	0.398705	0.500113
C31	C	-0.840067	-0.102414	0.000117
C32	C	-0.340067	0.397586	0.500117
C33	C	-0.106531	-0.182990	0.000107
C34	C	0.393469	0.317010	0.500107
C35	C	-0.047127	-0.181951	0.000112
C36	C	0.452873	0.318049	0.500112
O37	O	-0.010619	-0.245872	0.000140
O38	O	0.489381	0.254128	0.500140
N39	N	-0.024220	-0.105636	0.000117
N40	N	0.475780	0.394364	0.500117
C41	C	-0.060719	-0.030355	0.000126
C42	C	0.439281	0.469645	0.500126
O43	O	-0.035780	0.034652	0.000131
O44	O	0.464220	0.534652	0.500131
C45	C	-0.120122	-0.031395	0.000126
C46	C	0.379878	0.468605	0.500126
C47	C	-0.143027	-0.107715	0.000112
C48	C	0.356973	0.392285	0.500112
C49	C	-0.129436	-0.259304	0.000093
C50	C	0.370564	0.240696	0.500093
C51	C	-0.188836	-0.260342	0.000086
C52	C	0.311164	0.239658	0.500086
C53	C	-0.225331	-0.185066	0.000092
C54	C	0.274669	0.314934	0.500092
C55	C	-0.202427	-0.108753	0.000105
C56	C	0.297573	0.391247	0.500105
C57	C	-0.156621	0.043886	0.000141
C58	C	0.343379	0.543886	0.500141
C59	C	-0.216027	0.042840	0.000143
C60	C	0.283973	0.542840	0.500143
C61	C	-0.238932	-0.033480	0.000129
C62	C	0.261068	0.466520	0.500129
C63	C	-0.298322	-0.034516	0.000103
C64	C	0.201678	0.465484	0.500103
N65	N	-0.321229	-0.110831	0.000098
N66	N	0.178771	0.389169	0.500098
C67	C	-0.284734	-0.186106	0.000093
C68	C	0.215266	0.313894	0.500093
C69	C	0.064031	-0.028178	0.000125
C70	C	0.564031	0.471822	0.500125
C71	C	0.123433	-0.027138	0.000118
C72	C	0.623433	0.472862	0.500118
C73	C	0.137021	-0.178734	0.000106
C74	C	0.637021	0.321266	0.500106
C75	C	0.077618	-0.179774	0.000107
C76	C	0.577618	0.320226	0.500107
C77	C	0.041123	-0.104493	0.000120
C78	C	0.541123	0.395507	0.500120
C79	C	-0.409479	-0.188281	0.000076
C80	C	0.090521	0.311719	0.500076
C81	C	-0.468885	-0.189312	0.000065
C82	C	0.031115	0.310688	0.500065
C83	C	-0.482468	-0.037716	0.000081
C84	C	0.017532	0.462284	0.500081
C85	C	-0.423067	-0.036684	0.000088
C86	C	0.076933	0.463316	0.500088
C87	C	-0.386574	-0.111973	0.000088
C88	C	0.113426	0.388027	0.500088
O89	O	-0.334865	0.029371	0.000079
O90	O	0.165135	0.529371	0.500079
O91	O	-0.309682	-0.251102	0.000099
O92	O	0.190318	0.248898	0.500099
C93	C	-0.668537	-0.260264	0.000085
C94	C	-0.168537	0.239736	0.500085
C95	C	-0.669644	-0.352551	0.000078
C96	C	-0.169644	0.147449	0.500078
N97	N	-0.672719	-0.108222	0.217093
N98	N	-0.172719	0.391778	0.717093
C99	C	-0.725127	0.358760	0.000103
C100	C	-0.225127	0.858760	0.500103
C101	C	-0.724083	0.445473	0.000095
C102	C	-0.224083	0.945473	0.500095
C103	C	-0.620315	0.424782	0.000082
C104	C	-0.120315	0.924782	0.500082
C105	C	-0.621360	0.338072	0.000083
C106	C	-0.121360	0.838072	0.500083
C107	C	-0.673768	0.305063	0.000098
C108	C	-0.173768	0.805063	0.500098
C109	C	-0.671679	0.478486	0.000089
C110	C	-0.171679	0.978486	0.500089
C111	C	-0.670547	0.572503	0.000081
C112	C	-0.170547	1.072503	0.500081
C113	C	-0.674900	0.211040	0.000105
C114	C	-0.174900	0.711040	0.500105
N115	N	-0.672732	-0.108222	-0.216897
N116	N	-0.172732	0.391778	0.283103
C117	C	-0.711459	-0.051399	0.452110
C118	C	-0.211459	0.448601	0.952110
C119	C	-0.711460	-0.051397	0.548091
C120	C	-0.211460	0.448603	1.048091
C121	C	-0.633988	-0.165047	0.548079
C122	C	-0.133988	0.334953	1.048079
C123	C	-0.633984	-0.165045	0.452100
C124	C	-0.133984	0.334955	0.952100
C125	C	-0.672723	-0.108222	0.404117
C126	C	-0.172723	0.391778	0.904117
C127	C	-0.672728	-0.108222	0.596078
C128	C	-0.172728	0.391778	1.096078
C129	C	-0.672730	-0.108220	0.700145
C130	C	-0.172730	0.391780	1.200145
C131	C	-0.672721	-0.108222	0.300044
C132	C	-0.172721	0.391778	0.800044
H133	H	-0.487530	-0.251464	0.000053
H134	H	0.012470	0.248536	0.500053
C135	C	-0.591374	-0.227554	0.399305
C136	C	-0.091374	0.272446	0.899305
H137	H	-0.568309	-0.261404	0.441626
H138	H	-0.068309	0.238596	0.941626
H139	H	-0.567674	-0.197821	0.361868
H140	H	-0.067674	0.302179	0.861868
H141	H	-0.611856	-0.262011	0.361858
H142	H	-0.111856	0.237989	0.861858
H143	H	-0.767801	0.331888	0.000114
H144	H	-0.267801	0.831888	0.500114
C145	C	-0.131439	0.127839	0.000169
C146	C	0.368561	0.627839	0.500169
H147	H	-0.161690	0.172513	0.000187
H148	H	0.338310	0.672513	0.500187
H149	H	-0.108545	0.131413	-0.052998
H150	H	0.391455	0.631413	0.447002
H151	H	-0.108555	0.131392	0.053356
H152	H	0.391445	0.631392	0.553356
C153	C	-0.780579	0.504536	0.000106
C154	C	-0.280579	1.004536	0.500106
H155	H	-0.811938	0.472455	0.000122
H156	H	-0.311938	0.972455	0.500122
H157	H	-0.782333	0.538787	-0.053067
H158	H	-0.282333	1.038787	0.446933
H159	H	-0.782325	0.538796	0.053286
H160	H	-0.282325	1.038796	0.553286
C161	C	-0.564862	0.279001	0.000080
C162	C	-0.064862	0.779001	0.500080
H163	H	-0.533500	0.311077	0.000085
H164	H	-0.033500	0.811077	0.500085
H165	H	-0.563114	0.244740	-0.053092
H166	H	-0.063114	0.744740	0.446908
H167	H	-0.563113	0.244752	0.053261
H168	H	-0.063113	0.744752	0.553261
C169	C	-0.754064	0.011110	0.399332
C170	C	-0.254064	0.511110	0.899332
H171	H	-0.777130	0.044957	0.441665
H172	H	-0.277130	0.544957	0.941665
H173	H	-0.777764	-0.018616	0.361883
H174	H	-0.277764	0.481384	0.861883
H175	H	-0.733579	0.045570	0.361899
H176	H	-0.233579	0.545570	0.861899
C177	C	-0.754072	0.011104	0.600879
C178	C	-0.254072	0.511104	1.100879
H179	H	-0.777144	0.044939	0.558553
H180	H	-0.277144	0.544939	1.058553
H181	H	-0.733598	0.045563	0.638326
H182	H	-0.233598	0.545563	1.138326
H183	H	-0.777774	-0.018635	0.638314
H184	H	-0.277774	0.481365	1.138314
H185	H	-0.245739	0.104144	0.000154
H186	H	0.254261	0.604144	0.500154
H187	H	-0.577647	0.451669	0.000071
H188	H	-0.077647	0.951669	0.500071
C189	C	-0.522617	0.045082	0.000083
C190	C	-0.022617	0.545082	0.500083
H191	H	-0.500472	0.090687	0.000083
H192	H	-0.000472	0.590687	0.500083
H193	H	-0.546076	0.047824	0.053253
H194	H	-0.046076	0.547824	0.553253
H195	H	-0.546068	0.047823	-0.053100
H196	H	-0.046068	0.547823	0.446900
C197	C	-0.369345	-0.271096	0.000065
C198	C	0.130655	0.228904	0.500065
H199	H	-0.391501	-0.316689	0.000046
H200	H	0.108499	0.183311	0.500046
H201	H	-0.345888	-0.273856	0.053236
H202	H	0.154112	0.226144	0.553236
H203	H	-0.345890	-0.273841	-0.053117
H204	H	0.154110	0.226159	0.446883
C205	C	-0.214023	-0.344294	0.000088
C206	C	0.285977	0.155706	0.500088
H207	H	-0.183774	-0.388970	0.000097
H208	H	0.316226	0.111030	0.500097
H209	H	-0.236914	-0.347866	-0.053082
H210	H	0.263086	0.152134	0.446918
H211	H	-0.236912	-0.347848	0.053272
H212	H	0.263088	0.152152	0.553272
C213	C	-0.089300	-0.342114	0.000079
C214	C	0.410700	0.157886	0.500079
H215	H	-0.111457	-0.387705	0.000064
H216	H	0.388543	0.112295	0.500064
H217	H	-0.065841	-0.344874	0.053248
H218	H	0.434159	0.155126	0.553248
H219	H	-0.065847	-0.344861	-0.053106
H220	H	0.434153	0.155139	0.446894
C221	C	-0.397871	0.047265	0.000094
C222	C	0.102129	0.547265	0.500094
H223	H	-0.428116	0.091947	0.000098
H224	H	0.071884	0.591947	0.500098
H225	H	-0.374974	0.050822	-0.053073
H226	H	0.125026	0.550822	0.446927
H227	H	-0.374988	0.050822	0.053280
H228	H	0.125012	0.550822	0.553280
C229	C	-0.591366	-0.227530	0.600858
C230	C	-0.091366	0.272470	1.100858
H231	H	-0.568287	-0.261359	0.558527
H232	H	-0.068287	0.238641	1.058527
H233	H	-0.611829	-0.261998	0.638308
H234	H	-0.111829	0.238002	1.138308
H235	H	-0.567672	-0.197770	0.638290
H236	H	-0.067672	0.302230	1.138290
C237	C	0.052429	-0.263724	0.000100
C238	C	0.552429	0.236276	0.500100
H239	H	0.082676	-0.308402	0.000101
H240	H	0.582676	0.191598	0.500101
H241	H	0.029537	-0.267286	-0.053071
H242	H	0.529537	0.232714	0.446929
H243	H	0.029540	-0.267283	0.053282
H244	H	0.529540	0.232717	0.553282
H245	H	0.142076	0.035010	0.000115
H246	H	0.642076	0.535010	0.500115
C247	C	0.177171	-0.261539	0.000107
C248	C	0.677171	0.238461	0.500107
H249	H	0.155025	-0.307144	0.000096
H250	H	0.655025	0.192856	0.500096
H251	H	0.200624	-0.264278	0.053281
H252	H	0.700624	0.235722	0.553281
H253	H	0.200628	-0.264282	-0.053072
H254	H	0.700628	0.235718	0.446928
C255	C	0.023892	0.054636	0.000120
C256	C	0.523892	0.554636	0.500120
H257	H	0.046047	0.100230	0.000113
H258	H	0.546047	0.600230	0.500113
H259	H	0.000432	0.057394	0.053290
H260	H	0.500432	0.557394	0.553290
H261	H	0.000441	0.057380	-0.053063
H262	H	0.500441	0.557380	0.446937
