data_functionalizedCrystal
_audit_creation_method	'MofGen! by Chris Wilmer'
_symmetry_space_group_name_H-M	'P1'
_symmetry_Int_Tables_number	1
_symmetry_cell_setting	triclinic
loop_
_symmetry_equiv_pos_as_xyz
  x,y,z
_cell_length_a	17.699097
_cell_length_b	13.262508
_cell_length_c	16.776229
_cell_angle_alpha	105.911687
_cell_angle_beta	89.989262
_cell_angle_gamma	83.885149
loop_
_atom_site_label
_atom_site_type_symbol
_atom_site_fract_x
_atom_site_fract_y
_atom_site_fract_z
O1	O	1.004664	0.132793	-0.037562
O2	O	1.504664	0.632793	0.462438
O3	O	0.784364	0.150046	-0.033808
O4	O	1.284364	0.650046	0.466192
O5	O	0.900059	-0.011381	-0.068811
O6	O	1.400059	0.488619	0.431189
O7	O	0.888968	0.294220	-0.002559
O8	O	1.388968	0.794220	0.497441
O9	O	0.900044	-0.011391	0.063764
O10	O	1.400044	0.488609	0.563764
O11	O	0.784348	0.150036	0.098766
O12	O	1.284348	0.650036	0.598766
O13	O	1.004648	0.132783	0.095012
O14	O	1.504648	0.632783	0.595012
Zn15	Zn	0.894496	0.141408	0.117938
Zn16	Zn	1.394496	0.641408	0.617938
Zn17	Zn	0.894516	0.141421	-0.056734
Zn18	Zn	1.394516	0.641421	0.443266
O19	O	0.888953	0.294210	0.130015
O20	O	1.388953	0.794210	0.630015
C21	C	0.756156	0.149421	0.032346
C22	C	1.256156	0.649421	0.532346
C23	C	0.672130	0.147559	0.031948
C24	C	1.172130	0.647559	0.531948
C25	C	0.156370	0.136152	-0.042825
C26	C	0.656370	0.636152	0.457175
C27	C	0.235322	0.137895	-0.042443
C28	C	0.735322	0.637895	0.457557
C29	C	0.274783	0.138762	0.030015
C30	C	0.774783	0.638762	0.530015
C31	C	0.235289	0.137876	0.102095
C32	C	0.735289	0.637876	0.602095
C33	C	0.156340	0.136127	0.101711
C34	C	0.656340	0.636127	0.601711
C35	C	0.553685	0.144931	0.103645
C36	C	1.053685	0.644931	0.603645
C37	C	0.632640	0.146684	0.104025
C38	C	1.132640	0.646684	0.604025
C39	C	0.632667	0.146699	-0.040509
C40	C	1.132667	0.646699	0.459491
C41	C	0.553717	0.144949	-0.040893
C42	C	1.053717	0.644949	0.459107
C43	C	0.514231	0.144058	0.031185
C44	C	1.014231	0.644058	0.531185
C45	C	0.428623	0.142167	0.030770
C46	C	0.928623	0.642167	0.530770
C47	C	0.360389	0.140660	0.030433
C48	C	0.860389	0.640660	0.530433
C49	C	0.899431	-0.050487	-0.011002
C50	C	1.399431	0.449513	0.488998
C51	C	0.897574	-0.166996	-0.036265
C52	C	1.397574	0.333004	0.463735
C53	C	0.892300	-0.495450	0.181598
C54	C	1.392300	0.004550	0.681598
C55	C	0.894039	-0.385983	0.205335
C56	C	1.394039	0.114017	0.705335
C57	C	0.894923	-0.331231	0.144937
C58	C	1.394923	0.168769	0.644937
C59	C	0.894067	-0.385957	0.060799
C60	C	1.394067	0.114043	0.560799
C61	C	0.892321	-0.495434	0.037060
C62	C	1.392321	0.004566	0.537060
C63	C	0.894945	-0.331214	0.000399
C64	C	1.394945	0.168786	0.500399
C65	C	0.894089	-0.385940	-0.083740
C66	C	1.394089	0.114060	0.416260
C67	C	0.892344	-0.495406	-0.107475
C68	C	1.392344	0.004594	0.392525
C69	C	0.891460	-0.550158	-0.047077
C70	C	1.391460	-0.050158	0.452923
C71	C	0.896690	-0.221738	0.024137
C72	C	1.396690	0.278262	0.524137
C73	C	0.896712	-0.221721	-0.120401
C74	C	1.396712	0.278279	0.379599
C75	C	0.894973	-0.331188	-0.144138
C76	C	1.394973	0.168812	0.355862
C77	C	1.032856	0.133408	0.028856
C78	C	1.532856	0.633408	0.528856
C79	C	1.116881	0.135270	0.029250
C80	C	1.616881	0.635270	0.529250
C81	C	0.889581	0.333316	0.072204
C82	C	1.389581	0.833316	0.572204
C83	C	0.891438	0.449825	0.097462
C84	C	1.391438	0.949825	0.597462
N85	N	0.894487	0.141398	0.237147
N86	N	1.394487	0.641398	0.737147
N87	N	0.894530	0.141422	-0.175945
N88	N	1.394530	0.641422	0.324055
C89	C	0.945733	0.069948	0.263372
C90	C	1.445733	0.569948	0.763372
C91	C	0.945737	0.069947	0.346824
C92	C	1.445737	0.569947	0.846824
C93	C	0.894499	0.141402	0.404051
C94	C	1.394499	0.641402	0.904051
C95	C	0.843247	0.212857	0.377822
C96	C	1.343247	0.712857	0.877822
C97	C	0.843240	0.212852	0.294370
C98	C	1.343240	0.712852	0.794370
C99	C	0.843275	0.212877	0.714373
C100	C	1.343275	0.712877	1.214373
C101	C	0.843288	0.212879	0.797830
C102	C	1.343288	0.712879	1.297830
C103	C	0.945772	0.069972	0.766827
C104	C	1.445772	0.569972	1.266827
C105	C	0.945765	0.069967	0.683375
C106	C	1.445765	0.569967	1.183375
C107	C	0.894511	0.141417	0.657152
C108	C	1.394511	0.641417	1.157152
C109	C	0.894506	0.141416	0.566664
C110	C	1.394506	0.641416	1.066664
C111	C	0.894507	0.141410	0.494540
C112	C	1.394507	0.641410	0.994540
H113	H	0.267426	0.138576	0.161091
H114	H	0.767426	0.638576	0.661091
Br115	Br	0.773702	0.309827	0.455483
Br116	Br	1.273702	0.809827	0.955483
H117	H	0.894275	-0.375761	-0.212645
H118	H	1.394275	0.124239	0.287355
Br119	Br	0.897280	-0.182665	0.177152
Br120	Br	1.397280	0.317335	0.677152
H121	H	0.801510	0.271033	0.273020
H122	H	1.301510	0.771033	0.773020
H123	H	0.267470	0.138606	-0.101135
H124	H	0.767470	0.638606	0.398865
Br125	Br	0.500104	0.143750	0.201471
Br126	Br	1.000104	0.643750	0.701471
Br127	Br	0.686260	0.147904	-0.138332
Br128	Br	1.186260	0.647904	0.361668
Br129	Br	1.015283	-0.027027	0.382416
Br130	Br	1.515283	0.472973	0.882416
H131	H	0.987461	0.011765	0.216782
H132	H	1.487461	0.511765	0.716782
H133	H	0.897426	-0.177141	-0.169582
H134	H	1.397426	0.322859	0.330418
Br135	Br	0.500165	0.143780	-0.139231
Br136	Br	1.000165	0.643780	0.360769
H137	H	0.987490	0.011785	0.636783
H138	H	1.487490	0.511785	1.136783
H139	H	0.987503	0.011791	0.788185
H140	H	1.487503	0.511791	1.288185
Br141	Br	0.686195	0.147863	0.202369
Br142	Br	1.186195	0.647863	0.702369
H143	H	0.801560	0.271068	0.844426
H144	H	1.301560	0.771068	1.344426
H145	H	0.891640	-0.539959	-0.175985
H146	H	1.391640	-0.039959	0.324015
Br147	Br	0.891081	-0.569756	0.263557
Br148	Br	1.391081	-0.069756	0.763557
Br149	Br	0.773720	0.309844	0.678789
Br150	Br	1.273720	0.809844	1.178789
Br151	Br	0.102749	0.134915	0.199527
Br152	Br	0.602749	0.634915	0.699527
Br153	Br	0.895184	-0.311717	0.319518
Br154	Br	1.395184	0.188283	0.819518
H155	H	0.124245	0.135454	-0.101828
H156	H	0.624245	0.635454	0.398172
Br157	Br	0.889102	-0.698728	-0.079288
Br158	Br	1.389102	-0.198728	0.420712
H159	H	0.897380	-0.177189	0.092644
H160	H	1.397380	0.322811	0.592644
