data_functionalizedCrystal
_audit_creation_method	'MofGen! by Chris Wilmer'
_symmetry_space_group_name_H-M	'P1'
_symmetry_Int_Tables_number	1
_symmetry_cell_setting	triclinic
loop_
_symmetry_equiv_pos_as_xyz
  x,y,z
_cell_length_a	21.395364
_cell_length_b	13.031981
_cell_length_c	21.395355
_cell_angle_alpha	82.800183
_cell_angle_beta	89.975448
_cell_angle_gamma	97.206409
loop_
_atom_site_label
_atom_site_type_symbol
_atom_site_fract_x
_atom_site_fract_y
_atom_site_fract_z
Zn1	Zn	0.926272	-0.415819	-0.322585
Zn2	Zn	0.912899	-0.590580	-0.204495
Zn3	Zn	0.821484	-0.415865	-0.217819
Zn4	Zn	0.808179	-0.590599	-0.309234
O5	O	0.867209	-0.503216	-0.263533
O6	O	1.012178	-0.438974	-0.306932
O7	O	0.900744	-0.567415	-0.118584
O8	O	0.846549	-0.269594	-0.242880
O9	O	1.002353	-0.567371	-0.220172
O10	O	0.923536	-0.269560	-0.319851
O11	O	0.833581	-0.439052	-0.128372
O12	O	0.732039	-0.439071	-0.229933
O13	O	0.823874	-0.567402	-0.398684
O14	O	0.722264	-0.567447	-0.297096
O15	O	0.910636	-0.438992	-0.408493
O16	O	0.887843	-0.736847	-0.207225
O17	O	0.810906	-0.736861	-0.284176
C18	C	0.704417	-0.503266	-0.263512
C19	C	0.634772	-0.503313	-0.263515
C20	C	0.607189	-0.436567	-0.308745
C21	C	0.541756	-0.436539	-0.308750
C22	C	0.503907	-0.503276	-0.263530
C23	C	0.531498	-0.570027	-0.218292
C24	C	0.596930	-0.570046	-0.218285
C25	C	0.393032	-0.597404	-0.251322
C26	C	0.327601	-0.597388	-0.251333
C27	C	0.302090	-0.503219	-0.263548
C28	C	0.342020	-0.409064	-0.275765
C29	C	0.407453	-0.409082	-0.275758
C30	C	0.432955	-0.503263	-0.263532
C31	C	0.203557	-0.436437	-0.308785
C32	C	0.138123	-0.436407	-0.308786
C33	C	0.127865	-0.569905	-0.218330
C34	C	0.193299	-0.569925	-0.218327
C35	C	0.231141	-0.503192	-0.263558
C36	C	0.846497	-0.774779	-0.242820
C37	C	0.837694	-0.890955	-0.233979
C38	C	0.871836	-0.942650	-0.268159
C39	C	0.862739	-1.062724	-0.259023
C40	C	1.030636	-0.503165	-0.263555
C41	C	1.100279	-0.503144	-0.263564
C42	C	0.867262	-0.503194	-0.426958
C43	C	0.867285	-0.503185	-0.496600
C44	C	0.888018	-0.230592	-0.284341
C45	C	0.896886	-0.114416	-0.293208
C46	C	0.912461	-0.436320	-0.534422
C47	C	0.912463	-0.436275	-0.599861
C48	C	0.867295	-0.503114	-0.627474
C49	C	0.822112	-0.569985	-0.589644
C50	C	0.822107	-0.570020	-0.524207
C51	C	0.855170	-0.597229	-0.723970
C52	C	0.855180	-0.597195	-0.789406
C53	C	0.867308	-0.503004	-0.829303
C54	C	0.879440	-0.408843	-0.803757
C55	C	0.879435	-0.408879	-0.738320
C56	C	0.867296	-0.503082	-0.698429
C57	C	0.912489	-0.436083	-0.938082
C58	C	0.912487	-0.436037	-1.003522
C59	C	0.822138	-0.569756	-0.993303
C60	C	0.822137	-0.569794	-0.927864
C61	C	0.867316	-0.502959	-0.900258
C62	C	0.867197	-0.503161	-0.100750
C63	C	0.867318	-0.502876	-0.031131
H64	H	0.439962	-0.332418	-0.285703
H65	H	0.097049	-0.624243	-0.181511
C66	C	0.313972	-0.305470	-0.289201
H67	H	0.347123	-0.249402	-0.296479
H68	H	0.289141	-0.296185	-0.254011
H69	H	0.288353	-0.306909	-0.325413
H70	H	0.932852	-1.069785	-0.329240
C71	C	0.841833	-0.700764	-0.817500
H72	H	0.834597	-0.756864	-0.784369
H73	H	0.877040	-0.709937	-0.842342
H74	H	0.805615	-0.699393	-0.843116
H75	H	0.907800	-0.898016	-0.304189
C76	C	0.789105	-0.951244	-0.185310
H77	H	0.789368	-1.024039	-0.185552
H78	H	0.748340	-0.933475	-0.195782
H79	H	0.799641	-0.933423	-0.144565
H80	H	0.949248	-0.381896	-0.511949
C81	C	0.772449	-0.643354	-0.886255
H82	H	0.778912	-0.633797	-0.843329
H83	H	0.776258	-0.713573	-0.891633
H84	H	0.731517	-0.628057	-0.898127
C85	C	0.962162	-0.362728	-0.641473
H86	H	0.989070	-0.322935	-0.615658
H87	H	0.941679	-0.317177	-0.670462
H88	H	0.986410	-0.402708	-0.663960
C89	C	0.892771	-0.305315	-0.710218
H90	H	0.891034	-0.318832	-0.665533
H91	H	0.862043	-0.261354	-0.724276
H92	H	0.933471	-0.271874	-0.723501
H93	H	0.889317	-0.332144	-0.836241
H94	H	0.215757	-0.624282	-0.181498
H95	H	0.949273	-0.381657	-0.915604
H96	H	0.413796	-0.674093	-0.241374
C97	C	0.962183	-0.362481	-1.045127
H98	H	0.989090	-0.322692	-1.019310
H99	H	0.941697	-0.316927	-1.074113
H100	H	0.986431	-0.402453	-1.067619
C101	C	0.841694	-0.700825	-0.680090
H102	H	0.834437	-0.756891	-0.704675
H103	H	0.805454	-0.699343	-0.654713
H104	H	0.876844	-0.710154	-0.653818
C105	C	0.245189	-0.363028	-0.358530
H106	H	0.288109	-0.372609	-0.352053
H107	H	0.239841	-0.292775	-0.354788
H108	H	0.233306	-0.378430	-0.399440
C109	C	0.814148	-1.123009	-0.210352
H110	H	0.814410	-1.195803	-0.210593
H111	H	0.773382	-1.105240	-0.220823
H112	H	0.824684	-1.105188	-0.169606
C113	C	0.489866	-0.643441	-0.168553
H114	H	0.446945	-0.633879	-0.175039
H115	H	0.501744	-0.628047	-0.127643
H116	H	0.495219	-0.713696	-0.172299
H117	H	0.785356	-0.624168	-1.015785
H118	H	0.785334	-0.624403	-0.612130
H119	H	0.785316	-0.624469	-0.493412
H120	H	0.637997	-0.382227	-0.345575
C121	C	0.107779	-0.362984	-0.358540
H122	H	0.063390	-0.372521	-0.352063
H123	H	0.117343	-0.378395	-0.399445
H124	H	0.123877	-0.292733	-0.354798
C125	C	0.511404	-0.363121	-0.358505
H126	H	0.467015	-0.372665	-0.352028
H127	H	0.520969	-0.378528	-0.399410
H128	H	0.527497	-0.292867	-0.354762
C129	C	0.283684	-0.700951	-0.237891
H130	H	0.308247	-0.757035	-0.230603
H131	H	0.257465	-0.710232	-0.273082
H132	H	0.258253	-0.699484	-0.201683
H133	H	0.619387	-0.624401	-0.181452
