data_functionalizedCrystal
_audit_creation_method	'MofGen! by Chris Wilmer'
_symmetry_space_group_name_H-M	'P1'
_symmetry_Int_Tables_number	1
_symmetry_cell_setting	triclinic
loop_
_symmetry_equiv_pos_as_xyz
  x,y,z
_cell_length_a	25.639242
_cell_length_b	25.639239
_cell_length_c	25.639233
_cell_angle_alpha	89.981253
_cell_angle_beta	89.977834
_cell_angle_gamma	90.034213
loop_
_atom_site_label
_atom_site_type_symbol
_atom_site_fract_x
_atom_site_fract_y
_atom_site_fract_z
Zn1	Zn	0.799225	-0.208277	-0.295742
Zn2	Zn	1.299225	0.291723	0.204258
Zn3	Zn	0.799149	-0.295696	-0.208307
Zn4	Zn	1.299149	0.204304	0.291693
Zn5	Zn	0.711801	-0.208269	-0.208306
Zn6	Zn	1.211801	0.291731	0.291694
Zn7	Zn	0.711746	-0.295676	-0.295696
Zn8	Zn	1.211746	0.204324	0.204304
O9	O	0.755480	-0.251979	-0.252013
O10	O	1.255480	0.248021	0.247987
O11	O	0.872380	-0.219884	-0.284163
O12	O	1.372380	0.280116	0.215837
O13	O	0.787553	-0.284103	-0.135141
O14	O	1.287553	0.215897	0.364859
O15	O	0.723453	-0.135105	-0.219924
O16	O	1.223453	0.364895	0.280076
O17	O	0.872324	-0.284111	-0.219924
O18	O	1.372324	0.215889	0.280076
O19	O	0.787683	-0.135111	-0.284163
O20	O	1.287683	0.364889	0.215837
O21	O	0.723379	-0.219871	-0.135141
O22	O	1.223379	0.280129	0.364859
O23	O	0.638629	-0.219853	-0.219880
O24	O	1.138629	0.280147	0.280120
O25	O	0.723360	-0.284078	-0.368868
O26	O	1.223360	0.215922	0.131132
O27	O	0.638589	-0.284070	-0.284085
O28	O	1.138589	0.215930	0.215915
O29	O	0.787630	-0.219866	-0.368901
O30	O	1.287630	0.280134	0.131099
O31	O	0.787499	-0.368858	-0.219880
O32	O	1.287499	0.131142	0.280120
O33	O	0.723286	-0.368844	-0.284085
O34	O	1.223286	0.131156	0.215915
C35	C	0.619638	-0.251959	-0.251977
C36	C	1.119638	0.248041	0.248023
C37	C	0.561524	-0.251963	-0.251975
C38	C	1.061524	0.248037	0.248025
C39	C	0.201149	-0.285473	-0.285413
C40	C	0.701149	0.214527	0.214587
C41	C	0.146544	-0.285477	-0.285421
C42	C	0.646544	0.214523	0.214579
O43	O	0.118297	-0.313943	-0.313821
O44	O	0.618297	0.186057	0.186179
N45	N	0.119241	-0.251994	-0.252047
N46	N	0.619241	0.248006	0.247953
C47	C	0.146545	-0.218502	-0.218666
C48	C	0.646545	0.281498	0.281334
O49	O	0.118308	-0.190022	-0.190280
O50	O	0.618308	0.309978	0.309720
C51	C	0.201149	-0.218496	-0.218661
C52	C	0.701149	0.281504	0.281339
C53	C	0.228449	-0.251985	-0.252034
C54	C	0.728449	0.248015	0.247966
C55	C	0.228449	-0.318959	-0.318783
C56	C	0.728449	0.181041	0.181217
C57	C	0.283049	-0.318956	-0.318774
C58	C	0.783049	0.181044	0.181226
C59	C	0.310350	-0.285468	-0.285395
C60	C	0.810350	0.214532	0.214605
C61	C	0.283049	-0.251983	-0.252024
C62	C	0.783049	0.248017	0.247976
C63	C	0.228452	-0.185002	-0.185283
C64	C	0.728452	0.314998	0.314717
C65	C	0.283059	-0.185000	-0.185281
C66	C	0.783059	0.315000	0.314719
C67	C	0.310359	-0.218488	-0.218654
C68	C	0.810359	0.281512	0.281346
C69	C	0.364950	-0.218492	-0.218636
C70	C	0.864950	0.281508	0.281364
N71	N	0.392253	-0.251974	-0.252010
N72	N	0.892253	0.248026	0.247990
C73	C	0.364953	-0.285463	-0.285389
C74	C	0.864953	0.214537	0.214611
C75	C	0.031875	-0.218515	-0.218680
C76	C	0.531875	0.281485	0.281320
C77	C	-0.022728	-0.218523	-0.218683
C78	C	0.477272	0.281477	0.281317
C79	C	-0.022725	-0.285497	-0.285438
C80	C	0.477275	0.214503	0.214562
C81	C	0.031878	-0.285492	-0.285433
C82	C	0.531878	0.214508	0.214567
C83	C	0.059178	-0.251998	-0.252054
C84	C	0.559178	0.248002	0.247946
C85	C	0.479618	-0.285455	-0.285368
C86	C	0.979618	0.214545	0.214632
C87	C	0.534223	-0.285451	-0.285354
C88	C	1.034223	0.214549	0.214646
C89	C	0.534216	-0.218475	-0.218601
C90	C	1.034216	0.281525	0.281399
C91	C	0.479615	-0.218481	-0.218612
C92	C	0.979615	0.281519	0.281388
C93	C	0.452318	-0.251972	-0.252000
C94	C	0.952318	0.248028	0.248000
O95	O	0.393232	-0.190038	-0.190252
O96	O	0.893232	0.309962	0.309748
O97	O	0.393197	-0.313933	-0.313776
O98	O	0.893197	0.186067	0.186224
C99	C	0.755392	-0.387822	-0.251989
C100	C	1.255392	0.112178	0.248011
C101	C	0.755403	-0.445936	-0.251996
C102	C	1.255403	0.054064	0.248004
C103	C	0.789004	-0.806294	-0.218638
C104	C	1.289004	-0.306294	0.281362
C105	C	0.789024	-0.860898	-0.218645
C106	C	1.289024	-0.360898	0.281355
O107	O	0.817502	-0.889131	-0.190257
O108	O	1.317502	-0.389131	0.309743
N109	N	0.755572	-0.888218	-0.252048
N110	N	1.255572	-0.388218	0.247952
C111	C	0.722102	-0.860932	-0.285449
C112	C	1.222102	-0.360932	0.214551
O113	O	0.693651	-0.889184	-0.313861
O114	O	1.193651	-0.389184	0.186139
C115	C	0.722085	-0.806328	-0.285444
C116	C	1.222085	-0.306328	0.214556
C117	C	0.755535	-0.779011	-0.252036
C118	C	1.255535	-0.279011	0.247964
C119	C	0.822452	-0.778976	-0.185233
C120	C	1.322452	-0.278976	0.314767
C121	C	0.822431	-0.724376	-0.185226
C122	C	1.322431	-0.224376	0.314774
C123	C	0.788962	-0.697093	-0.218623
C124	C	1.288962	-0.197093	0.281377
C125	C	0.755514	-0.724410	-0.252028
C126	C	1.255514	-0.224410	0.247972
C127	C	0.688617	-0.779042	-0.318847
C128	C	1.188617	-0.279042	0.181153
C129	C	0.688603	-0.724435	-0.318840
C130	C	1.188603	-0.224435	0.181160
C131	C	0.722053	-0.697118	-0.285432
C132	C	1.222053	-0.197118	0.214568
C133	C	0.722024	-0.642527	-0.285418
C134	C	1.222024	-0.142527	0.214582
N135	N	0.755475	-0.615206	-0.252016
N136	N	1.255475	-0.115206	0.247984
C137	C	0.788944	-0.642490	-0.218618
C138	C	1.288944	-0.142490	0.281382
C139	C	0.722141	-0.975602	-0.285457
C140	C	1.222141	-0.475602	0.214543
C141	C	0.722155	-1.030204	-0.285459
C142	C	1.222155	-0.530204	0.214541
C143	C	0.789078	-1.030167	-0.218656
C144	C	1.289078	-0.530167	0.281344
C145	C	0.789061	-0.975564	-0.218652
C146	C	1.289061	-0.475564	0.281348
C147	C	0.755593	-0.948282	-0.252055
C148	C	1.255593	-0.448282	0.247945
C149	C	0.788897	-0.527824	-0.218605
C150	C	1.288897	-0.027824	0.281395
C151	C	0.788872	-0.473219	-0.218599
C152	C	1.288872	0.026781	0.281401
C153	C	0.721951	-0.473261	-0.285403
C154	C	1.221951	0.026739	0.214597
C155	C	0.721974	-0.527862	-0.285408
C156	C	1.221974	-0.027862	0.214592
C157	C	0.755452	-0.555142	-0.252007
C158	C	1.255452	-0.055142	0.247993
O159	O	0.693562	-0.614260	-0.313793
O160	O	1.193562	-0.114260	0.186207
O161	O	0.817396	-0.614231	-0.190216
O162	O	1.317396	-0.114231	0.309784
C163	C	0.891853	-0.252000	-0.252049
C164	C	1.391853	0.248000	0.247951
C165	C	0.949967	-0.252009	-0.252064
C166	C	1.449967	0.247991	0.247936
C167	C	0.755497	-0.251970	-0.388386
C168	C	1.255497	0.248030	0.111614
C169	C	0.755504	-0.251966	-0.446500
C170	C	1.255504	0.248034	0.053500
C171	C	0.755583	-0.115606	-0.252048
C172	C	1.255583	0.384394	0.247952
C173	C	0.755627	-0.057492	-0.252064
C174	C	1.255627	0.442508	0.247936
C175	C	0.789012	-0.218432	-0.806886
C176	C	1.289012	0.281568	-0.306886
C177	C	0.789019	-0.218417	-0.861491
C178	C	1.289019	0.281583	-0.361491
O179	O	0.817466	-0.189967	-0.889747
O180	O	1.317466	0.310033	-0.389747
N181	N	0.755562	-0.251844	-0.888783
N182	N	1.255562	0.248156	-0.388783
C183	C	0.722093	-0.285283	-0.861468
C184	C	1.222093	0.214717	-0.361468
O185	O	0.693636	-0.313713	-0.889695
O186	O	1.193636	0.186287	-0.389695
C187	C	0.722084	-0.285294	-0.806864
C188	C	1.222084	0.214706	-0.306864
C189	C	0.755547	-0.251870	-0.779575
C190	C	1.255547	0.248130	-0.279575
C191	C	0.822472	-0.185009	-0.779597
C192	C	1.322472	0.314991	-0.279597
C193	C	0.822466	-0.185025	-0.724997
C194	C	1.322466	0.314975	-0.224997
C195	C	0.789000	-0.218462	-0.697685
C196	C	1.289000	0.281538	-0.197685
C197	C	0.755541	-0.251885	-0.724974
C198	C	1.255541	0.248115	-0.224974
C199	C	0.688613	-0.318731	-0.779550
C200	C	1.188613	0.181269	-0.279550
C201	C	0.688607	-0.318739	-0.724943
C202	C	1.188607	0.181261	-0.224943
C203	C	0.722069	-0.285314	-0.697654
C204	C	1.222069	0.214686	-0.197654
C205	C	0.722070	-0.285338	-0.643063
C206	C	1.222070	0.214662	-0.143063
N207	N	0.755526	-0.251912	-0.615771
N208	N	1.255526	0.248088	-0.115771
C209	C	0.788992	-0.218474	-0.643082
C210	C	1.288992	0.281526	-0.143082
C211	C	0.722113	-0.285256	-0.976138
C212	C	1.222113	0.214744	-0.476138
C213	C	0.722124	-0.285247	-1.030741
C214	C	1.222124	0.214753	-0.530741
C215	C	0.789049	-0.218381	-1.030760
C216	C	1.289049	0.281619	-0.530760
C217	C	0.789041	-0.218392	-0.976157
C218	C	1.289041	0.281608	-0.476157
C219	C	0.755570	-0.251829	-0.948846
C220	C	1.255570	0.248171	-0.448846
C221	C	0.788977	-0.218509	-0.528417
C222	C	1.288977	0.281491	-0.028417
C223	C	0.788970	-0.218529	-0.473811
C224	C	1.288970	0.281471	0.026189
C225	C	0.722043	-0.285393	-0.473797
C226	C	1.222043	0.214607	0.026203
C227	C	0.722052	-0.285375	-0.528397
C228	C	1.222052	0.214625	-0.028397
C229	C	0.755521	-0.251929	-0.555706
C230	C	1.255521	0.248071	-0.055706
O231	O	0.693635	-0.313773	-0.614771
O232	O	1.193635	0.186227	-0.114771
O233	O	0.817439	-0.190044	-0.614847
O234	O	1.317439	0.309956	-0.114847
C235	C	0.755494	-0.251951	-0.116170
C236	C	1.255494	0.248049	0.383830
C237	C	0.755588	-0.251807	-0.058057
C238	C	1.255588	0.248193	0.441943
H239	H	0.556454	-0.191211	-0.191422
H240	H	1.056454	0.308789	0.308578
H241	H	0.816111	-0.450979	-0.191392
H242	H	1.316111	0.049021	0.308608
H243	H	0.849670	-0.702137	-0.158024
H244	H	1.349670	-0.202137	0.341976
H245	H	0.661345	-0.345963	-0.702710
H246	H	1.161345	0.154037	-0.202710
H247	H	0.556449	-0.312723	-0.312530
H248	H	1.056449	0.187277	0.187470
H249	H	0.457399	-0.312726	-0.312556
H250	H	0.957399	0.187274	0.187444
O251	O	0.821431	-0.554239	-0.186109
O252	O	1.321431	-0.054239	0.313891
C253	C	0.887823	-0.548424	-0.119866
C254	C	1.387823	-0.048424	0.380134
C255	C	0.851000	-0.518446	-0.156635
C256	C	1.351000	-0.018446	0.343365
H257	H	0.911747	-0.519499	-0.096034
H258	H	1.411747	-0.019499	0.403966
H259	H	0.863873	-0.574008	-0.092467
H260	H	1.363873	-0.074008	0.407533
H261	H	0.915137	-0.573966	-0.143905
H262	H	1.415137	-0.073966	0.356095
H263	H	0.823679	-0.492876	-0.132637
H264	H	1.323679	0.007124	0.367363
H265	H	0.874983	-0.492895	-0.184034
H266	H	1.374983	0.007105	0.315966
O267	O	0.656129	-0.351273	-0.805989
O268	O	1.156129	0.148727	-0.305989
C269	C	0.630692	-0.440204	-0.822679
C270	C	1.130692	0.059796	-0.322679
C271	C	0.667507	-0.403406	-0.792699
C272	C	1.167507	0.096594	-0.292699
H273	H	0.639885	-0.482361	-0.811954
H274	H	1.139885	0.017639	-0.311954
H275	H	0.588533	-0.431055	-0.811914
H276	H	1.088533	0.068945	-0.311914
H277	H	0.636425	-0.434435	-0.866397
H278	H	1.136425	0.065565	-0.366397
H279	H	0.661820	-0.409154	-0.748974
H280	H	1.161820	0.090846	-0.248974
H281	H	0.709652	-0.412564	-0.803508
H282	H	1.209652	0.087436	-0.303508
O283	O	0.309484	-0.351500	-0.351245
O284	O	0.809484	0.148500	0.148755
C285	C	0.303703	-0.417948	-0.417439
C286	C	0.803703	0.082052	0.082561
C287	C	0.273706	-0.381109	-0.380697
C288	C	0.773706	0.118891	0.119303
H289	H	0.274790	-0.441904	-0.441252
H290	H	0.774790	0.058096	0.058748
H291	H	0.329277	-0.394008	-0.444855
H292	H	0.829277	0.105992	0.055145
H293	H	0.329256	-0.445230	-0.393379
H294	H	0.829256	0.054770	0.106621
H295	H	0.248125	-0.353819	-0.404714
H296	H	0.748125	0.146181	0.095286
H297	H	0.248165	-0.405082	-0.353279
H298	H	0.748165	0.094918	0.146721
H299	H	0.816221	-0.191310	-0.451595
H300	H	1.316221	0.308690	0.048405
H301	H	0.206227	-0.346229	-0.345967
H302	H	0.706227	0.153771	0.154033
H303	H	0.054103	-0.312760	-0.312609
H304	H	0.554103	0.187240	0.187391
O305	O	0.821531	-0.949087	-0.186129
O306	O	1.321531	-0.449087	0.313871
C307	C	0.846946	-0.932377	-0.097216
C308	C	1.346946	-0.432377	0.402784
C309	C	0.810147	-0.962400	-0.133989
C310	C	1.310147	-0.462400	0.366011
H311	H	0.837748	-0.943120	-0.055053
H312	H	1.337748	-0.443120	0.444947
H313	H	0.889110	-0.943084	-0.106400
H314	H	1.389110	-0.443084	0.393600
H315	H	0.841198	-0.888665	-0.102973
H316	H	1.341198	-0.388665	0.397027
H317	H	0.815849	-1.006118	-0.128252
H318	H	1.315849	-0.506118	0.371748
H319	H	0.767997	-0.951649	-0.124796
H320	H	1.267997	-0.451649	0.375204
O321	O	0.689536	-0.554379	-0.317931
O322	O	1.189536	-0.054379	0.182069
C323	C	0.664085	-0.571041	-0.406844
C324	C	1.164085	-0.071041	0.093156
C325	C	0.700857	-0.540992	-0.370065
C326	C	1.200857	-0.040992	0.129935
H327	H	0.673218	-0.560221	-0.449001
H328	H	1.173218	-0.060221	0.050999
H329	H	0.669854	-0.614761	-0.401161
H330	H	1.169854	-0.114761	0.098839
H331	H	0.621930	-0.560361	-0.397589
H332	H	1.121930	-0.060361	0.102411
H333	H	0.743026	-0.551628	-0.379297
H334	H	1.243026	-0.051628	0.120703
H335	H	0.695043	-0.497280	-0.375755
H336	H	1.195043	0.002720	0.124245
H337	H	0.849723	-0.157777	-0.801828
H338	H	1.349723	0.342223	-0.301828
H339	H	0.694912	-1.052442	-0.312659
H340	H	1.194912	-0.552442	0.187341
O341	O	0.855011	-0.152619	-0.698462
O342	O	1.355011	0.347381	-0.198462
C343	C	0.925561	-0.145569	-0.636794
C344	C	1.425561	0.354431	-0.136794
C345	C	0.888752	-0.182337	-0.666820
C346	C	1.388752	0.317663	-0.166820
H347	H	0.952843	-0.169581	-0.611196
H348	H	1.452843	0.330419	-0.111196
H349	H	0.949514	-0.121670	-0.665670
H350	H	1.449514	0.378330	-0.165670
H351	H	0.901545	-0.118230	-0.611258
H352	H	1.401545	0.381770	-0.111258
H353	H	0.912728	-0.209708	-0.692356
H354	H	1.412728	0.290292	-0.192356
H355	H	0.864797	-0.206199	-0.637916
H356	H	1.364797	0.293801	-0.137916
H357	H	0.305283	-0.157721	-0.158103
H358	H	0.805283	0.342279	0.341897
O359	O	0.821503	-0.185909	-1.057377
O360	O	1.321503	0.314091	-0.557377
C361	C	0.851179	-0.156274	-1.141512
C362	C	1.351179	0.343726	-0.641512
C363	C	0.814395	-0.193065	-1.111432
C364	C	1.314395	0.306935	-0.611432
H365	H	0.845452	-0.162054	-1.185221
H366	H	1.345452	0.337946	-0.685221
H367	H	0.842021	-0.114105	-1.130816
H368	H	1.342021	0.385895	-0.630816
H369	H	0.893327	-0.165451	-1.130761
H370	H	1.393327	0.334549	-0.630761
H371	H	0.772234	-0.183935	-1.122167
H372	H	1.272234	0.316065	-0.622167
H373	H	0.823598	-0.235222	-1.122131
H374	H	1.323598	0.264778	-0.622131
O375	O	0.689573	-0.317737	-1.057165
O376	O	1.189573	0.182263	-0.557165
C377	C	0.623215	-0.384083	-1.051368
C378	C	1.123215	0.115917	-0.551368
C379	C	0.660047	-0.347308	-1.021380
C380	C	1.160047	0.152692	-0.521380
H381	H	0.599341	-0.408008	-1.022448
H382	H	1.099341	0.091992	-0.522448
H383	H	0.595859	-0.360095	-1.076911
H384	H	1.095859	0.139905	-0.576911
H385	H	0.647208	-0.411398	-1.076951
H386	H	1.147208	0.088602	-0.576951
H387	H	0.636096	-0.319985	-0.995769
H388	H	1.136096	0.180015	-0.495769
H389	H	0.687404	-0.371328	-0.995870
H390	H	1.187404	0.128672	-0.495870
O391	O	0.058311	-0.185967	-0.186198
O392	O	0.558311	0.314033	0.313802
C393	C	0.052534	-0.119522	-0.120005
C394	C	0.552534	0.380478	0.379995
C395	C	0.022535	-0.156364	-0.156754
C396	C	0.522535	0.343636	0.343246
H397	H	0.023622	-0.095570	-0.096197
H398	H	0.523622	0.404430	0.403803
H399	H	0.078056	-0.143458	-0.092583
H400	H	0.578056	0.356542	0.407417
H401	H	0.078139	-0.092235	-0.144058
H402	H	0.578139	0.407765	0.355942
H403	H	-0.003099	-0.183658	-0.132743
H404	H	0.496901	0.316342	0.367257
H405	H	-0.002955	-0.132395	-0.184177
H406	H	0.497045	0.367605	0.315823
H407	H	0.849709	-0.801185	-0.158037
H408	H	1.349709	-0.301185	0.341963
O409	O	0.821560	-0.185872	-0.949731
O410	O	1.321560	0.314128	-0.449731
C411	C	0.887964	-0.119572	-0.955528
C412	C	1.387964	0.380428	-0.455528
C413	C	0.851154	-0.156369	-0.985516
C414	C	1.351154	0.343631	-0.485516
H415	H	0.911908	-0.095718	-0.984448
H416	H	1.411908	0.404282	-0.484448
H417	H	0.864003	-0.092197	-0.929979
H418	H	1.364003	0.407803	-0.429979
H419	H	0.915259	-0.143592	-0.929952
H420	H	1.415259	0.356408	-0.429952
H421	H	0.823851	-0.132392	-1.011121
H422	H	1.323851	0.367608	-0.511121
H423	H	0.875148	-0.183746	-1.011033
H424	H	1.375148	0.316254	-0.511033
H425	H	0.661376	-0.801275	-0.346049
H426	H	1.161376	-0.301275	0.153951
H427	H	0.457387	-0.191213	-0.191436
H428	H	0.957387	0.308787	0.308564
O429	O	0.821539	-0.186005	-0.554859
O430	O	1.321539	0.313995	-0.054859
C431	C	0.887902	-0.119668	-0.549100
C432	C	1.387902	0.380332	-0.049100
C433	C	0.851058	-0.156457	-0.519091
C434	C	1.351058	0.343543	-0.019091
H435	H	0.911770	-0.095761	-0.520195
H436	H	1.411770	0.404239	-0.020195
H437	H	0.915262	-0.143644	-0.574655
H438	H	1.415262	0.356356	-0.074655
H439	H	0.863918	-0.092337	-0.574674
H440	H	1.363918	0.407663	-0.074674
H441	H	0.875000	-0.183795	-0.493489
H442	H	1.375000	0.316205	0.006511
H443	H	0.823696	-0.132449	-0.493569
H444	H	1.323696	0.367551	0.006431
O445	O	0.656117	-0.697991	-0.351361
O446	O	1.156117	-0.197991	0.148639
C447	C	0.630700	-0.681247	-0.440273
C448	C	1.130700	-0.181247	0.059727
C449	C	0.667513	-0.711237	-0.403503
C450	C	1.167513	-0.211237	0.096497
H451	H	0.639907	-0.691937	-0.482438
H452	H	1.139907	-0.191937	0.017562
H453	H	0.588542	-0.692038	-0.431095
H454	H	1.088542	-0.192038	0.068905
H455	H	0.636421	-0.637531	-0.434505
H456	H	1.136421	-0.137531	0.065495
H457	H	0.661838	-0.754960	-0.409250
H458	H	1.161838	-0.254960	0.090750
H459	H	0.709658	-0.700402	-0.412691
H460	H	1.209658	-0.200402	0.087309
O461	O	-0.049192	-0.318000	-0.317940
O462	O	0.450808	0.182000	0.182060
C463	C	-0.065900	-0.343485	-0.406834
C464	C	0.434100	0.156515	0.093166
C465	C	-0.035883	-0.306654	-0.370089
C466	C	0.464117	0.193346	0.129911
H467	H	-0.055159	-0.334317	-0.449005
H468	H	0.444841	0.165683	0.050995
H469	H	-0.055185	-0.385640	-0.397622
H470	H	0.444815	0.114360	0.102378
H471	H	-0.109612	-0.337741	-0.401077
H472	H	0.390388	0.162259	0.098923
H473	H	0.007836	-0.312351	-0.375825
H474	H	0.507836	0.187649	0.124175
H475	H	-0.046642	-0.264512	-0.379310
H476	H	0.453358	0.235488	0.120690
H477	H	0.694883	-0.953392	-0.312656
H478	H	1.194883	-0.453392	0.187344
H479	H	0.816333	-1.052391	-0.191464
H480	H	1.316333	-0.552391	0.308536
H481	H	0.694699	-0.451039	-0.312594
H482	H	1.194699	0.048961	0.187406
O483	O	0.202022	-0.152419	-0.152851
O484	O	0.702022	0.347581	0.347149
C485	C	0.207806	-0.086001	-0.086628
C486	C	0.707806	0.413999	0.413372
C487	C	0.237801	-0.122870	-0.123341
C488	C	0.737801	0.377130	0.376659
H489	H	0.236721	-0.062109	-0.062751
H490	H	0.736721	0.437891	0.437249
H491	H	0.182286	-0.058664	-0.110661
H492	H	0.682286	0.441336	0.389339
H493	H	0.182200	-0.109966	-0.059265
H494	H	0.682200	0.390034	0.440735
H495	H	0.263436	-0.098948	-0.150711
H496	H	0.763436	0.401052	0.349289
H497	H	0.263289	-0.150209	-0.099274
H498	H	0.763289	0.349791	0.400726
H499	H	0.694857	-0.312487	-0.953905
H500	H	1.194857	0.187513	-0.453905
H501	H	0.694809	-0.312597	-0.550617
H502	H	1.194809	0.187403	-0.050617
O503	O	0.689552	-0.317823	-0.447180
O504	O	1.189552	0.182177	0.052820
C505	C	0.659905	-0.347486	-0.363045
C506	C	1.159905	0.152514	0.136955
C507	C	0.696722	-0.310728	-0.393125
C508	C	1.196722	0.189272	0.106875
H509	H	0.665697	-0.341771	-0.319336
H510	H	1.165697	0.158229	0.180664
H511	H	0.617743	-0.338291	-0.373730
H512	H	1.117743	0.161709	0.126270
H513	H	0.669044	-0.389641	-0.373807
H514	H	1.169044	0.110359	0.126193
H515	H	0.687630	-0.268561	-0.382379
H516	H	1.187630	0.231439	0.117621
H517	H	0.738873	-0.319969	-0.382437
H518	H	1.238873	0.180031	0.117563
H519	H	-0.044951	-0.191258	-0.191502
H520	H	0.455049	0.308742	0.308498
