data_functionalizedCrystal
_audit_creation_method	'MofGen! by Chris Wilmer'
_symmetry_space_group_name_H-M	'P1'
_symmetry_Int_Tables_number	1
_symmetry_cell_setting	triclinic
loop_
_symmetry_equiv_pos_as_xyz
  x,y,z
_cell_length_a	12.759401
_cell_length_b	12.759393
_cell_length_c	12.759400
_cell_angle_alpha	89.968231
_cell_angle_beta	90.014845
_cell_angle_gamma	89.982620
loop_
_atom_site_label
_atom_site_type_symbol
_atom_site_fract_x
_atom_site_fract_y
_atom_site_fract_z
Zn1	Zn	1.606244	-0.593981	-0.418198
Zn2	Zn	1.606142	-0.418301	-0.593917
Zn3	Zn	1.430549	-0.418321	-0.418253
Zn4	Zn	1.430535	-0.593943	-0.593836
O5	O	1.518367	-0.506137	-0.506051
O6	O	1.753251	-0.570685	-0.441518
O7	O	1.582812	-0.271283	-0.570672
O8	O	1.453905	-0.441647	-0.271225
O9	O	1.753176	-0.441614	-0.570618
O10	O	1.582987	-0.570704	-0.271184
O11	O	1.453805	-0.271297	-0.441613
O12	O	1.283526	-0.441609	-0.441534
O13	O	1.453879	-0.740969	-0.570480
O14	O	1.283516	-0.570638	-0.570533
O15	O	1.582972	-0.740997	-0.441439
O16	O	1.582798	-0.441577	-0.740927
O17	O	1.453780	-0.570620	-0.740868
C18	C	1.245400	-0.506122	-0.506032
C19	C	1.128623	-0.506141	-0.506049
C20	C	1.073783	-0.573215	-0.573326
C21	C	0.964059	-0.573227	-0.573340
C22	C	0.964025	-0.439081	-0.438795
C23	C	1.073747	-0.439075	-0.438777
C24	C	1.073802	-0.650660	-0.651008
C25	C	0.964078	-0.650672	-0.651021
C26	C	1.518436	-0.780170	-0.505944
C27	C	1.518465	-0.896947	-0.505898
C28	C	1.451319	-0.951822	-0.438685
C29	C	1.451351	-1.061546	-0.438653
C30	C	1.585683	-1.061510	-0.573052
C31	C	1.585645	-0.951788	-0.573088
C32	C	1.384139	-0.896981	-0.371495
C33	C	1.316989	-0.951857	-0.304275
C34	C	1.317021	-1.061581	-0.304244
C35	C	1.384203	-1.116430	-0.371432
C36	C	1.792401	-0.506152	-0.506071
C37	C	1.909177	-0.506158	-0.506080
C38	C	1.518305	-0.506115	-0.779018
C39	C	1.518374	-0.506140	-0.895795
C40	C	1.518360	-0.233169	-0.506082
C41	C	1.518534	-0.116393	-0.505831
C42	C	1.585629	-0.439022	-0.950653
C43	C	1.585693	-0.439054	-1.060377
C44	C	1.451240	-0.573327	-1.060375
C45	C	1.451182	-0.573299	-0.950653
C46	C	1.663251	-0.361498	-0.950655
C47	C	1.663315	-0.361530	-1.060379
C48	C	1.518459	-0.506182	-0.232018
C49	C	1.518497	-0.506201	-0.115241
H50	H	0.919332	-0.384479	-0.384024
C51	C	1.521245	-0.238564	-0.938820
C52	C	1.623944	-0.257110	-0.904822
H53	H	1.496982	-0.174116	-0.910528
H54	H	1.477149	-0.293945	-0.915813
H55	H	1.519960	-0.235037	-1.013178
H56	H	1.625228	-0.260644	-0.830463
H57	H	1.668052	-0.201715	-0.927823
C58	C	1.184201	-0.962914	-0.171436
C59	C	1.243137	-0.891573	-0.230431
H60	H	1.138601	-0.925697	-0.125854
H61	H	1.230001	-1.005716	-0.131239
H62	H	1.144016	-1.005702	-0.217208
H63	H	1.283328	-0.848791	-0.184659
H64	H	1.197330	-0.848753	-0.270631
H65	H	1.107817	-0.621376	-0.728260
H66	H	1.384220	-1.205774	-0.371404
C67	C	0.952088	-0.836667	-0.676873
C68	C	0.918170	-0.755090	-0.611815
H69	H	0.923740	-0.901125	-0.652668
H70	H	1.026434	-0.840211	-0.675523
H71	H	0.929077	-0.823996	-0.746550
H72	H	0.941189	-0.767757	-0.542140
H73	H	0.843809	-0.751547	-0.613154
H74	H	1.641579	-0.280150	-1.090242
C75	C	1.175725	-1.184961	-0.289601
C76	C	1.243199	-1.121897	-0.230367
H77	H	1.130146	-1.222188	-0.243988
H78	H	1.215738	-1.233328	-0.329592
H79	H	1.135519	-1.142131	-0.335384
H80	H	1.283412	-1.164728	-0.184589
H81	H	1.203182	-1.073524	-0.190358
H82	H	1.118394	-0.384464	-0.383986
H83	H	1.384108	-0.807638	-0.371511
C84	C	1.175008	-0.800236	-0.703861
C85	C	1.114046	-0.760554	-0.621718
H86	H	1.199845	-0.868081	-0.685780
H87	H	1.232888	-0.755013	-0.715897
H88	H	1.133627	-0.804543	-0.765609
H89	H	1.155429	-0.756240	-0.559971
H90	H	1.056158	-0.805790	-0.609669
C91	C	1.009189	-0.603076	-0.827419
C92	C	0.923845	-0.621057	-0.760833
H93	H	0.984348	-0.584788	-0.895206
H94	H	1.050567	-0.664803	-0.831913
H95	H	1.050521	-0.547428	-0.800302
H96	H	0.882516	-0.676710	-0.787946
H97	H	0.882450	-0.559322	-0.756342
C98	C	1.645396	-1.229693	-0.632659
C99	C	1.659537	-1.121798	-0.646890
H100	H	1.691000	-1.266909	-0.678237
H101	H	1.574816	-1.247670	-0.648029
H102	H	1.660799	-1.247674	-0.562058
H103	H	1.644126	-1.103815	-0.717490
H104	H	1.730133	-1.103813	-0.631527
H105	H	1.744594	-0.383349	-0.920798
H106	H	1.640335	-0.907107	-0.627805
C107	C	1.391406	-0.632889	-0.782458
C108	C	1.377266	-0.647088	-0.890350
H109	H	1.345776	-0.678452	-0.745232
H110	H	1.376045	-0.562292	-0.764550
H111	H	1.461984	-0.648312	-0.764421
H112	H	1.306689	-0.631658	-0.908389
H113	H	1.392619	-0.717701	-0.908266
C114	C	1.391632	-0.632992	-1.228571
C115	C	1.377379	-0.647138	-1.120679
H116	H	1.346025	-0.678557	-1.265796
H117	H	1.462215	-0.648435	-1.246476
H118	H	1.376302	-0.562390	-1.246614
H119	H	1.392716	-0.717738	-1.102635
H120	H	1.306779	-0.631702	-1.102767
H121	H	1.740619	-0.390742	-1.094324
