data_functionalizedCrystal
_audit_creation_method	'MofGen! by Chris Wilmer'
_symmetry_space_group_name_H-M	'P1'
_symmetry_Int_Tables_number	1
_symmetry_cell_setting	triclinic
loop_
_symmetry_equiv_pos_as_xyz
  x,y,z
_cell_length_a	16.992694
_cell_length_b	27.732048
_cell_length_c	15.455313
_cell_angle_alpha	92.637842
_cell_angle_beta	87.142206
_cell_angle_gamma	86.655439
loop_
_atom_site_label
_atom_site_type_symbol
_atom_site_fract_x
_atom_site_fract_y
_atom_site_fract_z
O1	O	1.042606	0.100467	-0.072038
O2	O	0.814336	0.099342	-0.072063
O3	O	0.935560	0.029815	-0.072033
O4	O	0.921382	0.169994	-0.072068
O5	O	0.928628	0.033773	0.072227
O6	O	0.807404	0.103301	0.072197
O7	O	1.035674	0.104425	0.072223
Cu8	Cu	0.920906	0.104225	0.085382
Cu9	Cu	0.929104	0.099543	-0.085222
O10	O	0.914450	0.173953	0.072193
C11	C	0.781675	0.099876	0.000064
C12	C	0.694684	0.095561	0.000055
C13	C	0.643939	0.137184	0.000046
C14	C	0.562201	0.133129	0.000059
C15	C	0.531209	0.087449	0.000075
C16	C	0.581960	0.045823	0.000087
C17	C	0.663696	0.049880	0.000080
C18	C	0.287814	0.070637	0.000102
C19	C	0.206071	0.066583	0.000106
C20	C	0.186318	0.153889	0.000080
C21	C	0.268057	0.157941	0.000068
C22	C	0.318800	0.116315	0.000084
N23	N	0.447660	0.083302	0.000086
N24	N	0.402347	0.120463	0.000080
C25	C	0.931796	0.013774	0.000100
C26	C	0.930900	-0.039919	0.000107
C27	C	0.996895	-0.375882	0.000069
C28	C	0.993571	-0.577686	0.000057
O29	O	1.053919	-0.606333	0.000026
N30	N	0.921689	-0.599917	0.000050
C31	C	0.850634	-0.571695	0.000040
O32	O	0.789419	-0.595235	0.000025
C33	C	0.853960	-0.369892	0.000046
C34	C	0.925846	-0.347663	0.000062
C35	C	1.068775	-0.353652	0.000084
C36	C	1.069605	-0.303204	0.000092
C37	C	0.998556	-0.274986	0.000085
C38	C	0.926676	-0.297215	0.000070
C39	C	0.782906	-0.341671	0.000030
C40	C	0.783744	-0.291218	0.000030
C41	C	0.855630	-0.268989	0.000046
C42	C	0.856457	-0.218549	0.000071
N43	N	0.928338	-0.196317	0.000078
C44	C	0.999387	-0.224535	0.000085
C45	C	0.848893	-0.677644	0.000038
C46	C	0.848061	-0.728095	0.000038
C47	C	0.990998	-0.734082	0.000054
C48	C	0.991829	-0.683630	0.000060
C49	C	0.920775	-0.655413	0.000046
C50	C	1.001126	-0.118591	0.000102
C51	C	1.001949	-0.068138	0.000114
C52	C	0.859013	-0.062155	0.000094
C53	C	0.858189	-0.112603	0.000087
C54	C	0.929251	-0.140820	0.000088
O55	O	0.796141	-0.189872	0.000092
O56	O	1.060595	-0.200987	0.000081
C57	C	0.996065	-0.426330	0.000062
C58	C	0.924185	-0.448559	0.000047
C59	C	0.853136	-0.420341	0.000039
C60	C	0.923354	-0.499010	0.000047
C61	C	0.994403	-0.527228	0.000054
C62	C	1.066285	-0.504997	0.000061
C63	C	1.067115	-0.454549	0.000069
C64	C	0.781254	-0.442573	0.000032
C65	C	0.780430	-0.493021	0.000025
C66	C	0.851480	-0.521240	0.000033
C67	C	1.068335	0.103892	0.000094
C68	C	1.155327	0.108206	0.000097
C69	C	0.918214	0.189993	0.000058
C70	C	0.919111	0.243687	0.000046
N71	N	0.915146	0.107517	0.205376
N72	N	0.934870	0.096247	-0.205217
C73	C	0.966664	0.077992	0.250783
C74	C	0.962315	0.080486	0.341590
C75	C	0.906451	0.112509	0.386988
C76	C	0.854928	0.142036	0.341575
C77	C	0.859274	0.139538	0.250770
C78	C	0.887693	0.123276	0.658565
C79	C	0.883353	0.125773	0.749377
C80	C	0.990739	0.064222	0.749385
C81	C	0.995083	0.061730	0.658578
C82	C	0.943557	0.091254	0.613173
N83	N	0.902006	0.115061	0.479807
N84	N	0.947999	0.088700	0.520356
H85	H	0.144995	0.187778	0.000068
H86	H	0.180842	0.029383	0.000119
N87	N	0.550307	-0.000838	0.000087
N88	N	0.568965	-0.031281	-0.060718
H89	H	0.546612	-0.064238	-0.060722
N90	N	0.709478	-0.364371	-0.000011
N91	N	0.695992	-0.393513	-0.060833
H92	H	0.644129	-0.409544	-0.060867
N93	N	0.835054	0.153436	0.612206
N94	N	0.785180	0.182024	0.652754
H95	H	0.748000	0.203326	0.620011
N96	N	0.510362	0.175644	0.000070
N97	N	0.459647	0.184789	0.060894
H98	H	0.423037	0.214819	0.060910
N99	N	0.339629	0.028113	0.000116
N100	N	0.311944	-0.012668	0.000125
H101	H	0.348541	-0.042703	0.000133
N102	N	0.826272	0.158474	0.795757
N103	N	0.775399	0.142634	0.846444
H104	H	0.735088	0.165727	0.879202
N105	N	0.675579	0.183850	0.000039
N106	N	0.656918	0.214292	0.060844
H107	H	0.679261	0.247251	0.060844
N108	N	0.706994	-0.515724	0.000028
N109	N	0.656310	-0.506421	0.060830
H110	H	0.604448	-0.522454	0.060828
N111	N	0.797863	0.174740	0.387959
N112	N	0.793989	0.176967	0.469034
H113	H	0.753686	0.200065	0.501792
N114	N	1.014942	0.050321	0.387958
N115	N	1.064819	0.021733	0.347414
H116	H	1.101989	0.000426	0.380160
N117	N	0.806663	0.169700	0.204372
N118	N	0.810551	0.167466	0.123296
H119	H	0.773392	0.188767	0.090526
N120	N	0.776314	-0.648818	0.000023
N121	N	0.763744	-0.621662	-0.060787
H122	H	0.712484	-0.601304	-0.060796
N123	N	0.299699	0.204606	0.000040
N124	N	0.254382	0.241766	0.000026
H125	H	0.276729	0.274724	0.000001
H126	H	0.799653	-0.130703	0.000098
H127	H	1.040572	0.035654	0.621617
N128	N	1.043362	0.034069	0.795780
N129	N	1.039478	0.036301	0.876855
H130	H	1.076644	0.015003	0.909622
H131	H	0.705012	0.015986	0.000088
H132	H	1.060489	-0.050041	0.000129
N133	N	1.063583	-0.762903	0.000064
N134	N	1.108615	-0.757614	0.060873
H135	H	1.159876	-0.777971	0.060876
H136	H	1.058992	-0.141559	0.000100
H137	H	1.128142	-0.285110	0.000102
H138	H	1.126636	-0.376623	0.000087
N139	N	1.138861	-0.533827	0.000049
N140	N	1.189725	-0.531865	-0.060759
H141	H	1.240980	-0.552229	-0.060773
H142	H	1.050364	-0.665535	0.000072
H143	H	0.789524	-0.746189	0.000040
H144	H	0.725882	-0.268245	0.000017
N145	N	0.708674	-0.413751	0.000048
N146	N	0.690268	-0.383274	0.060866
H147	H	0.639003	-0.362920	0.060883
H148	H	1.012157	0.051917	0.213826
H149	H	0.801166	-0.039170	0.000091
N150	N	1.140552	-0.431854	0.000088
N151	N	1.203977	-0.457063	0.000096
H152	H	1.255847	-0.441038	0.000109
