data_functionalizedCrystal
_audit_creation_method	'MofGen! by Chris Wilmer'
_symmetry_space_group_name_H-M	'P1'
_symmetry_Int_Tables_number	1
_symmetry_cell_setting	triclinic
loop_
_symmetry_equiv_pos_as_xyz
  x,y,z
_cell_length_a	10.540510
_cell_length_b	14.853569
_cell_length_c	13.930277
_cell_angle_alpha	89.994278
_cell_angle_beta	89.992539
_cell_angle_gamma	84.074438
loop_
_atom_site_label
_atom_site_type_symbol
_atom_site_fract_x
_atom_site_fract_y
_atom_site_fract_z
O1	O	1.684519	0.126923	-0.079840
O2	O	1.314969	0.138922	-0.079841
O3	O	1.509614	0.001747	-0.079831
O4	O	1.489874	0.264098	-0.079849
O5	O	1.509587	0.001744	0.079831
O6	O	1.314942	0.138919	0.079821
O7	O	1.684492	0.126920	0.079822
Zn8	Zn	1.499713	0.132919	0.105171
Zn9	Zn	1.499748	0.132923	-0.105190
O10	O	1.489847	0.264095	0.079813
C11	C	1.267662	0.138026	-0.000010
C12	C	1.126741	0.135351	-0.000010
C13	C	1.508706	-0.031848	0.000000
C14	C	1.506025	-0.131947	0.000001
C15	C	1.389143	-0.168963	0.000003
C16	C	1.620387	-0.188987	-0.000007
C17	C	1.617872	-0.283035	-0.000011
C18	C	1.500990	-0.320051	-0.000010
C19	C	1.386624	-0.263019	-0.000004
C20	C	1.732235	-0.340073	-0.000027
C21	C	1.729725	-0.434127	-0.000032
C22	C	1.612842	-0.471145	-0.000024
C23	C	1.498471	-0.414107	-0.000017
C24	C	1.381590	-0.451123	-0.000016
C25	C	1.267217	-0.394087	-0.000002
C26	C	1.269741	-0.300037	0.000004
C27	C	1.610318	-0.565195	-0.000029
C28	C	1.379070	-0.545180	-0.000023
C29	C	0.908238	0.230646	-0.000383
C30	C	1.054802	0.233500	-0.000018
C31	C	1.082518	0.085107	0.091166
C32	C	0.935781	0.082948	0.091237
C33	C	0.936028	0.080908	-0.090328
C34	C	1.082318	0.085563	-0.091528
C35	C	1.731799	0.127816	-0.000011
C36	C	1.872720	0.130491	-0.000017
C37	C	1.490755	0.297690	-0.000021
C38	C	1.493437	0.397788	-0.000028
N39	N	1.499698	0.132916	0.248738
N40	N	1.499773	0.132919	-0.248756
C41	C	1.413556	0.193640	0.701003
C42	C	1.585976	0.072199	0.700980
C43	C	1.585960	0.072196	0.600485
C44	C	1.499743	0.132917	0.550243
C45	C	1.413541	0.193641	0.600498
C46	C	1.672170	0.011480	0.550223
C47	C	1.672159	0.011475	0.449721
C48	C	1.585935	0.072192	0.399478
C49	C	1.499728	0.132918	0.449738
C50	C	1.413511	0.193639	0.399497
C51	C	1.327297	0.254361	0.449755
C52	C	1.327317	0.254358	0.550254
C53	C	1.585915	0.072195	0.298979
C54	C	1.413495	0.193639	0.298992
H55	H	1.283890	-0.575311	-0.000013
Br56	Br	1.702993	-0.010197	0.769161
Br57	Br	1.165405	-0.033874	-0.100696
H58	H	0.895176	0.117283	0.159387
H59	H	1.656115	0.022760	0.258063
Br60	Br	1.296470	0.276044	0.230814
H61	H	1.257126	0.303796	0.591181
H62	H	0.865876	0.268885	-0.065771
H63	H	0.914685	0.007218	-0.090939
H64	H	1.827394	-0.309927	0.000031
Br65	Br	1.789187	-0.070916	0.618404
H66	H	1.742357	-0.037968	0.408807
Br67	Br	1.108598	-0.444335	-0.000016
Br68	Br	1.114537	-0.222627	0.000016
Br69	Br	0.835006	0.294016	0.107969
H70	H	1.082760	0.273043	0.065445
Br71	Br	1.296548	0.276040	0.769203
Br72	Br	1.779004	-0.138750	-0.000024
Br73	Br	1.210304	0.336773	0.381560
Br74	Br	1.233931	-0.091562	0.000028
H75	H	1.110546	0.122121	-0.158979
Br76	Br	0.864578	0.132505	-0.205512
Br77	Br	1.103019	0.299018	-0.108955
H78	H	1.822853	-0.480559	-0.000041
Br79	Br	0.898789	-0.039398	0.098209
Br80	Br	1.765523	-0.642597	-0.000062
H81	H	1.130702	0.012852	0.094562
H82	H	1.112978	0.119998	0.159015
