data_functionalizedCrystal
_audit_creation_method	'MofGen! by Chris Wilmer'
_symmetry_space_group_name_H-M	'P1'
_symmetry_Int_Tables_number	1
_symmetry_cell_setting	triclinic
loop_
_symmetry_equiv_pos_as_xyz
  x,y,z
_cell_length_a	25.639242
_cell_length_b	25.639239
_cell_length_c	25.639233
_cell_angle_alpha	89.975333
_cell_angle_beta	90.022166
_cell_angle_gamma	89.964592
loop_
_atom_site_label
_atom_site_type_symbol
_atom_site_fract_x
_atom_site_fract_y
_atom_site_fract_z
Zn1	Zn	0.799221	0.208277	0.295721
Zn2	Zn	1.299221	0.708277	0.795721
Zn3	Zn	0.799142	0.295696	0.208276
Zn4	Zn	1.299142	0.795696	0.708276
Zn5	Zn	0.711797	0.208269	0.208285
Zn6	Zn	1.211797	0.708269	0.708285
Zn7	Zn	0.711740	0.295676	0.295666
Zn8	Zn	1.211740	0.795676	0.795666
O9	O	0.755475	0.251979	0.251987
O10	O	1.255475	0.751979	0.751987
O11	O	0.872375	0.219884	0.284140
O12	O	1.372375	0.719884	0.784140
O13	O	0.787547	0.284103	0.135112
O14	O	1.287547	0.784103	0.635112
O15	O	0.723450	0.135105	0.219910
O16	O	1.223450	0.635105	0.719910
O17	O	0.872318	0.284111	0.219895
O18	O	1.372318	0.784111	0.719895
O19	O	0.787680	0.135111	0.284149
O20	O	1.287680	0.635111	0.784149
O21	O	0.723375	0.219871	0.135118
O22	O	1.223375	0.719871	0.635118
O23	O	0.638624	0.219853	0.219857
O24	O	1.138624	0.719853	0.719857
O25	O	0.723354	0.284078	0.368838
O26	O	1.223354	0.784078	0.868838
O27	O	0.638583	0.284070	0.284055
O28	O	1.138583	0.784070	0.784055
O29	O	0.787625	0.219866	0.368879
O30	O	1.287625	0.719866	0.868879
O31	O	0.787492	0.368858	0.219842
O32	O	1.287492	0.868858	0.719842
O33	O	0.723278	0.368844	0.284047
O34	O	1.223278	0.868844	0.784047
C35	C	0.619633	0.251959	0.251951
C36	C	1.119633	0.751959	0.751951
C37	C	0.561518	0.251963	0.251949
C38	C	1.061518	0.751963	0.751949
C39	C	0.201143	0.285473	0.285383
C40	C	0.701143	0.785473	0.785383
C41	C	0.146538	0.285477	0.285392
C42	C	0.646538	0.785477	0.785392
O43	O	0.118291	0.313943	0.313789
O44	O	0.618291	0.813943	0.813789
N45	N	0.119236	0.251994	0.252021
N46	N	0.619236	0.751994	0.752021
C47	C	0.146541	0.218502	0.218644
C48	C	0.646541	0.718502	0.718644
O49	O	0.118304	0.190022	0.190260
O50	O	0.618304	0.690022	0.690260
C51	C	0.201144	0.218496	0.218638
C52	C	0.701144	0.718496	0.718638
C53	C	0.228444	0.251985	0.252008
C54	C	0.728444	0.751985	0.752008
C55	C	0.228442	0.318959	0.318750
C56	C	0.728442	0.818959	0.818750
C57	C	0.283043	0.318956	0.318741
C58	C	0.783043	0.818956	0.818741
C59	C	0.310344	0.285468	0.285365
C60	C	0.810344	0.785468	0.785365
C61	C	0.283044	0.251983	0.251998
C62	C	0.783044	0.751983	0.751998
C63	C	0.228448	0.185002	0.185264
C64	C	0.728448	0.685002	0.685264
C65	C	0.283055	0.185000	0.185262
C66	C	0.783055	0.685000	0.685262
C67	C	0.310355	0.218488	0.218631
C68	C	0.810355	0.718488	0.718631
C69	C	0.364946	0.218492	0.218614
C70	C	0.864946	0.718492	0.718614
N71	N	0.392248	0.251974	0.251984
N72	N	0.892248	0.751974	0.751984
C73	C	0.364947	0.285463	0.285360
C74	C	0.864947	0.785463	0.785360
C75	C	0.031870	0.218515	0.218658
C76	C	0.531870	0.718515	0.718658
C77	C	-0.022732	0.218523	0.218660
C78	C	0.477268	0.718523	0.718660
C79	C	-0.022731	0.285497	0.285409
C80	C	0.477269	0.785497	0.785409
C81	C	0.031872	0.285492	0.285404
C82	C	0.531872	0.785492	0.785404
C83	C	0.059173	0.251998	0.252028
C84	C	0.559173	0.751998	0.752028
C85	C	0.479612	0.285455	0.285338
C86	C	0.979612	0.785455	0.785338
C87	C	0.534217	0.285451	0.285324
C88	C	1.034217	0.785451	0.785324
C89	C	0.534212	0.218475	0.218578
C90	C	1.034212	0.718475	0.718578
C91	C	0.479611	0.218481	0.218589
C92	C	0.979611	0.718481	0.718589
C93	C	0.452313	0.251972	0.251974
C94	C	0.952313	0.751972	0.751974
O95	O	0.393228	0.190038	0.190232
O96	O	0.893228	0.690038	0.690232
O97	O	0.393190	0.313933	0.313743
O98	O	0.893190	0.813933	0.813743
C99	C	0.755384	0.387822	0.251949
C100	C	1.255384	0.887822	0.751949
C101	C	0.755393	0.445936	0.251950
C102	C	1.255393	0.945936	0.751950
C103	C	0.788867	0.806264	0.285509
C104	C	1.288867	1.306264	0.785509
C105	C	0.788876	0.860868	0.285520
C106	C	1.288876	1.360868	0.785520
O107	O	0.817283	0.889074	0.314005
O108	O	1.317283	1.389074	0.814005
N109	N	0.755469	0.888219	0.252051
N110	N	1.255469	1.388219	0.752051
C111	C	0.722047	0.860962	0.218572
C112	C	1.222047	1.360962	0.718572
O113	O	0.693632	0.889240	0.190106
O114	O	1.193632	1.389240	0.690106
C115	C	0.722036	0.806359	0.218563
C116	C	1.222036	1.306359	0.718563
C117	C	0.755449	0.779011	0.252031
C118	C	1.255449	1.279011	0.752031
C119	C	0.822277	0.778916	0.318974
C120	C	1.322277	1.278916	0.818974
C121	C	0.822269	0.724315	0.318961
C122	C	1.322269	1.224315	0.818961
C123	C	0.788851	0.697062	0.285483
C124	C	1.288851	1.197062	0.785483
C125	C	0.755441	0.724410	0.252018
C126	C	1.255441	1.224410	0.752018
C127	C	0.688612	0.779103	0.185087
C128	C	1.188612	1.279103	0.685087
C129	C	0.688603	0.724496	0.185082
C130	C	1.188603	1.224496	0.685082
C131	C	0.722017	0.697148	0.218549
C132	C	1.222017	1.197148	0.718549
C133	C	0.722015	0.642557	0.218528
C134	C	1.222015	1.142557	0.718528
N135	N	0.755422	0.615207	0.251997
N136	N	1.255422	1.115207	0.751997
C137	C	0.788840	0.642459	0.285474
C138	C	1.288840	1.142459	0.785474
C139	C	0.722071	0.975633	0.218594
C140	C	1.222071	1.475633	0.718594
C141	C	0.722084	1.030235	0.218600
C142	C	1.222084	1.530235	0.718600
C143	C	0.788913	1.030137	0.285549
C144	C	1.288913	1.530137	0.785549
C145	C	0.788902	0.975534	0.285540
C146	C	1.288902	1.475534	0.785540
C147	C	0.755479	0.948282	0.252063
C148	C	1.255479	1.448282	0.752063
C149	C	0.788821	0.527794	0.285445
C150	C	1.288821	1.027794	0.785445
C151	C	0.788812	0.473189	0.285428
C152	C	1.288812	0.973189	0.785428
C153	C	0.721981	0.473291	0.218481
C154	C	1.221981	0.973291	0.718481
C155	C	0.721992	0.527892	0.218496
C156	C	1.221992	1.027892	0.718496
C157	C	0.755414	0.555142	0.251982
C158	C	1.255414	1.055142	0.751982
O159	O	0.693620	0.614316	0.190059
O160	O	1.193620	1.114316	0.690059
O161	O	0.817246	0.614175	0.313941
O162	O	1.317246	1.114175	0.813941
C163	C	0.891848	0.252000	0.252023
C164	C	1.391848	0.752000	0.752023
C165	C	0.949962	0.252009	0.252038
C166	C	1.449962	0.752009	0.752038
C167	C	0.755492	0.251970	0.388360
C168	C	1.255492	0.751970	0.888360
C169	C	0.755499	0.251966	0.446474
C170	C	1.255499	0.751966	0.946474
C171	C	0.755549	1.115606	0.252042
C172	C	1.255549	1.615606	0.752042
C173	C	0.755501	1.057492	0.252080
C174	C	1.255501	1.557492	0.752080
C175	C	0.755488	0.251951	0.116144
C176	C	1.255488	0.751951	0.616144
C177	C	0.755583	0.251807	0.058031
C178	C	1.255583	0.751807	0.558031
C179	C	0.789008	0.218432	0.806864
C180	C	1.289008	0.718432	1.306864
C181	C	0.789014	0.218417	0.861468
C182	C	1.289014	0.718417	1.361468
O183	O	0.817462	0.189967	0.889728
O184	O	1.317462	0.689967	1.389728
N185	N	0.755557	0.251844	0.888757
N186	N	1.255557	0.751844	1.388757
C187	C	0.722087	0.285283	0.861438
C188	C	1.222087	0.785283	1.361438
O189	O	0.693629	0.313713	0.889663
O190	O	1.193629	0.813713	1.389663
C191	C	0.722078	0.285294	0.806835
C192	C	1.222078	0.785294	1.306835
C193	C	0.755542	0.251870	0.779549
C194	C	1.255542	0.751870	1.279549
C195	C	0.822468	0.185009	0.779578
C196	C	1.322468	0.685009	1.279578
C197	C	0.822462	0.185025	0.724977
C198	C	1.322462	0.685025	1.224977
C199	C	0.788996	0.218462	0.697663
C200	C	1.288996	0.718462	1.197663
C201	C	0.755536	0.251885	0.724948
C202	C	1.255536	0.751885	1.224948
C203	C	0.688606	0.318731	0.779517
C204	C	1.188606	0.818731	1.279517
C205	C	0.688600	0.318739	0.724910
C206	C	1.188600	0.818739	1.224910
C207	C	0.722063	0.285314	0.697624
C208	C	1.222063	0.785314	1.197624
C209	C	0.722064	0.285338	0.643033
C210	C	1.222064	0.785338	1.143033
N211	N	0.755521	0.251912	0.615745
N212	N	1.255521	0.751912	1.115745
C213	C	0.788987	0.218474	0.643059
C214	C	1.288987	0.718474	1.143059
C215	C	0.722107	0.285256	0.976109
C216	C	1.222107	0.785256	1.476109
C217	C	0.722118	0.285247	1.030711
C218	C	1.222118	0.785247	1.530711
C219	C	0.789045	0.218381	1.030737
C220	C	1.289045	0.718381	1.530737
C221	C	0.789036	0.218392	0.976134
C222	C	1.289036	0.718392	1.476134
C223	C	0.755565	0.251829	0.948820
C224	C	1.255565	0.751829	1.448820
C225	C	0.788973	0.218509	0.528394
C226	C	1.288973	0.718509	1.028394
C227	C	0.788965	0.218529	0.473789
C228	C	1.288965	0.718529	0.973789
C229	C	0.722037	0.285393	0.473767
C230	C	1.222037	0.785393	0.973767
C231	C	0.722046	0.285375	0.528368
C232	C	1.222046	0.785375	1.028368
C233	C	0.755516	0.251929	0.555680
C234	C	1.255516	0.751929	1.055680
O235	O	0.693629	0.313773	0.614739
O236	O	1.193629	0.813773	1.114739
O237	O	0.817435	0.190044	0.614828
O238	O	1.317435	0.690044	1.114828
H239	H	0.305265	0.346225	0.345915
H240	H	0.805265	0.846225	0.845915
C241	C	0.685240	0.557976	0.181682
C242	C	1.185240	1.057976	0.681682
H243	H	0.665335	0.533922	0.161744
H244	H	1.165335	1.033922	0.661744
H245	H	0.705254	0.579281	0.158928
H246	H	1.205254	1.079281	0.658928
H247	H	0.662445	0.579276	0.201669
H248	H	1.162445	1.079276	0.701669
C249	C	0.685334	1.060314	0.181784
C250	C	1.185334	1.560314	0.681784
H251	H	0.690124	1.096738	0.186580
H252	H	1.190124	1.596738	0.686580
H253	H	0.650199	1.051384	0.189396
H254	H	1.150199	1.551384	0.689396
H255	H	0.693012	1.051381	0.146659
H256	H	1.193012	1.551381	0.646659
C257	C	0.651852	0.809174	0.148276
C258	C	1.151852	1.309174	0.648276
H259	H	0.631946	0.785116	0.128345
H260	H	1.131946	1.285116	0.628345
H261	H	0.671863	0.830475	0.125516
H262	H	1.171863	1.330475	0.625516
H263	H	0.629059	0.830477	0.168261
H264	H	1.129059	1.330477	0.668261
H265	H	0.694875	0.312471	1.052923
H266	H	1.194875	0.812471	1.552923
C267	C	0.825566	0.443107	0.322243
C268	C	1.325566	0.943107	0.822243
H269	H	0.820780	0.406683	0.317440
H270	H	1.320780	0.906683	0.817440
H271	H	0.817891	0.452039	0.357366
H272	H	1.317891	0.952039	0.857366
H273	H	0.860703	0.452035	0.314627
H274	H	1.360703	0.952035	0.814627
H275	H	0.661384	0.702310	0.157821
H276	H	1.161384	1.202310	0.657821
C277	C	-0.052756	0.181689	0.181951
C278	C	0.447244	0.681689	0.681951
H279	H	-0.028671	0.161743	0.162077
H280	H	0.471329	0.661743	0.662077
H281	H	-0.074081	0.201653	0.159133
H282	H	0.425919	0.701653	0.659133
H283	H	-0.074031	0.158935	0.202001
H284	H	0.425969	0.658935	0.702001
C285	C	0.825670	1.060122	0.322377
C286	C	1.325670	1.560122	0.822377
H287	H	0.820885	1.096558	0.317590
H288	H	1.320885	1.596558	0.817590
H289	H	0.860805	1.051154	0.314765
H290	H	1.360805	1.551154	0.814765
H291	H	0.817988	1.051160	0.357499
H292	H	1.317988	1.551160	0.857499
H293	H	0.206219	0.346229	0.345932
H294	H	0.706219	0.846229	0.845932
C295	C	0.651791	0.355494	0.809520
C296	C	1.151791	0.855494	1.309520
H297	H	0.631857	0.375401	0.785424
H298	H	1.131857	0.875401	1.285424
H299	H	0.671767	0.378279	0.830824
H300	H	1.171767	0.878279	1.330824
H301	H	0.629026	0.335479	0.830814
H302	H	1.129026	0.835479	1.330814
C303	C	0.859043	0.808888	0.355799
C304	C	1.359043	1.308888	0.855799
H305	H	0.854269	0.845326	0.351019
H306	H	1.354269	1.345326	0.851019
H307	H	0.894173	0.799909	0.348179
H308	H	1.394173	1.299909	0.848179
H309	H	0.851363	0.799922	0.390920
H310	H	1.351363	1.299922	0.890920
H311	H	0.816110	0.953270	0.312792
H312	H	1.316110	1.453270	0.812792
C313	C	0.564250	0.181638	0.181870
C314	C	1.064250	0.681638	0.681870
H315	H	0.600678	0.186431	0.186651
H316	H	1.100678	0.686431	0.686651
H317	H	0.555283	0.189232	0.146725
H318	H	1.055283	0.689232	0.646725
H319	H	0.555325	0.146520	0.189598
H320	H	1.055325	0.646520	0.689598
H321	H	0.694850	0.312487	0.953873
H322	H	1.194850	0.812487	1.453873
H323	H	0.816217	0.191310	0.451575
H324	H	1.316217	0.691310	0.951575
C325	C	0.859018	0.694237	0.355779
C326	C	1.359018	1.194237	0.855779
H327	H	0.854234	0.657813	0.350981
H328	H	1.354234	1.157813	0.850981
H329	H	0.851341	0.703175	0.390900
H330	H	1.351341	1.203175	0.890900
H331	H	0.894156	0.703165	0.348165
H332	H	1.394156	1.203165	0.848165
H333	H	0.816284	0.191174	0.953922
H334	H	1.316284	0.691174	1.453922
C335	C	0.859290	0.148232	0.809619
C336	C	1.359290	0.648232	1.309619
H337	H	0.854509	0.153006	0.846048
H338	H	1.354509	0.653006	1.346048
H339	H	0.894408	0.155899	0.800668
H340	H	1.394408	0.655899	1.300668
H341	H	0.851666	0.113100	0.800675
H342	H	1.351666	0.613100	1.300675
H343	H	0.206230	0.157734	0.158090
H344	H	0.706230	0.657734	0.658090
H345	H	0.694855	0.953447	0.191328
H346	H	1.194855	1.453447	0.691328
H347	H	0.556442	0.312723	0.312498
H348	H	1.056442	0.812723	0.812498
H349	H	0.816294	0.191153	1.052987
H350	H	1.316294	0.691153	1.552987
C351	C	0.061896	0.181676	0.181937
C352	C	0.561896	0.681676	0.681937
H353	H	0.037812	0.161742	0.162062
H354	H	0.537812	0.661742	0.662062
H355	H	0.083219	0.158920	0.201974
H356	H	0.583219	0.658920	0.701974
H357	H	0.083173	0.201644	0.159112
H358	H	0.583173	0.701644	0.659112
C359	C	0.825589	0.557762	0.322274
C360	C	1.325589	1.057762	0.822274
H361	H	0.845486	0.533648	0.342196
H362	H	1.345486	1.033648	0.842196
H363	H	0.805583	0.579065	0.345042
H364	H	1.305583	1.079065	0.845042
H365	H	0.848390	0.579054	0.302298
H366	H	1.348390	1.079054	0.802298
C367	C	0.651794	0.355534	0.694868
C368	C	1.151794	0.855534	1.194868
H369	H	0.631874	0.375442	0.718942
H370	H	1.131874	0.875442	1.218942
H371	H	0.629022	0.335547	0.673557
H372	H	1.129022	0.835547	1.173557
H373	H	0.671786	0.378324	0.673576
H374	H	1.171786	0.878324	1.173576
H375	H	0.694774	0.451094	0.191222
H376	H	1.194774	0.951094	0.691222
H377	H	0.816225	0.191272	0.550625
H378	H	1.316225	0.691272	1.050625
H379	H	0.054096	0.312760	0.312576
H380	H	0.554096	0.812760	0.812576
C381	C	0.859267	0.148252	0.694970
C382	C	1.359267	0.648252	1.194970
H383	H	0.879192	0.128335	0.719064
H384	H	1.379192	0.628335	1.219064
H385	H	0.882033	0.168255	0.673669
H386	H	1.382033	0.668255	1.173669
H387	H	0.839278	0.125469	0.673671
H388	H	1.339278	0.625469	1.173671
C389	C	0.685241	0.322145	0.558383
C390	C	1.185241	0.822145	1.058383
H391	H	0.665308	0.342060	0.534293
H392	H	1.165308	0.842060	1.034293
H393	H	0.705223	0.344922	0.579689
H394	H	1.205223	0.844922	1.079689
H395	H	0.662474	0.302130	0.579677
H396	H	1.162474	0.802130	1.079677
H397	H	0.694791	0.312619	0.451518
H398	H	1.194791	0.812619	0.951518
H399	H	0.305280	0.157721	0.158087
H400	H	0.805280	0.657721	0.658087
H401	H	0.457383	0.191213	0.191416
H402	H	0.957383	0.691213	0.691416
C403	C	-0.052769	0.322329	0.322127
C404	C	0.447231	0.822329	0.822127
H405	H	-0.089198	0.317529	0.317352
H406	H	0.410802	0.817529	0.817352
H407	H	-0.043848	0.357449	0.314411
H408	H	0.456152	0.857449	0.814411
H409	H	-0.043799	0.314723	0.357271
H410	H	0.456201	0.814723	0.857271
C411	C	0.449592	0.322279	0.322076
C412	C	0.949592	0.822279	0.822076
H413	H	0.473677	0.342216	0.341946
H414	H	0.973677	0.842216	0.841946
H415	H	0.428323	0.302301	0.344895
H416	H	0.928323	0.802301	0.844895
H417	H	0.428260	0.345041	0.302050
H418	H	0.928260	0.845041	0.802050
