data_functionalizedCrystal
_audit_creation_method	'MofGen! by Chris Wilmer'
_symmetry_space_group_name_H-M	'P1'
_symmetry_Int_Tables_number	1
_symmetry_cell_setting	triclinic
loop_
_symmetry_equiv_pos_as_xyz
  x,y,z
_cell_length_a	12.759401
_cell_length_b	16.959453
_cell_length_c	12.759393
_cell_angle_alpha	90.035074
_cell_angle_beta	90.019125
_cell_angle_gamma	90.024465
loop_
_atom_site_label
_atom_site_type_symbol
_atom_site_fract_x
_atom_site_fract_y
_atom_site_fract_z
Zn1	Zn	1.606182	-0.314642	0.593973
Zn2	Zn	1.606045	-0.446844	0.418283
Zn3	Zn	1.430483	-0.314683	0.418311
Zn4	Zn	1.430441	-0.446782	0.593922
O5	O	1.518288	-0.380738	0.506122
O6	O	1.753184	-0.332188	0.570677
O7	O	1.582717	-0.429355	0.271265
O8	O	1.453865	-0.204066	0.441646
O9	O	1.753084	-0.429316	0.441598
O10	O	1.582950	-0.204037	0.570704
O11	O	1.453733	-0.332257	0.271286
O12	O	1.283457	-0.332197	0.441596
O13	O	1.453793	-0.429211	0.740950
O14	O	1.283426	-0.429250	0.570617
O15	O	1.582909	-0.332128	0.740988
O16	O	1.582676	-0.557447	0.441549
O17	O	1.453660	-0.557401	0.570590
C18	C	1.245320	-0.380721	0.506105
C19	C	1.128544	-0.380733	0.506123
C20	C	0.963942	-0.330149	0.439070
C21	C	1.073666	-0.330132	0.439060
C22	C	1.073691	-0.431349	0.573208
C23	C	0.963969	-0.431361	0.573223
C24	C	0.909070	-0.279550	0.371995
C25	C	0.963915	-0.228933	0.304911
C26	C	1.073639	-0.228916	0.304901
C27	C	1.128519	-0.279516	0.371974
C28	C	1.518177	-0.586104	0.506084
C29	C	1.518226	-0.673961	0.506102
C30	C	1.451020	-0.715240	0.573241
C31	C	1.585484	-0.715235	0.438987
C32	C	1.585536	-0.797781	0.439006
C33	C	1.518330	-0.839060	0.506145
C34	C	1.451073	-0.797794	0.573264
C35	C	1.652799	-0.839054	0.371895
C36	C	1.652855	-0.921605	0.371913
C37	C	1.585644	-0.962885	0.439047
C38	C	1.518383	-0.921614	0.506168
C39	C	1.451177	-0.962893	0.573306
C40	C	1.383910	-0.921623	0.640423
C41	C	1.383861	-0.839074	0.640398
C42	C	1.585692	-1.045434	0.439072
C43	C	1.451229	-1.045446	0.573330
C44	C	1.792321	-0.380755	0.506140
C45	C	1.909098	-0.380762	0.506148
C46	C	1.518361	-0.380658	0.780156
C47	C	1.518393	-0.380624	0.896932
C48	C	1.518427	-0.174570	0.506184
C49	C	1.518487	-0.086713	0.506210
C50	C	1.518275	-0.380760	0.233155
C51	C	1.518447	-0.380572	0.116379
C52	C	1.585632	-0.330068	0.951816
C53	C	1.585657	-0.330040	1.061540
C54	C	1.451200	-0.431129	1.061488
C55	C	1.451170	-0.431153	0.951766
C56	C	1.652855	-0.279539	0.896983
C57	C	1.720101	-0.228980	0.951866
C58	C	1.720126	-0.228952	1.061590
C59	C	1.652905	-0.279482	1.116431
H60	H	0.919314	-0.472573	0.627847
C61	C	1.133971	-0.173238	0.231121
H62	H	1.207177	-0.180470	0.240724
H63	H	1.115955	-0.184747	0.160506
H64	H	1.116011	-0.120143	0.246630
H65	H	1.329096	-0.805467	0.695043
H66	H	1.118383	-0.472546	0.627815
H67	H	1.707627	-0.955200	0.317261
H68	H	0.919225	-0.187731	0.250309
H69	H	1.217863	-0.279491	0.371971
H70	H	1.652918	-0.279446	1.205776
C71	C	1.377249	-0.486794	0.891390
H72	H	1.337240	-0.516900	0.939759
H73	H	1.331472	-0.456589	0.848576
H74	H	1.417447	-0.521239	0.848596
H75	H	0.819728	-0.279559	0.371994
H76	H	1.396502	-1.079050	0.628003
C77	C	1.309991	-0.967032	0.714277
H78	H	1.269926	-0.930635	0.754252
H79	H	1.264266	-0.999297	0.674055
H80	H	1.350188	-0.999172	0.760104
C81	C	1.377036	-0.669848	0.647067
H82	H	1.386629	-0.614772	0.637445
H83	H	1.306464	-0.683438	0.631631
H84	H	1.392387	-0.683322	0.717679
C85	C	1.659410	-0.669830	0.365149
H86	H	1.649745	-0.614757	0.374747
H87	H	1.729998	-0.683305	0.380596
H88	H	1.644082	-0.683407	0.294541
C89	C	1.726738	-0.793647	0.298071
H90	H	1.717068	-0.738574	0.307667
H91	H	1.797322	-0.807121	0.313535
H92	H	1.711427	-0.807223	0.227459
C93	C	1.659674	-1.090827	0.365252
H94	H	1.699689	-1.054420	0.325262
H95	H	1.705443	-1.122978	0.405493
H96	H	1.619526	-1.123081	0.319438
H97	H	1.652844	-0.279558	0.807640
C98	C	1.794036	-0.173400	0.891546
H99	H	1.784399	-0.180661	0.818339
H100	H	1.778705	-0.120285	0.909545
H101	H	1.864625	-0.184976	0.909533
C102	C	1.794090	-0.173340	1.121959
H103	H	1.834123	-0.143256	1.073585
H104	H	1.753942	-0.138884	1.164774
H105	H	1.839858	-0.203577	1.164751
H106	H	1.396471	-0.472269	1.106148
