data_functionalizedCrystal
_audit_creation_method	'MofGen! by Chris Wilmer'
_symmetry_space_group_name_H-M	'P1'
_symmetry_Int_Tables_number	1
_symmetry_cell_setting	triclinic
loop_
_symmetry_equiv_pos_as_xyz
  x,y,z
_cell_length_a	14.853567
_cell_length_b	10.489741
_cell_length_c	13.930277
_cell_angle_alpha	89.995758
_cell_angle_beta	89.995755
_cell_angle_gamma	84.087052
loop_
_atom_site_label
_atom_site_type_symbol
_atom_site_fract_x
_atom_site_fract_y
_atom_site_fract_z
O1	O	1.197302	0.166528	-0.079764
O2	O	0.934954	0.186365	-0.079780
O3	O	1.072098	-0.009218	-0.079766
O4	O	1.060158	0.362111	-0.079778
O5	O	1.072078	-0.009222	0.079896
O6	O	0.934935	0.186361	0.079881
O7	O	1.197283	0.166524	0.079898
Zn8	Zn	1.066106	0.176442	0.105239
Zn9	Zn	1.066131	0.176447	-0.105122
O10	O	1.060139	0.362107	0.079883
C11	C	0.901351	0.185464	0.000048
C12	C	0.801252	0.182771	0.000042
C13	C	1.071186	-0.056742	0.000064
C14	C	1.068488	-0.198341	0.000062
C15	C	0.388003	0.055204	0.000068
C16	C	0.368025	0.287562	0.000059
C17	C	0.462072	0.290094	0.000056
C18	C	0.519090	0.175180	0.000057
C19	C	0.482060	0.057733	0.000062
C20	C	0.499110	0.407539	0.000042
C21	C	0.593163	0.410077	0.000038
C22	C	0.650183	0.295161	0.000046
C23	C	0.613147	0.177709	0.000051
C24	C	0.670164	0.062795	0.000053
C25	C	0.633130	-0.054658	0.000065
C26	C	0.539079	-0.057183	0.000070
C27	C	0.744234	0.297685	0.000041
C28	C	0.764221	0.065324	0.000047
C29	C	0.981228	-0.265502	0.000050
C30	C	1.022439	-0.358089	0.078774
C31	C	1.022479	-0.358060	-0.078640
C32	C	1.109736	-0.289063	0.078851
C33	C	1.109763	-0.289024	-0.078633
C34	C	1.151038	-0.381585	0.000110
C35	C	1.230886	0.167425	0.000067
C36	C	1.330985	0.170118	0.000067
C37	C	1.061051	0.409631	0.000051
C38	C	1.063748	0.551230	0.000047
N39	N	1.066095	0.176437	0.248805
N40	N	1.066149	0.176442	-0.248688
C41	C	1.005401	0.263018	0.701068
C42	C	1.126886	0.089867	0.701050
C43	C	1.126875	0.089863	0.600555
C44	C	1.066127	0.176439	0.550311
C45	C	1.005390	0.263019	0.600563
C46	C	1.187617	0.003293	0.550295
C47	C	1.187609	0.003287	0.449793
C48	C	1.126857	0.089858	0.399548
C49	C	1.066117	0.176440	0.449806
C50	C	1.005369	0.263016	0.399563
C51	C	0.944624	0.349593	0.449819
C52	C	0.944638	0.349590	0.550318
C53	C	1.126843	0.089861	0.299049
C54	C	1.005358	0.263017	0.299058
H55	H	0.679566	-0.148221	0.000060
H56	H	0.895166	0.420090	0.408899
C57	C	0.878653	0.443382	0.605009
C58	C	0.823056	0.375292	0.662746
C59	C	0.762272	0.461651	0.713156
H60	H	0.842380	0.494983	0.560809
H61	H	0.911412	0.496541	0.644257
H62	H	0.790299	0.322156	0.623502
H63	H	0.859303	0.323696	0.706964
H64	H	0.795031	0.514809	0.752404
H65	H	0.726005	0.513247	0.668949
H66	H	0.724547	0.415464	0.752342
C67	C	0.306233	0.412420	0.000203
C68	C	0.323093	0.483140	0.082330
C69	C	0.266193	0.598180	0.082489
H70	H	0.244885	0.394278	0.000253
H71	H	0.317560	0.460641	-0.055448
H72	H	0.311759	0.434929	0.137967
H73	H	0.384430	0.501316	0.082298
H74	H	0.277520	0.646401	0.026838
H75	H	0.204849	0.580025	0.082537
H76	H	0.277631	0.646182	0.138207
C77	C	0.498696	-0.184564	0.000027
C78	C	0.404126	-0.162179	0.000002
C79	C	0.366891	-0.279490	-0.000053
H80	H	0.518108	-0.231988	0.055690
H81	H	0.518165	-0.231895	-0.055672
H82	H	0.384664	-0.114868	0.055695
H83	H	0.384688	-0.114774	-0.055657
H84	H	0.386361	-0.326821	-0.055753
H85	H	0.386310	-0.326905	0.055611
H86	H	0.302722	-0.264318	-0.000080
H87	H	0.357845	-0.040424	0.000082
H88	H	1.146618	-0.258647	0.145481
H89	H	1.176349	0.019385	0.741962
C90	C	0.633237	0.537688	-0.000120
C91	C	0.604311	0.607175	-0.082253
C92	C	0.641196	0.724745	-0.082423
H93	H	0.697415	0.522934	-0.000170
H94	H	0.613685	0.585075	0.055527
H95	H	0.623868	0.559799	-0.137885
H96	H	0.540138	0.621964	-0.082220
H97	H	0.621644	0.772132	-0.026775
H98	H	0.705373	0.709978	-0.082470
H99	H	0.621568	0.771911	-0.138144
C100	C	0.784322	0.425281	-0.000123
C101	C	0.755403	0.494766	-0.082259
C102	C	0.792303	0.612326	-0.082434
H103	H	0.848499	0.410512	-0.000173
H104	H	0.764774	0.472676	0.055522
H105	H	0.774956	0.447382	-0.137889
H106	H	0.691231	0.509570	-0.082226
H107	H	0.772755	0.659721	-0.026789
H108	H	0.856479	0.597544	-0.082481
H109	H	0.772680	0.659491	-0.138158
C110	C	1.253469	-0.090639	0.605017
C111	C	1.240456	-0.072133	0.703786
C112	C	1.301096	-0.158656	0.754230
H113	H	1.313763	-0.076710	0.588655
H114	H	1.243123	-0.175821	0.588609
H115	H	1.250809	0.013029	0.720188
H116	H	1.180174	-0.086072	0.720176
H117	H	1.290750	-0.243838	0.737822
H118	H	1.361386	-0.144720	0.737861
H119	H	1.292270	-0.146120	0.821250
H120	H	1.237070	-0.067210	0.408880
H121	H	0.909483	-0.215045	0.000125
H122	H	1.222848	-0.431815	0.000158
H123	H	0.452680	0.501096	0.000031
H124	H	0.985509	-0.388688	0.145325
H125	H	1.146662	-0.258392	-0.145188
H126	H	0.985554	-0.388607	-0.145202
H127	H	0.955886	0.333514	0.258155
H128	H	0.955941	0.333505	0.741990
H129	H	0.810640	-0.028255	0.000051
C130	C	1.192826	-0.004267	0.244658
C131	C	1.246018	-0.080101	0.310170
C132	C	1.306806	-0.166844	0.260102
H133	H	1.230727	0.041569	0.205437
H134	H	1.160074	-0.057525	0.205486
H135	H	1.278768	-0.026851	0.349325
H136	H	1.208143	-0.125965	0.349393
H137	H	1.274054	-0.220101	0.220930
H138	H	1.344700	-0.120997	0.220882
H139	H	1.342898	-0.218315	0.304543
