data_functionalizedCrystal
_audit_creation_method	'MofGen! by Chris Wilmer'
_symmetry_space_group_name_H-M	'P1'
_symmetry_Int_Tables_number	1
_symmetry_cell_setting	triclinic
loop_
_symmetry_equiv_pos_as_xyz
  x,y,z
_cell_length_a	29.839131
_cell_length_b	14.908610
_cell_length_c	14.908308
_cell_angle_alpha	89.826017
_cell_angle_beta	93.261283
_cell_angle_gamma	93.265418
loop_
_atom_site_label
_atom_site_type_symbol
_atom_site_fract_x
_atom_site_fract_y
_atom_site_fract_z
Zn1	Zn	-0.234474	-1.345126	-0.587563
Zn2	Zn	0.265526	-0.845126	-0.087563
Zn3	Zn	-0.305531	-1.353655	-0.437188
Zn4	Zn	0.194469	-0.853655	0.062812
Zn5	Zn	-0.225842	-1.203447	-0.428559
Zn6	Zn	0.274158	-0.703447	0.071441
Zn7	Zn	-0.304993	-1.194683	-0.578837
Zn8	Zn	0.195007	-0.694683	-0.078837
O9	O	-0.267710	-1.274228	-0.508037
O10	O	0.232290	-0.774228	-0.008037
O11	O	-0.247737	-1.472081	-0.574878
O12	O	0.252263	-0.972081	-0.074878
O13	O	-0.291573	-1.340967	-0.310220
O14	O	0.208427	-0.840967	0.189780
O15	O	-0.164123	-1.222340	-0.449692
O16	O	0.335877	-0.722340	0.050308
O17	O	-0.299943	-1.478347	-0.464399
O18	O	0.200057	-0.978347	0.035601
O19	O	-0.170466	-1.326431	-0.566511
O20	O	0.329534	-0.826431	-0.066511
O21	O	-0.233025	-1.230610	-0.303880
O22	O	0.266975	-0.730610	0.196120
O23	O	-0.232504	-1.076462	-0.441231
O24	O	0.267496	-0.576462	0.058769
O25	O	-0.299027	-1.207402	-0.705818
O26	O	0.200973	-0.707402	-0.205818
O27	O	-0.290656	-1.070022	-0.551639
O28	O	0.209344	-0.570022	-0.051639
O29	O	-0.247216	-1.317932	-0.712229
O30	O	0.252784	-0.817932	-0.212229
O31	O	-0.368323	-1.332468	-0.455938
O32	O	0.131677	-0.832468	0.044062
O33	O	-0.367928	-1.215672	-0.560006
O34	O	0.132072	-0.715672	-0.060006
C35	C	-0.260585	-1.040617	-0.494552
C36	C	0.239415	-0.540617	0.005448
C37	C	-0.257549	-0.940677	-0.488805
C38	C	0.242451	-0.440677	0.011195
C39	C	-0.222952	-0.803135	-0.423315
C40	C	0.277048	-0.303135	0.076685
C41	C	-0.225803	-0.897039	-0.428711
C42	C	0.274197	-0.397039	0.071289
C43	C	-0.286445	-0.890404	-0.543507
C44	C	0.213555	-0.390404	-0.043507
C45	C	-0.283594	-0.796500	-0.538111
C46	C	0.216406	-0.296500	-0.038111
C47	C	-0.251847	-0.752870	-0.478011
C48	C	0.248153	-0.252870	0.021989
C49	C	-0.248999	-0.658965	-0.472611
C50	C	0.251001	-0.158965	0.027389
C51	C	-0.309638	-0.652331	-0.587411
C52	C	0.190362	-0.152331	-0.087411
C53	C	-0.312489	-0.746234	-0.592808
C54	C	0.187511	-0.246234	-0.092808
C55	C	-0.384426	-1.274068	-0.507983
C56	C	0.115574	-0.774068	-0.007983
C57	C	-0.434362	-1.274080	-0.507995
C58	C	0.065638	-0.774080	-0.007995
C59	C	-0.744209	-1.335143	-0.453938
C60	C	-0.244209	-0.835143	0.046062
C61	C	-0.931886	-1.335252	-0.453980
C62	C	-0.431886	-0.835252	0.046020
O63	O	-0.956320	-1.387043	-0.407977
O64	O	-0.456320	-0.887043	0.092023
N65	N	-0.955160	-1.274410	-0.508115
N66	N	-0.455160	-0.774410	-0.008115
C67	C	-0.931511	-1.213541	-0.562249
C68	C	-0.431511	-0.713541	-0.062249
O69	O	-0.955613	-1.161800	-0.608302
O70	O	-0.455613	-0.661800	-0.108302
C71	C	-0.743835	-1.213437	-0.562212
C72	C	-0.243835	-0.713437	-0.062212
C73	C	-0.720563	-1.274277	-0.508066
C74	C	-0.220563	-0.774277	-0.008066
C75	C	-0.720938	-1.395979	-0.399798
C76	C	-0.220938	-0.895979	0.100202
C77	C	-0.674021	-1.395947	-0.399784
C78	C	-0.174021	-0.895947	0.100216
C79	C	-0.650375	-1.335081	-0.453912
C80	C	-0.150375	-0.835081	0.046088
C81	C	-0.673647	-1.274245	-0.508052
C82	C	-0.173647	-0.774245	-0.008052
C83	C	-0.720187	-1.152572	-0.616350
C84	C	-0.220187	-0.652572	-0.116350
C85	C	-0.673265	-1.152553	-0.616337
C86	C	-0.173265	-0.652553	-0.116337
C87	C	-0.649994	-1.213393	-0.562191
C88	C	-0.149994	-0.713393	-0.062191
C89	C	-0.603084	-1.213348	-0.562166
C90	C	-0.103084	-0.713348	-0.062166
N91	N	-0.579811	-1.274190	-0.508031
N92	N	-0.079811	-0.774190	-0.008031
C93	C	-0.603457	-1.335056	-0.453903
C94	C	-0.103457	-0.835056	0.046097
C95	C	-1.030044	-1.213599	-0.562263
C96	C	-0.530044	-0.713599	-0.062263
C97	C	-1.076962	-1.213623	-0.562271
C98	C	-0.576962	-0.713623	-0.062271
C99	C	-1.077334	-1.335336	-0.454003
C100	C	-0.577334	-0.835336	0.045997
C101	C	-1.030415	-1.335306	-0.453991
C102	C	-0.530415	-0.835306	0.046009
C103	C	-1.006770	-1.274440	-0.508128
C104	C	-0.506770	-0.774440	-0.008128
C105	C	-0.504928	-1.334986	-0.453879
C106	C	-0.004928	-0.834986	0.046121
C107	C	-0.458007	-1.334947	-0.453867
C108	C	0.041993	-0.834947	0.046133
C109	C	-0.457639	-1.213238	-0.562138
C110	C	0.042361	-0.713238	-0.062138
C111	C	-0.504556	-1.213273	-0.562147
C112	C	-0.004556	-0.713273	-0.062147
C113	C	-0.528199	-1.274155	-0.508014
C114	C	-0.028199	-0.774155	-0.008014
O115	O	-0.578623	-1.161591	-0.608152
O116	O	-0.078623	-0.661591	-0.108152
O117	O	-0.579347	-1.386803	-0.407872
O118	O	-0.079347	-0.886803	0.092128
C119	C	-0.791126	-1.335174	-0.453952
C120	C	-0.291126	-0.835174	0.046048
C121	C	-0.814397	-1.274339	-0.508093
C122	C	-0.314397	-0.774339	-0.008093
C123	C	-0.790751	-1.213472	-0.562220
C124	C	-0.290751	-0.713472	-0.062220
C125	C	-0.861316	-1.274364	-0.508101
C126	C	-0.361316	-0.774364	-0.008101
C127	C	-0.884961	-1.335230	-0.453974
C128	C	-0.384961	-0.835230	0.046026
C129	C	-0.861688	-1.396072	-0.399838
C130	C	-0.361688	-0.896072	0.100162
C131	C	-0.814771	-1.396041	-0.399824
C132	C	-0.314771	-0.896041	0.100176
C133	C	-0.814025	-1.152630	-0.616356
C134	C	-0.314025	-0.652630	-0.116356
C135	C	-0.860941	-1.152666	-0.616364
C136	C	-0.360941	-0.652666	-0.116364
C137	C	-0.884587	-1.213532	-0.562237
C138	C	-0.384587	-0.713532	-0.062237
C139	C	-0.150539	-1.274412	-0.508112
C140	C	0.349461	-0.774412	-0.008112
C141	C	-0.100608	-1.274490	-0.508144
C142	C	0.399392	-0.774490	-0.008144
C143	C	-0.274024	-1.260738	-0.742560
C144	C	0.225976	-0.760738	-0.242560
C145	C	-0.276715	-1.254990	-0.842500
C146	C	0.223285	-0.754990	-0.342500
C147	C	-0.274859	-0.508751	-0.521567
C148	C	0.225141	-0.008751	-0.021567
C149	C	-0.277895	-0.608692	-0.527314
C150	C	0.222105	-0.108692	-0.027314
C151	C	-0.227810	-1.359280	-1.036976
C152	C	0.272190	-0.859280	-0.536976
C153	C	-0.230337	-1.353881	-1.130878
C154	C	0.269663	-0.853881	-0.630878
C155	C	-0.284292	-1.238790	-1.124210
C156	C	0.215708	-0.738790	-0.624210
C157	C	-0.281766	-1.244189	-1.030307
C158	C	0.218234	-0.744189	-0.530307
C159	C	-0.253524	-1.304436	-0.986694
C160	C	0.246476	-0.804436	-0.486694
C161	C	-0.251000	-1.309839	-0.892789
C162	C	0.249000	-0.809839	-0.392789
C163	C	-0.304953	-1.194744	-0.886123
C164	C	0.195047	-0.694744	-0.386123
C165	C	-0.307480	-1.189346	-0.980025
C166	C	0.192520	-0.689346	-0.480025
C167	C	-0.261389	-1.287717	-0.274428
C168	C	0.238611	-0.787717	0.225572
C169	C	-0.258578	-1.293640	-0.174499
C170	C	0.241422	-0.793640	0.325501
H171	H	-0.202272	-0.937962	-0.384174
H172	H	0.297728	-0.437962	0.115826
O173	O	-1.005321	-1.400941	-0.395602
O174	O	-0.505321	-0.900941	0.104398
H175	H	-0.986395	-1.444325	-0.438524
H176	H	-0.486395	-0.944325	0.061476
O177	O	-0.202595	-1.413023	-1.185107
O178	O	0.297405	-0.913023	-0.685107
H179	H	-0.209090	-1.399140	-1.257731
H180	H	0.290910	-0.899140	-0.757731
H181	H	-0.338335	-0.781771	-0.641741
H182	H	0.161665	-0.281771	-0.141741
O183	O	-0.745279	-1.086951	-0.674753
O184	O	-0.245279	-0.586951	-0.174753
H185	H	-0.769084	-1.124536	-0.722855
H186	H	-0.269084	-0.624536	-0.222855
H187	H	-0.228005	-1.358897	-0.857281
H188	H	0.271995	-0.858897	-0.357281
O189	O	-0.432907	-1.400578	-0.395476
O190	O	0.067093	-0.900578	0.104524
H191	H	-0.439567	-1.389292	-0.324010
H192	H	0.060433	-0.889292	0.175990
H193	H	-0.333166	-0.611394	-0.631949
H194	H	0.166834	-0.111394	-0.131949
O195	O	-0.214763	-0.611890	-0.407794
O196	O	0.285237	-0.111890	0.092206
H197	H	-0.180481	-0.629046	-0.424384
H198	H	0.319519	-0.129046	0.075616
H199	H	-0.524173	-1.384563	-0.409801
H200	H	-0.024173	-0.884563	0.090199
H201	H	-1.010795	-1.164032	-0.606349
H202	H	-0.510795	-0.664032	-0.106349
O203	O	-1.102842	-1.401003	-0.395638
O204	O	-0.602842	-0.901003	0.104362
H205	H	-1.139377	-1.390802	-0.404756
H206	H	-0.639377	-0.890802	0.095244
H207	H	-0.312289	-0.925944	-0.592442
H208	H	0.187711	-0.425944	-0.092442
O209	O	-1.102061	-1.147995	-0.620659
O210	O	-0.602061	-0.647995	-0.120659
H211	H	-1.095406	-1.159300	-0.692125
H212	H	-0.595406	-0.659300	-0.192125
H213	H	-0.654016	-1.102990	-0.660425
H214	H	-0.154016	-0.602990	-0.160425
O215	O	-0.648924	-1.461580	-0.341398
O216	O	-0.148924	-0.961580	0.158602
H217	H	-0.673255	-1.503911	-0.303776
H218	H	-0.173255	-1.003911	0.196224
H219	H	-0.740185	-1.445548	-0.355721
H220	H	-0.240185	-0.945548	0.144279
O221	O	-0.332676	-1.135547	-0.831903
O222	O	0.167324	-0.635547	-0.331903
H223	H	-0.368891	-1.149859	-0.850786
H224	H	0.131109	-0.649859	-0.350786
O225	O	-0.188714	-0.756066	-0.358497
O226	O	0.311286	-0.256066	0.141503
H227	H	-0.169099	-0.806797	-0.321370
H228	H	0.330901	-0.306797	0.178630
O229	O	-0.529660	-1.147654	-0.620542
O230	O	-0.029660	-0.647654	-0.120542
H231	H	-0.505333	-1.105328	-0.658181
H232	H	-0.005333	-0.605328	-0.158181
O233	O	-0.197358	-1.424267	-0.989927
O234	O	0.302642	-0.924267	-0.489927
H235	H	-0.172126	-1.386524	-0.944828
H236	H	0.327874	-0.886524	-0.444828
O237	O	-0.432132	-1.147594	-0.620523
O238	O	0.067868	-0.647594	-0.120523
H239	H	-0.395598	-1.157808	-0.611420
H240	H	0.104402	-0.657808	-0.111420
H241	H	-0.795827	-1.445582	-0.355734
H242	H	-0.295827	-0.945582	0.144266
O243	O	-0.887196	-1.461741	-0.341474
O244	O	-0.387196	-0.961741	0.158526
H245	H	-0.923731	-1.451543	-0.350598
H246	H	-0.423731	-0.951543	0.149402
O247	O	-0.886040	-1.087043	-0.674769
O248	O	-0.386040	-0.587043	-0.174769
H249	H	-0.861711	-1.044724	-0.712409
H250	H	-0.361711	-0.544724	-0.212409
H251	H	-0.794776	-1.103067	-0.660434
H252	H	-0.294776	-0.603067	-0.160434
O253	O	-0.314743	-1.173798	-1.171256
O254	O	0.185257	-0.673798	-0.671256
H255	H	-0.312177	-1.179258	-1.244999
H256	H	0.187823	-0.679258	-0.744999
O257	O	-0.337937	-1.124363	-1.027066
O258	O	0.162063	-0.624363	-0.527066
H259	H	-0.335376	-1.129823	-1.100811
H260	H	0.164624	-0.629823	-0.600811
