data_functionalizedCrystal
_audit_creation_method	'MofGen! by Chris Wilmer'
_symmetry_space_group_name_H-M	'P1'
_symmetry_Int_Tables_number	1
_symmetry_cell_setting	triclinic
loop_
_symmetry_equiv_pos_as_xyz
  x,y,z
_cell_length_a	15.297475
_cell_length_b	13.897447
_cell_length_c	15.298431
_cell_angle_alpha	99.710214
_cell_angle_beta	91.630971
_cell_angle_gamma	80.322510
loop_
_atom_site_label
_atom_site_type_symbol
_atom_site_fract_x
_atom_site_fract_y
_atom_site_fract_z
Zn1	Zn	1.253550	-0.481798	0.726675
Zn2	Zn	1.753550	0.018202	1.226675
Zn3	Zn	1.278794	-0.674907	0.580184
Zn4	Zn	1.778794	-0.174907	1.080184
Zn5	Zn	1.132397	-0.491178	0.554901
Zn6	Zn	1.632397	0.008822	1.054901
Zn7	Zn	1.107040	-0.620596	0.701321
Zn8	Zn	1.607040	-0.120596	1.201321
O9	O	1.192945	-0.567120	0.640770
O10	O	1.692945	-0.067120	1.140770
O11	O	1.379481	-0.526219	0.728434
O12	O	1.879481	-0.026219	1.228434
O13	O	1.280551	-0.677190	0.454245
O14	O	1.780551	-0.177190	0.954245
O15	O	1.148516	-0.354956	0.577717
O16	O	1.648516	0.145044	1.077717
O17	O	1.398028	-0.668095	0.620807
O18	O	1.898028	-0.168095	1.120807
O19	O	1.237526	-0.348064	0.703919
O20	O	1.737526	0.151936	1.203919
O21	O	1.172994	-0.542206	0.435671
O22	O	1.672994	-0.042206	0.935671
O23	O	1.006451	-0.489542	0.553133
O24	O	1.506451	0.010458	1.053133
O25	O	1.105297	-0.575529	0.827269
O26	O	1.605297	-0.075529	1.327269
O27	O	0.987821	-0.584624	0.660707
O28	O	1.487821	-0.084624	1.160707
O29	O	1.212938	-0.473555	0.845896
O30	O	1.712938	0.026445	1.345896
O31	O	1.255963	-0.802681	0.596223
O32	O	1.755963	-0.302681	1.096223
O33	O	1.129776	-0.762779	0.685222
O34	O	1.629776	-0.262779	1.185222
C35	C	0.965351	-0.532208	0.601425
C36	C	1.465351	-0.032208	1.101425
C37	C	0.867982	-0.517291	0.584614
C38	C	1.367982	-0.017291	1.084614
C39	C	1.192877	-0.817728	0.640738
C40	C	1.692877	-0.317728	1.140738
C41	C	1.192923	-0.924945	0.640767
C42	C	1.692923	-0.424945	1.140767
C43	C	0.554874	-0.673739	0.760924
C44	C	1.054874	-0.173739	1.260924
C45	C	0.646357	-0.687762	0.776716
C46	C	1.146357	-0.187762	1.276716
C47	C	0.701768	-0.645145	0.728693
C48	C	1.201768	-0.145145	1.228693
C49	C	0.665686	-0.588504	0.664873
C50	C	1.165686	-0.088504	1.164873
C51	C	0.574195	-0.574486	0.649074
C52	C	1.074195	-0.074486	1.149074
C53	C	0.721089	-0.545892	0.616843
C54	C	1.221089	-0.045892	1.116843
C55	C	0.685007	-0.489251	0.553023
C56	C	1.185007	0.010749	1.053023
C57	C	0.593524	-0.475235	0.537228
C58	C	1.093524	0.024765	1.037228
C59	C	0.538114	-0.517852	0.585251
C60	C	1.038114	-0.017852	1.085251
C61	C	0.812580	-0.559910	0.632642
C62	C	1.312580	-0.059910	1.132642
C63	C	0.831901	-0.460657	0.520792
C64	C	1.331901	0.039343	1.020792
C65	C	0.740418	-0.446634	0.504999
C66	C	1.240418	0.053366	1.004999
C67	C	1.192962	-1.012017	0.640794
C68	C	1.692962	-0.512017	1.140794
C69	C	1.193020	-1.121254	0.640827
C70	C	1.693020	-0.621254	1.140827
C71	C	1.421427	-0.602169	0.680269
C72	C	1.921427	-0.102169	1.180269
C73	C	1.518793	-0.617105	0.697101
C74	C	2.018793	-0.117105	1.197101
C75	C	1.153473	-0.517437	0.869256
C76	C	1.653473	-0.017437	1.369256
C77	C	1.136652	-0.496265	0.966623
C78	C	1.636652	0.003735	1.466623
C79	C	1.193034	-0.315533	0.640826
C80	C	1.693034	0.184467	1.140826
C81	C	1.193071	-0.208322	0.640850
C82	C	1.693071	0.291678	1.140850
C83	C	1.232314	-0.616548	0.413182
C84	C	1.732314	-0.116548	0.913182
C85	C	1.249304	-0.637474	0.315845
C86	C	1.749304	-0.137474	0.815845
C87	C	1.072749	-0.416036	1.002688
C88	C	1.572749	0.083964	1.502688
C89	C	1.056934	-0.396143	1.094167
C90	C	1.556934	0.103857	1.594167
C91	C	1.105025	-0.456474	1.149591
C92	C	1.605025	0.043526	1.649591
C93	C	1.168934	-0.536701	1.113527
C94	C	1.668934	-0.036701	1.613527
C95	C	1.184746	-0.556600	1.022038
C96	C	1.684746	-0.056600	1.522038
C97	C	1.217022	-0.597038	1.168941
C98	C	1.717022	-0.097038	1.668941
C99	C	1.280931	-0.677265	1.132877
C100	C	1.780931	-0.177265	1.632877
C101	C	1.296741	-0.697160	1.041396
C102	C	1.796741	-0.197160	1.541396
C103	C	1.248649	-0.636830	0.985973
C104	C	1.748649	-0.136830	1.485973
C105	C	1.201210	-0.577139	1.260430
C106	C	1.701210	-0.077139	1.760430
C107	C	1.313207	-0.717703	1.279780
C108	C	1.813207	-0.217703	1.779780
C109	C	1.329023	-0.737596	1.188300
C110	C	1.829023	-0.237596	1.688300
H111	H	0.776257	-0.656565	0.741555
H112	H	1.276257	-0.156565	1.241555
H113	H	0.675729	-0.733882	0.828677
H114	H	1.175729	-0.233882	1.328677
H115	H	1.261526	-0.653019	0.911482
H116	H	1.761526	-0.153019	1.411482
H117	H	1.033595	-0.366928	0.957554
H118	H	1.533595	0.133072	1.457554
O119	O	0.500920	-0.715029	0.807514
O120	O	1.000920	-0.215029	1.307514
C121	C	0.412440	-0.690534	0.779864
C122	C	0.912440	-0.190534	1.279864
H123	H	0.404893	-0.620342	0.749139
H124	H	0.904893	-0.120342	1.249139
H125	H	0.366342	-0.677603	0.839462
H126	H	0.866342	-0.177603	1.339462
H127	H	0.394537	-0.753849	0.728633
H128	H	0.894537	-0.253849	1.228633
H129	H	1.348768	-0.762497	1.012034
H130	H	1.848768	-0.262497	1.512034
O131	O	0.449217	-0.504218	0.570064
O132	O	0.949217	-0.004218	1.070064
C133	C	0.404152	-0.456633	0.648775
C134	C	0.904152	0.043367	1.148775
H135	H	0.448170	-0.470289	0.708315
H136	H	0.948170	0.029711	1.208315
H137	H	0.340277	-0.487446	0.653708
H138	H	0.840277	0.012554	1.153708
H139	H	0.387566	-0.373688	0.647950
H140	H	0.887566	0.126312	1.147950
O141	O	1.359843	-0.776441	1.333557
O142	O	1.859843	-0.276441	1.833557
C143	C	1.344544	-0.874507	1.307867
C144	C	1.844544	-0.374507	1.807867
H145	H	1.278911	-0.874116	1.270612
H146	H	1.778911	-0.374116	1.770612
H147	H	1.341671	-0.910224	1.369330
H148	H	1.841671	-0.410224	1.869330
H149	H	1.400678	-0.918478	1.262886
H150	H	1.900678	-0.418478	1.762886
H151	H	1.381058	-0.802918	1.158924
H152	H	1.881058	-0.302918	1.658924
H153	H	1.092146	-0.440271	1.224077
H154	H	1.592146	0.059729	1.724077
O155	O	1.139035	-0.499325	1.295479
O156	O	1.639035	0.000675	1.795479
C157	C	1.073301	-0.534046	1.338619
C158	C	1.573301	-0.034046	1.838619
H159	H	1.072629	-0.615182	1.310103
H160	H	1.572629	-0.115182	1.810103
H161	H	1.005722	-0.488596	1.327999
H162	H	1.505722	0.011404	1.827999
H163	H	1.088396	-0.526438	1.412638
H164	H	1.588396	-0.026438	1.912638
O165	O	0.885821	-0.419411	0.474111
O166	O	1.385821	0.080589	0.974111
C167	C	0.948495	-0.494660	0.426564
C168	C	1.448495	0.005340	0.926564
H169	H	0.956873	-0.563218	0.459710
H170	H	1.456873	-0.063218	0.959710
H171	H	1.014852	-0.467747	0.425999
H172	H	1.514852	0.032253	0.925999
H173	H	0.924442	-0.513862	0.355539
H174	H	1.424442	-0.013862	0.855539
H175	H	0.564151	-0.429126	0.485252
H176	H	1.064151	0.070874	0.985252
H177	H	0.711027	-0.400516	0.453036
H178	H	1.211027	0.099484	0.953036
H179	H	1.004896	-0.330825	1.123524
H180	H	1.504896	0.169175	1.623524
H181	H	0.841949	-0.606027	0.684605
H182	H	1.341949	-0.106027	1.184605
