data_functionalizedCrystal
_audit_creation_method	'MofGen! by Chris Wilmer'
_symmetry_space_group_name_H-M	'P1'
_symmetry_Int_Tables_number	1
_symmetry_cell_setting	triclinic
loop_
_symmetry_equiv_pos_as_xyz
  x,y,z
_cell_length_a	16.959455
_cell_length_b	18.050590
_cell_length_c	16.959447
_cell_angle_alpha	89.968143
_cell_angle_beta	89.977004
_cell_angle_gamma	90.015572
loop_
_atom_site_label
_atom_site_type_symbol
_atom_site_fract_x
_atom_site_fract_y
_atom_site_fract_z
Zn1	Zn	1.208413	-0.295703	-0.447028
Zn2	Zn	1.208333	-0.419905	-0.314846
Zn3	Zn	1.076235	-0.295727	-0.314852
Zn4	Zn	1.076209	-0.419849	-0.446971
O5	O	1.142297	-0.357796	-0.380924
O6	O	1.319013	-0.312192	-0.429516
O7	O	1.190787	-0.403466	-0.204236
O8	O	1.093813	-0.191799	-0.332412
O9	O	1.318954	-0.403443	-0.332402
O10	O	1.190923	-0.191782	-0.429521
O11	O	1.093735	-0.312232	-0.204240
O12	O	0.965621	-0.312179	-0.332356
O13	O	1.093769	-0.403348	-0.557590
O14	O	0.965602	-0.403371	-0.429423
O15	O	1.190898	-0.312138	-0.557632
O16	O	1.190762	-0.523822	-0.332347
O17	O	1.093691	-0.523781	-0.429418
C18	C	0.936931	-0.357772	-0.380885
C19	C	0.849075	-0.357779	-0.380886
C20	C	0.477558	-0.405263	-0.330332
C21	C	0.477640	-0.310391	-0.431613
C22	C	0.560186	-0.310378	-0.431594
C23	C	0.601422	-0.357810	-0.380944
C24	C	0.560111	-0.405254	-0.330313
C25	C	0.601503	-0.262941	-0.482230
C26	C	0.684054	-0.262927	-0.482214
C27	C	0.725291	-0.310356	-0.431559
C28	C	0.683975	-0.357801	-0.380925
C29	C	0.725211	-0.405232	-0.330274
C30	C	0.683897	-0.452674	-0.279636
C31	C	0.601348	-0.452682	-0.279657
C32	C	0.807839	-0.310348	-0.431537
C33	C	0.807764	-0.405223	-0.330255
C34	C	1.142237	-0.550748	-0.380893
C35	C	1.142283	-0.633294	-0.380906
C36	C	1.195180	-0.832740	-0.328192
C37	C	1.214486	-0.882069	-0.400335
C38	C	1.142328	-0.784424	-0.380937
C39	C	1.123102	-0.882176	-0.308827
C40	C	1.142373	-0.930409	-0.380962
C41	C	1.161671	-0.832667	-0.453118
C42	C	1.070254	-0.832769	-0.361562
C43	C	1.089532	-0.882077	-0.433754
C44	C	1.142304	-0.700326	-0.380922
C45	C	1.142396	-1.014506	-0.380985
C46	C	1.348466	-0.357821	-0.380965
C47	C	1.436322	-0.357832	-0.380982
C48	C	1.142340	-0.357734	-0.587093
C49	C	1.142358	-0.357708	-0.674949
C50	C	1.142380	-0.164090	-0.380973
C51	C	1.142415	-0.081545	-0.380994
C52	C	1.091897	-0.310129	-1.046434
C53	C	1.192958	-0.405131	-1.046417
C54	C	1.192944	-0.405148	-0.963871
C55	C	1.142405	-0.357656	-0.922603
C56	C	1.091880	-0.310146	-0.963880
C57	C	1.243462	-0.452662	-0.922587
C58	C	1.243450	-0.452682	-0.840036
C59	C	1.192915	-0.405185	-0.798766
C60	C	1.142388	-0.357673	-0.840049
C61	C	1.091850	-0.310181	-0.798780
C62	C	1.041327	-0.262665	-0.840062
C63	C	1.041345	-0.262650	-0.922610
C64	C	1.192896	-0.405200	-0.716218
C65	C	1.091833	-0.310198	-0.716227
C66	C	1.142301	-0.357804	-0.175558
C67	C	1.142436	-0.357621	-0.087702
H68	H	0.444061	-0.271778	-0.472855
O69	O	0.986824	-0.211438	-0.795544
H70	H	0.924782	-0.224161	-0.811363
O71	O	1.254390	-0.804045	-0.269156
H72	H	1.253454	-0.742561	-0.269264
H73	H	0.717684	-0.224297	-0.523446
O74	O	1.037328	-0.258967	-0.671718
H75	H	0.975288	-0.271689	-0.687541
O76	O	1.247461	-0.456352	-1.090929
H77	H	1.233873	-0.514640	-1.075066
O78	O	1.101441	-0.910852	-0.228010
H79	H	1.046924	-0.944656	-0.232176
O80	O	1.030350	-0.910592	-0.492915
H81	H	1.030422	-0.972079	-0.492150
O82	O	1.297969	-0.503885	-0.967094
H83	H	1.289499	-0.495882	-1.031430
O84	O	0.728380	-0.503828	-0.225005
H85	H	0.712543	-0.562134	-0.238452
H86	H	0.567703	-0.491307	-0.238430
H87	H	0.841473	-0.271723	-0.472767
H88	H	0.567923	-0.224329	-0.523472
H89	H	1.275457	-0.903726	-0.416738
O90	O	1.183339	-0.803993	-0.533934
H91	H	1.183182	-0.742506	-0.533281
O92	O	0.989518	-0.804046	-0.339808
H93	H	0.973672	-0.823838	-0.279885
O94	O	0.986870	-0.211389	-0.967131
H95	H	0.995374	-0.219357	-1.031465
H96	H	1.050765	-0.271440	-1.080048
H97	H	1.234037	-0.443882	-0.682611
O98	O	0.852240	-0.456380	-0.275622
H99	H	0.809642	-0.489371	-0.240420
O100	O	0.433007	-0.456431	-0.275714
H101	H	0.368677	-0.448474	-0.284234
H102	H	1.284588	-0.491373	-0.806432
