data_functionalizedCrystal
_audit_creation_method	'MofGen! by Chris Wilmer'
_symmetry_space_group_name_H-M	'P1'
_symmetry_Int_Tables_number	1
_symmetry_cell_setting	triclinic
loop_
_symmetry_equiv_pos_as_xyz
  x,y,z
_cell_length_a	10.723024
_cell_length_b	13.339070
_cell_length_c	9.798715
_cell_angle_alpha	89.999403
_cell_angle_beta	89.996609
_cell_angle_gamma	100.048582
loop_
_atom_site_label
_atom_site_type_symbol
_atom_site_fract_x
_atom_site_fract_y
_atom_site_fract_z
O1	O	1.704930	0.142225	-0.113477
O2	O	1.346348	0.155839	-0.113481
O3	O	1.484486	0.001483	-0.113475
O4	O	1.566793	0.296581	-0.113483
O5	O	1.484471	0.001483	0.113507
O6	O	1.346334	0.155839	0.113501
O7	O	1.704916	0.142225	0.113505
Zn8	Zn	1.525623	0.149032	0.149541
Zn9	Zn	1.525642	0.149032	-0.149517
O10	O	1.566779	0.296581	0.113500
C11	C	1.299509	0.154848	0.000009
C12	C	1.159959	0.151884	0.000008
C13	C	1.470575	-0.036303	0.000014
C14	C	1.429133	-0.148892	0.000008
C15	C	1.113970	0.238253	0.000005
C16	C	0.969739	0.235192	0.000003
C17	C	1.751368	-0.511449	0.000012
C18	C	1.790309	-0.405666	0.000025
C19	C	1.700018	-0.341468	0.000020
C20	C	1.570779	-0.383062	0.000003
C21	C	1.531834	-0.488855	0.000001
C22	C	1.480485	-0.318874	0.000009
C23	C	1.351246	-0.360469	-0.000008
C24	C	1.312308	-0.466252	-0.000012
C25	C	1.402598	-0.530450	-0.000007
C26	C	1.519430	-0.213081	0.000012
C27	C	1.299897	-0.190487	0.000000
C28	C	1.260956	-0.296270	-0.000013
C29	C	1.751755	0.143216	0.000012
C30	C	1.891305	0.146180	0.000004
C31	C	1.580689	0.334367	0.000008
C32	C	1.622132	0.446956	0.000005
N33	N	1.525619	0.149031	0.353641
N34	N	1.525653	0.149025	-0.353617
C35	C	1.583523	0.083935	0.421420
C36	C	1.583542	0.083932	0.578583
H37	H	1.181375	0.314464	0.000011
O38	O	1.642665	0.017351	0.352065
C39	C	1.763603	-0.118501	0.366797
C40	C	1.696647	-0.043163	0.445506
H41	H	1.807288	-0.167431	0.442309
H42	H	1.691904	-0.169446	0.299950
H43	H	1.841268	-0.074342	0.299846
H44	H	1.618988	-0.087239	0.512531
H45	H	1.768424	0.007782	0.512266
H46	H	1.476052	0.204755	0.411964
O47	O	1.212059	-0.128240	-0.000191
C48	C	1.036404	-0.076509	-0.117833
C49	C	1.135783	-0.147085	-0.117776
H50	H	0.974726	-0.091706	-0.212904
H51	H	0.974519	-0.091748	-0.022908
H52	H	1.086464	0.006236	-0.117767
H53	H	1.085828	-0.229855	-0.117889
H54	H	1.197661	-0.131759	-0.212692
H55	H	0.930127	0.309131	-0.000005
O56	O	1.466693	0.215563	0.576717
C57	C	1.488583	0.353813	0.415297
C58	C	1.555504	0.278501	0.494096
H59	H	1.560362	0.404732	0.348501
H60	H	1.410888	0.309734	0.348317
H61	H	1.444960	0.402775	0.490824
H62	H	1.599203	0.229520	0.418667
H63	H	1.633134	0.322642	0.561096
H64	H	0.930908	0.072237	-0.000002
H65	H	1.895534	-0.371808	0.000042
O66	O	1.079608	0.060935	0.000249
C67	C	1.010102	-0.097648	0.117796
C68	C	1.101146	0.005329	0.117711
H69	H	1.027502	-0.142643	0.212740
H70	H	0.908079	-0.083977	0.117883
H71	H	1.027384	-0.142588	0.022761
H72	H	1.083979	0.050323	0.212730
H73	H	1.203138	-0.008413	0.117553
H74	H	1.624656	-0.179225	0.000026
H75	H	1.731732	-0.255335	0.000032
H76	H	1.370899	-0.616589	-0.000023
O77	O	1.839180	-0.573707	-0.000163
C78	C	2.014849	-0.625451	-0.117783
C79	C	1.915480	-0.554866	-0.117741
H80	H	2.076547	-0.610258	-0.212849
H81	H	2.076716	-0.610217	-0.022853
H82	H	1.964781	-0.708194	-0.117717
H83	H	1.965443	-0.472099	-0.117855
H84	H	1.853619	-0.570188	-0.212663
H85	H	1.207074	-0.500114	-0.000016
H86	H	1.155727	-0.330152	-0.000027
H87	H	1.633122	0.028204	0.636870
