data_functionalizedCrystal
_audit_creation_method	'MofGen! by Chris Wilmer'
_symmetry_space_group_name_H-M	'P1'
_symmetry_Int_Tables_number	1
_symmetry_cell_setting	triclinic
loop_
_symmetry_equiv_pos_as_xyz
  x,y,z
_cell_length_a	14.628931
_cell_length_b	17.917603
_cell_length_c	14.628931
_cell_angle_alpha	90.000192
_cell_angle_beta	60.000028
_cell_angle_gamma	57.011374
loop_
_atom_site_label
_atom_site_type_symbol
_atom_site_fract_x
_atom_site_fract_y
_atom_site_fract_z
Zr1	Zr	0.916422	0.754905	-0.077881
O2	O	1.121077	0.629780	-0.230817
O3	O	0.721440	0.793262	-0.030997
O4	O	0.912146	0.793262	-0.221703
O5	O	0.930372	0.629780	0.110321
O6	O	0.897769	0.922219	-0.214514
O7	O	0.930371	0.629780	-0.040111
O8	O	0.556632	0.922220	0.126623
O9	O	1.271509	0.629780	-0.230817
O10	O	0.787328	0.905860	-0.005638
O11	O	0.798057	0.809621	0.101263
O12	O	1.022588	0.809621	-0.123268
O13	O	1.033317	0.713381	-0.016368
Zr14	Zr	0.893494	0.960576	0.173506
Zr15	Zr	0.893494	0.960577	-0.066415
Zr16	Zr	0.916423	0.754904	0.162041
Zr17	Zr	1.156344	0.754904	-0.077881
Zr18	Zr	0.653572	0.960577	0.173506
O19	O	1.088476	0.922219	0.126622
O20	O	1.088475	0.922219	-0.214515
O21	O	1.121078	0.629780	0.110320
O22	O	0.688840	1.085701	0.326442
O23	O	0.688839	1.085701	-0.014695
O24	O	0.721441	0.793262	0.310140
O25	O	0.879545	1.085701	-0.014696
O26	O	0.897771	0.922219	0.317328
O27	O	0.912147	0.793262	0.310139
O28	O	0.879545	1.085701	0.135736
O29	O	1.253284	0.793262	-0.221704
O30	O	0.556633	0.922219	0.317329
O31	O	0.538407	1.085701	0.326442
O32	O	0.538407	1.085701	0.135737
O33	O	1.271510	0.629780	-0.040112
O34	O	1.253284	0.793261	-0.030998
O35	O	0.787328	0.905860	0.218893
O36	O	0.776599	1.002100	0.111993
O37	O	1.011860	0.905860	-0.005638
O38	O	1.022589	0.809621	0.101263
C39	C	0.604852	0.857741	0.047813
C40	C	0.502999	0.857741	0.047813
C41	C	0.543876	0.790225	-0.034710
C42	C	0.438607	0.790224	-0.034711
C43	C	0.933638	0.600476	0.033471
C44	C	0.943372	0.513163	0.028604
C45	C	0.961152	0.353319	0.019715
C46	C	0.848770	0.362155	0.075907
C47	C	0.858663	0.273212	0.070961
C48	C	0.951262	0.442268	0.024660
C49	C	1.205064	0.857740	0.047812
C50	C	1.306917	0.857740	0.047812
C51	C	0.904957	0.857741	-0.252292
C52	C	0.904957	0.857741	-0.354145
C53	C	0.876278	1.115005	0.062154
C54	C	0.866544	1.202318	0.067021
C55	C	1.021662	0.810000	-0.457907
C56	C	1.021664	0.809999	-0.563179
C57	C	0.904959	0.857740	0.347917
C58	C	0.904959	0.857740	0.449770
C59	C	0.576172	1.115005	0.062154
C60	C	0.464585	1.202318	0.067022
C61	C	0.604853	0.857741	0.347918
C62	C	0.503000	0.857741	0.449771
C63	C	0.576173	1.115005	0.362259
C64	C	0.464586	1.202318	0.468979
C65	C	1.233743	0.600476	-0.266634
C66	C	1.345330	0.513163	-0.373354
C67	C	1.233744	0.600476	0.033471
C68	C	1.345331	0.513163	0.028603
C69	C	1.205063	0.857740	-0.252293
C70	C	1.306916	0.857740	-0.354146
C71	C	0.417783	1.193086	0.007896
C72	C	0.312949	1.275118	0.012446
C73	C	0.254913	1.366382	0.076130
C74	C	0.301725	1.375613	0.135258
C75	C	0.406563	1.293581	0.130700
C76	C	0.406583	1.293566	0.463296
C77	C	0.301747	1.375614	0.563562
C78	C	0.254912	1.366412	0.669511
C79	C	0.312926	1.275154	0.675192
C80	C	0.417766	1.193108	0.574927
C81	C	1.403346	0.421915	-0.367671
C82	C	1.508210	0.339867	-0.467937
C83	C	1.555051	0.349070	-0.573886
C84	C	1.497031	0.440327	-0.579567
C85	C	1.392175	0.522373	-0.479301
C86	C	1.392144	0.522395	0.087719
C87	C	1.497004	0.440363	0.083142
C88	C	1.555043	0.349099	0.019455
C89	C	1.508227	0.339868	-0.039668
C90	C	1.403375	0.421900	-0.035097
C91	C	0.452269	0.905482	0.553533
C92	C	0.346999	0.905483	0.658805
H93	H	0.390070	0.915545	0.118462
N94	N	0.495522	0.956775	0.567216
N95	N	0.410942	1.045361	0.622013
H96	H	0.441487	1.081590	0.631680
N97	N	1.332880	0.615586	-0.485096
N98	N	1.239250	0.688842	-0.395577
H99	H	1.197373	0.754674	-0.399675
H100	H	0.745127	0.436517	0.127728
N101	N	1.091156	0.260034	-0.045284
N102	N	1.099097	0.186878	-0.049254
H103	H	1.190910	0.120988	-0.095161
H104	H	0.656805	0.732426	-0.105363
N105	N	1.147012	0.758744	-0.471599
N106	N	1.223114	0.780056	-0.520271
H107	H	1.311645	0.743863	-0.529942
N108	N	0.242472	1.468822	0.557742
N109	N	0.118631	1.525808	0.601240
H110	H	0.076766	1.591635	0.597127
H111	H	1.121580	0.769120	-0.652188
N112	N	0.459755	0.806450	0.436063
N113	N	0.544341	0.717865	0.381254
H114	H	0.513804	0.681638	0.371566
H115	H	0.169543	1.433226	0.751144
N116	N	1.544849	0.449735	-0.687785
N117	N	1.493037	0.531208	-0.692860
H118	H	1.526803	0.537852	-0.769292
H119	H	0.274849	1.267583	-0.035703
N120	N	0.147721	1.450189	0.080903
N121	N	0.039357	1.464326	0.119684
H122	H	-0.036384	1.523523	0.123099
H123	H	1.640432	0.282255	-0.655519
N124	N	1.544808	0.449788	0.143551
N125	N	1.638424	0.376548	0.139471
H126	H	1.672184	0.383204	0.182136
H127	H	0.805040	0.898610	-0.461225
N128	N	0.477066	1.099860	-0.057149
N129	N	0.472731	1.042871	-0.009318
H130	H	0.514600	0.977030	-0.055262
H131	H	1.365265	0.414369	-0.083234
N132	N	0.482283	0.717704	-0.123330
N133	N	0.396709	0.717801	-0.123201
H134	H	0.427554	0.666581	-0.185789
N135	N	1.332882	0.615605	0.152788
N136	N	1.374714	0.623817	0.205555
H137	H	1.332871	0.689645	0.251509
H138	H	0.272086	0.915542	0.118470
N139	N	1.662160	0.265311	0.014778
N140	N	1.770534	0.251138	-0.023932
H141	H	1.846185	0.191965	-0.027231
H142	H	0.274777	1.267676	0.761469
N143	N	1.355525	0.412484	-0.259465
N144	N	1.407358	0.330997	-0.254427
H145	H	1.373595	0.324327	-0.178010
N146	N	0.292276	0.956766	0.770469
N147	N	0.206833	0.956698	0.855828
H148	H	0.168180	0.992919	0.934696
N149	N	1.567449	0.246666	-0.462098
N150	N	1.525595	0.238472	-0.367489
H151	H	1.567429	0.172651	-0.363361
H152	H	0.805043	0.898616	-0.343246
N153	N	1.567538	0.246634	-0.104718
N154	N	1.661149	0.173408	-0.108776
H155	H	1.703038	0.107558	-0.154713
H156	H	0.254457	1.449931	0.187108
H157	H	0.444656	1.301112	0.178855
N158	N	0.361571	0.806487	0.534207
N159	N	0.284470	0.827802	0.506782
H160	H	0.323068	0.791611	0.427922
N161	N	0.454388	1.302997	0.355090
N162	N	0.402573	1.384484	0.350053
H163	H	0.436331	1.391154	0.273635
H164	H	0.464980	1.118813	0.579570
