data_functionalizedCrystal
_audit_creation_method	'MofGen! by Chris Wilmer'
_symmetry_space_group_name_H-M	'P1'
_symmetry_Int_Tables_number	1
_symmetry_cell_setting	triclinic
loop_
_symmetry_equiv_pos_as_xyz
  x,y,z
_cell_length_a	16.120530
_cell_length_b	12.759400
_cell_length_c	12.759393
_cell_angle_alpha	89.968436
_cell_angle_beta	87.081000
_cell_angle_gamma	87.110362
loop_
_atom_site_label
_atom_site_type_symbol
_atom_site_fract_x
_atom_site_fract_y
_atom_site_fract_z
Zn1	Zn	1.274626	-0.499755	-0.675426
Zn2	Zn	1.607959	-0.166421	-0.342092
Zn3	Zn	1.941293	0.166912	-0.008759
Zn4	Zn	1.274542	-0.675468	-0.499741
Zn5	Zn	1.607876	-0.342135	-0.166407
Zn6	Zn	1.941209	-0.008802	0.166926
Zn7	Zn	1.135203	-0.490889	-0.490856
Zn8	Zn	1.468536	-0.157556	-0.157523
Zn9	Zn	1.801869	0.175778	0.175810
Zn10	Zn	1.135194	-0.666471	-0.666478
Zn11	Zn	1.468527	-0.333138	-0.333145
Zn12	Zn	1.801861	0.000195	0.000189
O13	O	1.204891	-0.583146	-0.583125
O14	O	1.538225	-0.249813	-0.249792
O15	O	1.871558	0.083521	0.083541
O16	O	1.391282	-0.530539	-0.659583
O17	O	1.724615	-0.197206	-0.326250
O18	O	2.057948	0.136128	0.007083
O19	O	1.256027	-0.651038	-0.351539
O20	O	1.589361	-0.317705	-0.018206
O21	O	1.922694	0.015628	0.315128
O22	O	1.153736	-0.345047	-0.515367
O23	O	1.487070	-0.011713	-0.182033
O24	O	1.820403	0.321620	0.151300
O25	O	1.391220	-0.659635	-0.530508
O26	O	1.724554	-0.326302	-0.197175
O27	O	2.057887	0.007032	0.136158
O28	O	1.256170	-0.351560	-0.650969
O29	O	1.589503	-0.018227	-0.317636
O30	O	1.922837	0.315106	0.015698
O31	O	1.153655	-0.515429	-0.345012
O32	O	1.486989	-0.182095	-0.011679
O33	O	1.820322	0.151238	0.321655
O34	O	1.018535	-0.506705	-0.506690
O35	O	1.351868	-0.173372	-0.173357
O36	O	1.685201	0.159962	0.159976
O37	O	1.153721	-0.644301	-0.814688
O38	O	1.487054	-0.310968	-0.481355
O39	O	1.820388	0.022365	-0.148021
O40	O	1.018528	-0.635704	-0.635719
O41	O	1.351861	-0.302371	-0.302386
O42	O	1.685195	0.030962	0.030948
O43	O	1.256161	-0.521815	-0.821262
O44	O	1.589495	-0.188482	-0.487929
O45	O	1.922828	0.144851	-0.154595
O46	O	1.256019	-0.821293	-0.521832
O47	O	1.589352	-0.487960	-0.188499
O48	O	1.922685	-0.154627	0.144835
O49	O	1.153640	-0.814683	-0.644333
O50	O	1.486973	-0.481350	-0.311000
O51	O	1.820307	-0.148017	0.022333
C52	C	1.204842	-0.856110	-0.583100
C53	C	1.538175	-0.522777	-0.249767
C54	C	1.871508	-0.189443	0.083567
C55	C	1.204897	-0.972890	-0.583129
C56	C	1.538230	-0.639557	-0.249796
C57	C	1.871564	-0.306224	0.083537
C58	C	0.988281	-0.569267	-0.569270
C59	C	1.321614	-0.235934	-0.235937
C60	C	1.654948	0.097400	0.097396
C61	C	0.895614	-0.563355	-0.563368
C62	C	1.228948	-0.230022	-0.230035
C63	C	1.562281	0.103312	0.103299
C64	C	1.258265	-1.031163	-0.519421
C65	C	1.591598	-0.697830	-0.186088
C66	C	1.924931	-0.364496	0.147246
C67	C	1.258316	-1.140890	-0.519457
C68	C	1.591649	-0.807557	-0.186123
C69	C	1.924982	-0.474224	0.147210
C70	C	1.151624	-1.134062	-0.646912
C71	C	1.484958	-0.800729	-0.313578
C72	C	1.818291	-0.467395	0.019755
C73	C	1.151578	-1.024337	-0.646881
C74	C	1.484911	-0.691004	-0.313547
C75	C	1.818245	-0.357670	0.019786
C76	C	1.319860	-1.035106	-0.445832
C77	C	1.653193	-0.701773	-0.112499
C78	C	1.986526	-0.368439	0.220834
C79	C	1.319911	-1.144833	-0.445868
C80	C	1.653244	-0.811500	-0.112535
C81	C	1.986577	-0.478167	0.220799
C82	C	0.725951	-0.552536	-0.552601
C83	C	1.059284	-0.219203	-0.219268
C84	C	1.392618	0.114130	0.114066
C85	C	0.684672	-0.613833	-0.613726
C86	C	1.018005	-0.280499	-0.280393
C87	C	1.351339	0.052834	0.052941
C88	C	0.590265	-0.607813	-0.607735
C89	C	0.923599	-0.274480	-0.274402
C90	C	1.256932	0.058853	0.058931
C91	C	0.820366	-0.558555	-0.558590
C92	C	1.153699	-0.225221	-0.225257
C93	C	1.487033	0.108112	0.108076
C94	C	1.422347	-0.597080	-0.597035
C95	C	1.755681	-0.263746	-0.263702
C96	C	2.089014	0.069587	0.069632
C97	C	1.515014	-0.603017	-0.602962
C98	C	1.848347	-0.269684	-0.269629
C99	C	2.181681	0.063649	0.063704
C100	C	1.204950	-0.583044	-0.857162
C101	C	1.538283	-0.249710	-0.523829
C102	C	1.871616	0.083623	-0.190496
C103	C	1.204974	-0.583000	-0.973941
C104	C	1.538308	-0.249667	-0.640607
C105	C	1.871641	0.083667	-0.307274
C106	C	1.204964	-0.309117	-0.583175
C107	C	1.538297	0.024216	-0.249842
C108	C	1.871630	0.357549	0.083492
C109	C	1.204994	-0.192343	-0.583196
C110	C	1.538328	0.140991	-0.249863
C111	C	1.871661	0.474324	0.083471
C112	C	1.258322	-0.519216	-1.032228
C113	C	1.591656	-0.185882	-0.698895
C114	C	1.924989	0.147451	-0.365561
C115	C	1.258342	-0.519179	-1.141953
C116	C	1.591676	-0.185846	-0.808620
C117	C	1.925009	0.147488	-0.475287
C118	C	1.151664	-0.646720	-1.135095
C119	C	1.484997	-0.313387	-0.801761
C120	C	1.818330	0.019947	-0.468428
C121	C	1.151640	-0.646750	-1.025371
C122	C	1.484974	-0.313417	-0.692038
C123	C	1.818307	0.019916	-0.358704
C124	C	1.319915	-0.445584	-1.036189
C125	C	1.653248	-0.112251	-0.702856
C126	C	1.986582	0.221083	-0.369522
C127	C	1.319935	-0.445547	-1.145914
C128	C	1.653268	-0.112214	-0.812581
C129	C	1.986602	0.221119	-0.479248
C130	C	1.204881	-0.583175	-0.310157
C131	C	1.538214	-0.249842	0.023176
C132	C	1.871548	0.083492	0.356509
C133	C	1.205018	-0.582933	-0.193390
C134	C	1.538351	-0.249600	0.139944
C135	C	1.871684	0.083734	0.473277
H136	H	1.108130	-0.976893	-0.698767
H137	H	1.441463	-0.643559	-0.365434
H138	H	1.774796	-0.310226	-0.032100
F139	F	1.400062	-0.488833	-0.996817
F140	F	1.733395	-0.155499	-0.663484
F141	F	2.066729	0.177834	-0.330150
H142	H	0.690392	-0.495544	-0.495775
H143	H	1.023725	-0.162210	-0.162442
H144	H	1.357058	0.171123	0.170892
F145	F	1.289636	-0.988795	-0.342840
F146	F	1.622969	-0.655462	-0.009506
F147	F	1.956302	-0.322129	0.323827
H148	H	1.108196	-0.698686	-0.977917
H149	H	1.441530	-0.365352	-0.644584
H150	H	1.774863	-0.032019	-0.311250
F151	F	1.289644	-0.342608	-1.188488
F152	F	1.622978	-0.009275	-0.855154
F153	F	1.956311	0.324058	-0.521821
F154	F	1.094905	-0.714563	-1.189840
F155	F	1.428238	-0.381230	-0.856506
F156	F	1.761572	-0.047897	-0.523173
H157	H	1.108215	-1.175963	-0.698817
H158	H	1.441548	-0.842630	-0.365483
H159	H	1.774881	-0.509297	-0.032150
H160	H	1.302641	-0.363115	-1.005329
H161	H	1.635974	-0.029781	-0.671996
H162	H	1.969307	0.303552	-0.338663
H163	H	1.381254	-1.182703	-0.479000
H164	H	1.714588	-0.849369	-0.145666
H165	H	2.047921	-0.516036	0.187667
F166	F	1.404333	-0.479419	-1.190235
F167	F	1.737667	-0.146086	-0.856901
F168	F	2.071000	0.187247	-0.523568
F169	F	1.297366	-1.182428	-0.338060
F170	F	1.630700	-0.849095	-0.004727
F171	F	1.964033	-0.515761	0.328607
H172	H	0.720233	-0.670829	-0.670558
H173	H	1.053567	-0.337496	-0.337224
H174	H	1.386900	-0.004163	-0.003891
H175	H	1.384409	-1.009378	-0.471808
H176	H	1.717742	-0.676045	-0.138475
H177	H	2.051075	-0.342711	0.194858
