data_functionalizedCrystal
_audit_creation_method	'MofGen! by Chris Wilmer'
_symmetry_space_group_name_H-M	'P1'
_symmetry_Int_Tables_number	1
_symmetry_cell_setting	triclinic
loop_
_symmetry_equiv_pos_as_xyz
  x,y,z
_cell_length_a	10.908937
_cell_length_b	10.967829
_cell_length_c	9.798715
_cell_angle_alpha	77.868973
_cell_angle_beta	89.994671
_cell_angle_gamma	72.684843
loop_
_atom_site_label
_atom_site_type_symbol
_atom_site_fract_x
_atom_site_fract_y
_atom_site_fract_z
O1	O	1.702141	-0.192362	-0.068293
O2	O	1.329138	-0.095100	-0.091160
O3	O	1.524241	-0.327166	-0.036581
O4	O	1.507038	0.039703	-0.122872
O5	O	1.524227	-0.327163	0.190401
O6	O	1.329124	-0.095098	0.135822
O7	O	1.702127	-0.192360	0.158689
Zn8	Zn	1.515623	-0.143728	0.183293
Zn9	Zn	1.515642	-0.143732	-0.115765
O10	O	1.507024	0.039706	0.104110
C11	C	1.281370	-0.086010	0.020194
C12	C	1.139058	-0.058941	0.013831
C13	C	0.942091	-0.129747	0.030461
C14	C	1.089179	-0.157727	0.037059
C15	C	1.522981	-0.373394	0.087781
C16	C	1.519233	-0.511141	0.120172
C17	C	1.517569	-0.572548	0.017028
C18	C	1.513695	-0.714916	0.050503
C19	C	1.749895	-0.201451	0.047332
C20	C	1.892207	-0.228519	0.053686
C21	C	1.508284	0.085934	-0.020255
C22	C	1.512032	0.223680	-0.052655
N23	N	1.515619	-0.143729	0.387393
N24	N	1.515656	-0.143743	-0.319861
C25	C	1.597537	-0.241518	0.478169
C26	C	1.597558	-0.241527	0.635334
H27	H	1.072877	0.046344	-0.010942
H28	H	1.445523	-0.060014	0.602170
H29	H	1.155361	-0.263011	0.061820
C30	C	0.981616	-0.370748	0.087151
N31	N	1.048958	-0.477877	0.112362
H32	H	1.513461	-0.723494	-0.165752
C33	C	0.852682	0.012481	-0.002998
N34	N	0.785340	0.119610	-0.028198
C35	C	1.692246	-0.354634	0.425983
N36	N	1.763576	-0.439840	0.386681
H37	H	1.667697	-0.325245	0.713308
C38	C	1.420884	-0.030633	0.439584
N39	N	1.349527	0.054554	0.478891
H40	H	1.519008	-0.519719	-0.096060
C41	C	1.511741	-0.786270	0.203291
N42	N	1.510271	-0.840017	0.318369
H43	H	1.517781	-0.563964	0.233259
