data_functionalizedCrystal
_audit_creation_method	'MofGen! by Chris Wilmer'
_symmetry_space_group_name_H-M	'P1'
_symmetry_Int_Tables_number	1
_symmetry_cell_setting	triclinic
loop_
_symmetry_equiv_pos_as_xyz
  x,y,z
_cell_length_a	10.685976
_cell_length_b	16.625546
_cell_length_c	10.685986
_cell_angle_alpha	85.585629
_cell_angle_beta	98.366972
_cell_angle_gamma	85.659501
loop_
_atom_site_label
_atom_site_type_symbol
_atom_site_fract_x
_atom_site_fract_y
_atom_site_fract_z
Zn1	Zn	1.885443	-0.385319	-0.568496
Zn2	Zn	2.218776	-0.051985	-0.235163
Zn3	Zn	2.552109	0.281348	0.098170
Zn4	Zn	1.901546	-0.531374	-0.356239
Zn5	Zn	2.234880	-0.198041	-0.022906
Zn6	Zn	2.568213	0.135292	0.310427
Zn7	Zn	1.689443	-0.385381	-0.372577
Zn8	Zn	2.022776	-0.052047	-0.039244
Zn9	Zn	2.356110	0.281286	0.294090
Zn10	Zn	1.673148	-0.508929	-0.584745
Zn11	Zn	2.006482	-0.175596	-0.251412
Zn12	Zn	2.339815	0.157737	0.081922
O13	O	1.787395	-0.452751	-0.470514
O14	O	2.120728	-0.119417	-0.137181
O15	O	2.454062	0.213916	0.196152
O16	O	2.065191	-0.414061	-0.526702
O17	O	2.398524	-0.080728	-0.193369
O18	O	2.731857	0.252606	0.139964
O19	O	1.886969	-0.521427	-0.180783
O20	O	2.220302	-0.188094	0.152550
O21	O	2.553636	0.145239	0.485884
O22	O	1.715523	-0.272542	-0.398603
O23	O	2.048856	0.060791	-0.065270
O24	O	2.382189	0.394125	0.268064
O25	O	2.077022	-0.521367	-0.370758
O26	O	2.410355	-0.188034	-0.037425
O27	O	2.743689	0.145299	0.295909
O28	O	1.859523	-0.272497	-0.542544
O29	O	2.192856	0.060837	-0.209211
O30	O	2.526189	0.394170	0.124122
O31	O	1.731138	-0.414166	-0.192786
O32	O	2.064471	-0.080833	0.140547
O33	O	2.397804	0.252500	0.473880
O34	O	1.509670	-0.392402	-0.414359
O35	O	1.843003	-0.059069	-0.081026
O36	O	2.176336	0.274265	0.252308
O37	O	1.687751	-0.483113	-0.760213
O38	O	2.021084	-0.149779	-0.426880
O39	O	2.354418	0.183554	-0.093546
O40	O	1.497698	-0.483173	-0.570238
O41	O	1.831031	-0.149839	-0.236905
O42	O	2.164365	0.183494	0.096429
O43	O	1.843723	-0.392297	-0.748275
O44	O	2.177056	-0.058963	-0.414942
O45	O	2.510389	0.274370	-0.081608
O46	O	1.871169	-0.641227	-0.386514
O47	O	2.204502	-0.307894	-0.053181
O48	O	2.537836	0.025439	0.280153
O49	O	1.703366	-0.624737	-0.554396
O50	O	2.036699	-0.291404	-0.221063
O51	O	2.370033	0.041930	0.112271
C52	C	1.457631	-0.435359	-0.495835
C53	C	1.790964	-0.102026	-0.162502
C54	C	2.124298	0.231308	0.170831
C55	C	1.316554	-0.427937	-0.506698
C56	C	1.649887	-0.094603	-0.173365
C57	C	1.983221	0.238730	0.159969
C58	C	1.787279	-0.662238	-0.470470
C59	C	2.120612	-0.328905	-0.137137
C60	C	2.453946	0.004429	0.196196
C61	C	1.787342	-0.751862	-0.470485
C62	C	2.120676	-0.418528	-0.137152
C63	C	2.454009	-0.085195	0.196181
C64	C	1.787554	-1.080042	-0.470600
C65	C	2.120887	-0.746708	-0.137267
C66	C	2.454220	-0.413375	0.196066
C67	C	1.787490	-0.988732	-0.470572
C68	C	2.120824	-0.655398	-0.137239
C69	C	2.454157	-0.322065	0.196095
C70	C	1.787447	-0.915955	-0.470542
C71	C	2.120780	-0.582621	-0.137209
C72	C	2.454114	-0.249288	0.196124
C73	C	1.787386	-0.824639	-0.470515
C74	C	2.120719	-0.491305	-0.137182
C75	C	2.454052	-0.157972	0.196152
C76	C	2.118447	-0.470211	-0.445095
C77	C	2.451780	-0.136878	-0.111762
C78	C	2.785114	0.196456	0.221571
C79	C	2.259521	-0.477651	-0.434263
C80	C	2.592855	-0.144318	-0.100930
C81	C	2.926188	0.189015	0.232404
C82	C	1.762123	-0.435194	-0.801587
C83	C	2.095456	-0.101861	-0.468254
C84	C	2.428789	0.231472	-0.134921
C85	C	1.751353	-0.427713	-0.942671
C86	C	2.084687	-0.094379	-0.609338
C87	C	2.418020	0.238954	-0.276004
C88	C	1.787544	-0.242446	-0.470584
C89	C	2.120877	0.090888	-0.137250
C90	C	2.454211	0.424221	0.196083
C91	C	1.787608	-0.152826	-0.470613
C92	C	2.120941	0.180507	-0.137280
C93	C	2.454274	0.513840	0.196054
C94	C	1.812642	-0.470185	-0.140724
C95	C	2.145975	-0.136851	0.192610
C96	C	2.479309	0.196482	0.525943
C97	C	1.823657	-0.477452	0.000378
C98	C	2.156991	-0.144119	0.333712
C99	C	2.490324	0.189215	0.667045
H100	H	1.681213	-0.379403	-1.001853
H101	H	2.014547	-0.046069	-0.668519
H102	H	2.347880	0.287264	-0.335186
N103	N	1.238281	-0.364035	-0.599868
N104	N	1.571614	-0.030701	-0.266534
N105	N	1.904947	0.302632	0.066799
H106	H	1.145215	-0.367611	-0.594688
H107	H	1.478548	-0.034278	-0.261354
H108	H	1.811882	0.299055	0.071979
H109	H	1.262898	-0.308671	-0.578514
H110	H	1.596232	0.024662	-0.245181
H111	H	1.929565	0.357996	0.088152
N112	N	1.337800	-0.541564	-0.341101
N113	N	1.671133	-0.208231	-0.007768
N114	N	2.004466	0.125103	0.325566
H115	H	1.430866	-0.537990	-0.346280
H116	H	1.764199	-0.204656	-0.012947
H117	H	2.097533	0.128677	0.320387
H118	H	1.321594	-0.532526	-0.252245
H119	H	1.654927	-0.199193	0.081088
H120	H	1.988261	0.134141	0.414421
H121	H	1.893803	-0.525753	-0.940446
H122	H	2.227137	-0.192419	-0.607113
H123	H	2.560470	0.140914	-0.273780
