data_functionalizedCrystal
_audit_creation_method	'MofGen! by Chris Wilmer'
_symmetry_space_group_name_H-M	'P1'
_symmetry_Int_Tables_number	1
_symmetry_cell_setting	triclinic
loop_
_symmetry_equiv_pos_as_xyz
  x,y,z
_cell_length_a	15.297327
_cell_length_b	14.908783
_cell_length_c	14.908308
_cell_angle_alpha	89.788727
_cell_angle_beta	102.308214
_cell_angle_gamma	103.502170
loop_
_atom_site_label
_atom_site_type_symbol
_atom_site_fract_x
_atom_site_fract_y
_atom_site_fract_z
Zn1	Zn	-0.321946	1.286545	-0.640113
Zn2	Zn	0.178054	1.786545	-0.140113
Zn3	Zn	-0.466529	1.268733	-0.513234
Zn4	Zn	0.033471	1.768733	-0.013234
Zn5	Zn	-0.320950	1.145040	-0.480923
Zn6	Zn	0.179050	1.645040	0.019077
Zn7	Zn	-0.484155	1.106541	-0.657718
Zn8	Zn	0.015845	1.606541	-0.157718
O9	O	-0.398395	1.201715	-0.572997
O10	O	0.101605	1.701715	-0.072997
O11	O	-0.334166	1.411280	-0.629437
O12	O	0.165834	1.911280	-0.129437
O13	O	-0.439424	1.260982	-0.381859
O14	O	0.060576	1.760982	0.118141
O15	O	-0.192272	1.187378	-0.481150
O16	O	0.307728	1.687378	0.018850
O17	O	-0.440390	1.398194	-0.536219
O18	O	0.059610	1.898194	-0.036219
O19	O	-0.193004	1.291341	-0.598107
O20	O	0.306996	1.791341	-0.098107
O21	O	-0.332468	1.170106	-0.358120
O22	O	0.167532	1.670106	0.141880
O23	O	-0.349559	1.012835	-0.498221
O24	O	0.150441	1.512835	0.001779
O25	O	-0.470431	1.121761	-0.782471
O26	O	0.029569	1.621761	-0.282471
O27	O	-0.469465	0.984549	-0.628111
O28	O	0.030535	1.484549	-0.128111
O29	O	-0.351257	1.254009	-0.769538
O30	O	0.148743	1.754009	-0.269538
O31	O	-0.597677	1.223651	-0.553289
O32	O	-0.097677	1.723651	-0.053289
O33	O	-0.610627	1.104489	-0.659441
O34	O	-0.110627	1.604489	-0.159441
C35	C	-0.411317	0.965737	-0.561570
C36	C	0.088683	1.465737	-0.061570
C37	C	-0.416869	0.864779	-0.556707
C38	C	0.083131	1.364779	-0.056707
C39	C	-0.316862	0.688652	-0.644841
C40	C	0.183138	1.188652	-0.144841
C41	C	-0.322075	0.593794	-0.640274
C42	C	0.177925	1.093794	-0.140274
C43	C	-0.432504	0.580203	-0.543002
C44	C	0.067496	1.080203	-0.043002
C45	C	-0.427290	0.675062	-0.547569
C46	C	0.072710	1.175062	-0.047569
C47	C	-0.369469	0.729283	-0.598491
C48	C	0.130531	1.229283	-0.098491
C49	C	-0.364261	0.824142	-0.603063
C50	C	0.135739	1.324142	-0.103063
C51	C	-0.474684	0.810551	-0.505786
C52	C	0.025316	1.310551	-0.005786
C53	C	-0.479897	0.715692	-0.501219
C54	C	0.020103	1.215692	-0.001219
C55	C	-0.637551	1.157983	-0.611803
C56	C	-0.137551	1.657983	-0.111803
C57	C	-0.739860	1.139355	-0.628438
C58	C	-0.239860	1.639355	-0.128438
C59	C	-1.001157	1.335202	-0.454428
C60	C	-0.501157	1.835202	0.045572
C61	C	-0.905032	1.352704	-0.438793
C62	C	-0.405032	1.852704	0.061207
C63	C	-0.863734	1.299368	-0.486203
C64	C	-0.363734	1.799368	0.013797
C65	C	-0.918571	1.228528	-0.549250
C66	C	-0.418571	1.728528	-0.049250
C67	C	-1.014705	1.211020	-0.564881
C68	C	-0.514705	1.711020	-0.064881
C69	C	-0.877283	1.175186	-0.596657
C70	C	-0.377283	1.675186	-0.096657
C71	C	-0.932119	1.104346	-0.659704
C72	C	-0.432119	1.604346	-0.159704
C73	C	-1.028244	1.086842	-0.675332
C74	C	-0.528244	1.586842	-0.175332
C75	C	-1.069542	1.140177	-0.627922
C76	C	-0.569542	1.640177	-0.127922
C77	C	-0.781148	1.192694	-0.581026
C78	C	-0.281148	1.692694	-0.081026
C79	C	-0.794696	1.068512	-0.691479
C80	C	-0.294696	1.568512	-0.191479
C81	C	-0.890821	1.051011	-0.707114
C82	C	-0.390821	1.551011	-0.207114
C83	C	-0.158305	1.245640	-0.534061
C84	C	0.341695	1.745640	-0.034061
C85	C	-0.055993	1.264359	-0.517469
C86	C	0.444007	1.764359	-0.017469
C87	C	-0.412921	1.185578	-0.809879
C88	C	0.087079	1.685578	-0.309879
C89	C	-0.419111	1.178701	-0.910823
C90	C	0.080889	1.678701	-0.410823
C91	C	-0.385423	1.438614	-0.584469
C92	C	0.114577	1.938614	-0.084469
C93	C	-0.379895	1.539566	-0.589357
C94	C	0.120105	2.039566	-0.089357
C95	C	-0.306626	1.303491	-1.087040
C96	C	0.193374	1.803491	-0.587040
C97	C	-0.312439	1.297033	-1.181886
C98	C	0.187561	1.797033	-0.681886
C99	C	-0.436545	1.159325	-1.195363
C100	C	0.063455	1.659325	-0.695363
C101	C	-0.430732	1.165782	-1.100517
C102	C	0.069268	1.665782	-0.600517
C103	C	-0.365772	1.237869	-1.046358
C104	C	0.134228	1.737869	-0.546358
C105	C	-0.359964	1.244329	-0.951511
C106	C	0.140036	1.744329	-0.451511
C107	C	-0.484065	1.106618	-0.964989
C108	C	0.015935	1.606618	-0.464989
C109	C	-0.489877	1.100160	-1.059835
C110	C	0.010123	1.600160	-0.559835
C111	C	-0.383856	1.217853	-0.337029
C112	C	0.116144	1.717853	0.162971
C113	C	-0.377397	1.224953	-0.236051
C114	C	0.122603	1.724953	0.263949
H115	H	-0.317180	0.868287	-0.644527
H116	H	0.182820	1.368287	-0.144527
Cl117	Cl	-0.518196	1.068705	-1.263461
Cl118	Cl	-0.018196	1.568705	-0.763461
Cl119	Cl	-0.571536	1.009542	-1.127928
Cl120	Cl	-0.071536	1.509542	-0.627928
Cl121	Cl	-0.742787	1.001452	-0.751078
Cl122	Cl	-0.242787	1.501452	-0.251078
H123	H	-0.279235	0.560717	-0.678014
H124	H	0.220765	1.060717	-0.178014
H125	H	-0.532227	1.053186	-0.931857
H126	H	-0.032227	1.553186	-0.431857
Cl127	Cl	-0.742892	1.321604	-0.466808
Cl128	Cl	-0.242892	1.821604	0.033192
H129	H	-0.269786	0.732799	-0.686308
H130	H	0.230214	1.232799	-0.186308
H131	H	-0.479568	0.536043	-0.501532
H132	H	0.020432	1.036043	-0.001532
H133	H	-0.526970	0.671533	-0.459756
H134	H	-0.026970	1.171533	0.040244
H135	H	-0.517527	0.843640	-0.468053
H136	H	-0.017527	1.343640	0.031947
Cl137	Cl	-0.712223	1.281748	-0.501770
Cl138	Cl	-0.212223	1.781748	-0.001770
H139	H	-0.264275	1.350467	-1.215004
H140	H	0.235725	1.850467	-0.715004
Cl141	Cl	-0.836102	1.441764	-0.359547
Cl142	Cl	-0.336102	1.941764	0.140453
H143	H	-1.147814	1.125933	-0.640651
H144	H	-0.647814	1.625933	-0.140651
Cl145	Cl	-1.053079	1.402241	-0.394832
Cl146	Cl	-0.553079	1.902241	0.105168
H147	H	-0.935483	0.993331	-0.758447
H148	H	-0.435483	1.493331	-0.258447
Cl149	Cl	-0.278302	1.334952	-0.883428
Cl150	Cl	0.221698	1.834952	-0.383428
Cl151	Cl	-1.097179	0.997781	-0.754588
Cl152	Cl	-0.597179	1.497781	-0.254588
Cl153	Cl	-0.224974	1.394118	-1.018954
Cl154	Cl	0.275026	1.894118	-0.518954
