data_functionalizedCrystal
_audit_creation_method	'MofGen! by Chris Wilmer'
_symmetry_space_group_name_H-M	'P1'
_symmetry_Int_Tables_number	1
_symmetry_cell_setting	triclinic
loop_
_symmetry_equiv_pos_as_xyz
  x,y,z
_cell_length_a	14.519709
_cell_length_b	17.038272
_cell_length_c	13.596369
_cell_angle_alpha	89.993837
_cell_angle_beta	90.000291
_cell_angle_gamma	87.395851
loop_
_atom_site_label
_atom_site_type_symbol
_atom_site_fract_x
_atom_site_fract_y
_atom_site_fract_z
O1	O	1.231711	0.102502	-0.081664
O2	O	1.731711	0.602502	0.418336
O3	O	0.964158	0.114573	-0.081694
O4	O	1.464158	0.614573	0.418306
O5	O	1.096344	-0.005280	-0.081671
O6	O	1.596344	0.494720	0.418329
O7	O	1.099525	0.222356	-0.081686
O8	O	1.599525	0.722356	0.418314
O9	O	1.096330	-0.005286	0.081912
O10	O	1.596330	0.494714	0.581912
O11	O	0.964143	0.114567	0.081889
O12	O	1.464143	0.614567	0.581889
O13	O	1.231696	0.102496	0.081919
O14	O	1.731696	0.602496	0.581919
Zn15	Zn	1.097918	0.108530	0.107877
Zn16	Zn	1.597918	0.608530	0.607877
Zn17	Zn	1.097937	0.108539	-0.107651
Zn18	Zn	1.597937	0.608539	0.392349
O19	O	1.099510	0.222349	0.081897
O20	O	1.599510	0.722349	0.581897
C21	C	0.929748	0.114008	0.000094
C22	C	1.429748	0.614008	0.500094
C23	C	0.827237	0.112322	0.000083
C24	C	1.327237	0.612322	0.500083
C25	C	0.451867	0.106116	0.000128
C26	C	0.951867	0.606116	0.500128
C27	C	0.556307	0.107839	0.000115
C28	C	1.056307	0.607839	0.500115
C29	C	0.639549	0.109219	0.000104
C30	C	1.139549	0.609219	0.500104
C31	C	0.743995	0.110942	0.000093
C32	C	1.243995	0.610942	0.500093
C33	C	1.093444	-0.034416	0.000120
C34	C	1.593444	0.465584	0.500120
C35	C	1.084814	-0.121223	0.000119
C36	C	1.584814	0.378777	0.500119
C37	C	1.164047	-0.171209	0.000129
C38	C	1.664047	0.328791	0.500129
C39	C	1.155933	-0.252773	0.000118
C40	C	1.655933	0.247227	0.500118
C41	C	1.068585	-0.284349	0.000105
C42	C	1.568585	0.215651	0.500105
C43	C	0.989347	-0.234357	0.000092
C44	C	1.489347	0.265643	0.500092
C45	C	0.997462	-0.152795	0.000096
C46	C	1.497462	0.347205	0.500096
C47	C	1.039916	-0.530153	0.000089
C48	C	1.539916	-0.030153	0.500089
C49	C	1.031807	-0.611722	0.000088
C50	C	1.531807	-0.111722	0.500088
C51	C	1.198394	-0.630132	0.000112
C52	C	1.698394	-0.130132	0.500112
C53	C	1.206502	-0.548568	0.000122
C54	C	1.706502	-0.048568	0.500122
C55	C	1.127263	-0.498583	0.000104
C56	C	1.627263	0.001417	0.500104
C57	C	1.060289	-0.367720	0.000098
C58	C	1.560289	0.132280	0.500098
C59	C	1.135560	-0.415213	0.000104
C60	C	1.635560	0.084787	0.500104
C61	C	1.266107	0.103062	0.000129
C62	C	1.766107	0.603062	0.500129
C63	C	1.368617	0.104748	0.000134
C64	C	1.868617	0.604748	0.500134
C65	C	1.102410	0.251486	0.000103
C66	C	1.602410	0.751486	0.500103
C67	C	1.111040	0.338292	0.000098
C68	C	1.611040	0.838292	0.500098
N69	N	1.097911	0.108524	0.254968
N70	N	1.597911	0.608524	0.754968
N71	N	1.097950	0.108539	-0.254743
N72	N	1.597950	0.608539	0.245257
C73	C	1.097936	0.108540	0.656259
C74	C	1.597936	0.608540	1.156259
C75	C	1.097926	0.108538	0.544608
C76	C	1.597926	0.608538	1.044608
C77	C	1.097924	0.108533	0.455617
C78	C	1.597924	0.608533	0.955617
C79	C	1.097913	0.108530	0.343959
C80	C	1.597913	0.608530	0.843959
H81	H	1.220453	-0.293468	0.000129
H82	H	1.720453	0.206532	0.500129
C83	C	0.952757	-0.475180	0.000086
C84	C	1.452757	0.024820	0.500086
H85	H	0.899576	-0.505670	0.000091
H86	H	1.399576	-0.005670	0.500091
H87	H	0.952456	-0.442972	-0.056956
H88	H	1.452456	0.057028	0.443044
H89	H	0.952458	-0.442989	0.057141
H90	H	1.452458	0.057011	0.557141
H91	H	1.262906	-0.670838	0.000125
H92	H	1.762906	-0.170838	0.500125
C93	C	1.260130	-0.136482	0.000143
C94	C	1.760130	0.363518	0.500143
H95	H	1.306155	-0.177937	0.000138
H96	H	1.806155	0.322063	0.500138
H97	H	1.266756	-0.105053	0.057189
H98	H	1.766756	0.394947	0.557189
H99	H	1.266763	-0.105043	-0.056908
H100	H	1.766763	0.394957	0.443092
C101	C	1.302584	-0.513839	0.000123
C102	C	1.802584	-0.013839	0.500123
H103	H	1.348612	-0.555292	0.000117
H104	H	1.848612	-0.055292	0.500117
H105	H	1.309211	-0.482408	0.057167
H106	H	1.809211	0.017592	0.557167
H107	H	1.309211	-0.482402	-0.056930
H108	H	1.809211	0.017598	0.443070
C109	C	1.231639	-0.380485	0.000120
C110	C	1.731639	0.119515	0.500120
H111	H	1.277670	-0.421934	0.000122
H112	H	1.777670	0.078066	0.500122
H113	H	1.238253	-0.349054	0.057166
H114	H	1.738253	0.150946	0.557166
H115	H	1.238272	-0.349047	-0.056931
H116	H	1.738272	0.150953	0.443069
C117	C	0.910306	-0.097810	0.000087
C118	C	1.410306	0.402190	0.500087
H119	H	0.857122	-0.128296	0.000087
H120	H	1.357122	0.371704	0.500087
H121	H	0.910016	-0.065605	-0.056957
H122	H	1.410016	0.434395	0.443043
H123	H	0.910003	-0.065616	0.057140
H124	H	1.410003	0.434384	0.557140
C125	C	0.935723	-0.646458	0.000074
C126	C	1.435723	-0.146458	0.500074
H127	H	0.942242	-0.702192	0.000087
H128	H	1.442242	-0.202192	0.500087
H129	H	0.902832	-0.629309	-0.056976
H130	H	1.402832	-0.129309	0.443024
H131	H	0.902824	-0.629312	0.057121
H132	H	1.402824	-0.129312	0.557121
C133	C	0.893266	-0.269089	0.000081
C134	C	1.393266	0.230911	0.500081
H135	H	0.899779	-0.324823	0.000091
H136	H	1.399779	0.175177	0.500091
H137	H	0.860375	-0.251935	-0.056967
H138	H	1.360375	0.248065	0.443033
H139	H	0.860372	-0.251942	0.057130
H140	H	1.360372	0.248058	0.557130
H141	H	0.989170	-0.393438	0.000089
H142	H	1.489170	0.106562	0.500089
