data_functionalizedCrystal
_audit_creation_method	'MofGen! by Chris Wilmer'
_symmetry_space_group_name_H-M	'P1'
_symmetry_Int_Tables_number	1
_symmetry_cell_setting	triclinic
loop_
_symmetry_equiv_pos_as_xyz
  x,y,z
_cell_length_a	19.188900
_cell_length_b	12.837942
_cell_length_c	17.666332
_cell_angle_alpha	90.000789
_cell_angle_beta	90.014953
_cell_angle_gamma	88.980715
loop_
_atom_site_label
_atom_site_type_symbol
_atom_site_fract_x
_atom_site_fract_y
_atom_site_fract_z
O1	O	-0.935024	-0.129224	-0.063096
O2	O	-0.732907	-0.146673	-0.063066
O3	O	-0.829484	0.012934	-0.063076
O4	O	-0.838447	-0.288830	-0.063086
O5	O	-0.829470	0.012928	0.062821
O6	O	-0.732893	-0.146678	0.062831
O7	O	-0.935010	-0.129229	0.062801
Cu8	Cu	-0.833950	-0.137954	0.074311
Cu9	Cu	-0.833967	-0.137948	-0.074576
O10	O	-0.838433	-0.288835	0.062810
C11	C	-0.706850	-0.146115	-0.000113
C12	C	-0.629229	-0.144435	-0.000102
C13	C	-0.592789	-0.143625	-0.068729
C14	C	-0.519856	-0.142034	-0.068737
C15	C	-0.483366	-0.141233	-0.000113
C16	C	-0.519815	-0.142049	0.068524
C17	C	-0.592746	-0.143650	0.068529
N18	N	-0.370123	-0.079748	0.050961
N19	N	-0.300841	-0.078225	0.050951
C20	C	-0.263629	-0.136411	-0.000126
N21	N	-0.298315	-0.196165	-0.051204
N22	N	-0.367603	-0.197683	-0.051196
C23	C	-0.404285	-0.139497	-0.000111
C24	C	-0.148107	-0.133877	-0.068766
C25	C	-0.075172	-0.132293	-0.068771
C26	C	-0.075132	-0.132298	0.068491
C27	C	-0.148065	-0.133892	0.068494
C28	C	-0.184548	-0.134677	-0.000137
C29	C	0.038933	-0.129793	-0.000148
C30	C	-0.038687	-0.131494	-0.000146
C31	C	-0.826449	0.051537	-0.000127
C32	C	-0.817418	0.166572	-0.000127
C33	C	-0.841468	-0.327439	-0.000140
C34	C	-0.850499	-0.442474	-0.000145
N35	N	-0.833944	-0.137958	0.179031
C36	C	-0.925986	0.408040	-0.000159
C37	C	-0.917504	0.516126	-0.000159
C38	C	-0.791972	0.490832	-0.000132
C39	C	-0.800454	0.382746	-0.000132
C40	C	-0.867463	0.341354	-0.000145
C41	C	-0.875945	0.233266	-0.000139
C42	C	-0.750414	0.207975	-0.000118
C43	C	-0.741932	0.316061	-0.000118
N44	N	-0.833978	-0.137936	-0.179296
C45	C	-0.880492	-0.200616	0.781071
C46	C	-0.880486	-0.200627	0.701823
C47	C	-0.833972	-0.137937	0.662212
C48	C	-0.787449	-0.075252	0.701855
C49	C	-0.787452	-0.075252	0.781101
N50	N	-0.826055	-0.047161	0.537791
N51	N	-0.826057	-0.047164	0.462511
C52	C	-0.833960	-0.137937	0.423448
N53	N	-0.841875	-0.228707	0.462509
N54	N	-0.841877	-0.228702	0.537797
C55	C	-0.833964	-0.137931	0.576283
C56	C	-0.880470	-0.200634	0.297885
C57	C	-0.880459	-0.200647	0.218636
C58	C	-0.787425	-0.075263	0.218670
C59	C	-0.787433	-0.075260	0.297917
C60	C	-0.833959	-0.137944	0.337520
H61	H	-0.622415	-0.144311	0.124416
H62	H	-0.702760	0.153667	-0.000100
H63	H	-0.918351	-0.251680	0.330132
H64	H	-0.965159	0.570419	-0.000174
Br65	Br	-0.470295	-0.140973	0.161657
Br66	Br	-0.197623	-0.134950	-0.161905
H67	H	-0.687374	0.349777	-0.000111
H68	H	-0.622489	-0.144264	-0.124614
Br69	Br	-0.943573	-0.285750	0.164846
H70	H	-0.918376	-0.251661	0.813311
H71	H	-0.045504	-0.131640	-0.124658
H72	H	-0.918363	-0.251673	0.669547
H73	H	-0.749576	-0.024212	0.669599
H74	H	-0.749549	-0.024226	0.186419
H75	H	-0.749559	-0.024213	0.330187
Br76	Br	-0.724320	0.009820	0.834893
Br77	Br	-0.966884	0.177092	-0.000148
H78	H	-0.045423	-0.131652	0.124366
H79	H	-0.177735	-0.134545	0.124378
Br80	Br	-0.470391	-0.140937	-0.161880
H81	H	-0.980547	0.374339	-0.000162
H82	H	-0.737416	0.524553	-0.000131
