data_functionalizedCrystal
_audit_creation_method	'MofGen! by Chris Wilmer'
_symmetry_space_group_name_H-M	'P1'
_symmetry_Int_Tables_number	1
_symmetry_cell_setting	triclinic
loop_
_symmetry_equiv_pos_as_xyz
  x,y,z
_cell_length_a	15.944564
_cell_length_b	18.266242
_cell_length_c	15.944551
_cell_angle_alpha	90.007297
_cell_angle_beta	96.498664
_cell_angle_gamma	89.995454
loop_
_atom_site_label
_atom_site_type_symbol
_atom_site_fract_x
_atom_site_fract_y
_atom_site_fract_z
O1	O	-1.114523	0.060806	0.108384
O2	O	-0.614523	0.560806	0.608384
O3	O	-0.869975	0.060825	0.121729
O4	O	-0.369975	0.560825	0.621729
O5	O	-0.998927	0.060808	-0.007218
O6	O	-0.498927	0.560808	0.492782
O7	O	-0.985571	0.060822	0.237331
O8	O	-0.485571	0.560822	0.737331
O9	O	-0.998905	-0.060954	-0.007224
O10	O	-0.498905	0.439046	0.492776
O11	O	-0.869953	-0.060937	0.121723
O12	O	-0.369953	0.439063	0.621723
O13	O	-1.114501	-0.060956	0.108378
O14	O	-0.614501	0.439044	0.608378
Zn15	Zn	-0.992223	-0.080279	0.115049
Zn16	Zn	-0.492223	0.419721	0.615049
Zn17	Zn	-0.992252	0.080148	0.115058
Zn18	Zn	-0.492252	0.580148	0.615058
O19	O	-0.985549	-0.060939	0.237325
O20	O	-0.485549	0.439061	0.737325
C21	C	-0.838670	-0.000054	0.121170
C22	C	-0.338670	0.499946	0.621170
C23	C	-0.745425	-0.000047	0.119504
C24	C	-0.245425	0.499953	0.619504
N25	N	-0.992210	-0.189766	0.115043
N26	N	-0.492210	0.310234	0.615043
C27	C	-0.530569	-0.000066	0.035589
C28	C	-0.030569	0.499934	0.535589
C29	C	-0.469560	0.059971	0.074552
C30	C	0.030440	0.559971	0.574552
C31	C	-0.574700	-0.000056	0.116488
C32	C	-0.074700	0.499944	0.616488
C33	C	-0.469561	-0.060077	0.074565
C34	C	0.030439	0.439923	0.574565
C35	C	-0.409788	-0.000068	0.113570
C36	C	0.090212	0.499932	0.613570
C37	C	-0.514919	0.060031	0.155474
C38	C	-0.014919	0.560031	0.655474
C39	C	-0.514926	-0.060071	0.155475
C40	C	-0.014926	0.439929	0.655475
C41	C	-0.453935	-0.000019	0.194497
C42	C	0.046065	0.499981	0.694497
C43	C	-0.669701	-0.000049	0.118167
C44	C	-0.169701	0.499951	0.618167
C45	C	-0.314787	-0.000070	0.111898
C46	C	0.185213	0.499930	0.611898
C47	C	-1.049329	-0.228082	0.057973
C48	C	-0.549329	0.271918	0.557973
C49	C	-1.049334	-0.304727	0.057969
C50	C	-0.549334	0.195273	0.557969
C51	C	-0.992229	-0.343053	0.115049
C52	C	-0.492229	0.156947	0.615049
C53	C	-0.935099	-0.304727	0.172123
C54	C	-0.435099	0.195273	0.672123
C55	C	-0.935090	-0.228084	0.172120
C56	C	-0.435090	0.271916	0.672120
N57	N	-0.981541	-0.463380	0.189372
N58	N	-0.481541	0.036620	0.689372
N59	N	-0.981555	-0.536188	0.189373
N60	N	-0.481555	-0.036188	0.689373
C61	C	-0.992252	-0.573975	0.115061
C62	C	-0.492252	-0.073975	0.615061
N63	N	-1.002951	-0.536203	0.040747
N64	N	-0.502951	-0.036203	0.540747
N65	N	-1.002941	-0.463389	0.040747
N66	N	-0.502941	0.036611	0.540747
C67	C	-0.992232	-0.426160	0.115059
C68	C	-0.492232	0.073840	0.615059
C69	C	-1.049380	-0.695398	0.057983
C70	C	-0.549380	-0.195398	0.557983
C71	C	-1.049379	-0.772045	0.057978
C72	C	-0.549379	-0.272045	0.557978
C73	C	-0.935148	-0.772044	0.172139
C74	C	-0.435148	-0.272044	0.672139
C75	C	-0.935145	-0.695399	0.172137
C76	C	-0.435145	-0.195399	0.672137
C77	C	-0.992265	-0.657081	0.115060
C78	C	-0.492265	-0.157081	0.615060
C79	C	-0.145807	-0.000075	0.108925
C80	C	0.354193	0.499925	0.608925
C81	C	-0.239057	-0.000077	0.110558
C82	C	0.260943	0.499923	0.610558
C83	C	-0.998361	-0.000073	-0.038515
C84	C	-0.498361	0.499927	0.461485
C85	C	-0.996699	-0.000073	-0.131761
C86	C	-0.496699	0.499927	0.368239
N87	N	-0.992272	0.189635	0.115058
N88	N	-0.492272	0.689635	0.615058
C89	C	-0.912795	-0.000057	-0.346622
C90	C	-0.412795	0.499943	0.153378
C91	C	-0.951747	-0.060096	-0.407640
C92	C	-0.451747	0.439904	0.092360
C93	C	-0.993692	-0.000067	-0.302487
C94	C	-0.493692	0.499933	0.197513
C95	C	-0.951787	0.059952	-0.407617
C96	C	-0.451787	0.559952	0.092383
C97	C	-0.990781	-0.000058	-0.467400
C98	C	-0.490781	0.499942	0.032600
C99	C	-1.032666	-0.060156	-0.362278
C100	C	-0.532666	0.439844	0.137722
C101	C	-1.032695	0.059946	-0.362248
C102	C	-0.532695	0.559946	0.137752
C103	C	-1.071705	-0.000108	-0.423249
C104	C	-0.571705	0.499892	0.076751
C105	C	-0.995366	-0.000073	-0.207485
C106	C	-0.495366	0.499927	0.292515
C107	C	-0.989113	-0.000058	-0.562401
C108	C	-0.489113	0.499942	-0.062401
C109	C	-0.986114	-0.000057	0.268622
C110	C	-0.486114	0.499943	0.768622
C111	C	-0.987777	-0.000052	0.361868
C112	C	-0.487777	0.499948	0.861868
H113	H	-0.563902	0.000004	-0.031547
H114	H	-0.063902	0.500004	0.468453
H115	H	-0.917570	0.110714	-0.427693
H116	H	-0.417570	0.610714	0.072307
H117	H	-0.888602	-0.335936	0.218598
H118	H	-0.388602	0.164064	0.718598
C119	C	-1.112155	-0.185936	-0.004822
C120	C	-0.612155	0.314064	0.495178
N121	N	-1.159473	-0.154191	-0.052123
N122	N	-0.659473	0.345809	0.447877
H123	H	-1.066891	0.110702	-0.342114
H124	H	-0.566891	0.610702	0.157886
C125	C	-1.112205	-0.653246	-0.004811
C126	C	-0.612205	-0.153246	0.495189
N127	N	-1.159524	-0.621499	-0.052109
N128	N	-0.659524	-0.121499	0.447891
H129	H	-1.095848	-0.335930	0.011494
H130	H	-0.595848	0.164070	0.511494
C131	C	-0.872332	-0.814198	0.234929
C132	C	-0.372332	-0.314198	0.734929
N133	N	-0.825017	-0.845952	0.282224
N134	N	-0.325017	-0.345952	0.782224
H135	H	-0.888576	-0.196886	0.218594
H136	H	-0.388576	0.303114	0.718594
H137	H	-0.888637	-0.664200	0.218612
H138	H	-0.388637	-0.164200	0.718612
H139	H	-0.534916	0.110843	0.189668
H140	H	-0.034916	0.610843	0.689668
C141	C	-0.442398	0.128533	0.028329
C142	C	0.057602	0.628533	0.528329
N143	N	-0.421941	0.180172	-0.006492
N144	N	0.078059	0.680172	0.493508
H145	H	-1.138912	-0.000147	-0.456405
H146	H	-0.638912	0.499853	0.043595
H147	H	-1.066844	-0.110970	-0.342288
H148	H	-0.566844	0.389030	0.157712
H149	H	-0.420776	0.000019	0.261702
H150	H	0.079224	0.500019	0.761702
H151	H	-0.535048	-0.110827	0.189661
H152	H	-0.035048	0.389173	0.689661
C153	C	-1.112204	-0.814192	-0.004821
C154	C	-0.612204	-0.314192	0.495179
N155	N	-1.159521	-0.845938	-0.052126
N156	N	-0.659521	-0.345938	0.447874
C157	C	-0.905510	-0.128659	-0.434816
C158	C	-0.405510	0.371341	0.065184
N159	N	-0.870679	-0.180298	-0.455283
N160	N	-0.370679	0.319702	0.044717
C161	C	-0.442415	-0.128646	0.028317
C162	C	0.057585	0.371354	0.528317
N163	N	-0.421972	-0.180289	-0.006523
N164	N	0.078028	0.319711	0.493477
C165	C	-0.822085	-0.000132	-0.301622
C166	C	-0.322085	0.499868	0.198378
N167	N	-0.753764	-0.000193	-0.267725
N168	N	-0.253764	0.499807	0.232275
