data_functionalizedCrystal
_audit_creation_method	'MofGen! by Chris Wilmer'
_symmetry_space_group_name_H-M	'P1'
_symmetry_Int_Tables_number	1
_symmetry_cell_setting	triclinic
loop_
_symmetry_equiv_pos_as_xyz
  x,y,z
_cell_length_a	11.792241
_cell_length_b	10.723024
_cell_length_c	9.198806
_cell_angle_alpha	89.997988
_cell_angle_beta	90.000255
_cell_angle_gamma	84.330643
loop_
_atom_site_label
_atom_site_type_symbol
_atom_site_fract_x
_atom_site_fract_y
_atom_site_fract_z
O1	O	-1.507283	-0.171036	0.120747
O2	O	-1.173949	0.162297	0.454081
O3	O	-0.840616	0.495631	0.787414
O4	O	-1.176980	-0.188663	0.120781
O5	O	-0.843647	0.144670	0.454114
O6	O	-0.510313	0.478003	0.787447
O7	O	-1.349750	0.001747	0.120758
O8	O	-1.016417	0.335080	0.454091
O9	O	-0.683084	0.668413	0.787425
O10	O	-1.334512	-0.361446	0.120770
O11	O	-1.001179	-0.028113	0.454103
O12	O	-0.667846	0.305221	0.787437
O13	O	-1.349736	0.001747	-0.121027
O14	O	-1.016403	0.335081	0.212306
O15	O	-0.683070	0.668414	0.545639
O16	O	-1.176966	-0.188663	-0.121004
O17	O	-0.843633	0.144671	0.212329
O18	O	-0.510300	0.478004	0.545662
O19	O	-1.507269	-0.171035	-0.121038
O20	O	-1.173935	0.162298	0.212296
O21	O	-0.840602	0.495631	0.545629
Cu22	Cu	-1.342116	-0.179849	-0.143098
Cu23	Cu	-1.008783	0.153484	0.190235
Cu24	Cu	-0.675450	0.486818	0.523569
Cu25	Cu	-1.342133	-0.179850	0.142841
Cu26	Cu	-1.008799	0.153484	0.476174
Cu27	Cu	-0.675466	0.486817	0.809508
O28	O	-1.334499	-0.361445	-0.121015
O29	O	-1.001165	-0.028112	0.212318
O30	O	-0.667832	0.305221	0.545652
C31	C	-1.134680	-0.187556	-0.000108
C32	C	-0.801346	0.145778	0.333226
C33	C	-0.468013	0.479111	0.666559
C34	C	-1.008659	-0.184242	-0.000095
C35	C	-0.675325	0.149092	0.333239
C36	C	-0.341992	0.482425	0.666572
C37	C	-1.348634	0.048244	-0.000133
C38	C	-1.015301	0.381577	0.333200
C39	C	-0.681968	0.714910	0.666534
C40	C	-1.345317	0.186789	-0.000127
C41	C	-1.011983	0.520122	0.333206
C42	C	-0.678650	0.853456	0.666539
C43	C	-1.549569	-0.172143	-0.000146
C44	C	-1.216236	0.161190	0.333187
C45	C	-0.882902	0.494524	0.666520
C46	C	-1.675590	-0.175457	-0.000150
C47	C	-1.342257	0.157876	0.333184
C48	C	-1.008923	0.491210	0.666517
C49	C	-0.777933	-0.178147	-0.000137
C50	C	-0.444600	0.155186	0.333197
C51	C	-0.111267	0.488519	0.666530
C52	C	-0.906326	-0.181533	-0.000114
C53	C	-0.572993	0.151800	0.333220
C54	C	-0.239659	0.485133	0.666553
C55	C	-1.335614	-0.407942	-0.000121
C56	C	-1.002281	-0.074609	0.333212
C57	C	-0.668948	0.258724	0.666546
C58	C	-1.338932	-0.546488	-0.000117
C59	C	-1.005599	-0.213154	0.333216
C60	C	-0.672265	0.120179	0.666550
N61	N	-1.342113	-0.179848	-0.344212
N62	N	-1.008780	0.153485	-0.010879
N63	N	-0.675446	0.486819	0.322455
C64	C	-1.441990	0.262028	-0.000135
C65	C	-1.108656	0.595361	0.333198
C66	C	-0.775323	0.928694	0.666532
C67	C	-1.438563	0.405222	-0.000130
C68	C	-1.105230	0.738555	0.333204
C69	C	-0.771896	1.071889	0.666537
C70	C	-1.414654	-0.099549	-0.416419
C71	C	-1.081321	0.233785	-0.083085
C72	C	-0.747988	0.567118	0.250248
C73	C	-1.414672	-0.099544	-0.583831
C74	C	-1.081339	0.233789	-0.250497
C75	C	-0.748005	0.567123	0.082836
N76	N	-1.342145	-0.179841	0.343955
N77	N	-1.008811	0.153492	0.677288
N78	N	-0.675478	0.486826	1.010622
H79	H	-1.527292	0.220431	-0.000153
H80	H	-1.193959	0.553764	0.333181
H81	H	-0.860625	0.887098	0.666514
H82	H	-1.260014	0.228386	-0.000109
H83	H	-0.926681	0.561719	0.333224
H84	H	-0.593348	0.895052	0.666557
H85	H	-1.280016	-0.248588	-0.406332
H86	H	-0.946683	0.084746	-0.072998
H87	H	-0.613350	0.418079	0.260335
H88	H	-1.521323	0.469873	-0.000143
H89	H	-1.187989	0.803207	0.333191
H90	H	-0.854656	1.136540	0.666524
H91	H	-1.256168	0.388868	-0.000120
H92	H	-0.922835	0.722201	0.333213
H93	H	-0.589501	1.055535	0.666547
H94	H	-1.476743	-0.030799	-0.354301
H95	H	-1.143410	0.302534	-0.020967
H96	H	-0.810077	0.635868	0.312366
H97	H	-1.476782	-0.030801	-0.645925
H98	H	-1.143448	0.302532	-0.312592
H99	H	-0.810115	0.635866	0.020741
H100	H	-1.280040	-0.248597	-0.593960
H101	H	-0.946707	0.084737	-0.260627
H102	H	-0.613373	0.418070	0.072707
