data_functionalizedCrystal
_audit_creation_method	'MofGen! by Chris Wilmer'
_symmetry_space_group_name_H-M	'P1'
_symmetry_Int_Tables_number	1
_symmetry_cell_setting	triclinic
loop_
_symmetry_equiv_pos_as_xyz
  x,y,z
_cell_length_a	10.489746
_cell_length_b	10.489716
_cell_length_c	15.455313
_cell_angle_alpha	92.696181
_cell_angle_beta	87.294324
_cell_angle_gamma	84.535218
loop_
_atom_site_label
_atom_site_type_symbol
_atom_site_fract_x
_atom_site_fract_y
_atom_site_fract_z
O1	O	1.699569	0.174478	-0.072064
O2	O	2.199569	0.674478	0.427936
O3	O	1.328374	0.191363	-0.072078
O4	O	1.828374	0.691363	0.427922
O5	O	1.522435	-0.002679	-0.072074
O6	O	2.022435	0.497321	0.427926
O7	O	1.505509	0.368521	-0.072068
O8	O	2.005509	0.868521	0.427932
O9	O	1.511337	0.008371	0.072188
O10	O	2.011337	0.508371	0.572188
O11	O	1.317276	0.202414	0.072184
O12	O	1.817276	0.702414	0.572184
O13	O	1.688472	0.185529	0.072198
O14	O	2.188472	0.685529	0.572198
Cu15	Cu	1.501861	0.194980	0.085363
Cu16	Cu	2.001861	0.694980	0.585363
Cu17	Cu	1.514985	0.181912	-0.085243
Cu18	Cu	2.014985	0.681912	0.414757
O19	O	1.494411	0.379571	0.072194
O20	O	1.994411	0.879571	0.572194
C21	C	1.275294	0.195612	0.000051
C22	C	1.775294	0.695612	0.500051
C23	C	1.133665	0.191791	0.000046
C24	C	1.633665	0.691791	0.500046
C25	C	0.980818	0.066067	0.000056
C26	C	1.480818	0.566067	0.500056
C27	C	1.052735	0.134373	0.071183
C28	C	1.552735	0.634373	0.571183
C29	C	1.063632	0.123508	-0.071048
C30	C	1.563632	0.623508	0.428952
C31	C	0.953227	0.253361	0.071253
C32	C	1.453227	0.753361	0.571253
C33	C	0.964124	0.242473	-0.071042
C34	C	1.464124	0.742473	0.428958
C35	C	1.035990	0.310868	0.000102
C36	C	1.535990	0.810868	0.500102
C37	C	1.515614	-0.044686	0.000055
C38	C	2.015614	0.455314	0.500055
C39	C	1.511810	-0.186318	0.000047
C40	C	2.011810	0.313682	0.500047
C41	C	1.630813	-0.283989	0.000059
C42	C	2.130813	0.216011	0.500059
C43	C	1.573401	-0.366799	-0.071070
C44	C	2.073401	0.133201	0.428930
C45	C	1.562432	-0.355868	0.071161
C46	C	2.062432	0.144132	0.571161
C47	C	1.454452	-0.267267	-0.071141
C48	C	1.954452	0.232733	0.428859
C49	C	1.443495	-0.256326	0.071154
C50	C	1.943495	0.243674	0.571154
C51	C	1.385996	-0.339089	0.000008
C52	C	1.885996	0.160911	0.500008
C53	C	1.741552	0.181280	0.000067
C54	C	2.241552	0.681280	0.500067
C55	C	1.883181	0.185100	0.000067
C56	C	2.383181	0.685100	0.500067
C57	C	1.501231	0.421578	0.000064
C58	C	2.001231	0.921578	0.500064
C59	C	1.505036	0.563209	0.000066
C60	C	2.005036	1.063209	0.500066
N61	N	1.492639	0.204171	0.205359
N62	N	1.992639	0.704171	0.705359
N63	N	1.524217	0.172711	-0.205238
N64	N	2.024217	0.672711	0.294762
C65	C	1.575112	0.121765	0.250754
C66	C	2.075112	0.621765	0.750754
C67	C	1.568150	0.128728	0.341562
C68	C	2.068150	0.628728	0.841562
C69	C	1.478720	0.218102	0.386972
C70	C	1.978720	0.718102	0.886972
C71	C	1.396238	0.300511	0.341570
C72	C	1.896238	0.800511	0.841570
C73	C	1.403195	0.293542	0.250764
C74	C	1.903195	0.793542	0.750764
C75	C	1.448692	0.248151	0.658553
C76	C	1.948692	0.748151	1.158553
C77	C	1.441744	0.255117	0.749366
C78	C	1.941744	0.755117	1.249366
C79	C	1.613654	0.083331	0.749351
C80	C	2.113654	0.583331	1.249351
C81	C	1.620608	0.076374	0.658544
C82	C	2.120608	0.576374	1.158544
C83	C	1.538122	0.158779	0.613149
C84	C	2.038122	0.658779	1.113149
N85	N	1.471604	0.225224	0.479792
N86	N	1.971604	0.725224	0.979792
N87	N	1.545233	0.151650	0.520331
N88	N	2.045233	0.651650	1.020331
H89	H	1.111705	0.068630	-0.131182
H90	H	1.611705	0.568630	0.368818
H91	H	0.905312	0.308187	0.131455
H92	H	1.405312	0.808187	0.631455
H93	H	1.091590	0.088730	0.131316
H94	H	1.591590	0.588730	0.631316
H95	H	1.282408	-0.363524	-0.000034
H96	H	1.782408	0.136476	0.499966
H97	H	1.381530	0.315250	0.621600
H98	H	1.881530	0.815250	1.121600
H99	H	1.388677	-0.208203	0.131288
H100	H	1.888677	0.291797	0.631288
H101	H	0.956101	-0.037430	0.000126
H102	H	1.456101	0.462570	0.500126
H103	H	1.680809	0.016240	0.786320
H104	H	2.180809	0.516240	1.286320
H105	H	1.734332	-0.259315	-0.000010
H106	H	2.234332	0.240685	0.499990
H107	H	1.608067	-0.394734	0.131293
H108	H	2.108067	0.105266	0.631293
H109	H	1.628263	-0.414899	-0.131202
H110	H	2.128263	0.085101	0.368798
H111	H	1.060454	0.414451	0.000143
H112	H	1.560454	0.914451	0.500143
H113	H	0.925245	0.288071	-0.131177
H114	H	1.425245	0.788071	0.368823
H115	H	1.408873	-0.228575	-0.131341
H116	H	1.908873	0.271425	0.368659
H117	H	1.647940	0.048993	0.213787
H118	H	2.147940	0.548993	0.713787
H119	H	1.635305	0.061626	0.378523
H120	H	2.135305	0.561626	0.878523
H121	H	1.693429	0.003599	0.621572
H122	H	2.193429	0.503599	1.121572
H123	H	1.368915	0.327901	0.786335
H124	H	1.868915	0.827901	1.286335
H125	H	1.323416	0.373278	0.378548
H126	H	1.823416	0.873278	0.878548
H127	H	1.336035	0.360643	0.213804
H128	H	1.836035	0.860643	0.713804
