data_functionalizedCrystal
_audit_creation_method	'MofGen! by Chris Wilmer'
_symmetry_space_group_name_H-M	'P1'
_symmetry_Int_Tables_number	1
_symmetry_cell_setting	triclinic
loop_
_symmetry_equiv_pos_as_xyz
  x,y,z
_cell_length_a	13.635800
_cell_length_b	17.982959
_cell_length_c	19.551833
_cell_angle_alpha	83.861934
_cell_angle_beta	78.336523
_cell_angle_gamma	102.451857
loop_
_atom_site_label
_atom_site_type_symbol
_atom_site_fract_x
_atom_site_fract_y
_atom_site_fract_z
V1	V	-2.000588	-0.106212	0.218152
O2	O	-1.997226	0.004282	0.213699
O3	O	-1.973897	-0.209811	0.216949
O4	O	-1.971966	-0.104939	0.313164
O5	O	-1.999170	-0.101315	0.116818
V6	V	-2.243298	-0.092953	0.205996
O7	O	-2.129137	-0.135297	0.244816
O8	O	-2.339847	-0.063869	0.179333
O9	O	-2.158386	0.010645	0.207200
O10	O	-2.305358	-0.203448	0.210449
O11	O	-2.303413	-0.097850	0.307331
O12	O	-2.160317	-0.094226	0.110985
V13	V	-1.500588	-0.106212	0.218152
O14	O	-1.497226	0.004282	0.213699
O15	O	-1.473897	-0.209811	0.216949
O16	O	-1.471966	-0.104939	0.313164
O17	O	-1.499170	-0.101315	0.116818
V18	V	-1.743298	-0.092953	0.205996
O19	O	-1.629137	-0.135297	0.244816
O20	O	-1.839847	-0.063869	0.179333
O21	O	-1.658386	0.010645	0.207200
O22	O	-1.805358	-0.203448	0.210449
O23	O	-1.803413	-0.097850	0.307331
O24	O	-1.660317	-0.094226	0.110985
C25	C	-1.895934	-0.235055	0.213582
C26	C	-1.914725	-0.319750	0.213231
C27	C	-1.893470	-0.101280	0.336313
C28	C	-1.910694	-0.100924	0.413987
C29	C	-2.014348	-0.363433	0.216563
C30	C	-2.031999	-0.443014	0.216238
C31	C	-1.950024	-0.478909	0.212576
C32	C	-1.850393	-0.435220	0.209246
C33	C	-1.832745	-0.355642	0.209577
C34	C	-1.921565	-0.756151	0.207915
C35	C	-1.939221	-0.835735	0.207583
C36	C	-2.120820	-0.843523	0.214576
C37	C	-2.103171	-0.763945	0.214907
C38	C	-2.003543	-0.720264	0.211581
C39	C	-1.984406	-0.633973	0.211935
C40	C	-1.969159	-0.565197	0.212217
C41	C	-2.068019	0.035885	0.210565
C42	C	-2.038847	0.120579	0.210920
C43	C	-2.070483	-0.097889	0.087832
C44	C	-2.042879	-0.098240	0.010157
C45	C	-1.395934	-0.235055	0.213582
C46	C	-1.414725	-0.319750	0.213231
C47	C	-1.393470	-0.101280	0.336313
C48	C	-1.410694	-0.100924	0.413987
C49	C	-2.009580	-0.104581	0.454045
C50	C	-2.025764	-0.104248	0.527028
C51	C	-1.943059	-0.100272	0.559954
C52	C	-1.844157	-0.096609	0.519886
C53	C	-1.827975	-0.096936	0.446903
C54	C	-1.910662	-0.141698	0.679380
C55	C	-1.926849	-0.141377	0.752363
C56	C	-1.992967	-0.099262	0.785058
C57	C	-2.042915	-0.057479	0.744763
C58	C	-2.026732	-0.057805	0.671780
C59	C	-1.960596	-0.099917	0.639091
C60	C	-2.109407	-0.102556	0.904253
C61	C	-2.125586	-0.102218	0.977237
C62	C	-1.943979	-0.094587	0.970094
C63	C	-1.927801	-0.094918	0.897110
C64	C	-2.010520	-0.098907	0.864195
C65	C	-1.568019	0.035885	0.210565
C66	C	-1.538847	0.120579	0.210920
C67	C	-1.570483	-0.097889	0.087832
C68	C	-1.542879	-0.098240	0.010157
C69	C	-1.514357	-0.363421	0.216569
C70	C	-1.532030	-0.443004	0.216250
C71	C	-1.450068	-0.478913	0.212589
C72	C	-1.350428	-0.435236	0.209254
C73	C	-1.332758	-0.355656	0.209577
C74	C	-1.509587	-0.104569	0.454036
C75	C	-1.525781	-0.104225	0.527019
C76	C	-1.443083	-0.100242	0.559952
C77	C	-1.344182	-0.096594	0.519897
C78	C	-1.327987	-0.096933	0.446915
C79	C	-1.611709	0.164250	0.207584
C80	C	-1.584308	0.243832	0.207906
C81	C	-1.484047	0.279741	0.211569
C82	C	-1.411180	0.236065	0.214902
C83	C	-1.438579	0.156485	0.214575
C84	C	-1.443346	-0.102215	-0.022758
C85	C	-1.417391	-0.102536	-0.095743
C86	C	-1.490974	-0.098888	-0.135811
C87	C	-1.590515	-0.094911	-0.102892
C88	C	-1.616465	-0.094584	-0.029909
H89	H	-2.081103	-0.334212	0.219538
Cl90	Cl	-1.683011	-0.090335	-0.153272
H91	H	-1.456285	-0.099967	0.619379
Cl92	Cl	-1.449618	0.379786	0.211980
H93	H	-1.247457	-0.093966	0.414313
Cl94	Cl	-2.157245	-0.497927	0.220424
H95	H	-1.329545	0.265314	0.217884
H96	H	-2.201944	-0.879098	0.217285
Cl97	Cl	-1.240232	-0.091598	0.561311
Cl98	Cl	-1.346968	0.101593	0.218772
Cl99	Cl	-1.836157	-0.880859	0.202981
Cl100	Cl	-1.350822	-0.106800	0.027597
H101	H	-1.693352	0.135024	0.204603
Cl102	Cl	-1.458334	-0.099303	-0.227561
H103	H	-2.096756	-0.023187	0.771381
H104	H	-1.697518	-0.091352	-0.003115
H105	H	-2.169925	-0.734723	0.217885
H106	H	-1.336336	-0.105775	-0.122536
Cl107	Cl	-1.796318	-0.701247	0.203728
H108	H	-1.464470	-0.543713	0.212326
Cl109	Cl	-1.747338	-0.480346	0.204647
H110	H	-1.576936	-0.107815	0.427233
Cl111	Cl	-1.707499	-0.300726	0.205393
Cl112	Cl	-1.650122	-0.108817	0.577359
H113	H	-2.076937	-0.107826	0.427249
Cl114	Cl	-1.675927	0.298723	0.203717
H115	H	-1.283700	-0.464485	0.206273
H116	H	-1.251624	-0.320103	0.206856
Cl117	Cl	-2.150088	-0.108841	0.577396
H118	H	-2.067401	-0.023782	0.638974
Cl119	Cl	-2.213392	-0.107563	0.862868
H120	H	-2.206112	-0.105190	1.009850
H121	H	-1.876637	-0.091343	0.996900
Cl122	Cl	-1.864064	-0.193909	0.803013
Cl123	Cl	-1.803482	-0.090333	0.846751
Cl124	Cl	-1.657295	-0.497895	0.220439
H125	H	-1.856810	-0.175988	0.652766
Cl126	Cl	-1.703651	-0.092341	0.396543
Cl127	Cl	-1.617415	-0.318298	0.221178
Cl128	Cl	-1.740185	-0.091608	0.561277
