data_functionalizedCrystal
_audit_creation_method	'MofGen! by Chris Wilmer'
_symmetry_space_group_name_H-M	'P1'
_symmetry_Int_Tables_number	1
_symmetry_cell_setting	triclinic
loop_
_symmetry_equiv_pos_as_xyz
  x,y,z
_cell_length_a	17.038275
_cell_length_b	13.101018
_cell_length_c	14.044190
_cell_angle_alpha	86.339369
_cell_angle_beta	87.848219
_cell_angle_gamma	86.400870
loop_
_atom_site_label
_atom_site_type_symbol
_atom_site_fract_x
_atom_site_fract_y
_atom_site_fract_z
O1	O	-1.055810	0.085084	0.202103
O2	O	-0.555810	0.585084	0.702103
O3	O	-0.827951	0.085118	0.198813
O4	O	-0.327951	0.585118	0.698813
O5	O	-0.938456	0.085081	0.062198
O6	O	-0.438456	0.585081	0.562198
O7	O	-0.945304	0.085121	0.338718
O8	O	-0.445304	0.585121	0.838718
O9	O	-0.930518	-0.085346	0.072009
O10	O	-0.430518	0.414654	0.572009
O11	O	-0.820013	-0.085309	0.208624
O12	O	-0.320013	0.414691	0.708624
O13	O	-1.047872	-0.085344	0.211913
O14	O	-0.547872	0.414656	0.711913
Zn15	Zn	-0.932682	-0.112386	0.211826
Zn16	Zn	-0.432682	0.387614	0.711826
Zn17	Zn	-0.943141	0.112160	0.198900
Zn18	Zn	-0.443141	0.612160	0.698900
O19	O	-0.937366	-0.085307	0.348528
O20	O	-0.437366	0.414693	0.848528
C21	C	-0.794645	-0.000092	0.200729
C22	C	-0.294645	0.499908	0.700729
C23	C	-0.707228	-0.000079	0.191809
C24	C	-0.207228	0.499921	0.691809
N25	N	-0.925550	-0.265632	0.220647
N26	N	-0.425550	0.234368	0.720647
C27	C	-0.959977	-0.525553	0.178066
C28	C	-0.459977	-0.025553	0.678066
C29	C	-0.915853	-0.474666	0.232650
C30	C	-0.415853	0.025334	0.732650
C31	C	-0.921250	-0.358349	0.225970
C32	C	-0.421250	0.141651	0.725970
C33	C	-0.954582	-0.641881	0.184745
C34	C	-0.454582	-0.141881	0.684745
C35	C	-0.662845	-0.000068	0.273696
C36	C	-0.162845	0.499932	0.773696
C37	C	-0.580707	-0.000081	0.265311
C38	C	-0.080707	0.499919	0.765311
C39	C	-0.542954	-0.000100	0.175036
C40	C	-0.042954	0.499900	0.675036
C41	C	-0.587343	-0.000114	0.093142
C42	C	-0.087343	0.499886	0.593142
C43	C	-0.669479	-0.000108	0.101529
C44	C	-0.169479	0.499892	0.601529
C45	C	-0.295121	-0.000126	0.145407
C46	C	0.204879	0.499874	0.645407
C47	C	-0.212979	-0.000130	0.137026
C48	C	0.287021	0.499870	0.637026
C49	C	-0.206349	-0.000099	0.309195
C50	C	0.293651	0.499901	0.809195
C51	C	-0.288487	-0.000086	0.317574
C52	C	0.211513	0.499914	0.817574
C53	C	-0.332869	-0.000106	0.235681
C54	C	0.167131	0.499894	0.735681
C55	C	-0.458996	-0.000110	0.166462
C56	C	0.041004	0.499890	0.666462
C57	C	-0.416825	-0.000103	0.244256
C58	C	0.083175	0.499897	0.744256
C59	C	-0.081178	-0.000127	0.209997
C60	C	0.418822	0.499873	0.709997
C61	C	-0.168596	-0.000118	0.218914
C62	C	0.331404	0.499882	0.718914
C63	C	-0.931492	-0.000135	0.031548
C64	C	-0.431492	0.499865	0.531548
C65	C	-0.922558	-0.000143	-0.074398
C66	C	-0.422558	0.499857	0.425602
N67	N	-0.950278	0.265407	0.190072
N68	N	-0.450278	0.765407	0.690072
C69	C	-0.969586	-0.000109	-0.320894
C70	C	-0.469586	0.499891	0.179106
C71	C	-0.906240	-0.000107	-0.268374
C72	C	-0.406240	0.499893	0.231626
C73	C	-0.915322	-0.000127	-0.160436
C74	C	-0.415322	0.499873	0.339564
C75	C	-0.960506	-0.000090	-0.428842
C76	C	-0.460506	0.499910	0.071158
C77	C	-0.944331	-0.000088	0.379179
C78	C	-0.444331	0.499912	0.879179
C79	C	-0.953265	-0.000074	0.485124
C80	C	-0.453265	0.499926	0.985124
H81	H	-1.001804	-0.481767	0.126323
H82	H	-0.501804	0.018233	0.626323
N83	N	-1.050453	-0.000153	-0.273083
N84	N	-0.550453	0.499847	0.226917
H85	H	-1.082945	0.063017	-0.296398
H86	H	-0.582945	0.563017	0.203602
H87	H	-1.045487	-0.000209	-0.201645
H88	H	-0.545487	0.499791	0.298355
H89	H	-0.845187	-0.000092	-0.304474
H90	H	-0.345187	0.499908	0.195526
N91	N	-0.457543	-0.000069	0.341619
N92	N	0.042457	0.499931	0.841619
H93	H	-0.416966	-0.000058	0.392228
H94	H	0.083034	0.499942	0.892228
H95	H	-0.488544	-0.063244	0.352490
H96	H	0.011456	0.436756	0.852490
N97	N	-0.860445	-0.532661	0.301198
N98	N	-0.360445	-0.032661	0.801198
H99	H	-0.864394	-0.608737	0.296318
H100	H	-0.364394	-0.108737	0.796318
H101	H	-0.875137	-0.513963	0.368494
H102	H	-0.375137	-0.013963	0.868494
N103	N	-0.342984	-0.000155	0.057084
N104	N	0.157016	0.499845	0.557084
H105	H	-0.306601	-0.000166	-0.001375
H106	H	0.193399	0.499834	0.498625
H107	H	-0.380146	0.063022	0.053168
H108	H	0.119854	0.563022	0.553168
H109	H	-0.544573	-0.000071	0.331993
H110	H	-0.044573	0.499929	0.831993
N111	N	-0.703562	-0.000036	0.371064
N112	N	-0.203562	0.499964	0.871064
H113	H	-0.662978	-0.000031	0.421666
H114	H	-0.162978	0.499969	0.921666
H115	H	-0.734563	-0.063210	0.381935
H116	H	-0.234563	0.436790	0.881935
H117	H	-0.319220	-0.000059	0.391084
H118	H	0.180780	0.499941	0.891084
N119	N	-0.158481	-0.000079	0.397519
N120	N	0.341519	0.499921	0.897519
H121	H	-0.100719	-0.000086	0.378512
H122	H	0.399281	0.499914	0.878512
H123	H	-0.168456	-0.063252	0.440213
H124	H	0.331544	0.436748	0.940213
H125	H	-0.182244	-0.000143	0.063510
H126	H	0.317756	0.499857	0.563510
H127	H	-0.556597	-0.000144	0.019639
H128	H	-0.056597	0.499856	0.519639
N129	N	-0.717348	-0.000126	0.013204
N130	N	-0.217348	0.499874	0.513204
H131	H	-0.707442	0.063043	-0.029530
H132	H	-0.207442	0.563043	0.470470
H133	H	-0.775090	-0.000163	0.032292
H134	H	-0.275090	0.499837	0.532292
N135	N	-0.418266	-0.000119	0.069101
N136	N	0.081734	0.499881	0.569101
H137	H	-0.436938	0.063057	0.029288
H138	H	0.063062	0.563057	0.529288
H139	H	-0.431083	-0.063340	0.036636
H140	H	0.068917	0.436660	0.536636
