data_functionalizedCrystal
_audit_creation_method	'MofGen! by Chris Wilmer'
_symmetry_space_group_name_H-M	'P1'
_symmetry_Int_Tables_number	1
_symmetry_cell_setting	triclinic
loop_
_symmetry_equiv_pos_as_xyz
  x,y,z
_cell_length_a	19.121102
_cell_length_b	25.639239
_cell_length_c	25.639233
_cell_angle_alpha	89.981253
_cell_angle_beta	87.548369
_cell_angle_gamma	87.592882
loop_
_atom_site_label
_atom_site_type_symbol
_atom_site_fract_x
_atom_site_fract_y
_atom_site_fract_z
Zn1	Zn	1.073601	-0.242371	-0.329671
Zn2	Zn	1.323601	0.007629	-0.079671
Zn3	Zn	1.573601	0.257629	0.170329
Zn4	Zn	1.823601	0.507629	0.420329
Zn5	Zn	1.073498	-0.329786	-0.242232
Zn6	Zn	1.323498	-0.079786	0.007768
Zn7	Zn	1.573498	0.170214	0.257768
Zn8	Zn	1.823498	0.420214	0.507768
Zn9	Zn	0.956164	-0.238634	-0.238524
Zn10	Zn	1.206164	0.011366	0.011476
Zn11	Zn	1.456164	0.261366	0.261476
Zn12	Zn	1.706164	0.511366	0.511476
Zn13	Zn	0.956091	-0.326038	-0.325912
Zn14	Zn	1.206091	-0.076038	-0.075912
Zn15	Zn	1.456091	0.173962	0.174088
Zn16	Zn	1.706091	0.423962	0.424088
O17	O	1.014838	-0.284207	-0.284085
O18	O	1.264838	-0.034207	-0.034085
O19	O	1.514838	0.215793	0.215915
O20	O	1.764838	0.465793	0.465915
O21	O	1.171870	-0.257099	-0.321197
O22	O	1.421870	-0.007099	-0.071197
O23	O	1.671870	0.242901	0.178803
O24	O	1.921870	0.492901	0.428803
O25	O	1.057921	-0.317699	-0.168575
O26	O	1.307921	-0.067699	0.081425
O27	O	1.557921	0.182301	0.331425
O28	O	1.807921	0.432301	0.581425
O29	O	0.971816	-0.165966	-0.250636
O30	O	1.221816	0.084034	-0.000636
O31	O	1.471816	0.334034	0.249364
O32	O	1.721816	0.584034	0.499364
O33	O	1.171794	-0.321323	-0.256956
O34	O	1.421794	-0.071323	-0.006956
O35	O	1.671794	0.178677	0.243044
O36	O	1.921794	0.428677	0.493044
O37	O	1.058096	-0.168712	-0.317602
O38	O	1.308096	0.081288	-0.067602
O39	O	1.558096	0.331288	0.182398
O40	O	1.808096	0.581288	0.432398
O41	O	0.971717	-0.250730	-0.165850
O42	O	1.221717	-0.000730	0.084150
O43	O	1.471717	0.249270	0.334150
O44	O	1.721717	0.499270	0.584150
O45	O	0.857872	-0.247096	-0.246991
O46	O	1.107872	0.002904	0.003009
O47	O	1.357872	0.252904	0.253009
O48	O	1.607872	0.502904	0.503009
O49	O	0.971691	-0.314935	-0.399576
O50	O	1.221691	-0.064935	-0.149576
O51	O	1.471691	0.185065	0.100424
O52	O	1.721691	0.435065	0.350424
O53	O	0.857817	-0.311311	-0.311194
O54	O	1.107817	-0.061311	-0.061194
O55	O	1.357817	0.188689	0.188806
O56	O	1.607817	0.438689	0.438806
O57	O	1.058025	-0.253465	-0.402338
O58	O	1.308025	-0.003465	-0.152338
O59	O	1.558025	0.246535	0.097662
O60	O	1.808025	0.496535	0.347662
O61	O	1.057850	-0.402452	-0.253311
O62	O	1.307850	-0.152452	-0.003311
O63	O	1.557850	0.097548	0.246689
O64	O	1.807850	0.347548	0.496689
O65	O	0.971591	-0.399698	-0.314790
O66	O	1.221591	-0.149698	-0.064790
O67	O	1.471591	0.100302	0.185210
O68	O	1.721591	0.350302	0.435210
C69	C	0.832361	-0.278392	-0.278282
C70	C	1.082361	-0.028392	-0.028282
C71	C	1.332361	0.221608	0.221718
C72	C	1.582361	0.471608	0.471718
C73	C	0.754296	-0.275916	-0.275813
C74	C	1.004296	-0.025916	-0.025813
C75	C	1.254296	0.224084	0.224187
C76	C	1.504296	0.474084	0.474187
C77	C	1.014720	-0.420046	-0.284057
C78	C	1.264720	-0.170046	-0.034057
C79	C	1.514720	0.079954	0.215943
C80	C	1.764720	0.329954	0.465943
C81	C	1.014734	-0.478160	-0.284065
C82	C	1.264734	-0.228160	-0.034065
C83	C	1.514734	0.021840	0.215935
C84	C	1.764734	0.271840	0.465935
C85	C	0.717611	-0.308238	-0.308027
C86	C	0.967611	-0.058238	-0.058027
C87	C	1.217611	0.191762	0.191973
C88	C	1.467611	0.441762	0.441973
C89	C	0.644261	-0.305905	-0.305709
C90	C	0.894261	-0.055905	-0.055709
C91	C	1.144261	0.194095	0.194291
C92	C	1.394261	0.444095	0.444291
C93	C	0.607597	-0.271253	-0.271173
C94	C	0.857597	-0.021253	-0.021173
C95	C	1.107597	0.228747	0.228827
C96	C	1.357597	0.478747	0.478827
C97	C	0.644287	-0.238929	-0.238958
C98	C	0.894287	0.011071	0.011042
C99	C	1.144287	0.261071	0.261042
C100	C	1.394287	0.511071	0.511042
C101	C	0.717636	-0.241259	-0.241279
C102	C	0.967636	0.008741	0.008721
C103	C	1.217636	0.258741	0.258721
C104	C	1.467636	0.508741	0.508721
C105	C	0.386132	-0.262539	-0.262498
C106	C	0.636132	-0.012539	-0.012498
C107	C	0.886132	0.237461	0.237502
C108	C	1.136132	0.487461	0.487502
C109	C	0.312778	-0.260212	-0.260178
C110	C	0.562778	-0.010212	-0.010178
C111	C	0.812778	0.239788	0.239822
C112	C	1.062778	0.489788	0.489822
C113	C	0.312757	-0.327189	-0.326930
C114	C	0.562757	-0.077189	-0.076930
C115	C	0.812757	0.172811	0.173070
C116	C	1.062757	0.422811	0.423070
C117	C	0.386107	-0.329518	-0.329246
C118	C	0.636107	-0.079518	-0.079246
C119	C	0.886107	0.170482	0.170754
C120	C	1.136107	0.420482	0.420754
C121	C	0.422791	-0.297191	-0.297032
C122	C	0.672791	-0.047191	-0.047032
C123	C	0.922791	0.202809	0.202968
C124	C	1.172791	0.452809	0.452968
C125	C	0.532622	-0.268869	-0.268802
C126	C	0.782622	-0.018869	-0.018802
C127	C	1.032622	0.231131	0.231198
C128	C	1.282622	0.481131	0.481198
C129	C	0.497765	-0.299573	-0.299407
C130	C	0.747765	-0.049573	-0.049407
C131	C	0.997765	0.200427	0.200593
C132	C	1.247765	0.450427	0.450593
C133	C	1.059870	-0.839952	-0.252133
C134	C	1.309870	-0.589952	-0.002133
C135	C	1.559870	-0.339952	0.247867
C136	C	1.809870	-0.089952	0.497867
C137	C	1.059898	-0.894557	-0.252141
C138	C	1.309898	-0.644557	-0.002141
C139	C	1.559898	-0.394557	0.247859
C140	C	1.809898	-0.144557	0.497859
O141	O	1.098152	-0.924004	-0.224962
O142	O	1.348152	-0.674004	0.025038
O143	O	1.598152	-0.424004	0.275038
O144	O	1.848152	-0.174004	0.525038
N145	N	1.014962	-0.920450	-0.284123
N146	N	1.264962	-0.670450	-0.034123
N147	N	1.514962	-0.420450	0.215877
N148	N	1.764962	-0.170450	0.465877
C149	C	0.970001	-0.891735	-0.316104
C150	C	1.220001	-0.641735	-0.066104
C151	C	1.470001	-0.391735	0.183896
C152	C	1.720001	-0.141735	0.433896
O153	O	0.931782	-0.918774	-0.343308
O154	O	1.181782	-0.668774	-0.093308
O155	O	1.431782	-0.418774	0.156692
O156	O	1.681782	-0.168774	0.406692
C157	C	0.969978	-0.837131	-0.316098
C158	C	1.219978	-0.587131	-0.066098
C159	C	1.469978	-0.337131	0.183902
C160	C	1.719978	-0.087131	0.433902
C161	C	1.014911	-0.811241	-0.284110
C162	C	1.264911	-0.561241	-0.034110
C163	C	1.514911	-0.311241	0.215890
C164	C	1.764911	-0.061241	0.465890
C165	C	1.104801	-0.814061	-0.220148
C166	C	1.354801	-0.564061	0.029852
C167	C	1.604801	-0.314061	0.279852
C168	C	1.854801	-0.064061	0.529852
C169	C	1.104773	-0.759460	-0.220140
C170	C	1.354773	-0.509460	0.029860
C171	C	1.604773	-0.259460	0.279860
C172	C	1.854773	-0.009460	0.529860
C173	C	1.059814	-0.730749	-0.252116
C174	C	1.309814	-0.480749	-0.002116
C175	C	1.559814	-0.230749	0.247884
C176	C	1.809814	0.019251	0.497884
C177	C	1.014883	-0.756639	-0.284101
C178	C	1.264883	-0.506639	-0.034101
C179	C	1.514883	-0.256639	0.215899
C180	C	1.764883	-0.006639	0.465899
C181	C	0.925021	-0.808418	-0.348081
C182	C	1.175021	-0.558418	-0.098081
C183	C	1.425021	-0.308418	0.151919
C184	C	1.675021	-0.058418	0.401919
C185	C	0.925002	-0.753810	-0.348073
C186	C	1.175002	-0.503810	-0.098073
C187	C	1.425002	-0.253810	0.151927
C188	C	1.675002	-0.003810	0.401927
C189	C	0.969936	-0.727920	-0.316085
C190	C	1.219936	-0.477920	-0.066085
C191	C	1.469936	-0.227920	0.183915
C192	C	1.719936	0.022080	0.433915
C193	C	0.969896	-0.673327	-0.316070
C194	C	1.219896	-0.423327	-0.066070
C195	C	1.469896	-0.173327	0.183930
C196	C	1.719896	0.076673	0.433930
N197	N	1.014832	-0.647434	-0.284088
N198	N	1.264832	-0.397434	-0.034088
N199	N	1.514832	-0.147434	0.215912
N200	N	1.764832	0.102566	0.465912
C201	C	1.059791	-0.676145	-0.252111
C202	C	1.309791	-0.426145	-0.002111
C203	C	1.559791	-0.176145	0.247889
C204	C	1.809791	0.073855	0.497889
C205	C	0.970054	-1.006408	-0.316113
C206	C	1.220054	-0.756408	-0.066113
C207	C	1.470054	-0.506408	0.183887
C208	C	1.720054	-0.256408	0.433887
C209	C	0.970073	-1.061011	-0.316116
C210	C	1.220073	-0.811011	-0.066116
C211	C	1.470073	-0.561011	0.183884
C212	C	1.720073	-0.311011	0.433884
C213	C	1.059971	-1.063828	-0.252155
C214	C	1.309971	-0.813828	-0.002155
C215	C	1.559971	-0.563828	0.247845
C216	C	1.809971	-0.313828	0.497845
C217	C	1.059948	-1.009224	-0.252149
C218	C	1.309948	-0.759224	-0.002149
C219	C	1.559948	-0.509224	0.247851
C220	C	1.809948	-0.259224	0.497851
C221	C	1.014990	-0.980515	-0.284131
C222	C	1.264990	-0.730515	-0.034131
C223	C	1.514990	-0.480515	0.215869
C224	C	1.764990	-0.230515	0.465869
C225	C	1.059727	-0.561478	-0.252095
C226	C	1.309727	-0.311478	-0.002095
C227	C	1.559727	-0.061478	0.247905
C228	C	1.809727	0.188522	0.497905
C229	C	1.059693	-0.506871	-0.252088
C230	C	1.309693	-0.256871	-0.002088
C231	C	1.559693	-0.006871	0.247912
C232	C	1.809693	0.243129	0.497912
C233	C	0.969798	-0.504058	-0.316052
C234	C	1.219798	-0.254058	-0.066052
C235	C	1.469798	-0.004058	0.183948
C236	C	1.719798	0.245942	0.433948
C237	C	0.969829	-0.558660	-0.316057
C238	C	1.219829	-0.308660	-0.066057
C239	C	1.469829	-0.058660	0.183943
C240	C	1.719829	0.191340	0.433943
C241	C	1.014800	-0.587369	-0.284077
C242	C	1.264800	-0.337369	-0.034077
C243	C	1.514800	-0.087369	0.215923
C244	C	1.764800	0.162631	0.465923
O245	O	0.931663	-0.643846	-0.343237
O246	O	1.181663	-0.393846	-0.093237
O247	O	1.431663	-0.143846	0.156763
O248	O	1.681663	0.106154	0.406763
O249	O	1.098009	-0.649100	-0.224916
O250	O	1.348009	-0.399100	0.025084
O251	O	1.598009	-0.149100	0.275084
O252	O	1.848009	0.100900	0.525084
C253	C	1.198028	-0.290046	-0.289910
C254	C	1.448028	-0.040046	-0.039910
C255	C	1.698028	0.209954	0.210090
C256	C	1.948028	0.459954	0.460090
C257	C	1.276093	-0.292534	-0.292392
C258	C	1.526093	-0.042534	-0.042392
C259	C	1.776093	0.207466	0.207608
C260	C	2.026093	0.457466	0.457608
C261	C	1.014861	-0.284199	-0.420458
C262	C	1.264861	-0.034199	-0.170458
C263	C	1.514861	0.215801	0.079542
C264	C	1.764861	0.465801	0.329542
C265	C	1.014871	-0.284195	-0.478573
C266	C	1.264871	-0.034195	-0.228573
C267	C	1.514871	0.215805	0.021427
C268	C	1.764871	0.465805	0.271427
C269	C	1.014976	-0.147839	-0.284125
C270	C	1.264976	0.102161	-0.034125
C271	C	1.514976	0.352161	0.215875
C272	C	1.764976	0.602161	0.465875
C273	C	1.015035	-0.089726	-0.284142
C274	C	1.265035	0.160274	-0.034142
C275	C	1.515035	0.410274	0.215858
C276	C	1.765035	0.660274	0.465858
C277	C	1.059882	-0.252090	-0.840382
C278	C	1.309882	-0.002090	-0.590382
C279	C	1.559882	0.247910	-0.340382
C280	C	1.809882	0.497910	-0.090382
C281	C	1.059891	-0.252076	-0.894986
C282	C	1.309891	-0.002076	-0.644986
C283	C	1.559891	0.247924	-0.394986
C284	C	1.809891	0.497924	-0.144986
O285	O	1.098104	-0.224839	-0.924450
O286	O	1.348104	0.025161	-0.674450
O287	O	1.598104	0.275161	-0.424450
O288	O	1.848104	0.525161	-0.174450
N289	N	1.014948	-0.284075	-0.920858
N290	N	1.264948	-0.034075	-0.670858
N291	N	1.514948	0.215925	-0.420858
N292	N	1.764948	0.465925	-0.170858
C293	C	0.969989	-0.316087	-0.892122
C294	C	1.219989	-0.066087	-0.642122
C295	C	1.469989	0.183913	-0.392122
C296	C	1.719989	0.433913	-0.142122
O297	O	0.931762	-0.343303	-0.919142
O298	O	1.181762	-0.093303	-0.669142
O299	O	1.431762	0.156697	-0.419142
O300	O	1.681762	0.406697	-0.169142
C301	C	0.969977	-0.316098	-0.837518
C302	C	1.219977	-0.066098	-0.587518
C303	C	1.469977	0.183902	-0.337518
C304	C	1.719977	0.433902	-0.087518
C305	C	1.014928	-0.284100	-0.811650
C306	C	1.264928	-0.034100	-0.561650
C307	C	1.514928	0.215900	-0.311650
C308	C	1.764928	0.465900	-0.061650
C309	C	1.104828	-0.220095	-0.814513
C310	C	1.354828	0.029905	-0.564513
C311	C	1.604828	0.279905	-0.314513
C312	C	1.854828	0.529905	-0.064513
C313	C	1.104820	-0.220110	-0.759912
C314	C	1.354820	0.029890	-0.509912
C315	C	1.604820	0.279890	-0.259912
C316	C	1.854820	0.529890	-0.009912
C317	C	1.059866	-0.252120	-0.731180
C318	C	1.309866	-0.002120	-0.481180
C319	C	1.559866	0.247880	-0.231180
C320	C	1.809866	0.497880	0.018820
C321	C	1.014920	-0.284115	-0.757049
C322	C	1.264920	-0.034115	-0.507049
C323	C	1.514920	0.215885	-0.257049
C324	C	1.764920	0.465885	-0.007049
C325	C	0.925015	-0.348106	-0.808783
C326	C	1.175015	-0.098106	-0.558783
C327	C	1.425015	0.151894	-0.308783
C328	C	1.675015	0.401894	-0.058783
C329	C	0.925007	-0.348114	-0.754176
C330	C	1.175007	-0.098114	-0.504176
C331	C	1.425007	0.151886	-0.254176
C332	C	1.675007	0.401886	-0.004176
C333	C	0.969957	-0.316117	-0.728307
C334	C	1.219957	-0.066117	-0.478307
C335	C	1.469957	0.183883	-0.228307
C336	C	1.719957	0.433883	0.021693
C337	C	0.969958	-0.316141	-0.673716
C338	C	1.219958	-0.066141	-0.423716
C339	C	1.469958	0.183859	-0.173716
C340	C	1.719958	0.433859	0.076284
N341	N	1.014900	-0.284141	-0.647844
N342	N	1.264900	-0.034141	-0.397844
N343	N	1.514900	0.215859	-0.147844
N344	N	1.764900	0.465859	0.102156
C345	C	1.059854	-0.252131	-0.676576
C346	C	1.309854	-0.002131	-0.426576
C347	C	1.559854	0.247869	-0.176576
C348	C	1.809854	0.497869	0.073424
C349	C	0.970016	-0.316060	-1.006793
C350	C	1.220016	-0.066060	-0.756793
C351	C	1.470016	0.183940	-0.506793
C352	C	1.720016	0.433940	-0.256793
C353	C	0.970031	-0.316052	-1.061396
C354	C	1.220031	-0.066052	-0.811396
C355	C	1.470031	0.183948	-0.561396
C356	C	1.720031	0.433948	-0.311396
C357	C	1.059932	-0.252041	-1.064257
C358	C	1.309932	-0.002041	-0.814257
C359	C	1.559932	0.247959	-0.564257
C360	C	1.809932	0.497959	-0.314257
C361	C	1.059920	-0.252052	-1.009653
C362	C	1.309920	-0.002052	-0.759653
C363	C	1.559920	0.247948	-0.509653
C364	C	1.809920	0.497948	-0.259653
C365	C	1.014959	-0.284061	-0.980922
C366	C	1.264959	-0.034061	-0.730922
C367	C	1.514959	0.215939	-0.480922
C368	C	1.764959	0.465939	-0.230922
C369	C	1.059835	-0.252165	-0.561911
C370	C	1.309835	-0.002165	-0.311911
C371	C	1.559835	0.247835	-0.061911
C372	C	1.809835	0.497835	0.188089
C373	C	1.059825	-0.252185	-0.507305
C374	C	1.309825	-0.002185	-0.257305
C375	C	1.559825	0.247815	-0.007305
C376	C	1.809825	0.497815	0.242695
C377	C	0.969922	-0.316194	-0.504449
C378	C	1.219922	-0.066194	-0.254449
C379	C	1.469922	0.183806	-0.004449
C380	C	1.719922	0.433806	0.245551
C381	C	0.969934	-0.316177	-0.559050
C382	C	1.219934	-0.066177	-0.309050
C383	C	1.469934	0.183823	-0.059050
C384	C	1.719934	0.433823	0.190950
C385	C	1.014893	-0.284158	-0.587780
C386	C	1.264893	-0.034158	-0.337780
C387	C	1.514893	0.215842	-0.087780
C388	C	1.764893	0.465842	0.162220
O389	O	0.931762	-0.343362	-0.644218
O390	O	1.181762	-0.093362	-0.394218
O391	O	1.431762	0.156638	-0.144218
O392	O	1.681762	0.406638	0.105782
O393	O	1.098068	-0.224915	-0.649549
O394	O	1.348068	0.025085	-0.399549
O395	O	1.598068	0.275085	-0.149549
O396	O	1.848068	0.525085	0.100451
C397	C	1.014856	-0.284179	-0.148243
C398	C	1.264856	-0.034179	0.101757
C399	C	1.514856	0.215821	0.351757
C400	C	1.764856	0.465821	0.601757
C401	C	1.014983	-0.284040	-0.090133
C402	C	1.264983	-0.034040	0.159867
C403	C	1.514983	0.215960	0.409867
C404	C	1.764983	0.465960	0.659867
H405	H	0.747458	-0.336457	-0.336148
H406	H	0.997458	-0.086457	-0.086148
H407	H	1.247458	0.163543	0.163852
H408	H	1.497458	0.413543	0.413852
F409	F	0.877151	-0.723258	-0.382115
F410	F	1.127151	-0.473258	-0.132115
F411	F	1.377151	-0.223258	0.117885
F412	F	1.627151	0.026742	0.367885
H413	H	0.282928	-0.231989	-0.232058
H414	H	0.532928	0.018011	0.017942
H415	H	0.782928	0.268011	0.267942
H416	H	1.032928	0.518011	0.517942
F417	F	0.922080	-0.350260	-0.473861
F418	F	1.172080	-0.100260	-0.223861
F419	F	1.422080	0.149740	0.026139
F420	F	1.672080	0.399740	0.276139
H421	H	0.933243	-0.579741	-0.342106
H422	H	1.183243	-0.329741	-0.092106
H423	H	1.433243	-0.079741	0.157894
H424	H	1.683243	0.170259	0.407894
F425	F	1.107590	-0.592024	-0.218059
F426	F	1.357590	-0.342024	0.031941
F427	F	1.607590	-0.092024	0.281941
F428	F	1.857590	0.157976	0.531941
F429	F	1.107772	-0.981675	-0.218104
F430	F	1.357772	-0.731675	0.031896
F431	F	1.607772	-0.481675	0.281896
F432	F	1.857772	-0.231675	0.531896
H433	H	0.933402	-0.342129	-0.983404
H434	H	1.183402	-0.092129	-0.733404
H435	H	1.433402	0.157871	-0.483404
H436	H	1.683402	0.407871	-0.233404
F437	F	0.605222	-0.340306	-0.339996
F438	F	0.855222	-0.090306	-0.089996
F439	F	1.105222	0.159694	0.160004
F440	F	1.355222	0.409694	0.410004
F441	F	0.425164	-0.228133	-0.228214
F442	F	0.675164	0.021867	0.021786
F443	F	0.925164	0.271867	0.271786
F444	F	1.175164	0.521867	0.521786
H445	H	0.502762	-0.240657	-0.240682
H446	H	0.752762	0.009343	0.009318
H447	H	1.002762	0.259343	0.259318
H448	H	1.252762	0.509343	0.509318
F449	F	0.756678	-0.206857	-0.206993
F450	F	1.006678	0.043143	0.043007
F451	F	1.256678	0.293143	0.293007
F452	F	1.506678	0.543143	0.543007
H453	H	0.933435	-0.342114	-1.082454
H454	H	1.183435	-0.092114	-0.832454
H455	H	1.433435	0.157886	-0.582454
H456	H	1.683435	0.407886	-0.332454
F457	F	0.605265	-0.202046	-0.202205
F458	F	0.855265	0.047954	0.047795
F459	F	1.105265	0.297954	0.297795
F460	F	1.355265	0.547954	0.547795
H461	H	0.527620	-0.327784	-0.327528
H462	H	0.777620	-0.077784	-0.077528
H463	H	1.027620	0.172216	0.172472
H464	H	1.277620	0.422216	0.422472
H465	H	1.096283	-0.485793	-0.226038
H466	H	1.346283	-0.235793	0.023962
H467	H	1.596283	0.014207	0.273962
H468	H	1.846283	0.264207	0.523962
H469	H	1.096581	-1.087215	-0.226119
H470	H	1.346581	-0.837215	0.023881
H471	H	1.596581	-0.587215	0.273881
H472	H	1.846581	-0.337215	0.523881
H473	H	0.933477	-1.082086	-0.342159
H474	H	1.183477	-0.832086	-0.092159
H475	H	1.433477	-0.582086	0.157841
H476	H	1.683477	-0.332086	0.407841
F477	F	1.152606	-0.731912	-0.186100
F478	F	1.402606	-0.481912	0.063900
F479	F	1.652606	-0.231912	0.313900
F480	F	1.902606	0.018088	0.563900
H481	H	0.415954	-0.357736	-0.357367
H482	H	0.665954	-0.107736	-0.107367
H483	H	0.915954	0.142264	0.142633
H484	H	1.165954	0.392264	0.392633
H485	H	0.933438	-0.983034	-0.342155
H486	H	1.183438	-0.733034	-0.092155
H487	H	1.433438	-0.483034	0.157845
H488	H	1.683438	-0.233034	0.407845
F489	F	0.273711	-0.361591	-0.361211
F490	F	0.523711	-0.111591	-0.111211
F491	F	0.773711	0.138409	0.138789
F492	F	1.023711	0.388409	0.388789
H493	H	1.096431	-0.226128	-0.486245
H494	H	1.346431	0.023872	-0.236245
H495	H	1.596431	0.273872	0.013755
H496	H	1.846431	0.523872	0.263755
H497	H	0.933191	-0.480674	-0.342085
H498	H	1.183191	-0.230674	-0.092085
H499	H	1.433191	0.019326	0.157915
H500	H	1.683191	0.269326	0.407915
F501	F	1.107761	-0.217996	-0.982127
F502	F	1.357761	0.032004	-0.732127
F503	F	1.607761	0.282004	-0.482127
F504	F	1.857761	0.532004	-0.232127
F505	F	1.107775	-0.217971	-1.094845
F506	F	1.357775	0.032029	-0.844845
F507	F	1.607775	0.282029	-0.594845
F508	F	1.857775	0.532029	-0.344845
H509	H	1.141435	-0.194025	-0.837901
H510	H	1.391435	0.055975	-0.587901
H511	H	1.641435	0.305975	-0.337901
H512	H	1.891435	0.555975	-0.087901
F513	F	1.152658	-0.844609	-0.186112
F514	F	1.402658	-0.594609	0.063888
F515	F	1.652658	-0.344609	0.313888
F516	F	1.902658	-0.094609	0.563888
H517	H	0.888427	-0.829488	-0.374126
H518	H	1.138427	-0.579488	-0.124126
H519	H	1.388427	-0.329488	0.125874
H520	H	1.638427	-0.079488	0.375874
F521	F	0.877174	-0.382164	-0.836303
F522	F	1.127174	-0.132164	-0.586303
F523	F	1.377174	0.117836	-0.336303
F524	F	1.627174	0.367836	-0.086303
H525	H	1.096442	-0.226091	-0.585296
H526	H	1.346442	0.023909	-0.335296
H527	H	1.596442	0.273909	-0.085296
H528	H	1.846442	0.523909	0.164704
H529	H	1.141422	-0.194053	-0.738855
H530	H	1.391422	0.055947	-0.488855
H531	H	1.641422	0.305947	-0.238855
H532	H	1.891422	0.555947	0.011145
F533	F	0.877150	-0.382183	-0.723601
F534	F	1.127150	-0.132183	-0.473601
F535	F	1.377150	0.117817	-0.223601
F536	F	1.627150	0.367817	0.026399
F537	F	0.922097	-0.350235	-0.586582
F538	F	1.172097	-0.100235	-0.336582
F539	F	1.422097	0.149765	-0.086582
F540	F	1.672097	0.399765	0.163418
