data_functionalizedCrystal
_audit_creation_method	'MofGen! by Chris Wilmer'
_symmetry_space_group_name_H-M	'P1'
_symmetry_Int_Tables_number	1
_symmetry_cell_setting	triclinic
loop_
_symmetry_equiv_pos_as_xyz
  x,y,z
_cell_length_a	17.699083
_cell_length_b	12.837942
_cell_length_c	16.176319
_cell_angle_alpha	89.994101
_cell_angle_beta	89.998611
_cell_angle_gamma	89.055978
loop_
_atom_site_label
_atom_site_type_symbol
_atom_site_fract_x
_atom_site_fract_y
_atom_site_fract_z
O1	O	1.013708	0.131067	-0.068629
O2	O	1.513708	0.631067	0.431371
O3	O	0.794582	0.148119	-0.068656
O4	O	1.294582	0.648119	0.431344
O5	O	0.899286	-0.011297	-0.068638
O6	O	1.399286	0.488703	0.431362
O7	O	0.909004	0.290484	-0.068647
O8	O	1.409004	0.790484	0.431353
O9	O	0.899269	-0.011307	0.068855
O10	O	1.399269	0.488693	0.568855
O11	O	0.794565	0.148109	0.068837
O12	O	1.294565	0.648109	0.568837
O13	O	1.013691	0.131057	0.068864
O14	O	1.513691	0.631057	0.568864
Cu15	Cu	0.904126	0.139582	0.081405
Cu16	Cu	1.404126	0.639582	0.581405
Cu17	Cu	0.904146	0.139594	-0.081197
Cu18	Cu	1.404146	0.639594	0.418803
O19	O	0.908987	0.290474	0.068846
O20	O	1.408987	0.790474	0.568846
C21	C	0.766332	0.147503	0.000087
C22	C	1.266332	0.647503	0.500087
C23	C	0.682179	0.145670	0.000077
C24	C	1.182179	0.645670	0.500077
C25	C	0.895995	-0.049915	0.000108
C26	C	1.395995	0.450085	0.500108
C27	C	0.886204	-0.164967	0.000105
C28	C	1.386204	0.335033	0.500105
C29	C	0.640432	0.239245	0.000074
C30	C	1.140432	0.739245	0.500074
C31	C	0.561362	0.237516	0.000085
C32	C	1.061362	0.737516	0.500085
C33	C	0.524040	0.142212	0.000092
C34	C	1.024040	0.642212	0.500092
C35	C	0.565792	0.048631	0.000097
C36	C	1.065792	0.548631	0.500097
C37	C	0.644861	0.050360	0.000093
C38	C	1.144861	0.550360	0.500093
C39	C	0.246916	0.041653	0.000118
C40	C	0.746916	0.541653	0.500118
C41	C	0.167842	0.039931	0.000120
C42	C	0.667842	0.539931	0.500120
C43	C	0.163418	0.228809	0.000111
C44	C	0.663418	0.728809	0.500111
C45	C	0.242486	0.230539	0.000106
C46	C	0.742486	0.730539	0.500106
C47	C	0.284232	0.136958	0.000115
C48	C	0.784232	0.636958	0.500115
C49	C	0.369969	0.138833	0.000105
C50	C	0.869969	0.638833	0.500105
C51	C	0.438304	0.140336	0.000097
C52	C	0.938304	0.640336	0.500097
C53	C	1.003908	-0.406222	0.000102
C54	C	1.503908	0.093778	0.500102
C55	C	0.994712	-0.514324	0.000100
C56	C	1.494712	-0.014324	0.500100
C57	C	0.858617	-0.489277	0.000092
C58	C	1.358617	0.010723	0.500092
C59	C	0.867813	-0.381174	0.000094
C60	C	1.367813	0.118826	0.500094
C61	C	0.940461	-0.339651	0.000101
C62	C	1.440461	0.160349	0.500101
C63	C	0.949656	-0.231546	0.000109
C64	C	1.449656	0.268454	0.500109
C65	C	0.813561	-0.206501	0.000095
C66	C	1.313561	0.293499	0.500095
C67	C	0.804365	-0.314604	0.000093
C68	C	1.304365	0.185396	0.500093
C69	C	1.041941	0.131673	0.000119
C70	C	1.541941	0.631673	0.500119
C71	C	1.126094	0.133506	0.000124
C72	C	1.626094	0.633506	0.500124
C73	C	0.912278	0.329091	0.000099
C74	C	1.412278	0.829091	0.500099
C75	C	0.922069	0.444144	0.000096
C76	C	1.422069	0.944144	0.500096
N77	N	0.904118	0.139573	0.195770
N78	N	1.404118	0.639573	0.695770
N79	N	0.904160	0.139595	-0.195562
N80	N	1.404160	0.639595	0.304438
C81	C	0.950499	0.069012	0.239042
C82	C	1.450499	0.569012	0.739042
C83	C	0.950502	0.069011	0.325589
C84	C	1.450502	0.569011	0.825589
C85	C	0.904129	0.139577	0.368863
C86	C	1.404129	0.639577	0.868863
C87	C	0.857743	0.210141	0.325584
C88	C	1.357743	0.710141	0.825584
C89	C	0.857736	0.210136	0.239039
C90	C	1.357736	0.710136	0.739039
C91	C	0.857771	0.210161	0.674613
C92	C	1.357771	0.710161	1.174613
C93	C	0.857783	0.210162	0.761164
C94	C	1.357783	0.710162	1.261164
C95	C	0.950537	0.069035	0.761163
C96	C	1.450537	0.569035	1.261163
C97	C	0.950530	0.069031	0.674617
C98	C	1.450530	0.569031	1.174617
C99	C	0.904141	0.139591	0.631347
C100	C	1.404141	0.639591	1.131347
C101	C	0.904137	0.139590	0.537503
C102	C	1.404137	0.639590	1.037503
C103	C	0.904137	0.139584	0.462705
C104	C	1.404137	0.639584	0.962705
H105	H	0.670814	0.316852	0.000068
H106	H	1.170814	0.816852	0.500068
H107	H	0.527375	0.313714	0.000082
H108	H	1.027375	0.813714	0.500082
O109	O	0.278621	0.323207	0.000136
O110	O	0.778621	0.823207	0.500136
C111	C	0.224818	0.405430	0.000117
C112	C	0.724818	0.905430	0.500117
H113	H	0.169104	0.376511	0.026150
H114	H	0.669104	0.876511	0.526150
H115	H	0.246117	0.471976	0.040033
H116	H	0.746117	0.971976	0.540033
H117	H	0.215728	0.434293	-0.065846
H118	H	0.715728	0.934293	0.434154
O119	O	0.788013	-0.529496	0.000187
O120	O	1.288013	-0.029496	0.500187
C121	C	0.748856	-0.495505	0.071402
C122	C	1.248856	0.004495	0.571402
H123	H	0.774877	-0.420583	0.095156
H124	H	1.274877	0.079417	0.595156
H125	H	0.686924	-0.480346	0.055376
H126	H	1.186924	0.019654	0.555376
H127	H	0.753105	-0.558097	0.121259
H128	H	1.253105	-0.058097	0.621259
H129	H	1.008809	-0.197740	0.000117
H130	H	1.508809	0.302260	0.500117
O131	O	0.131671	-0.052717	0.000023
O132	O	0.631671	0.447283	0.500023
C133	C	0.152322	-0.109744	-0.071190
C134	C	0.652322	0.390256	0.428810
H135	H	0.209104	-0.081643	-0.094934
H136	H	0.709104	0.418357	0.405066
H137	H	0.157049	-0.196081	-0.055164
H138	H	0.657049	0.303919	0.444836
H139	H	0.107516	-0.097624	-0.121054
H140	H	0.607516	0.402376	0.378946
H141	H	0.280896	-0.034546	0.000126
H142	H	0.780896	0.465454	0.500126
O143	O	0.995460	0.000301	0.197066
O144	O	1.495460	0.500301	0.697066
C145	C	0.975757	-0.102260	0.218272
C146	C	1.475757	0.397740	0.718272
H147	H	0.915132	-0.102632	0.242057
H148	H	1.415132	0.397368	0.742057
H149	H	0.980710	-0.154324	0.161379
H150	H	1.480710	0.345676	0.661379
H151	H	1.015496	-0.132758	0.268524
H152	H	1.515496	0.367242	0.768524
H153	H	1.063061	-0.372413	0.000116
H154	H	1.563061	0.127587	0.500116
H155	H	0.745217	-0.348427	0.000084
H156	H	1.245217	0.151573	0.500084
O157	O	0.995450	0.000368	0.367656
O158	O	1.495450	0.500368	0.867656
C159	C	0.950329	-0.063498	0.417744
C160	C	1.450329	0.436502	0.917744
H161	H	0.890522	-0.065154	0.391675
H162	H	1.390522	0.434846	0.891675
H163	H	0.975273	-0.145929	0.418725
H164	H	1.475273	0.354071	0.918725
H165	H	0.948709	-0.031059	0.483335
H166	H	1.448709	0.468941	0.983335
H167	H	0.678850	-0.025837	0.000094
H168	H	1.178850	0.474163	0.500094
H169	H	0.129419	0.305007	0.000107
H170	H	0.629419	0.805007	0.500107
H171	H	0.535398	-0.028967	0.000115
H172	H	1.035398	0.471033	0.500115
H173	H	0.820018	0.267627	0.796396
H174	H	1.320018	0.767627	1.296396
H175	H	1.046378	-0.568524	0.000098
H176	H	1.546378	-0.068524	0.500098
O177	O	0.752004	-0.141685	0.000054
O178	O	1.252004	0.358315	0.500054
C179	C	0.775695	-0.037365	0.000081
C180	C	1.275695	0.462635	0.500081
H181	H	0.835433	-0.033357	-0.025944
H182	H	1.335433	0.466643	0.474056
H183	H	0.735735	0.011725	-0.039838
H184	H	1.235735	0.511725	0.460162
H185	H	0.775073	-0.006107	0.066045
H186	H	1.275073	0.493893	0.566045
H187	H	0.820001	0.267615	0.639388
H188	H	1.320001	0.767615	1.139388
H189	H	0.988294	0.011573	0.639387
H190	H	1.488294	0.511573	1.139387
H191	H	0.988306	0.011578	0.796403
H192	H	1.488306	0.511578	1.296403
O193	O	0.812766	0.278650	0.367746
O194	O	1.312766	0.778650	0.867746
C195	C	0.822704	0.263511	0.453413
C196	C	1.322704	0.763511	0.953413
H197	H	0.880076	0.224671	0.465230
H198	H	1.380076	0.724671	0.965230
H199	H	0.819946	0.342018	0.486294
H200	H	1.319946	0.842018	0.986294
H201	H	0.776128	0.211602	0.477987
H202	H	1.276128	0.711602	0.977987
O203	O	0.812663	0.278782	0.197130
O204	O	1.312663	0.778782	0.697130
C205	C	0.771720	0.341051	0.253880
C206	C	1.271720	0.841051	0.753880
H207	H	0.802836	0.342174	0.315568
H208	H	1.302836	0.842174	0.815568
H209	H	0.766138	0.423840	0.228864
H210	H	1.266138	0.923840	0.728864
H211	H	0.713082	0.307492	0.263097
H212	H	1.213082	0.807492	0.763097
