data_functionalizedCrystal
_audit_creation_method	'MofGen! by Chris Wilmer'
_symmetry_space_group_name_H-M	'P1'
_symmetry_Int_Tables_number	1
_symmetry_cell_setting	triclinic
loop_
_symmetry_equiv_pos_as_xyz
  x,y,z
_cell_length_a	21.395362
_cell_length_b	12.827892
_cell_length_c	21.395355
_cell_angle_alpha	90.013329
_cell_angle_beta	90.043940
_cell_angle_gamma	90.031271
loop_
_atom_site_label
_atom_site_type_symbol
_atom_site_fract_x
_atom_site_fract_y
_atom_site_fract_z
Zn1	Zn	0.957926	-0.415711	0.354608
Zn2	Zn	1.457926	0.084289	0.854608
Zn3	Zn	0.957857	-0.590438	0.249840
Zn4	Zn	1.457857	-0.090438	0.749840
Zn5	Zn	0.853141	-0.415760	0.249809
Zn6	Zn	1.353141	0.084240	0.749809
Zn7	Zn	0.853138	-0.590459	0.354545
Zn8	Zn	1.353138	-0.090459	0.854545
O9	O	0.905516	-0.503092	0.302201
O10	O	1.405516	-0.003092	0.802201
O11	O	1.045595	-0.438860	0.340750
O12	O	1.545595	0.061140	0.840750
O13	O	0.943938	-0.567278	0.162158
O14	O	1.443938	-0.067278	0.662158
O15	O	0.867071	-0.269517	0.263725
O16	O	1.367071	0.230483	0.763725
O17	O	1.045544	-0.567231	0.263777
O18	O	1.545544	-0.067231	0.763777
O19	O	0.944056	-0.269482	0.340720
O20	O	1.444056	0.230518	0.840720
O21	O	0.867004	-0.438943	0.162136
O22	O	1.367004	0.061057	0.662136
O23	O	0.765463	-0.438963	0.263664
O24	O	1.265463	0.061037	0.763664
O25	O	0.867067	-0.567267	0.442231
O26	O	1.367067	-0.067267	0.942231
O27	O	0.765461	-0.567314	0.340612
O28	O	1.265461	-0.067314	0.840612
O29	O	0.944054	-0.438881	0.442278
O30	O	1.444054	0.061119	0.942278
O31	O	0.943935	-0.736677	0.263716
O32	O	1.443935	-0.236677	0.763716
O33	O	0.866999	-0.736692	0.340642
O34	O	1.366999	-0.236692	0.840642
C35	C	0.742728	-0.503147	0.302128
C36	C	1.242728	-0.003147	0.802128
C37	C	0.673087	-0.503196	0.302112
C38	C	1.173087	-0.003196	0.802112
C39	C	0.905476	-0.774602	0.302189
C40	C	1.405476	-0.274602	0.802189
C41	C	0.905517	-0.890755	0.302205
C42	C	1.405517	-0.390755	0.802205
C43	C	0.640389	-0.570117	0.342119
C44	C	1.140389	-0.070117	0.842119
C45	C	0.574953	-0.570091	0.342147
C46	C	1.074953	-0.070091	0.842147
C47	C	0.542218	-0.503156	0.302156
C48	C	1.042218	-0.003156	0.802156
C49	C	0.574924	-0.436222	0.262146
C50	C	1.074924	0.063778	0.762146
C51	C	0.640358	-0.436242	0.262124
C52	C	1.140358	0.063758	0.762124
C53	C	0.438492	-0.494737	0.245751
C54	C	0.938492	0.005263	0.745751
C55	C	0.373059	-0.494724	0.245772
C56	C	0.873059	0.005276	0.745772
C57	C	0.340398	-0.503088	0.302226
C58	C	0.840398	-0.003088	0.802226
C59	C	0.373177	-0.511486	0.358660
C60	C	0.873177	-0.011486	0.858660
C61	C	0.438611	-0.511506	0.358637
C62	C	0.938611	-0.011506	0.858637
C63	C	0.471266	-0.503126	0.302176
C64	C	0.971266	-0.003126	0.802176
C65	C	0.236747	-0.569984	0.342266
C66	C	0.736747	-0.069984	0.842266
C67	C	0.171311	-0.569951	0.342295
C68	C	0.671311	-0.069951	0.842295
C69	C	0.171283	-0.436087	0.262289
C70	C	0.671283	0.063913	0.762289
C71	C	0.236718	-0.436115	0.262266
C72	C	0.736718	0.063885	0.762266
C73	C	0.269446	-0.503069	0.302254
C74	C	0.769446	-0.003069	0.802254
C75	C	0.943595	-0.942439	0.340339
C76	C	1.443595	-0.442439	0.840339
C77	C	0.943637	-1.062489	0.340356
C78	C	1.443637	-0.562489	0.840356
C79	C	1.068939	-0.503037	0.302274
C80	C	1.568939	-0.003037	0.802274
C81	C	1.138580	-0.503014	0.302305
C82	C	1.638580	-0.003014	0.802305
C83	C	0.905568	-0.503071	0.465624
C84	C	1.405568	-0.003071	0.965624
C85	C	0.905590	-0.503062	0.535265
C86	C	1.405590	-0.003062	1.035265
C87	C	0.905572	-0.230522	0.302226
C88	C	1.405572	0.269478	0.802226
C89	C	0.905596	-0.114369	0.302237
C90	C	1.405596	0.385631	0.802237
C91	C	0.905500	-0.503038	0.139413
C92	C	1.405500	-0.003038	0.639413
C93	C	0.905599	-0.502752	0.069772
C94	C	1.405599	-0.002752	0.569772
C95	C	0.945675	-0.436208	0.568004
C96	C	1.445675	0.063792	1.068004
C97	C	0.945674	-0.436163	0.633439
C98	C	1.445674	0.063837	1.133439
C99	C	0.905595	-0.502991	0.666134
C100	C	1.405595	-0.002991	1.166134
C101	C	0.865501	-0.569849	0.633388
C102	C	1.365501	-0.069849	1.133388
C103	C	0.865499	-0.569885	0.567953
C104	C	1.365499	-0.069885	1.067953
C105	C	0.900634	-0.597087	0.769803
C106	C	1.400634	-0.097087	1.269803
C107	C	0.900641	-0.597053	0.835236
C108	C	1.400641	-0.097053	1.335236
C109	C	0.905598	-0.502880	0.867955
C110	C	1.405598	-0.002880	1.367955
C111	C	0.910563	-0.408738	0.835232
C112	C	1.410563	0.091262	1.335232
C113	C	0.910560	-0.408774	0.769798
C114	C	1.410560	0.091226	1.269798
C115	C	0.905592	-0.502959	0.737086
C116	C	1.405592	-0.002959	1.237086
C117	C	0.945685	-0.435972	0.971646
C118	C	1.445685	0.064028	1.471646
C119	C	0.945680	-0.435925	1.037082
C120	C	1.445680	0.064075	1.537082
C121	C	0.865510	-0.569621	1.037029
C122	C	1.365510	-0.069621	1.537029
C123	C	0.865512	-0.569658	0.971594
C124	C	1.365512	-0.069658	1.471594
C125	C	0.905603	-0.502835	0.938906
C126	C	1.405603	-0.002835	1.438906
H127	H	0.667032	-0.624635	0.374681
H128	H	1.167032	-0.124635	0.874681
H129	H	0.976239	-1.106936	0.373002
H130	H	1.476239	-0.606936	0.873002
H131	H	0.914601	-0.332121	0.743159
H132	H	1.414601	0.167879	1.243159
Br133	Br	0.281097	-0.345289	0.207967
Br134	Br	0.781097	0.154711	0.707967
H135	H	0.978321	-0.381479	1.063737
H136	H	1.478321	0.118521	1.563737
Br137	Br	0.811102	-0.660537	0.677757
Br138	Br	1.311102	-0.160537	1.177757
H139	H	0.346375	-0.487893	0.199820
H140	H	0.846375	0.012107	0.699820
H141	H	0.976161	-0.897813	0.372977
H142	H	1.476161	-0.397813	0.872977
H143	H	0.144630	-0.381582	0.229731
H144	H	0.644630	0.118418	0.729731
H145	H	0.872997	-1.069929	0.269585
H146	H	1.372997	-0.569929	0.769585
H147	H	0.872946	-0.935383	0.269573
H148	H	1.372946	-0.435383	0.769573
Br149	Br	0.811092	-0.660620	0.523519
Br150	Br	1.311092	-0.160620	1.023519
Br151	Br	0.530500	-0.345371	0.207878
Br152	Br	1.030500	0.154629	0.707878
Br153	Br	0.482812	-0.483387	0.169128
Br154	Br	0.982812	0.016613	0.669128
Br155	Br	0.684737	-0.345411	0.207826
Br156	Br	1.184737	0.154589	0.707826
Br157	Br	1.000081	-0.345516	0.523644
Br158	Br	1.500081	0.154484	1.023644
Br159	Br	0.893912	-0.724815	0.879638
Br160	Br	1.393912	-0.224815	1.379638
H161	H	0.896429	-0.673754	0.743169
H162	H	1.396429	-0.173754	1.243169
Br163	Br	1.000064	-0.345401	0.677880
Br164	Br	1.500064	0.154599	1.177880
Br165	Br	0.328859	-0.522833	0.435281
Br166	Br	0.828859	-0.022833	0.935281
H167	H	0.914601	-0.332054	0.861871
H168	H	1.414601	0.167946	1.361871
Br169	Br	1.000090	-0.345283	0.927279
Br170	Br	1.500090	0.154717	1.427279
Br171	Br	0.811108	-0.660395	0.927160
Br172	Br	1.311108	-0.160395	1.427160
Br173	Br	0.530568	-0.660917	0.396447
Br174	Br	1.030568	-0.160917	0.896447
Br175	Br	0.483096	-0.522898	0.435222
Br176	Br	0.983096	-0.022898	0.935222
Br177	Br	0.811107	-0.660304	1.081393
Br178	Br	1.311107	-0.160304	1.581393
H179	H	0.144689	-0.624444	0.374878
H180	H	0.644689	-0.124444	0.874878
Br181	Br	0.281168	-0.660843	0.396536
Br182	Br	0.781168	-0.160843	0.896536
