data_functionalizedCrystal
_audit_creation_method	'MofGen! by Chris Wilmer'
_symmetry_space_group_name_H-M	'P1'
_symmetry_Int_Tables_number	1
_symmetry_cell_setting	triclinic
loop_
_symmetry_equiv_pos_as_xyz
  x,y,z
_cell_length_a	19.121102
_cell_length_b	19.121063
_cell_length_c	19.120904
_cell_angle_alpha	85.258387
_cell_angle_beta	89.911827
_cell_angle_gamma	90.126902
loop_
_atom_site_label
_atom_site_type_symbol
_atom_site_fract_x
_atom_site_fract_y
_atom_site_fract_z
Zn1	Zn	1.039579	-0.343506	0.456040
Zn2	Zn	1.539579	0.156494	0.956040
Zn3	Zn	1.039493	-0.456149	0.343386
Zn4	Zn	1.539493	0.043851	0.843386
Zn5	Zn	0.927792	-0.333518	0.333417
Zn6	Zn	1.427792	0.166482	0.833417
Zn7	Zn	0.917325	-0.455677	0.455570
Zn8	Zn	1.417325	0.044323	0.955570
O9	O	0.981047	-0.397212	0.397103
O10	O	1.481047	0.102788	0.897103
O11	O	1.137479	-0.362826	0.445465
O12	O	1.637479	0.137174	0.945465
O13	O	1.029020	-0.435899	0.243797
O14	O	1.529020	0.064101	0.743797
O15	O	0.947038	-0.236577	0.345708
O16	O	1.447038	0.263423	0.845708
O17	O	1.137415	-0.445584	0.362699
O18	O	1.637415	0.054416	0.862699
O19	O	1.029167	-0.243915	0.435798
O20	O	1.529167	0.256085	0.935798
O21	O	0.946954	-0.345802	0.236473
O22	O	1.446954	0.154198	0.736473
O23	O	0.828493	-0.345345	0.345252
O24	O	1.328493	0.154655	0.845252
O25	O	0.929198	-0.444780	0.553899
O26	O	1.429198	0.055220	1.053899
O27	O	0.820803	-0.435094	0.434997
O28	O	1.320803	0.064906	0.934997
O29	O	1.019018	-0.362368	0.554244
O30	O	1.519018	0.137632	1.054244
O31	O	1.018870	-0.554352	0.362243
O32	O	1.518870	-0.054352	0.862243
O33	O	0.929114	-0.554005	0.444664
O34	O	1.429114	-0.054005	0.944664
C35	C	0.799261	-0.389085	0.388992
C36	C	1.299261	0.110915	0.888992
C37	C	0.721490	-0.385626	0.385539
C38	C	1.221490	0.114374	0.885539
C39	C	0.680968	-0.430793	0.430575
C40	C	1.180968	0.069207	0.930575
C41	C	0.607894	-0.427534	0.427334
C42	C	1.107894	0.072466	0.927334
C43	C	0.575344	-0.379110	0.379053
C44	C	1.075344	0.120890	0.879053
C45	C	0.615872	-0.333937	0.334016
C46	C	1.115872	0.166063	0.834016
C47	C	0.688944	-0.337194	0.337261
C48	C	1.188944	0.162806	0.837261
C49	C	0.354913	-0.366933	0.366924
C50	C	0.854913	0.133067	0.866924
C51	C	0.281835	-0.363681	0.363681
C52	C	0.781835	0.136319	0.863681
C53	C	0.273863	-0.457277	0.457000
C54	C	0.773863	0.042723	0.957000
C55	C	0.346937	-0.460532	0.460238
C56	C	0.846937	0.039468	0.960238
C57	C	0.387458	-0.415357	0.415203
C58	C	0.887458	0.084643	0.915203
C59	C	0.500651	-0.375778	0.375738
C60	C	1.000651	0.124222	0.875738
C61	C	0.462149	-0.418686	0.418523
C62	C	0.962149	0.081314	0.918523
C63	C	0.972865	-0.579659	0.404501
C64	C	1.472865	-0.079659	0.904501
C65	C	0.969428	-0.657714	0.407691
C66	C	1.469428	-0.157714	0.907691
C67	C	1.014577	-0.694545	0.366317
C68	C	1.514577	-0.194545	0.866317
C69	C	1.011348	-0.767887	0.369323
C70	C	1.511348	-0.267887	0.869323
C71	C	0.962966	-0.804396	0.413699
C72	C	1.462966	-0.304396	0.913699
C73	C	0.917815	-0.767560	0.455078
C74	C	1.417815	-0.267560	0.955078
C75	C	0.921048	-0.694220	0.452076
C76	C	1.421048	-0.194220	0.952076
C77	C	0.950869	-1.025828	0.424912
C78	C	1.450869	-0.525828	0.924912
C79	C	0.947638	-1.099173	0.427909
C80	C	1.447638	-0.599173	0.927909
C81	C	1.041173	-1.099494	0.342155
C82	C	1.541173	-0.599494	0.842155
C83	C	1.044399	-1.026153	0.339154
C84	C	1.544399	-0.526153	0.839154
C85	C	0.999250	-0.989323	0.380535
C86	C	1.499250	-0.489323	0.880535
C87	C	0.959663	-0.879363	0.416770
C88	C	1.459663	-0.379363	0.916770
C89	C	1.002557	-0.914358	0.377467
C90	C	1.502557	-0.414358	0.877467
C91	C	1.163544	-0.405372	0.405246
C92	C	1.663544	0.094628	0.905246
C93	C	1.241313	-0.408849	0.408717
C94	C	1.741313	0.091151	0.908717
C95	C	0.972950	-0.404635	0.580263
C96	C	1.472950	0.095365	1.080263
C97	C	0.969500	-0.407799	0.658315
C98	C	1.469500	0.092201	1.158315
C99	C	0.989280	-0.214054	0.389693
C100	C	1.489280	0.285946	0.889693
C101	C	0.992788	-0.136003	0.386535
C102	C	1.492788	0.363997	0.886535
C103	C	0.989156	-0.389769	0.214655
C104	C	1.489156	0.110231	0.714655
C105	C	0.992751	-0.386414	0.136602
C106	C	1.492751	0.113586	0.636602
C107	C	1.014640	-0.366379	0.695165
C108	C	1.514640	0.133621	1.195165
C109	C	1.011390	-0.369348	0.768503
C110	C	1.511390	0.130652	1.268503
C111	C	0.963001	-0.413741	0.804990
C112	C	1.463001	0.086259	1.304990
C113	C	0.917856	-0.455162	0.768135
C114	C	1.417856	0.044838	1.268135
C115	C	0.921103	-0.452188	0.694798
C116	C	1.421103	0.047812	1.194798
C117	C	0.950853	-0.424862	1.026410
C118	C	1.450853	0.075138	1.526410
C119	C	0.947610	-0.427833	1.099752
C120	C	1.447610	0.072167	1.599752
C121	C	1.041143	-0.342019	1.100115
C122	C	1.541143	0.157981	1.600115
C123	C	1.044390	-0.339052	1.026777
C124	C	1.544390	0.160948	1.526777
C125	C	0.999242	-0.380470	0.989928
C126	C	1.499242	0.119530	1.489928
C127	C	0.959679	-0.416779	0.879953
C128	C	1.459679	0.083221	1.379953
C129	C	1.002561	-0.377429	0.914966
C130	C	1.502561	0.122571	1.414966
H131	H	0.373433	-0.499966	0.499552
H132	H	0.873433	0.000034	0.999552
F133	F	1.089188	-0.297940	1.139337
F134	F	1.589188	0.202060	1.639337
H135	H	0.920269	-0.909097	0.452900
H136	H	1.420269	-0.409097	0.952900
F137	F	0.896103	-0.475081	1.138582
F138	F	1.396103	0.024919	1.638582
F139	F	0.866327	-0.806418	0.502311
F140	F	1.366327	-0.306418	1.002311
F141	F	0.902817	-0.986640	0.468953
F142	F	1.402817	-0.486640	0.968953
F143	F	1.089223	-1.138696	0.298121
F144	F	1.589223	-0.638696	0.798121
H145	H	0.255336	-0.324240	0.324369
H146	H	0.755336	0.175760	0.824369
F147	F	1.059458	-0.325289	0.807720
F148	F	1.559458	0.174711	1.307720
H149	H	0.914100	-0.458598	0.996417
H150	H	1.414100	0.041402	1.496417
F151	F	0.230732	-0.505353	0.504925
F152	F	0.730732	-0.005353	1.004925
F153	F	1.054050	-0.875502	0.330243
F154	F	1.554050	-0.375502	0.830243
H155	H	0.884283	-0.664233	0.485768
H156	H	1.384283	-0.164233	0.985768
F157	F	0.866354	-0.502405	0.806968
F158	F	1.366354	-0.002405	1.306968
F159	F	0.908184	-0.464026	0.918791
F160	F	1.408184	0.035974	1.418791
F161	F	0.896134	-1.138026	0.475135
F162	F	1.396134	-0.638026	0.975135
F163	F	0.496793	-0.470220	0.469906
F164	F	0.996793	0.029780	0.969906
H165	H	1.083795	-0.996429	0.303019
H166	H	1.583795	-0.496429	0.803019
F167	F	0.732070	-0.289119	0.289329
F168	F	1.232070	0.210881	0.789329
F169	F	1.095892	-0.291804	0.987950
F170	F	1.595892	0.208196	1.487950
F171	F	0.873057	-0.496271	0.655580
F172	F	1.373057	0.003729	1.155580
H173	H	1.054046	-0.330232	0.665463
H174	H	1.554046	0.169768	1.165463
F175	F	1.054052	-0.330178	0.876132
F176	F	1.554052	0.169822	1.376132
H177	H	0.574904	-0.464315	0.464006
H178	H	1.074904	0.035685	0.964006
F179	F	0.715603	-0.482337	0.481959
F180	F	1.215603	0.017663	0.981959
H181	H	0.589364	-0.294506	0.294708
H182	H	1.089364	0.205494	0.794708
F183	F	0.398029	-0.318851	0.318995
F184	F	0.898029	0.181149	0.818995
H185	H	1.053972	-0.664824	0.330178
H186	H	1.553972	-0.164824	0.830178
F187	F	0.466003	-0.324243	0.324355
F188	F	0.966003	0.175757	0.824355
F189	F	1.059405	-0.807082	0.325289
F190	F	1.559405	-0.307082	0.825289
