data_functionalizedCrystal
_audit_creation_method	'MofGen! by Chris Wilmer'
_symmetry_space_group_name_H-M	'P1'
_symmetry_Int_Tables_number	1
_symmetry_cell_setting	triclinic
loop_
_symmetry_equiv_pos_as_xyz
  x,y,z
_cell_length_a	16.974818
_cell_length_b	16.992695
_cell_length_c	13.930277
_cell_angle_alpha	89.998101
_cell_angle_beta	86.347952
_cell_angle_gamma	92.974585
loop_
_atom_site_label
_atom_site_type_symbol
_atom_site_fract_x
_atom_site_fract_y
_atom_site_fract_z
O1	O	1.055455	-0.099942	-0.002199
O2	O	1.388788	0.233391	0.331135
O3	O	1.722121	0.566724	0.664468
O4	O	0.826054	-0.112667	0.015633
O5	O	1.159387	0.220666	0.348966
O6	O	1.492721	0.554000	0.682299
O7	O	0.939835	0.007837	0.006781
O8	O	1.273168	0.341170	0.340114
O9	O	1.606501	0.674504	0.673448
O10	O	0.941674	-0.220446	0.006653
O11	O	1.275007	0.112887	0.339987
O12	O	1.608341	0.446220	0.673320
O13	O	0.939823	0.007834	-0.152880
O14	O	1.273156	0.341167	0.180453
O15	O	1.606490	0.674500	0.513787
O16	O	0.826042	-0.112670	-0.144028
O17	O	1.159376	0.220663	0.189305
O18	O	1.492709	0.553996	0.522638
O19	O	1.055443	-0.099946	-0.161859
O20	O	1.388776	0.233388	0.171474
O21	O	1.722110	0.566721	0.504807
Zn22	Zn	0.940741	-0.106309	-0.178293
Zn23	Zn	1.274074	0.227025	0.155040
Zn24	Zn	1.607407	0.560358	0.488373
Zn25	Zn	0.940756	-0.106304	0.032067
Zn26	Zn	1.274090	0.227029	0.365400
Zn27	Zn	1.607423	0.560363	0.698733
O28	O	0.941662	-0.220450	-0.153008
O29	O	1.274996	0.112884	0.180326
O30	O	1.608329	0.446217	0.513659
C31	C	0.796559	-0.112184	-0.061906
C32	C	1.129893	0.221149	0.271428
C33	C	1.463226	0.554483	0.604761
C34	C	0.708692	-0.110731	-0.055076
C35	C	1.042025	0.222603	0.278257
C36	C	1.375358	0.555936	0.611591
C37	C	0.937463	0.037045	-0.072866
C38	C	1.270796	0.370379	0.260468
C39	C	1.604129	0.703712	0.593801
C40	C	0.930403	0.124082	-0.072317
C41	C	1.263737	0.457415	0.261017
C42	C	1.597070	0.790749	0.594350
C43	C	1.084938	-0.100429	-0.084319
C44	C	1.418271	0.232905	0.249014
C45	C	1.751604	0.566238	0.582348
C46	C	1.172805	-0.101882	-0.091142
C47	C	1.506139	0.231451	0.242191
C48	C	1.839472	0.564785	0.575524
N49	N	0.940736	-0.106311	-0.321859
N50	N	1.274069	0.227022	0.011474
N51	N	1.607403	0.560355	0.344807
C52	C	1.214088	-0.102564	-0.007318
C53	C	1.547421	0.230770	0.326016
C54	C	1.880754	0.564103	0.659349
C55	C	1.296649	-0.103923	-0.013732
C56	C	1.629983	0.229410	0.319601
C57	C	1.963316	0.562744	0.652935
C58	C	1.337927	-0.104606	-0.103972
C59	C	1.671260	0.228728	0.229361
C60	C	2.004593	0.562061	0.562694
C61	C	1.296639	-0.103921	-0.187803
C62	C	1.629972	0.229412	0.145530
C63	C	1.963306	0.562745	0.478863
C64	C	1.214079	-0.102557	-0.181388
C65	C	1.547413	0.230777	0.151945
C66	C	1.880746	0.564110	0.485279
C67	C	1.584844	-0.108682	-0.132492
C68	C	1.918177	0.224652	0.200842
C69	C	2.251511	0.557985	0.534175
C70	C	1.667409	-0.110049	-0.138901
C71	C	2.000743	0.223284	0.194432
C72	C	2.334076	0.556618	0.527766
C73	C	1.667414	-0.110049	0.035171
C74	C	2.000747	0.223285	0.368505
C75	C	2.334081	0.556618	0.701838
C76	C	1.584852	-0.108689	0.041579
C77	C	1.918186	0.224644	0.374912
C78	C	2.251519	0.557978	0.708245
C79	C	1.543572	-0.108001	-0.042252
C80	C	1.876905	0.225333	0.291081
C81	C	2.210239	0.558666	0.624414
N82	N	1.422318	-0.105997	-0.110531
N83	N	1.755651	0.227336	0.222802
N84	N	2.088984	0.560669	0.556136
N85	N	1.459183	-0.106603	-0.035693
N86	N	1.792516	0.226730	0.297641
N87	N	2.125850	0.560063	0.630974
C88	C	0.944034	-0.249658	-0.073359
C89	C	1.277367	0.083675	0.259974
C90	C	1.610701	0.417009	0.593307
C91	C	0.951094	-0.336695	-0.073902
C92	C	1.284427	-0.003361	0.259431
C93	C	1.617760	0.329972	0.592765
C94	C	0.998518	0.174395	-0.077612
C95	C	1.331852	0.507728	0.255721
C96	C	1.665185	0.841062	0.589055
C97	C	0.991880	0.256174	-0.077087
C98	C	1.325214	0.589508	0.256246
C99	C	1.658547	0.922841	0.589580
C100	C	0.917127	0.287639	-0.071273
C101	C	1.250460	0.620973	0.262060
C102	C	1.583793	0.954306	0.595393
C103	C	0.849007	0.237320	-0.065974
C104	C	1.182340	0.570653	0.267359
C105	C	1.515673	0.903987	0.600692
C106	C	0.855645	0.155542	-0.066493
C107	C	1.188979	0.488876	0.266841
C108	C	1.522312	0.822209	0.600174
C109	C	0.889612	0.531208	-0.069121
C110	C	1.222946	0.864541	0.264212
C111	C	1.556279	1.197875	0.597545
C112	C	0.882979	0.612992	-0.068606
C113	C	1.216312	0.946326	0.264727
C114	C	1.549645	1.279659	0.598060
C115	C	1.025853	0.631841	-0.079717
C116	C	1.359187	0.965174	0.253616
C117	C	1.692520	1.298508	0.586949
C118	C	1.032485	0.550061	-0.080241
C119	C	1.365819	0.883394	0.253093
C120	C	1.699152	1.216727	0.586426
C121	C	0.964365	0.499749	-0.074937
C122	C	1.297698	0.833082	0.258396
C123	C	1.631032	1.166415	0.591730
N124	N	0.910340	0.371231	-0.070739
N125	N	1.243673	0.704564	0.262594
N126	N	1.577007	1.037898	0.595927
N127	N	0.971153	0.416159	-0.075464
N128	N	1.304486	0.749492	0.257869
N129	N	1.637819	1.082825	0.591203
C130	C	0.890346	-0.159654	-0.368202
C131	C	1.223679	0.173679	-0.034869
C132	C	1.557012	0.507013	0.298464
C133	C	0.991131	-0.052965	-0.376021
C134	C	1.324464	0.280368	-0.042688
C135	C	1.657798	0.613701	0.290645
C136	C	0.991139	-0.052962	-0.476518
C137	C	1.324473	0.280371	-0.143185
C138	C	1.657806	0.613705	0.190149
C139	C	0.940749	-0.106305	-0.522861
C140	C	1.274082	0.227029	-0.189528
C141	C	1.607416	0.560362	0.143806
C142	C	0.890350	-0.159651	-0.468708
C143	C	1.223684	0.173682	-0.135374
C144	C	1.557017	0.507016	0.197959
C145	C	1.041531	0.000389	-0.530678
C146	C	1.374865	0.333722	-0.197345
C147	C	1.708198	0.667055	0.135989
C148	C	1.041541	0.000394	-0.631181
C149	C	1.374874	0.333728	-0.297847
C150	C	1.708207	0.667061	0.035486
C151	C	0.991154	-0.052953	-0.677526
C152	C	1.324487	0.280380	-0.344193
C153	C	1.657820	0.613714	-0.010859
C154	C	0.940754	-0.106302	-0.623366
C155	C	1.274087	0.227032	-0.290033
C156	C	1.607421	0.560365	0.043300
C157	C	0.890364	-0.159645	-0.669709
C158	C	1.223697	0.173689	-0.336376
C159	C	1.557030	0.507022	-0.003043
C160	C	0.839967	-0.212998	-0.615552
C161	C	1.173300	0.120336	-0.282219
C162	C	1.506634	0.453669	0.051115
C163	C	0.839963	-0.212998	-0.515053
C164	C	1.173297	0.120335	-0.181720
C165	C	1.506630	0.453668	0.151614
C166	C	0.991157	-0.052952	-0.778025
C167	C	1.324491	0.280381	-0.444692
C168	C	1.657824	0.613714	-0.111358
C169	C	0.890368	-0.159641	-0.770215
C170	C	1.223702	0.173692	-0.436882
C171	C	1.557035	0.507025	-0.103548
N172	N	0.940767	-0.106295	0.175632
N173	N	1.274100	0.227038	0.508965
N174	N	1.607434	0.560371	0.842299
H175	H	1.180485	-0.102013	0.066166
H176	H	1.513818	0.231320	0.399499
H177	H	1.847152	0.564653	0.732833
H178	H	0.800178	0.114577	-0.062180
H179	H	1.133512	0.447911	0.271153
H180	H	1.466845	0.781244	0.604486
H181	H	1.032154	-0.009531	-0.338285
H182	H	1.365487	0.323802	-0.004952
H183	H	1.698820	0.657136	0.328381
F184	F	0.836715	-0.216437	-0.310567
F185	F	1.170048	0.116896	0.022767
F186	F	1.503382	0.450230	0.356100
H187	H	1.180468	-0.102010	-0.249647
H188	H	1.513801	0.231324	0.083686
H189	H	1.847134	0.564657	0.417019
F190	F	1.078082	0.140915	-0.083809
F191	F	1.411415	0.474249	0.249524
F192	F	1.744749	0.807582	0.582857
H193	H	0.849337	-0.203083	-0.807941
H194	H	1.182671	0.130251	-0.474608
H195	H	1.516004	0.463584	-0.141274
F196	F	1.064378	0.309718	-0.082725
F197	F	1.397712	0.643052	0.250608
F198	F	1.731045	0.976385	0.583942
F199	F	1.711354	-0.110777	0.124384
F200	F	2.044687	0.222557	0.457717
F201	F	2.378020	0.555890	0.791050
F202	F	1.540920	-0.107966	-0.221713
F203	F	1.874253	0.225368	0.111620
F204	F	2.207586	0.558701	0.444954
F205	F	0.817112	0.477672	-0.063474
F206	F	1.150445	0.811006	0.269859
F207	F	1.483778	1.144339	0.603193
F208	F	1.112048	0.516580	-0.086404
F209	F	1.445382	0.849913	0.246929
F210	F	1.778715	1.183246	0.580262
H211	H	1.701015	-0.110610	-0.212389
H212	H	2.034348	0.222723	0.120944
H213	H	2.367681	0.556056	0.454278
F214	F	1.340572	-0.104646	-0.283844
F215	F	1.673905	0.228688	0.049489
F216	F	2.007239	0.562021	0.382822
H217	H	1.032186	-0.009510	-0.822115
H218	H	1.365519	0.323824	-0.488782
H219	H	1.698852	0.657157	-0.155448
H220	H	1.082577	0.043836	-0.675270
H221	H	1.415910	0.377170	-0.341936
H222	H	1.749243	0.710503	-0.008603
H223	H	1.082554	0.043823	-0.492942
H224	H	1.415887	0.377156	-0.159609
H225	H	1.749220	0.710489	0.173725
H226	H	1.081313	0.672814	-0.084034
H227	H	1.414646	1.006147	0.249300
H228	H	1.747979	1.339480	0.582633
F229	F	0.769448	0.270810	-0.059776
F230	F	1.102781	0.604143	0.273557
F231	F	1.436114	0.937476	0.606891
H232	H	0.798935	-0.256427	-0.653296
H233	H	1.132268	0.076907	-0.319962
H234	H	1.465602	0.410240	0.013371
F235	F	1.340581	-0.104645	0.075486
F236	F	1.673915	0.228688	0.408820
F237	F	2.007248	0.562022	0.742153
F238	F	0.786330	-0.269775	-0.457411
F239	F	1.119664	0.063559	-0.124078
F240	F	1.452997	0.396892	0.209255
H241	H	0.822102	0.638607	-0.063887
H242	H	1.155436	0.971941	0.269446
H243	H	1.488769	1.305274	0.602779
H244	H	1.551250	-0.108132	0.115062
H245	H	1.884583	0.225201	0.448395
H246	H	2.217917	0.558535	0.781728
