data_functionalizedCrystal
_audit_creation_method	'MofGen! by Chris Wilmer'
_symmetry_space_group_name_H-M	'P1'
_symmetry_Int_Tables_number	1
_symmetry_cell_setting	triclinic
loop_
_symmetry_equiv_pos_as_xyz
  x,y,z
_cell_length_a	19.805405
_cell_length_b	21.395362
_cell_length_c	21.395355
_cell_angle_alpha	89.956060
_cell_angle_beta	89.982777
_cell_angle_gamma	90.042604
loop_
_atom_site_label
_atom_site_type_symbol
_atom_site_fract_x
_atom_site_fract_y
_atom_site_fract_z
Zn1	Zn	-0.269255	0.957877	-0.354591
Zn2	Zn	-0.382425	0.957787	-0.249816
Zn3	Zn	-0.269286	0.853092	-0.249793
Zn4	Zn	-0.382438	0.853068	-0.354521
O5	O	-0.325851	0.905456	-0.302180
O6	O	-0.284248	1.045543	-0.340732
O7	O	-0.367424	0.943871	-0.162135
O8	O	-0.174565	0.867039	-0.263714
O9	O	-0.367393	1.045476	-0.263754
O10	O	-0.174542	0.944024	-0.340709
O11	O	-0.284302	0.866952	-0.162118
O12	O	-0.284315	0.765411	-0.263646
O13	O	-0.367417	0.866999	-0.442208
O14	O	-0.367448	0.765393	-0.340589
O15	O	-0.284261	0.944002	-0.442260
O16	O	-0.477143	0.943848	-0.263686
O17	O	-0.477153	0.866912	-0.340612
C18	C	-0.325887	0.742668	-0.302107
C19	C	-0.325918	0.673027	-0.302091
C20	C	-0.369263	0.640321	-0.342096
C21	C	-0.369246	0.574886	-0.342124
C22	C	-0.325892	0.542159	-0.302136
C23	C	-0.282539	0.574872	-0.262129
C24	C	-0.282553	0.640306	-0.262106
C25	C	-0.320440	0.438434	-0.245731
C26	C	-0.320431	0.373001	-0.245752
C27	C	-0.325848	0.340338	-0.302205
C28	C	-0.331287	0.373116	-0.358639
C29	C	-0.331301	0.438550	-0.358616
C30	C	-0.325873	0.471206	-0.302156
C31	C	-0.369177	0.236680	-0.342243
C32	C	-0.369156	0.171243	-0.342272
C33	C	-0.282452	0.171231	-0.262272
C34	C	-0.282470	0.236666	-0.262248
C35	C	-0.325836	0.269387	-0.302233
C36	C	-0.501707	0.905384	-0.302157
C37	C	-0.576939	0.905411	-0.302169
C38	C	-0.612213	0.945474	-0.342292
C39	C	-0.682901	0.945496	-0.342303
C40	C	-0.718315	0.905459	-0.302188
C41	C	-0.683036	0.865392	-0.262064
C42	C	-0.612349	0.865367	-0.262056
C43	C	-0.968109	0.865493	-0.262096
C44	C	-1.038801	0.865523	-0.262106
C45	C	-1.038662	0.945622	-0.342343
C46	C	-0.967975	0.945597	-0.342335
C47	C	-0.932702	0.905528	-0.302213
C48	C	-0.856053	0.905503	-0.302202
C49	C	-0.794962	0.905487	-0.302196
C50	C	-0.149308	0.905545	-0.302217
C51	C	-0.074076	0.905582	-0.302232
C52	C	-0.325837	0.905508	-0.465604
C53	C	-0.325831	0.905530	-0.535245
C54	C	-0.325816	1.068879	-0.302253
C55	C	-0.325800	1.138520	-0.302285
C56	C	-0.282530	0.945623	-0.567986
C57	C	-0.282501	0.945623	-0.633421
C58	C	-0.325785	0.905535	-0.666113
C59	C	-0.369089	0.865434	-0.633364
C60	C	-0.369112	0.865431	-0.567930
C61	C	-0.386731	0.900563	-0.769778
C62	C	-0.386709	0.900570	-0.835211
C63	C	-0.325714	0.905539	-0.867934
C64	C	-0.264738	0.910514	-0.835216
C65	C	-0.264762	0.910512	-0.769782
C66	C	-0.325765	0.905533	-0.737066
C67	C	-0.282378	0.945633	-0.971628
C68	C	-0.282347	0.945628	-1.037064
C69	C	-0.368941	0.865443	-1.037006
C70	C	-0.368966	0.865445	-0.971571
C71	C	-0.325685	0.905543	-0.938885
C72	C	-0.325816	0.905440	-0.139393
C73	C	-0.325631	0.905539	-0.069752
H74	H	-0.316007	0.346318	-0.199800
O75	O	-0.717509	0.826470	-0.223183
C76	C	-0.758421	0.785989	-0.258807
H77	H	-0.768962	0.808067	-0.306319
H78	H	-0.808150	0.777626	-0.233280
H79	H	-0.731234	0.739543	-0.265629
H80	H	-0.404329	0.832792	-0.659986
H81	H	-0.247237	0.978270	-0.660084
H82	H	-0.939395	0.832869	-0.229426
H83	H	-0.404230	0.832800	-0.944913
H84	H	-0.316026	0.465022	-0.199756
O85	O	-0.205424	0.915372	-0.866897
C86	C	-0.151614	0.919745	-0.823988
H87	H	-0.171359	0.937895	-0.777360
H88	H	-0.111790	0.953285	-0.842919
H89	H	-0.128179	0.871594	-0.816989
H90	H	-1.067389	0.978246	-0.375015
O91	O	-1.073098	0.826566	-0.223119
C92	C	-1.026809	0.791204	-0.187695
H93	H	-0.976411	0.789002	-0.213348
H94	H	-1.047301	0.741850	-0.180957
H95	H	-1.019285	0.814163	-0.140134
H96	H	-0.404451	0.144615	-0.374852
O97	O	-0.240373	0.984603	-1.068943
C98	C	-0.278885	1.025058	-1.106818
H99	H	-0.330180	1.002934	-1.116604
H100	H	-0.251296	1.033464	-1.152837
H101	H	-0.286321	1.071489	-1.081641
H102	H	-0.939143	0.978201	-0.374998
H103	H	-0.583629	0.832743	-0.229385
H104	H	-0.247178	0.263295	-0.229669
H105	H	-0.247287	0.978274	-0.541378
O106	O	-0.410972	0.826565	-1.068852
C107	C	-0.401656	0.835153	-1.133627
H108	H	-0.379467	0.883514	-1.142599
H109	H	-0.452349	0.830886	-1.158492
H110	H	-0.365620	0.798003	-1.152171
H111	H	-0.404574	0.666958	-0.374656
O112	O	-0.445995	0.895705	-0.866894
C113	C	-0.499836	0.891324	-0.823983
H114	H	-0.480123	0.873175	-0.777326
H115	H	-0.539642	0.857780	-0.842866
H116	H	-0.523282	0.939473	-0.817058
O117	O	-0.205569	0.915250	-0.737931
C118	C	-0.196874	0.861904	-0.700056
H119	H	-0.248142	0.839712	-0.690243
H120	H	-0.172219	0.876064	-0.654051
H121	H	-0.163230	0.826802	-0.725248
H122	H	-0.436388	0.896349	-0.743141
O123	O	-0.240267	0.984598	-0.939970
C124	C	-0.202048	1.019993	-0.982903
H125	H	-0.199692	0.994331	-1.029527
H126	H	-0.148725	1.026701	-0.963999
H127	H	-0.226819	1.067567	-0.989900
O128	O	-0.717271	0.984356	-0.381257
C129	C	-0.787255	0.975804	-0.372655
H130	H	-0.796978	0.927463	-0.352079
H131	H	-0.814091	0.980043	-0.419596
H132	H	-0.807286	1.012989	-0.339337
H133	H	-0.404542	0.548252	-0.374702
O134	O	-0.240460	0.543154	-0.223195
C135	C	-0.255167	0.559054	-0.160719
H136	H	-0.281193	0.606540	-0.159365
H137	H	-0.206274	0.561305	-0.132704
H138	H	-0.289925	0.522175	-0.139569
O139	O	-0.411246	0.826467	-0.536219
C140	C	-0.449431	0.791070	-0.579101
H141	H	-0.451749	0.816730	-0.625767
H142	H	-0.502769	0.784362	-0.560193
H143	H	-0.424655	0.743496	-0.586020
O144	O	-0.240543	0.672149	-0.223210
C145	C	-0.279026	0.709905	-0.182655
H146	H	-0.330358	0.719685	-0.204665
H147	H	-0.251456	0.755935	-0.174286
H148	H	-0.286382	0.684628	-0.136220
H149	H	-0.335697	0.346524	-0.404609
O150	O	-0.336553	0.470295	-0.413490
C151	C	-0.341349	0.427441	-0.463324
H152	H	-0.318575	0.380798	-0.448547
H153	H	-0.312670	0.446421	-0.505475
H154	H	-0.396680	0.420452	-0.476249
H155	H	-0.404485	0.263322	-0.374805
H156	H	-0.247150	0.144585	-0.229716
O157	O	-0.577920	0.984385	-0.381320
C158	C	-0.624216	1.019759	-0.416727
H159	H	-0.674634	0.994112	-0.418866
H160	H	-0.603763	1.026407	-0.466099
H161	H	-0.631685	1.067360	-0.393846
