data_functionalizedCrystal
_audit_creation_method	'MofGen! by Chris Wilmer'
_symmetry_space_group_name_H-M	'P1'
_symmetry_Int_Tables_number	1
_symmetry_cell_setting	triclinic
loop_
_symmetry_equiv_pos_as_xyz
  x,y,z
_cell_length_a	25.639239
_cell_length_b	18.101398
_cell_length_c	25.639234
_cell_angle_alpha	89.974090
_cell_angle_beta	89.975095
_cell_angle_gamma	90.033952
loop_
_atom_site_label
_atom_site_type_symbol
_atom_site_fract_x
_atom_site_fract_y
_atom_site_fract_z
Zn1	Zn	-0.208249	1.132094	-0.295694
Zn2	Zn	0.125085	1.465427	0.037639
Zn3	Zn	0.458418	1.798760	0.370972
Zn4	Zn	-0.295677	1.131970	-0.208259
Zn5	Zn	0.037657	1.465303	0.125075
Zn6	Zn	0.370990	1.798636	0.458408
Zn7	Zn	-0.208250	1.008249	-0.208264
Zn8	Zn	0.125083	1.341582	0.125070
Zn9	Zn	0.458417	1.674916	0.458403
Zn10	Zn	-0.295648	1.008187	-0.295654
Zn11	Zn	0.037686	1.341520	0.037680
Zn12	Zn	0.371019	1.674853	0.371013
O13	O	-0.251956	1.070125	-0.251968
O14	O	0.081378	1.403458	0.081366
O15	O	0.414711	1.736791	0.414699
O16	O	-0.219858	1.235710	-0.284111
O17	O	0.113476	1.569043	0.049223
O18	O	0.446809	1.902377	0.382556
O19	O	-0.284092	1.115532	-0.135094
O20	O	0.049241	1.448865	0.198239
O21	O	0.382574	1.782199	0.531573
O22	O	-0.135085	1.024755	-0.219880
O23	O	0.198249	1.358089	0.113453
O24	O	0.531582	1.691422	0.446786
O25	O	-0.284091	1.235619	-0.219872
O26	O	0.049242	1.568952	0.113461
O27	O	0.382576	1.902286	0.446795
O28	O	-0.135084	1.115743	-0.284115
O29	O	0.198250	1.449077	0.049218
O30	O	0.531583	1.782410	0.382551
O31	O	-0.219860	1.024635	-0.135098
O32	O	0.113473	1.357968	0.198236
O33	O	0.446807	1.691302	0.531569
O34	O	-0.219832	0.904608	-0.219841
O35	O	0.113501	1.237941	0.113492
O36	O	0.446835	1.571275	0.446825
O37	O	-0.284041	1.024649	-0.368824
O38	O	0.049292	1.357982	-0.035491
O39	O	0.382625	1.691316	0.297842
O40	O	-0.284043	0.904562	-0.284046
O41	O	0.049291	1.237896	0.049287
O42	O	0.382624	1.571229	0.382620
O43	O	-0.219830	1.115683	-0.368854
O44	O	0.113504	1.449016	-0.035521
O45	O	0.446837	1.782350	0.297813
O46	O	-0.368838	1.115472	-0.219833
O47	O	-0.035505	1.448805	0.113501
O48	O	0.297829	1.782138	0.446834
O49	O	-0.368817	1.024529	-0.284042
O50	O	-0.035483	1.357862	0.049292
O51	O	0.297850	1.691196	0.382625
C52	C	-0.251935	0.877714	-0.251940
C53	C	0.081399	1.211048	0.081393
C54	C	0.414732	1.544381	0.414726
C55	C	-0.251938	0.795400	-0.251941
C56	C	0.081395	1.128733	0.081392
C57	C	0.414729	1.462067	0.414726
C58	C	-0.251971	0.496309	-0.251985
C59	C	0.081363	0.829642	0.081348
C60	C	0.414696	1.162976	0.414682
C61	C	-0.211369	0.527638	-0.211786
C62	C	0.121964	0.860972	0.121547
C63	C	0.455298	1.194305	0.454881
C64	C	-0.211478	0.613257	-0.211614
C65	C	0.121855	0.946590	0.121719
C66	C	0.455189	1.279923	0.455052
C67	C	-0.251954	0.644692	-0.251963
C68	C	0.081379	0.978025	0.081370
C69	C	0.414713	1.311358	0.414704
C70	C	-0.307029	0.613563	-0.236906
C71	C	0.026304	0.946896	0.096427
C72	C	0.359638	1.280229	0.429761
C73	C	-0.306803	0.527918	-0.236626
C74	C	0.026530	0.861251	0.096707
C75	C	0.359863	1.194584	0.430040
C76	C	-0.237976	0.527929	-0.307336
C77	C	0.095357	0.861262	0.025998
C78	C	0.428691	1.194595	0.359331
C79	C	-0.236749	0.613580	-0.307034
C80	C	0.096584	0.946913	0.026300
C81	C	0.429917	1.280246	0.359633
C82	C	-0.251948	0.728551	-0.251952
C83	C	0.081385	1.061885	0.081382
C84	C	0.414719	1.395218	0.414715
C85	C	-0.251980	0.412450	-0.251995
C86	C	0.081353	0.745783	0.081338
C87	C	0.414686	1.079116	0.414672
C88	C	-0.387798	1.070000	-0.251944
C89	C	-0.054465	1.403334	0.081390
C90	C	0.278868	1.736667	0.414723
C91	C	-0.445912	1.070015	-0.251951
C92	C	-0.112579	1.403348	0.081383
C93	C	0.220754	1.736681	0.414716
C94	C	-0.806274	1.117602	-0.218591
C95	C	-0.472941	1.450936	0.114742
C96	C	-0.139607	1.784269	0.448076
C97	C	-0.860878	1.117631	-0.218598
C98	C	-0.527545	1.450964	0.114735
C99	C	-0.194212	1.784298	0.448069
O100	O	-0.889114	1.157962	-0.190208
O101	O	-0.555781	1.491296	0.143125
O102	O	-0.222447	1.824629	0.476459
N103	N	-0.888195	1.070255	-0.252002
N104	N	-0.554861	1.403588	0.081331
N105	N	-0.221528	1.736922	0.414664
C106	C	-0.860904	1.022852	-0.285405
C107	C	-0.527571	1.356186	0.047928
C108	C	-0.194237	1.689519	0.381261
O109	O	-0.889153	0.982559	-0.313819
O110	O	-0.555820	1.315892	0.019514
O111	O	-0.222486	1.649225	0.352847
C112	C	-0.806301	1.022828	-0.285401
C113	C	-0.472968	1.356161	0.047933
C114	C	-0.139634	1.689495	0.381266
C115	C	-0.778987	1.070202	-0.251990
C116	C	-0.445654	1.403535	0.081343
C117	C	-0.112321	1.736868	0.414676
C118	C	-0.778960	1.164973	-0.185184
C119	C	-0.445627	1.498306	0.148149
C120	C	-0.112294	1.831639	0.481483
C121	C	-0.724360	1.164943	-0.185176
C122	C	-0.391026	1.498276	0.148157
C123	C	-0.057693	1.831609	0.481490
C124	C	-0.697073	1.117542	-0.218576
C125	C	-0.363740	1.450876	0.114757
C126	C	-0.030406	1.784209	0.448091
C127	C	-0.724387	1.070172	-0.251983
C128	C	-0.391053	1.403505	0.081350
C129	C	-0.057720	1.736839	0.414684
C130	C	-0.779011	0.975430	-0.318806
C131	C	-0.445678	1.308763	0.014527
C132	C	-0.112345	1.642097	0.347861
C133	C	-0.724404	0.975410	-0.318799
C134	C	-0.391071	1.308743	0.014535
C135	C	-0.057738	1.642077	0.347868
C136	C	-0.697091	1.022784	-0.285388
C137	C	-0.363757	1.356117	0.047945
C138	C	-0.030424	1.689450	0.381278
C139	C	-0.642499	1.022742	-0.285375
C140	C	-0.309166	1.356075	0.047959
C141	C	0.024167	1.689408	0.381292
N142	N	-0.615183	1.070118	-0.251971
N143	N	-0.281849	1.403451	0.081363
N144	N	0.051484	1.736784	0.414696
C145	C	-0.642470	1.117518	-0.218571
C146	C	-0.309136	1.450851	0.114762
C147	C	0.024197	1.784185	0.448096
C148	C	-0.975575	1.022908	-0.285413
C149	C	-0.642241	1.356242	0.047920
C150	C	-0.308908	1.689575	0.381253
C151	C	-1.030177	1.022928	-0.285416
C152	C	-0.696844	1.356262	0.047917
C153	C	-0.363510	1.689595	0.381251
C154	C	-1.030147	1.117708	-0.218609
C155	C	-0.696814	1.451041	0.114724
C156	C	-0.363481	1.784375	0.448058
C157	C	-0.975544	1.117684	-0.218604
C158	C	-0.642211	1.451017	0.114729
C159	C	-0.308877	1.784350	0.448062
C160	C	-0.948258	1.070284	-0.252009
C161	C	-0.614925	1.403618	0.081324
C162	C	-0.281592	1.736951	0.414657
C163	C	-0.527805	1.117451	-0.218557
C164	C	-0.194471	1.450785	0.114776
C165	C	0.138862	1.784118	0.448109
C166	C	-0.473199	1.117415	-0.218551
C167	C	-0.139866	1.450748	0.114782
C168	C	0.193467	1.784082	0.448115
C169	C	-0.473234	1.022639	-0.285360
C170	C	-0.139900	1.355972	0.047973
C171	C	0.193433	1.689305	0.381307
C172	C	-0.527834	1.022672	-0.285364
C173	C	-0.194501	1.356005	0.047969
C174	C	0.138832	1.689338	0.381302
C175	C	-0.555118	1.070084	-0.251961
C176	C	-0.221785	1.403417	0.081372
C177	C	0.111548	1.736751	0.414705
O178	O	-0.614229	0.982433	-0.313752
O179	O	-0.280896	1.315766	0.019581
O180	O	0.052438	1.649100	0.352915
O181	O	-0.614214	1.157812	-0.190167
O182	O	-0.280881	1.491145	0.143166
O183	O	0.052452	1.824479	0.476500
C184	C	-0.115583	1.070270	-0.252003
C185	C	0.217751	1.403603	0.081330
C186	C	0.551084	1.736937	0.414664
C187	C	-0.057469	1.070332	-0.252018
C188	C	0.275865	1.403665	0.081315
C189	C	0.609198	1.736999	0.414649
C190	C	-0.251932	1.070173	-0.388341
C191	C	0.081401	1.403506	-0.055007
C192	C	0.414735	1.736840	0.278326
C193	C	-0.251922	1.070193	-0.446455
C194	C	0.081412	1.403527	-0.113121
C195	C	0.414745	1.736860	0.220212
C196	C	-0.251977	1.263287	-0.251995
C197	C	0.081356	1.596620	0.081338
C198	C	0.414689	1.929953	0.414671
C199	C	-0.251987	1.345601	-0.252007
C200	C	0.081347	1.678934	0.081326
C201	C	0.414680	2.012267	0.414660
C202	C	-0.218414	1.022884	-0.806825
C203	C	0.114920	1.356217	-0.473492
C204	C	0.448253	1.689551	-0.140159
C205	C	-0.218404	1.022888	-0.861430
C206	C	0.114929	1.356222	-0.528096
C207	C	0.448262	1.689555	-0.194763
O208	O	-0.189972	0.982627	-0.889673
O209	O	0.143361	1.315960	-0.556339
O210	O	0.476694	1.649293	-0.223006
N211	N	-0.251840	1.070218	-0.888737
N212	N	0.081494	1.403551	-0.555404
N213	N	0.414827	1.736885	-0.222071
C214	C	-0.285291	1.117542	-0.861438
C215	C	0.048043	1.450875	-0.528105
C216	C	0.381376	1.784208	-0.194771
O217	O	-0.313729	1.157799	-0.889679
O218	O	0.019604	1.491133	-0.556346
O219	O	0.352937	1.824466	-0.223013
C220	C	-0.285302	1.117533	-0.806835
C221	C	0.048031	1.450867	-0.473501
C222	C	0.381364	1.784200	-0.140168
C223	C	-0.251861	1.070206	-0.779530
C224	C	0.081472	1.403539	-0.446196
C225	C	0.414806	1.736872	-0.112863
C226	C	-0.184976	0.975560	-0.779520
C227	C	0.148358	1.308893	-0.446187
C228	C	0.481691	1.642226	-0.112854
C229	C	-0.184985	0.975557	-0.724920
C230	C	0.148349	1.308890	-0.391586
C231	C	0.481682	1.642224	-0.058253
C232	C	-0.218432	1.022879	-0.697624
C233	C	0.114902	1.356212	-0.364291
C234	C	0.448235	1.689545	-0.030957
C235	C	-0.251870	1.070203	-0.724929
C236	C	0.081463	1.403536	-0.391596
C237	C	0.414797	1.736870	-0.058262
C238	C	-0.318755	1.164853	-0.779536
C239	C	0.014578	1.498186	-0.446203
C240	C	0.347911	1.831519	-0.112869
C241	C	-0.318764	1.164840	-0.724929
C242	C	0.014569	1.498173	-0.391596
C243	C	0.347902	1.831507	-0.058262
C244	C	-0.285323	1.117512	-0.697624
C245	C	0.048010	1.450846	-0.364291
C246	C	0.381344	1.784179	-0.030957
C247	C	-0.285326	1.117522	-0.643033
C248	C	0.048007	1.450855	-0.309700
C249	C	0.381341	1.784188	0.023634
N250	N	-0.251890	1.070192	-0.615725
N251	N	0.081443	1.403525	-0.282392
N252	N	0.414776	1.736858	0.050942
C253	C	-0.218443	1.022870	-0.643021
C254	C	0.114890	1.356204	-0.309687
C255	C	0.448223	1.689537	0.023646
C256	C	-0.285264	1.117555	-0.976109
C257	C	0.048069	1.450888	-0.642775
C258	C	0.381403	1.784221	-0.309442
C259	C	-0.285250	1.117567	-1.030711
C260	C	0.048083	1.450900	-0.697378
C261	C	0.381417	1.784234	-0.364044
C262	C	-0.218364	1.022912	-1.030699
C263	C	0.114969	1.356246	-0.697366
C264	C	0.448302	1.689579	-0.364032
C265	C	-0.218376	1.022904	-0.976096
C266	C	0.114957	1.356237	-0.642762
C267	C	0.448291	1.689571	-0.309429
C268	C	-0.251829	1.070225	-0.948801
C269	C	0.081505	1.403558	-0.615467
C270	C	0.414838	1.736891	-0.282134
C271	C	-0.218464	1.022868	-0.528356
C272	C	0.114869	1.356202	-0.195022
C273	C	0.448202	1.689535	0.138311
C274	C	-0.218475	1.022872	-0.473750
C275	C	0.114859	1.356205	-0.140417
C276	C	0.448192	1.689539	0.192916
C277	C	-0.285362	1.117523	-0.473767
C278	C	0.047971	1.450857	-0.140434
C279	C	0.381305	1.784190	0.192900
C280	C	-0.285350	1.117523	-0.528368
C281	C	0.047983	1.450856	-0.195034
C282	C	0.381317	1.784190	0.138299
C283	C	-0.251899	1.070189	-0.555661
C284	C	0.081434	1.403523	-0.222327
C285	C	0.414767	1.736856	0.111006
O286	O	-0.313745	1.157760	-0.614755
O287	O	0.019588	1.491094	-0.281422
O288	O	0.352922	1.824427	0.051912
O289	O	-0.190014	0.982612	-0.614773
O290	O	0.143319	1.315946	-0.281439
O291	O	0.476653	1.649279	0.051894
C292	C	-0.251942	1.070119	-0.116125
C293	C	0.081392	1.403453	0.217208
C294	C	0.414725	1.736786	0.550542
C295	C	-0.251805	1.070242	-0.058011
C296	C	0.081529	1.403576	0.275322
C297	C	0.414862	1.736909	0.608655
H298	H	-0.338091	0.633922	-0.265269
H299	H	-0.004757	0.967256	0.068065
H300	H	0.328576	1.300589	0.401398
N301	N	-0.150796	0.927232	-0.807395
N302	N	0.182538	1.260566	-0.474062
N303	N	0.515871	1.593899	-0.140728
N304	N	-0.117469	0.953332	-0.837870
N305	N	0.215864	1.286666	-0.504537
N306	N	0.549197	1.619999	-0.171204
H307	H	-0.093323	0.919203	-0.857554
H308	H	0.240010	1.252536	-0.524220
H309	H	0.573343	1.585870	-0.190887
H310	H	-0.267549	0.507668	-0.337288
H311	H	0.065785	0.841001	-0.003954
H312	H	0.399118	1.174334	0.329379
N313	N	-1.058074	0.974541	-0.319546
N314	N	-0.724741	1.307875	0.013787
N315	N	-0.391407	1.641208	0.347120
N316	N	-1.088504	1.000584	-0.352890
N317	N	-0.755170	1.333917	-0.019557
N318	N	-0.421837	1.667250	0.313777
H319	H	-1.108205	0.966412	-0.376998
H320	H	-0.774871	1.299745	-0.043665
H321	H	-0.441538	1.633078	0.289669
N322	N	-0.319422	1.165919	-0.948232
N323	N	0.013911	1.499252	-0.614899
N324	N	0.347244	1.832585	-0.281565
N325	N	-0.301035	1.213131	-0.917785
N326	N	0.032299	1.546464	-0.584452
N327	N	0.365632	1.879798	-0.251118
H328	H	-0.325158	1.247290	-0.898100
H329	H	0.008175	1.580624	-0.564767
H330	H	0.341509	1.913957	-0.231433
N331	N	-0.445365	0.974214	-0.319477
N332	N	-0.112031	1.307547	0.013857
N333	N	0.221302	1.640880	0.347190
N334	N	-0.451508	0.905883	-0.315967
N335	N	-0.118175	1.239216	0.017367
N336	N	0.215159	1.572550	0.350700
H337	H	-0.431825	0.871684	-0.340065
H338	H	-0.098492	1.205018	-0.006731
H339	H	0.234841	1.538351	0.326602
H340	H	-0.345987	1.203391	-0.801758
H341	H	-0.012654	1.536725	-0.468425
H342	H	0.320679	1.870058	-0.135092
N343	N	-0.352935	1.213191	-0.697058
N344	N	-0.019602	1.546524	-0.363725
N345	N	0.313732	1.879858	-0.030391
N346	N	-0.349475	1.281530	-0.703182
N347	N	-0.016142	1.614863	-0.369848
N348	N	0.317192	1.948196	-0.036515
H349	H	-0.373607	1.315680	-0.683499
H350	H	-0.040274	1.649013	-0.350166
H351	H	0.293060	1.982346	-0.016832
H352	H	-0.312592	1.156054	-0.451533
H353	H	0.020741	1.489387	-0.118200
H354	H	0.354074	1.822720	0.215134
H355	H	-0.702191	0.936812	-0.346003
H356	H	-0.368857	1.270146	-0.012669
H357	H	-0.035524	1.603479	0.320664
H358	H	-0.550013	1.156061	-0.191359
H359	H	-0.216680	1.489394	0.141975
H360	H	0.116654	1.822727	0.475308
H361	H	-0.550074	0.984098	-0.312571
H362	H	-0.216741	1.317432	0.020762
H363	H	0.116593	1.650765	0.354096
N364	N	-0.184307	0.974535	-0.445859
N365	N	0.149026	1.307869	-0.112526
N366	N	0.482360	1.641202	0.220807
N367	N	-0.136062	0.979502	-0.451974
N368	N	0.197271	1.312836	-0.118641
N369	N	0.530605	1.646169	0.214693
H370	H	-0.111931	0.945366	-0.432277
H371	H	0.221402	1.278700	-0.098944
H372	H	0.554736	1.612033	0.234390
N373	N	-0.806827	1.213382	-0.151054
N374	N	-0.473493	1.546715	0.182279
N375	N	-0.140160	1.880049	0.515613
N376	N	-0.837324	1.187364	-0.117716
N377	N	-0.503990	1.520698	0.215618
N378	N	-0.170657	1.854031	0.548951
H379	H	-0.857001	1.221552	-0.093606
H380	H	-0.523668	1.554885	0.239728
H381	H	-0.190335	1.888219	0.573061
N382	N	-0.947713	0.974480	-0.319540
N383	N	-0.614380	1.307814	0.013794
N384	N	-0.281047	1.641147	0.347127
N385	N	-0.972114	0.932188	-0.349360
N386	N	-0.638781	1.265521	-0.016027
N387	N	-0.305448	1.598854	0.317306
H388	H	-0.952440	0.897986	-0.373463
H389	H	-0.619107	1.231320	-0.040130
H390	H	-0.285773	1.564653	0.293203
H391	H	-0.198515	0.506365	-0.321025
H392	H	0.134819	0.839698	0.012308
H393	H	0.468152	1.173031	0.345642
N394	N	-0.445292	1.165803	-0.184425
N395	N	-0.111958	1.499137	0.148908
N396	N	0.221375	1.832470	0.482242
N397	N	-0.396539	1.165771	-0.184417
N398	N	-0.063206	1.499104	0.148916
N399	N	0.270127	1.832438	0.482250
H400	H	-0.376830	1.199942	-0.160315
H401	H	-0.043497	1.533275	0.173018
H402	H	0.289837	1.866609	0.506352
H403	H	-0.312575	1.156069	-0.550600
H404	H	0.020759	1.489403	-0.217267
H405	H	0.354092	1.822736	0.116066
N406	N	-0.319413	1.165907	-1.058598
N407	N	0.013920	1.499240	-0.725265
N408	N	0.347253	1.832573	-0.391931
N409	N	-0.352726	1.139820	-1.089048
N410	N	-0.019393	1.473153	-0.755714
N411	N	0.313940	1.806487	-0.422381
H412	H	-0.376858	1.173958	-1.108741
H413	H	-0.043525	1.507292	-0.775408
H414	H	0.289809	1.840625	-0.442075
N415	N	-0.159978	0.501830	-0.223480
N416	N	0.173356	0.835164	0.109853
N417	N	0.506689	1.168497	0.443187
N418	N	-0.135394	0.464597	-0.190605
N419	N	0.197940	0.797931	0.142728
N420	N	0.531273	1.131264	0.476062
H421	H	-0.099096	0.446365	-0.198863
H422	H	0.234237	0.779698	0.134471
H423	H	0.567570	1.113032	0.467804
N424	N	-0.184286	0.974523	-0.556221
N425	N	0.149047	1.307857	-0.222888
N426	N	0.482381	1.641190	0.110446
N427	N	-0.136044	0.979494	-0.550128
N428	N	0.197289	1.312828	-0.216794
N429	N	0.530623	1.646161	0.116539
H430	H	-0.111903	0.945354	-0.569807
H431	H	0.221431	1.278687	-0.236473
H432	H	0.554764	1.612020	0.096860
N433	N	-0.160239	0.639656	-0.223439
N434	N	0.173095	0.972989	0.109895
N435	N	0.506428	1.306322	0.443228
N436	N	-0.124147	0.594827	-0.231875
N437	N	0.209186	0.928160	0.101458
N438	N	0.542520	1.261493	0.434791
H439	H	-0.087955	0.613467	-0.240220
H440	H	0.245378	0.946800	0.093114
H441	H	0.578712	1.280133	0.426447
N442	N	-0.947639	1.166067	-0.184478
N443	N	-0.614306	1.499400	0.148856
N444	N	-0.280973	1.832733	0.482189
N445	N	-0.917205	1.140024	-0.151138
N446	N	-0.583872	1.473357	0.182195
N447	N	-0.250538	1.806691	0.515528
H448	H	-0.897499	1.174196	-0.127034
H449	H	-0.564165	1.507529	0.206299
H450	H	-0.230832	1.840863	0.539632
N451	N	-0.150823	0.927213	-0.697034
N452	N	0.182510	1.260547	-0.363701
N453	N	0.515844	1.593880	-0.030367
N454	N	-0.102577	0.932172	-0.703149
N455	N	0.230756	1.265505	-0.369816
N456	N	0.564089	1.598838	-0.036482
H457	H	-0.078450	0.898024	-0.683458
H458	H	0.254883	1.231358	-0.350125
H459	H	0.588217	1.564691	-0.016791
H460	H	-0.191130	0.984380	-1.052933
H461	H	0.142203	1.317714	-0.719600
H462	H	0.475537	1.651047	-0.386266
N463	N	-0.222832	0.500584	-0.160635
N464	N	0.110501	0.833917	0.172698
N465	N	0.443835	1.167251	0.506031
N466	N	-0.222702	0.432640	-0.151908
N467	N	0.110631	0.765973	0.181425
N468	N	0.443965	1.099307	0.514759
H469	H	-0.230799	0.413529	-0.115784
H470	H	0.102534	0.746863	0.217550
H471	H	0.435868	1.080196	0.550883
N472	N	-0.223084	0.638906	-0.160161
N473	N	0.110249	0.972239	0.173173
N474	N	0.443582	1.305573	0.506506
N475	N	-0.231133	0.593554	-0.124266
N476	N	0.102200	0.926887	0.209067
N477	N	0.435534	1.260221	0.542400
H478	H	-0.239332	0.611667	-0.087925
H479	H	0.094001	0.945001	0.245409
H480	H	0.427335	1.278334	0.578742
N481	N	-0.185902	0.639097	-0.321273
N482	N	0.147432	0.972430	0.012061
N483	N	0.480765	1.305764	0.345394
N484	N	-0.147465	0.623484	-0.293403
N485	N	0.185869	0.956817	0.039931
N486	N	0.519202	1.290150	0.373264
H487	H	-0.111552	0.641509	-0.303456
H488	H	0.221781	0.974842	0.029877
H489	H	0.555115	1.308175	0.363210
N490	N	-0.696471	1.213330	-0.151039
N491	N	-0.363137	1.546663	0.182294
N492	N	-0.029804	1.879996	0.515627
N493	N	-0.702612	1.208453	-0.102793
N494	N	-0.369278	1.541786	0.230540
N495	N	-0.035945	1.875119	0.563873
H496	H	-0.682921	1.242629	-0.078680
H497	H	-0.349587	1.575963	0.254653
H498	H	-0.016254	1.909296	0.587986
N499	N	-0.321695	0.502814	-0.185864
N500	N	0.011638	0.836148	0.147469
N501	N	0.344972	1.169481	0.480803
N502	N	-0.332181	0.548547	-0.150889
N503	N	0.001153	0.881881	0.182445
N504	N	0.334486	1.215214	0.515778
H505	H	-0.342698	0.530822	-0.115036
H506	H	-0.009365	0.864156	0.218297
H507	H	0.323969	1.197489	0.551631
N508	N	-1.058034	1.166122	-0.184493
N509	N	-0.724701	1.499455	0.148840
N510	N	-0.391368	1.832788	0.482173
N511	N	-1.106787	1.166133	-0.184507
N512	N	-0.773453	1.499466	0.148826
N513	N	-0.440120	1.832799	0.482159
H514	H	-1.126484	1.200321	-0.160414
H515	H	-0.793150	1.533655	0.172919
H516	H	-0.459817	1.866988	0.506253
H517	H	-0.264167	0.634981	-0.338590
H518	H	0.069166	0.968314	-0.005257
H519	H	0.402500	1.301647	0.328077
H520	H	-0.338079	0.507191	-0.264629
H521	H	-0.004745	0.840524	0.068705
H522	H	0.328588	1.173857	0.402038
N523	N	-0.184211	0.974560	-0.948215
N524	N	0.149123	1.307893	-0.614881
N525	N	0.482456	1.641227	-0.281548
N526	N	-0.154348	0.932320	-0.972599
N527	N	0.178986	1.265653	-0.639266
N528	N	0.512319	1.598987	-0.305932
H529	H	-0.130216	0.898175	-0.952911
H530	H	0.203117	1.231508	-0.619578
H531	H	0.536451	1.564841	-0.286244
N532	N	-0.806894	0.927033	-0.352937
N533	N	-0.473561	1.260366	-0.019604
N534	N	-0.140228	1.593699	0.313729
N535	N	-0.782514	0.884724	-0.382756
N536	N	-0.449181	1.218057	-0.049422
N537	N	-0.115847	1.551390	0.283911
H538	H	-0.802205	0.850541	-0.406864
H539	H	-0.468872	1.183874	-0.073531
H540	H	-0.135538	1.517207	0.259803
H541	H	-0.319104	0.634974	-0.196879
H542	H	0.014229	0.968307	0.136455
H543	H	0.347563	1.301640	0.469788
