data_functionalizedCrystal
_audit_creation_method	'MofGen! by Chris Wilmer'
_symmetry_space_group_name_H-M	'P1'
_symmetry_Int_Tables_number	1
_symmetry_cell_setting	triclinic
loop_
_symmetry_equiv_pos_as_xyz
  x,y,z
_cell_length_a	23.532407
_cell_length_b	17.038272
_cell_length_c	15.500227
_cell_angle_alpha	93.033254
_cell_angle_beta	87.178713
_cell_angle_gamma	86.980117
loop_
_atom_site_label
_atom_site_type_symbol
_atom_site_fract_x
_atom_site_fract_y
_atom_site_fract_z
O1	O	0.762716	0.091231	-0.071836
O2	O	0.597575	0.104957	-0.071862
O3	O	0.679164	-0.015714	-0.071842
O4	O	0.681127	0.211902	-0.071856
O5	O	0.674211	-0.008420	0.072045
O6	O	0.592623	0.112251	0.072026
O7	O	0.757763	0.098525	0.072051
Cu8	Cu	0.674741	0.106054	0.085177
Cu9	Cu	0.680598	0.097428	-0.084987
O10	O	0.676175	0.219196	0.072032
C11	C	0.573865	0.108255	0.000079
C12	C	0.510593	0.107203	0.000069
C13	C	0.674902	-0.041182	0.000101
C14	C	0.669576	-0.127935	0.000100
C15	C	0.718480	-0.178411	0.000109
C16	C	0.713472	-0.259925	0.000100
C17	C	0.659559	-0.290961	0.000088
C18	C	0.610651	-0.240479	0.000077
C19	C	0.615660	-0.158967	0.000080
C20	C	0.641864	-0.536589	0.000074
C21	C	0.636859	-0.618107	0.000074
C22	C	0.739681	-0.637548	0.000094
C23	C	0.744684	-0.556033	0.000102
C24	C	0.695777	-0.505558	0.000087
C25	C	0.654438	-0.374281	0.000082
C26	C	0.700898	-0.422240	0.000087
C27	C	0.114896	0.172024	0.000105
C28	C	0.055444	0.171048	0.000110
O29	O	0.021858	0.231137	0.000138
N30	N	0.029046	0.099309	0.000113
C31	C	0.062103	0.028541	0.000119
O32	O	0.034191	-0.032568	0.000123
C33	C	0.121554	0.029518	0.000120
C34	C	0.147949	0.101262	0.000108
C35	C	0.141291	0.243762	0.000094
C36	C	0.200739	0.244737	0.000087
C37	C	0.233791	0.173975	0.000091
C38	C	0.207396	0.102238	0.000101
C39	C	0.154610	-0.041248	0.000132
C40	C	0.214064	-0.040264	0.000134
C41	C	0.240458	0.031479	0.000122
C42	C	0.299897	0.032451	0.000098
N43	N	0.326294	0.104190	0.000095
C44	C	0.293242	0.174952	0.000092
C45	C	-0.062747	0.026495	0.000119
C46	C	-0.122196	0.025516	0.000112
C47	C	-0.128851	0.168023	0.000104
C48	C	-0.069401	0.169000	0.000105
C49	C	-0.036349	0.098234	0.000116
C50	C	0.418087	0.176996	0.000076
C51	C	0.477540	0.177965	0.000066
C52	C	0.484190	0.035459	0.000078
C53	C	0.424742	0.034489	0.000084
C54	C	0.391691	0.105264	0.000086
O55	O	0.333519	-0.027606	0.000074
O56	O	0.321162	0.236052	0.000099
C57	C	0.781474	0.095228	0.000109
C58	C	0.844746	0.096279	0.000113
C59	C	0.680436	0.244664	0.000087
C60	C	0.685763	0.331417	0.000082
N61	N	0.670626	0.112121	0.204861
N62	N	0.684717	0.091355	-0.204671
C63	C	0.705211	0.061007	0.250146
C64	C	0.702105	0.065602	0.340718
C65	C	0.664415	0.121316	0.386003
C66	C	0.629825	0.172432	0.340712
C67	C	0.632929	0.167832	0.250142
C68	C	0.653232	0.137872	0.659467
C69	C	0.650131	0.142469	0.750044
C70	C	0.722410	0.035638	0.750044
C71	C	0.725514	0.031047	0.659471
C72	C	0.690922	0.082160	0.614188
C73	C	0.661240	0.126016	0.478582
C74	C	0.694095	0.077456	0.521611
H75	H	0.762382	-0.153148	0.000123
H76	H	0.133129	-0.099669	0.000143
H77	H	0.114385	0.301388	0.000094
H78	H	-0.047914	0.227420	0.000101
H79	H	0.222224	0.303158	0.000077
Cl80	Cl	0.812465	-0.517024	0.000088
Cl81	Cl	0.569077	-0.657122	0.000065
H82	H	0.630553	0.171380	0.515461
H83	H	-0.155774	0.225642	0.000106
Cl84	Cl	0.542874	-0.279496	0.000053
H85	H	0.625067	0.179492	0.622605
Cl86	Cl	-0.155369	-0.064680	0.000105
H87	H	0.619438	0.187841	0.786912
H88	H	0.750573	-0.005977	0.786922
H89	H	0.391183	0.234628	0.000081
Cl90	Cl	0.774955	-0.323378	0.000113
Cl91	Cl	0.741473	0.007416	0.464680
Cl92	Cl	0.255611	-0.129234	0.000149
Cl93	Cl	0.391559	-0.055703	0.000102
Cl94	Cl	0.745584	0.001343	0.397649
Cl95	Cl	0.801161	-0.701006	0.000111
Cl96	Cl	0.586664	-0.413305	0.000063
H97	H	0.575836	-0.117869	0.000073
H98	H	-0.035839	-0.031136	0.000120
Cl99	Cl	0.768672	-0.383222	0.000096
Cl100	Cl	0.772896	-0.038993	0.602541
Cl101	Cl	0.525752	-0.053494	0.000086
H102	H	0.602039	-0.495501	0.000061
H103	H	0.604765	0.209454	0.213271
Cl104	Cl	0.752598	-0.009033	0.193225
Cl105	Cl	0.582440	0.242469	0.397641
H106	H	0.499027	0.236390	0.000056
