data_functionalizedCrystal
_audit_creation_method	'MofGen! by Chris Wilmer'
_symmetry_space_group_name_H-M	'P1'
_symmetry_Int_Tables_number	1
_symmetry_cell_setting	triclinic
loop_
_symmetry_equiv_pos_as_xyz
  x,y,z
_cell_length_a	16.992694
_cell_length_b	18.266242
_cell_length_c	16.992695
_cell_angle_alpha	89.993686
_cell_angle_beta	89.331777
_cell_angle_gamma	90.003271
loop_
_atom_site_label
_atom_site_type_symbol
_atom_site_fract_x
_atom_site_fract_y
_atom_site_fract_z
O1	O	1.050856	0.060790	-0.166918
O2	O	1.384189	0.394123	0.166415
O3	O	1.717522	0.727457	0.499748
O4	O	0.822456	0.060811	-0.165087
O5	O	1.155789	0.394145	0.168246
O6	O	1.489122	0.727478	0.501580
O7	O	0.935740	0.060795	-0.051803
O8	O	1.269073	0.394128	0.281531
O9	O	1.602407	0.727462	0.614864
O10	O	0.937571	0.060806	-0.280203
O11	O	1.270905	0.394140	0.053131
O12	O	1.604238	0.727473	0.386464
O13	O	0.935719	-0.060967	-0.051795
O14	O	1.269052	0.272366	0.281538
O15	O	1.602386	0.605700	0.614872
O16	O	0.822435	-0.060951	-0.165079
O17	O	1.155768	0.272383	0.168254
O18	O	1.489101	0.605716	0.501587
O19	O	1.050835	-0.060972	-0.166911
O20	O	1.384168	0.272361	0.166423
O21	O	1.717501	0.605695	0.499756
Zn22	Zn	0.936631	-0.080294	-0.165994
Zn23	Zn	1.269965	0.253040	0.167339
Zn24	Zn	1.603298	0.586373	0.500673
Zn25	Zn	0.936659	0.080133	-0.166004
Zn26	Zn	1.269992	0.413466	0.167330
Zn27	Zn	1.603326	0.746800	0.500663
O28	O	0.937550	-0.060956	-0.280195
O29	O	1.270884	0.272378	0.053138
O30	O	1.604217	0.605711	0.386472
C31	C	0.793085	-0.000067	-0.162727
C32	C	1.126418	0.333266	0.170606
C33	C	1.459752	0.666600	0.503939
C34	C	0.705600	-0.000059	-0.155699
C35	C	1.038934	0.333275	0.177635
C36	C	1.372267	0.666608	0.510968
N37	N	0.936618	-0.189781	-0.165987
N38	N	1.269952	0.143553	0.167346
N39	N	1.603285	0.476886	0.500680
C40	C	0.659610	-0.000056	-0.223517
C41	C	0.992943	0.333277	0.109817
C42	C	1.326276	0.666611	0.443150
C43	C	0.577409	-0.000066	-0.216908
C44	C	0.910742	0.333267	0.116426
C45	C	1.244075	0.666600	0.449759
C46	C	0.541201	-0.000074	-0.142480
C47	C	0.874534	0.333259	0.190853
C48	C	1.207867	0.666592	0.524187
C49	C	0.587198	-0.000079	-0.074657
C50	C	0.920531	0.333254	0.258676
C51	C	1.253864	0.666587	0.592010
C52	C	0.669397	-0.000074	-0.081267
C53	C	1.002730	0.333259	0.252067
C54	C	1.336063	0.666592	0.585400
C55	C	0.295886	-0.000095	-0.115086
C56	C	0.629220	0.333238	0.218248
C57	C	0.962553	0.666571	0.551581
C58	C	0.213681	-0.000098	-0.108481
C59	C	0.547014	0.333235	0.224852
C60	C	0.880348	0.666568	0.558186
C61	C	0.203898	-0.000087	-0.250732
C62	C	0.537231	0.333247	0.082601
C63	C	0.870565	0.666580	0.415934
C64	C	0.286099	-0.000077	-0.257335
C65	C	0.619432	0.333256	0.075998
C66	C	0.952766	0.666590	0.409331
C67	C	0.332089	-0.000086	-0.189512
C68	C	0.665422	0.333247	0.143821
C69	C	0.998756	0.666581	0.477154
N70	N	0.457178	-0.000083	-0.135723
N71	N	0.790512	0.333251	0.197610
N72	N	1.123845	0.666584	0.530944
N73	N	0.416110	-0.000083	-0.196270
N74	N	0.749443	0.333251	0.137063
N75	N	1.082776	0.666584	0.470396
C76	C	0.986800	-0.228097	-0.115852
C77	C	1.320133	0.105237	0.217481
C78	C	1.653467	0.438570	0.550815
C79	C	0.986805	-0.304742	-0.115849
C80	C	1.320138	0.028592	0.217485
C81	C	1.653471	0.361925	0.550818
C82	C	0.936636	-0.343067	-0.165994
C83	C	1.269970	-0.009734	0.167339
C84	C	1.603303	0.323599	0.500672
C85	C	0.886445	-0.304742	-0.216133
C86	C	1.219778	0.028591	0.117201
C87	C	1.553112	0.361925	0.450534
C88	C	0.886436	-0.228099	-0.216129
C89	C	1.219769	0.105235	0.117204
C90	C	1.553103	0.438568	0.450538
N91	N	0.930981	-0.463396	-0.235021
N92	N	1.264315	-0.130062	0.098313
N93	N	1.597648	0.203271	0.431646
N94	N	0.930994	-0.536204	-0.235022
N95	N	1.264328	-0.202871	0.098311
N96	N	1.597661	0.130463	0.431645
C97	C	0.936659	-0.573990	-0.166007
C98	C	1.269992	-0.240657	0.167326
C99	C	1.603326	0.092677	0.500660
N100	N	0.942326	-0.536217	-0.096990
N101	N	1.275659	-0.202884	0.236344
N102	N	1.608992	0.130449	0.569677
N103	N	0.942317	-0.463403	-0.096989
N104	N	1.275650	-0.130069	0.236344
N105	N	1.608983	0.203264	0.569678
C106	C	0.936640	-0.426174	-0.166003
C107	C	1.269973	-0.092841	0.167330
C108	C	1.603307	0.240492	0.500663
C109	C	0.986849	-0.695413	-0.115864
C110	C	1.320182	-0.362080	0.217469
C111	C	1.653515	-0.028747	0.550802
C112	C	0.986848	-0.772060	-0.115860
C113	C	1.320181	-0.438726	0.217474
C114	C	1.653514	-0.105393	0.550807
C115	C	0.886492	-0.772058	-0.216151
C116	C	1.219826	-0.438725	0.117183
C117	C	1.553159	-0.105392	0.450516
C118	C	0.886489	-0.695414	-0.216148
C119	C	1.219822	-0.362080	0.117185
C120	C	1.553155	-0.028747	0.450518
C121	C	0.936671	-0.657096	-0.166006
C122	C	1.270004	-0.323762	0.167327
C123	C	1.603338	0.009571	0.500660
C124	C	1.080205	-0.000092	-0.169270
C125	C	1.413539	0.333241	0.164063
C126	C	1.746872	0.666574	0.497397
C127	C	1.167690	-0.000096	-0.176299
C128	C	1.501023	0.333238	0.157034
C129	C	1.834357	0.666571	0.490368
N130	N	0.936678	0.189620	-0.166005
N131	N	1.270011	0.522953	0.167329
N132	N	1.603345	0.856287	0.500662
C133	C	0.933374	-0.000086	-0.022439
C134	C	1.266707	0.333248	0.310895
C135	C	1.600041	0.666581	0.644228
C136	C	0.926345	-0.000085	0.065046
C137	C	1.259678	0.333248	0.398379
C138	C	1.593012	0.666582	0.731713
C139	C	0.939917	-0.000073	-0.309559
C140	C	1.273250	0.333260	0.023774
C141	C	1.606583	0.666593	0.357108
C142	C	0.946945	-0.000069	-0.397044
C143	C	1.280279	0.333264	-0.063710
C144	C	1.613612	0.666597	0.269623
C145	C	0.994163	-0.000092	0.111037
C146	C	1.327496	0.333241	0.444370
C147	C	1.660830	0.666575	0.777704
C148	C	0.987554	-0.000084	0.193238
C149	C	1.320887	0.333249	0.526571
C150	C	1.654221	0.666582	0.859904
C151	C	0.913127	-0.000075	0.229446
C152	C	1.246460	0.333258	0.562779
C153	C	1.579793	0.666592	0.896113
C154	C	0.845303	-0.000066	0.183449
C155	C	1.178637	0.333268	0.516782
C156	C	1.511970	0.666601	0.850116
C157	C	0.851913	-0.000068	0.101250
C158	C	1.185246	0.333265	0.434583
C159	C	1.518580	0.666599	0.767916
C160	C	0.885732	-0.000062	0.474760
C161	C	1.219065	0.333271	0.808094
C162	C	1.552399	0.666604	1.141427
C163	C	0.879127	-0.000062	0.556966
C164	C	1.212461	0.333271	0.890299
C165	C	1.545794	0.666604	1.223632
C166	C	1.021379	-0.000080	0.566749
C167	C	1.354712	0.333254	0.900082
C168	C	1.688045	0.666587	1.233415
C169	C	1.027982	-0.000086	0.484547
C170	C	1.361315	0.333247	0.817881
C171	C	1.694649	0.666580	1.151214
C172	C	0.960159	-0.000073	0.438558
C173	C	1.293492	0.333260	0.771891
C174	C	1.626826	0.666593	1.105224
N175	N	0.906369	-0.000070	0.313468
N176	N	1.239703	0.333264	0.646801
N177	N	1.573036	0.666597	0.980135
N178	N	0.966917	-0.000073	0.354537
N179	N	1.300250	0.333260	0.687870
N180	N	1.633583	0.666593	1.021204
H181	H	0.689084	-0.000049	-0.284124
H182	H	1.022417	0.333284	0.049210
H183	H	1.355751	0.666618	0.382543
H184	H	0.818516	-0.000066	0.586443
H185	H	1.151850	0.333267	0.919777
H186	H	1.485183	0.666600	1.253110
H187	H	1.027709	-0.803257	-0.075029
H188	H	1.361042	-0.469924	0.258304
H189	H	1.694376	-0.136590	0.591637
H190	H	0.796688	-0.000062	0.063804
H191	H	1.130022	0.333271	0.397138
H192	H	1.463355	0.666605	0.730471
O193	O	0.832366	-0.654088	-0.270232
O194	O	1.165699	-0.320754	0.063101
O195	O	1.499033	0.012579	0.396435
H196	H	0.792024	-0.619187	-0.234671
H197	H	1.125357	-0.285853	0.098662
H198	H	1.458690	0.047480	0.431995
O199	O	0.832381	-0.813383	-0.270241
O200	O	1.165714	-0.480050	0.063092
O201	O	1.499048	-0.146716	0.396426
H202	H	0.840820	-0.873116	-0.261825
H203	H	1.174153	-0.539783	0.071508
H204	H	1.507487	-0.206449	0.404841
H205	H	0.315574	-0.000062	-0.317942
H206	H	0.648907	0.333271	0.015391
H207	H	0.982240	0.666605	0.348724
O208	O	0.527801	-0.000064	-0.290053
O209	O	0.861135	0.333270	0.043280
O210	O	1.194468	0.666603	0.376613
H211	H	0.566789	-0.000048	-0.342917
H212	H	0.900122	0.333285	-0.009584
H213	H	1.233455	0.666618	0.323749
H214	H	0.166444	-0.000081	-0.305950
H215	H	0.499778	0.333252	0.027384
H216	H	0.833111	0.666586	0.360717
O217	O	0.765029	-0.000059	0.222505
O218	O	1.098363	0.333274	0.555838
O219	O	1.431696	0.666608	0.889172
H220	H	0.732202	0.049575	0.204384
H221	H	1.065535	0.382909	0.537718
H222	H	1.398868	0.716242	0.871051
H223	H	0.184203	-0.000104	-0.047870
H224	H	0.517536	0.333229	0.285463
H225	H	0.850870	0.666563	0.618797
H226	H	0.557710	-0.000096	-0.014056
H227	H	0.891044	0.333237	0.319277
H228	H	1.224377	0.666570	0.652610
H229	H	1.027670	-0.335944	-0.075021
H230	H	1.361003	-0.002611	0.258312
H231	H	1.694337	0.330722	0.591646
H232	H	1.088589	-0.000094	0.455073
H233	H	1.421922	0.333239	0.788406
H234	H	1.755255	0.666572	1.121739
H235	H	0.845596	-0.335951	-0.256961
H236	H	1.178929	-0.002617	0.076373
H237	H	1.512262	0.330716	0.409706
O238	O	0.719008	-0.000075	-0.008122
O239	O	1.052341	0.333258	0.325212
O240	O	1.385674	0.666592	0.658545
H241	H	0.680022	-0.000075	0.044744
H242	H	1.013355	0.333259	0.378077
H243	H	1.346688	0.666592	0.711410
O244	O	0.345486	-0.000105	-0.041938
O245	O	0.678819	0.333229	0.291396
O246	O	1.012152	0.666562	0.624729
H247	H	0.306495	-0.000105	0.010925
H248	H	0.639829	0.333229	0.344258
H249	H	0.973162	0.666562	0.677591
O250	O	1.040912	-0.186766	-0.061762
O251	O	1.374245	0.146567	0.271571
O252	O	1.707578	0.479901	0.604904
H253	H	1.075801	-0.226291	-0.026893
H254	H	1.409134	0.107042	0.306440
H255	H	1.742468	0.440375	0.639774
O256	O	1.094526	-0.000094	0.616353
O257	O	1.427860	0.333240	0.949687
O258	O	1.761193	0.666573	1.283020
H259	H	1.129913	0.049527	0.602912
H260	H	1.463247	0.382860	0.936245
H261	H	1.796580	0.716194	1.269579
H262	H	0.845571	-0.196901	-0.256956
H263	H	1.178905	0.136432	0.076378
H264	H	1.512238	0.469766	0.409711
H265	H	1.054770	-0.000104	0.081563
H266	H	1.388103	0.333229	0.414896
H267	H	1.721437	0.666562	0.748229
H268	H	1.027708	-0.664213	-0.075033
H269	H	1.361041	-0.330880	0.258300
H270	H	1.694374	0.002453	0.591634
H271	H	0.830505	-0.000052	0.437325
H272	H	1.163839	0.333282	0.770658
H273	H	1.497172	0.666615	1.103992
O274	O	1.060700	-0.000104	0.242845
O275	O	1.394033	0.333229	0.576179
O276	O	1.727366	0.666562	0.909512
H277	H	1.113564	-0.000125	0.203858
H278	H	1.446897	0.333209	0.537191
H279	H	1.780230	0.666542	0.870524
