data_functionalizedCrystal
_audit_creation_method	'MofGen! by Chris Wilmer'
_symmetry_space_group_name_H-M	'P1'
_symmetry_Int_Tables_number	1
_symmetry_cell_setting	triclinic
loop_
_symmetry_equiv_pos_as_xyz
  x,y,z
_cell_length_a	34.408637
_cell_length_b	34.407814
_cell_length_c	34.404193
_cell_angle_alpha	60.004510
_cell_angle_beta	60.009006
_cell_angle_gamma	59.994604
loop_
_atom_site_label
_atom_site_type_symbol
_atom_site_fract_x
_atom_site_fract_y
_atom_site_fract_z
O1	O	0.053973	-0.567860	0.474801
O2	O	0.020377	-0.442124	0.382567
O3	O	0.100004	-0.521670	0.382483
O4	O	-0.025653	-0.488314	0.474886
O5	O	0.126426	-0.495253	0.408816
O6	O	0.046800	-0.415707	0.408900
O7	O	0.080396	-0.541443	0.501134
Zn8	Zn	0.067793	-0.474381	0.459198
Zn9	Zn	0.032980	-0.509186	0.424503
O10	O	0.000769	-0.461897	0.501219
N11	N	0.091552	-0.450631	0.482879
N12	N	0.009225	-0.532940	0.400823
C13	C	0.142848	-0.268847	0.534081
C14	C	0.142979	-0.399386	0.664559
C15	C	0.142862	-0.399365	0.534081
C16	C	0.273409	-0.399338	0.533986
C17	C	0.157225	-0.311914	0.548422
C18	C	0.157300	-0.385019	0.621491
C19	C	0.230339	-0.384991	0.548370
C20	C	0.157235	-0.385007	0.548422
C21	C	0.124548	-0.214028	0.515827
C22	C	0.124571	-0.417639	0.515827
C23	C	0.175526	-0.366733	0.566676
C24	C	0.353121	-0.385580	0.491988
C25	C	0.402952	-0.402180	0.475348
C26	C	0.402981	-0.482812	0.506096
C27	C	0.353151	-0.466211	0.522737
C28	C	0.136544	-0.189099	0.466839
C29	C	0.119905	-0.139265	0.450247
C30	C	0.079280	-0.139291	0.531632
C31	C	0.095918	-0.189125	0.548224
C32	C	0.075577	-0.405615	0.527900
C33	C	0.058953	-0.422228	0.511301
C34	C	0.140315	-0.462889	0.470566
C35	C	0.156941	-0.446276	0.487159
C36	C	0.075772	-0.405653	0.744326
C37	C	0.059206	-0.422280	0.794159
C38	C	0.140607	-0.462951	0.794094
C39	C	0.157172	-0.446325	0.744260
C40	C	0.124753	-0.417674	0.719377
C41	C	0.328223	-0.417595	0.515681
C42	C	-0.172390	-0.583988	0.349141
C43	C	-0.041751	-0.584138	0.218783
C44	C	-0.041941	-0.584130	0.349402
C45	C	-0.041957	-0.714607	0.349338
C46	C	-0.129326	-0.598388	0.334853
C47	C	-0.056165	-0.598473	0.261852
C48	C	-0.056282	-0.671535	0.334962
C49	C	-0.056272	-0.598469	0.334999
C50	C	-0.227205	-0.565659	0.367327
C51	C	-0.023703	-0.565882	0.367734
C52	C	-0.074511	-0.616717	0.316667
C53	C	-0.055754	-0.794298	0.391257
C54	C	-0.039181	-0.844132	0.407888
C55	C	0.041447	-0.844215	0.377269
C56	C	0.024873	-0.794381	0.360637
C57	C	-0.252183	-0.577666	0.416302
C58	C	-0.302014	-0.561001	0.432833
C59	C	-0.301886	-0.520329	0.351410
C60	C	-0.252055	-0.536994	0.334880
C61	C	-0.035709	-0.516892	0.355682
C62	C	-0.019129	-0.500308	0.372353
C63	C	0.021465	-0.581700	0.413115
C64	C	0.004884	-0.598286	0.396450
C65	C	-0.035389	-0.516907	0.139026
C66	C	-0.018707	-0.500324	0.089193
C67	C	0.021949	-0.581721	0.089240
C68	C	0.005268	-0.598303	0.139074
C69	C	-0.023402	-0.565894	0.163965
C70	C	-0.023728	-0.769425	0.367633
N71	N	0.427173	-0.450553	0.482630
O72	O	0.589997	-0.458460	0.365361
O73	O	0.590185	-0.550997	0.490963
O74	O	0.590104	-0.550786	0.411309
O75	O	0.590077	-0.458671	0.445016
O76	O	0.510940	-0.524462	0.437777
O77	O	0.511020	-0.524674	0.517432
O78	O	0.510832	-0.432136	0.391830
Zn79	Zn	0.498357	-0.474225	0.458833
Zn80	Zn	0.602660	-0.508908	0.423960
O81	O	0.510913	-0.432348	0.471484
N82	N	0.673844	-0.532580	0.400158
N83	N	0.091520	-0.115070	0.482873
O84	O	-0.025663	0.047841	0.474857
O85	O	0.099940	0.047877	0.382299
O86	O	0.020247	0.047844	0.382560
O87	O	0.054030	0.047874	0.474596
O88	O	0.046674	-0.031326	0.408942
O89	O	0.126367	-0.031293	0.408680
O90	O	0.000764	-0.031329	0.501238
Zn91	Zn	0.067761	-0.043881	0.459148
Zn92	Zn	0.032943	0.060429	0.424389
O93	O	0.080457	-0.031296	0.500977
N94	N	0.009178	0.131618	0.400665
N95	N	0.091852	-0.450680	0.818332
O96	O	0.083862	-0.567845	0.981235
O97	O	-0.008657	-0.442198	0.981276
O98	O	-0.008441	-0.521875	0.981252
O99	O	0.083646	-0.488168	0.981258
O100	O	0.017919	-0.495468	0.902085
O101	O	0.017703	-0.415791	0.902109
O102	O	0.110222	-0.541438	0.902067
Zn103	Zn	0.068148	-0.474422	0.889518
Zn104	Zn	0.033417	-0.509214	0.993825
O105	O	0.110006	-0.461761	0.902091
N106	N	0.009712	-0.532961	1.065011
C107	C	0.030439	-0.413071	0.383027
C108	C	0.129046	-0.511580	0.382922
C109	C	0.070334	-0.570496	0.500675
C110	C	-0.028274	-0.471987	0.500780
C111	C	0.550625	-0.550579	0.520021
C112	C	0.550527	-0.550317	0.421379
C113	C	0.550389	-0.432554	0.362773
C114	C	0.550491	-0.432816	0.461414
C115	C	0.128944	0.008394	0.382712
C116	C	0.030287	0.008256	0.383068
C117	C	-0.028273	0.008252	0.500793
C118	C	0.070417	0.008292	0.500470
C119	C	-0.008218	-0.413165	0.941698
C120	C	-0.007945	-0.511830	0.941653
C121	C	0.109783	-0.570471	0.941646
C122	C	0.109516	-0.471800	0.941673
H123	H	0.049370	-0.382321	0.724071
H124	H	0.023050	0.008252	0.354152
H125	H	0.077653	0.008301	0.529384
O126	O	-0.076054	0.008249	0.539283
H127	H	-0.099418	0.008244	0.525842
O128	O	-0.046699	-0.365369	0.941717
H129	H	-0.033243	-0.342024	0.941727
H130	H	-0.036863	-0.519031	0.941619
O131	O	0.550693	-0.589064	0.567803
H132	H	0.550708	-0.575602	0.591144
H133	H	0.138832	-0.606554	0.941627
O134	O	0.550540	-0.588651	0.411831
H135	H	0.550490	-0.575028	0.375013
O136	O	-0.076079	-0.462573	0.539215
H137	H	-0.092723	-0.488294	0.549331
H138	H	0.332825	-0.345993	0.486242
H139	H	0.550329	-0.403500	0.326702
O140	O	0.147842	-0.462251	0.941667
H141	H	0.134224	-0.425418	0.941674
O142	O	0.550475	-0.394481	0.470962
H143	H	0.550519	-0.408102	0.507783
O144	O	0.176619	0.008679	0.344105
H145	H	0.183218	0.041021	0.335434
O146	O	0.006373	-0.409299	0.821062
H147	H	-0.009967	-0.422695	0.811509
O148	O	0.175574	-0.493848	0.820931
H149	H	0.198269	-0.474061	0.811349
O150	O	0.210005	-0.459286	0.717351
H151	H	0.229762	-0.481994	0.743027
O152	O	0.079839	-0.618337	0.539052
H153	H	0.088641	-0.646585	0.526226
O154	O	0.040666	-0.374734	0.558824
H155	H	0.003804	-0.369162	0.564426
O156	O	0.006109	-0.409266	0.524322
H157	H	-0.013608	-0.386570	0.547052
H158	H	0.196836	-0.456064	0.477324
O159	O	0.175213	-0.493766	0.439633
H160	H	0.197950	-0.526688	0.459370
O161	O	0.326301	-0.500746	0.548285
H162	H	0.335901	-0.527400	0.580618
O163	O	0.429871	-0.535247	0.513709
H164	H	0.404185	-0.554723	0.532986
H165	H	0.423225	-0.376108	0.456057
H166	H	0.129672	-0.118967	0.410356
O167	O	0.167424	-0.215960	0.431898
H168	H	0.147617	-0.206402	0.409224
O169	O	0.048403	-0.112427	0.566572
H170	H	0.042860	-0.138135	0.603425
H171	H	0.086148	-0.209418	0.588113
H172	H	0.023260	-0.376951	0.354059
H173	H	0.044746	-0.608091	0.436494
O174	O	-0.031646	-0.447485	0.062295
H175	H	-0.054389	-0.427740	0.087979
O176	O	0.176852	-0.520990	0.344486
H177	H	0.183587	-0.551316	0.335811
H178	H	0.045284	-0.608113	0.068976
O179	O	-0.066306	-0.481951	0.165872
H180	H	-0.071833	-0.445101	0.140156
H181	H	0.015032	-0.638195	0.159378
O182	O	-0.066545	-0.481944	0.324715
H183	H	-0.099471	-0.459222	0.344460
O184	O	-0.031992	-0.447468	0.359277
H185	H	-0.054620	-0.427721	0.336473
O186	O	0.017835	-0.651126	0.409441
H187	H	0.040502	-0.670872	0.432205
H188	H	0.050956	-0.774133	0.341399
O189	O	0.093867	-0.871135	0.369726
H190	H	0.113354	-0.845466	0.350501
H191	H	-0.065262	-0.864385	0.427124
O192	O	-0.108176	-0.767377	0.398803
H193	H	-0.127660	-0.793048	0.418021
H194	H	-0.231954	-0.601008	0.442726
H195	H	-0.322118	-0.496994	0.324987
O196	O	-0.328976	-0.573951	0.485655
H197	H	-0.319451	-0.560572	0.502037
O198	O	-0.225114	-0.524041	0.282056
H199	H	-0.250767	-0.501309	0.262272
