data_functionalizedCrystal
_audit_creation_method	'MofGen! by Chris Wilmer'
_symmetry_space_group_name_H-M	'P1'
_symmetry_Int_Tables_number	1
_symmetry_cell_setting	triclinic
loop_
_symmetry_equiv_pos_as_xyz
  x,y,z
_cell_length_a	26.809956
_cell_length_b	11.792241
_cell_length_c	11.792241
_cell_angle_alpha	95.806584
_cell_angle_beta	89.995768
_cell_angle_gamma	89.995319
loop_
_atom_site_label
_atom_site_type_symbol
_atom_site_fract_x
_atom_site_fract_y
_atom_site_fract_z
O1	O	0.041431	-1.506918	0.155552
O2	O	0.041443	-1.176577	0.171585
O3	O	0.041433	-1.349763	-0.001602
O4	O	0.041441	-1.333731	0.328739
O5	O	-0.041526	-1.349731	-0.001576
O6	O	-0.041516	-1.176544	0.171611
O7	O	-0.041528	-1.506885	0.155578
Zn8	Zn	-0.054694	-1.341709	0.163599
Zn9	Zn	0.054609	-1.341752	0.163564
O10	O	-0.041518	-1.333698	0.328765
C11	C	-0.000035	-1.134269	0.170591
C12	C	-0.000031	-1.008255	0.167576
N13	N	-0.129290	-1.341688	0.163622
C14	C	-0.000046	-1.348740	-0.043880
C15	C	-0.000045	-1.345726	-0.169894
C16	C	-0.473920	-1.418430	0.086896
C17	C	-0.682798	-1.418456	0.086879
O18	O	-0.709805	-1.483659	0.021650
N19	N	-0.708917	-1.341758	0.163539
C20	C	-0.682813	-1.265043	0.240204
O21	O	-0.709822	-1.199799	0.305400
C22	C	-0.473936	-1.265011	0.240215
C23	C	-0.447820	-1.341722	0.163557
C24	C	-0.447803	-1.495134	0.010244
C25	C	-0.395587	-1.495130	0.010253
C26	C	-0.369487	-1.418423	0.086914
C27	C	-0.395604	-1.341719	0.163567
C28	C	-0.447834	-1.188292	0.316874
C29	C	-0.395611	-1.188289	0.316868
C30	C	-0.369495	-1.265000	0.240210
C31	C	-0.317288	-1.265009	0.240237
N32	N	-0.291169	-1.341707	0.163577
C33	C	-0.317268	-1.418414	0.086916
C34	C	-0.792476	-1.265066	0.240195
C35	C	-0.844695	-1.265075	0.240194
C36	C	-0.844676	-1.418488	0.086866
C37	C	-0.792456	-1.418483	0.086874
C38	C	-0.766357	-1.341764	0.163534
C39	C	-0.207610	-1.418402	0.086941
C40	C	-0.155389	-1.418395	0.086961
C41	C	-0.155413	-1.264979	0.240283
C42	C	-0.207630	-1.264990	0.240268
C43	C	-0.233727	-1.341705	0.163588
O44	O	-0.290248	-1.199832	0.305423
O45	O	-0.290251	-1.483631	0.021712
C46	C	-0.526136	-1.418433	0.086887
C47	C	-0.552253	-1.341729	0.163539
C48	C	-0.526153	-1.265022	0.240200
C49	C	-0.604472	-1.341738	0.163538
C50	C	-0.630571	-1.418445	0.086876
C51	C	-0.604452	-1.495143	0.010216
C52	C	-0.552236	-1.495140	0.010225
C53	C	-0.552272	-1.188324	0.316861
C54	C	-0.604488	-1.188334	0.316846
C55	C	-0.630588	-1.265041	0.240185
N56	N	0.129205	-1.341782	0.163532
C57	C	-0.000049	-1.549192	0.156572
C58	C	-0.000050	-1.675206	0.159587
C59	C	-0.000045	-0.777543	0.162034
C60	C	-0.000037	-0.905928	0.165113
C61	C	-0.000037	-1.340183	-0.400606
C62	C	-0.000042	-1.343262	-0.272221
C63	C	-0.000038	-1.334721	0.371043
C64	C	-0.000035	-1.337736	0.497057
H65	H	-0.134127	-1.480866	0.024537
H66	H	-0.134155	-1.202528	0.302703
Cl67	Cl	-0.480606	-1.591579	-0.086143
H68	H	-0.625711	-1.557606	-0.052201
Cl69	Cl	-0.759672	-1.168615	0.336581
H70	H	-0.531025	-1.125858	0.379287
Cl71	Cl	-0.877498	-1.514917	-0.009508
H72	H	-0.530976	-1.557605	-0.052197
H73	H	-0.228853	-1.480870	0.024500
Cl74	Cl	-0.362761	-1.591563	-0.086128
Cl75	Cl	-0.637315	-1.091892	0.413230
Cl76	Cl	-0.480655	-1.091848	0.413245
H77	H	-0.771195	-1.480947	0.024452
H78	H	-0.865956	-1.202622	0.302627
H79	H	-0.374364	-1.125811	0.379293
H80	H	-0.228894	-1.202536	0.302701
