data_functionalizedCrystal
_audit_creation_method	'MofGen! by Chris Wilmer'
_symmetry_space_group_name_H-M	'P1'
_symmetry_Int_Tables_number	1
_symmetry_cell_setting	triclinic
loop_
_symmetry_equiv_pos_as_xyz
  x,y,z
_cell_length_a	19.805407
_cell_length_b	19.805399
_cell_length_c	18.215405
_cell_angle_alpha	89.973768
_cell_angle_beta	90.021978
_cell_angle_gamma	89.975799
loop_
_atom_site_label
_atom_site_type_symbol
_atom_site_fract_x
_atom_site_fract_y
_atom_site_fract_z
Zn1	Zn	1.034753	-0.382810	-0.293016
Zn2	Zn	1.034675	-0.269624	-0.416085
Zn3	Zn	0.921568	-0.269625	-0.293035
Zn4	Zn	0.921538	-0.382762	-0.416044
O5	O	0.978134	-0.326205	-0.354545
O6	O	1.129459	-0.367815	-0.309351
O7	O	1.019651	-0.174907	-0.399787
O8	O	0.936627	-0.284660	-0.190048
O9	O	1.129402	-0.284658	-0.399768
O10	O	1.019784	-0.367816	-0.190034
O11	O	0.936551	-0.174908	-0.309382
O12	O	0.826847	-0.284613	-0.309343
O13	O	0.936577	-0.477485	-0.399699
O14	O	0.826826	-0.367734	-0.399717
O15	O	1.019755	-0.477520	-0.309311
O16	O	1.019622	-0.284611	-0.519063
O17	O	0.936501	-0.367733	-0.519033
C18	C	0.802278	-0.326169	-0.354528
C19	C	0.727046	-0.326170	-0.354539
C20	C	0.265261	-0.369461	-0.401691
C21	C	0.335950	-0.369447	-0.401690
C22	C	0.371284	-0.326232	-0.354563
C23	C	0.335926	-0.283022	-0.307439
C24	C	0.265239	-0.283034	-0.307444
C25	C	0.620999	-0.282975	-0.307416
C26	C	0.691691	-0.282968	-0.307413
C27	C	0.691710	-0.369388	-0.401662
C28	C	0.621023	-0.369400	-0.401667
C29	C	0.585671	-0.326188	-0.354547
C30	C	0.509023	-0.326203	-0.354549
C31	C	0.447931	-0.326219	-0.354555
C32	C	0.978172	-0.502748	-0.354498
C33	C	0.978188	-0.577980	-0.354479
C34	C	1.021500	-0.613343	-0.307411
C35	C	1.021507	-0.684032	-0.307390
C36	C	0.978205	-0.719356	-0.354440
C37	C	0.934888	-0.683987	-0.401510
C38	C	0.934878	-0.613300	-0.401527
C39	C	0.934926	-0.969060	-0.401441
C40	C	0.934941	-1.039753	-0.401422
C41	C	1.021555	-1.039793	-0.307304
C42	C	1.021545	-0.969105	-0.307321
C43	C	0.978226	-0.933743	-0.354388
C44	C	0.978218	-0.857095	-0.354409
C45	C	0.978215	-0.796003	-0.354423
C46	C	1.154676	-0.326242	-0.354562
C47	C	1.229908	-0.326257	-0.354569
C48	C	0.978069	-0.326182	-0.545751
C49	C	0.978103	-0.326194	-0.627550
C50	C	0.978135	-0.150349	-0.354538
C51	C	0.978250	-0.075117	-0.354350
C52	C	1.021423	-0.369552	-0.815676
C53	C	1.021448	-0.369565	-0.892534
C54	C	0.934928	-0.282900	-0.892662
C55	C	0.934900	-0.282891	-0.815804
C56	C	0.978152	-0.326216	-0.777313
C57	C	0.978204	-0.326238	-0.931029
C58	C	0.978230	-0.326251	-1.014363
C59	C	0.978125	-0.326204	-0.693974
C60	C	0.978217	-0.326243	-0.162592
C61	C	0.978253	-0.326260	-0.080793
H62	H	0.364731	-0.404627	-0.440063
C63	C	0.887901	-0.235832	-0.934321
C64	C	0.849987	-0.197891	-0.884272
C65	C	0.806653	-0.154530	-0.922620
H66	H	0.913748	-0.206311	-0.964302
H67	H	0.858368	-0.261680	-0.964297
H68	H	0.879516	-0.172045	-0.854309
H69	H	0.824127	-0.227394	-0.854290
H70	H	0.777120	-0.180378	-0.952595
H71	H	0.832505	-0.125014	-0.952599
H72	H	0.780918	-0.128786	-0.888667
C73	C	0.227023	-0.416412	-0.452936
C74	C	0.273117	-0.454234	-0.494215
C75	C	0.237920	-0.497486	-0.541437
H76	H	0.199473	-0.446013	-0.424908
H77	H	0.199437	-0.390491	-0.485008
H78	H	0.300693	-0.480153	-0.462147
H79	H	0.300669	-0.424650	-0.522258
H80	H	0.210333	-0.471565	-0.573509
H81	H	0.210371	-0.527083	-0.513403
H82	H	0.269189	-0.523149	-0.569455
C83	C	0.582783	-0.416344	-0.452916
C84	C	0.628874	-0.454166	-0.494199
C85	C	0.593673	-0.497410	-0.541427
H86	H	0.555229	-0.445946	-0.424892
H87	H	0.555199	-0.390417	-0.484985
H88	H	0.656446	-0.480091	-0.462134
H89	H	0.656429	-0.424582	-0.522238
H90	H	0.566089	-0.471483	-0.573496
H91	H	0.566121	-0.527007	-0.513397
H92	H	0.624940	-0.523073	-0.569448
C93	C	1.068403	-0.574910	-0.256281
C94	C	1.030093	-0.534317	-0.209130
C95	C	1.073276	-0.498899	-0.162021
H96	H	1.094212	-0.606022	-0.228175
H97	H	1.097870	-0.547298	-0.284418
H98	H	1.000638	-0.561927	-0.180996
H99	H	1.004285	-0.503193	-0.237216
H100	H	1.102743	-0.471286	-0.190159
H101	H	1.099083	-0.530015	-0.133921
H102	H	1.047289	-0.471348	-0.130029
H103	H	1.056825	-1.068593	-0.268978
C104	C	0.887985	-0.722373	-0.452684
C105	C	0.926295	-0.762940	-0.499861
C106	C	0.883113	-0.798302	-0.547021
H107	H	0.858498	-0.750002	-0.424608
H108	H	0.862199	-0.691207	-0.480761
H109	H	0.952070	-0.794102	-0.471787
H110	H	0.955781	-0.735328	-0.527953
H111	H	0.857327	-0.767137	-0.575098
H112	H	0.853628	-0.825928	-0.518939
H113	H	0.909100	-0.825827	-0.579041
H114	H	1.056808	-0.940348	-0.269011
C115	C	0.730215	-0.416226	-0.452801
C116	C	0.799683	-0.406956	-0.442730
C117	C	0.835172	-0.450085	-0.489829
H118	H	0.718742	-0.461750	-0.442140
H119	H	0.718647	-0.406237	-0.502251
H120	H	0.811246	-0.416950	-0.393291
H121	H	0.811176	-0.361442	-0.453396
H122	H	0.823604	-0.440097	-0.539279
H123	H	0.823694	-0.495606	-0.479164
H124	H	0.882310	-0.443797	-0.483007
C125	C	0.729934	-0.235966	-0.256221
C126	C	0.683846	-0.198110	-0.214971
C127	C	0.719050	-0.154801	-0.167816
H128	H	0.757536	-0.261827	-0.224122
H129	H	0.757470	-0.206394	-0.284319
H130	H	0.656322	-0.227679	-0.186874
H131	H	0.656243	-0.172236	-0.247050
H132	H	0.746586	-0.125229	-0.195914
H133	H	0.746651	-0.180668	-0.135722
H134	H	0.687785	-0.129107	-0.139827
H135	H	0.364701	-0.247833	-0.269070
C136	C	1.068399	-0.416671	-0.774017
C137	C	1.106284	-0.454640	-0.824068
C138	C	1.149557	-0.498063	-0.785722
H139	H	1.097958	-0.390888	-0.744022
H140	H	1.042489	-0.446167	-0.744056
H141	H	1.132192	-0.425149	-0.854017
H142	H	1.076743	-0.480438	-0.854064
H143	H	1.123647	-0.527559	-0.755760
H144	H	1.179112	-0.472274	-0.755728
H145	H	1.175263	-0.523835	-0.819675
H146	H	0.236455	-0.247854	-0.269071
C147	C	0.582610	-0.235943	-0.256398
C148	C	0.542031	-0.192485	-0.298038
C149	C	0.506671	-0.149126	-0.251073
H150	H	0.554988	-0.261773	-0.224335
H151	H	0.613776	-0.210169	-0.228364
H152	H	0.510869	-0.218256	-0.326060
H153	H	0.569636	-0.166641	-0.330099
H154	H	0.537837	-0.123352	-0.223039
H155	H	0.479053	-0.174961	-0.219012
H156	H	0.479139	-0.119631	-0.279319
C157	C	1.068318	-0.416699	-0.934224
C158	C	1.029982	-0.460061	-0.978335
C159	C	1.073136	-0.503498	-1.016742
H160	H	1.097848	-0.390921	-0.964260
H161	H	1.094059	-0.442538	-0.900313
H162	H	1.004252	-0.434224	-1.012241
H163	H	1.000453	-0.485853	-0.948317
H164	H	1.098877	-0.529338	-0.982831
H165	H	1.102664	-0.477714	-1.046773
H166	H	1.047131	-0.532928	-1.046670
H167	H	0.899660	-0.247601	-0.784568
H168	H	0.899663	-0.940277	-0.439776
C169	C	0.887947	-0.574933	-0.452759
C170	C	0.902674	-0.592102	-0.525569
C171	C	0.859461	-0.556764	-0.572785
H172	H	0.842449	-0.586473	-0.442085
H173	H	0.894152	-0.527770	-0.446077
H174	H	0.896462	-0.639255	-0.532247
H175	H	0.948164	-0.580561	-0.536265
H176	H	0.865666	-0.509601	-0.566104
H177	H	0.813965	-0.568307	-0.562106
H178	H	0.869451	-0.568404	-0.622193
C179	C	1.068496	-0.722334	-0.256166
C180	C	1.053800	-0.705129	-0.183358
C181	C	1.097080	-0.740390	-0.136147
H182	H	1.062347	-0.769504	-0.262785
H183	H	1.113977	-0.710744	-0.266904
H184	H	1.008330	-0.716724	-0.172624
H185	H	1.059953	-0.657966	-0.176716
H186	H	1.142561	-0.728799	-0.146885
H187	H	1.090927	-0.787557	-0.142772
H188	H	1.087119	-0.728716	-0.086742
C189	C	0.887846	-1.077984	-0.452532
C190	C	0.849893	-1.031886	-0.493740
C191	C	0.806500	-1.067080	-0.540821
H192	H	0.913651	-1.105561	-0.484661
H193	H	0.858340	-1.105543	-0.424382
H194	H	0.879395	-1.004338	-0.521888
H195	H	0.824074	-1.004308	-0.461631
H196	H	0.776993	-1.094640	-0.512670
H197	H	0.832310	-1.094656	-0.572944
H198	H	0.780739	-1.035808	-0.568781
