data_functionalizedCrystal
_audit_creation_method	'MofGen! by Chris Wilmer'
_symmetry_space_group_name_H-M	'P1'
_symmetry_Int_Tables_number	1
_symmetry_cell_setting	triclinic
loop_
_symmetry_equiv_pos_as_xyz
  x,y,z
_cell_length_a	16.625546
_cell_length_b	15.297475
_cell_length_c	16.625539
_cell_angle_alpha	99.685586
_cell_angle_beta	89.969603
_cell_angle_gamma	99.675296
loop_
_atom_site_label
_atom_site_type_symbol
_atom_site_fract_x
_atom_site_fract_y
_atom_site_fract_z
Zn1	Zn	-0.534655	-1.379242	-0.668851
Zn2	Zn	-0.669482	-1.379134	-0.533997
Zn3	Zn	-0.511313	-1.228372	-0.510738
Zn4	Zn	-0.646074	-1.228339	-0.645504
O5	O	-0.590381	-1.303772	-0.589773
O6	O	-0.572106	-1.505475	-0.670468
O7	O	-0.648528	-1.359103	-0.418074
O8	O	-0.401586	-1.248444	-0.531749
O9	O	-0.671162	-1.505396	-0.571391
O10	O	-0.418736	-1.359288	-0.647914
O11	O	-0.532322	-1.248339	-0.400986
O12	O	-0.509624	-1.102120	-0.509110
O13	O	-0.631266	-1.248388	-0.761439
O14	O	-0.608632	-1.102096	-0.608122
O15	O	-0.549408	-1.359256	-0.778592
O16	O	-0.779200	-1.359071	-0.548752
O17	O	-0.762002	-1.248283	-0.630676
C18	C	-0.799859	-1.303686	-0.589726
C19	C	-0.889487	-1.303732	-0.589745
C20	C	-0.554055	-1.069373	-0.553559
C21	C	-0.538534	-0.969096	-0.538086
C22	C	-0.626849	-1.539086	-0.626128
C23	C	-0.642389	-1.639362	-0.641620
C24	C	-1.217687	-1.303890	-0.589854
C25	C	-1.126371	-1.303843	-0.589825
C26	C	-1.053590	-1.303810	-0.589799
C27	C	-0.962268	-1.303765	-0.589772
C28	C	-0.380089	-1.303882	-0.589841
C29	C	-0.290475	-1.303929	-0.589870
C30	C	-0.590330	-1.303830	-0.800091
C31	C	-0.590308	-1.303855	-0.889716
C32	C	-0.701316	-0.686482	-0.700364
C33	C	-0.715905	-0.780697	-0.714899
C34	C	-0.671563	-0.827802	-0.670697
C35	C	-0.612631	-0.780682	-0.611957
C36	C	-0.598046	-0.686458	-0.597416
C37	C	-0.568293	-0.827777	-0.567749
C38	C	-0.509360	-0.780657	-0.509009
C39	C	-0.494777	-0.686442	-0.494471
C40	C	-0.539119	-0.639338	-0.538672
C41	C	-0.582878	-0.922001	-0.582291
C42	C	-0.479607	-0.921977	-0.479343
C43	C	-0.465019	-0.827762	-0.464807
C44	C	-0.590224	-1.303897	-1.217898
C45	C	-0.590250	-1.303883	-1.126587
C46	C	-0.590267	-1.303877	-1.053810
C47	C	-0.590291	-1.303862	-0.962493
C48	C	-0.590382	-1.303765	-0.380281
C49	C	-0.590203	-1.303915	-0.290683
H50	H	-0.630861	-0.960357	-0.630118
C51	C	-0.429963	-0.634615	-0.429844
C52	C	-0.340318	-0.647597	-0.438584
C53	C	-0.275506	-0.595774	-0.373954
C54	C	-0.300340	-0.530969	-0.300582
C55	C	-0.389989	-0.517984	-0.291838
C56	C	-0.454801	-0.569807	-0.356469
H57	H	-0.321931	-0.695572	-0.492901
H58	H	-0.209142	-0.605386	-0.380427
H59	H	-0.252363	-0.492606	-0.252739
H60	H	-0.408376	-0.470009	-0.237522
H61	H	-0.521165	-0.560194	-0.349996
C62	C	-0.687604	-0.931439	-0.686691
C63	C	-0.773073	-0.983230	-0.673780
C64	C	-0.789114	-1.086872	-0.689780
C65	C	-0.719686	-1.138722	-0.718690
C66	C	-0.634212	-1.086931	-0.731603
C67	C	-0.618171	-0.983289	-0.715603
H68	H	-0.824473	-0.944847	-0.652377
H69	H	-0.852388	-1.125211	-0.680221
H70	H	-0.731560	-1.215444	-0.730534
H71	H	-0.582812	-1.125314	-0.753006
H72	H	-0.554897	-0.944951	-0.725162
C73	C	-0.780720	-0.832526	-0.779515
C74	C	-0.829491	-0.780720	-0.828141
C75	C	-0.894309	-0.832550	-0.892763
C76	C	-0.910355	-0.936187	-0.908758
C77	C	-0.861583	-0.988000	-0.860131
C78	C	-0.796765	-0.936169	-0.795509
H79	H	-0.817614	-0.703996	-0.816301
H80	H	-0.930413	-0.794194	-0.928760
H81	H	-0.958336	-0.974555	-0.956595
H82	H	-0.873460	-1.064723	-0.871971
H83	H	-0.760661	-0.974525	-0.759512
C84	C	-0.750086	-0.634666	-0.748978
C85	C	-0.803307	-0.569855	-0.703915
C86	C	-0.852081	-0.518036	-0.752533
C87	C	-0.847635	-0.531029	-0.846213
C88	C	-0.794412	-0.595843	-0.891281
C89	C	-0.745638	-0.647661	-0.842664
H90	H	-0.806600	-0.560234	-0.634563
H91	H	-0.891480	-0.470057	-0.719170
H92	H	-0.883740	-0.492670	-0.882203
H93	H	-0.791119	-0.605464	-0.960634
H94	H	-0.706239	-0.695641	-0.876026
H95	H	-0.443502	-0.960329	-0.443349
H96	H	-0.527242	-0.562620	-0.526842
H97	H	-0.417036	-0.789383	-0.416980
