data_functionalizedCrystal
_audit_creation_method	'MofGen! by Chris Wilmer'
_symmetry_space_group_name_H-M	'P1'
_symmetry_Int_Tables_number	1
_symmetry_cell_setting	triclinic
loop_
_symmetry_equiv_pos_as_xyz
  x,y,z
_cell_length_a	10.654555
_cell_length_b	10.654550
_cell_length_c	9.730223
_cell_angle_alpha	89.999807
_cell_angle_beta	89.998893
_cell_angle_gamma	84.485987
loop_
_atom_site_label
_atom_site_type_symbol
_atom_site_fract_x
_atom_site_fract_y
_atom_site_fract_z
O1	O	-1.667830	-0.176425	0.114315
O2	O	-1.302352	-0.193224	0.114311
O3	O	-1.493494	-0.002085	0.114308
O4	O	-1.476688	-0.367564	0.114318
O5	O	-1.493492	-0.002090	-0.114272
O6	O	-1.302350	-0.193229	-0.114269
O7	O	-1.667828	-0.176430	-0.114265
Zn8	Zn	-1.485089	-0.184830	-0.150559
Zn9	Zn	-1.485092	-0.184824	0.150605
O10	O	-1.476686	-0.367568	-0.114262
C11	C	-1.255553	-0.191992	0.000021
C12	C	-1.116111	-0.188297	0.000019
C13	C	-0.919582	-0.183095	0.124627
C14	C	-1.050604	-0.186559	0.124623
C15	C	-1.050590	-0.186558	-0.124588
C16	C	-0.919571	-0.183084	-0.124582
C17	C	-0.919590	-0.183102	0.268507
C18	C	-1.050612	-0.186566	0.268502
C19	C	-1.492259	0.044710	0.000020
C20	C	-1.488567	0.184153	0.000024
N21	N	-1.485096	-0.184834	-0.356095
C22	C	-0.714627	-0.177663	0.000026
C23	C	-0.854069	-0.181360	0.000030
C24	C	-1.477921	-0.414364	0.000029
C25	C	-1.481613	-0.553807	0.000034
C26	C	-1.601109	0.263637	0.000022
C27	C	-1.597632	0.394658	0.000031
C28	C	-1.369063	0.366699	0.000041
C29	C	-1.372541	0.235681	0.000041
C30	C	-1.733071	0.279780	0.000010
C31	C	-1.729595	0.410801	0.000020
C32	C	-1.569755	-0.100226	-0.428023
C33	C	-1.569752	-0.100211	-0.571906
C34	C	-1.400426	-0.269421	-0.571921
C35	C	-1.400424	-0.269430	-0.428041
C36	C	-1.667519	-0.002538	-0.428015
C37	C	-1.667515	-0.002522	-0.571898
N38	N	-1.485094	-0.184810	0.356141
H39	H	-0.866239	-0.181646	-0.226041
H40	H	-1.103937	-0.187962	-0.226042
H41	H	-1.779315	0.452558	-0.095638
H42	H	-1.331477	-0.338313	-0.369479
Cl43	Cl	-1.791167	0.481283	0.152391
H44	H	-1.646076	0.093995	-0.388964
H45	H	-0.894766	-0.094427	0.323753
Cl46	Cl	-1.816518	-0.035737	-0.632197
Cl47	Cl	-1.797926	0.224757	-0.152375
Cl48	Cl	-1.130454	-0.048472	0.337428
Cl49	Cl	-1.088965	-0.323474	0.353781
Cl50	Cl	-1.223209	0.431486	0.000065
Cl51	Cl	-0.839752	-0.321190	0.337438
H52	H	-1.280899	0.170969	0.000062
Cl53	Cl	-1.812759	0.234445	0.147688
Cl54	Cl	-1.293986	-0.375765	-0.662375
Cl55	Cl	-1.808289	-0.049782	-0.359101
H56	H	-1.637002	0.088701	-0.616516
