data_functionalizedCrystal
_audit_creation_method	'MofGen! by Chris Wilmer'
_symmetry_space_group_name_H-M	'P1'
_symmetry_Int_Tables_number	1
_symmetry_cell_setting	triclinic
loop_
_symmetry_equiv_pos_as_xyz
  x,y,z
_cell_length_a	10.654549
_cell_length_b	16.109301
_cell_length_c	14.586319
_cell_angle_alpha	90.005214
_cell_angle_beta	89.995465
_cell_angle_gamma	96.025801
loop_
_atom_site_label
_atom_site_type_symbol
_atom_site_fract_x
_atom_site_fract_y
_atom_site_fract_z
O1	O	1.666252	-0.116792	-0.076266
O2	O	1.300624	-0.127914	-0.076263
O3	O	1.493482	-0.001382	-0.076255
O4	O	1.473394	-0.243324	-0.076274
O5	O	1.493469	-0.001380	0.076226
O6	O	1.300610	-0.127912	0.076218
O7	O	1.666239	-0.116790	0.076215
Cu8	Cu	1.483423	-0.122351	0.090139
Cu9	Cu	1.483439	-0.122353	-0.090187
O10	O	1.473381	-0.243322	0.076207
C11	C	1.253830	-0.127095	-0.000022
C12	C	1.114420	-0.124649	-0.000021
C13	C	0.822445	-0.271361	-0.000058
C14	C	0.872941	-0.348164	-0.000060
C15	C	1.003927	-0.350465	-0.000048
C16	C	1.084424	-0.275955	-0.000037
C17	C	1.033929	-0.199152	-0.000035
C18	C	0.902937	-0.196859	-0.000044
C19	C	1.063925	-0.047847	-0.000019
C20	C	0.932939	-0.045544	-0.000024
C21	C	1.144422	0.026664	-0.000008
C22	C	1.093927	0.103469	0.000001
C23	C	0.962932	0.105766	-0.000010
C24	C	0.882444	0.031259	-0.000022
C25	C	1.492662	0.029599	-0.000014
C26	C	1.490222	0.121909	-0.000013
C27	C	1.713033	-0.117609	-0.000028
C28	C	1.852442	-0.120054	-0.000035
C29	C	1.474201	-0.274303	-0.000036
C30	C	1.476641	-0.366613	-0.000043
N31	N	1.483422	-0.122349	0.216971
C32	C	1.598988	0.343533	-0.000028
C33	C	1.596686	0.430267	-0.000036
C34	C	1.367866	0.411756	-0.000031
C35	C	1.370169	0.325024	-0.000030
C36	C	1.485734	0.290915	-0.000024
C37	C	1.481129	0.464381	-0.000032
C38	C	1.478632	0.558422	-0.000041
C39	C	1.488232	0.196868	-0.000017
N40	N	1.483451	-0.122349	-0.217019
C41	C	1.568847	-0.066340	0.451981
C42	C	1.568851	-0.066338	0.547962
C43	C	1.398016	-0.178360	0.547964
C44	C	1.398008	-0.178358	0.451985
C45	C	1.483430	-0.122348	0.403995
C46	C	1.483443	-0.122349	0.595956
C47	C	1.483446	-0.122347	0.700023
C48	C	1.483426	-0.122349	0.299922
H49	H	1.191079	-0.277835	-0.000038
H50	H	1.328444	-0.223967	0.412913
H51	H	0.715788	-0.269496	-0.000052
H52	H	0.775785	0.033122	-0.000023
H53	H	1.273777	0.439538	-0.000034
F54	F	1.659761	-0.006724	0.599028
F55	F	1.057669	-0.432207	-0.000056
F56	F	1.307110	-0.237969	0.599044
F57	F	1.249622	0.269019	-0.000032
H58	H	0.807386	-0.408829	-0.000072
F59	F	1.283829	0.024213	-0.000002
H60	H	0.921828	0.168309	-0.000013
F61	F	1.179601	0.182758	0.000007
F62	F	1.721982	0.307235	-0.000023
H63	H	1.638402	-0.020732	0.412910
F64	F	1.717227	0.486265	-0.000043
