data_functionalizedCrystal
_audit_creation_method	'MofGen! by Chris Wilmer'
_symmetry_space_group_name_H-M	'P1'
_symmetry_Int_Tables_number	1
_symmetry_cell_setting	triclinic
loop_
_symmetry_equiv_pos_as_xyz
  x,y,z
_cell_length_a	15.995350
_cell_length_b	19.288864
_cell_length_c	17.766277
_cell_angle_alpha	90.023209
_cell_angle_beta	89.995869
_cell_angle_gamma	96.685689
loop_
_atom_site_label
_atom_site_type_symbol
_atom_site_fract_x
_atom_site_fract_y
_atom_site_fract_z
O1	O	0.104452	-0.921624	-0.062832
O2	O	0.604452	-0.421624	0.437168
O3	O	0.118542	-0.719400	-0.062780
O4	O	0.618542	-0.219400	0.437220
O5	O	-0.010412	-0.826040	-0.062807
O6	O	0.489588	-0.326040	0.437193
O7	O	0.233405	-0.814984	-0.062805
O8	O	0.733405	-0.314984	0.437195
O9	O	-0.010418	-0.826021	0.062382
O10	O	0.489582	-0.326021	0.562382
O11	O	0.118535	-0.719381	0.062408
O12	O	0.618535	-0.219381	0.562408
O13	O	0.104445	-0.921605	0.062357
O14	O	0.604445	-0.421605	0.562357
Cu15	Cu	0.111490	-0.820492	0.073813
Cu16	Cu	0.611490	-0.320492	0.573813
Cu17	Cu	0.111497	-0.820514	-0.074237
Cu18	Cu	0.611497	-0.320514	0.425763
O19	O	0.233399	-0.814965	0.062383
O20	O	0.733399	-0.314965	0.562383
C21	C	0.118085	-0.693513	-0.000179
C22	C	0.618085	-0.193513	0.499821
C23	C	0.116724	-0.616406	-0.000159
C24	C	0.616724	-0.116406	0.499841
C25	C	-0.041608	-0.825574	-0.000214
C26	C	0.458392	-0.325574	0.499786
C27	C	-0.134553	-0.824203	-0.000218
C28	C	0.365447	-0.324203	0.499782
C29	C	0.104902	-0.947492	-0.000246
C30	C	0.604902	-0.447492	0.499754
C31	C	0.106263	-1.024600	-0.000271
C32	C	0.606263	-0.524600	0.499729
C33	C	-0.472282	-0.819282	-0.000214
C34	C	0.027718	-0.319282	0.499786
C35	C	-0.424562	-0.743335	-0.000475
C36	C	0.075438	-0.243335	0.499525
C37	C	-0.327877	-0.744706	-0.000193
C38	C	0.172123	-0.244706	0.499807
C39	C	-0.304731	-0.821723	-0.000216
C40	C	0.195269	-0.321723	0.499784
C41	C	-0.345953	-0.859172	0.071262
C42	C	0.154047	-0.359172	0.571262
C43	C	-0.442582	-0.857264	0.071322
C44	C	0.057418	-0.357264	0.571322
C45	C	-0.442939	-0.858855	-0.071041
C46	C	0.057061	-0.358855	0.428959
C47	C	-0.345993	-0.858837	-0.071986
C48	C	0.154007	-0.358837	0.428014
C49	C	-0.210039	-0.823107	-0.000215
C50	C	0.289961	-0.323107	0.499785
C51	C	-0.566975	-0.817901	-0.000210
C52	C	-0.066975	-0.317901	0.499790
C53	C	0.264595	-0.815432	-0.000211
C54	C	0.764595	-0.315432	0.499789
C55	C	0.357540	-0.816802	-0.000212
C56	C	0.857540	-0.316802	0.499788
N57	N	0.111484	-0.820481	0.177944
N58	N	0.611484	-0.320481	0.677944
C59	C	0.192388	-0.571906	-0.000171
C60	C	0.692388	-0.071906	0.499829
C61	C	0.191110	-0.499456	-0.000179
C62	C	0.691110	0.000544	0.499821
C63	C	0.114163	-0.471508	-0.000191
C64	C	0.614163	0.028492	0.499809
C65	C	0.038489	-0.516018	-0.000176
C66	C	0.538489	-0.016018	0.499824
C67	C	0.039769	-0.588467	-0.000160
C68	C	0.539769	-0.088467	0.499840
C69	C	0.053676	-0.363096	-0.044076
C70	C	0.553676	0.136904	0.455924
C71	C	0.052398	-0.290648	-0.044097
C72	C	0.552398	0.209352	0.455903
C73	C	0.110209	-0.248053	-0.000237
C74	C	0.610209	0.251947	0.499763
C75	C	0.169312	-0.277912	0.043634
C76	C	0.669312	0.222088	0.543634
C77	C	0.170593	-0.350361	0.043650
C78	C	0.670593	0.149639	0.543650
C79	C	0.112765	-0.392951	-0.000208
C80	C	0.612765	0.107049	0.499792
C81	C	0.184492	-0.124993	-0.000256
C82	C	0.684492	0.375007	0.499744
C83	C	0.183210	-0.052542	-0.000260
C84	C	0.683210	0.447458	0.499740
C85	C	0.030587	-0.069106	-0.000264
C86	C	0.530587	0.430894	0.499736
C87	C	0.031871	-0.141556	-0.000253
C88	C	0.531871	0.358444	0.499747
C89	C	0.108826	-0.169495	-0.000252
C90	C	0.608826	0.330505	0.499748
N91	N	0.111497	-0.820530	-0.178367
N92	N	0.611497	-0.320530	0.321633
C93	C	0.054411	-0.867717	0.217319
C94	C	0.554411	-0.367717	0.717319
C95	C	0.054407	-0.867721	0.296120
C96	C	0.554407	-0.367721	0.796120
C97	C	0.111490	-0.820496	0.335544
C98	C	0.611490	-0.320496	0.835544
C99	C	0.168567	-0.773251	0.296160
C100	C	0.668567	-0.273251	0.796160
C101	C	0.168564	-0.773244	0.217359
C102	C	0.668564	-0.273244	0.717359
C103	C	0.187781	-0.811395	0.460384
C104	C	0.687781	-0.311395	0.960384
C105	C	0.187785	-0.811407	0.539183
C106	C	0.687785	-0.311407	1.039183
C107	C	0.111500	-0.820514	0.578590
C108	C	0.611500	-0.320514	1.078590
C109	C	0.035208	-0.829624	0.539190
C110	C	0.535208	-0.329624	1.039190
C111	C	0.035204	-0.829617	0.460389
C112	C	0.535204	-0.329617	0.960389
C113	C	0.111500	-0.820498	0.420990
C114	C	0.611500	-0.320498	0.920990
C115	C	0.054419	-0.867757	0.703411
C116	C	0.554419	-0.367757	1.203411
C117	C	0.054414	-0.867756	0.782215
C118	C	0.554414	-0.367756	1.282215
C119	C	0.168581	-0.773290	0.782252
C120	C	0.668581	-0.273290	1.282252
C121	C	0.168579	-0.773288	0.703451
C122	C	0.668579	-0.273288	1.203451
C123	C	0.111499	-0.820525	0.664035
C124	C	0.611499	-0.320525	1.164035
H125	H	-0.299341	-0.715268	-0.051431
H126	H	0.200659	-0.215268	0.448569
N127	N	-0.044508	-0.485884	-0.000194
N128	N	0.455492	0.014116	0.499806
H129	H	-0.077647	-0.502086	0.046217
H130	H	0.422353	-0.002086	0.546217
H131	H	-0.033773	-0.433240	-0.000237
H132	H	0.466227	0.066760	0.499763
N133	N	0.272721	-0.451447	-0.000193
N134	N	0.772721	0.048553	0.499807
H135	H	0.321665	-0.480140	-0.000190
H136	H	0.821665	0.019860	0.499810
H137	H	0.275506	-0.421056	-0.046611
H138	H	0.775506	0.078944	0.453389
N139	N	0.270067	-0.801573	0.417886
N140	N	0.770067	-0.301573	0.917886
H141	H	0.304852	-0.840185	0.431575
H142	H	0.804852	-0.340185	0.931575
H143	H	0.258418	-0.802932	0.362002
H144	H	0.758418	-0.302932	0.862002
H145	H	-0.318638	-0.831457	-0.124863
H146	H	0.181362	-0.331457	0.375137
H147	H	0.215044	-0.734799	0.328262
H148	H	0.715044	-0.234799	0.828262
N149	N	0.230149	-0.722344	0.660984
N150	N	0.730149	-0.222344	1.160984
H151	H	0.267141	-0.748880	0.628272
H152	H	0.767141	-0.248880	1.128272
H153	H	0.198188	-0.691600	0.628354
H154	H	0.698188	-0.191600	1.128354
N155	N	0.270069	-0.801577	0.581674
N156	N	0.770069	-0.301577	1.081674
H157	H	0.258497	-0.802967	0.637572
H158	H	0.758497	-0.302967	1.137572
H159	H	0.304827	-0.840184	0.567873
H160	H	0.804827	-0.340184	1.067873
N161	N	0.230121	-0.722293	0.174885
N162	N	0.730121	-0.222293	0.674885
H163	H	0.266281	-0.692373	0.211814
H164	H	0.766281	-0.192373	0.711814
H165	H	0.267057	-0.748877	0.142172
H166	H	0.767057	-0.248877	0.642172
N167	N	-0.325932	-0.933236	-0.077731
N168	N	0.174068	-0.433236	0.422269
H169	H	-0.289652	-0.943986	-0.033694
H170	H	0.210348	-0.443986	0.466306
H171	H	-0.379994	-0.965998	-0.077127
H172	H	0.120006	-0.465998	0.422873
H173	H	-0.021848	-0.624700	-0.000151
H174	H	0.478152	-0.124700	0.499849
N175	N	-0.448951	-0.703128	-0.068367
N176	N	0.051049	-0.203128	0.431633
H177	H	-0.491173	-0.733750	-0.099614
H178	H	0.008827	-0.233750	0.400386
H179	H	-0.474729	-0.660425	-0.051232
H180	H	0.025271	-0.160425	0.448768
H181	H	-0.299903	-0.715054	0.051147
H182	H	0.200097	-0.215054	0.551147
N183	N	-0.450360	-0.703289	0.067061
N184	N	0.049640	-0.203289	0.567061
H185	H	-0.492825	-0.734129	0.097825
H186	H	0.007175	-0.234129	0.597825
H187	H	-0.399195	-0.688139	0.098931
H188	H	0.100805	-0.188139	0.598931
H189	H	0.247153	-0.147742	-0.000245
H190	H	0.747153	0.352258	0.499755
H191	H	0.244828	-0.016310	-0.000265
H192	H	0.744828	0.483690	0.499735
H193	H	0.215056	-0.734836	0.814350
H194	H	0.715056	-0.234836	1.314350
H195	H	0.218713	-0.374670	0.079373
H196	H	0.718713	0.125330	0.579373
H197	H	-0.460783	-0.829941	0.124769
H198	H	0.039217	-0.329941	0.624769
H199	H	-0.032065	-0.046352	-0.000320
H200	H	0.467935	0.453648	0.499680
N201	N	-0.485283	-0.933027	-0.071705
N202	N	0.014717	-0.433027	0.428295
H203	H	-0.523293	-0.940988	-0.026375
H204	H	-0.023293	-0.440988	0.473625
H205	H	-0.519755	-0.941330	-0.119164
H206	H	-0.019755	-0.441330	0.380836
N207	N	-0.470011	-0.825978	-0.142808
N208	N	0.029989	-0.325978	0.357192
H209	H	-0.507866	-0.861597	-0.172513
H210	H	-0.007866	-0.361597	0.327487
H211	H	-0.501543	-0.785091	-0.130070
H212	H	-0.001543	-0.285091	0.369930
N213	N	-0.485594	-0.931115	0.075608
N214	N	0.014406	-0.431115	0.575608
H215	H	-0.468899	-0.958492	0.030668
H216	H	0.031101	-0.458492	0.530668
H217	H	-0.468042	-0.953827	0.123379
H218	H	0.031958	-0.453827	0.623379
N219	N	-0.327559	-0.934130	0.074753
N220	N	0.172441	-0.434130	0.574753
H221	H	-0.292238	-0.944558	0.029929
H222	H	0.207762	-0.444558	0.529929
H223	H	-0.295942	-0.941855	0.122657
H224	H	0.204058	-0.441855	0.622657
N225	N	0.275386	-0.602041	-0.000176
N226	N	0.775386	-0.102041	0.499824
H227	H	0.323125	-0.562852	-0.000186
H228	H	0.823125	-0.062852	0.499814
H229	H	0.279248	-0.631715	0.046238
H230	H	0.779248	-0.131715	0.546238
H231	H	0.216387	-0.243232	0.079349
H232	H	0.716387	0.256768	0.579349
H233	H	-0.029743	-0.177789	-0.000247
H234	H	0.470257	0.322211	0.499753
N235	N	-0.011342	-0.258445	-0.091413
N236	N	0.488658	0.241555	0.408587
H237	H	-0.047778	-0.296421	-0.119187
H238	H	0.452222	0.203579	0.380813
H239	H	-0.047772	-0.232261	-0.057774
H240	H	0.452228	0.267739	0.442226
N241	N	-0.008683	-0.409036	-0.091382
N242	N	0.491317	0.090964	0.408618
H243	H	-0.046312	-0.379128	-0.119180
H244	H	0.453688	0.120872	0.380820
H245	H	0.022662	-0.435772	-0.128836
H246	H	0.522662	0.064228	0.371164
N247	N	-0.007154	-0.918661	0.174806
N248	N	0.492846	-0.418661	0.674806
H249	H	-0.043311	-0.948584	0.211712
H250	H	0.456689	-0.448584	0.711712
H251	H	-0.044093	-0.892070	0.142132
H252	H	0.455907	-0.392070	0.642132
H253	H	-0.317477	-0.833147	0.124469
H254	H	0.182523	-0.333147	0.624469
N255	N	-0.007154	-0.918667	0.338602
N256	N	0.492846	-0.418667	0.838602
H257	H	-0.043315	-0.948589	0.301675
H258	H	0.456685	-0.448589	0.801675
H259	H	0.024815	-0.949370	0.371276
H260	H	0.524815	-0.449370	0.871276
H261	H	-0.026916	-0.837032	0.428312
H262	H	0.473084	-0.337032	0.928312
N263	N	-0.047079	-0.839452	0.581680
N264	N	0.452921	-0.339452	1.081680
H265	H	-0.035505	-0.838071	0.637578
H266	H	0.464495	-0.338071	1.137578
H267	H	-0.081832	-0.800838	0.567928
H268	H	0.418168	-0.300838	1.067928
N269	N	-0.007145	-0.918700	0.660892
N270	N	0.492855	-0.418700	1.160892
H271	H	-0.043307	-0.948621	0.697797
H272	H	0.456693	-0.448621	1.197797
H273	H	-0.044079	-0.892110	0.628212
H274	H	0.455921	-0.392110	1.128212
N275	N	-0.007133	-0.918717	0.824688
N276	N	0.492867	-0.418717	1.324688
H277	H	-0.043283	-0.948644	0.787758
H278	H	0.456717	-0.448644	1.287758
H279	H	0.024854	-0.949412	0.857355
H280	H	0.524854	-0.449412	1.357355
