data_functionalizedCrystal
_audit_creation_method	'MofGen! by Chris Wilmer'
_symmetry_space_group_name_H-M	'P1'
_symmetry_Int_Tables_number	1
_symmetry_cell_setting	triclinic
loop_
_symmetry_equiv_pos_as_xyz
  x,y,z
_cell_length_a	10.723024
_cell_length_b	15.944551
_cell_length_c	9.198806
_cell_angle_alpha	89.995864
_cell_angle_beta	89.996352
_cell_angle_gamma	83.983304
loop_
_atom_site_label
_atom_site_type_symbol
_atom_site_fract_x
_atom_site_fract_y
_atom_site_fract_z
O1	O	1.655699	0.117808	-0.120886
O2	O	1.292405	0.129085	-0.120892
O3	O	1.483973	0.001228	-0.120876
O4	O	1.464131	0.245664	-0.120902
O5	O	1.483958	0.001228	0.120909
O6	O	1.292389	0.129084	0.120893
O7	O	1.655684	0.117808	0.120899
Cu8	Cu	1.474035	0.123446	0.142973
Cu9	Cu	1.474053	0.123446	-0.142966
O10	O	1.464116	0.245664	0.120883
C11	C	1.245908	0.128264	0.000000
C12	C	1.107384	0.125809	-0.000001
C13	C	1.031498	0.197350	-0.000010
C14	C	0.888327	0.194814	-0.000012
C15	C	1.483141	-0.030070	0.000017
C16	C	1.480672	-0.123331	0.000018
C17	C	1.356026	-0.338901	-0.000004
C18	C	1.413900	-0.399587	0.119211
C19	C	1.476205	-0.294082	0.000006
C20	C	1.413944	-0.399570	-0.119170
C21	C	1.471880	-0.459020	-0.000011
C22	C	1.534111	-0.353540	0.119320
C23	C	1.534138	-0.353516	-0.119168
C24	C	1.592099	-0.414184	0.000077
C25	C	1.478692	-0.199066	0.000018
C26	C	1.469402	-0.554035	-0.000011
C27	C	1.702181	0.118629	0.000003
C28	C	1.840704	0.121084	-0.000005
C29	C	1.464947	0.276963	-0.000013
C30	C	1.467417	0.370223	-0.000024
N31	N	1.474032	0.123445	0.344087
N32	N	1.474067	0.123441	-0.344080
C33	C	1.554469	0.069525	0.416290
C34	C	1.554488	0.069522	0.583703
H35	H	1.256273	-0.306164	0.000113
H36	H	1.623358	0.023362	0.645795
H37	H	1.405202	0.169609	0.593837
H38	H	1.584893	-0.333259	0.220218
H39	H	0.823120	0.256060	-0.000025
H40	H	0.905903	0.059835	-0.000006
N41	N	1.640760	0.011601	0.338281
N42	N	1.600742	-0.040601	0.253340
H43	H	1.661660	-0.081514	0.198214
H44	H	1.066360	0.062682	-0.000032
N45	N	1.350146	-0.425135	-0.245589
N46	N	1.237993	-0.398004	-0.266796
H47	H	1.192925	-0.416058	-0.356073
H48	H	1.363063	-0.419986	0.219997
N49	N	1.597883	-0.327897	-0.245590
N50	N	1.709469	-0.355983	-0.268013
H51	H	1.754485	-0.337889	-0.357309
N52	N	1.387636	0.181355	0.421983
N53	N	1.272249	0.179720	0.405118
H54	H	1.211226	0.220621	0.460128
N55	N	1.082951	0.276546	0.000014
N56	N	1.152294	0.294822	0.101939
H57	H	1.188631	0.350757	0.101959
N58	N	1.717351	-0.455058	0.000169
N59	N	1.789903	-0.442929	0.102618
H60	H	1.878363	-0.471796	0.102689
