data_functionalizedCrystal
_audit_creation_method	'MofGen! by Chris Wilmer'
_symmetry_space_group_name_H-M	'P1'
_symmetry_Int_Tables_number	1
_symmetry_cell_setting	triclinic
loop_
_symmetry_equiv_pos_as_xyz
  x,y,z
_cell_length_a	20.875641
_cell_length_b	21.606444
_cell_length_c	21.606444
_cell_angle_alpha	90.000308
_cell_angle_beta	62.440787
_cell_angle_gamma	57.592336
loop_
_atom_site_label
_atom_site_type_symbol
_atom_site_fract_x
_atom_site_fract_y
_atom_site_fract_z
Zr1	Zr	0.702132	-0.106096	0.621086
O2	O	0.835942	-0.209652	0.527002
O3	O	0.568316	-0.071066	0.646641
O4	O	0.702129	-0.204920	0.651380
O5	O	0.702134	0.026051	0.522263
O6	O	0.702134	-0.204924	0.753230
O7	O	0.702129	-0.075798	0.522263
O8	O	0.462767	0.034516	0.744753
O9	O	0.941501	-0.213389	0.530740
O10	O	0.623362	-0.060098	0.737520
O11	O	0.623362	0.015914	0.661511
O12	O	0.780910	-0.141681	0.667090
O13	O	0.780910	-0.065669	0.591081
Zr14	Zr	0.702147	0.056336	0.783524
Zr15	Zr	0.702140	-0.106103	0.783524
Zr16	Zr	0.702140	0.056342	0.621086
Zr17	Zr	0.870486	-0.112056	0.627047
Zr18	Zr	0.533793	0.062295	0.777563
O19	O	0.835963	0.021305	0.757969
O20	O	0.835953	-0.209661	0.757969
O21	O	0.835953	0.021314	0.527002
O22	O	0.568337	0.159892	0.877608
O23	O	0.568327	-0.071075	0.877608
O24	O	0.568327	0.159900	0.646641
O25	O	0.702145	-0.075812	0.882347
O26	O	0.702150	0.155159	0.753230
O27	O	0.702145	0.155163	0.651380
O28	O	0.702150	0.026038	0.882347
O29	O	0.941507	-0.213394	0.659857
O30	O	0.462773	0.163633	0.744753
O31	O	0.462778	0.163628	0.873870
O32	O	0.462773	0.034512	0.873870
O33	O	0.941507	-0.084272	0.530740
O34	O	0.941513	-0.084277	0.659857
O35	O	0.623369	0.091921	0.737520
O36	O	0.623369	0.015909	0.813529
O37	O	0.780917	-0.065675	0.743099
O38	O	0.780917	0.010337	0.667090
C39	C	0.491555	-0.017426	0.694848
C40	C	0.420084	-0.014896	0.692317
C41	C	0.702131	-0.024873	0.499119
C42	C	0.702128	-0.024870	0.430159
C43	C	0.702149	0.178305	0.702305
C44	C	0.702152	0.247264	0.702305
C45	C	0.386507	-0.053385	0.730802
C46	C	0.319348	-0.051000	0.728425
C47	C	0.285772	-0.010130	0.687559
C48	C	0.319352	0.028363	0.649073
C49	C	0.386505	0.025983	0.651454
C50	C	0.084928	0.001248	0.676188
C51	C	0.017772	0.003624	0.673808
C52	C	0.017772	-0.075739	0.753162
C53	C	0.084930	-0.078119	0.755536
C54	C	0.118501	-0.039622	0.717053
N55	N	0.217127	-0.007694	0.685128
N56	N	0.187140	-0.042054	0.719489
C57	C	0.912725	-0.032335	0.709762
C58	C	0.984195	-0.034865	0.712293
C59	C	0.702131	-0.228066	0.702305
C60	C	0.702128	-0.297025	0.702305
C61	C	0.784389	0.237078	0.665543
C62	C	0.784387	0.301875	0.665539
C63	C	0.702146	0.376859	0.702303
C64	C	0.619902	0.387044	0.739066
C65	C	0.619905	0.322247	0.739065
C66	C	0.619886	0.648363	0.739072
C67	C	0.619889	0.713161	0.739072
C68	C	0.784368	0.627991	0.665546
C69	C	0.784371	0.563194	0.665545
C70	C	0.702128	0.573385	0.702304
C71	C	0.702132	0.503124	0.702307
C72	C	0.702141	0.447119	0.702306
C73	C	0.619890	0.017713	0.434524
C74	C	0.619892	0.017714	0.369727
C75	C	0.702134	-0.024874	0.300566
C76	C	0.784378	-0.067458	0.296203
C77	C	0.784374	-0.067454	0.360999
C78	C	0.784393	-0.067476	0.034885
C79	C	0.784390	-0.067479	-0.029913
C80	C	0.619912	0.017692	0.043612
C81	C	0.619908	0.017696	0.108409
C82	C	0.702152	-0.024885	0.104041
C83	C	0.702148	-0.024884	0.174302
C84	C	0.702138	-0.024880	0.230305
C85	C	0.702149	-0.024888	0.905491
C86	C	0.702152	-0.024891	0.974451
C87	C	0.491564	-0.017433	0.898034
C88	C	0.420096	-0.014906	0.964462
C89	C	0.491564	0.185760	0.694848
C90	C	0.420096	0.257249	0.692317
C91	C	0.491573	0.185752	0.898034
C92	C	0.420108	0.257239	0.964462
C93	C	0.912707	-0.235513	0.506576
C94	C	0.984171	-0.307000	0.440147
C95	C	0.912716	-0.032327	0.506576
C96	C	0.984183	-0.034855	0.440148
C97	C	0.912716	-0.235521	0.709762
C98	C	0.984183	-0.307010	0.712293
C99	C	0.386531	-0.053400	0.955982
C100	C	0.319389	-0.051041	1.018393
C101	C	0.285809	-0.010182	1.089283
C102	C	0.319381	0.028313	1.097763
C103	C	0.386526	0.025949	1.035353
C104	C	0.386538	0.330503	0.730804
C105	C	0.319396	0.397681	0.728424
C106	C	0.285809	0.391603	0.687559
C107	C	0.319374	0.318342	0.649067
C108	C	0.386519	0.251166	0.651444
C109	C	0.386548	0.251132	1.035341
C110	C	0.319409	0.318295	1.097764
C111	C	0.285827	0.391564	1.089307
C112	C	0.319394	0.397669	1.018421
C113	C	0.386536	0.330507	0.956000
C114	C	1.017740	-0.300894	0.369269
C115	C	1.084900	-0.368057	0.306847
C116	C	1.118485	-0.441326	0.315304
C117	C	1.084914	-0.447431	0.386190
C118	C	1.017760	-0.380268	0.448611
C119	C	1.017756	0.003632	0.448628
C120	C	1.084916	0.001255	0.386218
C121	C	1.118498	-0.039606	0.315328
C122	C	1.084923	-0.078099	0.306848
C123	C	1.017768	-0.075725	0.369258
C124	C	1.017749	-0.300908	0.753165
C125	C	1.084891	-0.368073	0.755557
C126	C	1.118471	-0.441340	0.717074
C127	C	1.084899	-0.447441	0.676201
C128	C	1.017753	-0.380276	0.673813
H129	H	0.292009	-0.082340	0.759763
H130	H	0.413847	0.057300	1.042268
H131	H	0.990436	-0.107064	0.362342
H132	H	1.112276	-0.111367	0.249121
C133	C	0.874833	-0.114263	0.356202
H134	H	0.863053	-0.108145	0.404697
H135	H	0.908658	-0.167665	0.330479
H136	H	0.908591	-0.095832	0.330479
H137	H	1.112219	-0.363091	0.788839
C138	C	1.192364	-0.042211	0.246681
H139	H	1.207564	-0.072061	0.203244
H140	H	1.170350	0.009121	0.245907
H141	H	1.244756	-0.065311	0.248541
C142	C	0.980817	-0.220307	0.359952
H143	H	1.010445	-0.226301	0.308796
H144	H	0.917420	-0.191131	0.381327
H145	H	0.991833	-0.193779	0.383973
H146	H	0.231135	0.446309	0.685630
H147	H	1.112268	-0.507094	0.393067
H148	H	0.292004	0.061644	0.615803
C149	C	0.529423	0.659578	0.779529
H150	H	0.480445	0.713516	0.801435
H151	H	0.525983	0.636077	0.745175
H152	H	0.526021	0.636070	0.816956
C153	C	0.282462	-0.093378	1.009052
H154	H	0.312069	-0.118036	0.957892
H155	H	0.293471	-0.131325	1.033056
H156	H	0.219061	-0.056883	1.030434
H157	H	0.292042	0.457333	1.011546
C158	C	0.423436	0.337234	0.878037
H159	H	0.393808	0.390491	0.881947
H160	H	0.486834	0.311368	0.853342
H161	H	0.412409	0.314007	0.850728
C162	C	-0.019160	-0.118076	0.795496
H163	H	0.010459	-0.142761	0.820171
H164	H	-0.082557	-0.081586	0.830796
H165	H	-0.008150	-0.156015	0.761634
C166	C	0.211965	0.465436	1.157975
H167	H	0.196785	0.451299	1.201396
H168	H	0.233966	0.493976	1.158769
H169	H	0.159562	0.496601	1.156129
H170	H	1.112222	-0.363071	0.249135
H171	H	0.413834	0.191522	0.620105
H172	H	0.851365	-0.102160	-0.086228
C173	C	0.423482	0.170544	1.044654
H174	H	0.468273	0.131411	0.997331
H175	H	0.449684	0.163933	1.072501
H176	H	0.375269	0.166567	1.069873
C177	C	0.980830	-0.386994	0.526573
H178	H	1.010448	-0.440251	0.522662
H179	H	0.991826	-0.363760	0.553904
H180	H	0.917431	-0.361134	0.551245
H181	H	0.552920	0.052396	0.490834
C182	C	0.980817	-0.220321	0.795502
H183	H	0.936023	-0.181187	0.788227
H184	H	0.954618	-0.213714	0.846773
H185	H	1.029030	-0.216344	0.777615
H186	H	1.173166	-0.496008	0.264470
H187	H	0.990432	-0.385256	0.640528
C188	C	0.874846	0.290672	0.625107
H189	H	0.863068	0.340000	0.630365
H190	H	0.908634	0.262558	0.645901
H191	H	0.908640	0.262553	0.574100
H192	H	0.851361	-0.102162	0.031318
H193	H	0.112267	-0.111398	0.788812
H194	H	0.552926	0.052390	0.373287
H195	H	0.552940	0.448101	0.768996
H196	H	0.231134	-0.008262	1.140095
C197	C	0.874841	-0.114306	0.220128
H198	H	0.863066	-0.108217	0.182162
H199	H	0.908636	-0.095909	0.215638
H200	H	0.908626	-0.167703	0.215649
H201	H	1.173146	-0.496024	0.719024
H202	H	0.851340	0.502141	0.635611
C203	C	0.980826	0.048583	0.526600
H204	H	1.010453	0.071155	0.522702
H205	H	0.917430	0.088376	0.551280
H206	H	0.991834	0.013942	0.553916
H207	H	1.112250	-0.507104	0.644869
H208	H	-0.009562	0.036904	0.640527
H209	H	0.413844	-0.086669	0.764075
H210	H	0.292085	0.313311	1.155477
C211	C	0.874835	0.616783	0.625102
H212	H	0.863059	0.666110	0.630359
H213	H	0.908628	0.588667	0.645893
H214	H	0.908624	0.588665	0.574096
C215	C	1.121828	0.043607	0.395558
H216	H	1.092194	0.068292	0.446717
H217	H	1.185223	0.007125	0.374189
H218	H	1.110819	0.081546	0.371541
H219	H	0.112250	0.032598	0.644855
H220	H	0.552939	0.330546	0.768999
H221	H	0.292030	0.061579	1.155490
H222	H	0.413845	0.057322	0.620114
H223	H	0.851360	0.176026	0.635608
H224	H	0.552914	0.774217	0.769010
H225	H	0.413877	0.335466	0.764081
C226	C	0.529444	0.064545	0.184482
H227	H	0.480465	0.089913	0.177802
H228	H	0.526018	0.030425	0.211293
H229	H	0.526031	0.102217	0.211281
H230	H	0.552945	0.052365	0.047163
H231	H	0.292075	0.457326	0.759772
C232	C	0.423462	-0.098353	0.878010
H233	H	0.393855	-0.120945	0.881909
H234	H	0.412455	-0.063721	0.850690
H235	H	0.486863	-0.138143	0.853334
H236	H	0.292018	0.313405	0.615796
