data_functionalizedCrystal
_audit_creation_method	'MofGen! by Chris Wilmer'
_symmetry_space_group_name_H-M	'P1'
_symmetry_Int_Tables_number	1
_symmetry_cell_setting	triclinic
loop_
_symmetry_equiv_pos_as_xyz
  x,y,z
_cell_length_a	18.101398
_cell_length_b	19.121111
_cell_length_c	18.101389
_cell_angle_alpha	87.578568
_cell_angle_beta	89.985654
_cell_angle_gamma	87.531715
loop_
_atom_site_label
_atom_site_type_symbol
_atom_site_fract_x
_atom_site_fract_y
_atom_site_fract_z
Zn1	Zn	1.119549	0.279724	-0.431217
Zn2	Zn	1.619549	0.779724	0.068783
Zn3	Zn	1.114167	0.397160	-0.312655
Zn4	Zn	1.614167	0.897160	0.187345
Zn5	Zn	0.995708	0.279723	-0.307400
Zn6	Zn	1.495708	0.779723	0.192600
Zn7	Zn	0.990382	0.397136	-0.436464
Zn8	Zn	1.490382	0.897136	0.063536
O9	O	1.054952	0.338436	-0.371934
O10	O	1.554952	0.838436	0.128066
O11	O	1.222468	0.295313	-0.415493
O12	O	1.722468	0.795313	0.084507
O13	O	1.098430	0.381591	-0.208326
O14	O	1.598430	0.881591	0.291674
O15	O	1.016618	0.181438	-0.319429
O16	O	1.516618	0.681438	0.180571
O17	O	1.218514	0.381593	-0.328386
O18	O	1.718514	0.881593	0.171614
O19	O	1.107603	0.181439	-0.410397
O20	O	1.607603	0.681439	0.089603
O21	O	1.011399	0.295310	-0.204464
O22	O	1.511399	0.795310	0.295536
O23	O	0.891369	0.295287	-0.324517
O24	O	1.391369	0.795287	0.175483
O25	O	1.007540	0.381551	-0.539401
O26	O	1.507540	0.881551	-0.039401
O27	O	0.887456	0.381550	-0.419340
O28	O	1.387456	0.881550	0.080660
O29	O	1.102438	0.295289	-0.535546
O30	O	1.602438	0.795289	-0.035546
O31	O	1.093266	0.495442	-0.333474
O32	O	1.593266	0.995442	0.166526
O33	O	1.002321	0.495424	-0.424436
O34	O	1.502321	0.995424	0.075564
C35	C	0.862542	0.338416	-0.371928
C36	C	1.362542	0.838416	0.128072
C37	C	0.780228	0.338425	-0.371944
C38	C	1.280228	0.838425	0.128056
C39	C	0.629519	0.338438	-0.371943
C40	C	1.129519	0.838438	0.128057
C41	C	0.595724	0.392796	-0.431519
C42	C	1.095724	0.892796	0.068481
C43	C	0.510096	0.393016	-0.431359
C44	C	1.010096	0.893016	0.068641
C45	C	0.481136	0.338451	-0.371944
C46	C	0.981136	0.838451	0.128056
C47	C	0.511301	0.358190	-0.294689
C48	C	1.011301	0.858190	0.205311
C49	C	0.596929	0.358577	-0.295037
C50	C	1.096929	0.858577	0.204963
C51	C	0.601334	0.264206	-0.388934
C52	C	1.101334	0.764206	0.111066
C53	C	0.515665	0.264613	-0.390673
C54	C	1.015665	0.764613	0.109327
C55	C	0.397276	0.338457	-0.371939
C56	C	0.897276	0.838457	0.128061
C57	C	0.713378	0.338434	-0.371943
C58	C	1.213378	0.838434	0.128057
C59	C	1.046651	0.520917	-0.380111
C60	C	1.546651	1.020917	0.119889
C61	C	1.043168	0.598984	-0.383634
C62	C	1.543168	1.098984	0.116366
C63	C	1.088919	0.635646	-0.337969
C64	C	1.588919	1.135646	0.162031
C65	C	1.085647	0.708997	-0.341286
C66	C	1.585647	1.208997	0.158714
C67	C	1.036621	0.745686	-0.390266
C68	C	1.536621	1.245686	0.109734
C69	C	0.990869	0.709019	-0.435935
C70	C	1.490869	1.209019	0.064065
C71	C	0.994145	0.635669	-0.432621
C72	C	1.494145	1.135669	0.067379
C73	C	1.024363	0.967158	-0.402644
C74	C	1.524363	1.467158	0.097356
C75	C	1.021089	1.040513	-0.405953
C76	C	1.521089	1.540513	0.094047
C77	C	1.115869	1.040486	-0.311305
C78	C	1.615869	1.540486	0.188695
C79	C	1.119137	0.967134	-0.307991
C80	C	1.619137	1.467134	0.192009
C81	C	1.073388	0.930474	-0.353664
C82	C	1.573388	1.430474	0.146336
C83	C	1.033274	0.820663	-0.393656
C84	C	1.533274	1.320663	0.106344
C85	C	1.076739	0.855498	-0.350277
C86	C	1.576739	1.355498	0.149723
C87	C	1.248113	0.338456	-0.371941
C88	C	1.748113	0.838456	0.128059
C89	C	1.330426	0.338464	-0.371943
C90	C	1.830426	0.838464	0.128057
C91	C	1.063299	1.155241	-0.363751
C92	C	1.563299	1.655241	0.136249
C93	C	1.066839	1.077175	-0.360288
C94	C	1.566839	1.577175	0.139712
C95	C	1.054995	0.338418	-0.565095
C96	C	1.554995	0.838418	-0.065095
C97	C	1.055014	0.338410	-0.647409
C98	C	1.555014	0.838410	-0.147409
C99	C	1.055063	0.338279	-0.946494
C100	C	1.555063	0.838279	-0.446494
C101	C	0.995166	0.392380	-0.917587
C102	C	1.495166	0.892380	-0.417587
C103	C	0.995310	0.392631	-0.831980
C104	C	1.495310	0.892631	-0.331980
C105	C	1.055038	0.338344	-0.798115
C106	C	1.555038	0.838344	-0.298115
C107	C	1.132160	0.358437	-0.830110
C108	C	1.632160	0.858437	-0.330110
C109	C	1.131824	0.358792	-0.915771
C110	C	1.631824	0.858792	-0.415771
C111	C	1.038522	0.263964	-0.911581
C112	C	1.538522	0.763964	-0.411581
C113	C	1.036766	0.264393	-0.825950
C114	C	1.536766	0.764393	-0.325950
C115	C	1.055029	0.338380	-0.714257
C116	C	1.555029	0.838380	-0.214257
C117	C	1.055077	0.338245	-1.030352
C118	C	1.555077	0.838245	-0.530352
C119	C	1.054953	0.338403	-0.179522
C120	C	1.554953	0.838403	0.320478
C121	C	1.055087	0.338212	-0.097200
C122	C	1.555087	0.838212	0.402800
H123	H	0.614433	0.412829	-0.280295
H124	H	1.114433	0.912829	0.219705
H125	H	0.981175	1.070383	-0.445850
H126	H	1.481175	1.570383	0.054150
H127	H	1.116659	0.825624	-0.310400
H128	H	1.616659	1.325624	0.189600
H129	H	1.153116	1.070343	-0.274122
H130	H	1.653116	1.570343	0.225878
F131	F	0.483375	0.376925	-0.506356
F132	F	0.983375	0.876925	-0.006356
F133	F	0.938696	0.748068	-0.488067
F134	F	1.438696	1.248068	0.011933
H135	H	0.993356	0.850543	-0.433534
H136	H	1.493356	1.350543	0.066466
F137	F	1.171325	0.928093	-0.255869
F138	F	1.671325	1.428093	0.244131
H139	H	1.077475	0.221945	-0.802650
H140	H	1.577475	0.721945	-0.302650
H141	H	1.177842	0.320271	-0.808041
H142	H	1.677842	0.820271	-0.308041
F143	F	0.975671	0.928150	-0.451252
F144	F	1.475671	1.428150	0.048748
F145	F	0.962600	0.244589	-0.798506
F146	F	1.462600	0.744589	-0.298506
H147	H	1.146237	0.413117	-0.938194
H148	H	1.646237	0.913117	-0.438194
F149	F	0.620598	0.464285	-0.417322
F150	F	1.120598	0.964285	0.082678
F151	F	1.191869	0.309492	-0.940656
F152	F	1.691869	0.809492	-0.440656
H153	H	0.623770	0.246169	-0.444144
H154	H	1.123770	0.746169	0.055856
F155	F	0.480071	0.428327	-0.274999
F156	F	0.980071	0.928327	0.225001
F157	F	0.920424	0.376192	-0.803761
F158	F	1.420424	0.876192	-0.303761
H159	H	0.616891	0.380627	-0.489083
H160	H	1.116891	0.880627	0.010917
F161	F	0.945453	0.596651	-0.481226
F162	F	1.445453	1.096651	0.018774
H163	H	0.487101	0.448026	-0.420346
H164	H	0.987101	0.948026	0.079654
F165	F	0.626265	0.309058	-0.235246
F166	F	1.126265	0.809058	0.264754
H167	H	1.122901	0.738844	-0.304101
H168	H	1.622901	1.238844	0.195899
F169	F	0.920040	0.376110	-0.943768
F170	F	1.420040	0.876110	-0.443768
H171	H	1.082188	0.223656	-0.930037
H172	H	1.582188	0.723656	-0.430037
F173	F	1.008901	0.463932	-0.948979
F174	F	1.508901	0.963932	-0.448979
H175	H	1.146891	0.412185	-0.811081
H176	H	1.646891	0.912185	-0.311081
H177	H	1.005960	0.447715	-0.813971
H178	H	1.505960	0.947715	-0.313971
F179	F	0.486963	0.308028	-0.235265
F180	F	0.986963	0.808028	0.264735
H181	H	0.983437	0.245658	-0.932354
H182	H	1.483437	0.745658	-0.432354
H183	H	1.128838	0.605778	-0.298082
H184	H	1.628838	1.105778	0.201918
F185	F	0.490218	0.208880	-0.337793
F186	F	0.990218	0.708880	0.162207
F187	F	0.490017	0.245148	-0.464966
F188	F	0.990017	0.745148	0.035034
H189	H	0.623431	0.223710	-0.345506
H190	H	1.123431	0.723710	0.154494
