data_functionalizedCrystal
_audit_creation_method	'MofGen! by Chris Wilmer'
_symmetry_space_group_name_H-M	'P1'
_symmetry_Int_Tables_number	1
_symmetry_cell_setting	triclinic
loop_
_symmetry_equiv_pos_as_xyz
  x,y,z
_cell_length_a	6.817900
_cell_length_b	14.125369
_cell_length_c	10.943624
_cell_angle_alpha	94.575607
_cell_angle_beta	108.838799
_cell_angle_gamma	100.397648
loop_
_atom_site_label
_atom_site_type_symbol
_atom_site_fract_x
_atom_site_fract_y
_atom_site_fract_z
V1	V	-4.072444	-0.133088	-0.402044
O2	O	-4.075281	0.006421	-0.394913
O3	O	-4.008074	-0.263917	-0.398792
O4	O	-4.051072	-0.131030	-0.577618
O5	O	-4.031985	-0.127385	-0.214848
V6	V	-4.554639	-0.116403	-0.379715
O7	O	-4.336615	-0.169689	-0.451024
O8	O	-4.740665	-0.079801	-0.330734
O9	O	-4.395802	0.014426	-0.382967
O10	O	-4.669198	-0.255912	-0.386846
O11	O	-4.712494	-0.122105	-0.566910
O12	O	-4.352804	-0.118461	-0.204140
C13	C	-3.848315	-0.295810	-0.392320
C14	C	-3.877152	-0.402764	-0.390831
C15	C	-4.116399	-0.650904	-0.393609
C16	C	-3.930063	-0.598587	-0.388155
C17	C	-3.900624	-0.489621	-0.389644
C18	C	-4.145846	-0.759880	-0.392119
C19	C	-3.903163	-0.126298	-0.620429
C20	C	-3.966867	-0.125481	-0.763958
C21	C	-3.813478	-0.119976	-0.841127
C22	C	-3.976406	-0.201682	-0.946805
C23	C	-3.917472	-0.042328	-0.914026
C24	C	-4.128981	-0.207263	-0.867760
C25	C	-4.069991	-0.047837	-0.834958
C26	C	-4.233048	-0.129566	-0.940606
C27	C	-4.218902	0.046314	-0.389435
C28	C	-4.169304	0.153267	-0.390932
C29	C	-4.164054	-0.123196	-0.161323
C30	C	-4.079589	-0.124008	-0.017792
H31	H	-3.792644	-0.635632	-0.382366
O32	O	-4.116220	0.029683	-0.776594
C33	C	-4.056675	0.027293	-0.641130
H34	H	-4.051131	-0.050407	-0.621497
H35	H	-4.177592	0.053611	-0.603026
H36	H	-3.893161	0.076742	-0.589329
O37	O	-4.280572	-0.606876	-0.400553
C38	C	-4.459623	-0.676969	-0.405284
H39	H	-4.445408	-0.751983	-0.443495
H40	H	-4.609501	-0.658550	-0.473094
H41	H	-4.468748	-0.677053	-0.303092
H42	H	-3.635553	-0.116031	-0.797693
O43	O	-3.929633	-0.279192	-1.004832
C44	C	-3.709136	-0.273890	-0.953842
H45	H	-3.622567	-0.195237	-0.912104
H46	H	-3.652780	-0.300850	-1.034948
H47	H	-3.673760	-0.321297	-0.873244
O48	O	-4.234851	-0.290613	-0.843115
C49	C	-4.185638	-0.371509	-0.901570
H50	H	-4.130192	-0.350082	-0.985248
H51	H	-4.332974	-0.433253	-0.940886
H52	H	-4.053959	-0.396608	-0.825848
O53	O	-4.445363	-0.134296	-0.992008
C54	C	-4.495179	-0.053920	-0.932813
H55	H	-4.366997	-0.024894	-0.833481
H56	H	-4.655116	-0.077571	-0.919599
H57	H	-4.503708	0.005696	-0.997490
O58	O	-3.811428	0.040909	-0.938823
C59	C	-3.675035	0.098053	-0.819997
H60	H	-3.735258	0.077402	-0.737819
H61	H	-3.671590	0.178294	-0.827790
H62	H	-3.507971	0.084671	-0.798297
