data_functionalizedCrystal
_audit_creation_method	'MofGen! by Chris Wilmer'
_symmetry_space_group_name_H-M	'P1'
_symmetry_Int_Tables_number	1
_symmetry_cell_setting	triclinic
loop_
_symmetry_equiv_pos_as_xyz
  x,y,z
_cell_length_a	16.992695
_cell_length_b	16.992694
_cell_length_c	15.455313
_cell_angle_alpha	92.857794
_cell_angle_beta	87.152573
_cell_angle_gamma	90.668223
loop_
_atom_site_label
_atom_site_type_symbol
_atom_site_fract_x
_atom_site_fract_y
_atom_site_fract_z
O1	O	-0.163694	-1.054080	-0.072023
O2	O	0.169639	-0.720747	0.261311
O3	O	0.502972	-0.387414	0.594644
O4	O	-0.161862	-0.825681	-0.072048
O5	O	0.171471	-0.492348	0.261285
O6	O	0.504805	-0.159015	0.594619
O7	O	-0.048579	-0.938965	-0.072029
O8	O	0.284755	-0.605632	0.261305
O9	O	0.618088	-0.272298	0.594638
O10	O	-0.276978	-0.940797	-0.072042
O11	O	0.056355	-0.607463	0.261291
O12	O	0.389689	-0.274130	0.594625
O13	O	-0.055028	-0.932485	0.072232
O14	O	0.278305	-0.599152	0.405566
O15	O	0.611639	-0.265818	0.738899
O16	O	-0.168312	-0.819202	0.072213
O17	O	0.165022	-0.485868	0.405546
O18	O	0.498355	-0.152535	0.738880
O19	O	-0.170144	-1.047601	0.072238
O20	O	0.163189	-0.714267	0.405572
O21	O	0.496523	-0.380934	0.738905
Cu22	Cu	-0.169817	-0.932809	0.085398
Cu23	Cu	0.163517	-0.599476	0.418731
Cu24	Cu	0.496850	-0.266143	0.752065
Cu25	Cu	-0.162189	-0.940473	-0.085207
Cu26	Cu	0.171144	-0.607139	0.248126
Cu27	Cu	0.504477	-0.273806	0.581459
O28	O	-0.283428	-0.934317	0.072219
O29	O	0.049906	-0.600984	0.405552
O30	O	0.383239	-0.267650	0.738886
C31	C	-0.162731	-0.793081	0.000079
C32	C	0.170602	-0.459748	0.333413
C33	C	0.503936	-0.126415	0.666746
C34	C	-0.155702	-0.705597	0.000070
C35	C	0.177632	-0.372264	0.333403
C36	C	0.510965	-0.038931	0.666736
C37	C	-0.022443	-0.933369	0.000102
C38	C	0.310890	-0.600036	0.333435
C39	C	0.644224	-0.266703	0.666768
C40	C	0.065041	-0.926341	0.000101
C41	C	0.398375	-0.593007	0.333434
C42	C	0.731708	-0.259674	0.666767
C43	C	-0.169275	-1.080201	0.000109
C44	C	0.164058	-0.746867	0.333443
C45	C	0.497392	-0.413534	0.666776
C46	C	-0.176304	-1.167685	0.000113
C47	C	0.157029	-0.834352	0.333446
C48	C	0.490363	-0.501018	0.666780
C49	C	-0.309563	-0.939913	0.000087
C50	C	0.023770	-0.606579	0.333420
C51	C	0.357104	-0.273246	0.666754
C52	C	-0.397047	-0.946942	0.000082
C53	C	-0.063714	-0.613608	0.333416
C54	C	0.269619	-0.280275	0.666749
C55	C	0.111032	-0.994158	0.000109
C56	C	0.444365	-0.660825	0.333442
C57	C	0.777699	-0.327492	0.666776
C58	C	0.193233	-0.987550	0.000100
C59	C	0.526566	-0.654216	0.333433
C60	C	0.859900	-0.320883	0.666767
C61	C	0.229442	-0.913123	0.000089
C62	C	0.562775	-0.579789	0.333422
C63	C	0.896109	-0.246456	0.666756
C64	C	0.183445	-0.845300	0.000078
C65	C	0.516779	-0.511967	0.333411
C66	C	0.850112	-0.178633	0.666744
C67	C	0.101246	-0.851910	0.000081
C68	C	0.434579	-0.518576	0.333414
C69	C	0.767913	-0.185243	0.666747
C70	C	0.474757	-0.885729	0.000074
C71	C	0.808090	-0.552395	0.333407
C72	C	1.141424	-0.219062	0.666741
C73	C	0.556962	-0.879124	0.000074
C74	C	0.890296	-0.545791	0.333407
C75	C	1.223629	-0.212457	0.666740
C76	C	0.566744	-1.021375	0.000094
C77	C	0.900078	-0.688041	0.333428
C78	C	1.233411	-0.354708	0.666761
C79	C	0.484543	-1.027977	0.000102
C80	C	0.817876	-0.694644	0.333436
C81	C	1.151209	-0.361311	0.666769
C82	C	0.438554	-0.960155	0.000087
C83	C	0.771887	-0.626822	0.333420
C84	C	1.105220	-0.293488	0.666753
N85	N	0.313464	-0.906366	0.000082
N86	N	0.646798	-0.573032	0.333416
N87	N	0.980131	-0.239699	0.666749
N88	N	0.354533	-0.966913	0.000087
N89	N	0.687866	-0.633580	0.333420
N90	N	1.021200	-0.300246	0.666754
N91	N	-0.175181	-0.927425	0.205392
N92	N	0.158152	-0.594092	0.538726
N93	N	0.491485	-0.260759	0.872059
C94	C	-0.223520	-0.659607	0.000066
C95	C	0.109814	-0.326273	0.333400
C96	C	0.443147	0.007060	0.666733
C97	C	-0.216911	-0.577405	0.000079
C98	C	0.116422	-0.244072	0.333412
C99	C	0.449755	0.089261	0.666745
C100	C	-0.142484	-0.541197	0.000088
C101	C	0.190849	-0.207863	0.333421
C102	C	0.524183	0.125470	0.666755
C103	C	-0.074661	-0.587193	0.000094
C104	C	0.258672	-0.253860	0.333427
C105	C	0.592005	0.079473	0.666761
C106	C	-0.081271	-0.669393	0.000088
C107	C	0.252063	-0.336059	0.333421
C108	C	0.585396	-0.002726	0.666755
C109	C	-0.115091	-0.295881	0.000113
C110	C	0.218243	0.037452	0.333446
C111	C	0.551576	0.370786	0.666780
C112	C	-0.108486	-0.213676	0.000116
C113	C	0.224847	0.119658	0.333450
C114	C	0.558181	0.452991	0.666783
C115	C	-0.250737	-0.203893	0.000103
C116	C	0.082596	0.129440	0.333436
C117	C	0.415930	0.462773	0.666769
C118	C	-0.257340	-0.286095	0.000091
C119	C	0.075994	0.047238	0.333425
C120	C	0.409327	0.380572	0.666758
C121	C	-0.189517	-0.332084	0.000102
C122	C	0.143816	0.001249	0.333435
C123	C	0.477150	0.334582	0.666768
N124	N	-0.135727	-0.457174	0.000098
N125	N	0.197606	-0.123841	0.333431
N126	N	0.530939	0.209493	0.666765
N127	N	-0.196275	-0.416105	0.000098
N128	N	0.137059	-0.082772	0.333431
N129	N	0.470392	0.250562	0.666765
N130	N	-0.156819	-0.945863	-0.205202
N131	N	0.176514	-0.612529	0.128131
N132	N	0.509848	-0.279196	0.461465
C133	C	-0.127074	-0.975571	0.250795
C134	C	0.206259	-0.642238	0.584128
C135	C	0.539592	-0.308904	0.917462
C136	C	-0.131139	-0.971507	0.341602
C137	C	0.202194	-0.638174	0.674935
C138	C	0.535527	-0.304840	1.008269
C139	C	-0.183315	-0.919301	0.387005
C140	C	0.150018	-0.585967	0.720339
C141	C	0.483351	-0.252634	1.053672
C142	C	-0.231424	-0.871149	0.341596
C143	C	0.101909	-0.537816	0.674930
C144	C	0.435243	-0.204483	1.008263
C145	C	-0.227355	-0.875210	0.250791
C146	C	0.105979	-0.541877	0.584124
C147	C	0.439312	-0.208543	0.917458
C148	C	-0.200858	-0.901772	0.658584
C149	C	0.132475	-0.568439	0.991917
C150	C	0.465808	-0.235105	1.325250
C151	C	-0.204926	-0.897717	0.749395
C152	C	0.128408	-0.564383	1.082729
C153	C	0.461741	-0.231050	1.416062
C154	C	-0.104639	-0.998074	0.749395
C155	C	0.228694	-0.664740	1.082728
C156	C	0.562027	-0.331407	1.416062
C157	C	-0.100578	-1.002133	0.658588
C158	C	0.232755	-0.668800	0.991921
C159	C	0.566089	-0.335466	1.325254
C160	C	-0.148684	-0.953979	0.613187
C161	C	0.184649	-0.620646	0.946520
C162	C	0.517983	-0.287312	1.279853
N163	N	-0.187473	-0.915147	0.479825
N164	N	0.145860	-0.581814	0.813158
N165	N	0.479194	-0.248480	1.146491
N166	N	-0.144522	-0.958129	0.520369
N167	N	0.188812	-0.624796	0.853702
N168	N	0.522145	-0.291463	1.187036
H169	H	0.081557	-1.054764	0.000124
H170	H	0.414890	-0.721431	0.333457
H171	H	0.748224	-0.388098	0.666790
F172	F	-0.336555	-0.324625	0.000077
F173	F	-0.003222	0.008708	0.333410
F174	F	0.330112	0.342042	0.666743
F175	F	0.446014	-1.107194	0.000092
F176	F	0.779347	-0.773860	0.333426
F177	F	1.112681	-0.440527	0.666759
H178	H	-0.305954	-0.166440	0.000096
H179	H	0.027379	0.166893	0.333429
H180	H	0.360713	0.500227	0.666763
H181	H	0.604197	-1.076591	0.000106
H182	H	0.937531	-0.743258	0.333439
H183	H	1.270864	-0.409925	0.666772
H184	H	0.586440	-0.818513	0.000079
H185	H	0.919773	-0.485180	0.333412
H186	H	1.253106	-0.151846	0.666745
F187	F	-0.029268	-0.175141	0.000142
F188	F	0.304066	0.158192	0.333475
F189	F	0.637399	0.491526	0.666808
H190	H	0.212933	-0.784700	0.000063
H191	H	0.546267	-0.451367	0.333396
H192	H	0.879600	-0.118033	0.666730
F193	F	0.242176	-1.059731	0.000111
F194	F	0.575510	-0.726398	0.333444
F195	F	0.908843	-0.393064	0.666777
F196	F	-0.260464	-0.842149	0.797711
F197	F	0.072870	-0.508815	1.131045
F198	F	0.406203	-0.175482	1.464378
H199	H	-0.240030	-0.862564	0.621625
H200	H	0.093304	-0.529231	0.954959
H201	H	0.426637	-0.195898	1.288292
H202	H	0.437322	-0.830503	0.000061
H203	H	0.770656	-0.497169	0.333395
H204	H	1.103989	-0.163836	0.666728
F205	F	0.052300	-0.779729	0.000069
F206	F	0.385633	-0.446395	0.333402
F207	F	0.718967	-0.113062	0.666736
F208	F	-0.286951	-0.815582	0.389918
F209	F	0.046383	-0.482249	0.723252
F210	F	0.379716	-0.148916	1.056585
H211	H	-0.284126	-0.689081	0.000058
H212	H	0.049207	-0.355748	0.333391
H213	H	0.382541	-0.022415	0.666725
F214	F	-0.042907	-0.344816	0.000124
F215	F	0.290427	-0.011483	0.333457
F216	F	0.623760	0.321851	0.666791
H217	H	-0.272136	-0.539963	0.000075
H218	H	0.061197	-0.206630	0.333408
H219	H	0.394531	0.126704	0.666742
F220	F	0.004550	-0.548655	0.000110
F221	F	0.337883	-0.215322	0.333443
F222	F	0.671217	0.118012	0.666776
F223	F	-0.009090	-0.718339	0.000095
F224	F	0.324244	-0.385006	0.333428
F225	F	0.657577	-0.051673	0.666761
H226	H	-0.091966	-1.010711	0.378568
H227	H	0.241367	-0.677377	0.711902
H228	H	0.574700	-0.344044	1.045235
H229	H	-0.084591	-1.018087	0.213834
H230	H	0.248743	-0.684753	0.547167
H231	H	0.582076	-0.351420	0.880500
F232	F	-0.045048	-1.057697	0.610267
F233	F	0.288286	-0.724364	0.943601
F234	F	0.621619	-0.391031	1.276934
F235	F	-0.053443	-1.049317	0.797719
F236	F	0.279890	-0.715984	1.131052
F237	F	0.613223	-0.382651	1.464386
H238	H	-0.266527	-0.836004	0.213825
H239	H	0.066806	-0.502670	0.547158
H240	H	0.400139	-0.169337	0.880492
