data_functionalizedCrystal
_audit_creation_method	'MofGen! by Chris Wilmer'
_symmetry_space_group_name_H-M	'P1'
_symmetry_Int_Tables_number	1
_symmetry_cell_setting	triclinic
loop_
_symmetry_equiv_pos_as_xyz
  x,y,z
_cell_length_a	6.817900
_cell_length_b	12.840946
_cell_length_c	17.078472
_cell_angle_alpha	81.678392
_cell_angle_beta	79.875873
_cell_angle_gamma	88.344365
loop_
_atom_site_label
_atom_site_type_symbol
_atom_site_fract_x
_atom_site_fract_y
_atom_site_fract_z
V1	V	-3.878761	0.281212	0.111647
O2	O	-3.888919	0.320377	-0.003430
O3	O	-3.812220	0.236473	0.219516
O4	O	-3.774512	0.423392	0.110779
O5	O	-3.926889	0.132164	0.106060
V6	V	-4.371976	0.268586	0.097782
O7	O	-4.118759	0.308908	0.142061
O8	O	-4.582176	0.240890	0.067369
O9	O	-4.215310	0.313325	-0.010087
O10	O	-4.479214	0.229421	0.212859
O11	O	-4.441245	0.417634	0.103369
O12	O	-4.253018	0.126406	0.098650
C13	C	-3.654615	0.220989	0.245786
C14	C	-3.681125	0.185357	0.333976
C15	C	-3.872934	0.172229	0.379466
C16	C	-3.897871	0.138764	0.462332
C17	C	-3.730996	0.118421	0.499706
C18	C	-3.539172	0.131553	0.454210
C19	C	-3.514237	0.165025	0.371346
C20	C	-3.606527	0.459423	0.107077
C21	C	-3.602379	0.577554	0.107079
C22	C	-4.067368	-0.027765	0.102383
C23	C	-4.084372	0.090370	0.102366
V24	V	-3.861728	0.767371	0.111670
O25	O	-3.899249	0.920776	0.106093
O26	O	-3.767615	0.620532	0.110792
O27	O	-3.793650	0.766260	0.219539
O28	O	-3.873033	0.774039	-0.003407
V29	V	-4.352998	0.810278	0.097812
O30	O	-4.103661	0.739857	0.142084
O31	O	-4.560469	0.860476	0.067403
O32	O	-4.224298	0.945870	0.098687
O33	O	-4.432667	0.662788	0.103390
O34	O	-4.458883	0.809525	0.212891
O35	O	-4.198263	0.800142	-0.010060
C36	C	-4.036258	0.328805	-0.036352
C37	C	-3.988983	0.364443	-0.124541
C38	C	-3.635597	0.763443	0.245804
C39	C	-3.660773	0.765676	0.333993
C40	C	-4.020251	0.785994	-0.036332
C41	C	-3.974350	0.782725	-0.124524
C42	C	-3.851932	0.770564	0.379499
C43	C	-3.875576	0.772668	0.462361
C44	C	-3.708059	0.769877	0.499718
C45	C	-3.516884	0.764992	0.454207
C46	C	-3.493243	0.762895	0.371345
C47	C	-3.759534	0.775743	0.747102
C48	C	-3.783192	0.777837	0.829971
C49	C	-4.141882	0.785515	0.838119
C50	C	-4.118224	0.783411	0.755256
C51	C	-3.927052	0.778532	0.709751
N52	N	-3.732222	0.772024	0.584418
N53	N	-3.902891	0.776392	0.625052
C54	C	-4.142161	0.377574	-0.170031
C55	C	-4.097766	0.411043	-0.252897
C56	C	-3.900193	0.431389	-0.290270
C57	C	-3.747004	0.418254	-0.244775
C58	C	-3.791399	0.384777	-0.161912
H59	H	-3.403312	0.114985	0.484652
H60	H	-4.031234	0.776650	0.499408
H61	H	-4.222524	0.421735	-0.289928
H62	H	-4.008834	0.188782	0.349047
C63	C	-3.549249	0.770357	0.697060
C64	C	-3.397885	0.858275	0.693783
C65	C	-3.187587	0.852884	0.643739
C66	C	-3.128652	0.759574	0.596972
C67	C	-3.280020	0.671649	0.600248
C68	C	-3.490318	0.677040	0.650292
H69	H	-3.441509	0.927355	0.728404
H70	H	-3.075535	0.917972	0.641314
H71	H	-2.972977	0.755583	0.559927
H72	H	-3.236396	0.602569	0.565627
H73	H	-3.602370	0.611952	0.652717
H74	H	-3.358042	0.175705	0.334313
C75	C	-3.529687	0.440657	-0.285894
C76	C	-3.410098	0.525579	-0.259836
C77	C	-3.192785	0.547997	-0.300959
C78	C	-3.095061	0.485493	-0.368139
C79	C	-3.214651	0.400565	-0.394201
C80	C	-3.431964	0.378148	-0.353078
H81	H	-3.482439	0.571853	-0.210102
H82	H	-3.104258	0.610866	-0.281666
H83	H	-2.934193	0.502088	-0.398580
H84	H	-3.142310	0.354291	-0.443935
H85	H	-3.520491	0.315278	-0.372371
H86	H	-4.054077	0.128074	0.499364
H87	H	-3.751327	0.091166	0.567180
H88	H	-3.646767	0.775580	0.860382
H89	H	-3.988348	0.772828	0.349090
H90	H	-4.254638	0.785689	0.724845
H91	H	-4.297528	0.789488	0.875178
H92	H	-3.380490	0.762726	0.484629
H93	H	-3.337582	0.758921	0.334294
H94	H	-4.303047	0.361013	-0.139613
H95	H	-3.864071	0.458647	-0.357744
H96	H	-3.666655	0.374098	-0.124878
