data_functionalizedCrystal
_audit_creation_method	'MofGen! by Chris Wilmer'
_symmetry_space_group_name_H-M	'P1'
_symmetry_Int_Tables_number	1
_symmetry_cell_setting	triclinic
loop_
_symmetry_equiv_pos_as_xyz
  x,y,z
_cell_length_a	13.262522
_cell_length_b	11.804365
_cell_length_c	14.971486
_cell_angle_alpha	78.155071
_cell_angle_beta	84.038774
_cell_angle_gamma	117.340743
loop_
_atom_site_label
_atom_site_type_symbol
_atom_site_fract_x
_atom_site_fract_y
_atom_site_fract_z
O1	O	1.519256	0.591048	0.013144
O2	O	1.190945	0.484725	0.045553
O3	O	1.363898	0.540727	-0.101344
O4	O	1.346303	0.535046	0.160042
O5	O	1.318366	0.327928	-0.062708
O6	O	1.145413	0.271926	0.084189
O7	O	1.473724	0.378249	0.051780
Cu8	Cu	1.305411	0.305657	0.071512
Cu9	Cu	1.359258	0.557317	0.025821
O10	O	1.300771	0.322247	0.198677
C11	C	1.126163	0.364718	0.066608
C12	C	1.000970	0.324174	0.071772
C13	C	0.917340	0.189123	0.095262
C14	C	0.799714	0.151020	0.100107
C15	C	0.765705	0.247964	0.081471
C16	C	0.849334	0.383018	0.057988
C17	C	0.966973	0.421125	0.053134
C18	C	0.815338	0.479967	0.039344
C19	C	0.898967	0.615021	0.015860
C20	C	1.016594	0.653121	0.011009
C21	C	1.050603	0.556177	0.029645
C22	C	0.697699	0.441860	0.044197
C23	C	0.747332	0.673862	0.002069
C24	C	0.864958	0.711965	-0.002776
N25	N	1.267546	0.128656	0.103648
C26	C	1.488059	-0.173891	-0.083510
C27	C	1.516702	-0.039955	-0.107825
C28	C	1.454415	0.002205	-0.054959
C29	C	1.363481	-0.089586	0.022226
C30	C	1.334841	-0.223533	0.046548
C31	C	1.301197	-0.047438	0.075099
C32	C	1.210263	-0.139228	0.152284
C33	C	1.181627	-0.273162	0.176601
C34	C	1.243913	-0.315322	0.123735
C35	C	1.329837	0.086510	0.050778
C36	C	1.176619	0.036868	0.180836
C37	C	1.147976	-0.097069	0.205150
C38	C	1.538507	0.498258	0.030725
C39	C	1.663702	0.538811	0.025559
C40	C	1.340345	0.434073	-0.115307
C41	C	1.337987	0.433310	-0.214472
N42	N	1.397132	0.734321	-0.006323
C43	C	1.439593	0.466215	-0.277407
C44	C	1.437373	0.465508	-0.370583
C45	C	1.333543	0.431887	-0.400822
C46	C	1.231930	0.398984	-0.337880
C47	C	1.234153	0.399700	-0.244706
C48	C	1.227303	0.397490	-0.532083
C49	C	1.225078	0.396770	-0.625262
C50	C	1.430522	0.463297	-0.657960
C51	C	1.432746	0.464013	-0.564787
C52	C	1.331131	0.431108	-0.501851
C53	C	1.324324	0.428904	0.212640
C54	C	1.326685	0.429675	0.311803
H55	H	1.146381	0.587194	0.025704
H56	H	1.073935	-0.171821	0.267996
H57	H	1.147392	0.371617	-0.362508
H58	H	1.220589	-0.424384	0.143529
H59	H	1.125901	0.071192	0.223886
Br60	Br	1.640109	0.084616	-0.212567
Br61	Br	1.453245	0.211066	-0.053968
Br62	Br	1.089397	0.352836	-0.446671
Br63	Br	0.606065	0.196251	0.088055
Br64	Br	1.096256	0.355053	-0.159294
H65	H	1.524142	0.493585	-0.252794
H66	H	1.477741	0.111263	-0.074759
Br67	Br	0.701187	0.805438	-0.023219
Br68	Br	0.686224	-0.032259	0.131989
Br69	Br	1.084164	0.351136	-0.666299
Br70	Br	1.058233	-0.397733	0.281363
H71	H	1.538771	-0.208226	-0.126542
H72	H	0.933065	0.821928	-0.021897
Br73	Br	0.963503	0.057573	0.120542
H74	H	1.084686	0.763092	-0.008126
H75	H	1.520111	0.492299	-0.421822
H76	H	1.513261	0.490094	-0.709208
Br77	Br	1.573659	0.509645	-0.523750
H78	H	0.629617	0.331897	0.063325
