data_functionalizedCrystal
_audit_creation_method	'MofGen! by Chris Wilmer'
_symmetry_space_group_name_H-M	'P1'
_symmetry_Int_Tables_number	1
_symmetry_cell_setting	triclinic
loop_
_symmetry_equiv_pos_as_xyz
  x,y,z
_cell_length_a	16.992694
_cell_length_b	19.288865
_cell_length_c	17.766277
_cell_angle_alpha	90.011603
_cell_angle_beta	90.003596
_cell_angle_gamma	86.902236
loop_
_atom_site_label
_atom_site_type_symbol
_atom_site_fract_x
_atom_site_fract_y
_atom_site_fract_z
O1	O	-1.039877	-0.147253	-0.062515
O2	O	-0.539877	0.352747	0.437485
O3	O	-0.811597	-0.145638	-0.062537
O4	O	-0.311597	0.354362	0.437463
O5	O	-0.932333	-0.045700	-0.062510
O6	O	-0.432333	0.454300	0.437490
O7	O	-0.919141	-0.247191	-0.062541
O8	O	-0.419141	0.252809	0.437459
O9	O	-0.932312	-0.045693	0.062678
O10	O	-0.432312	0.454307	0.562678
O11	O	-0.811576	-0.145631	0.062652
O12	O	-0.311576	0.354369	0.562652
O13	O	-1.039855	-0.147247	0.062674
O14	O	-0.539855	0.352753	0.562674
Cu15	Cu	-0.925714	-0.146438	0.074094
Cu16	Cu	-0.425714	0.353562	0.574094
Cu17	Cu	-0.925739	-0.146446	-0.073956
Cu18	Cu	-0.425739	0.353554	0.426044
O19	O	-0.919119	-0.247185	0.062647
O20	O	-0.419119	0.252815	0.562647
C21	C	-0.931898	-0.019795	0.000086
C22	C	-0.431898	0.480205	0.500086
C23	C	-0.930624	0.057383	0.000093
C24	C	-0.430624	0.557383	0.500093
C25	C	-0.782381	-0.143556	0.000055
C26	C	-0.282381	0.356444	0.500055
C27	C	-0.695359	-0.137355	0.000047
C28	C	-0.195359	0.362645	0.500047
C29	C	-1.069071	-0.149328	0.000080
C30	C	-0.569071	0.350672	0.500080
C31	C	-1.156093	-0.155529	0.000083
C32	C	-0.656093	0.344471	0.500083
C33	C	-0.644907	-0.197184	0.000039
C34	C	-0.144907	0.302816	0.500039
C35	C	-0.563141	-0.191353	0.000050
C36	C	-0.063141	0.308647	0.500050
C37	C	-0.531829	-0.125694	0.000064
C38	C	-0.031829	0.374306	0.500064
C39	C	-0.582287	-0.065862	0.000075
C40	C	-0.082287	0.434138	0.500075
C41	C	-0.664051	-0.071693	0.000069
C42	C	-0.164051	0.428307	0.500069
C43	C	-0.288316	-0.101527	0.000088
C44	C	0.211684	0.398473	0.500088
C45	C	-0.206545	-0.095701	0.000092
C46	C	0.293455	0.404299	0.500092
C47	C	-0.187405	-0.221193	0.000068
C48	C	0.312595	0.278807	0.500068
C49	C	-0.269172	-0.227018	0.000057
C50	C	0.230828	0.272982	0.500057
C51	C	-0.319623	-0.167186	0.000072
C52	C	0.180377	0.332814	0.500072
N53	N	-0.448251	-0.119733	0.000074
N54	N	0.051749	0.380267	0.500074
N55	N	-0.403199	-0.173147	0.000069
N56	N	0.096801	0.326853	0.500069
C57	C	-0.919555	-0.273089	0.000049
C58	C	-0.419555	0.226911	0.500049
C59	C	-0.920829	-0.350267	0.000038
C60	C	-0.420829	0.149733	0.500038
N61	N	-0.925702	-0.146433	0.178224
N62	N	-0.425702	0.353567	0.678224
C63	C	-1.001466	0.097950	0.000103
C64	C	-0.501466	0.597950	0.500103
C65	C	-1.000269	0.170467	0.000091
C66	C	-0.500269	0.670467	0.500091
C67	C	-0.928225	0.202413	0.000084
C68	C	-0.428225	0.702413	0.500084
C69	C	-0.857374	0.161837	0.000069
C70	C	-0.357374	0.661837	0.500069
C71	C	-0.858573	0.089321	0.000074
C72	C	-0.358573	0.589321	0.500074
C73	C	-0.871583	0.314004	0.043929
C74	C	-0.371583	0.814004	0.543929
C75	C	-0.870387	0.386518	0.043929
C76	C	-0.370387	0.886518	0.543929
C77	C	-0.924524	0.426075	0.000067
C78	C	-0.424524	0.926075	0.500067
C79	C	-0.979870	0.393109	-0.043787
C80	C	-0.479870	0.893109	0.456213
C81	C	-0.981069	0.320594	-0.043782
C82	C	-0.481069	0.820594	0.456218
C83	C	-0.926917	0.281044	0.000079
C84	C	-0.426917	0.781044	0.500079
C85	C	-0.994073	0.545274	0.000063
C86	C	-0.494073	1.045274	0.500063
C87	C	-0.992873	0.617792	0.000046
C88	C	-0.492873	1.117792	0.500046
C89	C	-0.849976	0.609160	0.000032
C90	C	-0.349976	1.109160	0.500032
C91	C	-0.851178	0.536643	0.000041
C92	C	-0.351178	1.036643	0.500041
C93	C	-0.923229	0.504705	0.000060
C94	C	-0.423229	1.004705	0.500060
N95	N	-0.925757	-0.146447	-0.178087
N96	N	-0.425757	0.353553	0.321913
C97	C	-0.979181	-0.102204	0.217622
C98	C	-0.479181	0.397796	0.717622
C99	C	-0.979185	-0.102201	0.296424
C100	C	-0.479185	0.397799	0.796424
C101	C	-0.925718	-0.146439	0.335824
C102	C	-0.425718	0.353561	0.835824
C103	C	-0.872229	-0.190671	0.296416
C104	C	-0.372229	0.309329	0.796416
C105	C	-0.872221	-0.190667	0.217616
C106	C	-0.372221	0.309333	0.717616
C107	C	-0.915223	-0.209115	0.460652
C108	C	-0.415223	0.290885	0.960652
C109	C	-0.915237	-0.209120	0.539451
C110	C	-0.415237	0.290880	1.039451
C111	C	-0.925739	-0.146449	0.578871
C112	C	-0.425739	0.353551	1.078871
C113	C	-0.936244	-0.083771	0.539482
C114	C	-0.436244	0.416229	1.039482
C115	C	-0.936236	-0.083768	0.460682
C116	C	-0.436236	0.416232	0.960682
C117	C	-0.925721	-0.146447	0.421270
C118	C	-0.425721	0.353553	0.921270
C119	C	-0.979226	-0.102213	0.703715
C120	C	-0.479226	0.397787	1.203715
C121	C	-0.979225	-0.102209	0.782519
C122	C	-0.479225	0.397791	1.282519
C123	C	-0.872273	-0.190685	0.782509
C124	C	-0.372273	0.309315	1.282509
C125	C	-0.872270	-0.190683	0.703707
C126	C	-0.372270	0.309317	1.203707
C127	C	-0.925751	-0.146448	0.664315
C128	C	-0.425751	0.353552	1.164315
H129	H	-0.670395	-0.250650	0.000026
H130	H	-0.170395	0.249350	0.500026
H131	H	-0.522066	-0.240072	0.000042
H132	H	-0.022066	0.259928	0.500042
H133	H	-0.800883	0.056291	0.000065
H134	H	-0.300883	0.556291	0.500065
C135	C	-0.778126	0.196971	0.000058
C136	C	-0.278126	0.696971	0.500058
H137	H	-0.736105	0.162421	0.000046
H138	H	-0.236105	0.662421	0.500046
H139	H	-0.774676	0.225090	0.043711
H140	H	-0.274676	0.725090	0.543711
H141	H	-0.774701	0.225069	-0.043606
H142	H	-0.274701	0.725069	0.456394
H143	H	-1.022726	-0.066184	0.185552
H144	H	-0.522726	0.433816	0.685552
C145	C	-0.303610	-0.299243	0.000052
C146	C	0.196390	0.200757	0.500052
H147	H	-0.261852	-0.334041	0.000057
H148	H	0.238148	0.165959	0.500057
H149	H	-0.335112	-0.304132	-0.043604
H150	H	0.164888	0.195868	0.456396
H151	H	-0.335106	-0.304119	0.043714
H152	H	0.164894	0.195881	0.543714
C153	C	-0.903688	-0.278061	0.582771
C154	C	-0.403688	0.221939	1.082771
H155	H	-0.897419	-0.315383	0.548010
H156	H	-0.397419	0.184617	1.048010
H157	H	-0.948469	-0.284427	0.613500
H158	H	-0.448469	0.215573	1.113500
H159	H	-0.858037	-0.276907	0.613521
H160	H	-0.358037	0.223093	1.113521
H161	H	-0.906658	-0.260152	0.428563
H162	H	-0.406658	0.239848	0.928563
C163	C	-0.131909	-0.287003	0.000061
C164	C	0.368091	0.212997	0.500061
H165	H	-0.078728	-0.274129	0.000073
H166	H	0.421272	0.225871	0.500073
H167	H	-0.141375	-0.313744	-0.043598
H168	H	0.358625	0.186256	0.456402
H169	H	-0.141379	-0.313733	0.043719
H170	H	0.358621	0.186267	0.543719
C171	C	-1.038016	-0.053549	0.339772
C172	C	-0.538016	0.446451	0.839772
H173	H	-1.069868	-0.027207	0.305025
H174	H	-0.569868	0.472793	0.805025
H175	H	-1.009927	-0.023062	0.370527
H176	H	-0.509927	0.476938	0.870527
H177	H	-1.070560	-0.080370	0.370497
H178	H	-0.570560	0.419630	0.870497
C179	C	-0.172103	-0.023472	0.000109
C180	C	0.327897	0.476528	0.500109
H181	H	-0.213860	0.011327	0.000123
H182	H	0.286140	0.511327	0.500123
H183	H	-0.140607	-0.018591	-0.043545
H184	H	0.359393	0.481409	0.456455
H185	H	-0.140602	-0.018592	0.043772
H186	H	0.359398	0.481408	0.543772
H187	H	-0.329384	-0.052807	0.000101
H188	H	0.170616	0.447193	0.500101
H189	H	-1.026132	0.293756	-0.079490
H190	H	-0.526132	0.793756	0.420510
C191	C	-0.770729	0.644292	0.000021
C192	C	-0.270729	1.144292	0.500021
H193	H	-0.780160	0.693290	0.000023
H194	H	-0.280160	1.193290	0.500023
H195	H	-0.741577	0.630623	-0.043637
H196	H	-0.241577	1.130623	0.456363
H197	H	-0.741563	0.630646	0.043681
H198	H	-0.241563	1.130646	0.543681
H199	H	-0.556786	-0.012400	0.000098
H200	H	-0.056786	0.487600	0.500098
H201	H	-0.705129	-0.022974	0.000076
H202	H	-0.205129	0.477026	0.500076
H203	H	-1.060135	0.071951	0.000116
H204	H	-0.560135	0.571951	0.500116
H205	H	-1.057959	0.203504	0.000097
H206	H	-0.557959	0.703504	0.500097
C207	C	-1.039420	0.436611	-0.092043
C208	C	-0.539420	0.936611	0.407957
H209	H	-1.030774	0.484520	-0.085775
H210	H	-0.530774	0.984520	0.414225
H211	H	-1.091482	0.427867	-0.076620
H212	H	-0.591482	0.927867	0.423380
H213	H	-1.032727	0.424293	-0.143511
H214	H	-0.532727	0.924293	0.356489
H215	H	-1.052741	0.519268	0.000075
H216	H	-0.552741	1.019268	0.500075
C217	C	-1.070804	0.662417	0.000059
C218	C	-0.570804	1.162417	0.500059
H219	H	-1.113883	0.633006	0.000079
H220	H	-0.613883	1.133006	0.500079
H221	H	-1.073321	0.690874	-0.043598
H222	H	-0.573321	1.190874	0.456402
H223	H	-1.073291	0.690894	0.043719
H224	H	-0.573291	1.190894	0.543719
C225	C	-0.773250	0.492017	0.000042
C226	C	-0.273250	0.992017	0.500042
H227	H	-0.730171	0.521427	0.000042
H228	H	-0.230171	1.021427	0.500042
H229	H	-0.770752	0.463537	-0.043611
H230	H	-0.270752	0.963537	0.456389
H231	H	-0.770744	0.463562	0.043707
H232	H	-0.270744	0.963562	0.543707
C233	C	-0.809510	0.422777	0.092161
C234	C	-0.309510	0.922777	0.592161
H235	H	-0.816553	0.471630	0.085884
H236	H	-0.316553	0.971630	0.585884
H237	H	-0.757845	0.407757	0.076729
H238	H	-0.257845	0.907757	0.576729
H239	H	-0.816583	0.411320	0.143633
H240	H	-0.316583	0.911320	0.643633
H241	H	-0.944788	-0.032734	0.428615
H242	H	-0.444788	0.467266	0.928615
C243	C	-0.812032	0.270495	0.092182
C244	C	-0.312032	0.770495	0.592182
H245	H	-0.820668	0.222587	0.085900
H246	H	-0.320668	0.722587	0.585900
H247	H	-0.818719	0.282808	0.143648
H248	H	-0.318719	0.782808	0.643648
H249	H	-0.759968	0.279242	0.076753
H250	H	-0.259968	0.779242	0.576753
C251	C	-0.947791	-0.014829	0.582833
C252	C	-0.447791	0.485171	1.082833
H253	H	-0.946281	-0.023804	0.635404
H254	H	-0.446281	0.476196	1.135404
H255	H	-0.997318	0.007168	0.569921
H256	H	-0.497318	0.507168	1.069921
H257	H	-0.906883	0.014676	0.569928
H258	H	-0.406883	0.514676	1.069928
H259	H	-1.022771	-0.066192	0.671641
H260	H	-0.522771	0.433808	1.171641
C261	C	-1.038057	-0.053556	0.825857
C262	C	-0.538057	0.446444	1.325857
H263	H	-1.069910	-0.027219	0.791108
H264	H	-0.569910	0.472781	1.291108
H265	H	-1.009971	-0.023065	0.856610
H266	H	-0.509971	0.476935	1.356610
H267	H	-1.070599	-0.080376	0.856585
H268	H	-0.570599	0.419624	1.356585
H269	H	-0.828736	-0.226701	0.814588
H270	H	-0.328736	0.273299	1.314588
H271	H	-0.828725	-0.226701	0.671627
H272	H	-0.328725	0.273299	1.171627
H273	H	-0.828694	-0.226689	0.328500
H274	H	-0.328694	0.273311	0.828500
H275	H	-0.828671	-0.226684	0.185537
H276	H	-0.328671	0.273316	0.685537
