data_functionalizedCrystal
_audit_creation_method	'MofGen! by Chris Wilmer'
_symmetry_space_group_name_H-M	'P1'
_symmetry_Int_Tables_number	1
_symmetry_cell_setting	triclinic
loop_
_symmetry_equiv_pos_as_xyz
  x,y,z
_cell_length_a	17.699097
_cell_length_b	17.699083
_cell_length_c	16.176319
_cell_angle_alpha	89.992304
_cell_angle_beta	90.011695
_cell_angle_gamma	96.714293
loop_
_atom_site_label
_atom_site_type_symbol
_atom_site_fract_x
_atom_site_fract_y
_atom_site_fract_z
O1	O	-1.004072	0.095761	-0.068830
O2	O	-0.783695	0.108203	-0.068814
O3	O	-0.900110	-0.008207	-0.068815
O4	O	-0.887658	0.212171	-0.068829
O5	O	-0.900094	-0.008215	0.068678
O6	O	-0.783679	0.108195	0.068679
O7	O	-1.004057	0.095753	0.068663
Cu8	Cu	-0.893867	0.101974	0.081226
Cu9	Cu	-0.893885	0.101982	-0.081376
O10	O	-0.887642	0.212163	0.068664
C11	C	-0.755491	0.107751	-0.000065
C12	C	-0.671473	0.106409	-0.000059
C13	C	-0.155764	0.098184	-0.075032
C14	C	-0.234708	0.099440	-0.075029
C15	C	-0.274165	0.100065	-0.000079
C16	C	-0.234675	0.099427	0.074873
C17	C	-0.155733	0.098165	0.074869
C18	C	-0.553039	0.104514	0.074890
C19	C	-0.631986	0.105778	0.074889
C20	C	-0.632014	0.105789	-0.075008
C21	C	-0.553072	0.104527	-0.075012
C22	C	-0.513589	0.103885	-0.000060
C23	C	-0.427989	0.102521	-0.000065
C24	C	-0.359763	0.101434	-0.000074
C25	C	-0.899656	-0.036408	-0.000068
C26	C	-0.898317	-0.120426	-0.000068
C27	C	-0.966650	-0.169044	-0.000072
C28	C	-0.965388	-0.247987	-0.000079
C29	C	-0.895792	-0.278311	-0.000076
C30	C	-0.827454	-0.229687	-0.000075
C31	C	-0.828717	-0.150746	-0.000074
C32	C	-0.822359	-0.548051	-0.000081
C33	C	-0.821101	-0.626999	-0.000080
C34	C	-0.959030	-0.645292	-0.000087
C35	C	-0.960293	-0.566350	-0.000085
C36	C	-0.891955	-0.517734	-0.000088
C37	C	-0.893325	-0.432134	-0.000082
C38	C	-0.894422	-0.363909	-0.000077
C39	C	-0.032261	0.096205	-0.000084
C40	C	-0.116279	0.097547	-0.000086
C41	C	-0.888096	0.240364	-0.000084
C42	C	-0.889435	0.324382	-0.000090
N43	N	-0.893859	0.101967	0.195591
N44	N	-0.893899	0.101983	-0.195741
C45	C	-0.945423	0.050442	0.238854
C46	C	-0.945427	0.050441	0.325402
C47	C	-0.893869	0.101970	0.368683
C48	C	-0.842300	0.153497	0.325414
C49	C	-0.842293	0.153494	0.238868
C50	C	-0.842326	0.153512	0.674442
C51	C	-0.842338	0.153512	0.760993
C52	C	-0.945459	0.050458	0.760975
C53	C	-0.945452	0.050455	0.674430
C54	C	-0.893881	0.101980	0.631168
C55	C	-0.893876	0.101979	0.537323
C56	C	-0.893877	0.101974	0.462526
H57	H	-0.123642	0.097680	-0.136066
H58	H	-0.664110	0.106287	0.135926
H59	H	-1.021032	-0.287569	-0.000080
Br60	Br	-0.499463	0.103662	0.176611
H61	H	-1.016965	-0.541665	-0.000083
H62	H	-0.266808	0.099931	0.135899
H63	H	-1.023324	-0.144361	-0.000069
H64	H	-1.014674	-0.684886	-0.000088
H65	H	-0.987409	0.008484	0.203620
H66	H	-0.800352	0.195475	0.796232
Br67	Br	-0.729614	-0.482080	-0.000091
H68	H	-0.123585	0.097655	0.135898
Br69	Br	-0.726643	-0.668152	-0.000076
H70	H	-0.770787	-0.254383	-0.000078
Br71	Br	-0.735976	-0.084763	-0.000075
H72	H	-0.987413	0.008485	0.360626
Br73	Br	-1.015428	-0.019474	0.615693
H74	H	-0.266853	0.099953	-0.136058
Br75	Br	-1.015450	-0.019471	0.819692
H76	H	-0.800336	0.195466	0.639225
H77	H	-0.800318	0.195450	0.360659
H78	H	-0.800304	0.195450	0.203644
H79	H	-0.520949	0.104022	-0.136044
H80	H	-0.664170	0.106309	-0.136038
