data_functionalizedCrystal
_audit_creation_method	'MofGen! by Chris Wilmer'
_symmetry_space_group_name_H-M	'P1'
_symmetry_Int_Tables_number	1
_symmetry_cell_setting	triclinic
loop_
_symmetry_equiv_pos_as_xyz
  x,y,z
_cell_length_a	10.489716
_cell_length_b	10.489741
_cell_length_c	12.376457
_cell_angle_alpha	101.393369
_cell_angle_beta	78.591709
_cell_angle_gamma	84.534155
loop_
_atom_site_label
_atom_site_type_symbol
_atom_site_fract_x
_atom_site_fract_y
_atom_site_fract_z
O1	O	1.718308	0.155594	-0.093995
O2	O	1.347109	0.172519	-0.093999
O3	O	1.541153	-0.021540	-0.093990
O4	O	1.524264	0.349653	-0.094004
O5	O	1.492659	0.026908	0.094019
O6	O	1.298615	0.220967	0.094011
O7	O	1.669814	0.204042	0.094015
Zn8	Zn	1.476515	0.220197	0.123863
Zn9	Zn	1.540408	0.156364	-0.123848
O10	O	1.475770	0.398101	0.094006
C11	C	1.275330	0.195471	0.000005
C12	C	1.133700	0.191666	0.000004
C13	C	1.515631	-0.044848	0.000014
C14	C	1.511814	-0.186478	0.000012
C15	C	1.388350	-0.254609	0.000002
C16	C	1.422764	-0.322849	0.092701
C17	C	1.470605	-0.370590	-0.092662
C18	C	1.546259	-0.252833	0.092788
C19	C	1.594104	-0.300585	-0.092659
C20	C	1.628602	-0.368792	0.000063
C21	C	1.036028	0.310668	-0.000003
C22	C	0.934769	0.271674	0.092703
C23	C	0.982588	0.223879	-0.092660
C24	C	1.034287	0.152740	0.092786
C25	C	1.082132	0.104942	-0.092660
C26	C	0.980917	0.065865	0.000069
C27	C	1.741594	0.181090	0.000008
C28	C	1.883226	0.184893	0.000002
C29	C	1.501293	0.421408	-0.000001
C30	C	1.505112	0.563036	-0.000006
N31	N	1.432919	0.263760	0.292920
N32	N	1.584014	0.112791	-0.292904
C33	C	1.685215	0.011641	0.647916
C34	C	1.715720	-0.018849	0.529578
C35	C	1.645022	0.051800	0.470407
C36	C	1.543814	0.152946	0.529587
C37	C	1.513312	0.183446	0.647937
C38	C	1.473119	0.223605	0.470428
C39	C	1.371911	0.324751	0.529608
C40	C	1.341413	0.355245	0.647946
C41	C	1.412111	0.284596	0.707117
C42	C	1.503621	0.193105	0.352078
C43	C	1.331719	0.364910	0.352099
C44	C	1.301213	0.395400	0.470438
H45	H	1.286814	-0.204926	0.000094
H46	H	1.666516	-0.289741	-0.171032
H47	H	1.350309	-0.333661	0.171071
F48	F	1.588036	-0.186119	0.195337
H49	H	1.730192	-0.418211	0.000116
F50	F	1.165426	0.012942	-0.195102
F51	F	1.428714	-0.437479	-0.195092
F52	F	1.068256	0.445994	0.000106
F53	F	1.379639	0.317041	0.833068
F54	F	0.851511	0.363731	0.195139
H55	H	1.057368	0.122749	0.171239
H56	H	0.956472	-0.037711	0.000126
H57	H	1.218807	0.477756	0.518637
H58	H	0.959317	0.253946	-0.171025
H59	H	1.274152	0.422442	0.303924
F60	F	1.611331	0.085462	0.289108
H61	H	1.669865	0.026970	0.374051
F62	F	1.823429	-0.126489	0.466598
F63	F	1.760456	-0.063530	0.710893
H64	H	1.259013	0.437613	0.696131
