data_functionalizedCrystal
_audit_creation_method	'MofGen! by Chris Wilmer'
_symmetry_space_group_name_H-M	'P1'
_symmetry_Int_Tables_number	1
_symmetry_cell_setting	triclinic
loop_
_symmetry_equiv_pos_as_xyz
  x,y,z
_cell_length_a	17.699083
_cell_length_b	14.519709
_cell_length_c	16.176319
_cell_angle_alpha	89.992256
_cell_angle_beta	89.998611
_cell_angle_gamma	83.481580
loop_
_atom_site_label
_atom_site_type_symbol
_atom_site_fract_x
_atom_site_fract_y
_atom_site_fract_z
O1	O	1.004413	0.116624	-0.068632
O2	O	0.784078	0.131798	-0.068660
O3	O	0.900087	-0.010052	-0.068638
O4	O	0.888403	0.258474	-0.068654
O5	O	0.900071	-0.010061	0.068855
O6	O	0.784062	0.131789	0.068833
O7	O	1.004397	0.116615	0.068861
Cu8	Cu	0.894228	0.124201	0.081401
Cu9	Cu	0.894247	0.124212	-0.081200
O10	O	0.888387	0.258465	0.068839
C11	C	0.755871	0.131249	0.000083
C12	C	0.671848	0.129618	0.000073
C13	C	0.623466	0.212881	0.000068
C14	C	0.544518	0.211343	0.000079
C15	C	0.513954	0.126541	0.000089
C16	C	0.562343	0.043272	0.000096
C17	C	0.641289	0.044811	0.000091
C18	C	0.243962	0.037064	0.000117
C19	C	0.165010	0.035531	0.000119
C20	C	0.147191	0.203596	0.000105
C21	C	0.226137	0.205135	0.000100
C22	C	0.274519	0.121866	0.000112
C23	C	0.360123	0.123535	0.000102
C24	C	0.428352	0.124872	0.000093
C25	C	0.899534	-0.044414	0.000109
C26	C	0.897903	-0.146789	0.000109
C27	C	0.891896	-0.521659	0.000087
C28	C	0.893564	-0.417358	0.000093
C29	C	0.894899	-0.334227	0.000099
C30	C	0.896568	-0.229920	0.000104
C31	C	1.032603	0.117164	0.000116
C32	C	1.116626	0.118795	0.000121
C33	C	0.888940	0.292827	0.000090
C34	C	0.890572	0.395202	0.000085
N35	N	0.894220	0.124193	0.195767
N36	N	0.894260	0.124213	-0.195565
C37	C	0.945604	0.061408	0.239040
C38	C	0.945608	0.061407	0.325588
C39	C	0.894231	0.124196	0.368859
C40	C	0.842841	0.186985	0.325579
C41	C	0.842834	0.186981	0.239034
C42	C	0.842867	0.187002	0.674608
C43	C	0.842879	0.187003	0.761159
C44	C	0.945641	0.061428	0.761161
C45	C	0.945634	0.061424	0.674616
C46	C	0.894242	0.124209	0.631343
C47	C	0.894237	0.124208	0.537499
C48	C	0.894238	0.124202	0.462702
H49	H	0.505128	0.279144	0.000074
H50	H	0.801004	0.238106	0.360816
O51	O	0.135194	-0.046770	0.000098
C52	C	0.055139	-0.030268	0.000116
H53	H	0.036703	0.041742	-0.025925
H54	H	0.030824	-0.084520	-0.039793
H55	H	0.033157	-0.034682	0.066080
O56	O	0.995525	0.000301	0.803108
C57	C	0.983088	-0.090973	0.781987
H58	H	0.953913	-0.090813	0.719152
H59	H	1.039916	-0.136479	0.779027
H60	H	0.945380	-0.119435	0.830702
H61	H	0.800990	0.238106	0.203801
O62	O	0.995381	0.000257	0.632560
C63	C	0.954665	-0.056577	0.582628
H64	H	0.895547	-0.019631	0.569600
H65	H	0.986223	-0.071434	0.521793
H66	H	0.949303	-0.124623	0.616113
O67	O	0.792859	0.247904	0.803158
C68	C	0.717920	0.233029	0.782013
H69	H	0.717458	0.159191	0.758231
H70	H	0.679960	0.243687	0.838935
H71	H	0.695745	0.284178	0.731775
O72	O	0.653026	0.295340	0.000095
C73	C	0.593389	0.368499	0.000073
H74	H	0.539728	0.342763	0.026109
H75	H	0.609966	0.427714	0.039986
H76	H	0.582249	0.394178	-0.065890
O77	O	0.995605	0.000392	0.367495
C78	C	1.040944	-0.055034	0.310744
H79	H	1.041833	-0.017228	0.249044
H80	H	1.101371	-0.069177	0.335741
H81	H	1.016294	-0.123517	0.301558
O82	O	0.290845	-0.043905	0.000088
C83	C	0.246937	-0.119079	0.000116
H84	H	0.188050	-0.095535	-0.025917
H85	H	0.275978	-0.177409	-0.039795
H86	H	0.241278	-0.145082	0.066081
H87	H	0.107789	0.271397	0.000100
O88	O	0.255700	0.287592	0.000128
C89	C	0.196066	0.360754	0.000107
H90	H	0.142403	0.335021	0.026140
H91	H	0.212645	0.419967	0.040021
H92	H	0.184929	0.386436	-0.065856
O93	O	0.532531	-0.039025	0.000070
C94	C	0.452476	-0.022531	0.000092
H95	H	0.434033	0.049480	-0.025944
H96	H	0.428164	-0.076783	-0.039820
H97	H	0.430495	-0.026954	0.066056
H98	H	0.680683	-0.022990	0.000095
O99	O	0.995395	0.000338	0.196938
C100	C	0.954757	-0.056510	0.146933
H101	H	0.895598	-0.019655	0.133949
H102	H	0.986322	-0.071211	0.086081
H103	H	0.949491	-0.124631	0.180333
H104	H	0.801023	0.238125	0.639382
