data_functionalizedCrystal
_audit_creation_method	'MofGen! by Chris Wilmer'
_symmetry_space_group_name_H-M	'P1'
_symmetry_Int_Tables_number	1
_symmetry_cell_setting	triclinic
loop_
_symmetry_equiv_pos_as_xyz
  x,y,z
_cell_length_a	15.995350
_cell_length_b	14.519709
_cell_length_c	12.996460
_cell_angle_alpha	90.007090
_cell_angle_beta	90.001937
_cell_angle_gamma	83.586260
loop_
_atom_site_label
_atom_site_type_symbol
_atom_site_fract_x
_atom_site_fract_y
_atom_site_fract_z
O1	O	-1.111165	-0.118875	-0.085482
O2	O	-0.867411	-0.133554	-0.085503
O3	O	-0.995751	0.008036	-0.085483
O4	O	-0.982825	-0.260465	-0.085502
O5	O	-0.995737	0.008044	0.085651
O6	O	-0.867398	-0.133546	0.085630
O7	O	-1.111151	-0.118867	0.085652
Cu8	Cu	-0.989273	-0.126206	0.101267
Cu9	Cu	-0.989289	-0.126215	-0.101118
O10	O	-0.982812	-0.260457	0.085631
C11	C	-0.995142	0.042398	0.000084
C12	C	-0.993337	0.144776	0.000085
C13	C	-0.836209	-0.132943	0.000061
C14	C	-0.743256	-0.131124	0.000053
C15	C	-1.142354	-0.119478	0.000085
C16	C	-1.235307	-0.121297	0.000087
C17	C	-0.405499	-0.124590	0.000075
C18	C	-0.452782	-0.023752	0.000464
C19	C	-0.549475	-0.025572	0.000071
C20	C	-0.573064	-0.127831	0.000065
C21	C	-0.532059	-0.177572	-0.097661
C22	C	-0.435419	-0.175039	-0.097735
C23	C	-0.435068	-0.177113	0.096876
C24	C	-0.532014	-0.177089	0.098160
C25	C	-0.667764	-0.129668	0.000055
C26	C	-0.310798	-0.122756	0.000077
C27	C	-0.983421	-0.294819	0.000062
C28	C	-0.985226	-0.397197	0.000055
N29	N	-0.989268	-0.126199	0.243614
C30	C	-0.986691	0.519660	0.000057
C31	C	-0.988537	0.415355	0.000065
C32	C	-0.990014	0.332221	0.000072
C33	C	-0.991859	0.227910	0.000078
N34	N	-0.989301	-0.126215	-0.243466
C35	C	-0.989288	-0.126216	0.663428
C36	C	-0.989280	-0.126214	0.546623
C37	C	-0.989279	-0.126208	0.453525
C38	C	-0.989270	-0.126205	0.336712
H39	H	-0.577839	0.013527	0.070125
C40	C	-0.570317	-0.130908	-0.195908
H41	H	-0.611268	-0.081120	-0.177581
H42	H	-0.596120	-0.174956	-0.235450
H43	H	-0.527160	-0.107839	-0.235296
H44	H	-0.434194	0.016558	0.070547
H45	H	-0.433133	0.016366	-0.069227
H46	H	-0.547490	-0.251660	0.104058
H47	H	-0.546297	-0.252699	-0.101299
C48	C	-0.410617	-0.126040	-0.196408
H49	H	-0.459581	-0.107862	-0.236068
H50	H	-0.372707	-0.167243	-0.235481
H51	H	-0.384275	-0.072767	-0.178546
C52	C	-0.407255	-0.132578	0.196943
H53	H	-0.377347	-0.081527	0.180619
H54	H	-0.371847	-0.177077	0.235094
H55	H	-0.455417	-0.111632	0.236842
C56	C	-0.568827	-0.128037	0.195830
H57	H	-0.609049	-0.077750	0.176916
H58	H	-0.524896	-0.105382	0.234211
H59	H	-0.595267	-0.170720	0.236610
C60	C	-0.391996	-0.275044	-0.103742
H61	H	-0.332695	-0.274175	-0.103822
H62	H	-0.408634	-0.303464	-0.165145
H63	H	-0.407865	-0.309186	-0.045951
H64	H	-0.577279	0.013784	-0.070099
H65	H	-0.403418	-0.251460	0.097532
