data_functionalizedCrystal
_audit_creation_method	'MofGen! by Chris Wilmer'
_symmetry_space_group_name_H-M	'P1'
_symmetry_Int_Tables_number	1
_symmetry_cell_setting	triclinic
loop_
_symmetry_equiv_pos_as_xyz
  x,y,z
_cell_length_a	15.944551
_cell_length_b	15.944551
_cell_length_c	14.421503
_cell_angle_alpha	89.996660
_cell_angle_beta	89.996859
_cell_angle_gamma	96.501262
loop_
_atom_site_label
_atom_site_type_symbol
_atom_site_fract_x
_atom_site_fract_y
_atom_site_fract_z
O1	O	1.114529	-0.108320	-0.077017
O2	O	0.869980	-0.121677	-0.077040
O3	O	0.998933	0.007276	-0.077020
O4	O	0.985576	-0.237273	-0.077038
O5	O	0.998911	0.007257	0.077204
O6	O	0.869958	-0.121696	0.077183
O7	O	1.114508	-0.108340	0.077206
Cu8	Cu	0.992231	-0.115020	0.091277
Cu9	Cu	0.992256	-0.114997	-0.091110
O10	O	0.985555	-0.237293	0.077186
C11	C	0.838675	-0.121132	0.000069
C12	C	0.745429	-0.119470	0.000060
C13	C	0.530572	-0.035565	0.000084
C14	C	0.469563	-0.074518	-0.075959
C15	C	0.574703	-0.116462	0.000071
C16	C	0.469564	-0.074556	0.076093
C17	C	0.409790	-0.113551	0.000086
C18	C	0.514922	-0.155437	-0.076035
C19	C	0.514929	-0.155464	0.076086
C20	C	0.453937	-0.194476	0.000024
C21	C	0.669705	-0.118137	0.000062
C22	C	0.314789	-0.111883	0.000089
C23	C	0.998367	0.038561	0.000092
C24	C	0.996705	0.131807	0.000093
C25	C	1.145813	-0.108885	0.000096
C26	C	1.239059	-0.110547	0.000098
C27	C	0.986120	-0.268577	0.000072
C28	C	0.987782	-0.361823	0.000066
N29	N	0.992219	-0.115035	0.219558
C30	C	0.912801	0.346663	0.000072
C31	C	0.951753	0.407671	0.076117
C32	C	0.993698	0.302533	0.000085
C33	C	0.951793	0.407674	-0.075935
C34	C	0.990787	0.467445	0.000074
C35	C	1.032672	0.362312	0.076193
C36	C	1.032701	0.362308	-0.075927
C37	C	1.071711	0.423298	0.000136
C38	C	0.995372	0.207530	0.000092
C39	C	0.989119	0.562446	0.000073
N40	N	0.992275	-0.114975	-0.219392
C41	C	0.932581	-0.174636	0.469202
C42	C	1.008481	-0.190943	0.531011
C43	C	0.992240	-0.115015	0.408719
C44	C	0.916359	-0.098727	0.531005
C45	C	0.992253	-0.114997	0.591441
C46	C	1.068178	-0.131360	0.469167
C47	C	0.976007	-0.039111	0.469156
C48	C	1.051961	-0.055386	0.530936
C49	C	0.992231	-0.115027	0.303458
C50	C	0.992270	-0.114985	0.696700
H51	H	0.449461	-0.040294	-0.140243
H52	H	0.563905	0.031573	-0.000005
O53	O	0.839730	-0.082394	0.563296
C54	C	0.777025	-0.145431	0.531859
H55	H	0.800215	-0.176207	0.466777
H56	H	0.763167	-0.195252	0.588179
C57	C	0.667441	-0.067618	0.589292
C58	C	0.695920	-0.105412	0.509352
H59	H	0.617410	-0.042934	0.575412
H60	H	0.709686	-0.025150	0.610476
H61	H	0.655899	-0.109142	0.636218
H62	H	0.707472	-0.063886	0.462432
H63	H	0.653675	-0.147872	0.488160
O64	O	0.538681	-0.196131	-0.152916
C65	C	0.515054	-0.153640	-0.232861
H66	H	0.461006	-0.115361	-0.215141
H67	H	0.571304	-0.109497	-0.259077
C68	C	0.552652	-0.265578	-0.330476
C69	C	0.486265	-0.218569	-0.308714
H70	H	0.534897	-0.305627	-0.377268
H71	H	0.568574	-0.294204	-0.276617
H72	H	0.599522	-0.228783	-0.352317
H73	H	0.439401	-0.255362	-0.286863
H74	H	0.470335	-0.189950	-0.362572
H75	H	0.420779	-0.261683	-0.000023
O76	O	0.445449	-0.033730	0.152721
C77	C	0.357059	-0.033419	0.152107
H78	H	0.332684	-0.041741	0.077989
H79	H	0.326657	-0.087433	0.196918
C80	C	0.364440	0.061348	0.282055
C81	C	0.334502	0.051134	0.191021
H82	H	0.350524	0.113502	0.306063
H83	H	0.423989	0.061136	0.282472
H84	H	0.339102	0.016331	0.319387
H85	H	0.359848	0.096145	0.153689
H86	H	0.274956	0.051355	0.190599
H87	H	0.917527	0.427771	0.140401
H88	H	0.917575	0.427758	-0.140230
O89	O	0.538923	-0.196136	0.152871
C90	C	0.516060	-0.153286	0.232893
H91	H	0.509296	-0.084803	0.214680
H92	H	0.453418	-0.185060	0.260637
C93	C	0.593152	-0.240178	0.329801
C94	C	0.584851	-0.156064	0.307433
H95	H	0.635583	-0.241894	0.375783
H96	H	0.608553	-0.269049	0.275890
H97	H	0.540946	-0.266647	0.352916
H98	H	0.637053	-0.129600	0.284308
H99	H	0.569461	-0.127189	0.361342
H100	H	1.102474	-0.004956	0.557872
H101	H	1.132368	-0.145205	0.442119
O102	O	0.959485	0.037362	0.436597
C103	C	0.886009	0.027089	0.381474
H104	H	0.875579	-0.040460	0.354407
H105	H	0.829368	0.040628	0.424964
C106	C	0.909164	0.171795	0.332321
C107	C	0.896357	0.088831	0.299070
H108	H	0.915544	0.209883	0.281492
H109	H	0.958664	0.178717	0.369461
H110	H	0.861960	0.183065	0.368563
H111	H	0.943565	0.077559	0.262839
H112	H	0.846865	0.081909	0.261922
O113	O	0.832642	0.307057	0.000192
C114	C	0.774903	0.367808	0.001045
H115	H	0.806948	0.429589	0.030630
H116	H	0.752840	0.378718	-0.072724
C117	C	0.658987	0.260095	0.025329
C118	C	0.698344	0.335974	0.061672
H119	H	0.611761	0.240458	0.062722
H120	H	0.697887	0.219165	0.024750
H121	H	0.640609	0.269197	-0.036145
H122	H	0.716731	0.326869	0.123140
H123	H	0.659446	0.376902	0.062262
O124	O	1.073390	0.338314	0.152950
C125	C	1.074450	0.250016	0.152036
H126	H	1.020536	0.219826	0.106965
H127	H	1.137171	0.234266	0.122645
C128	C	1.129927	0.252704	0.306983
C129	C	1.063705	0.215623	0.251632
H130	H	1.123303	0.231488	0.368417
H131	H	1.129216	0.312192	0.307597
H132	H	1.182188	0.239576	0.282479
H133	H	1.011446	0.228760	0.276129
H134	H	1.064407	0.156136	0.251023
O135	O	1.151900	0.462827	0.000355
C136	C	1.194220	0.439686	0.080625
H137	H	1.145989	0.417773	0.136402
H138	H	1.233333	0.386200	0.063212
C139	C	1.312001	0.543171	0.047974
C140	C	1.252764	0.516264	0.116485
H141	H	1.348117	0.590406	0.070093
H142	H	1.283491	0.558760	-0.006107
H143	H	1.344586	0.498593	0.033470
H144	H	1.220173	0.560839	0.130979
H145	H	1.281269	0.500685	0.170569
O146	O	1.073374	0.338317	-0.152713
C147	C	1.030526	0.361182	-0.232735
H148	H	0.962043	0.367945	-0.214523
H149	H	1.062300	0.423825	-0.260476
C150	C	1.117421	0.284095	-0.329644
C151	C	1.033307	0.292394	-0.307277
H152	H	1.119139	0.241666	-0.375627
H153	H	1.146291	0.268693	-0.275732
H154	H	1.143890	0.336302	-0.352756
H155	H	1.006843	0.240191	-0.284155
H156	H	1.004432	0.307786	-0.361187
O157	O	1.024900	-0.267448	0.563591
C158	C	1.025413	-0.266130	0.661345
H159	H	1.039103	-0.198197	0.686556
H160	H	0.961205	-0.294419	0.688451
C161	C	1.077398	-0.401677	0.666492
C162	C	1.094220	-0.318242	0.697457
H163	H	1.119839	-0.433825	0.688769
H164	H	1.077050	-0.402567	0.600633
H165	H	1.023890	-0.425240	0.689082
H166	H	1.147722	-0.294677	0.674857
H167	H	1.094579	-0.317349	0.763313
O168	O	0.872545	-0.234939	0.436897
C169	C	0.889983	-0.314853	0.468435
H170	H	0.959967	-0.312487	0.485767
H171	H	0.850946	-0.332844	0.533131
C172	C	0.781271	-0.383947	0.370791
C173	C	0.867229	-0.381043	0.392072
H174	H	0.767232	-0.424777	0.323690
H175	H	0.769520	-0.330107	0.349546
H176	H	0.748750	-0.398936	0.424711
H177	H	0.899748	-0.366043	0.338155
H178	H	0.878985	-0.434881	0.413307
