data_functionalizedCrystal
_audit_creation_method	'MofGen! by Chris Wilmer'
_symmetry_space_group_name_H-M	'P1'
_symmetry_Int_Tables_number	1
_symmetry_cell_setting	triclinic
loop_
_symmetry_equiv_pos_as_xyz
  x,y,z
_cell_length_a	10.723023
_cell_length_b	12.837942
_cell_length_c	9.198806
_cell_angle_alpha	89.997396
_cell_angle_beta	89.996513
_cell_angle_gamma	89.648244
loop_
_atom_site_label
_atom_site_type_symbol
_atom_site_fract_x
_atom_site_fract_y
_atom_site_fract_z
O1	O	1.672992	0.145509	-0.120877
O2	O	1.311352	0.159438	-0.120883
O3	O	1.484153	0.001514	-0.120871
O4	O	1.500191	0.303433	-0.120889
O5	O	1.484138	0.001513	0.120914
O6	O	1.311337	0.159438	0.120902
O7	O	1.672977	0.145508	0.120908
Cu8	Cu	1.492156	0.152473	0.142982
Cu9	Cu	1.492174	0.152474	-0.142957
O10	O	1.500176	0.303433	0.120896
C11	C	1.264735	0.158425	0.000009
C12	C	1.125851	0.155392	0.000007
C13	C	1.063925	0.154040	0.125258
C14	C	0.920381	0.150906	0.125258
C15	C	1.478728	-0.037146	0.000021
C16	C	1.462569	-0.152338	0.000018
C17	C	1.656825	-0.391915	-0.000009
C18	C	1.641649	-0.500149	-0.000012
C19	C	1.417040	-0.477041	-0.000001
C20	C	1.432217	-0.368807	0.000002
C21	C	1.552113	-0.326248	0.000000
C22	C	1.567289	-0.218013	0.000013
C23	C	1.342681	-0.194907	0.000014
C24	C	1.327505	-0.303140	0.000011
C25	C	1.719594	0.146522	0.000013
C26	C	1.858478	0.149554	0.000006
C27	C	1.505601	0.342092	0.000002
C28	C	1.521760	0.457284	-0.000005
N29	N	1.492152	0.152472	0.344096
N30	N	1.492186	0.152466	-0.344071
C31	C	1.564674	0.085872	0.416298
C32	C	1.564693	0.085868	0.583710
H33	H	0.867125	0.149749	0.232490
C34	C	1.053917	0.153821	-0.144864
N35	N	0.999737	0.152638	-0.253984
H36	H	1.229888	-0.337807	0.000008
C37	C	1.699176	-0.171200	0.000006
N38	N	1.798517	-0.135944	-0.000006
C39	C	1.648576	0.008834	0.667590
N40	N	1.711756	-0.049191	0.730771
H41	H	1.754449	-0.357263	0.000003
H42	H	1.257417	-0.141429	0.000033
C43	C	1.135857	0.155655	0.270128
N44	N	1.190035	0.156890	0.379249
H45	H	1.430072	0.209485	0.406220
C46	C	1.408300	0.229502	0.572060
N47	N	1.345114	0.287525	0.508878
H48	H	1.626745	0.028851	0.354176
C49	C	1.285164	-0.523875	0.000016
N50	N	1.185834	-0.559152	0.000038
C51	C	1.756841	-0.572379	-0.000012
N52	N	1.843609	-0.626783	-0.000010
H53	H	0.911725	0.150723	-0.107231
