data_functionalizedCrystal
_audit_creation_method	'MofGen! by Chris Wilmer'
_symmetry_space_group_name_H-M	'P1'
_symmetry_Int_Tables_number	1
_symmetry_cell_setting	triclinic
loop_
_symmetry_equiv_pos_as_xyz
  x,y,z
_cell_length_a	13.897448
_cell_length_b	19.805407
_cell_length_c	19.805399
_cell_angle_alpha	90.019573
_cell_angle_beta	90.025019
_cell_angle_gamma	90.017692
loop_
_atom_site_label
_atom_site_type_symbol
_atom_site_fract_x
_atom_site_fract_y
_atom_site_fract_z
Zn1	Zn	-0.384037	1.034777	0.382732
Zn2	Zn	-0.545343	1.034709	0.269549
Zn3	Zn	-0.384064	0.921591	0.269556
Zn4	Zn	-0.545292	0.921572	0.382695
O5	O	-0.464684	0.978162	0.326133
O6	O	-0.405445	1.129484	0.367730
O7	O	-0.523982	1.019683	0.174833
O8	O	-0.249079	0.936642	0.284588
O9	O	-0.523956	1.129434	0.284575
O10	O	-0.249059	1.019799	0.367737
O11	O	-0.405490	0.936576	0.174839
O12	O	-0.405441	0.826872	0.284552
O13	O	-0.523869	0.936609	0.477417
O14	O	-0.523894	0.826858	0.367675
O15	O	-0.405395	1.019780	0.477443
O16	O	-0.680318	1.019664	0.284539
O17	O	-0.680280	0.936543	0.367668
C18	C	-0.464666	0.802306	0.326111
C19	C	-0.464681	0.727074	0.326118
C20	C	-0.526453	0.691740	0.369330
C21	C	-0.526454	0.621052	0.369339
C22	C	-0.464688	0.585699	0.326133
C23	C	-0.402910	0.621037	0.282919
C24	C	-0.402904	0.691725	0.282913
C25	C	-0.402931	0.335964	0.282941
C26	C	-0.402944	0.265272	0.282949
C27	C	-0.526481	0.265292	0.369367
C28	C	-0.526476	0.335979	0.369362
C29	C	-0.464694	0.371311	0.326151
C30	C	-0.464692	0.447960	0.326142
C31	C	-0.464695	0.509051	0.326138
C32	C	-0.715298	0.978113	0.326113
C33	C	-0.822512	0.978154	0.326128
C34	C	-1.018807	0.978225	0.326170
C35	C	-0.909575	0.978183	0.326149
C36	C	-0.213091	0.978230	0.326167
C37	C	-0.105877	0.978259	0.326182
C38	C	-0.464623	0.978200	0.502676
C39	C	-0.464597	0.978216	0.577908
C40	C	-0.464703	1.154705	0.326155
C41	C	-0.464711	1.229937	0.326165
C42	C	-0.464675	0.978163	0.150277
C43	C	-0.464429	0.978278	0.075045
C44	C	-0.402905	1.021524	0.613267
C45	C	-0.402877	1.021531	0.683955
C46	C	-0.464547	0.978233	0.719283
C47	C	-0.526242	0.934920	0.683919
C48	C	-0.526264	0.934910	0.613232
C49	C	-0.526152	0.934958	0.968993
C50	C	-0.526127	0.934973	1.039685
C51	C	-0.402765	1.021579	1.039716
C52	C	-0.402787	1.021570	0.969029
C53	C	-0.464478	0.978255	0.933671
C54	C	-0.464507	0.978247	0.857022
C55	C	-0.464524	0.978244	0.795931
H56	H	-0.576783	0.236515	0.404554
H57	H	-0.576347	0.899712	1.068447
H58	H	-0.576753	0.720520	0.404511
C59	C	-0.593415	0.887983	0.574870
C60	C	-0.688848	0.902716	0.592040
C61	C	-0.750735	0.859507	0.556706
H62	H	-0.579426	0.842484	0.586413
H63	H	-0.584658	0.894188	0.527707
H64	H	-0.697600	0.896505	0.639193
H65	H	-0.702866	0.948207	0.580495
H66	H	-0.741978	0.865712	0.509543
H67	H	-0.736738	0.814011	0.568252
H68	H	-0.815493	0.869501	0.568346
H69	H	-0.576451	0.899664	0.712689
C70	C	-0.593641	0.582812	0.416272
C71	C	-0.647758	0.628902	0.454089
C72	C	-0.709675	0.593700	0.497323
H73	H	-0.556920	0.555250	0.445876
H74	H	-0.635668	0.555235	0.390337
H75	H	-0.605736	0.656466	0.480022
H76	H	-0.684498	0.656465	0.424503
H77	H	-0.751703	0.566124	0.471389
H78	H	-0.672947	0.566140	0.526923
H79	H	-0.746408	0.624967	0.522983
C80	C	-0.593377	0.374447	0.416314
C81	C	-0.538834	0.415067	0.459747
C82	C	-0.600428	0.450519	0.503006
H83	H	-0.630187	0.343356	0.442117
H84	H	-0.635341	0.402044	0.390389
H85	H	-0.496887	0.387473	0.485669
H86	H	-0.502026	0.446171	0.433962
H87	H	-0.642392	0.478116	0.477081
H88	H	-0.637235	0.419423	0.528805
H89	H	-0.563430	0.478089	0.532476
C90	C	-0.335769	0.227009	0.236015
C91	C	-0.281641	0.273080	0.198184
C92	C	-0.219745	0.237857	0.154950
H93	H	-0.372505	0.199413	0.206419
H94	H	-0.293747	0.199465	0.261950
H95	H	-0.323658	0.300612	0.172251
H96	H	-0.244885	0.300677	0.227762
H97	H	-0.177723	0.210313	0.180886
H98	H	-0.256489	0.210262	0.125359
H99	H	-0.183006	0.269110	0.129282
H100	H	-0.352690	1.056785	0.584508
C101	C	-0.336017	0.374402	0.235982
C102	C	-0.390542	0.414970	0.192538
C103	C	-0.328930	0.450396	0.149272
H104	H	-0.299218	0.343296	0.210187
H105	H	-0.294044	0.402033	0.261901
H106	H	-0.432498	0.387341	0.166621
H107	H	-0.427339	0.446088	0.218314
H108	H	-0.286957	0.478027	0.175192
H109	H	-0.292134	0.419285	0.123482
H110	H	-0.365915	0.477930	0.119795
H111	H	-0.352615	0.592247	0.247743
C112	C	-0.335767	1.068437	0.722375
C113	C	-0.273901	1.030131	0.762936
C114	C	-0.212047	1.073316	0.798328
H115	H	-0.372535	1.097938	0.750011
H116	H	-0.298990	1.094208	0.691228
H117	H	-0.310673	1.004372	0.794080
H118	H	-0.237111	1.000632	0.735317
H119	H	-0.175271	1.099087	0.767181
H120	H	-0.248824	1.102815	0.825960
H121	H	-0.170058	1.047332	0.825848
H122	H	-0.352573	1.056830	0.940268
H123	H	-0.352598	0.720492	0.247729
C124	C	-0.335811	1.068529	1.078228
C125	C	-0.348963	1.059259	1.147695
C126	C	-0.287296	1.102489	1.183190
H127	H	-0.349877	1.114028	1.066733
H128	H	-0.270983	1.058632	1.066687
H129	H	-0.413776	1.069160	1.159231
H130	H	-0.334890	1.013768	1.159210
H131	H	-0.222469	1.092593	1.171649
H132	H	-0.301368	1.147986	1.171690
H133	H	-0.296206	1.096201	1.230327
C134	C	-0.593220	0.887897	0.930732
C135	C	-0.647232	0.849991	0.976803
C136	C	-0.709029	0.806629	0.941579
H137	H	-0.556418	0.858354	0.903163
H138	H	-0.635320	0.913743	0.903162
H139	H	-0.605138	0.824146	1.004361
H140	H	-0.684054	0.879516	1.004374
H141	H	-0.751129	0.832476	0.914009
H142	H	-0.672219	0.777091	0.914011
H143	H	-0.745690	0.780909	0.972833
