data_functionalizedCrystal
_audit_creation_method	'MofGen! by Chris Wilmer'
_symmetry_space_group_name_H-M	'P1'
_symmetry_Int_Tables_number	1
_symmetry_cell_setting	triclinic
loop_
_symmetry_equiv_pos_as_xyz
  x,y,z
_cell_length_a	12.759395
_cell_length_b	25.639239
_cell_length_c	12.759387
_cell_angle_alpha	89.963582
_cell_angle_beta	89.979491
_cell_angle_gamma	90.040223
loop_
_atom_site_label
_atom_site_type_symbol
_atom_site_fract_x
_atom_site_fract_y
_atom_site_fract_z
Zn1	Zn	1.606094	-0.208102	-0.593964
Zn2	Zn	1.605911	-0.295548	-0.418267
Zn3	Zn	1.430392	-0.208130	-0.418301
Zn4	Zn	1.430311	-0.295510	-0.593906
O5	O	1.518177	-0.251823	-0.506110
O6	O	1.753090	-0.219705	-0.570668
O7	O	1.582585	-0.283979	-0.271250
O8	O	1.453810	-0.134961	-0.441641
O9	O	1.752956	-0.283951	-0.441584
O10	O	1.582897	-0.134940	-0.570700
O11	O	1.453632	-0.219754	-0.271275
O12	O	1.283360	-0.219718	-0.441585
O13	O	1.453671	-0.283888	-0.740935
O14	O	1.283300	-0.283916	-0.570602
O15	O	1.582818	-0.219669	-0.740978
O16	O	1.582506	-0.368708	-0.441528
O17	O	1.453494	-0.368681	-0.570569
C18	C	1.245209	-0.251816	-0.506092
C19	C	1.128432	-0.251826	-0.506109
C20	C	1.128409	-0.318783	-0.640236
C21	C	1.073536	-0.352266	-0.707303
C22	C	0.963815	-0.352272	-0.707316
C23	C	0.908963	-0.318791	-0.640257
C24	C	0.963836	-0.285309	-0.573190
C25	C	1.073560	-0.285307	-0.573182
C26	C	0.963859	-0.218349	-0.439070
C27	C	1.073581	-0.218345	-0.439050
C28	C	0.909008	-0.184868	-0.372011
C29	C	0.963880	-0.151387	-0.304937
C30	C	1.073609	-0.151383	-0.304926
C31	C	1.128454	-0.184862	-0.371983
C32	C	1.518000	-0.387665	-0.506062
C33	C	1.518020	-0.445779	-0.506076
C34	C	1.585529	-0.806144	-0.439032
C35	C	1.585570	-0.860748	-0.439046
O36	O	1.642784	-0.888986	-0.381991
N37	N	1.518361	-0.888062	-0.506179
C38	C	1.451115	-0.860768	-0.573310
O39	O	1.393954	-0.889014	-0.630414
C40	C	1.451081	-0.806165	-0.573300
C41	C	1.518286	-0.778854	-0.506156
C42	C	1.652729	-0.778833	-0.371894
C43	C	1.652687	-0.724233	-0.371879
C44	C	1.585444	-0.696943	-0.439002
C45	C	1.518244	-0.724253	-0.506140
C46	C	1.383841	-0.778872	-0.640436
C47	C	1.383813	-0.724265	-0.640421
C48	C	1.451018	-0.696954	-0.573276
C49	C	1.450958	-0.642363	-0.573249
N50	N	1.518167	-0.615050	-0.506116
C51	C	1.585409	-0.642339	-0.438992
C52	C	1.451195	-0.975438	-0.573326
C53	C	1.451223	-1.030041	-0.573331
C54	C	1.585679	-1.030017	-0.439069
C55	C	1.585644	-0.975414	-0.439059
C56	C	1.518403	-0.948125	-0.506193
C57	C	1.585315	-0.527674	-0.438965
C58	C	1.585263	-0.473069	-0.438953
C59	C	1.450812	-0.473097	-0.573219
C60	C	1.450859	-0.527698	-0.573227
C61	C	1.518119	-0.554985	-0.506097
O62	O	1.393776	-0.614090	-0.630278
O63	O	1.642571	-0.614087	-0.381908
C64	C	1.792210	-0.251829	-0.506128
C65	C	1.908987	-0.251832	-0.506136
C66	C	1.518256	-0.251771	-0.780143
C67	C	1.518290	-0.251749	-0.896920
C68	C	1.518383	-0.115449	-0.506181
C69	C	1.518470	-0.057335	-0.506211
C70	C	1.652780	-0.184883	-0.896984
C71	C	1.720039	-0.151442	-0.951877
C72	C	1.720065	-0.151423	-1.061598
C73	C	1.652821	-0.184847	-1.116430
C74	C	1.585562	-0.218288	-1.061537
C75	C	1.585546	-0.218305	-0.951813
C76	C	1.451068	-0.285151	-1.061473
C77	C	1.451046	-0.285174	-0.951751
C78	C	1.383825	-0.318576	-1.116305
C79	C	1.316569	-0.352021	-1.061412
C80	C	1.316547	-0.352039	-0.951683
C81	C	1.383787	-0.318615	-0.896859
C82	C	1.518158	-0.251836	-0.233142
C83	C	1.518328	-0.251710	-0.116366
H84	H	0.919138	-0.379534	-0.761933
H85	H	1.774827	-0.124189	-1.106292
C86	C	1.377852	-0.557258	-0.646239
C87	C	1.318972	-0.521669	-0.705034
C88	C	1.251726	-0.548877	-0.772323
H89	H	1.332020	-0.578605	-0.606140
H90	H	1.418018	-0.578505	-0.692116
H91	H	1.278809	-0.500432	-0.659163
H92	H	1.364777	-0.500321	-0.745154
H93	H	1.291892	-0.570123	-0.818200
H94	H	1.205900	-0.570223	-0.732216
H95	H	1.211775	-0.524733	-0.812231
H96	H	1.396060	-0.450869	-0.627867
C97	C	1.133371	-0.115049	-0.232222
C98	C	1.241202	-0.122199	-0.246575
C99	C	1.296282	-0.088732	-0.179627
H100	H	1.115469	-0.122622	-0.161562
H101	H	1.115500	-0.079919	-0.247750
H102	H	1.259065	-0.157321	-0.231040
H103	H	1.259134	-0.114622	-0.317221
H104	H	1.278411	-0.053602	-0.195155
H105	H	1.278372	-0.096308	-0.108971
H106	H	1.369450	-0.093575	-0.189363
H107	H	1.383780	-0.318629	-0.807517
C108	C	1.132900	-0.388636	-0.780223
C109	C	1.061360	-0.417949	-0.838978
C110	C	1.116002	-0.451451	-0.906174
H111	H	1.175661	-0.411436	-0.740060
H112	H	1.175725	-0.368673	-0.826129
H113	H	1.018553	-0.437909	-0.793078
H114	H	1.018597	-0.395162	-0.879162
H115	H	1.158827	-0.431489	-0.952080
H116	H	1.158761	-0.474247	-0.866003
H117	H	1.067471	-0.471340	-0.946055
H118	H	0.819622	-0.318795	-0.640283
H119	H	1.640086	-0.549885	-0.384303
C120	C	1.653032	-0.184765	-1.235557
C121	C	1.726339	-0.148331	-1.271894
C122	C	1.726570	-0.148246	-1.381627
H123	H	1.585315	-0.175696	-1.260499
H124	H	1.671201	-0.218492	-1.260404
H125	H	1.708164	-0.114611	-1.247057
H126	H	1.794067	-0.157391	-1.246980
H127	H	1.744738	-0.181973	-1.406475
H128	H	1.658848	-0.139178	-1.406559
H129	H	1.776313	-0.123530	-1.406296
H130	H	0.819667	-0.184874	-0.372030
C131	C	1.658175	-0.443485	-0.365881
C132	C	1.635381	-0.456832	-0.261917
C133	C	1.702533	-0.429598	-0.194579
H134	H	1.648591	-0.407048	-0.375336
H135	H	1.728781	-0.452403	-0.381261
H136	H	1.564792	-0.447911	-0.246542
H137	H	1.644972	-0.493264	-0.252428
H138	H	1.773139	-0.438515	-0.209959
H139	H	1.692943	-0.393162	-0.204043
H140	H	1.687083	-0.438653	-0.124033
C141	C	1.383659	-0.318616	-1.235431
C142	C	1.310360	-0.355035	-1.271698
C143	C	1.310169	-0.355084	-1.381431
H144	H	1.451385	-0.327679	-1.260386
H145	H	1.365505	-0.284880	-1.260314
H146	H	1.328520	-0.388764	-1.246826
H147	H	1.242624	-0.345980	-1.246772
H148	H	1.292015	-0.321348	-1.406314
H149	H	1.377898	-0.364146	-1.406376
H150	H	1.260431	-0.379790	-1.406052
H151	H	1.217750	-0.318785	-0.640225
H152	H	1.217795	-0.184863	-0.371978
H153	H	0.919212	-0.124127	-0.250348
C154	C	1.793011	-0.115214	-0.892156
C155	C	1.778621	-0.122397	-0.784317
C156	C	1.845834	-0.089039	-0.729274
H157	H	1.777773	-0.080058	-0.910027
H158	H	1.863613	-0.122877	-0.910087
H159	H	1.708036	-0.114730	-0.766392
H160	H	1.793867	-0.157546	-0.766415
H161	H	1.916436	-0.096702	-0.747206
H162	H	1.830591	-0.053885	-0.747153
H163	H	1.836087	-0.093911	-0.656100
H164	H	1.261764	-0.379265	-0.906996
C165	C	1.725782	-0.694680	-0.298950
C166	C	1.784695	-0.730275	-0.240201
C167	C	1.852059	-0.703075	-0.173020
H168	H	1.685734	-0.673413	-0.253032
H169	H	1.771582	-0.673354	-0.339157
H170	H	1.738901	-0.751592	-0.199998
H171	H	1.824765	-0.751544	-0.286092
H172	H	1.897859	-0.681749	-0.213227
H173	H	1.812002	-0.681809	-0.127109
H174	H	1.892046	-0.727222	-0.133158
H175	H	1.707492	-0.801047	-0.317234
C176	C	1.658729	-0.945859	-0.366123
C177	C	1.717635	-0.981452	-0.307362
C178	C	1.784985	-0.954249	-0.240171
H179	H	1.618670	-0.924593	-0.320213
H180	H	1.704534	-0.924533	-0.406323
H181	H	1.671836	-1.002769	-0.267165
H182	H	1.757715	-1.002720	-0.353245
H183	H	1.830790	-0.932923	-0.280370
H184	H	1.744918	-0.932983	-0.194267
H185	H	1.824967	-0.978395	-0.200300
H186	H	1.640435	-1.052247	-0.384417
H187	H	1.396488	-1.052272	-0.627997
C188	C	1.378058	-0.945907	-0.646250
C189	C	1.319195	-0.981519	-0.705017
C190	C	1.251804	-0.954338	-0.772195
H191	H	1.418086	-0.924567	-0.692157
H192	H	1.332229	-0.924656	-0.606041
H193	H	1.365019	-1.002761	-0.745223
H194	H	1.279146	-1.002860	-0.659138
H195	H	1.205975	-0.933087	-0.731986
H196	H	1.291840	-0.932998	-0.818096
H197	H	1.211851	-0.978496	-0.812070
H198	H	1.329110	-0.801099	-0.695107
H199	H	1.261819	-0.379229	-1.106064
H200	H	1.652776	-0.184900	-0.807643
C201	C	1.310693	-0.694732	-0.713355
C202	C	1.251836	-0.730341	-0.772137
C203	C	1.184460	-0.703156	-0.839324
H204	H	1.350730	-0.673392	-0.759253
H205	H	1.264858	-0.673481	-0.673152
H206	H	1.297665	-0.751583	-0.812337
H207	H	1.211778	-0.751683	-0.726266
H208	H	1.138625	-0.681906	-0.799120
H209	H	1.224505	-0.681817	-0.885215
H210	H	1.144511	-0.727313	-0.879208
