data_functionalizedCrystal
_audit_creation_method	'MofGen! by Chris Wilmer'
_symmetry_space_group_name_H-M	'P1'
_symmetry_Int_Tables_number	1
_symmetry_cell_setting	triclinic
loop_
_symmetry_equiv_pos_as_xyz
  x,y,z
_cell_length_a	13.033293
_cell_length_b	15.297327
_cell_length_c	13.032268
_cell_angle_alpha	105.380838
_cell_angle_beta	89.079182
_cell_angle_gamma	107.951422
loop_
_atom_site_label
_atom_site_type_symbol
_atom_site_fract_x
_atom_site_fract_y
_atom_site_fract_z
Zn1	Zn	1.433187	-0.293358	-0.831942
Zn2	Zn	1.424778	-0.428862	-0.683276
Zn3	Zn	1.284155	-0.288378	-0.637261
Zn4	Zn	1.222283	-0.468169	-0.840077
O5	O	1.341101	-0.369692	-0.748139
O6	O	1.579187	-0.296966	-0.828074
O7	O	1.428499	-0.391692	-0.530076
O8	O	1.333337	-0.157087	-0.640423
O9	O	1.573009	-0.396521	-0.718850
O10	O	1.442830	-0.160745	-0.783454
O11	O	1.325184	-0.288480	-0.496268
O12	O	1.128832	-0.326594	-0.648312
O13	O	1.227885	-0.463514	-0.986095
O14	O	1.083375	-0.458686	-0.797320
O15	O	1.382835	-0.335081	-0.980117
O16	O	1.368504	-0.566028	-0.726738
O17	O	1.219732	-0.594907	-0.841940
C18	C	1.067958	-0.396366	-0.718707
C19	C	0.951097	-0.407803	-0.706144
C20	C	0.902019	-0.363746	-0.754699
C21	C	0.781237	-0.375566	-0.741717
C22	C	1.286517	-0.614681	-0.790241
C23	C	1.263256	-0.719484	-0.808298
C24	C	1.507726	-0.954637	-0.619488
C25	C	1.529580	-0.856169	-0.602517
C26	C	1.463002	-0.821993	-0.653961
C27	C	1.374564	-0.886294	-0.722379
C28	C	1.352702	-0.984772	-0.739345
C29	C	1.307978	-0.852128	-0.773818
C30	C	1.219540	-0.916429	-0.842235
C31	C	1.197682	-1.014897	-0.859199
C32	C	1.264261	-1.049073	-0.807755
C33	C	1.329839	-0.753650	-0.756852
C34	C	1.174815	-0.783785	-0.876708
C35	C	1.152961	-0.882253	-0.893679
C36	C	1.615310	-0.342914	-0.777687
C37	C	1.732162	-0.331503	-0.790279
C38	C	1.299396	-0.404238	-1.022313
C39	C	1.281624	-0.418959	-1.139149
C40	C	1.395923	-0.123746	-0.705899
C41	C	1.419285	-0.018938	-0.687898
C42	C	1.350367	-0.361976	-1.188281
C43	C	1.332001	-0.377190	-1.309038
C44	C	1.382719	-0.335206	-0.475027
C45	C	1.400753	-0.320199	-0.358167
H46	H	0.733842	-0.422037	-0.690529
C47	C	1.498640	-0.239070	-1.294229
N48	N	1.572369	-0.177966	-1.246071
H49	H	0.779558	-0.285025	-0.841458
H50	H	1.401846	-0.701304	-0.701145
H51	H	1.601585	-0.803818	-0.546812
H52	H	1.561919	-0.982473	-0.577603
H53	H	1.259540	-0.437237	-1.356368
H54	H	1.209168	-0.479002	-1.186483
H55	H	0.903698	-0.454270	-0.654960
C56	C	0.966050	-0.300963	-0.823841
N57	N	1.014278	-0.253672	-0.875920
C58	C	1.487062	-0.713675	-0.635311
N59	N	1.505195	-0.632085	-0.621271
H60	H	1.246474	-1.129253	-0.821571
H61	H	1.125660	-1.067249	-0.914895
C62	C	1.055674	-0.952997	-0.968927
N63	N	0.982395	-1.006281	-1.025601
H64	H	1.120599	-0.755961	-0.918596
C65	C	1.448245	-0.280849	-1.124337
N66	N	1.521969	-0.219742	-1.076175
