data_functionalizedCrystal
_audit_creation_method	'MofGen! by Chris Wilmer'
_symmetry_space_group_name_H-M	'P1'
_symmetry_Int_Tables_number	1
_symmetry_cell_setting	triclinic
loop_
_symmetry_equiv_pos_as_xyz
  x,y,z
_cell_length_a	10.686220
_cell_length_b	13.032721
_cell_length_c	10.685910
_cell_angle_alpha	86.639642
_cell_angle_beta	89.676032
_cell_angle_gamma	100.973619
loop_
_atom_site_label
_atom_site_type_symbol
_atom_site_fract_x
_atom_site_fract_y
_atom_site_fract_z
Zn1	Zn	1.936221	-0.254653	0.604177
Zn2	Zn	1.893451	-0.443447	0.425386
Zn3	Zn	1.706650	-0.281267	0.414856
Zn4	Zn	1.700095	-0.441427	0.650838
O5	O	1.809104	-0.355198	0.523814
O6	O	2.107544	-0.269404	0.565339
O7	O	1.853515	-0.433917	0.250406
O8	O	1.757746	-0.131698	0.416035
O9	O	2.076121	-0.408110	0.433982
O10	O	1.926411	-0.112144	0.555128
O11	O	1.716274	-0.314764	0.242669
O12	O	1.528784	-0.312805	0.461280
O13	O	1.746573	-0.404667	0.818232
O14	O	1.523968	-0.430474	0.634655
O15	O	1.920055	-0.267445	0.783950
O16	O	1.847159	-0.589217	0.479228
O17	O	1.705101	-0.587733	0.644866
C18	C	1.480482	-0.374309	0.551889
C19	C	1.339896	-0.382508	0.563933
C20	C	1.770814	-0.626338	0.568277
C21	C	1.754553	-0.742323	0.587330
C22	C	1.817663	-0.794724	0.513920
C23	C	1.800858	-0.914601	0.533611
C24	C	2.139009	-0.336014	0.495630
C25	C	2.279595	-0.327838	0.483620
C26	C	1.837354	-0.332862	0.847358
C27	C	1.849392	-0.323343	0.985232
C28	C	1.847581	-0.082996	0.479202
C29	C	1.863977	0.033000	0.460191
C30	C	1.780954	-0.377473	1.201534
C31	C	1.768922	-0.386997	1.063659
H32	H	1.283960	-0.435594	0.641906
O33	O	1.943473	-0.914687	0.367938
C34	C	2.158105	-0.872673	0.283972
C35	C	2.068227	-0.931948	0.388536
H36	H	2.258983	-0.886626	0.300574
H37	H	2.157643	-0.785300	0.284542
H38	H	2.124196	-0.902273	0.189327
H39	H	2.102071	-0.902437	0.483233
H40	H	2.068698	-1.019314	0.387854
H41	H	1.688085	-0.786207	0.664760
O42	O	1.942417	-0.249529	1.031009
C43	C	1.991986	-0.097684	1.152975
C44	C	1.886512	-0.181201	1.101189
H45	H	1.946828	-0.042432	1.209748
H46	H	2.050624	-0.051213	1.071799
H47	H	2.056607	-0.137632	1.215791
H48	H	1.821803	-0.141338	1.038391
H49	H	1.827969	-0.227666	1.182425
H50	H	1.734386	-0.958481	0.611046
H51	H	1.690821	-0.448778	1.025326
H52	H	1.335522	-0.274762	0.405645
H53	H	1.884142	-0.750841	0.436498
