data_functionalizedCrystal
_audit_creation_method	'MofGen! by Chris Wilmer'
_symmetry_space_group_name_H-M	'P1'
_symmetry_Int_Tables_number	1
_symmetry_cell_setting	triclinic
loop_
_symmetry_equiv_pos_as_xyz
  x,y,z
_cell_length_a	12.645331
_cell_length_b	12.645330
_cell_length_c	19.077569
_cell_angle_alpha	92.319435
_cell_angle_beta	92.310267
_cell_angle_gamma	90.018103
loop_
_atom_site_label
_atom_site_type_symbol
_atom_site_fract_x
_atom_site_fract_y
_atom_site_fract_z
Zn1	Zn	1.644749	-0.397978	0.397898
Zn2	Zn	1.978082	-0.064644	0.731231
Zn3	Zn	2.311415	0.268689	1.064564
Zn4	Zn	1.637527	-0.582376	0.280211
Zn5	Zn	1.970860	-0.249043	0.613544
Zn6	Zn	2.304193	0.084290	0.946878
Zn7	Zn	1.460360	-0.405128	0.280223
Zn8	Zn	1.793694	-0.071795	0.613557
Zn9	Zn	2.127027	0.261539	0.946890
Zn10	Zn	1.467444	-0.575202	0.397878
Zn11	Zn	1.800777	-0.241869	0.731211
Zn12	Zn	2.134111	0.091465	1.064544
O13	O	1.552520	-0.490171	0.339052
O14	O	1.885853	-0.156838	0.672386
O15	O	2.219187	0.176496	1.005719
O16	O	1.792138	-0.422449	0.382289
O17	O	2.125472	-0.089115	0.715623
O18	O	2.458805	0.244218	1.048956
O19	O	1.608038	-0.564859	0.181722
O20	O	1.941372	-0.231526	0.515055
O21	O	2.274705	0.101808	0.848388
O22	O	1.484878	-0.255831	0.295847
O23	O	1.818211	0.077502	0.629180
O24	O	2.151545	0.410835	0.962513
O25	O	1.786832	-0.557926	0.295826
O26	O	2.120166	-0.224592	0.629159
O27	O	2.453499	0.108741	0.962492
O28	O	1.620347	-0.250578	0.382301
O29	O	1.953681	0.082755	0.715635
O30	O	2.287014	0.416089	1.048968
O31	O	1.477875	-0.434635	0.181731
O32	O	1.811208	-0.101302	0.515064
O33	O	2.144542	0.232031	0.848397
O34	O	1.312953	-0.427679	0.295827
O35	O	1.646286	-0.094345	0.629161
O36	O	1.979619	0.238988	0.962494
O37	O	1.496951	-0.545698	0.496371
O38	O	1.830284	-0.212364	0.829705
O39	O	2.163617	0.120969	1.163038
O40	O	1.318157	-0.552631	0.382267
O41	O	1.651490	-0.219298	0.715601
O42	O	1.984824	0.114035	1.048934
O43	O	1.627216	-0.415492	0.496386
O44	O	1.960549	-0.082158	0.829719
O45	O	2.293882	0.251175	1.163053
O46	O	1.614907	-0.729773	0.295806
O47	O	1.948240	-0.396439	0.629139
O48	O	2.281574	-0.063106	0.962473
O49	O	1.489948	-0.724502	0.382255
O50	O	1.823281	-0.391168	0.715589
O51	O	2.156614	-0.057835	1.048922
C52	C	1.277090	-0.490153	0.339047
C53	C	1.610423	-0.156820	0.672380
C54	C	1.943757	0.176514	1.005714
C55	C	1.159261	-0.490170	0.339061
C56	C	1.492594	-0.156836	0.672395
C57	C	1.825927	0.176497	1.005728
C58	C	1.117684	-0.568922	0.393361
C59	C	1.451017	-0.235589	0.726695
C60	C	1.784350	0.097745	1.060028
C61	C	0.995114	-0.569269	0.393200
C62	C	1.328447	-0.235935	0.726533
C63	C	1.661780	0.097398	1.059867
C64	C	0.986824	-0.524496	0.264797
C65	C	1.320158	-0.191162	0.598131
C66	C	1.653491	0.142171	0.931464
C67	C	1.109442	-0.525056	0.265112
C68	C	1.442775	-0.191722	0.598445
C69	C	1.776108	0.141611	0.931778
C70	C	1.115281	-0.376957	0.358376
C71	C	1.448614	-0.043624	0.691710
C72	C	1.781947	0.289709	1.025043
C73	C	0.992774	-0.377477	0.360012
C74	C	1.326107	-0.044144	0.693345
C75	C	1.659440	0.289189	1.026678
C76	C	1.552442	-0.765601	0.339043
C77	C	1.885775	-0.432268	0.672376
C78	C	2.219109	-0.098935	1.005709
C79	C	1.552507	-0.883430	0.339062
C80	C	1.885840	-0.550097	0.672395
C81	C	2.219174	-0.216764	1.005729
C82	C	1.474243	-1.047712	0.393615
C83	C	1.807576	-0.714379	0.726948
C84	C	2.140910	-0.381045	1.060281
C85	C	1.473815	-0.925163	0.393439
C86	C	1.807149	-0.591830	0.726773
C87	C	2.140482	-0.258497	1.060106
C88	C	1.517785	-0.932506	0.264889
C89	C	1.851118	-0.599173	0.598222
C90	C	2.184451	-0.265840	0.931556
C91	C	1.517307	-1.055085	0.265220
C92	C	1.850640	-0.721751	0.598553
C93	C	2.183973	-0.388418	0.931887
C94	C	1.665956	-1.049370	0.358080
C95	C	1.999289	-0.716036	0.691414
C96	C	2.332623	-0.382703	1.024747
C97	C	1.665366	-0.926665	0.359702
C98	C	1.998699	-0.593331	0.693036
C99	C	2.332033	-0.259998	1.026369
C100	C	1.829026	-0.490190	0.339058
C101	C	2.162359	-0.156856	0.672392
C102	C	2.495692	0.176477	1.005725
C103	C	1.946856	-0.490198	0.339061
C104	C	2.280189	-0.156864	0.672394
C105	C	2.613522	0.176469	1.005727
C106	C	1.563679	-0.478997	0.522630
C107	C	1.897012	-0.145664	0.855964
C108	C	2.230346	0.187670	1.189297
C109	C	1.568434	-0.474235	0.600860
C110	C	1.901768	-0.140902	0.934194
C111	C	2.235101	0.192432	1.267527
C112	C	1.552628	-0.213664	0.339078
C113	C	1.885961	0.119669	0.672411
C114	C	2.219295	0.453002	1.005744
C115	C	1.552674	-0.095833	0.339088
C116	C	1.886007	0.237500	0.672422
C117	C	2.219341	0.570833	1.005755
C118	C	1.541465	-0.501225	0.156189
C119	C	1.874799	-0.167892	0.489522
C120	C	2.208132	0.165442	0.822855
C121	C	1.536915	-0.505688	0.077959
C122	C	1.870249	-0.172355	0.411292
C123	C	2.203582	0.160978	0.744626
C124	C	1.502848	-0.539784	0.637606
C125	C	1.836181	-0.206451	0.970940
C126	C	2.169514	0.126882	1.304273
C127	C	1.507325	-0.535310	0.711112
C128	C	1.840658	-0.201977	1.044445
C129	C	2.173991	0.131357	1.377778
C130	C	1.577384	-0.465281	0.747870
C131	C	1.910717	-0.131947	1.081203
C132	C	2.244050	0.201386	1.414536
C133	C	1.642977	-0.399729	0.711118
C134	C	1.976311	-0.066396	1.044452
C135	C	2.309644	0.266938	1.377785
C136	C	1.638505	-0.404209	0.637614
C137	C	1.971838	-0.070876	0.970948
C138	C	2.305172	0.262458	1.304281
C139	C	1.598037	-0.444617	0.967704
C140	C	1.931370	-0.111283	1.301037
C141	C	2.264703	0.222050	1.634371
C142	C	1.602502	-0.440139	1.041213
C143	C	1.935835	-0.106806	1.374546
C144	C	2.269169	0.226527	1.707880
C145	C	1.466850	-0.575722	1.041201
C146	C	1.800183	-0.242389	1.374535
C147	C	2.133517	0.090944	1.707868
C148	C	1.462380	-0.580192	0.967696
C149	C	1.795713	-0.246859	1.301029
C150	C	2.129046	0.086475	1.634363
C151	C	1.527977	-0.514644	0.930951
C152	C	1.861310	-0.181311	1.264284
C153	C	2.194644	0.152022	1.597618
N154	N	1.581959	-0.460703	0.823004
N155	N	1.915292	-0.127370	1.156337
N156	N	2.248626	0.205964	1.489671
N157	N	1.523406	-0.519228	0.855818
N158	N	1.856740	-0.185894	1.189151
N159	N	2.190073	0.147439	1.522485
H160	H	0.964982	-0.653077	0.380386
H161	H	1.298315	-0.319744	0.713719
H162	H	1.631649	0.013590	1.047052
H163	H	1.724444	-1.080757	0.318367
H164	H	2.057777	-0.747423	0.651700
H165	H	2.391111	-0.414090	0.985033
H166	H	1.691912	-0.350832	0.607697
H167	H	2.025246	-0.017499	0.941030
H168	H	2.358579	0.315835	1.274363
H169	H	1.413445	-0.629088	1.071127
H170	H	1.746778	-0.295754	1.404460
H171	H	2.080111	0.037579	1.737793
H172	H	0.968384	-0.547346	0.448256
H173	H	1.301718	-0.214013	0.781589
H174	H	1.635051	0.119321	1.114923
H175	H	1.572901	-0.905869	0.223153
H176	H	1.906234	-0.572536	0.556486
H177	H	2.239567	-0.239202	0.889819
H178	H	0.967024	-0.351687	0.414666
H179	H	1.300358	-0.018353	0.747999
H180	H	1.633691	0.314980	1.081332
H181	H	0.959938	-0.315347	0.323377
H182	H	1.293272	0.017986	0.656710
H183	H	1.626605	0.351319	0.990043
H184	H	1.141902	-0.318233	0.318831
H185	H	1.475235	0.015100	0.652164
H186	H	1.808568	0.348433	0.985498
H187	H	1.496059	-0.891686	0.448438
H188	H	1.829392	-0.558353	0.781772
H189	H	2.162725	-0.225019	1.115105
H190	H	1.727237	-0.898239	0.322880
H191	H	2.060570	-0.564905	0.656213
H192	H	2.393903	-0.231572	0.989547
H193	H	1.405347	-0.637234	0.937773
H194	H	1.738680	-0.303901	1.271106
H195	H	2.072014	0.029433	1.604439
H196	H	1.150535	-0.547203	0.448589
H197	H	1.483869	-0.213870	0.781922
H198	H	1.817202	0.119464	1.115255
H199	H	1.496324	-1.073790	0.448794
H200	H	1.829657	-0.740456	0.782127
H201	H	2.162990	-0.407123	1.115461
H202	H	1.445786	-0.596797	0.607683
H203	H	1.779119	-0.263464	0.941017
H204	H	2.112452	0.069869	1.274350
H205	H	1.147697	-0.652242	0.380702
H206	H	1.481030	-0.318908	0.714035
H207	H	1.814364	0.014425	1.047369
H208	H	1.137021	-0.607931	0.248786
H209	H	1.470354	-0.274598	0.582120
H210	H	1.803687	0.058735	0.915453
H211	H	1.136586	-0.470388	0.223266
H212	H	1.469920	-0.137055	0.556600
H213	H	1.803253	0.196278	0.889933
H214	H	1.435678	-0.902885	0.248509
H215	H	1.769012	-0.569552	0.581842
H216	H	2.102345	-0.236219	0.915175
H217	H	1.390881	-1.079364	0.381194
H218	H	1.724214	-0.746031	0.714527
H219	H	2.057547	-0.412697	1.047860
H220	H	0.955093	-0.606498	0.248194
H221	H	1.288426	-0.273165	0.581527
H222	H	1.621759	0.060169	0.914861
H223	H	1.434364	-1.084749	0.249131
H224	H	1.767697	-0.751415	0.582464
H225	H	2.101030	-0.418082	0.915797
H226	H	1.659549	-0.383103	1.071139
H227	H	1.992882	-0.049770	1.404473
H228	H	2.326215	0.283563	1.737806
H229	H	1.453918	-0.588688	0.741027
H230	H	1.787252	-0.255355	1.074360
H231	H	2.120585	0.077978	1.407694
H232	H	1.389924	-0.896689	0.380857
H233	H	1.723257	-0.563356	0.714191
H234	H	2.056590	-0.230023	1.047524
H235	H	0.955172	-0.469092	0.223229
H236	H	1.288506	-0.135759	0.556562
H237	H	1.621839	0.197574	0.889895
H238	H	1.691470	-0.894216	0.414290
H239	H	2.024803	-0.560882	0.747623
H240	H	2.358136	-0.227549	1.080956
H241	H	1.651451	-0.391244	0.937795
H242	H	1.984785	-0.057910	1.271128
H243	H	2.318118	0.275423	1.604462
H244	H	1.571711	-1.087280	0.223209
H245	H	1.905044	-0.753946	0.556542
H246	H	2.238377	-0.420613	0.889875
H247	H	1.149449	-0.346502	0.411617
H248	H	1.482783	-0.013168	0.744950
H249	H	1.816116	0.320165	1.078283
H250	H	1.696755	-1.077001	0.411248
H251	H	2.030089	-0.743667	0.744581
H252	H	2.363422	-0.410334	1.077914
H253	H	1.700026	-0.342714	0.741053
H254	H	2.033359	-0.009381	1.074386
H255	H	2.366692	0.323952	1.407719
