data_functionalizedCrystal
_audit_creation_method	'MofGen! by Chris Wilmer'
_symmetry_space_group_name_H-M	'P1'
_symmetry_Int_Tables_number	1
_symmetry_cell_setting	triclinic
loop_
_symmetry_equiv_pos_as_xyz
  x,y,z
_cell_length_a	13.930277
_cell_length_b	10.654541
_cell_length_c	10.654545
_cell_angle_alpha	84.484678
_cell_angle_beta	89.997821
_cell_angle_gamma	89.994130
loop_
_atom_site_label
_atom_site_type_symbol
_atom_site_fract_x
_atom_site_fract_y
_atom_site_fract_z
O1	O	0.079796	-1.667850	-0.176384
O2	O	0.079804	-1.302371	-0.193193
O3	O	0.079799	-1.493512	-0.002049
O4	O	0.079801	-1.476708	-0.367527
O5	O	-0.079863	-1.493486	-0.002044
O6	O	-0.079858	-1.302344	-0.193188
O7	O	-0.079866	-1.667823	-0.176379
Zn8	Zn	-0.105212	-1.485079	-0.184783
Zn9	Zn	0.105150	-1.485114	-0.184789
O10	O	-0.079861	-1.476681	-0.367523
C11	C	-0.000026	-1.255559	-0.191957
C12	C	-0.000023	-1.116116	-0.188266
N13	N	-0.248778	-1.485064	-0.184779
C14	C	-0.000030	-1.492265	0.044751
C15	C	-0.000024	-1.488572	0.184195
C16	C	-0.701045	-1.400473	-0.269394
C17	C	-0.701019	-1.569790	-0.100174
C18	C	-0.600523	-1.569775	-0.100170
C19	C	-0.550283	-1.485109	-0.184781
C20	C	-0.600540	-1.400458	-0.269395
C21	C	-0.550259	-1.654433	-0.015566
C22	C	-0.449757	-1.654423	-0.015560
C23	C	-0.399516	-1.569750	-0.100165
C24	C	-0.449778	-1.485094	-0.184782
C25	C	-0.399539	-1.400428	-0.269392
C26	C	-0.449800	-1.315766	-0.354004
C27	C	-0.550299	-1.315785	-0.354000
C28	C	-0.299017	-1.569730	-0.100168
C29	C	-0.299034	-1.400413	-0.269393
N30	N	0.248716	-1.485139	-0.184784
C31	C	-0.000034	-1.714634	-0.177615
C32	C	-0.000031	-1.854078	-0.181306
C33	C	-0.000010	-1.088146	-0.416831
C34	C	0.000001	-1.008652	-0.529374
C35	C	0.000002	-0.877634	-0.525898
C36	C	-0.000011	-0.826108	-0.409867
C37	C	-0.000021	-0.905602	-0.297324
C38	C	-0.000019	-1.036622	-0.300812
C39	C	-0.000041	-0.933572	-0.068763
C40	C	-0.000035	-1.064590	-0.072235
C41	C	-0.000054	-0.882046	0.047269
C42	C	-0.000057	-0.961540	0.159814
C43	C	-0.000057	-1.092565	0.156334
C44	C	-0.000046	-1.144084	0.040308
C45	C	-0.000030	-1.477929	-0.414323
C46	C	-0.000029	-1.481621	-0.553766
C47	C	0.174044	-1.488617	0.184198
C48	C	0.261078	-1.486909	0.249710
C49	C	0.261079	-1.483440	0.380729
C50	C	0.174037	-1.481675	0.446238
C51	C	0.087003	-1.483383	0.380727
C52	C	0.087012	-1.486855	0.249705
C53	C	-0.087063	-1.483329	0.380722
C54	C	-0.087066	-1.486807	0.249704
C55	C	-0.174105	-1.481564	0.446231
C56	C	-0.261141	-1.483281	0.380721
C57	C	-0.261138	-1.486752	0.249694
C58	C	-0.174100	-1.488515	0.184192
H59	H	-0.408883	-1.246836	-0.422900
O60	O	0.174092	-1.491773	0.056901
C61	C	0.221870	-1.384391	-0.000154
H62	H	0.220345	-1.306494	0.066063
H63	H	0.184376	-1.350259	-0.092266
H64	H	0.299521	-1.409585	-0.020398
H65	H	0.174046	-1.478835	0.552919
O66	O	-0.599082	-1.233382	-0.436060
C67	C	-0.574536	-1.108880	-0.414508
H68	H	-0.546908	-1.107390	-0.313951
H69	H	-0.640644	-1.045997	-0.428361
H70	H	-0.516210	-1.072577	-0.483784
H71	H	0.000003	-0.812909	-0.617541
O72	O	-0.750010	-1.318358	-0.351537
C73	C	-0.849488	-1.336493	-0.333375
H74	H	-0.863205	-1.435933	-0.287362
H75	H	-0.887682	-1.323345	-0.428357
H76	H	-0.878016	-1.264866	-0.269721
O77	O	0.000059	-0.911636	0.272591
C78	C	0.082760	-0.952130	0.341258
H79	H	0.110337	-1.043286	0.306245
H80	H	0.064158	-0.969397	0.445687
H81	H	0.140659	-0.876455	0.327371
H82	H	0.331949	-1.482037	0.434067
H83	H	-0.000022	-0.719425	-0.407048
O84	O	0.000062	-1.169911	0.265577
C85	C	0.082766	-1.246520	0.270433
H86	H	0.110345	-1.254014	0.170692
H87	H	0.064166	-1.344567	0.316356
H88	H	0.140661	-1.202930	0.328177
O89	O	0.000077	-0.754796	0.050807
C90	C	0.082775	-0.718711	0.114642
H91	H	0.110332	-0.802386	0.179371
H92	H	0.064177	-0.637929	0.173150
H93	H	0.140687	-0.686639	0.043025
H94	H	-0.741927	-1.638729	-0.031293
O95	O	-0.174219	-1.491716	0.056901
C96	C	-0.221922	-1.384261	-0.000150
H97	H	-0.272742	-1.346048	0.070924
H98	H	-0.264707	-1.410983	-0.084824
H99	H	-0.166893	-1.308864	-0.032685
O100	O	0.000083	-1.271334	0.036766
C101	C	0.082791	-1.307451	-0.027046
H102	H	0.110369	-1.223786	-0.091763
H103	H	0.064199	-1.388222	-0.085564
H104	H	0.140685	-1.339552	0.044588
O105	O	0.345647	-1.488410	0.186093
C106	C	0.398628	-1.379020	0.204842
H107	H	0.347720	-1.302151	0.231581
H108	H	0.438106	-1.344880	0.114214
H109	H	0.452899	-1.401574	0.283887
H110	H	-0.258135	-1.331463	-0.338289
H111	H	-0.174098	-1.478732	0.552913
O112	O	-0.345598	-1.481614	0.444554
C113	C	-0.326933	-1.478138	0.574236
H114	H	-0.252138	-1.517375	0.596983
H115	H	-0.382522	-1.537663	0.631483
H116	H	-0.331048	-1.376569	0.599105
O117	O	-0.599111	-1.736490	0.066742
C118	C	-0.657269	-1.668552	0.144820
H119	H	-0.626982	-1.569497	0.147862
H120	H	-0.658419	-1.718924	0.244171
H121	H	-0.733432	-1.662300	0.105564
H122	H	-0.332012	-1.488123	0.196360
H123	H	-0.408841	-1.723357	0.053336
O124	O	-0.250046	-1.651941	-0.018136
C125	C	-0.150569	-1.633763	-0.036266
H126	H	-0.136854	-1.587642	-0.135666
H127	H	-0.112368	-1.728751	-0.023231
H128	H	-0.122047	-1.570200	0.035437
O129	O	-0.000130	-1.215435	-0.420049
C130	C	-0.082837	-1.266872	-0.358568
H131	H	-0.110419	-1.199535	-0.289835
H132	H	-0.064241	-1.361401	-0.304712
H133	H	-0.140730	-1.281275	-0.431438
O134	O	0.000182	-1.058768	-0.642049
C135	C	0.082860	-1.133756	-0.650880
H136	H	0.140652	-1.102216	-0.584976
H137	H	0.110623	-1.122881	-0.751995
H138	H	0.064161	-1.236806	-0.622814
