data_functionalizedCrystal
_audit_creation_method	'MofGen! by Chris Wilmer'
_symmetry_space_group_name_H-M	'P1'
_symmetry_Int_Tables_number	1
_symmetry_cell_setting	triclinic
loop_
_symmetry_equiv_pos_as_xyz
  x,y,z
_cell_length_a	11.792241
_cell_length_b	23.532407
_cell_length_c	10.868271
_cell_angle_alpha	89.990218
_cell_angle_beta	89.999893
_cell_angle_gamma	83.521047
loop_
_atom_site_label
_atom_site_type_symbol
_atom_site_fract_x
_atom_site_fract_y
_atom_site_fract_z
O1	O	1.505071	0.078055	-0.102217
O2	O	2.005071	0.578055	0.397783
O3	O	1.174541	0.086099	-0.102247
O4	O	1.674541	0.586099	0.397753
O5	O	1.349773	-0.000796	-0.102208
O6	O	1.849773	0.499204	0.397792
O7	O	1.329839	0.164950	-0.102255
O8	O	1.829839	0.664950	0.397745
O9	O	1.349759	-0.000799	0.102436
O10	O	1.849759	0.499201	0.602436
O11	O	1.174526	0.086096	0.102398
O12	O	1.674526	0.586096	0.602398
O13	O	1.505057	0.078051	0.102428
O14	O	2.005057	0.578051	0.602428
Zn15	Zn	1.339789	0.082073	0.134905
Zn16	Zn	1.839789	0.582073	0.634905
Zn17	Zn	1.339808	0.082078	-0.134723
Zn18	Zn	1.839808	0.582078	0.365277
O19	O	1.329824	0.164946	0.102390
O20	O	1.829824	0.664946	0.602390
C21	C	1.132254	0.085592	0.000072
C22	C	1.632254	0.585592	0.500072
C23	C	1.006276	0.084080	0.000062
C24	C	1.506276	0.584080	0.500062
C25	C	0.775630	0.081299	0.000098
C26	C	1.275630	0.581299	0.500098
C27	C	0.903978	0.082844	0.000078
C28	C	1.403978	0.582844	0.500078
C29	C	1.349258	-0.022016	0.000117
C30	C	1.849258	0.477984	0.500117
C31	C	1.347732	-0.085242	0.000127
C32	C	1.847732	0.414758	0.500127
C33	C	1.441858	-0.483788	0.000068
C34	C	1.941858	0.016212	0.500068
C35	C	1.440440	-0.543196	0.000058
C36	C	1.940440	-0.043196	0.500058
O37	O	1.527696	-0.579424	0.000021
O38	O	2.027696	-0.079424	0.500021
N39	N	1.336265	-0.566440	0.000050
N40	N	1.836265	-0.066440	0.500050
C41	C	1.233500	-0.530271	0.000038
C42	C	1.733500	-0.030271	0.500038
O43	O	1.144761	-0.555497	0.000029
O44	O	1.644761	-0.055497	0.500029
C45	C	1.234919	-0.470864	0.000039
C46	C	1.734919	0.029136	0.500039
C47	C	1.339102	-0.447624	0.000060
C48	C	1.839102	0.052376	0.500060
C49	C	1.546032	-0.460547	0.000087
C50	C	2.046032	0.039453	0.500087
C51	C	1.547449	-0.401142	0.000099
C52	C	2.047449	0.098858	0.500099
C53	C	1.444693	-0.364979	0.000091
C54	C	1.944693	0.135021	0.500091
C55	C	1.340519	-0.388219	0.000072
C56	C	1.840519	0.111781	0.500072
C57	C	1.132156	-0.434696	0.000018
C58	C	1.632156	0.065304	0.500018
C59	C	1.133584	-0.375285	0.000018
C60	C	1.633584	0.124715	0.500018
C61	C	1.237766	-0.352045	0.000039
C62	C	1.737766	0.147955	0.500039
C63	C	1.239180	-0.292651	0.000075
C64	C	1.739180	0.207349	0.500075
N65	N	1.343355	-0.269407	0.000084
N66	N	1.843355	0.230593	0.500084
C67	C	1.446112	-0.305571	0.000092
C68	C	1.946112	0.194429	0.500092
C69	C	1.230528	-0.655031	0.000034
C70	C	1.730528	-0.155031	0.500034
C71	C	1.229108	-0.714438	0.000043
C72	C	1.729108	-0.214438	0.500043
C73	C	1.436049	-0.727359	0.000061
C74	C	1.936049	-0.227359	0.500061
C75	C	1.437468	-0.667951	0.000061
C76	C	1.937468	-0.167951	0.500061
C77	C	1.334704	-0.631788	0.000043
C78	C	1.834704	-0.131788	0.500043
C79	C	1.449080	-0.180817	0.000118
C80	C	1.949080	0.319183	0.500118
C81	C	1.450489	-0.121406	0.000135
C82	C	1.950489	0.378594	0.500135
C83	C	1.243549	-0.108491	0.000110
C84	C	1.743549	0.391509	0.500110
C85	C	1.242140	-0.167896	0.000100
C86	C	1.742140	0.332104	0.500100
C87	C	1.344915	-0.204058	0.000099
C88	C	1.844915	0.295942	0.500099
O89	O	1.151970	-0.256388	0.000108
O90	O	1.651970	0.243612	0.500108
O91	O	1.534837	-0.280337	0.000085
O92	O	2.034837	0.219663	0.500085
C93	C	1.547343	0.078558	0.000107
C94	C	2.047343	0.578558	0.500107
C95	C	1.673321	0.080071	0.000109
C96	C	2.173321	0.580071	0.500109
C97	C	1.330339	0.186167	0.000061
C98	C	1.830339	0.686167	0.500061
C99	C	1.331865	0.249393	0.000044
C100	C	1.831865	0.749393	0.500044
N101	N	1.339785	0.082070	0.318919
N102	N	1.839785	0.582070	0.818919
N103	N	1.339822	0.082077	-0.318737
N104	N	1.839822	0.582077	0.181263
C105	C	1.339802	0.082076	0.569925
C106	C	1.839802	0.582076	1.069925
C107	C	1.339789	0.082074	0.430247
C108	C	1.839789	0.582074	0.930247
H109	H	1.532770	-0.210254	0.000113
H110	H	2.032770	0.289746	0.500113
H111	H	1.146840	-0.625590	0.000030
H112	H	1.646840	-0.125590	0.500030
C113	C	1.019076	-0.459952	0.000233
C114	C	1.519076	0.040048	0.500233
C115	C	1.012164	-0.493679	0.105523
C116	C	1.512164	0.006321	0.605523
C117	C	0.908000	-0.516947	0.105766
C118	C	1.408000	-0.016947	0.605766
H119	H	1.014120	-0.482888	-0.071055
H120	H	1.514120	0.017112	0.428945
H121	H	0.958056	-0.429915	0.000286
H122	H	1.458056	0.070085	0.500286
H123	H	1.073168	-0.523712	0.105459
H124	H	1.573168	-0.023712	0.605459
H125	H	1.017100	-0.470756	0.176828
H126	H	1.517100	0.029244	0.676828
H127	H	0.846979	-0.486910	0.105818
H128	H	1.346979	0.013090	0.605818
H129	H	0.903053	-0.539881	0.034473
H130	H	1.403053	-0.039881	0.534473
H131	H	0.903292	-0.539829	0.177208
H132	H	1.403292	-0.039829	0.677208
C133	C	1.563724	-0.096285	0.000089
C134	C	2.063724	0.403715	0.500089
C135	C	1.653406	-0.140676	0.000056
C136	C	2.153406	0.359324	0.500056
C137	C	1.757730	-0.117559	-0.000006
C138	C	2.257730	0.382441	0.499994
H139	H	1.568741	-0.073395	0.071437
H140	H	2.068741	0.426605	0.571437
H141	H	1.568646	-0.073388	-0.071300
H142	H	2.068646	0.426612	0.428700
H143	H	1.648486	-0.163564	0.071437
H144	H	2.148486	0.336436	0.571437
H145	H	1.648426	-0.163570	-0.071288
H146	H	2.148426	0.336430	0.428712
H147	H	1.762652	-0.094661	-0.071395
H148	H	2.262652	0.405339	0.428605
H149	H	1.762735	-0.094669	0.071344
H150	H	2.262735	0.405331	0.571344
H151	H	1.818591	-0.147674	-0.000040
H152	H	2.318591	0.352326	0.499960
C153	C	1.660448	-0.375805	0.000162
C154	C	2.160448	0.124195	0.500162
C155	C	1.639720	-0.316038	0.000191
C156	C	2.139720	0.183962	0.500191
C157	C	1.743792	-0.292683	0.000258
C158	C	2.243792	0.207317	0.500258
H159	H	1.702808	-0.388132	-0.071184
H160	H	2.202808	0.111868	0.428816
H161	H	1.702739	-0.388173	0.071554
H162	H	2.202739	0.111827	0.571554
H163	H	1.597447	-0.303675	-0.071193
H164	H	2.097447	0.196325	0.428807
H165	H	1.597377	-0.303695	0.071532
H166	H	2.097377	0.196305	0.571532
H167	H	1.786083	-0.305050	0.071650
H168	H	2.286083	0.194950	0.571650
H169	H	1.786144	-0.305013	-0.071089
H170	H	2.286144	0.194987	0.428911
H171	H	1.729743	-0.252128	0.000289
H172	H	2.229743	0.247872	0.500289
H173	H	1.629714	-0.489986	0.000089
H174	H	2.129714	0.010014	0.500089
H175	H	1.159887	-0.079035	0.000108
H176	H	1.659887	0.420965	0.500108
H177	H	1.522302	-0.649034	0.000077
H178	H	2.022302	-0.149034	0.500077
H179	H	1.519719	-0.756814	0.000062
H180	H	2.019719	-0.256814	0.500062
C181	C	1.022128	-0.335928	-0.000059
C182	C	1.522128	0.164072	0.499941
C183	C	1.045656	-0.278925	-0.000078
C184	C	1.545656	0.221075	0.499922
C185	C	0.943014	-0.242655	-0.000162
C186	C	1.443014	0.257345	0.499838
H187	H	0.979292	-0.342944	0.071277
H188	H	1.479292	0.157056	0.571277
H189	H	0.979384	-0.342969	-0.071460
H190	H	1.479384	0.157031	0.428540
H191	H	1.088382	-0.271886	0.071316
H192	H	1.588382	0.228114	0.571316
H193	H	1.088476	-0.271891	-0.071409
H194	H	1.588476	0.228109	0.428591
H195	H	0.900269	-0.249696	-0.071564
H196	H	1.400269	0.250304	0.428436
H197	H	0.900185	-0.249676	0.071175
H198	H	1.400185	0.250324	0.571175
H199	H	0.958963	-0.203975	-0.000187
H200	H	1.458963	0.296025	0.499813
H201	H	1.144273	-0.733354	0.000047
H202	H	1.644273	-0.233354	0.500047
H203	H	1.157306	-0.186819	0.000117
H204	H	1.657306	0.313181	0.500117
