data_functionalizedCrystal
_audit_creation_method	'MofGen! by Chris Wilmer'
_symmetry_space_group_name_H-M	'P1'
_symmetry_Int_Tables_number	1
_symmetry_cell_setting	triclinic
loop_
_symmetry_equiv_pos_as_xyz
  x,y,z
_cell_length_a	23.532407
_cell_length_b	23.532407
_cell_length_c	22.010155
_cell_angle_alpha	89.999577
_cell_angle_beta	89.996931
_cell_angle_gamma	82.848678
loop_
_atom_site_label
_atom_site_type_symbol
_atom_site_fract_x
_atom_site_fract_y
_atom_site_fract_z
O1	O	0.755264	0.069127	-0.050455
O2	O	1.005264	0.319127	0.199545
O3	O	1.255264	0.569127	0.449545
O4	O	1.505264	0.819127	0.699545
O5	O	0.589400	0.079130	-0.050474
O6	O	0.839400	0.329130	0.199526
O7	O	1.089400	0.579130	0.449526
O8	O	1.339400	0.829130	0.699526
O9	O	0.677334	-0.008803	-0.050453
O10	O	0.927334	0.241197	0.199547
O11	O	1.177334	0.491197	0.449547
O12	O	1.427334	0.741197	0.699547
O13	O	0.667330	0.157060	-0.050476
O14	O	0.917330	0.407060	0.199524
O15	O	1.167330	0.657060	0.449524
O16	O	1.417330	0.907060	0.699524
O17	O	0.677318	-0.008790	0.050597
O18	O	0.927318	0.241210	0.300597
O19	O	1.177318	0.491210	0.550597
O20	O	1.427318	0.741210	0.800597
O21	O	0.589384	0.079143	0.050576
O22	O	0.839384	0.329143	0.300576
O23	O	1.089384	0.579143	0.550576
O24	O	1.339384	0.829143	0.800576
O25	O	0.755248	0.069140	0.050595
O26	O	1.005248	0.319140	0.300595
O27	O	1.255248	0.569140	0.550595
O28	O	1.505248	0.819140	0.800595
Cu29	Cu	0.672315	0.074143	0.059812
Cu30	Cu	0.922315	0.324143	0.309812
Cu31	Cu	1.172315	0.574143	0.559812
Cu32	Cu	1.422315	0.824143	0.809812
Cu33	Cu	0.672333	0.074127	-0.059691
Cu34	Cu	0.922333	0.324127	0.190309
Cu35	Cu	1.172333	0.574127	0.440309
Cu36	Cu	1.422333	0.824127	0.690309
O37	O	0.667314	0.157073	0.050574
O38	O	0.917314	0.407073	0.300574
O39	O	1.167314	0.657073	0.550574
O40	O	1.417314	0.907073	0.800574
C41	C	0.568176	0.078882	0.000049
C42	C	0.818176	0.328882	0.250049
C43	C	1.068176	0.578882	0.500049
C44	C	1.318176	0.828882	0.750049
C45	C	0.504959	0.078116	0.000042
C46	C	0.754959	0.328116	0.250042
C47	C	1.004959	0.578116	0.500042
C48	C	1.254959	0.828116	0.750042
C49	C	0.677071	-0.030013	0.000074
C50	C	0.927071	0.219987	0.250074
C51	C	1.177071	0.469987	0.500074
C52	C	1.427071	0.719987	0.750074
C53	C	0.676305	-0.093230	0.000078
C54	C	0.926305	0.156770	0.250078
C55	C	1.176305	0.406770	0.500078
C56	C	1.426305	0.656770	0.750078
C57	C	0.105856	0.125350	0.000063
C58	C	0.355856	0.375350	0.250063
C59	C	0.605856	0.625350	0.500063
C60	C	0.855856	0.875350	0.750063
C61	C	0.046456	0.124638	0.000067
C62	C	0.296456	0.374638	0.250067
C63	C	0.546456	0.624638	0.500067
C64	C	0.796456	0.874638	0.750067
O65	O	0.009711	0.168424	0.000083
O66	O	0.259711	0.418424	0.250083
O67	O	0.509711	0.668424	0.500083
O68	O	0.759711	0.918424	0.750083
N69	N	0.023830	0.072362	0.000073
N70	N	0.273830	0.322362	0.250073
N71	N	0.523830	0.572362	0.500073
N72	N	0.773830	0.822362	0.750073
C73	C	0.060607	0.020794	0.000082
C74	C	0.310607	0.270794	0.250082
C75	C	0.560607	0.520794	0.500082
C76	C	0.810607	0.770794	0.750082
O77	O	0.035908	-0.023737	0.000088
O78	O	0.285908	0.226263	0.250088
O79	O	0.535908	0.476263	0.500088
O80	O	0.785908	0.726263	0.750088
C81	C	0.120006	0.021506	0.000082
C82	C	0.370006	0.271506	0.250082
C83	C	0.620006	0.521506	0.500082
C84	C	0.870006	0.771506	0.750082
C85	C	0.142629	0.073785	0.000070
C86	C	0.392629	0.323785	0.250070
C87	C	0.642629	0.573785	0.500070
C88	C	0.892629	0.823785	0.750070
C89	C	0.128479	0.177625	0.000051
C90	C	0.378479	0.427625	0.250051
C91	C	0.628479	0.677625	0.500051
C92	C	0.878479	0.927625	0.750051
C93	C	0.187876	0.178336	0.000046
C94	C	0.437876	0.428336	0.250046
C95	C	0.687876	0.678336	0.500046
C96	C	0.937876	0.928336	0.750046
C97	C	0.224649	0.126772	0.000053
C98	C	0.474649	0.376772	0.250053
C99	C	0.724649	0.626772	0.500053
C100	C	0.974649	0.876772	0.750053
C101	C	0.202025	0.074497	0.000065
C102	C	0.452025	0.324497	0.250065
C103	C	0.702025	0.574497	0.500065
C104	C	0.952025	0.824497	0.750065
C105	C	0.156783	-0.030062	0.000096
C106	C	0.406783	0.219938	0.250096
C107	C	0.656783	0.469938	0.500096
C108	C	0.906783	0.719938	0.750096
C109	C	0.216185	-0.029345	0.000097
C110	C	0.466185	0.220655	0.250097
C111	C	0.716185	0.470655	0.500097
C112	C	0.966185	0.720655	0.750097
C113	C	0.238808	0.022934	0.000084
C114	C	0.488808	0.272934	0.250084
C115	C	0.738808	0.522934	0.500084
C116	C	0.988808	0.772934	0.750084
C117	C	0.298194	0.023643	0.000067
C118	C	0.548194	0.273643	0.250067
C119	C	0.798194	0.523643	0.500067
C120	C	1.048194	0.773643	0.750067
N121	N	0.320820	0.075920	0.000061
N122	N	0.570820	0.325920	0.250061
N123	N	0.820820	0.575920	0.500061
N124	N	1.070820	0.825920	0.750061
C125	C	0.284048	0.127484	0.000054
C126	C	0.534048	0.377484	0.250054
C127	C	0.784048	0.627484	0.500054
C128	C	1.034048	0.877484	0.750054
C129	C	-0.064135	0.019302	0.000082
C130	C	0.185865	0.269302	0.250082
C131	C	0.435865	0.519302	0.500082
C132	C	0.685865	0.769302	0.750082
C133	C	-0.123533	0.018589	0.000077
C134	C	0.126467	0.268589	0.250077
C135	C	0.376467	0.518589	0.500077
C136	C	0.626467	0.768589	0.750077
C137	C	-0.137680	0.122434	0.000063
C138	C	0.112320	0.372434	0.250063
C139	C	0.362320	0.622434	0.500063
C140	C	0.612320	0.872434	0.750063
C141	C	-0.078281	0.123146	0.000064
C142	C	0.171719	0.373146	0.250064
C143	C	0.421719	0.623146	0.500064
C144	C	0.671719	0.873146	0.750064
C145	C	-0.041509	0.071578	0.000076
C146	C	0.208491	0.321578	0.250076
C147	C	0.458491	0.571578	0.500076
C148	C	0.708491	0.821578	0.750076
C149	C	0.408784	0.128974	0.000043
C150	C	0.658784	0.378974	0.250043
C151	C	0.908784	0.628974	0.500043
C152	C	1.158784	0.878974	0.750043
C153	C	0.468186	0.129680	0.000035
C154	C	0.718186	0.379680	0.250035
C155	C	0.968186	0.629680	0.500035
C156	C	1.218186	0.879680	0.750035
C157	C	0.482329	0.025836	0.000052
C158	C	0.732329	0.275836	0.250052
C159	C	0.982329	0.525836	0.500052
C160	C	1.232329	0.775836	0.750052
C161	C	0.422932	0.025129	0.000057
C162	C	0.672932	0.275129	0.250057
C163	C	0.922932	0.525129	0.500057
C164	C	1.172932	0.775129	0.750057
C165	C	0.386160	0.076702	0.000054
C166	C	0.636160	0.326702	0.250054
C167	C	0.886160	0.576702	0.500054
C168	C	1.136160	0.826702	0.750054
O169	O	0.334974	-0.020119	0.000054
O170	O	0.584974	0.229881	0.250054
O171	O	0.834974	0.479881	0.500054
O172	O	1.084974	0.729881	0.750054
O173	O	0.308755	0.172007	0.000055
O174	O	0.558755	0.422007	0.250055
O175	O	0.808755	0.672007	0.500055
O176	O	1.058755	0.922007	0.750055
C177	C	0.723539	-0.492333	0.000050
C178	C	0.973539	-0.242333	0.250050
C179	C	1.223539	0.007667	0.500050
C180	C	1.473539	0.257667	0.750050
C181	C	0.722827	-0.551733	0.000046
C182	C	0.972827	-0.301733	0.250046
C183	C	1.222827	-0.051733	0.500046
C184	C	1.472827	0.198267	0.750046
O185	O	0.766613	-0.588478	0.000028
O186	O	1.016613	-0.338478	0.250028
O187	O	1.266613	-0.088478	0.500028
O188	O	1.516613	0.161522	0.750028
N189	N	0.670551	-0.574359	0.000040
N190	N	0.920551	-0.324359	0.250040
N191	N	1.170551	-0.074359	0.500040
N192	N	1.420551	0.175641	0.750040
C193	C	0.618983	-0.537582	0.000033
C194	C	0.868983	-0.287582	0.250033
C195	C	1.118983	-0.037582	0.500033
C196	C	1.368983	0.212418	0.750033
O197	O	0.574452	-0.562281	0.000027
O198	O	0.824452	-0.312281	0.250027
O199	O	1.074452	-0.062281	0.500027
O200	O	1.324452	0.187719	0.750027
C201	C	0.619695	-0.478182	0.000033
C202	C	0.869695	-0.228182	0.250033
C203	C	1.119695	0.021818	0.500033
C204	C	1.369695	0.271818	0.750033
C205	C	0.671974	-0.455560	0.000045
C206	C	0.921974	-0.205560	0.250045
C207	C	1.171974	0.044440	0.500045
C208	C	1.421974	0.294440	0.750045
C209	C	0.775814	-0.469710	0.000061
C210	C	1.025814	-0.219710	0.250061
C211	C	1.275814	0.030290	0.500061
C212	C	1.525814	0.280290	0.750061
C213	C	0.776525	-0.410313	0.000067
C214	C	1.026525	-0.160313	0.250067
C215	C	1.276525	0.089687	0.500067
C216	C	1.526525	0.339687	0.750067
C217	C	0.724961	-0.373540	0.000062
C218	C	0.974961	-0.123540	0.250062
C219	C	1.224961	0.126460	0.500062
C220	C	1.474961	0.376460	0.750062
C221	C	0.672685	-0.396164	0.000051
C222	C	0.922685	-0.146164	0.250051
C223	C	1.172685	0.103836	0.500051
C224	C	1.422685	0.353836	0.750051
C225	C	0.568127	-0.441406	0.000022
C226	C	0.818127	-0.191406	0.250022
C227	C	1.068127	0.058594	0.500022
C228	C	1.318127	0.308594	0.750022
C229	C	0.568844	-0.382004	0.000022
C230	C	0.818844	-0.132004	0.250022
C231	C	1.068844	0.117996	0.500022
C232	C	1.318844	0.367996	0.750022
C233	C	0.621123	-0.359381	0.000034
C234	C	0.871123	-0.109381	0.250034
C235	C	1.121123	0.140619	0.500034
C236	C	1.371123	0.390619	0.750034
C237	C	0.621832	-0.299995	0.000052
C238	C	0.871832	-0.049995	0.250052
C239	C	1.121832	0.200005	0.500052
C240	C	1.371832	0.450005	0.750052
N241	N	0.674109	-0.277368	0.000057
N242	N	0.924109	-0.027368	0.250057
N243	N	1.174109	0.222632	0.500057
N244	N	1.424109	0.472632	0.750057
C245	C	0.725673	-0.314141	0.000062
C246	C	0.975673	-0.064141	0.250062
C247	C	1.225673	0.185859	0.500062
C248	C	1.475673	0.435859	0.750062
C249	C	0.617491	-0.662324	0.000031
C250	C	0.867491	-0.412324	0.250031
C251	C	1.117491	-0.162324	0.500031
C252	C	1.367491	0.087676	0.750031
C253	C	0.616778	-0.721722	0.000035
C254	C	0.866778	-0.471722	0.250035
C255	C	1.116778	-0.221722	0.500035
C256	C	1.366778	0.028278	0.750035
C257	C	0.720623	-0.735869	0.000047
C258	C	0.970623	-0.485869	0.250047
C259	C	1.220623	-0.235869	0.500047
C260	C	1.470623	0.014131	0.750047
C261	C	0.721335	-0.676470	0.000047
C262	C	0.971335	-0.426470	0.250047
C263	C	1.221335	-0.176470	0.500047
C264	C	1.471335	0.073530	0.750047
C265	C	0.669767	-0.639698	0.000037
C266	C	0.919767	-0.389698	0.250037
C267	C	1.169767	-0.139698	0.500037
C268	C	1.419767	0.110302	0.750037
C269	C	0.727163	-0.189405	0.000075
C270	C	0.977163	0.060595	0.250075
C271	C	1.227163	0.310595	0.500075
C272	C	1.477163	0.560595	0.750075
C273	C	0.727869	-0.130003	0.000083
C274	C	0.977869	0.119997	0.250083
C275	C	1.227869	0.369997	0.500083
C276	C	1.477869	0.619997	0.750083
C277	C	0.624025	-0.115860	0.000069
C278	C	0.874025	0.134140	0.250069
C279	C	1.124025	0.384140	0.500069
C280	C	1.374025	0.634140	0.750069
C281	C	0.623318	-0.175257	0.000064
C282	C	0.873318	0.074743	0.250064
C283	C	1.123318	0.324743	0.500064
C284	C	1.373318	0.574743	0.750064
C285	C	0.674891	-0.212029	0.000065
C286	C	0.924891	0.037971	0.250065
C287	C	1.174891	0.287971	0.500065
C288	C	1.424891	0.537971	0.750065
O289	O	0.578070	-0.263215	0.000067
O290	O	0.828070	-0.013215	0.250067
O291	O	1.078070	0.236785	0.500067
O292	O	1.328070	0.486785	0.750067
O293	O	0.770196	-0.289433	0.000060
O294	O	1.020196	-0.039433	0.250060
O295	O	1.270196	0.210567	0.500060
O296	O	1.520196	0.460567	0.750060
C297	C	0.776472	0.069388	0.000071
C298	C	1.026472	0.319388	0.250071
C299	C	1.276472	0.569388	0.500071
C300	C	1.526472	0.819388	0.750071
C301	C	0.839689	0.070154	0.000073
C302	C	1.089689	0.320154	0.250073
C303	C	1.339689	0.570154	0.500073
C304	C	1.589689	0.820154	0.750073
C305	C	0.667577	0.178283	0.000046
C306	C	0.917577	0.428283	0.250046
C307	C	1.167577	0.678283	0.500046
C308	C	1.417577	0.928283	0.750046
C309	C	0.668343	0.241500	0.000037
C310	C	0.918343	0.491500	0.250037
C311	C	1.168343	0.741500	0.500037
C312	C	1.418343	0.991500	0.750037
N313	N	0.672305	0.074153	0.143865
N314	N	0.922305	0.324153	0.393865
N315	N	1.172305	0.574153	0.643865
N316	N	1.422305	0.824153	0.893865
N317	N	0.672347	0.074112	-0.143744
N318	N	0.922347	0.324112	0.106256
N319	N	1.172347	0.574112	0.356256
N320	N	1.422347	0.824112	0.606256
C321	C	0.711273	0.035196	0.563653
C322	C	0.961273	0.285196	0.813653
C323	C	1.211273	0.535196	1.063653
C324	C	1.461273	0.785196	1.313653
C325	C	0.711275	0.035192	0.627261
C326	C	0.961275	0.285192	0.877261
C327	C	1.211275	0.535192	1.127261
C328	C	1.461275	0.785192	1.377261
O329	O	0.744384	0.002076	0.660160
O330	O	0.994384	0.252076	0.910160
O331	O	1.244384	0.502076	1.160160
O332	O	1.494384	0.752076	1.410160
N333	N	0.672333	0.074115	0.659072
N334	N	0.922333	0.324115	0.909072
N335	N	1.172333	0.574115	1.159072
N336	N	1.422333	0.824115	1.409072
C337	C	0.633382	0.113041	0.627272
C338	C	0.883382	0.363041	0.877272
C339	C	1.133382	0.613041	1.127272
C340	C	1.383382	0.863041	1.377272
O341	O	0.600259	0.146148	0.660170
O342	O	0.850259	0.396148	0.910170
O343	O	1.100259	0.646148	1.160170
O344	O	1.350259	0.896148	1.410170
C345	C	0.633377	0.113042	0.563665
C346	C	0.883377	0.363042	0.813665
C347	C	1.133377	0.613042	1.063665
C348	C	1.383377	0.863042	1.313665
C349	C	0.672326	0.074120	0.531858
C350	C	0.922326	0.324120	0.781858
C351	C	1.172326	0.574120	1.031858
C352	C	1.422326	0.824120	1.281858
C353	C	0.750217	-0.003723	0.531846
C354	C	1.000217	0.246277	0.781846
C355	C	1.250217	0.496277	1.031846
C356	C	1.500217	0.746277	1.281846
C357	C	0.750215	-0.003719	0.468243
C358	C	1.000215	0.246281	0.718243
C359	C	1.250215	0.496281	0.968243
C360	C	1.500215	0.746281	1.218243
C361	C	0.711268	0.035205	0.436447
C362	C	0.961268	0.285205	0.686447
C363	C	1.211268	0.535205	0.936447
C364	C	1.461268	0.785205	1.186447
C365	C	0.672324	0.074125	0.468255
C366	C	0.922324	0.324125	0.718255
C367	C	1.172324	0.574125	0.968255
C368	C	1.422324	0.824125	1.218255
C369	C	0.594424	0.151965	0.531866
C370	C	0.844424	0.401965	0.781866
C371	C	1.094424	0.651965	1.031866
C372	C	1.344424	0.901965	1.281866
C373	C	0.594422	0.151962	0.468256
C374	C	0.844422	0.401962	0.718256
C375	C	1.094422	0.651962	0.968256
C376	C	1.344422	0.901962	1.218256
C377	C	0.633370	0.113040	0.436448
C378	C	0.883370	0.363040	0.686448
C379	C	1.133370	0.613040	0.936448
C380	C	1.383370	0.863040	1.186448
C381	C	0.633374	0.113054	0.372856
C382	C	0.883374	0.363054	0.622856
C383	C	1.133374	0.613054	0.872856
C384	C	1.383374	0.863054	1.122856
N385	N	0.672317	0.074130	0.341045
N386	N	0.922317	0.324130	0.591045
N387	N	1.172317	0.574130	0.841045
N388	N	1.422317	0.824130	1.091045
C389	C	0.711263	0.035206	0.372841
C390	C	0.961263	0.285206	0.622841
C391	C	1.211263	0.535206	0.872841
C392	C	1.461263	0.785206	1.122841
C393	C	0.633395	0.113036	0.760850
C394	C	0.883395	0.363036	1.010850
C395	C	1.133395	0.613036	1.260850
C396	C	1.383395	0.863036	1.510850
C397	C	0.633402	0.113039	0.824455
C398	C	0.883402	0.363039	1.074455
C399	C	1.133402	0.613039	1.324455
C400	C	1.383402	0.863039	1.574455
C401	C	0.711294	0.035188	0.824440
C402	C	0.961294	0.285188	1.074440
C403	C	1.211294	0.535188	1.324440
C404	C	1.461294	0.785188	1.574440
C405	C	0.711290	0.035189	0.760833
C406	C	0.961290	0.285189	1.010833
C407	C	1.211290	0.535189	1.260833
C408	C	1.461290	0.785189	1.510833
C409	C	0.672337	0.074113	0.729039
C410	C	0.922337	0.324113	0.979039
C411	C	1.172337	0.574113	1.229039
C412	C	1.422337	0.824113	1.479039
C413	C	0.711256	0.035220	0.239269
C414	C	0.961256	0.285220	0.489269
C415	C	1.211256	0.535220	0.739269
C416	C	1.461256	0.785220	0.989269
C417	C	0.711252	0.035229	0.175660
C418	C	0.961252	0.285229	0.425660
C419	C	1.211252	0.535229	0.675660
C420	C	1.461252	0.785229	0.925660
C421	C	0.633358	0.113077	0.175681
C422	C	0.883358	0.363077	0.425681
C423	C	1.133358	0.613077	0.675681
C424	C	1.383358	0.863077	0.925681
C425	C	0.633364	0.113070	0.239284
C426	C	0.883364	0.363070	0.489284
C427	C	1.133364	0.613070	0.739284
C428	C	1.383364	0.863070	0.989284
C429	C	0.672315	0.074136	0.271077
C430	C	0.922315	0.324136	0.521077
C431	C	1.172315	0.574136	0.771077
C432	C	1.422315	0.824136	1.021077
O433	O	0.600282	0.146151	0.339916
O434	O	0.850282	0.396151	0.589916
O435	O	1.100282	0.646151	0.839916
O436	O	1.350282	0.896151	1.089916
O437	O	0.744376	0.002100	0.339935
O438	O	0.994376	0.252100	0.589935
O439	O	1.244376	0.502100	0.839935
O440	O	1.494376	0.752100	1.089935
H441	H	0.486602	0.172255	0.000025
H442	H	0.736602	0.422255	0.250025
H443	H	0.986602	0.672255	0.500025
H444	H	1.236602	0.922255	0.750025
F445	F	0.512483	-0.465469	0.000007
F446	F	0.762483	-0.215469	0.250007
F447	F	1.012483	0.034531	0.500007
F448	F	1.262483	0.284531	0.750007
F449	F	0.832169	-0.386245	0.000066
F450	F	1.082169	-0.136245	0.250066
F451	F	1.332169	0.113755	0.500066
F452	F	1.582169	0.363755	0.750066
F453	F	0.513956	-0.342871	0.000010
F454	F	0.763956	-0.092871	0.250010
F455	F	1.013956	0.157129	0.500010
F456	F	1.263956	0.407129	0.750010
H457	H	0.562708	0.183658	0.557755
H458	H	0.812708	0.433658	0.807755
H459	H	1.062708	0.683658	1.057755
H460	H	1.312708	0.933658	1.307755
F461	F	-0.025003	-0.035587	0.000089
F462	F	0.224997	0.214413	0.250089
F463	F	0.474997	0.464413	0.500089
F464	F	0.724997	0.714413	0.750089
H465	H	0.763906	-0.658056	0.000056
H466	H	1.013906	-0.408056	0.250056
H467	H	1.263906	-0.158056	0.500056
H468	H	1.513906	0.091944	0.750056
H469	H	-0.141947	-0.023982	0.000078
H470	H	0.108053	0.226018	0.250078
H471	H	0.358053	0.476018	0.500078
H472	H	0.608053	0.726018	0.750078
H473	H	0.575496	-0.632386	0.000028
H474	H	0.825496	-0.382386	0.250028
H475	H	1.075496	-0.132386	0.500028
H476	H	1.325496	0.117614	0.750028
H477	H	0.742971	0.003534	0.149765
H478	H	0.992971	0.253534	0.399765
H479	H	1.242971	0.503534	0.649765
H480	H	1.492971	0.753534	0.899765
H481	H	0.743006	0.003493	0.850339
H482	H	0.993006	0.253493	1.100339
H483	H	1.243006	0.503493	1.350339
H484	H	1.493006	0.753493	1.600339
H485	H	-0.059867	0.165717	0.000057
H486	H	0.190133	0.415717	0.250057
H487	H	0.440133	0.665717	0.500057
H488	H	0.690133	0.915717	0.750057
F489	F	0.132720	-0.085706	0.000100
F490	F	0.382720	0.164294	0.250100
F491	F	0.632720	0.414294	0.500100
F492	F	0.882720	0.664294	0.750100
H493	H	0.582043	-0.085909	0.000067
H494	H	0.832043	0.164091	0.250067
H495	H	1.082043	0.414091	0.500067
H496	H	1.332043	0.664091	0.750067
H497	H	0.601650	0.144771	0.149783
H498	H	0.851650	0.394771	0.399783
H499	H	1.101650	0.644771	0.649783
H500	H	1.351650	0.894771	0.899783
H501	H	-0.167632	0.164421	0.000060
H502	H	0.082368	0.414421	0.250060
H503	H	0.332368	0.664421	0.500060
H504	H	0.582368	0.914421	0.750060
F505	F	0.567676	-0.199335	0.000062
F506	F	0.817676	0.050665	0.250062
F507	F	1.067676	0.300665	0.500062
F508	F	1.317676	0.550665	0.750062
H509	H	0.762610	-0.765821	0.000048
H510	H	1.012610	-0.515821	0.250048
H511	H	1.262610	-0.265821	0.500048
H512	H	1.512610	-0.015821	0.750048
H513	H	0.246123	-0.071339	0.000107
H514	H	0.496123	0.178661	0.250107
H515	H	0.746123	0.428661	0.500107
H516	H	0.996123	0.678661	0.750107
H517	H	0.742973	0.003516	0.265148
H518	H	0.992973	0.253516	0.515148
H519	H	1.242973	0.503516	0.765148
H520	H	1.492973	0.753516	1.015148
H521	H	0.098544	0.219617	0.000048
H522	H	0.348544	0.469617	0.250048
H523	H	0.598544	0.719617	0.500048
H524	H	0.848544	0.969617	0.750048
F525	F	0.398854	-0.030513	0.000070
F526	F	0.648854	0.219487	0.250070
F527	F	0.898854	0.469487	0.500070
F528	F	1.148854	0.719487	0.750070
H529	H	0.781929	-0.035414	0.442349
H530	H	1.031929	0.214586	0.692349
H531	H	1.281929	0.464586	0.942349
H532	H	1.531929	0.714586	1.192349
H533	H	0.781933	-0.035423	0.557728
H534	H	1.031933	0.214577	0.807728
H535	H	1.281933	0.464577	1.057728
H536	H	1.531933	0.714577	1.307728
H537	H	0.574207	-0.740136	0.000036
H538	H	0.824207	-0.490136	0.250036
H539	H	1.074207	-0.240136	0.500036
H540	H	1.324207	0.009864	0.750036
H541	H	0.512280	-0.016146	0.000056
H542	H	0.762280	0.233854	0.250056
H543	H	1.012280	0.483854	0.500056
H544	H	1.262280	0.733854	0.750056
H545	H	0.743004	0.003495	0.734939
H546	H	0.993004	0.253495	0.984939
H547	H	1.243004	0.503495	1.234939
H548	H	1.493004	0.753495	1.484939
H549	H	0.601692	0.144738	0.850348
H550	H	0.851692	0.394738	1.100348
H551	H	1.101692	0.644738	1.350348
H552	H	1.351692	0.894738	1.600348
F553	F	0.591937	0.154471	0.727016
F554	F	0.841937	0.404471	0.977016
F555	F	1.091937	0.654471	1.227016
F556	F	1.341937	0.904471	1.477016
H557	H	0.562700	0.183658	0.442372
H558	H	0.812700	0.433658	0.692372
H559	H	1.062700	0.683658	0.942372
H560	H	1.312700	0.933658	1.192372
F561	F	0.830701	-0.508838	0.000066
F562	F	1.080701	-0.258838	0.250066
F563	F	1.330701	-0.008838	0.500066
F564	F	1.580701	0.241162	0.750066
F565	F	0.591916	0.154502	0.273135
F566	F	0.841916	0.404502	0.523135
F567	F	1.091916	0.654502	0.773135
F568	F	1.341916	0.904502	1.023135
F569	F	0.369658	0.183864	0.000040
F570	F	0.619658	0.433864	0.250040
F571	F	0.869658	0.683864	0.500040
F572	F	1.119658	0.933864	0.750040
F573	F	0.211944	0.233980	0.000036
F574	F	0.461944	0.483980	0.250036
F575	F	0.711944	0.733980	0.500036
F576	F	0.961944	0.983980	0.750036
F577	F	0.782053	-0.228531	0.000076
F578	F	1.032053	0.021469	0.250076
F579	F	1.282053	0.271469	0.500076
F580	F	1.532053	0.521469	0.750076
F581	F	0.783515	-0.105930	0.000095
F582	F	1.033515	0.144070	0.250095
F583	F	1.283515	0.394070	0.500095
F584	F	1.533515	0.644070	0.750095
