data_functionalizedCrystal
_audit_creation_method	'MofGen! by Chris Wilmer'
_symmetry_space_group_name_H-M	'P1'
_symmetry_Int_Tables_number	1
_symmetry_cell_setting	triclinic
loop_
_symmetry_equiv_pos_as_xyz
  x,y,z
_cell_length_a	19.077105
_cell_length_b	16.625546
_cell_length_c	19.076919
_cell_angle_alpha	92.269917
_cell_angle_beta	90.076224
_cell_angle_gamma	87.718759
loop_
_atom_site_label
_atom_site_type_symbol
_atom_site_fract_x
_atom_site_fract_y
_atom_site_fract_z
Zn1	Zn	1.058283	-0.390077	-0.440407
Zn2	Zn	1.558283	0.109923	0.059593
Zn3	Zn	1.062927	-0.519720	-0.322896
Zn4	Zn	1.562927	-0.019720	0.177104
Zn5	Zn	0.945500	-0.379275	-0.318200
Zn6	Zn	1.445500	0.120725	0.181800
Zn7	Zn	0.940748	-0.519234	-0.435649
Zn8	Zn	1.440748	-0.019234	0.064351
O9	O	1.001864	-0.452076	-0.379288
O10	O	1.501864	0.047924	0.120712
O11	O	1.157231	-0.411998	-0.428775
O12	O	1.657231	0.088002	0.071225
O13	O	1.051282	-0.496773	-0.223942
O14	O	1.551282	0.003227	0.276058
O15	O	0.960506	-0.267879	-0.334437
O16	O	1.460506	0.232121	0.165563
O17	O	1.160642	-0.507246	-0.342441
O18	O	1.660642	-0.007246	0.157559
O19	O	1.043367	-0.275815	-0.424222
O20	O	1.543367	0.224185	0.075778
O21	O	0.965009	-0.393589	-0.220492
O22	O	1.465009	0.106411	0.279508
O23	O	0.846538	-0.393117	-0.329824
O24	O	1.346538	0.106883	0.170176
O25	O	0.952407	-0.506418	-0.534611
O26	O	1.452407	-0.006418	-0.034611
O27	O	0.843047	-0.495944	-0.416113
O28	O	1.343047	0.004056	0.083887
O29	O	1.038759	-0.411527	-0.538107
O30	O	1.538759	0.088473	-0.038107
O31	O	1.046674	-0.632485	-0.337827
O32	O	1.546674	-0.132485	0.162173
O33	O	0.956910	-0.632127	-0.420666
O34	O	1.456910	-0.132127	0.079334
C35	C	0.819296	-0.443306	-0.371943
C36	C	1.319296	0.056694	0.128057
C37	C	0.741192	-0.439575	-0.368817
C38	C	1.241192	0.060425	0.131183
C39	C	0.702702	-0.491432	-0.412204
C40	C	1.202702	0.008568	0.087796
C41	C	0.629314	-0.487916	-0.409270
C42	C	1.129314	0.012084	0.090730
C43	C	0.594418	-0.432544	-0.362946
C44	C	1.094418	0.067456	0.137054
C45	C	0.632913	-0.380681	-0.319557
C46	C	1.132913	0.119319	0.180443
C47	C	0.706299	-0.384194	-0.322495
C48	C	1.206299	0.115806	0.177505
C49	C	0.375130	-0.416284	-0.349354
C50	C	0.875130	0.083716	0.150646
C51	C	0.301739	-0.412776	-0.346418
C52	C	0.801739	0.087224	0.153582
C53	C	0.298145	-0.520010	-0.436133
C54	C	0.798145	-0.020010	0.063867
C55	C	0.371533	-0.523522	-0.439063
C56	C	0.871533	-0.023522	0.060937
C57	C	0.410021	-0.471655	-0.395677
C58	C	0.910021	0.028345	0.104323
N59	N	0.519405	-0.428950	-0.359945
N60	N	1.019405	0.071050	0.140055
N61	N	0.485034	-0.475247	-0.398682
N62	N	0.985034	0.024753	0.101318
C63	C	1.001799	-0.661563	-0.379256
C64	C	1.501799	-0.161563	0.120744
C65	C	1.001834	-0.751186	-0.379268
C66	C	1.501834	-0.251186	0.120732
C67	C	1.001954	-1.079371	-0.379346
C68	C	1.501954	-0.579371	0.120654
C69	C	1.001918	-0.988060	-0.379327
C70	C	1.501918	-0.488060	0.120673
C71	C	1.001894	-0.915281	-0.379307
C72	C	1.501894	-0.415281	0.120693
C73	C	1.001859	-0.823965	-0.379288
C74	C	1.501859	-0.323965	0.120712
C75	C	1.185146	-0.460881	-0.386662
C76	C	1.685146	0.039119	0.113338
C77	C	1.263249	-0.464634	-0.389805
C78	C	1.763249	0.035366	0.110195
C79	C	0.994535	-0.460123	-0.562568
C80	C	1.494535	0.039877	-0.062568
C81	C	0.991412	-0.463552	-0.640671
C82	C	1.491412	0.036448	-0.140671
C83	C	1.001948	-0.241774	-0.379336
C84	C	1.501948	0.258226	0.120664
C85	C	1.001984	-0.152155	-0.379357
C86	C	1.501984	0.347845	0.120643
C87	C	1.034901	-0.415760	-0.679185
C88	C	1.534901	0.084240	-0.179185
C89	C	1.031958	-0.418978	-0.752571
C90	C	1.531958	0.081022	-0.252571
C91	C	0.985529	-0.469993	-0.787441
C92	C	1.485529	0.030007	-0.287441
C93	C	0.942035	-0.517786	-0.748922
C94	C	1.442035	-0.017786	-0.248922
C95	C	0.944975	-0.514563	-0.675537
C96	C	1.444975	-0.014563	-0.175537
C97	C	0.971911	-0.484926	-1.006722
C98	C	1.471911	0.015074	-0.506722
C99	C	0.968976	-0.488147	-1.080112
C100	C	1.468976	0.011853	-0.580112
C101	C	1.058898	-0.389338	-1.083755
C102	C	1.558898	0.110662	-0.583755
C103	C	1.061837	-0.386123	-1.010369
C104	C	1.561837	0.113877	-0.510369
C105	C	1.018341	-0.433913	-0.971856
C106	C	1.518341	0.066087	-0.471856
N107	N	0.982521	-0.473286	-0.862453
N108	N	1.482521	0.026714	-0.362453
N109	N	1.021346	-0.430616	-0.896846
N110	N	1.521346	0.069384	-0.396846
C111	C	1.009205	-0.444005	-0.196723
C112	C	1.509205	0.055995	0.303277
C113	C	1.012465	-0.440356	-0.118626
C114	C	1.512465	0.059644	0.381374
H115	H	0.399940	-0.568613	-0.476784
H116	H	0.899940	-0.068613	0.023216
H117	H	0.737637	-0.341962	-0.287168
H118	H	1.237637	0.158038	0.212832
O119	O	0.918889	-0.543162	-1.117728
O120	O	1.418889	-0.043162	-0.617728
H121	H	0.931465	-0.606406	-1.104113
H122	H	1.431465	-0.106406	-0.604113
H123	H	0.904228	-0.559320	-0.777319
H124	H	1.404228	-0.059320	-0.277319
H125	H	0.406459	-0.374056	-0.314021
H126	H	0.906459	0.125944	0.185979
H127	H	0.731109	-0.536524	-0.449924
H128	H	1.231109	-0.036524	0.050076
H129	H	0.936503	-0.523853	-0.975374
H130	H	1.436503	-0.023853	-0.475374
O131	O	0.595287	-0.320955	-0.269588
O132	O	1.095287	0.179045	0.230412
H133	H	0.611578	-0.332939	-0.214985
H134	H	1.111578	0.167061	0.285015
H135	H	0.909554	-0.553472	-0.644180
H136	H	1.409554	-0.053472	-0.144180
O137	O	1.105806	-0.337793	-1.125298
O138	O	1.605806	0.162207	-0.625298
H139	H	1.138587	-0.301783	-1.088721
H140	H	1.638587	0.198217	-0.588721
H141	H	0.266800	-0.562235	-0.471456
H142	H	0.766800	-0.062235	0.028544
H143	H	0.597979	-0.530145	-0.444600
H144	H	1.097979	-0.030145	0.055400
O145	O	1.084985	-0.360742	-0.641578
O146	O	1.584985	0.139258	-0.141578
H147	H	1.054894	-0.316745	-0.606880
H148	H	1.554894	0.183255	-0.106880
O149	O	1.111915	-0.331096	-0.972764
O150	O	1.611915	0.168904	-0.472764
H151	H	1.106658	-0.336890	-0.915265
H152	H	1.606658	0.163110	-0.415265
H153	H	0.273329	-0.367677	-0.308699
H154	H	0.773329	0.132323	0.191301
H155	H	1.067373	-0.380063	-0.783926
H156	H	1.567373	0.119937	-0.283926
