data_functionalizedCrystal
_audit_creation_method	'MofGen! by Chris Wilmer'
_symmetry_space_group_name_H-M	'P1'
_symmetry_Int_Tables_number	1
_symmetry_cell_setting	triclinic
loop_
_symmetry_equiv_pos_as_xyz
  x,y,z
_cell_length_a	27.732064
_cell_length_b	27.732048
_cell_length_c	26.809956
_cell_angle_alpha	89.999364
_cell_angle_beta	89.998878
_cell_angle_gamma	82.646040
loop_
_atom_site_label
_atom_site_type_symbol
_atom_site_fract_x
_atom_site_fract_y
_atom_site_fract_z
O1	O	0.640926	0.057548	-0.041396
O2	O	0.974259	0.390882	0.291937
O3	O	1.307592	0.724215	0.625271
O4	O	0.500133	0.066285	-0.041417
O5	O	0.833467	0.399619	0.291916
O6	O	1.166800	0.732952	0.625249
O7	O	0.574902	-0.008480	-0.041396
O8	O	0.908236	0.324854	0.291937
O9	O	1.241569	0.658187	0.625270
O10	O	0.566157	0.132313	-0.041417
O11	O	0.899490	0.465647	0.291917
O12	O	1.232824	0.798980	0.625250
O13	O	0.574888	-0.008468	0.041563
O14	O	0.908221	0.324865	0.374896
O15	O	1.241555	0.658198	0.708230
O16	O	0.500119	0.066297	0.041542
O17	O	0.833453	0.399630	0.374875
O18	O	1.166786	0.732964	0.708209
O19	O	0.640912	0.057560	0.041563
O20	O	0.974245	0.390893	0.374897
O21	O	1.307578	0.724226	0.708230
Zn22	Zn	0.570513	0.061930	0.054724
Zn23	Zn	0.903847	0.395263	0.388058
Zn24	Zn	1.237180	0.728597	0.721391
Zn25	Zn	0.570532	0.061915	-0.054578
Zn26	Zn	0.903865	0.395248	0.278755
Zn27	Zn	1.237198	0.728582	0.612089
O28	O	0.566143	0.132325	0.041543
O29	O	0.899476	0.465658	0.374876
O30	O	1.232809	0.798991	0.708209
C31	C	0.482120	0.066106	0.000060
C32	C	0.815453	0.399440	0.333393
C33	C	1.148786	0.732773	0.666727
C34	C	0.428465	0.065551	0.000052
C35	C	0.761798	0.398884	0.333385
C36	C	1.095132	0.732217	0.666719
C37	C	0.051392	0.017583	0.000087
C38	C	0.384726	0.350917	0.333421
C39	C	0.718059	0.684250	0.666754
C40	C	0.253053	0.019630	0.000074
C41	C	0.586386	0.352963	0.333408
C42	C	0.919719	0.686296	0.666741
O43	O	0.284305	-0.017591	0.000098
O44	O	0.617639	0.315742	0.333432
O45	O	0.950972	0.649075	0.666765
N46	N	0.272180	0.063964	0.000066
N47	N	0.605513	0.397297	0.333399
N48	N	0.938847	0.730631	0.666732
C49	C	0.240889	0.107790	0.000064
C50	C	0.574222	0.441123	0.333397
C51	C	0.907556	0.774456	0.666730
O52	O	0.261785	0.145546	0.000061
O53	O	0.595119	0.478879	0.333394
O54	O	0.928452	0.812212	0.666728
C55	C	0.039230	0.105743	0.000080
C56	C	0.372563	0.439076	0.333414
C57	C	0.705896	0.772410	0.666747
C58	C	0.020105	0.061406	0.000084
C59	C	0.353439	0.394739	0.333417
C60	C	0.686772	0.728073	0.666751
C61	C	0.032267	-0.026750	0.000092
C62	C	0.365601	0.306583	0.333425
C63	C	0.698934	0.639916	0.666758
C64	C	-0.018145	-0.027261	0.000092
C65	C	0.315189	0.306072	0.333426
C66	C	0.648522	0.639405	0.666759
C67	C	-0.049432	0.016561	0.000089
C68	C	0.283901	0.349895	0.333422
C69	C	0.617235	0.683228	0.666755
C70	C	-0.030307	0.060895	0.000085
C71	C	0.303027	0.394228	0.333418
C72	C	0.636360	0.727561	0.666751
C73	C	0.007940	0.149568	0.000082
C74	C	0.341273	0.482902	0.333415
C75	C	0.674606	0.816235	0.666749
C76	C	-0.042478	0.149053	0.000087
C77	C	0.290855	0.482386	0.333421
C78	C	0.624189	0.815719	0.666754
C79	C	-0.061602	0.104716	0.000091
C80	C	0.271731	0.438049	0.333424
C81	C	0.605064	0.771382	0.666758
C82	C	-0.112006	0.104206	0.000082
C83	C	0.221327	0.437539	0.333415
C84	C	0.554661	0.770873	0.666748
N85	N	-0.131134	0.059872	0.000090
N86	N	0.202200	0.393205	0.333424
N87	N	0.535533	0.726539	0.666757
C88	C	-0.099846	0.016049	0.000094
C89	C	0.233487	0.349383	0.333427
C90	C	0.566820	0.682716	0.666760
C91	C	0.346763	0.108861	0.000054
C92	C	0.680097	0.442195	0.333387
C93	C	1.013430	0.775528	0.666720
C94	C	0.397178	0.109373	0.000049
C95	C	0.730511	0.442706	0.333382
C96	C	1.063845	0.776040	0.666715
C97	C	0.409338	0.021213	0.000060
C98	C	0.742672	0.354546	0.333394
C99	C	1.076005	0.687879	0.666727
C100	C	0.358923	0.020701	0.000062
C101	C	0.692256	0.354035	0.333395
C102	C	1.025589	0.687368	0.666728
C103	C	0.327636	0.064527	0.000062
C104	C	0.660969	0.397860	0.333396
C105	C	0.994303	0.731194	0.666729
C106	C	-0.205716	0.014979	0.000095
C107	C	0.127617	0.348313	0.333428
C108	C	0.460951	0.681646	0.666761
C109	C	-0.256133	0.014472	0.000093
C110	C	0.077200	0.347806	0.333426
C111	C	0.410534	0.681139	0.666760
C112	C	-0.268289	0.102632	0.000084
C113	C	0.065045	0.435966	0.333418
C114	C	0.398378	0.769299	0.666751
C115	C	-0.217876	0.103140	0.000083
C116	C	0.115457	0.436473	0.333416
C117	C	0.448791	0.769806	0.666750
C118	C	-0.186590	0.059309	0.000090
C119	C	0.146743	0.392643	0.333423
C120	C	0.480076	0.725976	0.666757
O121	O	-0.143287	0.141407	0.000063
O122	O	0.190046	0.474741	0.333397
O123	O	0.523380	0.808074	0.666730
O124	O	-0.120752	-0.021701	0.000107
O125	O	0.212581	0.311632	0.333441
O126	O	0.545914	0.644966	0.666774
C127	C	0.101804	0.018094	0.000087
C128	C	0.435138	0.351428	0.333420
C129	C	0.768471	0.684761	0.666754
C130	C	0.120930	0.062428	0.000083
C131	C	0.454263	0.395761	0.333416
C132	C	0.787596	0.729095	0.666749
C133	C	0.089642	0.106250	0.000079
C134	C	0.422976	0.439584	0.333413
C135	C	0.756309	0.772917	0.666746
C136	C	0.171344	0.062940	0.000078
C137	C	0.504677	0.396273	0.333411
C138	C	0.838011	0.729606	0.666744
C139	C	0.202631	0.019117	0.000081
C140	C	0.535965	0.352451	0.333415
C141	C	0.869298	0.685784	0.666748
C142	C	0.183504	-0.025217	0.000090
C143	C	0.516837	0.308116	0.333423
C144	C	0.850170	0.641450	0.666756
C145	C	0.133092	-0.025728	0.000090
C146	C	0.466425	0.307605	0.333424
C147	C	0.799758	0.640939	0.666757
C148	C	0.108770	0.150585	0.000071
C149	C	0.442103	0.483918	0.333404
C150	C	0.775437	0.817251	0.666737
C151	C	0.159183	0.151092	0.000069
C152	C	0.492516	0.484426	0.333403
C153	C	0.825849	0.817759	0.666736
C154	C	0.190470	0.107270	0.000073
C155	C	0.523803	0.440603	0.333406
C156	C	0.857136	0.773936	0.666740
C157	C	0.574712	-0.026481	0.000085
C158	C	0.908045	0.306853	0.333418
C159	C	1.241378	0.640186	0.666751
C160	C	0.574159	-0.080136	0.000089
C161	C	0.907492	0.253198	0.333422
C162	C	1.240826	0.586531	0.666755
C163	C	0.614862	-0.418948	0.000069
C164	C	0.948196	-0.085615	0.333402
C165	C	1.281529	0.247718	0.666736
C166	C	0.612811	-0.620608	0.000062
C167	C	0.946145	-0.287275	0.333395
C168	C	1.279478	0.046059	0.666729
O169	O	0.650032	-0.651862	0.000046
O170	O	0.983365	-0.318528	0.333379
O171	O	1.316698	0.014805	0.666712
N172	N	0.568476	-0.639735	0.000056
N173	N	0.901810	-0.306401	0.333389
N174	N	1.235143	0.026932	0.666722
C175	C	0.524651	-0.608442	0.000048
C176	C	0.857985	-0.275109	0.333381
C177	C	1.191318	0.058224	0.666715
O178	O	0.486895	-0.629338	0.000037
O179	O	0.820228	-0.296004	0.333371
O180	O	1.153561	0.037329	0.666704
C181	C	0.526703	-0.406784	0.000052
C182	C	0.860036	-0.073450	0.333385
C183	C	1.193369	0.259883	0.666718
C184	C	0.571040	-0.387660	0.000063
C185	C	0.904374	-0.054327	0.333396
C186	C	1.237707	0.279006	0.666730
C187	C	0.659196	-0.399824	0.000080
C188	C	0.992530	-0.066491	0.333413
C189	C	1.325863	0.266842	0.666747
C190	C	0.659709	-0.349412	0.000084
C191	C	0.993042	-0.016079	0.333418
C192	C	1.326375	0.317254	0.666751
C193	C	0.615887	-0.318124	0.000078
C194	C	0.949220	0.015209	0.333412
C195	C	1.282553	0.348542	0.666745
C196	C	0.571553	-0.337248	0.000067
C197	C	0.904886	-0.003915	0.333401
C198	C	1.238219	0.329418	0.666734
C199	C	0.482878	-0.375493	0.000040
C200	C	0.816211	-0.042159	0.333374
C201	C	1.149545	0.291174	0.666707
C202	C	0.483395	-0.325075	0.000040
C203	C	0.816728	0.008258	0.333373
C204	C	1.150062	0.341591	0.666707
C205	C	0.527733	-0.305952	0.000051
C206	C	0.861066	0.027381	0.333385
C207	C	1.194399	0.360715	0.666718
C208	C	0.528243	-0.255548	0.000066
C209	C	0.861576	0.077785	0.333399
C210	C	1.194910	0.411118	0.666732
N211	N	0.572578	-0.236422	0.000072
N212	N	0.905911	0.096911	0.333405
N213	N	1.239245	0.430245	0.666739
C214	C	0.616400	-0.267710	0.000078
C215	C	0.949733	0.065623	0.333412
C216	C	1.283067	0.398957	0.666745
C217	C	0.523577	-0.714317	0.000047
C218	C	0.856911	-0.380983	0.333380
C219	C	1.190244	-0.047650	0.666714
C220	C	0.523064	-0.764731	0.000047
C221	C	0.856398	-0.431398	0.333380
C222	C	1.189731	-0.098064	0.666714
C223	C	0.611225	-0.776893	0.000060
C224	C	0.944558	-0.443560	0.333393
C225	C	1.277891	-0.110227	0.666727
C226	C	0.611737	-0.726478	0.000064
C227	C	0.945070	-0.393145	0.333397
C228	C	1.278404	-0.059811	0.666730
C229	C	0.567912	-0.695190	0.000053
C230	C	0.901245	-0.361857	0.333387
C231	C	1.234579	-0.028524	0.666720
C232	C	0.617472	-0.161841	0.000088
C233	C	0.950806	0.171493	0.333422
C234	C	1.284139	0.504826	0.666755
C235	C	0.617981	-0.111424	0.000095
C236	C	0.951314	0.221910	0.333428
C237	C	1.284647	0.555243	0.666761
C238	C	0.529821	-0.099266	0.000079
C239	C	0.863154	0.234067	0.333413
C240	C	1.196487	0.567401	0.666746
C241	C	0.529312	-0.149679	0.000075
C242	C	0.862645	0.183655	0.333409
C243	C	1.195979	0.516988	0.666742
C244	C	0.573142	-0.180965	0.000078
C245	C	0.906475	0.152368	0.333411
C246	C	1.239808	0.485701	0.666745
O247	O	0.491043	-0.224267	0.000076
O248	O	0.824376	0.109067	0.333410
O249	O	1.157709	0.442400	0.666743
O250	O	0.654151	-0.246805	0.000078
O251	O	0.987484	0.086528	0.333411
O252	O	1.320818	0.419862	0.666744
C253	C	0.614350	-0.469360	0.000065
C254	C	0.947683	-0.136027	0.333398
C255	C	1.281017	0.197306	0.666731
C256	C	0.570016	-0.488484	0.000054
C257	C	0.903349	-0.155151	0.333387
C258	C	1.236683	0.178182	0.666721
C259	C	0.526194	-0.457196	0.000048
C260	C	0.859527	-0.123863	0.333381
C261	C	1.192861	0.209470	0.666714
C262	C	0.569503	-0.538899	0.000054
C263	C	0.902836	-0.205565	0.333387
C264	C	1.236170	0.127768	0.666721
C265	C	0.613325	-0.570187	0.000060
C266	C	0.946658	-0.236853	0.333393
C267	C	1.279991	0.096480	0.666727
C268	C	0.657660	-0.551060	0.000066
C269	C	0.990993	-0.217727	0.333400
C270	C	1.324326	0.115606	0.666733
C271	C	0.658172	-0.500648	0.000071
C272	C	0.991505	-0.167315	0.333404
C273	C	1.324839	0.166018	0.666737
C274	C	0.481859	-0.476323	0.000041
C275	C	0.815193	-0.142989	0.333375
C276	C	1.148526	0.190344	0.666708
C277	C	0.481351	-0.526735	0.000037
C278	C	0.814684	-0.193402	0.333371
C279	C	1.148017	0.139932	0.666704
C280	C	0.525172	-0.558023	0.000044
C281	C	0.858506	-0.224690	0.333377
C282	C	1.191839	0.108643	0.666710
C283	C	0.658925	0.057739	0.000085
C284	C	0.992259	0.391072	0.333419
C285	C	1.325592	0.724405	0.666752
C286	C	0.712580	0.058295	0.000090
C287	C	1.045913	0.391628	0.333423
C288	C	1.379247	0.724961	0.666756
C289	C	0.566333	0.150326	0.000060
C290	C	0.899667	0.483659	0.333394
C291	C	1.233000	0.816993	0.666727
C292	C	0.566886	0.203981	0.000053
C293	C	0.900219	0.537314	0.333387
C294	C	1.233553	0.870648	0.666720
N295	N	0.570504	0.061940	0.129320
N296	N	0.903837	0.395273	0.462654
N297	N	1.237171	0.728607	0.795987
N298	N	0.570545	0.061901	-0.129174
N299	N	0.903878	0.395235	0.204159
N300	N	1.237211	0.728568	0.537493
C301	C	0.603635	0.028817	0.473955
C302	C	0.936969	0.362151	0.807289
C303	C	1.270302	0.695484	1.140622
C304	C	0.603647	0.028810	0.682833
C305	C	0.936980	0.362143	1.016167
C306	C	1.270313	0.695476	1.349500
O307	O	0.631796	0.000651	0.709845
O308	O	0.965130	0.333984	1.043178
O309	O	1.298463	0.667317	1.376512
N310	N	0.570534	0.061904	0.708947
N311	N	0.903868	0.395238	1.042281
N312	N	1.237201	0.728571	1.375614
C313	C	0.537415	0.095001	0.682839
C314	C	0.870748	0.428334	1.016172
C315	C	1.204082	0.761668	1.349506
O316	O	0.509248	0.123147	0.709843
O317	O	0.842581	0.456480	1.043177
O318	O	1.175915	0.789813	1.376510
C319	C	0.537402	0.095006	0.473962
C320	C	0.870735	0.428339	0.807295
C321	C	1.204068	0.761672	1.140629
C322	C	0.570519	0.061912	0.447851
C323	C	0.903853	0.395246	0.781184
C324	C	1.237186	0.728579	1.114517
C325	C	0.636750	-0.004274	0.447844
C326	C	0.970083	0.329059	0.781177
C327	C	1.303416	0.662393	1.114511
C328	C	0.636748	-0.004270	0.395628
C329	C	0.970082	0.329063	0.728961
C330	C	1.303415	0.662397	1.062294
C331	C	0.603632	0.028825	0.369523
C332	C	0.936966	0.362158	0.702856
C333	C	1.270299	0.695492	1.036190
C334	C	0.570518	0.061916	0.395634
C335	C	0.903851	0.395250	0.728968
C336	C	1.237184	0.728583	1.062301
C337	C	0.504280	0.128100	0.447855
C338	C	0.837613	0.461433	0.781188
C339	C	1.170947	0.794766	1.114521
C340	C	0.504279	0.128097	0.395632
C341	C	0.837612	0.461431	0.728965
C342	C	1.170946	0.794764	1.062299
C343	C	0.537397	0.095004	0.369521
C344	C	0.870730	0.428337	0.702854
C345	C	1.204063	0.761670	1.036187
C346	C	0.537400	0.095015	0.317313
C347	C	0.870734	0.428349	0.650647
C348	C	1.204067	0.761682	0.983980
N349	N	0.570512	0.061921	0.291199
N350	N	0.903846	0.395254	0.624532
N351	N	1.237179	0.728587	0.957866
C352	C	0.603628	0.028826	0.317304
C353	C	0.936962	0.362159	0.650637
C354	C	1.270295	0.695492	0.983971
C355	C	0.537425	0.094997	0.792502
C356	C	0.870758	0.428330	1.125835
C357	C	1.204092	0.761664	1.459169
C358	C	0.537429	0.094996	0.844721
C359	C	0.870762	0.428330	1.178054
C360	C	1.204095	0.761663	1.511388
C361	C	0.603660	0.028804	0.844712
C362	C	0.936993	0.362138	1.178045
C363	C	1.270327	0.695471	1.511378
C364	C	0.603658	0.028808	0.792492
C365	C	0.936991	0.362141	1.125825
C366	C	1.270325	0.695474	1.459159
C367	C	0.570537	0.061902	0.766388
C368	C	0.903870	0.395236	1.099721
C369	C	1.237204	0.728569	1.433055
C370	C	0.603623	0.028837	0.207646
C371	C	0.936956	0.362170	0.540979
C372	C	1.270290	0.695503	0.874313
C373	C	0.603620	0.028845	0.155425
C374	C	0.936953	0.362178	0.488758
C375	C	1.270287	0.695512	0.822092
C376	C	0.537387	0.095035	0.155439
C377	C	0.870721	0.428368	0.488772
C378	C	1.204054	0.761702	0.822106
C379	C	0.537392	0.095029	0.207655
C380	C	0.870725	0.428362	0.540989
C381	C	1.204059	0.761695	0.874322
C382	C	0.570512	0.061926	0.233757
C383	C	0.903845	0.395259	0.567091
C384	C	1.237178	0.728592	0.900424
O385	O	0.509262	0.123156	0.290269
O386	O	0.842595	0.456489	0.623603
O387	O	1.175928	0.789823	0.956936
O388	O	0.631784	0.000677	0.290290
O389	O	0.965117	0.334011	0.623624
O390	O	1.298451	0.667344	0.956957
C391	C	0.603637	0.028813	0.526172
C392	C	0.936970	0.362147	0.859505
C393	C	1.270303	0.695480	1.192838
C394	C	0.570522	0.061904	0.552283
C395	C	0.903855	0.395238	0.885617
C396	C	1.237189	0.728571	1.218950
C397	C	0.537406	0.095000	0.526178
C398	C	0.870739	0.428333	0.859512
C399	C	1.204073	0.761666	1.192845
C400	C	0.570526	0.061904	0.604502
C401	C	0.903859	0.395237	0.937836
C402	C	1.237193	0.728571	1.271169
C403	C	0.603642	0.028809	0.630607
C404	C	0.936975	0.362142	0.963940
C405	C	1.270309	0.695476	1.297274
C406	C	0.636754	-0.004286	0.604493
C407	C	0.970087	0.329048	0.937826
C408	C	1.303421	0.662381	1.271160
C409	C	0.636753	-0.004282	0.552277
C410	C	0.970086	0.329052	0.885610
C411	C	1.303419	0.662385	1.218943
C412	C	0.504294	0.128094	0.552293
C413	C	0.837627	0.461427	0.885626
C414	C	1.170961	0.794761	1.218959
C415	C	0.504298	0.128088	0.604509
C416	C	0.837632	0.461421	0.937842
C417	C	1.170965	0.794755	1.271176
C418	C	0.537414	0.094993	0.630614
C419	C	0.870748	0.428326	0.963947
C420	C	1.204081	0.761659	1.297280
H421	H	-0.180248	-0.020712	0.000100
H422	H	0.153085	0.312622	0.333433
H423	H	0.486418	0.645955	0.666767
F424	F	0.469046	0.163320	0.524516
F425	F	0.802379	0.496653	0.857849
F426	F	1.135712	0.829987	1.191182
F427	F	0.475874	-0.785078	0.000044
F428	F	0.809208	-0.451744	0.333377
F429	F	1.142541	-0.118411	0.666711
H430	H	0.695813	-0.333847	0.000092
H431	H	1.029146	-0.000514	0.333425
H432	H	1.362480	0.332819	0.666758
F433	F	0.671999	-0.039502	0.475620
F434	F	1.005332	0.293832	0.808953
F435	F	1.338665	0.627165	1.142286
H436	H	0.510426	0.121982	0.134176
H437	H	0.843759	0.455315	0.467510
H438	H	1.177093	0.788649	0.800843
F439	F	0.638905	-0.006418	0.872504
F440	F	0.972238	0.326916	1.205837
F441	F	1.305571	0.660249	1.539170
F442	F	0.638873	-0.006395	0.235418
F443	F	0.972206	0.326938	0.568752
F444	F	1.305540	0.660271	0.902085
F445	F	0.672001	-0.039505	0.524493
F446	F	1.005334	0.293829	0.857826
F447	F	1.338667	0.627162	1.191159
H448	H	-0.067950	0.184742	0.000090
H449	H	0.265384	0.518075	0.333424
H450	H	0.598717	0.851408	0.666757
H451	H	0.510466	0.121949	0.865977
H452	H	0.843800	0.455282	1.199311
H453	H	1.177133	0.788616	1.532644
F454	F	0.313471	0.155510	0.000051
F455	F	0.646804	0.488843	0.333385
F456	F	0.980138	0.822176	0.666718
H457	H	0.654087	-0.095857	0.000105
H458	H	0.987421	0.237477	0.333439
H459	H	1.320754	0.570810	0.666772
F460	F	0.638906	-0.006415	0.764707
F461	F	0.972239	0.326918	1.098040
F462	F	1.305572	0.660251	1.431374
F463	F	-0.197522	0.150328	0.000073
F464	F	0.135812	0.483661	0.333406
F465	F	0.469145	0.816995	0.666739
H466	H	0.653163	-0.187309	0.000089
H467	H	0.986496	0.146024	0.333422
H468	H	1.319829	0.479358	0.666755
H469	H	0.663714	-0.031219	0.374371
H470	H	0.997047	0.302115	0.707704
H471	H	1.330381	0.635448	1.041037
F472	F	-0.276483	-0.032719	0.000094
F473	F	0.056850	0.300614	0.333427
F474	F	0.390183	0.633947	0.666760
F475	F	-0.038492	-0.074451	0.000092
F476	F	0.294842	0.258882	0.333425
F477	F	0.628175	0.592215	0.666759
H478	H	0.646906	-0.802377	0.000065
H479	H	0.980239	-0.469043	0.333399
H480	H	1.313573	-0.135710	0.666732
H481	H	0.057737	-0.062438	0.000096
H482	H	0.391070	0.270896	0.333429
H483	H	0.724404	0.604229	0.666763
F484	F	0.338574	-0.026488	0.000067
F485	F	0.671907	0.306846	0.333401
F486	F	1.005240	0.640179	0.666734
F487	F	0.672000	-0.039507	0.632285
F488	F	1.005334	0.293827	0.965618
F489	F	1.338667	0.627160	1.298951
F490	F	0.216811	-0.071856	0.000091
F491	F	0.550144	0.261477	0.333425
F492	F	0.883477	0.594811	0.666758
F493	F	0.028282	0.196759	0.000078
F494	F	0.361615	0.530092	0.333411
F495	F	0.694949	0.863425	0.666745
H496	H	0.434821	-0.014469	0.000061
H497	H	0.768154	0.318864	0.333395
H498	H	1.101488	0.652197	0.666728
F499	F	0.075478	0.197229	0.000066
F500	F	0.408811	0.530563	0.333399
F501	F	0.742144	0.863896	0.666732
F502	F	0.179530	0.198285	0.000062
F503	F	0.512863	0.531619	0.333395
F504	F	0.846197	0.864952	0.666728
H505	H	0.412744	0.145477	0.000039
H506	H	0.746078	0.478810	0.333372
H507	H	1.079411	0.812143	0.666705
F508	F	0.705842	-0.433117	0.000086
F509	F	1.039175	-0.099784	0.333419
F510	F	1.372509	0.233550	0.666753
F511	F	-0.301595	0.149269	0.000078
F512	F	0.031738	0.482602	0.333411
F513	F	0.365071	0.815935	0.666744
H514	H	0.694276	-0.485083	0.000080
H515	H	1.027609	-0.151750	0.333413
H516	H	1.360943	0.181583	0.666747
H517	H	0.117526	-0.061832	0.000093
H518	H	0.450859	0.271501	0.333427
H519	H	0.784192	0.604835	0.666760
F520	F	0.469050	0.163315	0.632294
F521	F	0.802383	0.496648	0.965627
F522	F	1.135717	0.829982	1.298960
H523	H	0.647841	-0.710911	0.000072
H524	H	0.981174	-0.377578	0.333406
H525	H	1.314507	-0.044245	0.666739
F526	F	0.476930	-0.681023	0.000036
F527	F	0.810263	-0.347690	0.333369
F528	F	1.143596	-0.014357	0.666703
H529	H	0.446774	-0.391054	0.000028
H530	H	0.780107	-0.057720	0.333362
H531	H	1.113440	0.275613	0.666695
H532	H	0.510453	0.121948	0.771252
H533	H	0.843786	0.455281	1.104585
H534	H	1.177120	0.788615	1.437918
H535	H	0.447706	-0.299603	0.000031
H536	H	0.781040	0.033731	0.333364
H537	H	1.114373	0.367064	0.666698
H538	H	0.477313	0.155047	0.469107
H539	H	0.810646	0.488381	0.802441
H540	H	1.143979	0.821714	1.135774
F541	F	0.435215	-0.443029	0.000033
F542	F	0.768549	-0.109696	0.333367
F543	F	1.101882	0.223637	0.666700
F544	F	0.704298	-0.584368	0.000076
F545	F	1.037631	-0.251035	0.333409
F546	F	1.370965	0.082298	0.666742
F547	F	0.482123	-0.170032	0.000072
F548	F	0.815457	0.163302	0.333405
F549	F	1.148790	0.496635	0.666739
H550	H	0.630590	0.001896	0.134167
H551	H	0.963923	0.335230	0.467500
H552	H	1.297257	0.668563	0.800833
F553	F	0.483185	-0.065958	0.000073
F554	F	0.816518	0.267375	0.333406
F555	F	1.149852	0.600708	0.666739
H556	H	0.445243	-0.542300	0.000033
H557	H	0.778576	-0.208967	0.333366
H558	H	1.111909	0.124367	0.666699
H559	H	0.477306	0.155047	0.374381
H560	H	0.810640	0.488380	0.707714
H561	H	1.143973	0.821713	1.041047
F562	F	0.502149	0.130256	0.235444
F563	F	0.835482	0.463589	0.568777
F564	F	1.168816	0.796923	0.902111
