data_functionalizedCrystal
_audit_creation_method	'MofGen! by Chris Wilmer'
_symmetry_space_group_name_H-M	'P1'
_symmetry_Int_Tables_number	1
_symmetry_cell_setting	triclinic
loop_
_symmetry_equiv_pos_as_xyz
  x,y,z
_cell_length_a	25.639242
_cell_length_b	25.639239
_cell_length_c	25.639243
_cell_angle_alpha	90.009355
_cell_angle_beta	90.011912
_cell_angle_gamma	90.033587
loop_
_atom_site_label
_atom_site_type_symbol
_atom_site_fract_x
_atom_site_fract_y
_atom_site_fract_z
Zn1	Zn	0.799175	-0.208334	0.295734
Zn2	Zn	0.799113	-0.295738	0.208298
Zn3	Zn	0.711766	-0.208311	0.208299
Zn4	Zn	0.711697	-0.295732	0.295689
O5	O	0.755438	-0.252029	0.252005
O6	O	0.872332	-0.219941	0.284154
O7	O	0.787530	-0.284134	0.135133
O8	O	0.723416	-0.135149	0.219916
O9	O	0.872287	-0.284156	0.219915
O10	O	0.787635	-0.135166	0.284155
O11	O	0.723356	-0.219901	0.135134
O12	O	0.638592	-0.219896	0.219873
O13	O	0.723297	-0.284146	0.368860
O14	O	0.638541	-0.284124	0.284078
O15	O	0.787568	-0.219935	0.368893
O16	O	0.787462	-0.368903	0.219872
O17	O	0.723238	-0.368898	0.284077
C18	C	0.619595	-0.252007	0.251971
C19	C	0.561481	-0.252010	0.251969
C20	C	0.755350	-0.387872	0.251981
C21	C	0.755360	-0.445986	0.251988
C22	C	0.310306	-0.218530	0.218631
C23	C	0.364910	-0.218525	0.218625
O24	O	0.393162	-0.190028	0.190250
N25	N	0.392207	-0.252017	0.251995
C26	C	0.364898	-0.285512	0.285378
O27	O	0.393130	-0.313998	0.313762
C28	C	0.310294	-0.285513	0.285387
C29	C	0.283000	-0.252023	0.252011
C30	C	0.283011	-0.185042	0.185258
C31	C	0.228410	-0.185047	0.185264
C32	C	0.201105	-0.218541	0.218643
C33	C	0.228399	-0.252029	0.252017
C34	C	0.282985	-0.319005	0.318773
C35	C	0.228378	-0.319004	0.318779
C36	C	0.201084	-0.285514	0.285402
C37	C	0.146493	-0.285528	0.285402
N38	N	0.119195	-0.252036	0.252032
C39	C	0.146501	-0.218543	0.218652
C40	C	0.479568	-0.285505	0.285358
C41	C	0.534171	-0.285506	0.285347
C42	C	0.534179	-0.218518	0.218593
C43	C	0.479576	-0.218520	0.218602
C44	C	0.452271	-0.252013	0.251987
C45	C	0.031836	-0.218557	0.218667
C46	C	-0.022769	-0.218568	0.218675
C47	C	-0.022773	-0.285553	0.285430
C48	C	0.031827	-0.285545	0.285420
C49	C	0.059131	-0.252043	0.252038
O50	O	0.118206	-0.314009	0.313764
O51	O	0.118262	-0.190056	0.190278
C52	C	0.788967	-0.806338	0.218630
C53	C	0.788987	-0.860943	0.218637
O54	O	0.817470	-0.889171	0.190249
N55	N	0.755530	-0.888268	0.252040
C56	C	0.722054	-0.860986	0.285441
O57	O	0.693598	-0.889243	0.313854
C58	C	0.722036	-0.806383	0.285436
C59	C	0.755492	-0.779060	0.252028
C60	C	0.822420	-0.779016	0.185225
C61	C	0.822399	-0.724415	0.185217
C62	C	0.788925	-0.697137	0.218615
C63	C	0.755471	-0.724460	0.252020
C64	C	0.688563	-0.779102	0.318840
C65	C	0.688549	-0.724495	0.318833
C66	C	0.722005	-0.697173	0.285424
C67	C	0.721975	-0.642581	0.285411
N68	N	0.755433	-0.615256	0.252008
C69	C	0.788907	-0.642534	0.218610
C70	C	0.722093	-0.975657	0.285449
C71	C	0.722107	-1.030259	0.285452
C72	C	0.789042	-1.030212	0.218648
C73	C	0.789024	-0.975609	0.218644
C74	C	0.755550	-0.948332	0.252047
C75	C	0.788860	-0.527869	0.218597
C76	C	0.788835	-0.473264	0.218591
C77	C	0.721903	-0.473316	0.285396
C78	C	0.721926	-0.527916	0.285400
C79	C	0.755409	-0.555192	0.251999
O80	O	0.693509	-0.614319	0.313786
O81	O	0.817363	-0.614271	0.190208
C82	C	0.891811	-0.252052	0.252040
C83	C	0.949925	-0.252061	0.252054
C84	C	0.755432	-0.252042	0.388378
C85	C	0.755429	-0.252048	0.446492
C86	C	0.755540	-0.115656	0.252041
C87	C	0.755584	-0.057542	0.252056
C88	C	0.721967	-0.285468	0.697663
C89	C	0.721964	-0.285469	0.643058
O90	O	0.693494	-0.313887	0.614802
N91	N	0.755427	-0.252040	0.615766
C92	C	0.788891	-0.218605	0.643081
O93	O	0.817354	-0.190171	0.614853
C94	C	0.788890	-0.218602	0.697684
C95	C	0.755429	-0.252037	0.724974
C96	C	0.688507	-0.318900	0.724952
C97	C	0.688510	-0.318900	0.779553
C98	C	0.721973	-0.285468	0.806864
C99	C	0.755432	-0.252037	0.779574
C100	C	0.822351	-0.185165	0.724998
C101	C	0.822347	-0.185165	0.779605
C102	C	0.788886	-0.218599	0.806894
C103	C	0.788897	-0.218605	0.861486
N104	N	0.755434	-0.252034	0.888778
C105	C	0.721972	-0.285466	0.861467
C106	C	0.788890	-0.218613	0.528410
C107	C	0.788894	-0.218618	0.473808
C108	C	0.721966	-0.285481	0.473789
C109	C	0.721965	-0.285479	0.528392
C110	C	0.755427	-0.252042	0.555703
C111	C	0.721981	-0.285463	0.976132
C112	C	0.721989	-0.285462	1.030738
C113	C	0.788914	-0.218597	1.030751
C114	C	0.788909	-0.218600	0.976151
C115	C	0.755438	-0.252035	0.948843
O116	O	0.817352	-0.190200	0.889776
O117	O	0.693509	-0.313890	0.889702
C118	C	0.755442	-0.252030	1.116163
C119	C	0.755451	-0.252030	1.058049
H120	H	-0.044990	-0.191295	0.191494
H121	H	0.206150	-0.346277	0.345967
C122	C	0.061865	-0.181708	0.181944
C123	C	0.099429	-0.140688	0.204662
C124	C	0.129459	-0.103842	0.167936
C125	C	0.121923	-0.108017	0.108493
C126	C	0.084357	-0.149039	0.085773
C127	C	0.054328	-0.185885	0.122498
H128	H	0.105009	-0.137596	0.248668
H129	H	0.157268	-0.073475	0.184756
H130	H	0.144152	-0.080742	0.081307
H131	H	0.078777	-0.152131	0.041766
H132	H	0.026519	-0.216252	0.105678
H133	H	0.206192	-0.157776	0.158085
H134	H	0.054052	-0.312819	0.312594
C135	C	-0.052816	-0.322392	0.322149
C136	C	-0.112878	-0.322389	0.322156
C137	C	-0.142923	-0.359223	0.358880
C138	C	-0.112906	-0.396061	0.395596
C139	C	-0.052841	-0.396066	0.395590
C140	C	-0.022796	-0.359231	0.358866
H141	H	-0.135101	-0.295118	0.294976
H142	H	-0.187387	-0.359220	0.358884
H143	H	-0.135147	-0.423329	0.422781
H144	H	-0.030618	-0.423337	0.422770
H145	H	0.021668	-0.359234	0.358862
H146	H	0.694685	-0.550163	0.312606
C147	C	0.564191	-0.322350	0.322057
C148	C	0.601754	-0.299763	0.363144
C149	C	0.631772	-0.336606	0.399858
C150	C	0.624229	-0.396036	0.395484
C151	C	0.586665	-0.418626	0.354394
C152	C	0.556646	-0.381783	0.317681
H153	H	0.607339	-0.255766	0.366384
H154	H	0.659580	-0.319882	0.430275
H155	H	0.646451	-0.423309	0.422661
H156	H	0.581079	-0.462623	0.351155
H157	H	0.528839	-0.398507	0.287263
C158	C	0.449535	-0.322356	0.322078
C159	C	0.457015	-0.381785	0.317696
C160	C	0.426986	-0.418636	0.354417
C161	C	0.389477	-0.396058	0.395518
C162	C	0.381995	-0.336626	0.399901
C163	C	0.412024	-0.299775	0.363181
H164	H	0.484784	-0.398501	0.287269
H165	H	0.432525	-0.462631	0.351172
H166	H	0.367247	-0.423337	0.422700
H167	H	0.354227	-0.319910	0.430328
H168	H	0.406485	-0.255780	0.366426
H169	H	0.816267	-0.953366	0.191440
H170	H	0.694859	-1.052501	0.312651
C171	C	0.651694	-0.355681	0.694919
C172	C	0.592261	-0.351406	0.702425
C173	C	0.555448	-0.388193	0.672398
C174	C	0.578068	-0.429255	0.634865
C175	C	0.637504	-0.433530	0.627357
C176	C	0.674318	-0.396743	0.657384
H177	H	0.575514	-0.321009	0.730211
H178	H	0.511450	-0.385028	0.677957
H179	H	0.550817	-0.456486	0.612637
H180	H	0.654252	-0.463928	0.599571
H181	H	0.718316	-0.399909	0.651826
C182	C	0.825707	-0.181836	0.558449
C183	C	0.866741	-0.204496	0.595991
C184	C	0.903557	-0.167719	0.626025
C185	C	0.899340	-0.108281	0.618518
C186	C	0.858305	-0.085618	0.580974
C187	C	0.821488	-0.122395	0.550940
H188	H	0.869864	-0.248498	0.601549
H189	H	0.933934	-0.184496	0.653818
H190	H	0.926594	-0.081057	0.640752
H191	H	0.855182	-0.041616	0.575416
H192	H	0.791111	-0.105618	0.523147
H193	H	0.694830	-0.953451	0.312649
H194	H	0.694718	-0.312702	0.451543
H195	H	0.305199	-0.346277	0.345951
C196	C	0.825706	-0.181844	0.443793
C197	C	0.821484	-0.122406	0.451315
C198	C	0.858296	-0.085627	0.421303
C199	C	0.899330	-0.108287	0.383770
C200	C	0.903554	-0.167727	0.376247
C201	C	0.866742	-0.204506	0.406259
H202	H	0.791107	-0.105629	0.479100
H203	H	0.855169	-0.041625	0.426872
H204	H	0.926580	-0.081061	0.361553
H205	H	0.933931	-0.184504	0.348461
H206	H	0.869869	-0.248508	0.400690
H207	H	0.849600	-0.157939	0.702788
H208	H	0.305238	-0.157764	0.158076
H209	H	0.661317	-0.801339	0.346043
H210	H	0.849594	-0.157933	0.801838
H211	H	0.816127	-0.550070	0.191399
C212	C	0.825720	-0.181828	0.946127
C213	C	0.803093	-0.140775	0.908593
C214	C	0.839901	-0.103999	0.878573
C215	C	0.899336	-0.108277	0.886087
C216	C	0.921966	-0.149333	0.923622
C217	C	0.885158	-0.186108	0.953642
H218	H	0.759093	-0.137606	0.903030
H219	H	0.823149	-0.073607	0.850787
H220	H	0.926584	-0.081054	0.863864
H221	H	0.965966	-0.152501	0.929185
H222	H	0.901910	-0.216500	0.981428
H223	H	0.661261	-0.346124	0.801767
C224	C	0.825868	-1.060224	0.181913
C225	C	0.825887	-1.120286	0.181925
C226	C	0.862712	-1.150300	0.145192
C227	C	0.899517	-1.120252	0.108445
C228	C	0.899499	-1.060187	0.108432
C229	C	0.862675	-1.030173	0.145165
H230	H	0.798641	-1.142532	0.209128
H231	H	0.862724	-1.194764	0.145202
H232	H	0.926776	-1.142470	0.081253
H233	H	0.926746	-1.037941	0.081229
H234	H	0.862662	-0.985709	0.145155
H235	H	0.816078	-0.451019	0.191384
H236	H	0.556421	-0.191245	0.191415
C237	C	0.449554	-0.181677	0.181892
C238	C	0.457102	-0.122247	0.186268
C239	C	0.427083	-0.085401	0.149557
C240	C	0.389517	-0.107985	0.108471
C241	C	0.381967	-0.167417	0.104094
C242	C	0.411986	-0.204263	0.140804
H243	H	0.484912	-0.105527	0.216684
H244	H	0.432672	-0.041405	0.152798
H245	H	0.367295	-0.080709	0.081296
H246	H	0.354157	-0.184138	0.073678
H247	H	0.406397	-0.248260	0.137564
C248	C	0.859208	-0.694367	0.148471
C249	C	0.855000	-0.701903	0.089031
C250	C	0.891812	-0.671861	0.052284
C251	C	0.932833	-0.634282	0.074977
C252	C	0.937043	-0.626744	0.134421
C253	C	0.900230	-0.656787	0.171168
H254	H	0.824632	-0.729723	0.072229
H255	H	0.888696	-0.677441	0.008279
H256	H	0.960084	-0.612043	0.047775
H257	H	0.967411	-0.598925	0.151223
H258	H	0.903347	-0.651207	0.215172
H259	H	0.694717	-0.312703	0.550608
C260	C	0.859246	-0.809015	0.148482
C261	C	0.855022	-0.801515	0.089041
C262	C	0.891847	-0.831509	0.052292
C263	C	0.932896	-0.869002	0.074984
C264	C	0.937122	-0.876503	0.134427
C265	C	0.900296	-0.846510	0.171177
H266	H	0.824633	-0.773759	0.072240
H267	H	0.888718	-0.825956	0.008287
H268	H	0.960156	-0.891205	0.047780
H269	H	0.967510	-0.904260	0.151228
H270	H	0.903425	-0.852063	0.215181
C271	C	0.685174	-0.322237	1.060755
C272	C	0.648362	-0.359006	1.030709
C273	C	0.611547	-0.395777	1.060725
C274	C	0.611543	-0.395781	1.120786
C275	C	0.648356	-0.359011	1.150836
C276	C	0.685172	-0.322239	1.120820
H277	H	0.648363	-0.359004	0.986245
H278	H	0.584295	-0.422997	1.038480
H279	H	0.584290	-0.423001	1.143006
H280	H	0.648355	-0.359012	1.195300
H281	H	0.712424	-0.295020	1.143065
H282	H	0.694646	-0.451097	0.312586
H283	H	0.816160	-0.191380	1.052998
H284	H	0.661291	-0.702289	0.346035
H285	H	0.694721	-0.312685	0.953904
