data_functionalizedCrystal
_audit_creation_method	'MofGen! by Chris Wilmer'
_symmetry_space_group_name_H-M	'P1'
_symmetry_Int_Tables_number	1
_symmetry_cell_setting	triclinic
loop_
_symmetry_equiv_pos_as_xyz
  x,y,z
_cell_length_a	29.839131
_cell_length_b	19.077105
_cell_length_c	19.076919
_cell_angle_alpha	90.076224
_cell_angle_beta	87.728385
_cell_angle_gamma	92.261923
loop_
_atom_site_label
_atom_site_type_symbol
_atom_site_fract_x
_atom_site_fract_y
_atom_site_fract_z
Zn1	Zn	-0.217337	-1.058168	0.440417
Zn2	Zn	0.115996	-0.724835	0.773750
Zn3	Zn	0.449329	-0.391501	1.107083
Zn4	Zn	-0.289570	-1.062774	0.322910
Zn5	Zn	0.043763	-0.729440	0.656243
Zn6	Zn	0.377097	-0.396107	0.989576
Zn7	Zn	-0.211319	-0.945389	0.318210
Zn8	Zn	0.122014	-0.612055	0.651544
Zn9	Zn	0.455347	-0.278722	0.984877
Zn10	Zn	-0.289299	-0.940596	0.435662
Zn11	Zn	0.044034	-0.607262	0.768996
Zn12	Zn	0.377367	-0.273929	1.102329
O13	O	-0.251882	-1.001731	0.379300
O14	O	0.081452	-0.668398	0.712633
O15	O	0.414785	-0.335065	1.045966
O16	O	-0.229551	-1.157109	0.428786
O17	O	0.103782	-0.823776	0.762119
O18	O	0.437115	-0.490443	1.095452
O19	O	-0.276785	-1.051136	0.223955
O20	O	0.056549	-0.717802	0.557288
O21	O	0.389882	-0.384469	0.890622
O22	O	-0.149253	-0.960427	0.334444
O23	O	0.184080	-0.627094	0.667778
O24	O	0.517414	-0.293761	1.001111
O25	O	-0.282620	-1.160493	0.342454
O26	O	0.050713	-0.827160	0.675787
O27	O	0.384046	-0.493827	1.009120
O28	O	-0.153675	-1.043286	0.424229
O29	O	0.179659	-0.709952	0.757562
O30	O	0.512992	-0.376619	1.090896
O31	O	-0.219294	-0.964893	0.220502
O32	O	0.114039	-0.631560	0.553836
O33	O	0.447372	-0.298227	0.887169
O34	O	-0.219031	-0.846422	0.329834
O35	O	0.114302	-0.513089	0.663167
O36	O	0.447635	-0.179756	0.996501
O37	O	-0.282159	-0.952258	0.534624
O38	O	0.051175	-0.618925	0.867958
O39	O	0.384508	-0.285592	1.201291
O40	O	-0.276323	-0.842901	0.416125
O41	O	0.057010	-0.509568	0.749459
O42	O	0.390344	-0.176234	1.082792
O43	O	-0.229289	-1.038638	0.538117
O44	O	0.104045	-0.705305	0.871451
O45	O	0.437378	-0.371972	1.204784
O46	O	-0.352399	-1.046488	0.337844
O47	O	-0.019065	-0.713155	0.671177
O48	O	0.314268	-0.379822	1.004510
O49	O	-0.352200	-0.956724	0.420682
O50	O	-0.018866	-0.623391	0.754016
O51	O	0.314467	-0.290058	1.087349
C52	C	-0.368600	-1.001605	0.379273
C53	C	-0.035267	-0.668271	0.712606
C54	C	0.298066	-0.334938	1.045940
C55	C	-0.418535	-1.001614	0.379288
C56	C	-0.085202	-0.668280	0.712621
C57	C	0.248131	-0.334947	1.045954
C58	C	-0.246995	-0.819165	0.371954
C59	C	0.086338	-0.485832	0.705288
C60	C	0.419672	-0.152499	1.038621
C61	C	-0.244916	-0.741062	0.368828
C62	C	0.088417	-0.407729	0.702162
C63	C	0.421751	-0.074396	1.035495
C64	C	-0.256365	-0.994400	0.562580
C65	C	0.076969	-0.661067	0.895913
C66	C	0.410302	-0.327733	1.229247
C67	C	-0.258275	-0.991276	0.640683
C68	C	0.075058	-0.657942	0.974016
C69	C	0.408392	-0.324609	1.307350
C70	C	-0.775038	-0.955020	0.422432
C71	C	-0.441705	-0.621687	0.755765
C72	C	-0.108372	-0.288354	1.089099
C73	C	-0.587362	-0.954928	0.422406
C74	C	-0.254029	-0.621595	0.755740
C75	C	0.079304	-0.288262	1.089073
O76	O	-0.563022	-0.915161	0.459070
O77	O	-0.229689	-0.581827	0.792403
O78	O	0.103645	-0.248494	1.125736
N79	N	-0.563983	-1.001687	0.379312
N80	N	-0.230650	-0.668354	0.712645
N81	N	0.102684	-0.335020	1.045978
C82	C	-0.587525	-1.048475	0.336224
C83	C	-0.254192	-0.715142	0.669557
C84	C	0.079141	-0.381808	1.002890
O85	O	-0.563334	-1.088249	0.299574
O86	O	-0.230000	-0.754915	0.632907
O87	O	0.103333	-0.421582	0.966240
C88	C	-0.775201	-1.048570	0.336254
C89	C	-0.441867	-0.715236	0.669587
C90	C	-0.108534	-0.381903	1.002920
C91	C	-0.798578	-1.001803	0.379346
C92	C	-0.465244	-0.668470	0.712679
C93	C	-0.131911	-0.335137	1.046013
C94	C	-0.798415	-0.908258	0.465521
C95	C	-0.465082	-0.574925	0.798855
C96	C	-0.131749	-0.241592	1.132188
C97	C	-0.845331	-0.908279	0.465525
C98	C	-0.511998	-0.574946	0.798858
C99	C	-0.178665	-0.241613	1.132191
C100	C	-0.868871	-0.955062	0.422438
C101	C	-0.535537	-0.621729	0.755772
C102	C	-0.202204	-0.288396	1.089105
C103	C	-0.845494	-1.001824	0.379349
C104	C	-0.512160	-0.668491	0.712682
C105	C	-0.178827	-0.335158	1.046016
C106	C	-0.798743	-1.095361	0.293170
C107	C	-0.465409	-0.762027	0.626503
C108	C	-0.132076	-0.428694	0.959837
C109	C	-0.845665	-1.095381	0.293183
C110	C	-0.512331	-0.762048	0.626516
C111	C	-0.178998	-0.428715	0.959849
C112	C	-0.869041	-1.048615	0.336275
C113	C	-0.535708	-0.715282	0.669608
C114	C	-0.202375	-0.381948	1.002941
C115	C	-0.915949	-1.048628	0.336266
C116	C	-0.582616	-0.715295	0.669599
C117	C	-0.249282	-0.381961	1.002933
N118	N	-0.939328	-1.001870	0.379361
N119	N	-0.605995	-0.668536	0.712694
N120	N	-0.272662	-0.335203	1.046027
C121	C	-0.915789	-0.955087	0.422447
C122	C	-0.582456	-0.621753	0.755780
C123	C	-0.249123	-0.288420	1.089114
C124	C	-0.488993	-1.048421	0.336210
C125	C	-0.155660	-0.715088	0.669543
C126	C	0.177674	-0.381754	1.002877
C127	C	-0.442074	-1.048396	0.336202
C128	C	-0.108741	-0.715063	0.669535
C129	C	0.224592	-0.381730	1.002868
C130	C	-0.441915	-0.954851	0.422385
C131	C	-0.108581	-0.621517	0.755719
C132	C	0.224752	-0.288184	1.089052
C133	C	-0.488834	-0.954872	0.422390
C134	C	-0.155501	-0.621539	0.755723
C135	C	0.177833	-0.288206	1.089056
C136	C	-0.512373	-1.001662	0.379305
C137	C	-0.179039	-0.668329	0.712638
C138	C	0.154294	-0.334996	1.045971
C139	C	-1.014316	-0.955134	0.422450
C140	C	-0.680983	-0.621800	0.755783
C141	C	-0.347650	-0.288467	1.089117
C142	C	-1.061236	-0.955157	0.422447
C143	C	-0.727903	-0.621823	0.755780
C144	C	-0.394570	-0.288490	1.089114
C145	C	-1.061392	-1.048705	0.336266
C146	C	-0.728059	-0.715371	0.669600
C147	C	-0.394726	-0.382038	1.002933
C148	C	-1.014476	-1.048679	0.336266
C149	C	-0.681143	-0.715346	0.669599
C150	C	-0.347809	-0.382013	1.002933
C151	C	-0.990939	-1.001891	0.379364
C152	C	-0.657606	-0.668558	0.712697
C153	C	-0.324273	-0.335225	1.046030
O154	O	-0.940318	-1.088380	0.299628
O155	O	-0.606985	-0.755047	0.632961
O156	O	-0.273652	-0.421714	0.966294
O157	O	-0.939990	-0.915329	0.459103
O158	O	-0.606656	-0.581996	0.792436
O159	O	-0.273323	-0.248663	1.125770
C160	C	-0.728122	-0.955000	0.422429
C161	C	-0.394789	-0.621666	0.755762
C162	C	-0.061456	-0.288333	1.089096
C163	C	-0.704745	-1.001762	0.379340
C164	C	-0.371412	-0.668428	0.712673
C165	C	-0.038079	-0.335095	1.046006
C166	C	-0.728285	-1.048545	0.336253
C167	C	-0.394951	-0.715211	0.669587
C168	C	-0.061618	-0.381878	1.002920
C169	C	-0.657827	-1.001737	0.379331
C170	C	-0.324493	-0.668404	0.712664
C171	C	0.008840	-0.335071	1.045998
C172	C	-0.634288	-0.954954	0.422417
C173	C	-0.300954	-0.621621	0.755751
C174	C	0.032379	-0.288288	1.089084
C175	C	-0.657667	-0.908196	0.465512
C176	C	-0.324334	-0.574862	0.798845
C177	C	0.009000	-0.241529	1.132179
C178	C	-0.704583	-0.908217	0.465515
C179	C	-0.371250	-0.574883	0.798848
C180	C	-0.037916	-0.241550	1.132182
C181	C	-0.704905	-1.095303	0.293159
C182	C	-0.371572	-0.761970	0.626492
C183	C	-0.038238	-0.428636	0.959825
C184	C	-0.657989	-1.095278	0.293158
C185	C	-0.324656	-0.761944	0.626492
C186	C	0.008678	-0.428611	0.959825
C187	C	-0.634450	-1.048495	0.336245
C188	C	-0.301116	-0.715162	0.669578
C189	C	0.032217	-0.381828	1.002911
C190	C	-0.134708	-1.001877	0.379343
C191	C	0.198625	-0.668544	0.712676
C192	C	0.531959	-0.335211	1.046009
C193	C	-0.084776	-1.001940	0.379361
C194	C	0.248558	-0.668606	0.712694
C195	C	0.581891	-0.335273	1.046028
C196	C	-0.256787	-1.185010	0.386674
C197	C	0.076546	-0.851677	0.720008
C198	C	0.409879	-0.518344	1.053341
C199	C	-0.258878	-1.263113	0.389817
C200	C	0.074455	-0.929779	0.723150
C201	C	0.407789	-0.596446	1.056484
C202	C	-0.273809	-0.702557	0.412217
C203	C	0.059524	-0.369224	0.745550
C204	C	0.392857	-0.035890	1.078883
C205	C	-0.271850	-0.629171	0.409283
C206	C	0.061483	-0.295837	0.742616
C207	C	0.394817	0.037496	1.075950
C208	C	-0.240999	-0.594291	0.362957
C209	C	0.092334	-0.260958	0.696291
C210	C	0.425668	0.072376	1.029624
C211	C	-0.212102	-0.632801	0.319567
C212	C	0.121231	-0.299468	0.652901
C213	C	0.454564	0.033865	0.986234
C214	C	-0.214060	-0.706186	0.322505
C215	C	0.119273	-0.372853	0.655838
C216	C	0.452607	-0.039520	0.989171
C217	C	-0.231939	-0.375008	0.349365
C218	C	0.101394	-0.041675	0.682698
C219	C	0.434728	0.291659	1.016031
C220	C	-0.229984	-0.301618	0.346429
C221	C	0.103349	0.031715	0.679762
C222	C	0.436682	0.365049	1.013095
C223	C	-0.289732	-0.297992	0.436146
C224	C	0.043602	0.035341	0.769479
C225	C	0.376935	0.368674	1.102813
C226	C	-0.291688	-0.371379	0.439076
C227	C	0.041645	-0.038045	0.772410
C228	C	0.374978	0.295288	1.105743
C229	C	-0.262790	-0.409883	0.395689
C230	C	0.070543	-0.076549	0.729022
C231	C	0.403876	0.256784	1.062356
N232	N	-0.238996	-0.519278	0.359956
N233	N	0.094337	-0.185945	0.693289
N234	N	0.427670	0.147388	1.026623
N235	N	-0.264791	-0.484894	0.398694
N236	N	0.068542	-0.151560	0.732028
N237	N	0.401876	0.181773	1.065361
C238	C	-0.247385	-1.009075	0.196734
C239	C	0.085949	-0.675742	0.530068
C240	C	0.419282	-0.342408	0.863401
C241	C	-0.245351	-1.012335	0.118637
C242	C	0.087982	-0.679002	0.451970
C243	C	0.421316	-0.345669	0.785304
C244	C	-0.231647	-1.034779	0.679196
C245	C	0.101686	-0.701446	1.012529
C246	C	0.435019	-0.368112	1.345862
C247	C	-0.233440	-1.031835	0.752581
C248	C	0.099893	-0.698501	1.085915
C249	C	0.433226	-0.365168	1.419248
C250	C	-0.261864	-0.985390	0.787453
C251	C	0.071469	-0.652057	1.120787
C252	C	0.404803	-0.318724	1.454120
C253	C	-0.288493	-0.941882	0.748935
C254	C	0.044841	-0.608549	1.082269
C255	C	0.378174	-0.275216	1.415602
C256	C	-0.286697	-0.944823	0.675551
C257	C	0.046636	-0.611490	1.008884
C258	C	0.379970	-0.278157	1.342217
C259	C	-0.270184	-0.971768	1.006734
C260	C	0.063149	-0.638435	1.340068
C261	C	0.396482	-0.305102	1.673401
C262	C	-0.271979	-0.968832	1.080124
C263	C	0.061354	-0.635499	1.413458
C264	C	0.394688	-0.302165	1.746791
C265	C	-0.216926	-1.058784	1.083765
C266	C	0.116408	-0.725451	1.417099
C267	C	0.449741	-0.392117	1.750432
C268	C	-0.215134	-1.061724	1.010379
C269	C	0.118199	-0.728391	1.343713
C270	C	0.451532	-0.395057	1.677046
C271	C	-0.241761	-1.018213	0.971868
C272	C	0.091572	-0.684880	1.305201
C273	C	0.424905	-0.351547	1.638534
N274	N	-0.263699	-0.982381	0.862465
N275	N	0.069635	-0.649048	1.195799
N276	N	0.402968	-0.315715	1.529132
N277	N	-0.239924	-1.021219	0.896857
N278	N	0.093409	-0.687886	1.230190
N279	N	0.426742	-0.354553	1.563523
H280	H	-1.080268	-0.917072	0.457540
H281	H	-0.746934	-0.583739	0.790873
H282	H	-0.413601	-0.250406	1.124206
H283	H	-0.204857	-0.273221	0.308709
H284	H	0.128477	0.060112	0.642042
H285	H	0.461810	0.393446	0.975376
F286	F	-0.324525	-0.408495	0.488381
F287	F	0.008808	-0.075162	0.821715
F288	F	0.342142	0.258172	1.155048
F289	F	-0.318742	-0.892450	0.786050
F290	F	0.014592	-0.559116	1.119384
F291	F	0.347925	-0.225783	1.452717
F292	F	-0.205115	-1.078161	0.793567
F293	F	0.128218	-0.744828	1.126901
F294	F	0.461551	-0.411495	1.460234
F295	F	-0.179266	-0.595678	0.270268
F296	F	0.154068	-0.262344	0.603601
F297	F	0.487401	0.070989	0.936934
H298	H	-0.208411	-0.406349	0.314030
H299	H	0.124922	-0.073016	0.647363
H300	H	0.458255	0.260317	0.980697
F301	F	-0.302231	-0.919394	1.117236
F302	F	0.031103	-0.586061	1.450569
F303	F	0.364436	-0.252728	1.783902
F304	F	-0.306648	-0.739672	0.461520
F305	F	0.026686	-0.406339	0.794853
F306	F	0.360019	-0.073005	1.128187
H307	H	-0.723612	-0.870136	0.500606
H308	H	-0.390279	-0.536802	0.833940
H309	H	-0.056946	-0.203469	1.167273
F310	F	-0.320486	-0.257009	0.482317
F311	F	0.012848	0.076325	0.815651
F312	F	0.346181	0.409658	1.148984
F313	F	-0.184882	-1.111157	0.973272
F314	F	0.148451	-0.777823	1.306605
F315	F	0.481784	-0.444490	1.639938
H316	H	-0.195247	-1.094207	1.115129
H317	H	0.138086	-0.760874	1.448463
H318	H	0.471420	-0.427540	1.781796
F319	F	-0.298523	-0.925460	0.965757
F320	F	0.034810	-0.592127	1.299090
F321	F	0.368143	-0.258794	1.632423
H322	H	-0.779254	-0.870162	0.500611
H323	H	-0.445920	-0.536829	0.833944
H324	H	-0.112587	-0.203496	1.167277
F325	F	-0.183307	-0.747166	0.276326
F326	F	0.150027	-0.413833	0.609660
F327	F	0.483360	-0.080499	0.942993
F328	F	-0.201397	-1.084215	0.642089
F329	F	0.131936	-0.750882	0.975423
F330	F	0.465270	-0.417549	1.308756
H331	H	-0.308376	-0.909391	0.644194
H332	H	0.024958	-0.576058	0.977527
H333	H	0.358291	-0.242725	1.310861
H334	H	-0.507864	-0.916795	0.457483
H335	H	-0.174531	-0.583461	0.790817
H336	H	0.158802	-0.250128	1.124150
H337	H	-0.864360	-0.870196	0.500614
H338	H	-0.531027	-0.536863	0.833947
H339	H	-0.197694	-0.203530	1.167280
F340	F	-0.989273	-0.905336	0.468319
F341	F	-0.655940	-0.572003	0.801652
F342	F	-0.322607	-0.238670	1.134985
H343	H	-0.422741	-0.916757	0.457467
H344	H	-0.089408	-0.583424	0.790800
H345	H	0.243926	-0.250090	1.124133
H346	H	-0.423044	-1.086470	0.301104
H347	H	-0.089711	-0.753137	0.634437
H348	H	0.243623	-0.419804	0.967771
H349	H	-0.508154	-1.086525	0.301122
H350	H	-0.174821	-0.753191	0.634456
H351	H	0.158513	-0.419858	0.967789
H352	H	-0.779716	-1.133442	0.258081
H353	H	-0.446382	-0.800109	0.591414
H354	H	-0.113049	-0.466776	0.924747
H355	H	-1.080566	-1.086792	0.301184
H356	H	-0.747233	-0.753458	0.634517
H357	H	-0.413900	-0.420125	0.967851
F358	F	-0.870713	-1.145185	0.247326
F359	F	-0.537380	-0.811851	0.580659
F360	F	-0.204047	-0.478518	0.913992
F361	F	-0.632607	-0.858404	0.511365
F362	F	-0.299273	-0.525071	0.844699
F363	F	0.034060	-0.191737	1.178032
F364	F	-0.989595	-1.098441	0.290390
F365	F	-0.656262	-0.765107	0.623723
F366	F	-0.322929	-0.431774	0.957056
H367	H	-0.724066	-1.133401	0.258073
H368	H	-0.390733	-0.800067	0.591406
H369	H	-0.057399	-0.466734	0.924739
F370	F	-0.302602	-0.588194	0.455463
F371	F	0.030731	-0.254860	0.788797
F372	F	0.364064	0.078473	1.122130
F373	F	-0.633115	-1.145055	0.247288
F374	F	-0.299781	-0.811722	0.580622
F375	F	0.033552	-0.478388	0.913955
