data_functionalizedCrystal
_audit_creation_method	'MofGen! by Chris Wilmer'
_symmetry_space_group_name_H-M	'P1'
_symmetry_Int_Tables_number	1
_symmetry_cell_setting	triclinic
loop_
_symmetry_equiv_pos_as_xyz
  x,y,z
_cell_length_a	14.853567
_cell_length_b	9.065218
_cell_length_c	13.930277
_cell_angle_alpha	89.997334
_cell_angle_beta	89.995755
_cell_angle_gamma	84.325408
loop_
_atom_site_label
_atom_site_type_symbol
_atom_site_fract_x
_atom_site_fract_y
_atom_site_fract_z
O1	O	-1.197794	-0.192615	0.079761
O2	O	-0.935504	-0.215560	0.079777
O3	O	-1.072070	0.010662	0.079766
O4	O	-1.061227	-0.418837	0.079771
O5	O	-1.072051	0.010667	-0.079895
O6	O	-0.935485	-0.215555	-0.079885
O7	O	-1.197775	-0.192610	-0.079901
Zn8	Zn	-1.066627	-0.204082	-0.105243
Zn9	Zn	-1.066652	-0.204088	0.105118
O10	O	-1.061208	-0.418833	-0.079891
C11	C	-0.901898	-0.214518	-0.000052
C12	C	-0.801791	-0.211403	-0.000046
C13	C	-1.071019	0.065631	-0.000063
C14	C	-1.067903	0.229412	-0.000058
C15	C	-1.231381	-0.193652	-0.000070
C16	C	-1.331487	-0.196768	-0.000070
C17	C	-0.388166	-0.063852	-0.000069
C18	C	-0.368873	-0.332609	-0.000065
C19	C	-0.462929	-0.335539	-0.000062
C20	C	-0.519607	-0.202622	-0.000061
C21	C	-0.482230	-0.066777	-0.000063
C22	C	-0.500313	-0.471382	-0.000050
C23	C	-0.594374	-0.474316	-0.000046
C24	C	-0.651054	-0.341399	-0.000052
C25	C	-0.613672	-0.205548	-0.000055
C26	C	-0.670350	-0.072632	-0.000054
C27	C	-0.632969	0.063221	-0.000064
C28	C	-0.538910	0.066141	-0.000069
C29	C	-0.745113	-0.344319	-0.000047
C30	C	-0.764414	-0.075557	-0.000048
C31	C	-1.062260	-0.473801	-0.000059
C32	C	-1.065376	-0.637582	-0.000058
N33	N	-1.066616	-0.204077	-0.248809
C34	C	-1.006178	-0.304220	-0.701074
C35	C	-1.127151	-0.103945	-0.701052
C36	C	-1.127140	-0.103940	-0.600557
C37	C	-1.066648	-0.204079	-0.550315
C38	C	-1.006167	-0.304222	-0.600569
C39	C	-1.187627	-0.003809	-0.550295
C40	C	-1.187619	-0.003802	-0.449793
C41	C	-1.127122	-0.103934	-0.399550
C42	C	-1.066637	-0.204080	-0.449810
C43	C	-1.006145	-0.304218	-0.399568
C44	C	-0.945656	-0.404358	-0.449826
C45	C	-0.945670	-0.404354	-0.550325
C46	C	-1.127108	-0.103938	-0.299051
C47	C	-1.006135	-0.304220	-0.299063
N48	N	-1.066670	-0.204082	0.248684
H49	H	-0.810556	0.032681	-0.000051
C50	C	-0.498271	0.213581	0.000127
C51	C	-0.444859	0.223113	0.082283
C52	C	-0.407414	0.358918	0.082506
H53	H	-0.461912	0.220454	-0.055484
H54	H	-0.545469	0.292371	0.000179
H55	H	-0.397668	0.144344	0.082223
H56	H	-0.481199	0.216266	0.137908
H57	H	-0.454612	0.437708	0.082558
H58	H	-0.371059	0.365779	0.026891
H59	H	-0.371177	0.365409	0.138252
C60	C	-0.694662	0.207367	-0.000109
C61	C	-0.785033	0.175715	-0.000119
C62	C	-0.841892	0.308459	-0.000172
H63	H	-0.683329	0.263171	0.055549
H64	H	-0.683272	0.263073	-0.055813
H65	H	-0.796418	0.120032	0.055580
H66	H	-0.796394	0.119931	-0.055773
H67	H	-0.830503	0.364165	-0.055877
H68	H	-0.830551	0.364254	0.055487
H69	H	-0.903215	0.287001	-0.000188
C70	C	-1.192642	0.004806	-0.244348
C71	C	-1.143901	0.095252	-0.186632
C72	C	-1.204249	0.195422	-0.136212
H73	H	-1.228710	0.064585	-0.288542
H74	H	-1.230567	-0.048384	-0.205086
H75	H	-1.105992	0.148438	-0.225892
H76	H	-1.107836	0.035514	-0.142420
H77	H	-1.242173	0.142231	-0.096950
H78	H	-1.240313	0.255190	-0.180414
H79	H	-1.171187	0.256791	-0.097040
C80	C	-0.940417	-0.413111	-0.244692
C81	C	-0.887466	-0.500824	-0.310218
C82	C	-0.826926	-0.601164	-0.260168
H83	H	-0.902371	-0.360101	-0.205489
H84	H	-0.973320	-0.474711	-0.205503
H85	H	-0.854564	-0.439233	-0.349391
H86	H	-0.925486	-0.553867	-0.349424
H87	H	-0.859829	-0.662763	-0.220979
H88	H	-0.788886	-0.548141	-0.220966
H89	H	-0.790997	-0.660698	-0.304620
H90	H	-0.357726	0.046756	-0.000081
H91	H	-0.322721	-0.440823	-0.000058
H92	H	-0.896407	-0.485898	-0.408908
H93	H	-0.956926	-0.385749	-0.741997
H94	H	-0.454159	-0.579594	-0.000041
C95	C	-0.880108	-0.513015	-0.605065
C96	C	-0.893087	-0.491610	-0.703831
C97	C	-0.832720	-0.591697	-0.754290
H98	H	-0.819767	-0.496916	-0.588730
H99	H	-0.890708	-0.611539	-0.588642
H100	H	-0.882480	-0.393110	-0.720247
H101	H	-0.953416	-0.507721	-0.720194
H102	H	-0.843321	-0.690220	-0.737867
H103	H	-0.772383	-0.575589	-0.737947
H104	H	-0.841524	-0.577197	-0.821307
H105	H	-0.624801	-0.584935	-0.000038
H106	H	-0.775544	-0.454927	-0.000041
H107	H	-1.176406	-0.022422	-0.741962
H108	H	-1.236882	0.077714	-0.591205
H109	H	-1.236871	0.077738	-0.408879
