data_functionalizedCrystal
_audit_creation_method	'MofGen! by Chris Wilmer'
_symmetry_space_group_name_H-M	'P1'
_symmetry_Int_Tables_number	1
_symmetry_cell_setting	triclinic
loop_
_symmetry_equiv_pos_as_xyz
  x,y,z
_cell_length_a	18.050582
_cell_length_b	18.050591
_cell_length_c	18.050589
_cell_angle_alpha	90.024227
_cell_angle_beta	90.018205
_cell_angle_gamma	90.020922
loop_
_atom_site_label
_atom_site_type_symbol
_atom_site_fract_x
_atom_site_fract_y
_atom_site_fract_z
Zn1	Zn	-0.420054	-1.135293	0.295786
Zn2	Zn	-0.170054	-0.885293	0.545786
Zn3	Zn	0.079946	-0.635293	0.795786
Zn4	Zn	0.329946	-0.385293	1.045786
Zn5	Zn	-0.295873	-1.135203	0.419969
Zn6	Zn	-0.045873	-0.885203	0.669969
Zn7	Zn	0.204127	-0.635203	0.919969
Zn8	Zn	0.454127	-0.385203	1.169969
Zn9	Zn	-0.295865	-1.011112	0.295789
Zn10	Zn	-0.045865	-0.761112	0.545789
Zn11	Zn	0.204135	-0.511112	0.795789
Zn12	Zn	0.454135	-0.261112	1.045789
Zn13	Zn	-0.420009	-1.011060	0.419930
Zn14	Zn	-0.170009	-0.761060	0.669930
Zn15	Zn	0.079991	-0.511060	0.919930
Zn16	Zn	0.329991	-0.261060	1.169930
O17	O	-0.357950	-1.073167	0.357868
O18	O	-0.107950	-0.823167	0.607868
O19	O	0.142050	-0.573167	0.857868
O20	O	0.392050	-0.323167	1.107868
O21	O	-0.403603	-1.239205	0.312274
O22	O	-0.153603	-0.989205	0.562274
O23	O	0.096397	-0.739205	0.812274
O24	O	0.346397	-0.489205	1.062274
O25	O	-0.191948	-1.118727	0.403514
O26	O	0.058052	-0.868727	0.653514
O27	O	0.308052	-0.618727	0.903514
O28	O	0.558052	-0.368727	1.153514
O29	O	-0.312354	-1.027644	0.191864
O30	O	-0.062354	-0.777644	0.441864
O31	O	0.187646	-0.527644	0.691864
O32	O	0.437646	-0.277644	0.941864
O33	O	-0.312369	-1.239140	0.403511
O34	O	-0.062369	-0.989140	0.653511
O35	O	0.187631	-0.739140	0.903511
O36	O	0.437631	-0.489140	1.153511
O37	O	-0.403595	-1.118879	0.191862
O38	O	-0.153595	-0.868879	0.441862
O39	O	0.096405	-0.618879	0.691862
O40	O	0.346405	-0.368879	0.941862
O41	O	-0.191942	-1.027557	0.312279
O42	O	0.058058	-0.777557	0.562279
O43	O	0.308058	-0.527557	0.812279
O44	O	0.558058	-0.277557	1.062279
O45	O	-0.312311	-0.907180	0.312241
O46	O	-0.062311	-0.657180	0.562241
O47	O	0.187689	-0.407180	0.812241
O48	O	0.437689	-0.157180	1.062241
O49	O	-0.523940	-1.027555	0.403444
O50	O	-0.273940	-0.777555	0.653444
O51	O	-0.023940	-0.527555	0.903444
O52	O	0.226060	-0.277555	1.153444
O53	O	-0.403519	-0.907142	0.403447
O54	O	-0.153519	-0.657142	0.653447
O55	O	0.096481	-0.407142	0.903447
O56	O	0.346481	-0.157142	1.153447
O57	O	-0.523973	-1.118828	0.312236
O58	O	-0.273973	-0.868828	0.562236
O59	O	-0.023973	-0.618828	0.812236
O60	O	0.226027	-0.368828	1.062236
O61	O	-0.312325	-1.118676	0.523888
O62	O	-0.062325	-0.868676	0.773888
O63	O	0.187675	-0.618676	1.023888
O64	O	0.437675	-0.368676	1.273888
O65	O	-0.403527	-1.027468	0.523860
O66	O	-0.153527	-0.777468	0.773860
O67	O	0.096473	-0.527468	1.023860
O68	O	0.346473	-0.277468	1.273860
C69	C	-0.357909	-0.880215	0.357841
C70	C	-0.107909	-0.630215	0.607841
C71	C	0.142091	-0.380215	0.857841
C72	C	0.392091	-0.130215	1.107841
C73	C	-0.357909	-0.797669	0.357847
C74	C	-0.107909	-0.547669	0.607847
C75	C	0.142091	-0.297669	0.857847
C76	C	0.392091	-0.047669	1.107847
C77	C	-0.357938	-1.073077	0.550820
C78	C	-0.107938	-0.823077	0.800820
C79	C	0.142062	-0.573077	1.050820
C80	C	0.392062	-0.323077	1.300820
C81	C	-0.357958	-1.073107	0.633366
C82	C	-0.107958	-0.823107	0.883366
C83	C	0.142042	-0.573107	1.133366
C84	C	0.392042	-0.323107	1.383366
C85	C	-0.551656	-1.073196	0.357835
C86	C	-0.301656	-0.823196	0.607835
C87	C	-0.051656	-0.573196	0.857835
C88	C	0.198344	-0.323196	1.107835
C89	C	-0.634202	-1.073208	0.357821
C90	C	-0.384202	-0.823208	0.607821
C91	C	-0.134202	-0.573208	0.857821
C92	C	0.115798	-0.323208	1.107821
C93	C	-0.833635	-1.023612	0.407353
C94	C	-0.583635	-0.773612	0.657353
C95	C	-0.333635	-0.523612	0.907353
C96	C	-0.083635	-0.273612	1.157353
C97	C	-0.883034	-1.091367	0.425511
C98	C	-0.633034	-0.841367	0.675511
C99	C	-0.383034	-0.591367	0.925511
C100	C	-0.133034	-0.341367	1.175511
C101	C	-0.785332	-1.073245	0.357765
C102	C	-0.535332	-0.823245	0.607765
C103	C	-0.285332	-0.573245	0.857765
C104	C	-0.035332	-0.323245	1.107765
C105	C	-0.883014	-1.005527	0.339586
C106	C	-0.633014	-0.755527	0.589586
C107	C	-0.383014	-0.505527	0.839586
C108	C	-0.133014	-0.255527	1.089586
C109	C	-0.931317	-1.073274	0.357711
C110	C	-0.681317	-0.823274	0.607711
C111	C	-0.431317	-0.573274	0.857711
C112	C	-0.181317	-0.323274	1.107711
C113	C	-0.833645	-1.141036	0.375958
C114	C	-0.583645	-0.891036	0.625958
C115	C	-0.333645	-0.641036	0.875958
C116	C	-0.083645	-0.391036	1.125958
C117	C	-0.833620	-1.055150	0.290002
C118	C	-0.583620	-0.805150	0.540002
C119	C	-0.333620	-0.555150	0.790002
C120	C	-0.083620	-0.305150	1.040002
C121	C	-0.882998	-1.122952	0.308134
C122	C	-0.632998	-0.872952	0.558134
C123	C	-0.382998	-0.622952	0.808134
C124	C	-0.132998	-0.372952	1.058134
C125	C	-0.701234	-1.073227	0.357797
C126	C	-0.451234	-0.823227	0.607797
C127	C	-0.201234	-0.573227	0.857797
C128	C	0.048766	-0.323227	1.107797
C129	C	-1.015414	-1.073300	0.357679
C130	C	-0.765414	-0.823300	0.607679
C131	C	-0.515414	-0.573300	0.857679
C132	C	-0.265414	-0.323300	1.107679
C133	C	-0.164998	-1.073181	0.357848
C134	C	0.085002	-0.823181	0.607848
C135	C	0.335002	-0.573181	0.857848
C136	C	0.585002	-0.323181	1.107848
C137	C	-0.082453	-1.073312	0.357652
C138	C	0.167547	-0.823312	0.607652
C139	C	0.417547	-0.573312	0.857652
C140	C	0.667547	-0.323312	1.107652
C141	C	-0.357992	-1.266872	0.357897
C142	C	-0.107992	-1.016872	0.607897
C143	C	0.142008	-0.766872	0.857897
C144	C	0.392008	-0.516872	1.107897
C145	C	-0.358010	-1.349418	0.357909
C146	C	-0.108010	-1.099418	0.607909
C147	C	0.141990	-0.849418	0.857909
C148	C	0.391990	-0.599418	1.107909
C149	C	-0.308425	-0.598217	0.308191
C150	C	-0.058425	-0.348217	0.558191
C151	C	0.191575	-0.098217	0.808191
C152	C	0.441575	0.151783	1.058191
C153	C	-0.290154	-0.548798	0.375927
C154	C	-0.040154	-0.298798	0.625927
C155	C	0.209846	-0.048798	0.875927
C156	C	0.459846	0.201202	1.125927
C157	C	-0.357943	-0.646539	0.357869
C158	C	-0.107943	-0.396539	0.607869
C159	C	0.142057	-0.146539	0.857869
C160	C	0.392057	0.103461	1.107869
C161	C	-0.376212	-0.548877	0.290157
C162	C	-0.126212	-0.298877	0.540157
C163	C	0.123788	-0.048877	0.790157
C164	C	0.373788	0.201123	1.040157
C165	C	-0.357974	-0.500553	0.357885
C166	C	-0.107974	-0.250553	0.607885
C167	C	0.142026	-0.000553	0.857885
C168	C	0.392026	0.249447	1.107885
C169	C	-0.339637	-0.598206	0.425641
C170	C	-0.089637	-0.348206	0.675641
C171	C	0.160363	-0.098206	0.925641
C172	C	0.410363	0.151794	1.175641
C173	C	-0.425726	-0.598289	0.339825
C174	C	-0.175726	-0.348289	0.589825
C175	C	0.074274	-0.098289	0.839825
C176	C	0.324274	0.151711	1.089825
C177	C	-0.407481	-0.548892	0.407607
C178	C	-0.157481	-0.298892	0.657607
C179	C	0.092519	-0.048892	0.907607
C180	C	0.342519	0.201108	1.157607
C181	C	-0.357923	-0.730637	0.357859
C182	C	-0.107923	-0.480637	0.607859
C183	C	0.142077	-0.230637	0.857859
C184	C	0.392077	0.019363	1.107859
C185	C	-0.357994	-0.416457	0.357903
C186	C	-0.107994	-0.166457	0.607903
C187	C	0.142006	0.083543	0.857903
C188	C	0.392006	0.333543	1.107903
C189	C	-0.357979	-1.073277	0.164163
C190	C	-0.107979	-0.823277	0.414163
C191	C	0.142021	-0.573277	0.664163
C192	C	0.392021	-0.323277	0.914163
C193	C	-0.357991	-1.073324	0.081617
C194	C	-0.107991	-0.823324	0.331617
C195	C	0.142009	-0.573324	0.581617
C196	C	0.392009	-0.323324	0.831617
C197	C	-0.407536	-1.023557	0.832828
C198	C	-0.157536	-0.773557	1.082828
C199	C	0.092464	-0.523557	1.332828
C200	C	0.342464	-0.273557	1.582828
C201	C	-0.339767	-1.005459	0.882261
C202	C	-0.089767	-0.755459	1.132261
C203	C	0.160233	-0.505459	1.382261
C204	C	0.410233	-0.255459	1.632261
C205	C	-0.357967	-1.073180	0.784497
C206	C	-0.107967	-0.823180	1.034497
C207	C	0.142033	-0.573180	1.284497
C208	C	0.392033	-0.323180	1.534497
C209	C	-0.425744	-1.091314	0.882146
C210	C	-0.175744	-0.841314	1.132146
C211	C	0.074256	-0.591314	1.382146
C212	C	0.324256	-0.341314	1.632146
C213	C	-0.357983	-1.073249	0.930482
C214	C	-0.107983	-0.823249	1.180482
C215	C	0.142017	-0.573249	1.430482
C216	C	0.392017	-0.323249	1.680482
C217	C	-0.290162	-1.055046	0.832842
C218	C	-0.040162	-0.805046	1.082842
C219	C	0.209838	-0.555046	1.332842
C220	C	0.459838	-0.305046	1.582842
C221	C	-0.376186	-1.140933	0.832722
C222	C	-0.126186	-0.890933	1.082722
C223	C	0.123814	-0.640933	1.332722
C224	C	0.373814	-0.390933	1.582722
C225	C	-0.308370	-1.122861	0.882133
C226	C	-0.058370	-0.872861	1.132133
C227	C	0.191630	-0.622861	1.382133
C228	C	0.441630	-0.372861	1.632133
C229	C	-0.357959	-1.073138	0.700398
C230	C	-0.107959	-0.823138	0.950398
C231	C	0.142041	-0.573138	1.200398
C232	C	0.392041	-0.323138	1.450398
C233	C	-0.357983	-1.073291	1.014578
C234	C	-0.107983	-0.823291	1.264578
C235	C	0.142017	-0.573291	1.514578
C236	C	0.392017	-0.323291	1.764578
H237	H	-0.811961	-0.981678	0.449342
H238	H	-0.561961	-0.731678	0.699342
H239	H	-0.311961	-0.481678	0.949342
H240	H	-0.061961	-0.231678	1.199342
O241	O	-0.501610	-0.627137	0.319579
O242	O	-0.251610	-0.377137	0.569579
O243	O	-0.001610	-0.127137	0.819579
O244	O	0.248390	0.122863	1.069579
H245	H	-0.539327	-0.579764	0.308955
H246	H	-0.289327	-0.329764	0.558955
H247	H	-0.039327	-0.079764	0.808955
H248	H	0.210673	0.170236	1.058955
O249	O	-0.252898	-0.626913	0.252606
O250	O	-0.002898	-0.376913	0.502606
O251	O	0.247102	-0.126913	0.752606
O252	O	0.497102	0.123087	1.002606
H253	H	-0.281960	-0.660769	0.210262
H254	H	-0.031960	-0.410769	0.460262
H255	H	0.218040	-0.160769	0.710262
H256	H	0.468040	0.089231	0.960262
O257	O	-0.804828	-1.034813	0.214157
O258	O	-0.554828	-0.784813	0.464157
O259	O	-0.304828	-0.534813	0.714157
O260	O	-0.054828	-0.284813	0.964157
H261	H	-0.852232	-1.024157	0.176463
H262	H	-0.602232	-0.774157	0.426463
H263	H	-0.352232	-0.524157	0.676463
H264	H	-0.102232	-0.274157	0.926463
O265	O	-0.396643	-0.520164	0.214295
O266	O	-0.146643	-0.270164	0.464295
O267	O	0.103357	-0.020164	0.714295
O268	O	0.353357	0.229836	0.964295
H269	H	-0.396967	-0.458679	0.215139
H270	H	-0.146967	-0.208679	0.465139
H271	H	0.103033	0.041321	0.715139
H272	H	0.353033	0.291321	0.965139
H273	H	-0.449395	-0.981531	0.811178
H274	H	-0.199395	-0.731531	1.061178
H275	H	0.050605	-0.481531	1.311178
H276	H	0.300605	-0.231531	1.561178
O277	O	-0.319350	-0.929605	0.911086
O278	O	-0.069350	-0.679605	1.161086
O279	O	0.180650	-0.429605	1.411086
O280	O	0.430650	-0.179605	1.661086
H281	H	-0.360567	-0.888482	0.891345
H282	H	-0.110567	-0.638482	1.141345
H283	H	0.139433	-0.388482	1.391345
H284	H	0.389433	-0.138482	1.641345
H285	H	-0.232834	-1.039669	0.811275
H286	H	0.017166	-0.789669	1.061275
H287	H	0.267166	-0.539669	1.311275
H288	H	0.517166	-0.289669	1.561275
O289	O	-0.214246	-0.519993	0.396163
O290	O	0.035754	-0.269993	0.646163
O291	O	0.285754	-0.019993	0.896163
O292	O	0.535754	0.230007	1.146163
H293	H	-0.173226	-0.539740	0.354841
H294	H	0.076774	-0.289740	0.604841
H295	H	0.326774	-0.039740	0.854841
H296	H	0.576774	0.210260	1.104841
H297	H	-0.266409	-1.164855	0.903645
H298	H	-0.016409	-0.914855	1.153645
H299	H	0.233591	-0.664855	1.403645
H300	H	0.483591	-0.414855	1.653645
O301	O	-0.911733	-0.929653	0.319238
O302	O	-0.661733	-0.679653	0.569238
O303	O	-0.411733	-0.429653	0.819238
O304	O	-0.161733	-0.179653	1.069238
H305	H	-0.946416	-0.907932	0.365126
H306	H	-0.696416	-0.657932	0.615126
H307	H	-0.446416	-0.407932	0.865126
H308	H	-0.196416	-0.157932	1.115126
H309	H	-0.324134	-0.619785	0.482928
H310	H	-0.074134	-0.369785	0.732928
H311	H	0.175866	-0.119785	0.982928
H312	H	0.425866	0.130215	1.232928
O313	O	-0.462963	-0.520364	0.463323
O314	O	-0.212963	-0.270364	0.713323
O315	O	0.037037	-0.020364	0.963323
O316	O	0.287037	0.229636	1.213323
H317	H	-0.447634	-0.540224	0.519457
H318	H	-0.197634	-0.290224	0.769457
H319	H	0.052366	-0.040224	1.019457
H320	H	0.302366	0.209776	1.269457
H321	H	-0.391613	-1.198184	0.810948
H322	H	-0.141613	-0.948184	1.060948
H323	H	0.108387	-0.698184	1.310948
H324	H	0.358387	-0.448184	1.560948
H325	H	-0.483056	-1.106625	0.903802
H326	H	-0.233056	-0.856625	1.153802
H327	H	0.016944	-0.606625	1.403802
H328	H	0.266944	-0.356625	1.653802
H329	H	-0.904739	-1.106690	0.482794
H330	H	-0.654739	-0.856690	0.732794
H331	H	-0.404739	-0.606690	0.982794
H332	H	-0.154739	-0.356690	1.232794
H333	H	-0.904535	-1.164986	0.266177
H334	H	-0.654535	-0.914986	0.516177
H335	H	-0.404535	-0.664986	0.766177
H336	H	-0.154535	-0.414986	1.016177
H337	H	-0.812050	-1.198333	0.391377
H338	H	-0.562050	-0.948333	0.641377
H339	H	-0.312050	-0.698333	0.891377
H340	H	-0.062050	-0.448333	1.141377
