data_functionalizedCrystal
_audit_creation_method	'MofGen! by Chris Wilmer'
_symmetry_space_group_name_H-M	'P1'
_symmetry_Int_Tables_number	1
_symmetry_cell_setting	triclinic
loop_
_symmetry_equiv_pos_as_xyz
  x,y,z
_cell_length_a	9.065215
_cell_length_b	16.109295
_cell_length_c	7.540329
_cell_angle_alpha	89.999525
_cell_angle_beta	90.002426
_cell_angle_gamma	95.763058
loop_
_atom_site_label
_atom_site_type_symbol
_atom_site_fract_x
_atom_site_fract_y
_atom_site_fract_z
O1	O	1.957447	-0.121894	0.147448
O2	O	1.527919	-0.131896	0.147455
O3	O	1.754487	-0.005954	0.147454
O4	O	1.730879	-0.247836	0.147449
O5	O	1.754474	-0.005952	-0.147512
O6	O	1.527906	-0.131894	-0.147510
O7	O	1.957434	-0.121892	-0.147517
Cu8	Cu	1.742669	-0.126893	-0.174446
Cu9	Cu	1.742685	-0.126895	0.174384
O10	O	1.730866	-0.247834	-0.147516
C11	C	1.472949	-0.130934	-0.000027
C12	C	1.309176	-0.128062	-0.000024
C13	C	1.753526	0.025029	-0.000025
C14	C	1.750663	0.117347	-0.000012
C15	C	1.878445	0.338638	0.000052
C16	C	1.875744	0.425380	0.000081
C17	C	1.606934	0.407569	0.000076
C18	C	1.609636	0.320829	0.000060
C19	C	1.745396	0.286367	0.000038
C20	C	1.739992	0.459848	0.000084
C21	C	1.737063	0.553897	0.000116
C22	C	1.748327	0.192312	0.000010
C23	C	2.012404	-0.122854	-0.000032
C24	C	2.176177	-0.125726	-0.000023
C25	C	1.731837	0.721184	0.000009
C26	C	1.734726	0.628868	0.000134
N27	N	1.742668	-0.126891	-0.419795
N28	N	1.742697	-0.126890	0.419732
H29	H	1.988990	0.310582	0.000038
C30	C	1.463276	0.263327	0.000040
H31	H	1.382035	0.296273	0.000029
H32	H	1.458746	0.229114	0.102893
H33	H	1.458747	0.229125	-0.102842
C34	C	2.022097	0.482875	0.000084
H35	H	2.103332	0.449925	0.000056
H36	H	2.026641	0.517078	0.102952
H37	H	2.026623	0.517087	-0.102783
C38	C	1.457610	0.445482	0.000075
H39	H	1.475053	0.504627	0.000067
H40	H	1.402824	0.427605	0.102928
H41	H	1.402836	0.427610	-0.102807
