data_functionalizedCrystal
_audit_creation_method	'MofGen! by Chris Wilmer'
_symmetry_space_group_name_H-M	'P1'
_symmetry_Int_Tables_number	1
_symmetry_cell_setting	triclinic
loop_
_symmetry_equiv_pos_as_xyz
  x,y,z
_cell_length_a	16.109301
_cell_length_b	9.065218
_cell_length_c	8.140239
_cell_angle_alpha	90.001686
_cell_angle_beta	90.000002
_cell_angle_gamma	84.238683
loop_
_atom_site_label
_atom_site_type_symbol
_atom_site_fract_x
_atom_site_fract_y
_atom_site_fract_z
O1	O	1.104587	0.189628	0.136503
O2	O	1.437920	0.522961	0.469836
O3	O	1.771253	0.856295	0.803169
O4	O	0.862706	0.213227	0.136528
O5	O	1.196039	0.546560	0.469861
O6	O	1.529373	0.879894	0.803195
O7	O	0.988646	-0.013336	0.136512
O8	O	1.321979	0.319998	0.469845
O9	O	1.655313	0.653331	0.803178
O10	O	0.978647	0.416191	0.136519
O11	O	1.311980	0.749524	0.469853
O12	O	1.645314	1.082858	0.803186
O13	O	0.988639	-0.013338	-0.136716
O14	O	1.321972	0.319995	0.196618
O15	O	1.655306	0.653328	0.529951
O16	O	0.862699	0.213225	-0.136699
O17	O	1.196032	0.546558	0.196634
O18	O	1.529366	0.879891	0.529968
O19	O	1.104580	0.189626	-0.136724
O20	O	1.437913	0.522959	0.196609
O21	O	1.771246	0.856292	0.529942
Zn22	Zn	0.983638	0.201425	-0.180092
Zn23	Zn	1.316972	0.534758	0.153241
Zn24	Zn	1.650305	0.868091	0.486574
Zn25	Zn	0.983648	0.201428	0.179896
Zn26	Zn	1.316981	0.534761	0.513229
Zn27	Zn	1.650314	0.868095	0.846563
O28	O	0.978640	0.416188	-0.136708
O29	O	1.311973	0.749522	0.196626
O30	O	1.645306	1.082855	0.529959
C31	C	0.831720	0.212270	-0.000082
C32	C	1.165054	0.545603	0.333251
C33	C	1.498387	0.878937	0.666584
C34	C	0.739403	0.209404	-0.000072
C35	C	1.072736	0.542737	0.333261
C36	C	1.406070	0.876071	0.666594
C37	C	0.987682	-0.068300	-0.000099
C38	C	1.321015	0.265033	0.333234
C39	C	1.654348	0.598366	0.666567
C40	C	0.984808	-0.232074	-0.000091
C41	C	1.318141	0.101260	0.333242
C42	C	1.651475	0.434593	0.666576
C43	C	0.518112	0.337178	-0.000089
C44	C	0.851446	0.670511	0.333244
C45	C	1.184779	1.003845	0.666578
C46	C	0.431371	0.334474	-0.000100
C47	C	0.764705	0.667807	0.333234
C48	C	1.098038	1.001140	0.666567
C49	C	0.449180	0.065664	-0.000098
C50	C	0.782514	0.398998	0.333236
C51	C	1.115847	0.732331	0.666569
C52	C	0.535920	0.068370	-0.000099
C53	C	0.869253	0.401704	0.333235
C54	C	1.202586	0.735037	0.666568
C55	C	0.570383	0.204131	-0.000086
C56	C	0.903717	0.537465	0.333247
C57	C	1.237050	0.870798	0.666580
C58	C	0.396903	0.198721	-0.000096
C59	C	0.730236	0.532055	0.333238
C60	C	1.063569	0.865388	0.666571
C61	C	0.302854	0.195788	-0.000107
C62	C	0.636187	0.529121	0.333226
C63	C	0.969521	0.862455	0.666560
C64	C	0.664438	0.207065	-0.000078
C65	C	0.997771	0.540399	0.333256
C66	C	1.331104	0.873732	0.666589
C67	C	1.135565	0.190583	-0.000110
C68	C	1.468899	0.523916	0.333223
C69	C	1.802232	0.857249	0.666556
C70	C	1.227883	0.193449	-0.000109
C71	C	1.561216	0.526782	0.333224
C72	C	1.894549	0.860115	0.666557
C73	C	0.979604	0.471153	-0.000093
C74	C	1.312938	0.804486	0.333240
C75	C	1.646271	1.137820	0.666573
C76	C	0.982478	0.634926	-0.000091
C77	C	1.315811	0.968260	0.333243
C78	C	1.649144	1.301593	0.666576
N79	N	0.983638	0.201421	-0.425775
N80	N	1.316971	0.534755	-0.092442
N81	N	1.650305	0.868088	0.240892
N82	N	0.983654	0.201419	0.425579
N83	N	1.316988	0.534753	0.758912
N84	N	1.650321	0.868086	1.092245
H85	H	0.388815	0.442814	-0.000105
H86	H	0.722148	0.776147	0.333228
H87	H	1.055482	1.109480	0.666561
H88	H	0.546169	0.447723	-0.000091
H89	H	0.879503	0.781057	0.333242
H90	H	1.212836	1.114390	0.666576
H91	H	0.421109	-0.044868	-0.000118
H92	H	0.754443	0.288466	0.333215
H93	H	1.087776	0.621799	0.666549
H94	H	0.578481	-0.039979	-0.000101
H95	H	0.911815	0.293354	0.333232
H96	H	1.245148	0.626688	0.666566
