data_functionalizedCrystal
_audit_creation_method	'MofGen! by Chris Wilmer'
_symmetry_space_group_name_H-M	'P1'
_symmetry_Int_Tables_number	1
_symmetry_cell_setting	triclinic
loop_
_symmetry_equiv_pos_as_xyz
  x,y,z
_cell_length_a	19.077105
_cell_length_b	19.077119
_cell_length_c	12.759393
_cell_angle_alpha	87.742520
_cell_angle_beta	87.679907
_cell_angle_gamma	89.877594
loop_
_atom_site_label
_atom_site_type_symbol
_atom_site_fract_x
_atom_site_fract_y
_atom_site_fract_z
Zn1	Zn	1.062978	0.322936	-0.677013
Zn2	Zn	1.562978	0.822936	-0.177013
Zn3	Zn	1.058142	0.440455	-0.508055
Zn4	Zn	1.558142	0.940455	-0.008055
Zn5	Zn	0.945463	0.318242	-0.494023
Zn6	Zn	1.445463	0.818242	0.005977
Zn7	Zn	0.940698	0.435677	-0.676367
Zn8	Zn	1.440698	0.935677	-0.176367
O9	O	1.001820	0.379328	-0.588865
O10	O	1.501820	0.879328	-0.088865
O11	O	1.160667	0.342489	-0.660744
O12	O	1.660667	0.842489	-0.160744
O13	O	1.043165	0.424278	-0.359173
O14	O	1.543165	0.924278	0.140827
O15	O	0.965069	0.220536	-0.512695
O16	O	1.465069	0.720536	-0.012695
O17	O	1.157115	0.428830	-0.536611
O18	O	1.657115	0.928830	-0.036611
O19	O	1.051407	0.223985	-0.647137
O20	O	1.551407	0.723985	-0.147137
O21	O	0.960380	0.334489	-0.348864
O22	O	1.460380	0.834489	0.151136
O23	O	0.846500	0.329856	-0.512069
O24	O	1.346500	0.829856	-0.012069
O25	O	0.956949	0.420687	-0.823473
O26	O	1.456949	0.920687	-0.323473
O27	O	0.842999	0.416135	-0.646036
O28	O	1.342999	0.916135	-0.146036
O29	O	1.046787	0.337856	-0.823948
O30	O	1.546787	0.837856	-0.323948
O31	O	1.038546	0.538150	-0.535984
O32	O	1.538546	1.038150	-0.035984
O33	O	0.952260	0.534640	-0.659642
O34	O	1.452260	1.034640	-0.159642
C35	C	0.819253	0.371968	-0.577460
C36	C	1.319253	0.871968	-0.077460
C37	C	0.741149	0.368837	-0.572607
C38	C	1.241149	0.868837	-0.072607
C39	C	0.994380	0.561891	-0.599290
C40	C	1.494380	1.061891	-0.099290
C41	C	0.991262	0.639995	-0.603789
C42	C	1.491262	1.139995	-0.103789
C43	C	0.702649	0.412354	-0.639975
C44	C	1.202649	0.912354	-0.139975
C45	C	0.629263	0.409403	-0.635419
C46	C	1.129263	0.909403	-0.135419
C47	C	0.594378	0.362937	-0.563490
C48	C	1.094378	0.862937	-0.063490
C49	C	0.632883	0.319415	-0.496120
C50	C	1.132883	0.819415	0.003880
C51	C	0.706269	0.322363	-0.500681
C52	C	1.206269	0.822363	-0.000681
C53	C	0.375094	0.349291	-0.542385
C54	C	0.875094	0.849291	-0.042385
C55	C	0.301703	0.346347	-0.537826
C56	C	0.801703	0.846347	-0.037826
C57	C	0.298088	0.436335	-0.677128
C58	C	0.798088	0.936335	-0.177128
C59	C	0.371475	0.439282	-0.681678
C60	C	0.871475	0.939282	-0.181678
C61	C	0.409974	0.395757	-0.614312
C62	C	0.909974	0.895757	-0.114312
N63	N	0.519365	0.359920	-0.558830
N64	N	1.019365	0.859920	-0.058830
N65	N	0.484985	0.398771	-0.618978
N66	N	0.984985	0.898771	-0.118978
C67	C	0.968903	1.079446	-0.636104
C68	C	1.468903	1.579446	-0.136104
C69	C	0.971834	1.006059	-0.631865
C70	C	1.471834	1.506059	-0.131865
C71	C	1.018257	0.971173	-0.565414
C72	C	1.518257	1.471173	-0.065414
C73	C	1.061757	1.009679	-0.503206
C74	C	1.561757	1.509679	-0.003206
C75	C	1.058830	1.083065	-0.507451
C76	C	1.558830	1.583065	-0.007451
C77	C	1.031835	0.751887	-0.545825
C78	C	1.531835	1.251887	-0.045825
C79	C	1.034758	0.678496	-0.541583
C80	C	1.534758	1.178496	-0.041583
C81	C	0.944834	0.674881	-0.670244
C82	C	1.444834	1.174881	-0.170244
C83	C	0.941908	0.748268	-0.674479
C84	C	1.441908	1.248268	-0.174479
C85	C	0.985412	0.786768	-0.612274
C86	C	1.485412	1.286768	-0.112274
N87	N	1.021251	0.896160	-0.561078
N88	N	1.521251	1.396160	-0.061078
N89	N	0.982420	0.861780	-0.616618
N90	N	1.482420	1.361780	-0.116618
C91	C	1.185100	0.386716	-0.600315
C92	C	1.685100	0.886716	-0.100315
C93	C	1.263203	0.389865	-0.605194
C94	C	1.763203	0.889865	-0.105194
C95	C	1.001876	0.379262	-0.862898
C96	C	1.501876	0.879262	-0.362898
C97	C	1.001899	0.379234	-0.979674
C98	C	1.501899	0.879234	-0.479674
C99	C	1.009283	1.196051	-0.578404
C100	C	1.509283	1.696051	-0.078404
C101	C	1.012399	1.117946	-0.573898
C102	C	1.512399	1.617946	-0.073898
C103	C	1.048682	0.336098	-1.034785
C104	C	1.548682	0.836098	-0.534785
C105	C	1.048695	0.336068	-1.144508
C106	C	1.548695	0.836068	-0.644508
C107	C	0.955141	0.422318	-1.144000
C108	C	1.455141	0.922318	-0.644000
C109	C	0.955125	0.422343	-1.034279
C110	C	1.455125	0.922343	-0.534279
C111	C	1.001808	0.379344	-0.315898
C112	C	1.501808	0.879344	0.184102
C113	C	1.001928	0.379179	-0.199119
C114	C	1.501928	0.879179	0.300881
H115	H	0.731047	0.450194	-0.698544
H116	H	1.231047	0.950194	-0.198544
Cl117	Cl	0.896346	0.476512	-1.212654
Cl118	Cl	1.396346	0.976512	-0.712654
Cl119	Cl	0.910535	1.123295	-0.719640
Cl120	Cl	1.410535	1.623295	-0.219640
Cl121	Cl	0.896304	0.476573	-0.964991
Cl122	Cl	1.396304	0.976573	-0.464991
Cl123	Cl	0.257849	0.287934	-0.447387
Cl124	Cl	0.757849	0.787934	0.052613
H125	H	0.406431	0.313855	-0.487522
H126	H	0.906431	0.813855	0.012478
Cl127	Cl	0.883555	0.792119	-0.758036
Cl128	Cl	1.383555	1.292119	-0.258036
Cl129	Cl	1.107481	0.281901	-0.966142
Cl130	Cl	1.607481	0.781901	-0.466142
H131	H	0.597919	0.444840	-0.690276
H132	H	1.097919	0.944840	-0.190276
H133	H	0.604474	0.281578	-0.437558
H134	H	1.104474	0.781578	0.062442
Cl135	Cl	0.415325	0.497701	-0.772105
Cl136	Cl	0.915325	0.997701	-0.272105
Cl137	Cl	0.890153	0.626478	-0.748446
Cl138	Cl	1.390153	1.126478	-0.248446
H139	H	0.737615	0.286923	-0.445828
H140	H	1.237615	0.786923	0.054172
Cl141	Cl	0.917152	0.957662	-0.710075
Cl142	Cl	1.417152	1.457662	-0.210075
Cl143	Cl	1.093113	0.634640	-0.458024
Cl144	Cl	1.593113	1.134640	0.041976
H145	H	1.067256	0.783224	-0.495170
H146	H	1.567256	1.283224	0.004830
Cl147	Cl	1.120122	0.965823	-0.419673
Cl148	Cl	1.620122	1.465823	0.080327
H149	H	1.094251	1.114411	-0.456799
H150	H	1.594251	1.614411	0.043201
Cl151	Cl	1.107515	0.281843	-1.213786
Cl152	Cl	1.607515	0.781843	-0.713786
H153	H	0.266734	0.471769	-0.731975
H154	H	0.766734	0.971769	-0.231975
