data_functionalizedCrystal
_audit_creation_method	'MofGen! by Chris Wilmer'
_symmetry_space_group_name_H-M	'P1'
_symmetry_Int_Tables_number	1
_symmetry_cell_setting	triclinic
loop_
_symmetry_equiv_pos_as_xyz
  x,y,z
_cell_length_a	16.109301
_cell_length_b	16.109301
_cell_length_c	15.186229
_cell_angle_alpha	90.000638
_cell_angle_beta	89.994833
_cell_angle_gamma	96.538519
loop_
_atom_site_label
_atom_site_type_symbol
_atom_site_fract_x
_atom_site_fract_y
_atom_site_fract_z
O1	O	0.106866	-1.103131	-0.073176
O2	O	0.440199	-0.769797	0.260158
O3	O	0.773533	-0.436464	0.593491
O4	O	0.120165	-0.861069	-0.073190
O5	O	0.453499	-0.527735	0.260143
O6	O	0.786832	-0.194402	0.593477
O7	O	-0.007515	-0.988749	-0.073174
O8	O	0.325818	-0.655416	0.260160
O9	O	0.659151	-0.322083	0.593493
O10	O	0.234547	-0.975450	-0.073192
O11	O	0.567880	-0.642117	0.260141
O12	O	0.901213	-0.308783	0.593474
O13	O	-0.007517	-0.988741	0.073284
O14	O	0.325816	-0.655407	0.406617
O15	O	0.659150	-0.322074	0.739950
O16	O	0.120164	-0.861060	0.073267
O17	O	0.453497	-0.527727	0.406601
O18	O	0.786830	-0.194393	0.739934
O19	O	0.106864	-1.103122	0.073282
O20	O	0.440198	-0.769789	0.406615
O21	O	0.773531	-0.436455	0.739948
Zn22	Zn	0.113514	-0.982090	0.096528
Zn23	Zn	0.446847	-0.648756	0.429861
Zn24	Zn	0.780180	-0.315423	0.763194
Zn25	Zn	0.113516	-0.982101	-0.096436
Zn26	Zn	0.446849	-0.648768	0.236897
Zn27	Zn	0.780183	-0.315434	0.570231
O28	O	0.234545	-0.975441	0.073265
O29	O	0.567878	-0.642108	0.406598
O30	O	0.901212	-0.308775	0.739932
C31	C	0.119626	-0.830090	0.000037
C32	C	0.452959	-0.496756	0.333370
C33	C	0.786292	-0.163423	0.666704
C34	C	0.118011	-0.737794	0.000032
C35	C	0.451344	-0.404461	0.333365
C36	C	0.784677	-0.071128	0.666698
C37	C	-0.038491	-0.988206	0.000056
C38	C	0.294842	-0.654873	0.333389
C39	C	0.628176	-0.321540	0.666722
C40	C	-0.130786	-0.986591	0.000057
C41	C	0.202547	-0.653258	0.333390
C42	C	0.535880	-0.319925	0.666723
C43	C	0.107404	-1.134101	0.000053
C44	C	0.440737	-0.800768	0.333386
C45	C	0.774071	-0.467435	0.666719
C46	C	0.109019	-1.226397	0.000052
C47	C	0.442352	-0.893063	0.333385
C48	C	0.775686	-0.559730	0.666719
C49	C	-0.353059	-1.058599	0.000047
C50	C	-0.019725	-0.725266	0.333380
C51	C	0.313608	-0.391932	0.666714
C52	C	-0.439779	-1.057075	0.000040
C53	C	-0.106446	-0.723742	0.333373
C54	C	0.226888	-0.390408	0.666706
C55	C	-0.419905	-0.905586	0.000034
C56	C	-0.086571	-0.572253	0.333367
C57	C	0.246762	-0.238919	0.666701
C58	C	-0.333186	-0.907111	0.000035
C59	C	0.000147	-0.573778	0.333369
C60	C	0.333481	-0.240444	0.666702
C61	C	-0.299766	-0.983620	0.000046
C62	C	0.033568	-0.650287	0.333379
C63	C	0.366901	-0.316953	0.666713
C64	C	-0.473205	-0.980571	0.000038
C65	C	-0.139871	-0.647238	0.333371
C66	C	0.193462	-0.313904	0.666704
C67	C	-0.567231	-0.978918	0.000030
C68	C	-0.233897	-0.645585	0.333363
C69	C	0.099436	-0.312251	0.666696
C70	C	-0.205734	-0.985273	0.000052
C71	C	0.127600	-0.651940	0.333386
C72	C	0.460933	-0.318607	0.666719
C73	C	0.265521	-0.975984	0.000034
C74	C	0.598854	-0.642651	0.333367
C75	C	0.932187	-0.309318	0.666701
C76	C	0.357816	-0.977600	0.000027
C77	C	0.691149	-0.644266	0.333360
C78	C	1.024483	-0.310933	0.666694
N79	N	0.113511	-0.982088	0.228220
N80	N	0.446845	-0.648755	0.561554
N81	N	0.780178	-0.315422	0.894887
C82	C	0.190018	-0.515522	0.000036
C83	C	0.523352	-0.182188	0.333370
C84	C	0.856685	0.151145	0.666703
C85	C	0.188494	-0.428801	0.000042
C86	C	0.521828	-0.095468	0.333375
C87	C	0.855161	0.237865	0.666709
C88	C	0.037006	-0.448676	0.000050
C89	C	0.370339	-0.115342	0.333383
C90	C	0.703672	0.217991	0.666717
C91	C	0.038530	-0.535394	0.000051
C92	C	0.371864	-0.202061	0.333384
C93	C	0.705197	0.131272	0.666717
C94	C	0.115039	-0.568815	0.000039
C95	C	0.448373	-0.235482	0.333373
C96	C	0.781706	0.097852	0.666706
C97	C	0.111990	-0.395376	0.000045
C98	C	0.445324	-0.062042	0.333378
C99	C	0.778657	0.271291	0.666711
C100	C	0.110337	-0.301350	0.000051
C101	C	0.443671	0.031984	0.333384
C102	C	0.777004	0.365317	0.666717
C103	C	0.116693	-0.662847	0.000035
C104	C	0.450026	-0.329514	0.333368
C105	C	0.783359	0.003820	0.666701
N106	N	0.113512	-0.982109	-0.228129
N107	N	0.446845	-0.648776	0.105205
N108	N	0.780178	-0.315442	0.438538
C109	C	0.056994	-1.038644	0.453950
C110	C	0.390327	-0.705311	0.787284
C111	C	0.723660	-0.371978	1.120617
C112	C	0.056992	-1.038647	0.546140
C113	C	0.390325	-0.705314	0.879473
C114	C	0.723658	-0.371980	1.212807
C115	C	0.170032	-0.925547	0.546135
C116	C	0.503366	-0.592214	0.879468
C117	C	0.836699	-0.258880	1.212801
C118	C	0.170030	-0.925541	0.453947
C119	C	0.503363	-0.592208	0.787280
C120	C	0.836696	-0.258874	1.120613
C121	C	0.113511	-0.982094	0.407857
C122	C	0.446845	-0.648761	0.741190
C123	C	0.780178	-0.315428	1.074524
C124	C	0.113512	-0.982103	0.592235
C125	C	0.446845	-0.648770	0.925568
C126	C	0.780179	-0.315436	1.258901
C127	C	0.113510	-0.982105	0.692191
C128	C	0.446843	-0.648772	1.025524
C129	C	0.780177	-0.315439	1.358857
C130	C	0.113512	-0.982091	0.307894
C131	C	0.446845	-0.648758	0.641228
C132	C	0.780178	-0.315424	0.974561
H133	H	-0.325851	-1.120897	0.000054
H134	H	0.007482	-0.787564	0.333387
H135	H	0.340816	-0.454231	0.666721
H136	H	-0.025285	-0.421454	0.000065
H137	H	0.308048	-0.088121	0.333398
H138	H	0.641381	0.245213	0.666731
Br139	Br	0.246731	-0.848783	0.391384
Br140	Br	0.580064	-0.515450	0.724717
Br141	Br	0.913397	-0.182116	1.058050
H142	H	-0.022530	-0.578788	0.000056
H143	H	0.310803	-0.245455	0.333389
H144	H	0.644136	0.087878	0.666722
Br145	Br	-0.019711	-1.115394	0.391403
Br146	Br	0.313622	-0.782060	0.724737
Br147	Br	0.646955	-0.448727	1.058070
H148	H	0.010969	-1.084694	0.583667
H149	H	0.344302	-0.751361	0.917000
H150	H	0.677636	-0.418027	1.250334
H151	H	-0.483168	-1.118130	0.000039
H152	H	-0.149834	-0.784797	0.333372
H153	H	0.183499	-0.451464	0.666705
H154	H	0.216049	-0.879503	0.583670
H155	H	0.549383	-0.546170	0.917003
H156	H	0.882716	-0.212837	1.250337
H157	H	-0.447127	-0.843295	0.000027
H158	H	-0.113793	-0.509962	0.333360
H159	H	0.219540	-0.176628	0.666694
H160	H	-0.289792	-0.846050	0.000032
H161	H	0.043541	-0.512717	0.333365
H162	H	0.376874	-0.179384	0.666698
Br163	Br	0.290256	-0.356477	0.000042
Br164	Br	0.623590	-0.023144	0.333376
Br165	Br	0.956923	0.310189	0.666709
H166	H	0.252317	-0.542730	0.000034
H167	H	0.585650	-0.209396	0.333367
H168	H	0.918983	0.123937	0.666700
