data_functionalizedCrystal
_audit_creation_method	'MofGen! by Chris Wilmer'
_symmetry_space_group_name_H-M	'P1'
_symmetry_Int_Tables_number	1
_symmetry_cell_setting	triclinic
loop_
_symmetry_equiv_pos_as_xyz
  x,y,z
_cell_length_a	10.540539
_cell_length_b	17.038272
_cell_length_c	9.616153
_cell_angle_alpha	89.997688
_cell_angle_beta	89.995174
_cell_angle_gamma	87.818524
loop_
_atom_site_label
_atom_site_type_symbol
_atom_site_fract_x
_atom_site_fract_y
_atom_site_fract_z
O1	O	1.696176	0.110247	-0.115581
O2	O	1.327732	0.120634	-0.115599
O3	O	1.509764	0.001613	-0.115579
O4	O	1.514144	0.229269	-0.115601
O5	O	1.509738	0.001615	0.115712
O6	O	1.327705	0.120637	0.115693
O7	O	1.696149	0.110249	0.115710
Zn8	Zn	1.511923	0.115443	0.152424
Zn9	Zn	1.511958	0.115440	-0.152313
O10	O	1.514117	0.229271	0.115690
C11	C	1.280343	0.119857	0.000045
C12	C	1.139177	0.117526	0.000039
C13	C	0.947420	0.028219	0.000587
C14	C	1.094259	0.030581	0.000051
C15	C	1.081423	0.159366	-0.132039
C16	C	0.934602	0.156399	-0.132135
C17	C	0.934248	0.158170	0.130886
C18	C	1.081305	0.158971	0.132618
C19	C	1.505768	-0.027537	0.000066
C20	C	1.493883	-0.114398	0.000065
C21	C	1.602994	-0.163886	0.000072
C22	C	1.591820	-0.245501	0.000058
C23	C	1.471534	-0.277626	0.000048
C24	C	1.362416	-0.228133	0.000037
C25	C	1.373591	-0.146519	0.000041
C26	C	1.432055	-0.523611	0.000027
C27	C	1.420888	-0.605231	0.000027
C28	C	1.650293	-0.622593	0.000046
C29	C	1.661457	-0.540977	0.000058
C30	C	1.552339	-0.491491	0.000040
C31	C	1.460110	-0.361050	0.000038
C32	C	1.563764	-0.408069	0.000040
C33	C	1.743538	0.111027	0.000063
C34	C	1.884704	0.113358	0.000061
C35	C	1.518114	0.258421	0.000042
C36	C	1.529998	0.345282	0.000034
N37	N	1.511909	0.115445	0.360398
N38	N	1.511982	0.115432	-0.360287
C39	C	1.414198	0.178900	0.580758
C40	C	1.414448	0.179138	0.419590
C41	C	1.646364	0.134015	0.418852
C42	C	1.645842	0.134465	0.580070
C43	C	1.476466	0.033212	0.580316
C44	C	1.473469	0.033745	0.419089
H45	H	1.133791	-0.002340	0.094731
H46	H	1.322932	-0.631384	0.000041
N47	N	1.740423	0.078735	0.629035
N48	N	1.734108	0.007832	0.597417
H49	H	1.800910	-0.031520	0.632006
H50	H	1.700943	-0.137736	0.000089
H51	H	0.892466	0.218928	-0.138136
N52	N	1.703287	-0.296039	0.000051
N53	N	1.810676	-0.267346	0.000062
H54	H	1.889407	-0.303038	0.000053
H55	H	1.362173	-0.387215	0.000033
N56	N	1.116936	0.239463	-0.138257
N57	N	1.079534	0.282252	-0.236769
H58	H	1.104617	0.338822	-0.241161
H59	H	1.721225	0.089051	0.380507
H60	H	1.437523	0.239555	0.621252
N61	N	0.891405	0.122877	0.256497
N62	N	0.921559	0.150645	0.371643
H63	H	0.891304	0.125712	0.460351
N64	N	1.131506	0.122918	-0.255335
N65	N	1.209715	0.066136	-0.246276
H66	H	1.245100	0.040397	-0.333351
N67	N	1.684531	0.208415	0.368167
N68	N	1.612943	0.247885	0.289012
H69	H	1.639891	0.300432	0.253215
H70	H	1.759406	-0.514827	0.000067
N71	N	1.129083	0.120611	0.255187
N72	N	1.205476	0.062963	0.245045
H73	H	1.239227	0.035869	0.331608
N74	N	1.683419	0.209717	0.627206
N75	N	1.709845	0.261539	0.541037
H76	H	1.736385	0.314689	0.574320
H77	H	1.314789	0.167964	0.380072
N78	N	1.262150	-0.095955	0.000054
N79	N	1.272143	-0.023088	0.000058
H80	H	1.193435	0.012624	0.000064
H81	H	1.111443	0.222359	0.140586
N82	N	1.686640	-0.375271	0.000041
N83	N	1.762214	-0.390196	-0.097442
H84	H	1.848998	-0.367027	-0.097437
N85	N	1.288818	0.165119	0.629493
N86	N	1.229855	0.216391	0.699592
H87	H	1.141304	0.206658	0.734030
N88	N	1.761760	-0.673131	0.000037
N89	N	1.869149	-0.644437	0.000039
H90	H	1.947880	-0.680128	0.000028
N91	N	1.320607	-0.473061	0.000009
N92	N	1.301252	-0.425581	-0.097488
H93	H	1.222536	-0.389876	-0.097500
N94	N	1.239556	-0.260958	0.000010
N95	N	1.229592	-0.333828	0.000006
H96	H	1.142819	-0.357011	-0.000011
N97	N	1.443972	0.255676	0.371196
N98	N	1.464468	0.309083	0.456489
H99	H	1.485300	0.363145	0.422313
N100	N	1.355514	0.011054	0.631331
N101	N	1.267251	-0.000916	0.548091
H102	H	1.181822	-0.016558	0.584115
N103	N	1.349339	0.016067	0.371179
N104	N	1.300871	-0.046741	0.406396
H105	H	1.213202	-0.059224	0.372556
H106	H	1.132922	-0.002574	-0.094786
H107	H	1.539379	-0.015754	0.378802
N108	N	1.565781	-0.026047	0.628172
N109	N	1.579172	-0.038238	0.755603
H110	H	1.642253	-0.080084	0.789412
N111	N	0.907534	-0.014825	0.119469
N112	N	0.792395	-0.026665	0.137553
H113	H	0.764229	-0.057050	0.221540
N114	N	0.905505	-0.014697	-0.117545
N115	N	0.789978	-0.026037	-0.133763
H116	H	0.760368	-0.056344	-0.217195
H117	H	0.892879	0.220970	0.131773
N118	N	0.895618	0.117604	-0.255988
N119	N	0.976825	0.092904	-0.341751
H120	H	0.949300	0.065503	-0.429226
