data_functionalizedCrystal
_audit_creation_method	'MofGen! by Chris Wilmer'
_symmetry_space_group_name_H-M	'P1'
_symmetry_Int_Tables_number	1
_symmetry_cell_setting	triclinic
loop_
_symmetry_equiv_pos_as_xyz
  x,y,z
_cell_length_a	15.995292
_cell_length_b	23.532407
_cell_length_c	22.010155
_cell_angle_alpha	90.009202
_cell_angle_beta	90.016880
_cell_angle_gamma	83.158647
loop_
_atom_site_label
_atom_site_type_symbol
_atom_site_fract_x
_atom_site_fract_y
_atom_site_fract_z
O1	O	1.110420	0.073249	0.050548
O2	O	1.610420	0.573249	0.550548
O3	O	0.866563	0.082348	0.050546
O4	O	1.366563	0.582348	0.550546
O5	O	0.995845	-0.005106	0.050536
O6	O	1.495845	0.494894	0.550536
O7	O	0.981138	0.160703	0.050558
O8	O	1.481138	0.660703	0.550558
O9	O	0.995806	-0.005106	-0.050514
O10	O	1.495806	0.494894	0.449486
O11	O	0.866524	0.082348	-0.050504
O12	O	1.366524	0.582348	0.449496
O13	O	1.110382	0.073249	-0.050502
O14	O	1.610382	0.573249	0.449498
Cu15	Cu	0.988449	0.077798	-0.059730
Cu16	Cu	1.488449	0.577798	0.440270
Cu17	Cu	0.988495	0.077798	0.059774
Cu18	Cu	1.488495	0.577798	0.559774
O19	O	0.981099	0.160703	-0.050492
O20	O	1.481099	0.660703	0.449508
C21	C	0.835351	0.081978	0.000021
C22	C	1.335351	0.581978	0.500021
C23	C	0.742407	0.080867	0.000020
C24	C	1.242407	0.580867	0.500020
C25	C	0.404703	0.076786	0.000026
C26	C	0.904703	0.576786	0.500026
C27	C	0.427490	0.139908	0.000260
C28	C	0.927490	0.639908	0.500260
C29	C	0.524156	0.141108	0.000030
C30	C	1.024156	0.641108	0.500030
C31	C	0.572242	0.078811	0.000023
C32	C	1.072242	0.578811	0.500023
C33	C	0.543380	0.047253	-0.057684
C34	C	1.043380	0.547253	0.442316
C35	C	0.446596	0.046493	-0.057730
C36	C	0.946596	0.546493	0.442270
C37	C	0.446795	0.045204	0.057183
C38	C	0.946795	0.545204	0.557183
C39	C	0.543269	0.047543	0.057944
C40	C	1.043269	0.547543	0.557944
C41	C	0.666928	0.079952	0.000020
C42	C	1.166928	0.579952	0.500020
C43	C	0.310016	0.075642	0.000025
C44	C	0.810016	0.575642	0.500025
C45	C	0.995451	-0.026323	0.000009
C46	C	1.495451	0.473677	0.500009
C47	C	0.994325	-0.089545	0.000005
C48	C	1.494325	0.410455	0.500005
C49	C	1.063769	-0.488390	0.000038
C50	C	1.563769	0.011610	0.500038
C51	C	1.062723	-0.547795	0.000043
C52	C	1.562723	-0.047795	0.500043
O53	O	1.127099	-0.584300	0.000066
O54	O	1.627099	-0.084300	0.500066
N55	N	0.985865	-0.570706	0.000042
N56	N	1.485865	-0.070706	0.500042
C57	C	0.910048	-0.534209	0.000043
C58	C	1.410048	-0.034209	0.500043
O59	O	0.844578	-0.559151	0.000043
O60	O	1.344578	-0.059151	0.500043
C61	C	0.911095	-0.474806	0.000042
C62	C	1.411095	0.025194	0.500042
C63	C	0.987958	-0.451898	0.000037
C64	C	1.487958	0.048102	0.500037
C65	C	1.140626	-0.465482	0.000034
C66	C	1.640626	0.034518	0.500034
C67	C	1.141672	-0.406082	0.000028
C68	C	1.641672	0.093918	0.500028
C69	C	1.065861	-0.369590	0.000027
C70	C	1.565861	0.130410	0.500027
C71	C	0.989004	-0.392498	0.000031
C72	C	1.489004	0.107502	0.500031
C73	C	0.835278	-0.438310	0.000047
C74	C	1.335278	0.061690	0.500047
C75	C	0.836332	-0.378904	0.000048
C76	C	1.336332	0.121096	0.500048
C77	C	0.913195	-0.355997	0.000042
C78	C	1.413195	0.144003	0.500042
C79	C	0.914238	-0.296606	0.000024
C80	C	1.414238	0.203394	0.500024
N81	N	0.991096	-0.273695	0.000025
N82	N	1.491096	0.226305	0.500025
C83	C	1.066908	-0.310187	0.000027
C84	C	1.566908	0.189813	0.500027
C85	C	0.907855	-0.658960	0.000044
C86	C	1.407855	-0.158960	0.500044
C87	C	0.906807	-0.718361	0.000040
C88	C	1.406807	-0.218361	0.500040
C89	C	1.059483	-0.731943	0.000042
C90	C	1.559483	-0.231943	0.500042
C91	C	1.060530	-0.672540	0.000041
C92	C	1.560530	-0.172540	0.500041
C93	C	0.984713	-0.636049	0.000045
C94	C	1.484713	-0.136049	0.500045
C95	C	1.069098	-0.185443	0.000014
C96	C	1.569098	0.314557	0.500014
C97	C	1.070137	-0.126037	0.000006
C98	C	1.570137	0.373963	0.500006
C99	C	0.917461	-0.112460	0.000008
C100	C	1.417461	0.387540	0.500008
C101	C	0.916422	-0.171861	0.000013
C102	C	1.416422	0.328139	0.500013
C103	C	0.992247	-0.208351	0.000018
C104	C	1.492247	0.291649	0.500018
O105	O	0.849896	-0.260066	0.000004
O106	O	1.349896	0.239934	0.500004
O107	O	1.132367	-0.285237	0.000034
O108	O	1.632367	0.214763	0.500034
C109	C	1.141594	0.073619	0.000024
C110	C	1.641594	0.573619	0.500024
C111	C	1.234537	0.074729	0.000030
C112	C	1.734537	0.574729	0.500030
C113	C	0.981493	0.181920	0.000036
C114	C	1.481493	0.681920	0.500036
C115	C	0.982619	0.245141	0.000045
C116	C	1.482619	0.745141	0.500045
N117	N	0.988423	0.077798	-0.143782
N118	N	1.488423	0.577798	0.356218
C119	C	1.038991	0.112346	-0.563557
C120	C	1.538991	0.612346	-0.063557
C121	C	1.039001	0.112345	-0.627164
C122	C	1.539001	0.612345	-0.127164
O123	O	1.081965	0.141715	-0.660051
O124	O	1.581965	0.641715	-0.160051
N125	N	0.988512	0.077792	-0.658990
N126	N	1.488512	0.577792	-0.158990
C127	C	0.938015	0.043234	-0.627204
C128	C	1.438015	0.543234	-0.127204
O129	O	0.895072	0.013844	-0.660114
O130	O	1.395072	0.513844	-0.160114
C131	C	0.938011	0.043233	-0.563597
C132	C	1.438011	0.543233	-0.063597
C133	C	0.988497	0.077792	-0.531775
C134	C	1.488497	0.577792	-0.031775
C135	C	1.089474	0.146902	-0.531735
C136	C	1.589474	0.646902	-0.031735
C137	C	1.089463	0.146904	-0.468131
C138	C	1.589463	0.646904	0.031869
C139	C	1.038969	0.112350	-0.436350
C140	C	1.538969	0.612350	0.063650
C141	C	0.988486	0.077794	-0.468172
C142	C	1.488486	0.577794	0.031828
C143	C	0.887520	0.008672	-0.531813
C144	C	1.387520	0.508672	-0.031813
C145	C	0.887520	0.008674	-0.468202
C146	C	1.387520	0.508674	0.031798
C147	C	0.938006	0.043233	-0.436380
C148	C	1.438006	0.543233	0.063620
C149	C	0.937980	0.043242	-0.372788
C150	C	1.437980	0.543242	0.127212
N151	N	0.988470	0.077795	-0.340963
N152	N	1.488470	0.577795	0.159037
C153	C	1.038964	0.112349	-0.372744
C154	C	1.538964	0.612349	0.127256
C155	C	0.938030	0.043239	-0.760782
C156	C	1.438030	0.543239	-0.260782
C157	C	0.938030	0.043242	-0.824387
C158	C	1.438030	0.543242	-0.324387
C159	C	1.039017	0.112352	-0.824343
C160	C	1.539017	0.612352	-0.324343
C161	C	1.039012	0.112351	-0.760737
C162	C	1.539012	0.612351	-0.260737
C163	C	0.988520	0.077791	-0.728956
C164	C	1.488520	0.577791	-0.228956
C165	C	1.038936	0.112351	-0.239172
C166	C	1.538936	0.612351	0.260828
C167	C	1.038917	0.112352	-0.175564
C168	C	1.538917	0.612352	0.324436
C169	C	0.937934	0.043240	-0.175613
C170	C	1.437934	0.543240	0.324387
C171	C	0.937949	0.043241	-0.239216
C172	C	1.437949	0.543241	0.260784
C173	C	0.988456	0.077798	-0.270995
C174	C	1.488456	0.577798	0.229005
O175	O	0.895040	0.013885	-0.339860
O176	O	1.395040	0.513885	0.160140
O177	O	1.081908	0.141729	-0.339825
O178	O	1.581908	0.641729	0.160175
N179	N	0.988528	0.077794	0.143826
N180	N	1.488528	0.577794	0.643826
H181	H	1.132731	-0.107389	-0.000000
H182	H	1.632731	0.392611	0.500000
H183	H	0.844218	-0.737007	0.000034
H184	H	1.344218	-0.237007	0.500034
N185	N	0.883555	0.005966	-0.726511
N186	N	1.383555	0.505966	-0.226511
H187	H	0.842361	0.030749	-0.700127
H188	H	1.342361	0.530749	-0.200127
H189	H	0.920294	-0.021899	-0.700152
H190	H	1.420294	0.478101	-0.200152
H191	H	0.774591	-0.349195	0.000052
H192	H	1.274591	0.150805	0.500052
N193	N	0.833057	-0.028603	-0.433928
N194	N	1.333057	0.471397	0.066072
H195	H	0.840709	-0.023362	-0.388804
H196	H	1.340709	0.476638	0.111196
H197	H	0.849958	-0.070017	-0.445051
H198	H	1.349958	0.429983	0.054949
N199	N	1.143431	-0.647834	0.000040
N200	N	1.643431	-0.147834	0.500040
H201	H	1.147256	-0.623497	-0.037420
H202	H	1.647256	-0.123497	0.462580
H203	H	1.191245	-0.680003	0.000061
H204	H	1.691245	-0.180003	0.500061
N205	N	1.093474	0.149617	-0.726414
N206	N	1.593474	0.649617	-0.226414
H207	H	1.056790	0.177484	-0.700026
H208	H	1.556790	0.677484	-0.200026
H209	H	1.125453	0.171468	-0.756242
H210	H	1.625453	0.671468	-0.256242
N211	N	0.835704	-0.073087	-0.000005
N212	N	1.335704	0.426913	0.499995
H213	H	0.832756	-0.048129	0.037451
H214	H	1.332756	0.451871	0.537451
H215	H	0.786890	-0.096643	-0.000028
H216	H	1.286890	0.403357	0.499972
N217	N	1.143931	0.184170	-0.433816
N218	N	1.643931	0.684170	0.066184
H219	H	1.136274	0.178932	-0.388697
H220	H	1.636274	0.678932	0.111303
H221	H	1.127046	0.225586	-0.444933
H222	H	1.627046	0.725586	0.055067
N223	N	1.143961	0.184160	-0.566007
N224	N	1.643961	0.684160	-0.066007
H225	H	1.175942	0.206042	-0.536187
H226	H	1.675942	0.706042	-0.036187
H227	H	1.107242	0.211999	-0.592407
H228	H	1.607242	0.711999	-0.092407
H229	H	1.080131	0.140489	-0.850231
H230	H	1.580131	0.640489	-0.350231
N231	N	0.410799	0.075448	-0.114856
N232	N	0.910799	0.575448	0.385144
H233	H	0.381213	0.047566	-0.139404
H234	H	0.881213	0.547566	0.360596
H235	H	0.457956	0.088584	-0.139727
H236	H	0.957956	0.588584	0.360273
N237	N	1.093373	0.149627	-0.141241
N238	N	1.593373	0.649627	0.358759
H239	H	1.125364	0.171514	-0.171030
H240	H	1.625364	0.671514	0.328970
H241	H	1.134508	0.124807	-0.114843
H242	H	1.634508	0.624807	0.385157
N243	N	0.883574	0.005969	-0.858704
N244	N	1.383574	0.505969	-0.358704
H245	H	0.920268	-0.021897	-0.885086
H246	H	1.420268	0.478103	-0.385086
H247	H	0.842392	0.030790	-0.885068
H248	H	1.342392	0.530790	-0.385068
H249	H	0.432430	0.000212	-0.060356
H250	H	0.932430	0.500212	0.439644
N251	N	0.390161	0.172142	0.055076
N252	N	0.890161	0.672142	0.555076
H253	H	0.358113	0.146143	0.080291
H254	H	0.858113	0.646143	0.580291
H255	H	0.350613	0.206372	0.041263
H256	H	0.850613	0.706372	0.541263
N257	N	0.883481	0.005980	-0.273543
N258	N	1.383481	0.505980	0.226457
H259	H	0.851487	-0.015906	-0.243756
H260	H	1.351487	0.484094	0.256244
H261	H	0.920220	-0.021856	-0.299927
H262	H	1.420220	0.478144	0.200073
N263	N	0.428781	-0.016341	0.057697
N264	N	0.928781	0.483659	0.557697
H265	H	0.393532	-0.023754	0.021105
H266	H	0.893532	0.476246	0.521105
H267	H	0.397188	-0.023937	0.096003
H268	H	0.897188	0.476063	0.596003
N269	N	1.222399	-0.504839	0.000031
N270	N	1.722399	-0.004839	0.500031
H271	H	1.255973	-0.497463	0.037488
H272	H	1.755973	0.002537	0.537488
H273	H	1.255863	-0.497449	-0.037456
H274	H	1.755863	0.002551	0.462544
N275	N	0.752369	-0.463000	0.000049
N276	N	1.252369	0.037000	0.500049
H277	H	0.719200	-0.449681	0.037509
H278	H	1.219200	0.050319	0.537509
H279	H	0.763257	-0.506166	0.000026
H280	H	1.263257	-0.006166	0.500026
H281	H	0.846409	-0.019470	-0.557712
H282	H	1.346409	0.480530	-0.057712
N283	N	1.224575	-0.381379	0.000025
N284	N	1.724575	0.118621	0.500025
H285	H	1.272435	-0.413517	0.000028
H286	H	1.772435	0.086483	0.500028
H287	H	1.228353	-0.357024	0.037485
H288	H	1.728353	0.142976	0.537485
H289	H	1.080064	0.140491	-0.265039
H290	H	1.580064	0.640491	0.234961
N291	N	1.150883	-0.224789	0.000012
N292	N	1.650883	0.275211	0.500012
H293	H	1.153838	-0.249744	-0.037447
H294	H	1.653838	0.250256	0.462553
H295	H	1.153833	-0.249697	0.037497
H296	H	1.653833	0.250303	0.537497
H297	H	1.121213	-0.761666	0.000045
H298	H	1.621213	-0.261666	0.500045
N299	N	0.409180	0.071398	0.115122
N300	N	0.909180	0.571398	0.615122
H301	H	0.437094	0.050496	0.151218
H302	H	0.937094	0.550496	0.651218
H303	H	0.346787	0.068179	0.115879
H304	H	0.846787	0.568179	0.615879
H305	H	0.896821	0.015108	-0.149725
H306	H	1.396821	0.515108	0.350275
H307	H	0.853834	-0.190513	-0.000000
H308	H	1.353834	0.309487	0.500000
N309	N	0.549116	0.173840	0.054825
N310	N	1.049116	0.673840	0.554825
H311	H	0.497278	0.187618	0.079346
H312	H	0.997278	0.687618	0.579346
H313	H	0.577283	0.207796	0.041002
H314	H	1.077283	0.707796	0.541002
H315	H	0.398254	0.164103	-0.040886
H316	H	0.898254	0.664103	0.459114
H317	H	0.575629	0.001411	-0.059834
H318	H	1.075629	0.501411	0.440166
H319	H	0.542336	0.165972	-0.041401
H320	H	1.042336	0.665972	0.458599
H321	H	0.563241	0.069168	-0.100624
H322	H	1.063241	0.569168	0.399376
H323	H	0.576618	0.002073	0.061424
H324	H	1.076618	0.502073	0.561424
N325	N	0.567648	0.077967	0.114497
N326	N	1.067648	0.577967	0.614497
H327	H	0.597336	0.111864	0.102655
H328	H	1.097336	0.611864	0.602655
H329	H	0.606522	0.050715	0.140085
H330	H	1.106522	0.550715	0.640085
N331	N	0.826076	-0.619602	0.000043
N332	N	1.326076	-0.119602	0.500043
H333	H	0.777234	-0.643135	0.000042
H334	H	1.277234	-0.143135	0.500042
H335	H	0.823168	-0.594665	-0.037418
H336	H	1.323168	-0.094665	0.462582
