data_functionalizedCrystal
_audit_creation_method	'MofGen! by Chris Wilmer'
_symmetry_space_group_name_H-M	'P1'
_symmetry_Int_Tables_number	1
_symmetry_cell_setting	triclinic
loop_
_symmetry_equiv_pos_as_xyz
  x,y,z
_cell_length_a	19.805407
_cell_length_b	12.759400
_cell_length_c	19.805399
_cell_angle_alpha	90.023237
_cell_angle_beta	90.019573
_cell_angle_gamma	90.014685
loop_
_atom_site_label
_atom_site_type_symbol
_atom_site_fract_x
_atom_site_fract_y
_atom_site_fract_z
Zn1	Zn	1.034791	-0.418291	0.382740
Zn2	Zn	1.034729	-0.593984	0.269560
Zn3	Zn	0.921605	-0.418320	0.269565
Zn4	Zn	0.921592	-0.593928	0.382707
O5	O	0.978179	-0.506131	0.326143
O6	O	1.129499	-0.441608	0.367739
O7	O	1.019702	-0.570717	0.174844
O8	O	0.936651	-0.271295	0.284593
O9	O	1.129454	-0.570689	0.284586
O10	O	1.019808	-0.271273	0.367743
O11	O	0.936591	-0.441657	0.174848
O12	O	0.826887	-0.441603	0.284561
O13	O	0.936629	-0.570594	0.477428
O14	O	0.826877	-0.570622	0.367687
O15	O	1.019795	-0.441554	0.477452
O16	O	1.019689	-0.740998	0.284554
O17	O	0.936568	-0.740957	0.367682
C18	C	0.802323	-0.506110	0.326121
C19	C	0.727091	-0.506127	0.326128
C20	C	0.691760	-0.573408	0.369341
C21	C	0.621071	-0.573410	0.369351
C22	C	0.585716	-0.506135	0.326143
C23	C	0.621052	-0.438847	0.282928
C24	C	0.691739	-0.438840	0.282922
C25	C	0.335979	-0.438870	0.282950
C26	C	0.265287	-0.438884	0.282958
C27	C	0.265311	-0.573440	0.369379
C28	C	0.335998	-0.573433	0.369373
C29	C	0.371328	-0.506141	0.326161
C30	C	0.447977	-0.506139	0.326152
C31	C	0.509069	-0.506142	0.326148
C32	C	0.978139	-0.779098	0.326129
C33	C	0.978184	-0.895875	0.326146
C34	C	1.021513	-0.950723	0.282908
C35	C	1.021555	-1.060447	0.282929
C36	C	0.934932	-1.060464	0.369426
C37	C	0.934894	-0.950742	0.369408
C38	C	1.064802	-0.895855	0.239646
C39	C	1.108135	-0.950704	0.196404
C40	C	1.108176	-1.060428	0.196425
C41	C	1.064886	-1.115303	0.239687
C42	C	1.154722	-0.506152	0.326165
C43	C	1.229954	-0.506160	0.326175
C44	C	0.978217	-0.506064	0.502686
C45	C	0.978233	-0.506036	0.577918
C46	C	0.978238	-0.232097	0.326172
C47	C	0.978263	-0.115321	0.326184
C48	C	0.978180	-0.506121	0.150287
C49	C	0.978295	-0.505853	0.075055
C50	C	1.021539	-0.438842	0.613276
C51	C	1.021546	-0.438811	0.683964
C52	C	0.978250	-0.505981	0.719294
C53	C	0.934940	-0.573179	0.683931
C54	C	0.934930	-0.573203	0.613244
C55	C	0.934978	-0.573081	0.969004
C56	C	0.934992	-0.573054	1.039696
C57	C	1.021594	-0.438689	1.039725
C58	C	1.021584	-0.438713	0.969038
C59	C	0.978272	-0.505906	0.933681
C60	C	0.978264	-0.505937	0.857033
C61	C	0.978261	-0.505957	0.795941
H62	H	0.236502	-0.384094	0.247773
H63	H	0.592308	-0.628198	0.404539
O64	O	0.582918	-0.366283	0.236328
H65	H	0.619364	-0.319489	0.206283
H66	H	0.236536	-0.628228	0.404567
H67	H	0.899685	-0.627866	0.712702
H68	H	0.364781	-0.628219	0.404555
H69	H	0.899613	-0.906084	0.404617
O70	O	0.888213	-0.645674	0.575110
H71	H	0.918482	-0.699142	0.542897
H72	H	1.056843	-0.384020	0.940276
H73	H	0.899733	-0.627754	1.068460
H74	H	0.720505	-0.384048	0.247737
H75	H	1.064772	-0.806512	0.239622
O76	O	1.154828	-0.891518	0.149751
H77	H	1.184971	-0.948095	0.119695
H78	H	0.364736	-0.384085	0.247759
O79	O	1.154909	-1.119592	0.149791
H80	H	1.184999	-1.063002	0.119703
O81	O	1.064930	-1.233650	0.239707
H82	H	1.078594	-1.262512	0.290775
H83	H	0.899686	-1.105153	0.404648
H84	H	1.056798	-0.384147	0.584516
O85	O	1.068258	-0.366344	0.722103
H86	H	1.098370	-0.319652	0.685661
O87	O	1.068292	-0.366191	1.077868
H88	H	1.102718	-0.413194	1.110087
O89	O	0.729893	-0.645965	0.415947
H90	H	0.693446	-0.692741	0.446003
O91	O	0.888230	-0.645496	0.930873
H92	H	0.858119	-0.692184	0.967317
