data_functionalizedCrystal
_audit_creation_method	'MofGen! by Chris Wilmer'
_symmetry_space_group_name_H-M	'P1'
_symmetry_Int_Tables_number	1
_symmetry_cell_setting	triclinic
loop_
_symmetry_equiv_pos_as_xyz
  x,y,z
_cell_length_a	21.395364
_cell_length_b	12.759400
_cell_length_c	21.395355
_cell_angle_alpha	90.012729
_cell_angle_beta	90.024727
_cell_angle_gamma	90.011498
loop_
_atom_site_label
_atom_site_type_symbol
_atom_site_fract_x
_atom_site_fract_y
_atom_site_fract_z
Zn1	Zn	0.957935	-0.418435	0.354290
Zn2	Zn	1.457935	0.081565	0.854290
Zn3	Zn	0.957870	-0.594099	0.249523
Zn4	Zn	1.457870	-0.094099	0.749523
Zn5	Zn	0.853150	-0.418430	0.249526
Zn6	Zn	1.353150	0.081570	0.749526
Zn7	Zn	0.853152	-0.594067	0.354263
Zn8	Zn	1.353152	-0.094067	0.854263
O9	O	0.905527	-0.506258	0.301900
O10	O	1.405527	-0.006258	0.801900
O11	O	1.045605	-0.441753	0.340402
O12	O	1.545605	0.058247	0.840402
O13	O	0.943951	-0.570808	0.161845
O14	O	1.443951	-0.070808	0.661845
O15	O	0.867077	-0.271409	0.263436
O16	O	1.367077	0.228591	0.763436
O17	O	1.045557	-0.570812	0.263430
O18	O	1.545557	-0.070812	0.763430
O19	O	0.944062	-0.271413	0.340405
O20	O	1.444062	0.228587	0.840405
O21	O	0.867014	-0.441744	0.161848
O22	O	1.367014	0.058256	0.661848
O23	O	0.765473	-0.441713	0.263410
O24	O	1.265473	0.058287	0.763410
O25	O	0.867079	-0.570758	0.441944
O26	O	1.367079	-0.070758	0.941944
O27	O	0.765474	-0.570753	0.340359
O28	O	1.265474	-0.070753	0.840359
O29	O	0.944064	-0.441721	0.441964
O30	O	1.444064	0.058279	0.941964
O31	O	0.943952	-0.741116	0.263404
O32	O	1.443952	-0.241116	0.763404
O33	O	0.867016	-0.741092	0.340356
O34	O	1.367016	-0.241092	0.840356
C35	C	0.742739	-0.506230	0.301882
C36	C	1.242739	-0.006230	0.801882
C37	C	0.673098	-0.506243	0.301889
C38	C	1.173098	-0.006243	0.801889
C39	C	0.171319	-0.573572	0.341929
C40	C	0.671319	-0.073572	0.841929
C41	C	0.236754	-0.573572	0.341922
C42	C	0.736754	-0.073572	0.841922
C43	C	0.269460	-0.506281	0.301920
C44	C	0.769460	-0.006281	0.801920
C45	C	0.236724	-0.439003	0.261910
C46	C	0.736724	0.060997	0.761910
C47	C	0.171290	-0.439012	0.261913
C48	C	0.671290	0.060988	0.761913
C49	C	0.373131	-0.411598	0.297063
C50	C	0.873131	0.088402	0.797063
C51	C	0.438564	-0.411587	0.297064
C52	C	0.938564	0.088413	0.797064
C53	C	0.471280	-0.506253	0.301906
C54	C	0.971280	-0.006253	0.801906
C55	C	0.438556	-0.600933	0.306760
C56	C	0.938556	-0.100933	0.806760
C57	C	0.373122	-0.600942	0.306764
C58	C	0.873122	-0.100942	0.806764
C59	C	0.340412	-0.506264	0.301912
C60	C	0.840412	-0.006264	0.801912
C61	C	0.574960	-0.573532	0.341904
C62	C	1.074960	-0.073532	0.841904
C63	C	0.640397	-0.573534	0.341893
C64	C	1.140397	-0.073534	0.841893
C65	C	0.640366	-0.438955	0.261883
C66	C	1.140366	0.061045	0.761883
C67	C	0.574931	-0.438963	0.261891
C68	C	1.074931	0.061037	0.761891
C69	C	0.542232	-0.506250	0.301905
C70	C	1.042232	-0.006250	0.801905
C71	C	0.905494	-0.779225	0.301890
C72	C	1.405494	-0.279225	0.801890
C73	C	0.905537	-0.896002	0.301907
C74	C	1.405537	-0.396002	0.801907
C75	C	0.945603	-0.950786	0.342018
C76	C	1.445603	-0.450786	0.842018
C77	C	0.945633	-1.060510	0.342033
C78	C	1.445633	-0.560510	0.842033
C79	C	0.865528	-1.060656	0.261821
C80	C	1.365528	-0.560656	0.761821
C81	C	0.865496	-0.950934	0.261810
C82	C	1.365496	-0.450934	0.761810
C83	C	0.991853	-0.950703	0.388325
C84	C	1.491853	-0.450703	0.888325
C85	C	0.991882	-1.060427	0.388341
C86	C	1.491882	-0.560427	0.888341
C87	C	1.068950	-0.506287	0.301919
C88	C	1.568950	-0.006287	0.801919
C89	C	1.138591	-0.506299	0.301927
C90	C	1.638591	-0.006299	0.801927
C91	C	0.905579	-0.506236	0.465324
C92	C	1.405579	-0.006236	0.965324
C93	C	0.905601	-0.506227	0.534965
C94	C	1.405601	-0.006227	1.034965
C95	C	0.905577	-0.232224	0.301924
C96	C	1.405577	0.267776	0.801924
C97	C	0.905598	-0.115448	0.301934
C98	C	1.405598	0.384552	0.801934
C99	C	0.905511	-0.506203	0.139113
C100	C	1.405511	-0.006203	0.639113
C101	C	0.905610	-0.505916	0.069472
C102	C	1.405610	-0.005916	0.569472
C103	C	0.945685	-0.439035	0.567689
C104	C	1.445685	0.060965	1.067689
C105	C	0.945684	-0.438990	0.633125
C106	C	1.445684	0.061010	1.133125
C107	C	0.905606	-0.506156	0.665833
C108	C	1.405606	-0.006156	1.165833
C109	C	0.865514	-0.573353	0.633101
C110	C	1.365514	-0.073353	1.133101
C111	C	0.865512	-0.573388	0.567667
C112	C	1.365512	-0.073388	1.067667
C113	C	0.900647	-0.600755	0.769504
C114	C	1.400647	-0.100755	1.269504
C115	C	0.900654	-0.600720	0.834937
C116	C	1.400654	-0.100720	1.334937
C117	C	0.905610	-0.506045	0.867654
C118	C	1.405610	-0.006045	1.367654
C119	C	0.910572	-0.411400	0.834930
C120	C	1.410572	0.088600	1.334930
C121	C	0.910569	-0.411436	0.769495
C122	C	1.410569	0.088564	1.269495
C123	C	0.905604	-0.506124	0.736786
C124	C	1.405604	-0.006124	1.236786
C125	C	0.945695	-0.438798	0.971331
C126	C	1.445695	0.061202	1.471331
C127	C	0.945690	-0.438751	1.036768
C128	C	1.445690	0.061249	1.536768
C129	C	0.865523	-0.573123	1.036743
C130	C	1.365523	-0.073123	1.536743
C131	C	0.865525	-0.573160	0.971307
C132	C	1.365525	-0.073160	1.471307
C133	C	0.905614	-0.505999	0.938605
C134	C	1.405614	-0.005999	1.438605
H135	H	0.667043	-0.628323	0.374466
H136	H	1.167043	-0.128323	0.874466
Br137	Br	1.072783	-1.109993	0.366756
Br138	Br	1.572783	-0.609993	0.866756
Br139	Br	0.126944	-0.664894	0.396230
Br140	Br	0.626944	-0.164894	0.896230
Br141	Br	0.328737	-0.283113	0.290481
Br142	Br	0.828737	0.216887	0.790481
H143	H	0.832865	-0.906330	0.229154
H144	H	1.332865	-0.406330	0.729154
H145	H	0.666994	-0.384169	0.229310
H146	H	1.166994	0.115831	0.729310
H147	H	0.978328	-0.384346	0.541067
H148	H	1.478328	0.115654	1.041067
Br149	Br	0.970144	-0.901034	0.469178
Br150	Br	1.470144	-0.401034	0.969178
H151	H	0.978324	-0.384269	0.659774
H152	H	1.478324	0.115731	1.159774
Br153	Br	0.811186	-1.135213	0.207409
Br154	Br	1.311186	-0.635213	0.707409
Br155	Br	1.068676	-0.893899	0.359419
Br156	Br	1.568676	-0.393899	0.859419
H157	H	0.974477	-1.094445	0.434422
H158	H	1.474477	-0.594445	0.934422
H159	H	0.914608	-0.334373	0.742854
H160	H	1.414608	0.165627	1.242854
H161	H	0.914608	-0.334306	0.861566
H162	H	1.414608	0.165694	1.361566
H163	H	0.978335	-0.384106	0.944704
H164	H	1.478335	0.115894	1.444704
H165	H	0.978330	-0.384029	1.063411
H166	H	1.478330	0.115971	1.563411
H167	H	0.832888	-0.627882	0.944663
H168	H	1.332888	-0.127882	1.444663
H169	H	0.832884	-0.627800	1.063373
H170	H	1.332884	-0.127800	1.563373
Br171	Br	0.482948	-0.729418	0.313332
Br172	Br	0.982948	-0.229418	0.813332
Br173	Br	0.893929	-0.729165	0.879342
Br174	Br	1.393929	-0.229165	1.379342
H175	H	0.896444	-0.677831	0.742872
H176	H	1.396444	-0.177831	1.242872
Br177	Br	0.811117	-0.664500	0.677489
Br178	Br	1.311117	-0.164500	1.177489
H179	H	0.263406	-0.628354	0.374499
H180	H	0.763406	-0.128354	0.874499
Br181	Br	0.328711	-0.729428	0.313349
Br182	Br	0.828711	-0.229428	0.813349
Br183	Br	0.530579	-0.664850	0.396204
Br184	Br	1.030579	-0.164850	0.896204
Br185	Br	0.811107	-0.664583	0.523252
Br186	Br	1.311107	-0.164583	1.023252
H187	H	0.548284	-0.384178	0.229319
H188	H	1.048284	0.115822	0.729319
H189	H	0.263357	-0.384216	0.229339
H190	H	0.763357	0.115784	0.729339
Br191	Br	0.482970	-0.283094	0.290489
Br192	Br	0.982970	0.216906	0.790489
H193	H	0.144644	-0.384228	0.229338
H194	H	0.644644	0.115772	0.729338
