data_functionalizedCrystal
_audit_creation_method	'MofGen! by Chris Wilmer'
_symmetry_space_group_name_H-M	'P1'
_symmetry_Int_Tables_number	1
_symmetry_cell_setting	triclinic
loop_
_symmetry_equiv_pos_as_xyz
  x,y,z
_cell_length_a	11.792254
_cell_length_b	10.540539
_cell_length_c	10.868271
_cell_angle_alpha	89.999271
_cell_angle_beta	90.004308
_cell_angle_gamma	84.362045
loop_
_atom_site_label
_atom_site_type_symbol
_atom_site_fract_x
_atom_site_fract_y
_atom_site_fract_z
O1	O	1.507354	0.174062	0.102315
O2	O	1.177061	0.191976	0.102317
O3	O	1.349743	-0.001712	0.102314
O4	O	1.334672	0.367750	0.102318
O5	O	1.349727	-0.001705	-0.102330
O6	O	1.177045	0.191983	-0.102328
O7	O	1.507338	0.174068	-0.102330
Zn8	Zn	1.342189	0.183026	-0.134820
Zn9	Zn	1.342210	0.183018	0.134808
O10	O	1.334656	0.367756	-0.102327
C11	C	1.134760	0.190851	-0.000005
C12	C	1.008738	0.187473	-0.000004
C13	C	0.906394	0.184729	0.000001
C14	C	0.777999	0.181297	0.000002
C15	C	1.348605	-0.049008	-0.000006
C16	C	1.345223	-0.189945	0.000001
C17	C	1.215653	-0.372957	0.000461
C18	C	1.219081	-0.226349	0.000000
C19	C	1.405920	-0.251794	-0.116862
C20	C	1.401615	-0.398325	-0.116960
C21	C	1.404198	-0.398858	0.115759
C22	C	1.405360	-0.251880	0.117304
C23	C	1.549639	0.175193	-0.000005
C24	C	1.675661	0.178571	0.000002
C25	C	1.335794	0.415052	-0.000004
C26	C	1.339176	0.555989	-0.000003
N27	N	1.342183	0.183031	-0.318834
C28	C	1.342192	0.183032	-0.430172
C29	C	1.342207	0.183020	-0.569850
N30	N	1.342225	0.183003	0.318822
H31	H	1.171321	-0.183596	0.083772
F32	F	1.350837	-0.439918	0.231534
F33	F	1.347767	-0.197699	0.230320
H34	H	1.498555	-0.229737	-0.121207
H35	H	1.363744	-0.209056	-0.203826
H36	H	1.497328	-0.227954	0.124361
F37	F	1.150527	-0.410130	0.110001
H38	H	1.495311	-0.446376	0.116545
H39	H	1.166020	-0.403002	-0.082873
H40	H	1.170973	-0.184437	-0.083910
F41	F	1.342961	-0.434995	-0.231138
F42	F	1.520189	-0.461407	-0.123903
