data_functionalizedCrystal
_audit_creation_method	'MofGen! by Chris Wilmer'
_symmetry_space_group_name_H-M	'P1'
_symmetry_Int_Tables_number	1
_symmetry_cell_setting	triclinic
loop_
_symmetry_equiv_pos_as_xyz
  x,y,z
_cell_length_a	18.215407
_cell_length_b	13.032721
_cell_length_c	18.215399
_cell_angle_alpha	97.154738
_cell_angle_beta	89.982632
_cell_angle_gamma	97.201717
loop_
_atom_site_label
_atom_site_type_symbol
_atom_site_fract_x
_atom_site_fract_y
_atom_site_fract_z
Zn1	Zn	1.087874	-0.416122	-0.453281
Zn2	Zn	1.587874	0.083878	0.046719
Zn3	Zn	1.072159	-0.590884	-0.345843
Zn4	Zn	1.572159	-0.090884	0.154157
Zn5	Zn	0.964804	-0.416147	-0.330236
Zn6	Zn	1.464804	0.083853	0.169764
Zn7	Zn	0.949156	-0.590817	-0.468867
Zn8	Zn	1.449156	-0.090817	0.031133
O9	O	1.018498	-0.503493	-0.399557
O10	O	1.518498	-0.003493	0.100443
O11	O	1.188772	-0.439322	-0.439038
O12	O	1.688772	0.060678	0.060962
O13	O	1.057891	-0.567744	-0.240792
O14	O	1.557891	-0.067744	0.259208
O15	O	0.994255	-0.269905	-0.333503
O16	O	1.494255	0.230095	0.166497
O17	O	1.177227	-0.567719	-0.360104
O18	O	1.677227	-0.067719	0.139896
O19	O	1.084673	-0.269887	-0.423904
O20	O	1.584673	0.230113	0.076096
O21	O	0.979017	-0.439365	-0.229325
O22	O	1.479017	0.060635	0.270675
O23	O	0.859745	-0.439300	-0.348617
O24	O	1.359745	0.060700	0.151383
O25	O	0.967584	-0.567605	-0.569781
O26	O	1.467584	-0.067605	-0.069781
O27	O	0.848249	-0.567629	-0.450469
O28	O	1.348249	-0.067629	0.049531
O29	O	1.069500	-0.439257	-0.558329
O30	O	1.569500	0.060743	-0.058329
O31	O	1.042717	-0.737114	-0.375218
O32	O	1.542717	-0.237114	0.124782
O33	O	0.952347	-0.737064	-0.465603
O34	O	1.452347	-0.237064	0.034397
C35	C	0.827295	-0.503460	-0.399541
C36	C	1.327295	-0.003460	0.100459
C37	C	0.745495	-0.503472	-0.399554
C38	C	1.245495	-0.003472	0.100446
C39	C	0.563299	-0.436753	-0.440742
C40	C	1.063299	0.063247	0.059258
C41	C	0.486440	-0.436762	-0.440745
C42	C	0.986440	0.063238	0.059255
C43	C	0.474447	-0.570261	-0.358388
C44	C	0.974447	-0.070261	0.141612
C45	C	0.551305	-0.570246	-0.358381
C46	C	1.051305	-0.070246	0.141619
C47	C	0.595729	-0.503494	-0.399562
C48	C	1.095729	-0.003494	0.100438
C49	C	0.442011	-0.503518	-0.399572
C50	C	0.942011	-0.003518	0.100428
C51	C	0.358677	-0.503528	-0.399575
C52	C	0.858677	-0.003528	0.100425
C53	C	0.679069	-0.503482	-0.399558
C54	C	1.179069	-0.003482	0.100442
C55	C	0.994149	-0.775007	-0.423811
C56	C	1.494149	-0.275007	0.076189
C57	C	0.983800	-0.891162	-0.434212
C58	C	1.483800	-0.391162	0.065788
C59	C	1.023939	-0.942938	-0.394162
C60	C	1.523939	-0.442938	0.105838
C61	C	1.013243	-1.062990	-0.404910
C62	C	1.513243	-0.562990	0.095090
C63	C	1.210448	-0.503526	-0.399573
C64	C	1.710448	-0.003526	0.100427
C65	C	1.292246	-0.503540	-0.399580
C66	C	1.792246	-0.003540	0.100420
C67	C	1.018549	-0.503421	-0.591503
C68	C	1.518549	-0.003421	-0.091503
C69	C	1.018571	-0.503390	-0.673300
C70	C	1.518571	-0.003390	-0.173300
C71	C	1.042962	-0.230918	-0.375224
C72	C	1.542962	0.269082	0.124776
C73	C	1.053388	-0.114763	-0.364854
C74	C	1.553388	0.385237	0.135146
C75	C	1.071661	-0.436497	-0.855526
C76	C	1.571661	0.063503	-0.355526
C77	C	1.071673	-0.436466	-0.932382
C78	C	1.571673	0.063534	-0.432382
C79	C	0.965548	-0.570121	-0.944296
C80	C	1.465548	-0.070121	-0.444296
C81	C	0.965534	-0.570146	-0.867441
C82	C	1.465534	-0.070146	-0.367441
C83	C	1.018594	-0.503335	-0.823058
C84	C	1.518594	-0.003335	-0.323058
C85	C	1.018620	-0.503280	-0.976769
C86	C	1.518620	-0.003280	-0.476769
C87	C	1.018632	-0.503248	-1.060100
C88	C	1.518632	-0.003248	-0.560100
C89	C	1.018582	-0.503366	-0.739722
C90	C	1.518582	-0.003366	-0.239722
C91	C	1.018496	-0.503489	-0.208350
C92	C	1.518496	-0.003489	0.291650
C93	C	1.018643	-0.503225	-0.126528
C94	C	1.518643	-0.003225	0.373472
H95	H	0.460039	-0.382414	-0.474276
H96	H	0.960039	0.117586	0.025724
N97	N	1.128892	-0.364443	-0.807658
N98	N	1.628892	0.135557	-0.307658
H99	H	1.120837	-0.374605	-0.754044
H100	H	1.620837	0.125395	-0.254044
H101	H	1.179988	-0.380725	-0.822561
H102	H	1.679988	0.119275	-0.322561
N103	N	0.611214	-0.364761	-0.485158
N104	N	1.111214	0.135239	0.014842
H105	H	0.647439	-0.316275	-0.450977
H106	H	1.147439	0.183725	0.049023
H107	H	0.639251	-0.407370	-0.523007
H108	H	1.139251	0.092630	-0.023007
N109	N	0.908321	-0.642193	-0.992158
N110	N	1.408321	-0.142193	-0.492158
H111	H	0.857196	-0.625955	-0.977322
H112	H	1.357196	-0.125955	-0.477322
H113	H	0.916441	-0.632015	-1.045759
H114	H	1.416441	-0.132015	-0.545759
H115	H	0.438267	-0.624610	-0.324860
H116	H	0.938267	-0.124610	0.175140
N117	N	1.079946	-0.883927	-0.338200
N118	N	1.579946	-0.383927	0.161800
H119	H	1.066866	-0.902927	-0.287297
H120	H	1.566866	-0.402927	0.212703
H121	H	1.130831	-0.902817	-0.351417
H122	H	1.630831	-0.402817	0.148583
H123	H	0.577710	-0.624596	-0.324843
H124	H	1.077710	-0.124596	0.175157
H125	H	0.970960	-1.107537	-0.447162
H126	H	1.470960	-0.607537	0.052838
N127	N	1.109406	-1.055769	-0.308893
N128	N	1.609406	-0.555769	0.191107
H129	H	1.109110	-0.978371	-0.309147
H130	H	1.609110	-0.478371	0.190853
H131	H	1.096295	-1.074853	-0.258020
H132	H	1.596295	-0.574853	0.241980
N133	N	0.927793	-0.950162	-0.490178
N134	N	1.427793	-0.450162	0.009822
H135	H	0.928092	-1.027560	-0.489924
H136	H	1.428092	-0.527560	0.010076
H137	H	0.876916	-0.931210	-0.476992
H138	H	1.376916	-0.431210	0.023008
H139	H	1.114884	-0.382038	-0.958814
H140	H	1.614884	0.117962	-0.458814
N141	N	0.908282	-0.642218	-0.832413
N142	N	1.408282	-0.142218	-0.332413
H143	H	0.874670	-0.684538	-0.872190
H144	H	1.374670	-0.184538	-0.372190
H145	H	0.933880	-0.690597	-0.804838
H146	H	1.433880	-0.190597	-0.304838
