data_functionalizedCrystal
_audit_creation_method	'MofGen! by Chris Wilmer'
_symmetry_space_group_name_H-M	'P1'
_symmetry_Int_Tables_number	1
_symmetry_cell_setting	triclinic
loop_
_symmetry_equiv_pos_as_xyz
  x,y,z
_cell_length_a	10.489741
_cell_length_b	17.699083
_cell_length_c	16.776229
_cell_angle_alpha	89.998886
_cell_angle_beta	90.006341
_cell_angle_gamma	96.088906
loop_
_atom_site_label
_atom_site_type_symbol
_atom_site_fract_x
_atom_site_fract_y
_atom_site_fract_z
O1	O	0.161296	-1.005134	0.066176
O2	O	0.661296	-0.505134	0.566176
O3	O	0.182281	-0.784893	0.066202
O4	O	0.682281	-0.284893	0.566202
O5	O	-0.013903	-0.900025	0.066184
O6	O	0.486097	-0.400025	0.566184
O7	O	0.357479	-0.890002	0.066194
O8	O	0.857479	-0.390002	0.566194
O9	O	-0.013915	-0.900009	-0.066393
O10	O	0.486085	-0.400009	0.433607
O11	O	0.182269	-0.784877	-0.066375
O12	O	0.682269	-0.284877	0.433625
O13	O	0.161284	-1.005118	-0.066401
O14	O	0.661284	-0.505118	0.433599
Zn15	Zn	0.171774	-0.894995	-0.087437
Zn16	Zn	0.671774	-0.394995	0.412563
Zn17	Zn	0.171790	-0.895016	0.087238
Zn18	Zn	0.671790	-0.395016	0.587238
O19	O	0.357467	-0.889986	-0.066382
O20	O	0.857467	-0.389986	0.433618
C21	C	0.181523	-0.756683	-0.000083
C22	C	0.681523	-0.256683	0.499917
C23	C	0.179267	-0.672650	-0.000073
C24	C	0.679267	-0.172650	0.499927
C25	C	-0.061427	-0.899260	-0.000104
C26	C	0.438573	-0.399260	0.499896
C27	C	-0.203014	-0.896995	-0.000102
C28	C	0.296986	-0.396995	0.499898
N29	N	0.171763	-0.894987	-0.206648
N30	N	0.671763	-0.394987	0.293352
C31	C	-0.269793	-0.823740	-0.000088
C32	C	0.230207	-0.323740	0.499912
C33	C	-0.362564	-0.858337	-0.065459
C34	C	0.137436	-0.358337	0.434541
C35	C	-0.362527	-0.858370	0.065251
C36	C	0.137473	-0.358370	0.565251
C37	C	-0.293920	-0.931623	-0.065528
C38	C	0.206080	-0.431623	0.434472
C39	C	-0.293874	-0.931645	0.065241
C40	C	0.206126	-0.431645	0.565241
C41	C	-0.386619	-0.966296	-0.000146
C42	C	0.113381	-0.466296	0.499854
C43	C	0.404991	-0.890751	-0.000093
C44	C	0.904991	-0.390751	0.499907
C45	C	0.546578	-0.893016	-0.000089
C46	C	1.046578	-0.393016	0.499911
C47	C	0.162042	-1.033328	-0.000114
C48	C	0.662042	-0.533328	0.499886
C49	C	0.164297	-1.117361	-0.000119
C50	C	0.664297	-0.617361	0.499881
C51	C	0.294422	-0.624782	-0.000070
C52	C	0.794422	-0.124782	0.499930
C53	C	0.292295	-0.545825	-0.000080
C54	C	0.792295	-0.045825	0.499920
C55	C	0.175011	-0.514737	-0.000088
C56	C	0.675011	-0.014737	0.499912
C57	C	0.059847	-0.562611	-0.000094
C58	C	0.559847	-0.062611	0.499906
C59	C	0.061975	-0.641567	-0.000089
C60	C	0.561975	-0.141567	0.499911
C61	C	0.051260	-0.244192	-0.000114
C62	C	0.551260	0.255808	0.499886
C63	C	0.049140	-0.165230	-0.000116
C64	C	0.549140	0.334770	0.499884
C65	C	0.281580	-0.148450	-0.000105
C66	C	0.781580	0.351550	0.499895
C67	C	0.283709	-0.227406	-0.000100
C68	C	0.783709	0.272594	0.499900
C69	C	0.168545	-0.275273	-0.000110
C70	C	0.668545	0.224727	0.499890
C71	C	0.170853	-0.360887	-0.000100
C72	C	0.670853	0.139113	0.499900
C73	C	0.172702	-0.429124	-0.000092
C74	C	0.672702	0.070876	0.499908
C75	C	0.084928	-0.945983	-0.248373
C76	C	0.584928	-0.445983	0.251627
C77	C	0.084927	-0.945987	-0.331826
C78	C	0.584927	-0.445987	0.168174
C79	C	0.171767	-0.894998	-0.373551
C80	C	0.671767	-0.394998	0.126449
C81	C	0.258606	-0.843996	-0.331820
C82	C	0.758606	-0.343996	0.168180
C83	C	0.258600	-0.843989	-0.248369
C84	C	0.758600	-0.343989	0.251631
C85	C	0.258631	-0.844024	-0.668367
C86	C	0.758631	-0.344024	-0.168367
C87	C	0.258633	-0.844037	-0.751824
C88	C	0.758633	-0.344037	-0.251824
C89	C	0.084958	-0.946022	-0.751823
C90	C	0.584958	-0.446022	-0.251823
C91	C	0.084952	-0.946015	-0.668373
C92	C	0.584952	-0.446015	-0.168373
C93	C	0.171786	-0.895011	-0.626649
C94	C	0.671786	-0.395011	-0.126649
C95	C	0.171784	-0.895006	-0.536161
C96	C	0.671784	-0.395006	-0.036161
C97	C	0.171776	-0.895006	-0.464038
C98	C	0.671776	-0.395006	0.035962
N99	N	0.171791	-0.895030	0.206450
N100	N	0.671791	-0.395030	0.706450
H101	H	-0.393005	-0.827335	-0.120719
H102	H	0.106995	-0.327335	0.379281
H103	H	0.329309	-0.802476	-0.365798
H104	H	0.829309	-0.302476	0.134202
H105	H	-0.392910	-0.827371	0.120523
H106	H	0.107090	-0.327371	0.620523
H107	H	0.379213	-0.252713	-0.000090
H108	H	0.879213	0.247287	0.499910
N109	N	0.352287	-0.789028	-0.796828
N110	N	0.852287	-0.289028	-0.296828
H111	H	0.339113	-0.796776	-0.856024
H112	H	0.839113	-0.296776	-0.356024
H113	H	0.442757	-0.798250	-0.782232
H114	H	0.942757	-0.298250	-0.282232
H115	H	-0.263400	-0.962621	0.120504
H116	H	0.236600	-0.462621	0.620504
H117	H	-0.263669	-0.962585	-0.120856
H118	H	0.236331	-0.462585	0.379144
H119	H	0.386067	-0.506854	-0.000077
H120	H	0.886067	-0.006854	0.499923
H121	H	-0.219023	-0.763510	-0.000147
H122	H	0.280977	-0.263510	0.499853
N123	N	-0.077361	-0.131693	-0.000138
N124	N	0.422639	0.368307	0.499862
H125	H	-0.083428	-0.099308	0.049006
H126	H	0.416572	0.400692	0.549006
H127	H	-0.149924	-0.174036	-0.000178
H128	H	0.350076	0.325964	0.499822
N129	N	0.405798	-0.096822	-0.000097
N130	N	0.905798	0.403178	0.499903
H131	H	0.386660	-0.042086	-0.000104
H132	H	0.886660	0.457914	0.499896
H133	H	0.456923	-0.106963	-0.049239
H134	H	0.956923	0.393037	0.450761
N135	N	-0.072946	-0.295813	-0.000129
N136	N	0.427054	0.204187	0.499871
H137	H	-0.147564	-0.264136	-0.000134
H138	H	0.352436	0.235864	0.499866
H139	H	-0.077133	-0.328941	0.049017
H140	H	0.422867	0.171059	0.549017
N141	N	-0.066653	-0.529082	-0.000095
N142	N	0.433347	-0.029082	0.499905
H143	H	-0.139281	-0.571389	-0.000097
H144	H	0.360719	-0.071389	0.499903
H145	H	-0.072606	-0.496688	-0.049242
H146	H	0.427394	0.003312	0.450758
N147	N	0.352276	-0.789011	-0.623371
N148	N	0.852276	-0.289011	-0.123371
H149	H	0.407288	-0.756713	-0.662469
H150	H	0.907288	-0.256713	-0.162469
H151	H	0.408606	-0.818279	-0.588733
H152	H	0.908606	-0.318279	-0.088733
N153	N	-0.062227	-0.693199	-0.000098
N154	N	0.437773	-0.193199	0.499902
H155	H	-0.136850	-0.661526	-0.000103
H156	H	0.363150	-0.161526	0.499897
H157	H	-0.066408	-0.726325	0.049049
H158	H	0.433592	-0.226325	0.549049
H159	H	0.329308	-0.802462	-0.214397
H160	H	0.829308	-0.302462	0.285603
H161	H	0.389929	-0.650088	-0.000063
H162	H	0.889929	-0.150088	0.499937
N163	N	-0.008759	-1.000976	-0.203385
N164	N	0.491241	-0.500976	0.296615
H165	H	-0.065174	-0.971741	-0.168775
H166	H	0.434826	-0.471741	0.331225
H167	H	0.039978	-1.034742	-0.168795
H168	H	0.539978	-0.534742	0.331205
N169	N	-0.453595	-1.046142	-0.000198
N170	N	0.046405	-0.546142	0.499802
H171	H	-0.427513	-1.074046	0.048692
H172	H	0.072487	-0.574046	0.548692
H173	H	-0.428652	-1.073636	-0.049629
H174	H	0.071348	-0.573636	0.450371
H175	H	0.014219	-0.987512	-0.365798
H176	H	0.514219	-0.487512	0.134202
H177	H	0.014243	-0.987537	-0.634402
H178	H	0.514243	-0.487537	-0.134402
H179	H	0.014249	-0.987550	-0.785804
H180	H	0.514249	-0.487550	-0.285804
