data_functionalizedCrystal
_audit_creation_method	'MofGen! by Chris Wilmer'
_symmetry_space_group_name_H-M	'P1'
_symmetry_Int_Tables_number	1
_symmetry_cell_setting	triclinic
loop_
_symmetry_equiv_pos_as_xyz
  x,y,z
_cell_length_a	17.038272
_cell_length_b	16.992695
_cell_length_c	15.455301
_cell_angle_alpha	87.173129
_cell_angle_beta	87.189812
_cell_angle_gamma	90.889890
loop_
_atom_site_label
_atom_site_type_symbol
_atom_site_fract_x
_atom_site_fract_y
_atom_site_fract_z
O1	O	-1.051350	-0.174258	0.072023
O2	O	-0.823550	-0.171544	0.072049
O3	O	-0.936536	-0.058698	0.072029
O4	O	-0.938363	-0.287105	0.072043
O5	O	-0.930006	-0.052132	-0.072233
O6	O	-0.817019	-0.164979	-0.072213
O7	O	-1.044819	-0.167693	-0.072239
Cu8	Cu	-0.930323	-0.165736	-0.085398
Cu9	Cu	-0.938046	-0.173501	0.085208
O10	O	-0.931833	-0.280540	-0.072219
C11	C	-0.791002	-0.165793	-0.000079
C12	C	-0.703747	-0.158426	-0.000069
C13	C	-0.930922	-0.026045	-0.000101
C14	C	-0.923911	0.061466	-0.000100
C15	C	-1.077368	-0.173445	-0.000109
C16	C	-1.164623	-0.180812	-0.000113
C17	C	-0.657877	-0.226066	-0.000066
C18	C	-0.575891	-0.219138	-0.000078
C19	C	-0.539777	-0.144570	-0.000088
C20	C	-0.585653	-0.076925	-0.000094
C21	C	-0.667637	-0.083853	-0.000088
C22	C	-0.292483	-0.120095	-0.000113
C23	C	-0.210493	-0.113172	-0.000116
C24	C	-0.200736	-0.255386	-0.000102
C25	C	-0.282722	-0.262308	-0.000091
C26	C	-0.328591	-0.194662	-0.000102
C27	C	-0.455975	-0.137487	-0.000098
C28	C	-0.412391	-0.201745	-0.000098
C29	C	-0.937448	-0.313192	-0.000087
C30	C	-0.944458	-0.400704	-0.000082
N31	N	-0.924896	-0.160275	-0.205394
C32	C	-0.991551	0.107195	-0.000109
C33	C	-0.984960	0.189421	-0.000100
C34	C	-0.910728	0.225917	-0.000089
C35	C	-0.843083	0.180182	-0.000078
C36	C	-0.849675	0.097957	-0.000080
C37	C	-0.883406	0.471336	-0.000074
C38	C	-0.876819	0.553567	-0.000073
C39	C	-1.018696	0.562801	-0.000094
C40	C	-1.025281	0.480574	-0.000102
C41	C	-0.957637	0.434846	-0.000086
N42	N	-0.903989	0.309965	-0.000082
N43	N	-0.964377	0.350800	-0.000087
C44	C	-0.973445	-0.209171	-0.250787
C45	C	-0.969351	-0.205036	-0.341595
C46	C	-0.916705	-0.152010	-0.387008
C47	C	-0.868154	-0.103109	-0.341609
C48	C	-0.872252	-0.107240	-0.250803
C49	C	-0.899026	-0.134186	-0.658590
C50	C	-0.894930	-0.130061	-0.749403
C51	C	-0.996129	-0.231988	-0.749383
C52	C	-1.000219	-0.236117	-0.658575
C53	C	-0.951671	-0.187214	-0.613183
N54	N	-0.912517	-0.147784	-0.479829
N55	N	-0.955863	-0.191436	-0.520364
N56	N	-0.943478	-0.178956	0.205204
H57	H	-0.687274	-0.286787	-0.000058
Cl58	Cl	-1.057157	-0.293461	-0.806451
Cl59	Cl	-0.837965	-0.072736	-0.601538
Cl60	Cl	-1.066374	-0.302814	-0.601490
Cl61	Cl	-0.764639	0.040469	-0.000066
H62	H	-0.852055	-0.086880	-0.786376
H63	H	-1.073768	0.600041	-0.000105
H64	H	-0.828324	0.434114	-0.000061
Cl65	Cl	-1.030385	-0.266510	-0.398657
Cl66	Cl	-0.749763	0.226062	-0.000053
H67	H	-0.825292	-0.059929	-0.378592
Cl68	Cl	-0.165093	-0.019421	-0.000148
H69	H	-0.538547	-0.274218	-0.000075
H70	H	-1.016311	-0.252355	-0.213818
H71	H	-0.832719	-0.067424	-0.213845
H72	H	-0.163381	-0.310459	-0.000096
Cl73	Cl	-0.328116	-0.356055	-0.000073
Cl74	Cl	-0.350136	-0.035053	-0.000125
H75	H	-0.704984	-0.028773	-0.000090
Cl76	Cl	-0.457793	-0.295485	-0.000089
Cl77	Cl	-0.540253	0.016819	-0.000111
H78	H	-1.040039	0.226650	-0.000109
H79	H	-0.426561	-0.076772	-0.000130
H80	H	-1.085729	0.450866	-0.000111
Cl81	Cl	-0.783491	0.599447	-0.000065
Cl82	Cl	-1.084876	0.061324	-0.000132
