data_functionalizedCrystal
_audit_creation_method	'MofGen! by Chris Wilmer'
_symmetry_space_group_name_H-M	'P1'
_symmetry_Int_Tables_number	1
_symmetry_cell_setting	triclinic
loop_
_symmetry_equiv_pos_as_xyz
  x,y,z
_cell_length_a	10.489746
_cell_length_b	10.489746
_cell_length_c	9.130313
_cell_angle_alpha	89.995172
_cell_angle_beta	89.999406
_cell_angle_gamma	84.541301
loop_
_atom_site_label
_atom_site_type_symbol
_atom_site_fract_x
_atom_site_fract_y
_atom_site_fract_z
O1	O	1.694051	0.179999	-0.121702
O2	O	1.322857	0.196885	-0.121727
O3	O	1.516897	0.002845	-0.121703
O4	O	1.500011	0.374039	-0.121726
O5	O	1.516884	0.002839	0.121896
O6	O	1.322843	0.196879	0.121872
O7	O	1.694038	0.179993	0.121897
Cu8	Cu	1.508440	0.188436	0.144127
Cu9	Cu	1.508455	0.188442	-0.143957
O10	O	1.499998	0.374033	0.121873
C11	C	1.275319	0.195605	0.000070
C12	C	1.133689	0.191785	0.000060
C13	C	0.980829	0.066062	0.000089
C14	C	1.058218	0.128916	0.120188
C15	C	1.058186	0.128951	-0.119982
C16	C	0.958728	0.247897	0.120295
C17	C	0.958692	0.247915	-0.119982
C18	C	1.036031	0.310856	0.000146
C19	C	1.515614	-0.044690	0.000096
C20	C	1.511794	-0.186319	0.000095
C21	C	1.386071	-0.339179	0.000068
C22	C	1.448934	-0.261783	-0.120031
C23	C	1.448950	-0.261830	0.120138
C24	C	1.567915	-0.361273	-0.120137
C25	C	1.567914	-0.361325	0.120140
C26	C	1.630864	-0.283978	0.000011
C27	C	1.741576	0.181273	0.000097
C28	C	1.883206	0.185093	0.000097
C29	C	1.501281	0.421568	0.000071
C30	C	1.505101	0.563197	0.000062
N31	N	1.508438	0.188430	0.346750
N32	N	1.508467	0.188438	-0.346580
C33	C	1.594388	0.102546	0.423412
C34	C	1.594400	0.102546	0.576749
C35	C	1.422508	0.274326	0.576747
C36	C	1.422490	0.274319	0.423413
H37	H	0.956107	-0.037439	0.000216
H38	H	1.282569	-0.363901	-0.000058
Cl39	Cl	0.891909	0.325419	0.277241
H40	H	1.101688	0.078665	0.221732
H41	H	1.352533	0.344257	0.639182
Cl42	Cl	1.314424	0.382290	0.327028
H43	H	1.664370	0.032608	0.360996
H44	H	0.915198	0.298121	-0.221531
Cl45	Cl	1.073824	0.470773	0.000227
Cl46	Cl	1.702454	-0.005430	0.673120
Cl47	Cl	1.371368	-0.194661	-0.276812
Cl48	Cl	1.125268	0.051343	-0.276746
H49	H	1.618135	-0.404550	-0.221788
Cl50	Cl	1.790779	-0.246176	-0.000076
H51	H	1.618112	-0.404825	0.221689
H52	H	1.398673	-0.218389	0.221674
