data_functionalizedCrystal
_audit_creation_method	'MofGen! by Chris Wilmer'
_symmetry_space_group_name_H-M	'P1'
_symmetry_Int_Tables_number	1
_symmetry_cell_setting	triclinic
loop_
_symmetry_equiv_pos_as_xyz
  x,y,z
_cell_length_a	12.594517
_cell_length_b	25.639239
_cell_length_c	12.594509
_cell_angle_alpha	89.965872
_cell_angle_beta	89.978673
_cell_angle_gamma	90.038486
loop_
_atom_site_label
_atom_site_type_symbol
_atom_site_fract_x
_atom_site_fract_y
_atom_site_fract_z
Zn1	Zn	1.627100	-0.208138	-0.601816
Zn2	Zn	1.626920	-0.295580	-0.423819
Zn3	Zn	1.449103	-0.208160	-0.423845
Zn4	Zn	1.449015	-0.295544	-0.601750
O5	O	1.538035	-0.251855	-0.512808
O6	O	1.776022	-0.219743	-0.578222
O7	O	1.603294	-0.284008	-0.274877
O8	O	1.472827	-0.134992	-0.447492
O9	O	1.775890	-0.283987	-0.447448
O10	O	1.603600	-0.134976	-0.578247
O11	O	1.472653	-0.219781	-0.274896
O12	O	1.300146	-0.219746	-0.447427
O13	O	1.472677	-0.283925	-0.750704
O14	O	1.300081	-0.283946	-0.578133
O15	O	1.603515	-0.219708	-0.750753
O16	O	1.603209	-0.368740	-0.447384
O17	O	1.472503	-0.368714	-0.578108
C18	C	1.261494	-0.251845	-0.512776
C19	C	1.143188	-0.251853	-0.512788
C20	C	1.073939	-0.216887	-0.441833
C21	C	1.003090	-0.264579	-0.415643
C22	C	1.003239	-0.204184	-0.538996
C23	C	1.073897	-0.299570	-0.486547
C24	C	1.074052	-0.239144	-0.609946
C25	C	1.003234	-0.286869	-0.583793
C26	C	1.537856	-0.387698	-0.512759
C27	C	1.537876	-0.445812	-0.512774
C28	C	1.606271	-0.806176	-0.444855
C29	C	1.606312	-0.860781	-0.444870
O30	O	1.664278	-0.889019	-0.387070
N31	N	1.538222	-0.888094	-0.512878
C32	C	1.470093	-0.860801	-0.580885
O33	O	1.412182	-0.889048	-0.638733
C34	C	1.470058	-0.806198	-0.580875
C35	C	1.538145	-0.778887	-0.512854
C36	C	1.674353	-0.778865	-0.376841
C37	C	1.674310	-0.724265	-0.376826
C38	C	1.606185	-0.696975	-0.444825
C39	C	1.538102	-0.724286	-0.512839
C40	C	1.401936	-0.778905	-0.648886
C41	C	1.401907	-0.724298	-0.648871
C42	C	1.469994	-0.696987	-0.580850
C43	C	1.469934	-0.642396	-0.580822
N44	N	1.538024	-0.615083	-0.512814
C45	C	1.606150	-0.642372	-0.444815
C46	C	1.470174	-0.975472	-0.580901
C47	C	1.470202	-1.030074	-0.580906
C48	C	1.606423	-1.030050	-0.444892
C49	C	1.606388	-0.975447	-0.444883
C50	C	1.538264	-0.948158	-0.512892
C51	C	1.606054	-0.527707	-0.444787
C52	C	1.606002	-0.473102	-0.444775
C53	C	1.469786	-0.473131	-0.580792
C54	C	1.469833	-0.527731	-0.580801
C55	C	1.537976	-0.555018	-0.512795
O56	O	1.412001	-0.614124	-0.638596
O57	O	1.664062	-0.614119	-0.386986
C58	C	1.815655	-0.251866	-0.512840
C59	C	1.933961	-0.251871	-0.512853
C60	C	1.538106	-0.251810	-0.790429
C61	C	1.538136	-0.251790	-0.908734
C62	C	1.538243	-0.115482	-0.512880
C63	C	1.538332	-0.057368	-0.512911
C64	C	1.466996	-0.286698	-0.977961
C65	C	1.564106	-0.299473	-1.048748
C66	C	1.441102	-0.238984	-1.048746
C67	C	1.635297	-0.264590	-0.977964
C68	C	1.512227	-0.204079	-0.977955
C69	C	1.609405	-0.216836	-1.048711
C70	C	1.538025	-0.251863	-0.236267
C71	C	1.538201	-0.251736	-0.117962
H72	H	0.972144	-0.163870	-0.561099
O73	O	1.111151	-0.226352	-0.707982
C74	C	1.073588	-0.262770	-0.782951
H75	H	0.998463	-0.282160	-0.751357
H76	H	1.054997	-0.241890	-0.860685
H77	H	1.136928	-0.293706	-0.797432
O78	O	1.672247	-0.446653	-0.378664
C79	C	1.732366	-0.482453	-0.318636
H80	H	1.736054	-0.521358	-0.362251
H81	H	1.816223	-0.466639	-0.307354
H82	H	1.693438	-0.488311	-0.237765
O83	O	1.343146	-0.226175	-1.085893
C84	C	1.303702	-0.267228	-1.149045
H85	H	1.344848	-0.305169	-1.125995
H86	H	1.214520	-0.271307	-1.135903
H87	H	1.319841	-0.258406	-1.236303
O88	O	1.672790	-1.056569	-0.379032
C89	C	1.741494	-1.088081	-0.439775
H90	H	1.747899	-1.071589	-0.523612
H91	H	1.823468	-1.088643	-0.401439
H92	H	1.708672	-1.129491	-0.443391
O93	O	1.110933	-0.181703	-0.370022
C94	C	1.074746	-0.195304	-0.267729
H95	H	1.054849	-0.238673	-0.265565
H96	H	1.139449	-0.186539	-0.207020
H97	H	1.000680	-0.171698	-0.247885
H98	H	1.414316	-0.450903	-0.636153
O99	O	1.733264	-0.277617	-0.941165
C100	C	1.760598	-0.327747	-0.978092
H101	H	1.713136	-0.336954	-1.052830
H102	H	1.849062	-0.328956	-0.997125
H103	H	1.741703	-0.357865	-0.914183
H104	H	1.586055	-0.339798	-1.079845
H105	H	1.490250	-0.163765	-0.946835
O106	O	1.681199	-0.181591	-1.085719
C107	C	1.679861	-0.181651	-1.197659
H108	H	1.600217	-0.197196	-1.226794
H109	H	1.691809	-0.140182	-1.228125
H110	H	1.746474	-0.207622	-1.228576
H111	H	0.971923	-0.275340	-0.333507
H112	H	0.972385	-0.316480	-0.643825
O113	O	1.110940	-0.347649	-0.459989
C114	C	1.222882	-0.347057	-0.460259
H115	H	1.252218	-0.305383	-0.448563
H116	H	1.253723	-0.372680	-0.393016
H117	H	1.253226	-0.362629	-0.539415
H118	H	1.661544	-0.549918	-0.389413
H119	H	1.414749	-1.052306	-0.636285
O120	O	1.740562	-0.697820	-0.310728
C121	C	1.800677	-0.733624	-0.250707
H122	H	1.804345	-0.772529	-0.294321
H123	H	1.884541	-0.717818	-0.239436
H124	H	1.761758	-0.739478	-0.169830
H125	H	1.729835	-0.801079	-0.321468
H126	H	1.406882	-0.316264	-0.946897
O127	O	1.672631	-0.949000	-0.378778
C128	C	1.732739	-0.984802	-0.318744
H129	H	1.736419	-1.023708	-0.362356
H130	H	1.816599	-0.968993	-0.307460
H131	H	1.693806	-0.990656	-0.237874
H132	H	1.414690	-0.953256	-0.636280
H133	H	1.346487	-0.801133	-0.704271
H134	H	1.414395	-0.549969	-0.636192
O135	O	1.335632	-0.697872	-0.714975
C136	C	1.275574	-0.733691	-0.775028
H137	H	1.271938	-0.772630	-0.731433
H138	H	1.191695	-0.717955	-0.786315
H139	H	1.314522	-0.739452	-0.855897
