data_functionalizedCrystal
_audit_creation_method	'MofGen! by Chris Wilmer'
_symmetry_space_group_name_H-M	'P1'
_symmetry_Int_Tables_number	1
_symmetry_cell_setting	triclinic
loop_
_symmetry_equiv_pos_as_xyz
  x,y,z
_cell_length_a	16.625548
_cell_length_b	19.121063
_cell_length_c	19.121226
_cell_angle_alpha	90.121486
_cell_angle_beta	87.565351
_cell_angle_gamma	92.470058
loop_
_atom_site_label
_atom_site_type_symbol
_atom_site_fract_x
_atom_site_fract_y
_atom_site_fract_z
Zn1	Zn	1.199700	-0.262290	0.408296
Zn2	Zn	1.449700	-0.012290	0.658296
Zn3	Zn	1.699700	0.237710	0.908296
Zn4	Zn	1.949700	0.487710	1.158296
Zn5	Zn	1.199133	-0.384504	0.296052
Zn6	Zn	1.449133	-0.134504	0.546052
Zn7	Zn	1.699133	0.115496	0.796052
Zn8	Zn	1.949133	0.365496	1.046052
Zn9	Zn	1.070390	-0.267284	0.291072
Zn10	Zn	1.320390	-0.017284	0.541072
Zn11	Zn	1.570390	0.232716	0.791072
Zn12	Zn	1.820390	0.482716	1.041072
Zn13	Zn	1.058836	-0.379497	0.413249
Zn14	Zn	1.308836	-0.129497	0.663249
Zn15	Zn	1.558836	0.120503	0.913249
Zn16	Zn	1.808836	0.370503	1.163249
O17	O	1.132015	-0.323394	0.352167
O18	O	1.382015	-0.073394	0.602167
O19	O	1.632015	0.176606	0.852167
O20	O	1.882015	0.426606	1.102167
O21	O	1.312456	-0.278507	0.393417
O22	O	1.562456	-0.028507	0.643417
O23	O	1.812456	0.221493	0.893417
O24	O	2.062456	0.471493	1.143417
O25	O	1.186653	-0.373140	0.197285
O26	O	1.436653	-0.123140	0.447285
O27	O	1.686653	0.126860	0.697285
O28	O	1.936653	0.376860	0.947285
O29	O	1.092616	-0.168513	0.302465
O30	O	1.342616	0.081487	0.552465
O31	O	1.592616	0.331487	0.802465
O32	O	1.842616	0.581487	1.052465
O33	O	1.312040	-0.368297	0.310952
O34	O	1.562040	-0.118297	0.560952
O35	O	1.812040	0.131703	0.810952
O36	O	2.062040	0.381703	1.060952
O37	O	1.187619	-0.164844	0.388589
O38	O	1.437619	0.085156	0.638589
O39	O	1.687619	0.335156	0.888589
O40	O	1.937619	0.585156	1.138589
O41	O	1.092066	-0.287019	0.193626
O42	O	1.342066	-0.037019	0.443626
O43	O	1.592066	0.212981	0.693626
O44	O	1.842066	0.462981	0.943626
O45	O	0.956026	-0.282164	0.307268
O46	O	1.206026	-0.032164	0.557268
O47	O	1.456026	0.217836	0.807268
O48	O	1.706026	0.467836	1.057268
O49	O	1.072924	-0.359763	0.510698
O50	O	1.322924	-0.109763	0.760698
O51	O	1.572924	0.140237	1.010698
O52	O	1.822924	0.390237	1.260698
O53	O	0.947537	-0.364606	0.397031
O54	O	1.197537	-0.114606	0.647031
O55	O	1.447537	0.135394	0.897031
O56	O	1.697537	0.385394	1.147031
O57	O	1.176416	-0.273652	0.507059
O58	O	1.426416	-0.023652	0.757059
O59	O	1.676416	0.226348	1.007059
O60	O	1.926416	0.476348	1.257059
O61	O	1.175450	-0.481948	0.315755
O62	O	1.425450	-0.231948	0.565755
O63	O	1.675450	0.018052	0.815755
O64	O	1.925450	0.268052	1.065755
O65	O	1.072374	-0.478269	0.401860
O66	O	1.322374	-0.228269	0.651860
O67	O	1.572374	0.021731	0.901860
O68	O	1.822374	0.271731	1.151860
C69	C	0.922525	-0.323384	0.352147
C70	C	1.172525	-0.073384	0.602147
C71	C	1.422525	0.176616	0.852147
C72	C	1.672525	0.426616	1.102147
C73	C	0.832903	-0.323397	0.352156
C74	C	1.082903	-0.073397	0.602156
C75	C	1.332903	0.176603	0.852156
C76	C	1.582903	0.426603	1.102156
C77	C	1.122618	-0.505547	0.359901
C78	C	1.372618	-0.255547	0.609901
C79	C	1.622618	-0.005547	0.859901
C80	C	1.872618	0.244453	1.109901
C81	C	1.118671	-0.583471	0.363233
C82	C	1.368671	-0.333471	0.613233
C83	C	1.618671	-0.083471	0.863233
C84	C	1.868671	0.166529	1.113233
C85	C	0.504726	-0.323400	0.352186
C86	C	0.754726	-0.073400	0.602186
C87	C	1.004726	0.176600	0.852186
C88	C	1.254726	0.426600	1.102186
C89	C	0.596035	-0.323397	0.352175
C90	C	0.846035	-0.073397	0.602175
C91	C	1.096035	0.176603	0.852175
C92	C	1.346035	0.426603	1.102175
C93	C	0.668812	-0.323399	0.352170
C94	C	0.918812	-0.073399	0.602170
C95	C	1.168812	0.176601	0.852170
C96	C	1.418812	0.426601	1.102170
C97	C	0.760127	-0.323395	0.352161
C98	C	1.010127	-0.073395	0.602161
C99	C	1.260127	0.176605	0.852161
C100	C	1.510127	0.426605	1.102161
C101	C	1.170521	-0.621971	0.320005
C102	C	1.420521	-0.371971	0.570005
C103	C	1.670521	-0.121971	0.820005
C104	C	1.920521	0.128029	1.070005
C105	C	1.166813	-0.695189	0.323143
C106	C	1.416813	-0.445189	0.573143
C107	C	1.666813	-0.195189	0.823143
C108	C	1.916813	0.054811	1.073143
C109	C	1.111251	-0.729907	0.369505
C110	C	1.361251	-0.479907	0.619505
C111	C	1.611251	-0.229907	0.869505
C112	C	1.861251	0.020093	1.119505
C113	C	1.059399	-0.691402	0.412737
C114	C	1.309399	-0.441402	0.662737
C115	C	1.559399	-0.191402	0.912737
C116	C	1.809399	0.058598	1.162737
C117	C	1.063111	-0.618185	0.409603
C118	C	1.313111	-0.368185	0.659603
C119	C	1.563111	-0.118185	0.909603
C120	C	1.813111	0.131815	1.159603
C121	C	1.097359	-0.950880	0.381214
C122	C	1.347359	-0.700880	0.631214
C123	C	1.597359	-0.450880	0.881214
C124	C	1.847359	-0.200880	1.131214
C125	C	1.093649	-1.024103	0.384344
C126	C	1.343649	-0.774103	0.634344
C127	C	1.593649	-0.524103	0.884344
C128	C	1.843649	-0.274103	1.134344
C129	C	1.201064	-1.027885	0.294750
C130	C	1.451064	-0.777885	0.544750
C131	C	1.701064	-0.527885	0.794750
C132	C	1.951064	-0.277885	1.044750
C133	C	1.204768	-0.954667	0.291617
C134	C	1.454768	-0.704667	0.541617
C135	C	1.704768	-0.454667	0.791617
C136	C	1.954768	-0.204667	1.041617
C137	C	1.152919	-0.916168	0.334851
C138	C	1.402919	-0.666168	0.584851
C139	C	1.652919	-0.416168	0.834851
C140	C	1.902919	-0.166168	1.084851
C141	C	1.107458	-0.804748	0.372712
C142	C	1.357458	-0.554748	0.622712
C143	C	1.607458	-0.304748	0.872712
C144	C	1.857458	-0.054748	1.122712
C145	C	1.156717	-0.841328	0.331648
C146	C	1.406717	-0.591328	0.581648
C147	C	1.656717	-0.341328	0.831648
C148	C	1.906717	-0.091328	1.081648
C149	C	1.342322	-0.323403	0.352188
C150	C	1.592322	-0.073403	0.602188
C151	C	1.842322	0.176597	0.852188
C152	C	2.092322	0.426597	1.102188
C153	C	1.431943	-0.323407	0.352196
C154	C	1.681943	-0.073407	0.602196
C155	C	1.931943	0.176593	0.852196
C156	C	2.181943	0.426593	1.102196
C157	C	1.123444	-0.315592	0.535028
C158	C	1.373444	-0.065592	0.785028
C159	C	1.623444	0.184408	1.035028
C160	C	1.873444	0.434408	1.285028
C161	C	1.119792	-0.312267	0.612952
C162	C	1.369792	-0.062267	0.862952
C163	C	1.619792	0.187733	1.112952
C164	C	1.869792	0.437733	1.362952
C165	C	1.141469	-0.140529	0.344419
C166	C	1.391469	0.109471	0.594419
C167	C	1.641469	0.359471	0.844419
C168	C	1.891469	0.609471	1.094419
C169	C	1.145498	-0.062603	0.341117
C170	C	1.395498	0.187397	0.591117
C171	C	1.645498	0.437397	0.841117
C172	C	1.895498	0.687397	1.091117
C173	C	1.096669	-0.291221	1.053582
C174	C	1.346669	-0.041221	1.303582
C175	C	1.596669	0.208779	1.553582
C176	C	1.846669	0.458779	1.803582
C177	C	1.100105	-0.294342	0.980363
C178	C	1.350105	-0.044342	1.230363
C179	C	1.600105	0.205658	1.480363
C180	C	1.850105	0.455658	1.730363
C181	C	1.151064	-0.340745	0.945658
C182	C	1.401064	-0.090745	1.195658
C183	C	1.651064	0.159255	1.445658
C184	C	1.901064	0.409255	1.695658
C185	C	1.198598	-0.384024	0.984176
C186	C	1.448598	-0.134024	1.234176
C187	C	1.698598	0.115976	1.484176
C188	C	1.948598	0.365976	1.734176
C189	C	1.195166	-0.380899	1.057392
C190	C	1.445166	-0.130899	1.307392
C191	C	1.695166	0.119101	1.557392
C192	C	1.945166	0.369101	1.807392
C193	C	1.163894	-0.352421	0.724686
C194	C	1.413894	-0.102421	0.974686
C195	C	1.663894	0.147579	1.224686
C196	C	1.913894	0.397579	1.474686
C197	C	1.167320	-0.355545	0.651464
C198	C	1.417320	-0.105545	0.901464
C199	C	1.667320	0.144455	1.151464
C200	C	1.917320	0.394455	1.401464
C201	C	1.068828	-0.265861	0.647657
C202	C	1.318828	-0.015861	0.897657
C203	C	1.568828	0.234139	1.147657
C204	C	1.818828	0.484139	1.397657
C205	C	1.065397	-0.262743	0.720875
C206	C	1.315397	-0.012743	0.970875
C207	C	1.565397	0.237257	1.220875
C208	C	1.815397	0.487257	1.470875
C209	C	1.112933	-0.306020	0.759386
C210	C	1.362933	-0.056020	1.009386
C211	C	1.612933	0.193980	1.259386
C212	C	1.862933	0.443980	1.509386
C213	C	1.154575	-0.343938	0.870818
C214	C	1.404575	-0.093938	1.120818
C215	C	1.654575	0.156062	1.370818
C216	C	1.904575	0.406062	1.620818
C217	C	1.109426	-0.302823	0.834225
C218	C	1.359426	-0.052823	1.084225
C219	C	1.609426	0.197177	1.334225
C220	C	1.859426	0.447177	1.584225
C221	C	1.140545	-0.331179	1.170018
C222	C	1.390545	-0.081179	1.420018
C223	C	1.640545	0.168821	1.670018
C224	C	1.890545	0.418821	1.920018
C225	C	1.144197	-0.334498	1.092094
C226	C	1.394197	-0.084498	1.342094
C227	C	1.644197	0.165502	1.592094
C228	C	1.894197	0.415502	1.842094
H229	H	1.215762	-0.593709	0.282249
H230	H	1.465762	-0.343709	0.532249
H231	H	1.715762	-0.093709	0.782249
H232	H	1.965762	0.156291	1.032249
H233	H	1.055139	-0.919541	0.416416
H234	H	1.305139	-0.669541	0.666416
H235	H	1.555139	-0.419541	0.916416
H236	H	1.805139	-0.169541	1.166416
H237	H	1.014162	-0.719674	0.450490
H238	H	1.264162	-0.469674	0.700490
H239	H	1.514162	-0.219674	0.950490
H240	H	1.764162	0.030326	1.200490
O241	O	1.033707	-1.061547	0.434346
O242	O	1.283707	-0.811547	0.684346
O243	O	1.533707	-0.561547	0.934346
O244	O	1.783707	-0.311547	1.184346
H245	H	1.039828	-1.118928	0.429250
H246	H	1.289828	-0.868928	0.679250
H247	H	1.539828	-0.618928	0.929250
H248	H	1.789828	-0.368928	1.179250
H249	H	1.196065	-0.381721	0.842553
H250	H	1.446065	-0.131721	1.092553
H251	H	1.696065	0.118279	1.342553
H252	H	1.946065	0.368279	1.592553
H253	H	1.233869	-0.416139	1.088748
H254	H	1.483869	-0.166139	1.338748
H255	H	1.733869	0.083861	1.588748
H256	H	1.983869	0.333861	1.838748
O257	O	1.222294	-0.405590	0.614030
O258	O	1.472294	-0.155590	0.864030
O259	O	1.722294	0.094410	1.114030
O260	O	1.972294	0.344410	1.364030
H261	H	1.204970	-0.460015	0.630417
H262	H	1.454970	-0.210015	0.880417
H263	H	1.704970	0.039985	1.130417
H264	H	1.954970	0.289985	1.380417
O265	O	1.007179	-0.576663	0.456226
O266	O	1.257179	-0.326663	0.706226
O267	O	1.507179	-0.076663	0.956226
O268	O	1.757179	0.173337	1.206226
H269	H	1.043252	-0.541746	0.490500
H270	H	1.293252	-0.291746	0.740500
H271	H	1.543252	-0.041746	0.990500
H272	H	1.793252	0.208254	1.240500
O273	O	1.222731	-0.736717	0.276515
O274	O	1.472731	-0.486717	0.526515
O275	O	1.722731	-0.236717	0.776515
O276	O	1.972731	0.013283	1.026515
H277	H	1.261982	-0.700275	0.243743
H278	H	1.511982	-0.450275	0.493743
H279	H	1.761982	-0.200275	0.743743
H280	H	2.011982	0.049725	0.993743
H281	H	1.243278	-1.059239	0.259552
H282	H	1.493278	-0.809239	0.509552
H283	H	1.743278	-0.559239	0.759552
H284	H	1.993278	-0.309239	1.009552
H285	H	1.055170	-0.253436	1.081833
H286	H	1.305170	-0.003436	1.331833
H287	H	1.555170	0.246564	1.581833
H288	H	1.805170	0.496564	1.831833
H289	H	1.250012	-0.926401	0.253865
H290	H	1.500012	-0.676401	0.503865
H291	H	1.750012	-0.426401	0.753865
H292	H	2.000012	-0.176401	1.003865
H293	H	1.201959	-0.813059	0.293902
H294	H	1.451959	-0.563059	0.543902
H295	H	1.701959	-0.313059	0.793902
H296	H	1.951959	-0.063059	1.043902
H297	H	1.062217	-0.833023	0.410459
H298	H	1.312217	-0.583023	0.660459
H299	H	1.562217	-0.333023	0.910459
H300	H	1.812217	-0.083023	1.160459
H301	H	1.061401	-0.259102	0.949010
H302	H	1.311401	-0.009102	1.199010
H303	H	1.561401	0.240898	1.449010
H304	H	1.811401	0.490898	1.699010
H305	H	1.202599	-0.387662	0.756033
H306	H	1.452599	-0.137662	1.006033
H307	H	1.702599	0.112338	1.256033
H308	H	1.952599	0.362338	1.506033
O309	O	1.010441	-0.212688	0.758308
O310	O	1.260441	0.037312	1.008308
O311	O	1.510441	0.287312	1.258308
O312	O	1.760441	0.537312	1.508308
H313	H	0.977975	-0.183113	0.719226
H314	H	1.227975	0.066887	0.969226
H315	H	1.477975	0.316887	1.219226
H316	H	1.727975	0.566887	1.469226
O317	O	1.253563	-0.434076	0.946749
O318	O	1.503563	-0.184076	1.196749
O319	O	1.753563	0.065924	1.446749
O320	O	2.003563	0.315924	1.696749
H321	H	1.247959	-0.428985	0.889367
H322	H	1.497959	-0.178985	1.139367
H323	H	1.747959	0.071015	1.389367
H324	H	1.997959	0.321015	1.639367
O325	O	1.017568	-0.219177	0.606122
O326	O	1.267568	0.030823	0.856122
O327	O	1.517568	0.280823	1.106122
O328	O	1.767568	0.530823	1.356122
H329	H	1.028520	-0.229138	0.549379
H330	H	1.278520	0.020862	0.799379
H331	H	1.528520	0.270862	1.049379
H332	H	1.778520	0.520862	1.299379
O333	O	1.054477	-0.252766	0.871657
O334	O	1.304477	-0.002766	1.121657
O335	O	1.554477	0.247234	1.371657
O336	O	1.804477	0.497234	1.621657
H337	H	1.010267	-0.282714	0.906343
H338	H	1.260267	-0.032714	1.156343
H339	H	1.510267	0.217286	1.406343
H340	H	1.760267	0.467286	1.656343
