data_functionalizedCrystal
_audit_creation_method	'MofGen! by Chris Wilmer'
_symmetry_space_group_name_H-M	'P1'
_symmetry_Int_Tables_number	1
_symmetry_cell_setting	triclinic
loop_
_symmetry_equiv_pos_as_xyz
  x,y,z
_cell_length_a	10.685980
_cell_length_b	16.120444
_cell_length_c	10.686551
_cell_angle_alpha	88.708632
_cell_angle_beta	81.591741
_cell_angle_gamma	97.501748
loop_
_atom_site_label
_atom_site_type_symbol
_atom_site_fract_x
_atom_site_fract_y
_atom_site_fract_z
Zn1	Zn	1.982410	-0.186868	-0.879994
Zn2	Zn	2.482410	0.313132	-0.379994
Zn3	Zn	1.955174	-0.337904	-0.678472
Zn4	Zn	2.455174	0.162096	-0.178472
Zn5	Zn	1.752175	-0.210072	-0.653109
Zn6	Zn	2.252175	0.289928	-0.153109
Zn7	Zn	1.759303	-0.337823	-0.874377
Zn8	Zn	2.259303	0.162177	-0.374377
O9	O	1.862265	-0.268167	-0.771488
O10	O	2.362265	0.231833	-0.271488
O11	O	2.157123	-0.197226	-0.866227
O12	O	2.657123	0.302774	-0.366227
O13	O	1.913864	-0.330691	-0.498169
O14	O	2.413864	0.169309	0.001831
O15	O	1.791132	-0.090322	-0.674942
O16	O	2.291132	0.409678	-0.174942
O17	O	2.137113	-0.308191	-0.718170
O18	O	2.637113	0.191809	-0.218170
O19	O	1.960284	-0.073274	-0.841633
O20	O	2.460284	0.426726	-0.341633
O21	O	1.764722	-0.236774	-0.479534
O22	O	2.264722	0.263226	0.020466
O23	O	1.574794	-0.236696	-0.669495
O24	O	2.074794	0.263304	-0.169495
O25	O	1.803280	-0.308053	-1.052061
O26	O	2.303280	0.191947	-0.552061
O27	O	1.580031	-0.330553	-0.832060
O28	O	2.080031	0.169447	-0.332060
O29	O	1.967195	-0.197148	-1.056188
O30	O	2.467195	0.302852	-0.556188
O31	O	1.920776	-0.454566	-0.712723
O32	O	2.420776	0.045434	-0.212723
O33	O	1.776871	-0.454506	-0.856654
O34	O	2.276871	0.045494	-0.356654
C35	C	1.531175	-0.286134	-0.747416
C36	C	2.031175	0.213866	-0.247416
C37	C	1.389534	-0.293839	-0.737150
C38	C	1.889534	0.206161	-0.237150
C39	C	1.846678	-0.484784	-0.786861
C40	C	2.346678	0.015216	-0.286861
C41	C	1.840130	-0.577446	-0.793489
C42	C	2.340130	-0.077446	-0.293489
C43	C	1.896569	-0.788377	-0.737402
C44	C	2.396569	-0.288377	-0.237402
C45	C	1.828199	-0.747091	-0.805604
C46	C	2.328199	-0.247091	-0.305604
C47	C	1.834839	-0.652692	-0.798861
C48	C	2.334839	-0.152692	-0.298861
C49	C	1.889930	-0.882785	-0.744144
C50	C	2.389930	-0.382785	-0.244144
C51	C	2.194649	-0.250129	-0.795655
C52	C	2.694649	0.249871	-0.295655
C53	C	2.336291	-0.242443	-0.805953
C54	C	2.836291	0.257557	-0.305953
C55	C	1.889071	-0.250003	-1.101286
C56	C	2.389071	0.249997	-0.601286
C57	C	1.900494	-0.242263	-1.241826
C58	C	2.400494	0.257737	-0.741826
C59	C	1.877951	-0.050700	-0.756085
C60	C	2.377951	0.449300	-0.256085
C61	C	1.884635	0.041972	-0.749521
C62	C	2.384635	0.541972	-0.249521
C63	C	1.835642	-0.286196	-0.442975
C64	C	2.335642	0.213804	0.057025
C65	C	1.824483	-0.293688	-0.302436
C66	C	2.324483	0.206312	0.197564
H67	H	1.399067	-0.192541	-0.872710
H68	H	1.899067	0.307459	-0.372710
F69	F	1.728003	-0.358979	-1.229733
F70	F	2.228003	0.141021	-0.729733
F71	F	1.996991	-0.176975	-1.314536
F72	F	2.496991	0.323025	-0.814536
H73	H	1.326751	-0.343740	-0.670380
H74	H	1.826751	0.156260	-0.170380
H75	H	1.764678	-0.782642	-0.869057
H76	H	2.264678	-0.282642	-0.369057
H77	H	1.960084	-0.752830	-0.673952
H78	H	2.460084	-0.252830	-0.173952
