data_functionalizedCrystal
_audit_creation_method	'MofGen! by Chris Wilmer'
_symmetry_space_group_name_H-M	'P1'
_symmetry_Int_Tables_number	1
_symmetry_cell_setting	triclinic
loop_
_symmetry_equiv_pos_as_xyz
  x,y,z
_cell_length_a	23.532361
_cell_length_b	23.532407
_cell_length_c	22.010155
_cell_angle_alpha	90.000423
_cell_angle_beta	89.995873
_cell_angle_gamma	97.160827
loop_
_atom_site_label
_atom_site_type_symbol
_atom_site_fract_x
_atom_site_fract_y
_atom_site_fract_z
O1	O	0.755281	-0.069001	-0.050470
O2	O	0.589414	-0.079032	-0.050486
O3	O	0.677349	0.008916	-0.050466
O4	O	0.667346	-0.156949	-0.050490
O5	O	0.677333	0.008903	0.050584
O6	O	0.589398	-0.079045	0.050565
O7	O	0.755265	-0.069014	0.050580
Cu8	Cu	0.672330	-0.074030	0.059799
Cu9	Cu	0.672349	-0.074015	-0.059705
O10	O	0.667330	-0.156962	0.050561
C11	C	0.568189	-0.078787	0.000038
C12	C	0.504971	-0.078032	0.000032
C13	C	0.231736	-0.074721	-0.055046
C14	C	0.291136	-0.075436	-0.055048
O15	O	0.321869	-0.075780	-0.101892
N16	N	0.320832	-0.075804	0.000035
C17	C	0.291127	-0.075452	0.055123
O18	O	0.321841	-0.075830	0.101975
C19	C	0.231729	-0.074733	0.055124
C20	C	0.202035	-0.074370	0.000037
C21	C	0.202041	-0.074358	-0.110128
C22	C	0.142645	-0.073644	-0.110126
C23	C	0.112944	-0.073293	-0.055043
C24	C	0.142639	-0.073657	0.000039
C25	C	0.202026	-0.074376	0.110211
C26	C	0.142624	-0.073657	0.110207
C27	C	0.112929	-0.073294	0.055121
C28	C	0.053542	-0.072592	0.055125
N29	N	0.023845	-0.072224	0.000042
C30	C	0.053546	-0.072574	-0.055042
C31	C	0.415868	-0.076961	0.055117
C32	C	0.475264	-0.077684	0.055116
C33	C	0.475268	-0.077667	-0.055055
C34	C	0.415870	-0.076948	-0.055054
C35	C	0.386171	-0.076593	0.000034
C36	C	-0.071190	-0.071076	-0.055034
C37	C	-0.130591	-0.070364	-0.055027
C38	C	-0.130589	-0.070378	0.055144
C39	C	-0.071194	-0.071093	0.055137
C40	C	-0.041495	-0.071440	0.000044
O41	O	0.022771	-0.072245	0.101945
O42	O	0.022826	-0.072188	-0.101886
C43	C	0.677086	0.030126	0.000060
C44	C	0.676320	0.093343	0.000065
C45	C	0.776489	-0.069258	0.000055
C46	C	0.839708	-0.070014	0.000057
C47	C	0.667592	-0.178171	0.000033
C48	C	0.668358	-0.241388	0.000024
N49	N	0.672321	-0.074041	0.143851
C50	C	0.723555	0.492454	0.000036
C51	C	0.722844	0.551854	0.000031
O52	O	0.766630	0.588606	0.000013
N53	N	0.670566	0.574471	0.000027
C54	C	0.618997	0.537685	0.000021
O55	O	0.574465	0.562377	0.000016
C56	C	0.619709	0.478286	0.000021
C57	C	0.671990	0.455672	0.000032
C58	C	0.775832	0.469839	0.000046
C59	C	0.776543	0.410443	0.000052
C60	C	0.724977	0.373662	0.000048
C61	C	0.672701	0.396276	0.000038
C62	C	0.568140	0.441501	0.000011
C63	C	0.568857	0.382099	0.000011
C64	C	0.621137	0.359485	0.000021
C65	C	0.621847	0.300099	0.000039
N66	N	0.674124	0.277481	0.000044
C67	C	0.725690	0.314263	0.000048
C68	C	0.617505	0.662427	0.000019
C69	C	0.616793	0.721825	0.000023
C70	C	0.720640	0.735990	0.000032
C71	C	0.721352	0.676591	0.000033
C72	C	0.669783	0.639810	0.000024
C73	C	0.727179	0.189526	0.000061
C74	C	0.727886	0.130124	0.000069
C75	C	0.624039	0.115965	0.000057
C76	C	0.623332	0.175361	0.000051
C77	C	0.674907	0.212141	0.000051
O78	O	0.578083	0.263312	0.000055
O79	O	0.770214	0.289562	0.000045
N80	N	0.672362	-0.074000	-0.143757
C81	C	0.711289	-0.035077	0.563639
C82	C	0.711291	-0.035073	0.627247
O83	O	0.744400	-0.001952	0.660146
N84	N	0.672349	-0.074003	0.659059
C85	C	0.633397	-0.112935	0.627259
O86	O	0.600272	-0.146048	0.660158
C87	C	0.633392	-0.112936	0.563653
C88	C	0.672341	-0.074008	0.531845
C89	C	0.750235	0.003849	0.531831
C90	C	0.750232	0.003844	0.468228
C91	C	0.711285	-0.035087	0.436433
C92	C	0.672339	-0.074012	0.468241
C93	C	0.594437	-0.151866	0.531855
C94	C	0.594436	-0.151863	0.468244
C95	C	0.633385	-0.112934	0.436436
C96	C	0.633389	-0.112948	0.372843
N97	N	0.672332	-0.074018	0.341032
C98	C	0.711280	-0.035087	0.372827
C99	C	0.633409	-0.112930	0.760837
C100	C	0.633416	-0.112933	0.824442
C101	C	0.711311	-0.035069	0.824426
C102	C	0.711306	-0.035070	0.760819
C103	C	0.672352	-0.074000	0.729025
C104	C	0.711273	-0.035101	0.239255
C105	C	0.711269	-0.035110	0.175646
C106	C	0.633373	-0.112971	0.175669
C107	C	0.633378	-0.112964	0.239272
C108	C	0.672331	-0.074024	0.271064
O109	O	0.600295	-0.146051	0.339904
O110	O	0.744393	-0.001976	0.339920
H111	H	0.391689	-0.076679	0.099978
H112	H	0.580761	0.193774	0.000060
H113	H	-0.154766	-0.070071	-0.099887
C114	C	0.514784	0.654402	0.000020
C115	C	0.560815	0.622000	0.000021
H116	H	0.479787	0.629445	0.000024
H117	H	0.516673	0.677861	-0.035217
H118	H	0.516671	0.677868	0.035260
H119	H	0.558930	0.598537	-0.035221
H120	H	0.558925	0.598530	0.035262
H121	H	0.769176	0.219466	0.000058
C122	C	0.879116	0.430429	0.000054
C123	C	0.834012	0.385591	0.000055
H124	H	0.914597	0.415088	0.000051
H125	H	0.876672	0.453299	0.035290
H126	H	0.876673	0.453302	-0.035187
H127	H	0.836453	0.362721	0.035299
H128	H	0.836458	0.362711	-0.035185
H129	H	0.525567	0.459902	-0.000001
C130	C	0.051571	-0.072560	0.159138
C131	C	0.109978	-0.073266	0.170762
H132	H	0.031419	-0.072316	0.196522
H133	H	0.037306	-0.105655	0.136508
H134	H	0.046376	-0.039223	0.136507
H135	H	0.115173	-0.106605	0.193389
H136	H	0.124248	-0.040168	0.193402
C137	C	0.788851	-0.022253	0.689234
C138	C	0.754081	0.007742	0.725838
H139	H	0.815250	0.004186	0.667637
H140	H	0.765653	-0.045448	0.661209
H141	H	0.809236	-0.045833	0.714034
H142	H	0.733692	0.031319	0.701037
H143	H	0.777282	0.030947	0.753865
H144	H	0.601663	-0.144670	0.149771
C145	C	-0.077170	-0.071001	-0.163933
C146	C	-0.038552	-0.071466	-0.115593
H147	H	-0.057021	-0.071249	-0.201319
H148	H	-0.095800	-0.037506	-0.161637
H149	H	-0.104874	-0.103938	-0.161632
H150	H	-0.010850	-0.038526	-0.117892
H151	H	-0.019912	-0.104963	-0.117890
C152	C	0.556421	-0.189902	0.767253
C153	C	0.590595	-0.155734	0.725892
H154	H	0.529992	-0.216329	0.745680
H155	H	0.536073	-0.166301	0.792061
H156	H	0.580022	-0.210257	0.792060
H157	H	0.566994	-0.135376	0.701087
H158	H	0.610944	-0.179339	0.701073
H159	H	0.817825	0.499782	0.000047
H160	H	0.391697	-0.076653	-0.099910
C161	C	0.535761	0.085593	-0.051906
C162	C	0.567360	0.075527	0.000048
H163	H	0.500768	0.060629	-0.051912
H164	H	0.557223	0.078771	-0.087132
H165	H	0.527854	0.124205	-0.051901
H166	H	0.575271	0.036916	0.000041
H167	H	0.545893	0.082345	0.035283
H168	H	-0.047017	-0.071399	0.099993
H169	H	0.742990	-0.003391	0.265133
C170	C	0.788934	0.071554	0.052028
C171	C	0.785357	0.105269	0.000078
H172	H	0.824415	0.056215	0.052034
H173	H	0.758331	0.041147	0.052024
H174	H	0.786491	0.094440	0.087260
H175	H	0.787796	0.082382	-0.035154
H176	H	0.815969	0.135680	0.000077
C177	C	0.566330	-0.078750	-0.103967
C178	C	0.507925	-0.078046	-0.115605
H179	H	0.586491	-0.078981	-0.141347
H180	H	0.571524	-0.112085	-0.081345
H181	H	0.580588	-0.045653	-0.081324
H182	H	0.493666	-0.111145	-0.138244
H183	H	0.502728	-0.044707	-0.138237
C184	C	0.782409	0.618016	-0.051908
C185	C	0.778819	0.651734	0.000038
H186	H	0.817887	0.602670	-0.051902
H187	H	0.779978	0.640896	-0.087139
H188	H	0.751800	0.587607	-0.051905
H189	H	0.809425	0.682145	0.000033
H190	H	0.781254	0.628853	0.035278
C191	C	-0.142206	-0.021202	0.149048
C192	C	-0.163244	-0.069990	0.115690
H193	H	-0.162365	-0.020962	0.186429
H194	H	-0.147405	0.012126	0.126415
H195	H	-0.102582	-0.021687	0.156933
H196	H	-0.202868	-0.069502	0.107802
H197	H	-0.158050	-0.103327	0.138328
H198	H	0.526862	0.352154	0.000003
H199	H	0.762627	0.765949	0.000033
H200	H	0.743023	-0.003369	0.850325
C201	C	0.051599	-0.072538	-0.159058
C202	C	0.110010	-0.073241	-0.170679
H203	H	0.031455	-0.072292	-0.196444
H204	H	0.046398	-0.039211	-0.136424
H205	H	0.037330	-0.105643	-0.136433
H206	H	0.124280	-0.040134	-0.193301
H207	H	0.115215	-0.106571	-0.193323
H208	H	0.781951	0.035553	0.557713
C209	C	0.827219	0.080812	0.474620
C210	C	0.793041	0.046643	0.433270
H211	H	0.853644	0.107239	0.453040
H212	H	0.847570	0.057212	0.499423
H213	H	0.803621	0.101167	0.499435
H214	H	0.816639	0.026285	0.408458
H215	H	0.772688	0.070246	0.408457
H216	H	0.226218	-0.074642	-0.154986
C217	C	0.517435	-0.228817	0.525455
C218	C	0.551620	-0.194655	0.566807
H219	H	0.490997	-0.255232	0.547033
H220	H	0.541023	-0.249179	0.500647
H221	H	0.497093	-0.205205	0.500646
H222	H	0.571965	-0.218266	0.591613
H223	H	0.528028	-0.174291	0.591625
H224	H	0.574220	0.740232	0.000025
H225	H	0.562713	-0.183564	0.442360
C226	C	0.469279	-0.077627	0.164013
C227	C	0.507900	-0.078087	0.115669
H228	H	0.489427	-0.077870	0.201397
H229	H	0.441581	-0.110563	0.161715
H230	H	0.450643	-0.044131	0.161719
H231	H	0.526532	-0.111586	0.117960
H232	H	0.535608	-0.045149	0.117968
H233	H	0.601668	-0.144669	0.265171
H234	H	0.226193	-0.074670	0.155068
H235	H	0.742988	-0.003410	0.149750
H236	H	0.601706	-0.144638	0.850336
