data_functionalizedCrystal
_audit_creation_method	'MofGen! by Chris Wilmer'
_symmetry_space_group_name_H-M	'P1'
_symmetry_Int_Tables_number	1
_symmetry_cell_setting	triclinic
loop_
_symmetry_equiv_pos_as_xyz
  x,y,z
_cell_length_a	16.959454
_cell_length_b	18.215407
_cell_length_c	18.215385
_cell_angle_alpha	90.064947
_cell_angle_beta	89.911061
_cell_angle_gamma	89.979477
loop_
_atom_site_label
_atom_site_type_symbol
_atom_site_fract_x
_atom_site_fract_y
_atom_site_fract_z
Zn1	Zn	-0.314171	-1.125424	-0.416139
Zn2	Zn	-0.446507	-1.125246	-0.293081
Zn3	Zn	-0.314348	-1.002260	-0.293086
Zn4	Zn	-0.446313	-1.002333	-0.416106
O5	O	-0.380335	-1.063816	-0.354603
O6	O	-0.331733	-1.228385	-0.399826
O7	O	-0.429131	-1.108827	-0.190097
O8	O	-0.203713	-1.018642	-0.309424
O9	O	-0.428960	-1.228254	-0.309417
O10	O	-0.203584	-1.109130	-0.399831
O11	O	-0.332034	-1.018469	-0.190101
O12	O	-0.331845	-0.899285	-0.309393
O13	O	-0.428629	-1.018767	-0.519095
O14	O	-0.428800	-0.899339	-0.399776
O15	O	-0.331545	-1.109201	-0.519119
O16	O	-0.557092	-1.108898	-0.309385
O17	O	-0.556949	-1.018594	-0.399771
C18	C	-0.380321	-0.872610	-0.354582
C19	C	-0.380334	-0.790811	-0.354590
C20	C	-0.585701	-1.063754	-0.354590
C21	C	-0.673557	-1.063795	-0.354610
C22	C	-0.380045	-1.064012	-0.546556
C23	C	-0.379922	-1.064096	-0.628356
C24	C	-1.044989	-1.016863	-0.401662
C25	C	-1.045077	-1.110974	-0.307619
C26	C	-0.962531	-1.110948	-0.307612
C27	C	-0.921210	-1.063878	-0.354630
C28	C	-0.962435	-1.016834	-0.401655
C29	C	-0.921301	-1.157986	-0.260583
C30	C	-0.838750	-1.157962	-0.260574
C31	C	-0.797427	-1.110895	-0.307596
C32	C	-0.838657	-1.063850	-0.354623
C33	C	-0.797336	-1.016780	-0.401641
C34	C	-0.838564	-0.969738	-0.448673
C35	C	-0.921112	-0.969768	-0.448677
C36	C	-0.714879	-1.110865	-0.307592
C37	C	-0.714782	-1.016751	-0.401635
C38	C	-0.174166	-1.063898	-0.354632
C39	C	-0.086310	-1.063933	-0.354644
C40	C	-0.380349	-1.255769	-0.354625
C41	C	-0.380355	-1.337568	-0.354634
C42	C	-0.430898	-0.602664	-0.401594
C43	C	-0.430900	-0.525805	-0.401603
C44	C	-0.329786	-0.525720	-0.307629
C45	C	-0.329780	-0.602577	-0.307624
C46	C	-0.380340	-0.641047	-0.354605
C47	C	-0.380349	-0.487331	-0.354619
C48	C	-0.380351	-0.403998	-0.354629
C49	C	-0.380337	-0.724386	-0.354597
C50	C	-0.380566	-1.063663	-0.163396
C51	C	-0.380466	-1.063722	-0.081598
C52	C	-0.330055	-1.016494	0.106560
C53	C	-0.329960	-1.016558	0.183418
C54	C	-0.430336	-1.111329	0.183482
C55	C	-0.430426	-1.111267	0.106625
C56	C	-0.380286	-1.063846	0.068166
C57	C	-0.380102	-1.063971	0.221881
C58	C	-0.380000	-1.064041	0.305215
C59	C	-0.380387	-1.063777	-0.015173
H60	H	-0.681143	-0.978424	-0.439925
H61	H	-0.472068	-0.494557	-0.439867
H62	H	-0.289056	-0.978001	0.214675
H63	H	-1.078560	-0.978565	-0.439956
Cl64	Cl	-0.266229	-0.477352	-0.248568
Cl65	Cl	-0.663052	-1.169991	-0.248464
Cl66	Cl	-0.972947	-0.910633	-0.507795
Cl67	Cl	-0.266211	-0.650834	-0.248552
H68	H	-0.289225	-0.977883	0.075248
H69	H	-0.471159	-1.149936	0.214805
H70	H	-0.472066	-0.633984	-0.439851
H71	H	-0.471331	-1.149831	0.075363
H72	H	-0.804911	-0.931410	-0.486952
H73	H	-0.954950	-1.196302	-0.222298
Cl74	Cl	-1.097025	-1.170144	-0.248514
H75	H	-0.805187	-1.196266	-0.222279
