data_functionalizedCrystal
_audit_creation_method	'MofGen! by Chris Wilmer'
_symmetry_space_group_name_H-M	'P1'
_symmetry_Int_Tables_number	1
_symmetry_cell_setting	triclinic
loop_
_symmetry_equiv_pos_as_xyz
  x,y,z
_cell_length_a	19.188879
_cell_length_b	15.944545
_cell_length_c	14.421503
_cell_angle_alpha	89.995153
_cell_angle_beta	90.005508
_cell_angle_gamma	96.689875
loop_
_atom_site_label
_atom_site_type_symbol
_atom_site_fract_x
_atom_site_fract_y
_atom_site_fract_z
O1	O	-0.090020	1.114176	-0.077072
O2	O	-0.101126	0.869582	-0.077090
O3	O	0.006067	0.998960	-0.077051
O4	O	-0.197213	0.984798	-0.077110
O5	O	0.006051	0.998938	0.077172
O6	O	-0.101142	0.869560	0.077134
O7	O	-0.090035	1.114155	0.077151
Cu8	Cu	-0.095590	0.991855	0.091224
Cu9	Cu	-0.095571	0.991881	-0.091163
O10	O	-0.197229	0.984777	0.077113
C11	C	-0.100674	0.838279	0.000020
C12	C	-0.099294	0.745038	0.000015
C13	C	-0.028727	0.474685	0.000045
C14	C	-0.062757	0.525121	0.076078
C15	C	-0.094372	0.409414	0.000032
C16	C	-0.062758	0.525123	-0.075974
C17	C	-0.096787	0.574318	0.000022
C18	C	-0.128385	0.458622	0.076128
C19	C	-0.128377	0.458620	-0.075993
C20	C	-0.162455	0.509023	0.000058
C21	C	-0.092980	0.314417	0.000039
C22	C	-0.098185	0.669311	0.000022
C23	C	-0.223234	0.985239	-0.000006
C24	C	-0.300744	0.986594	-0.000029
C25	C	-0.337136	0.987240	0.084043
C26	C	-0.409963	0.988537	0.084060
C27	C	-0.446392	0.989204	-0.000001
C28	C	-0.409990	0.988553	-0.084084
C29	C	-0.337166	0.987248	-0.084098
N30	N	-0.555533	1.039063	-0.062550
N31	N	-0.624712	1.040304	-0.062531
C32	C	-0.665806	0.993134	0.000036
N33	N	-0.635106	0.944686	0.062597
N34	N	-0.565920	0.943449	0.062580
C35	C	-0.525357	0.990619	0.000005
C36	C	-0.781166	0.995185	0.084131
C37	C	-0.853994	0.996476	0.084144
C38	C	-0.854020	0.996501	-0.084002
C39	C	-0.781194	0.995201	-0.084013
C40	C	-0.744771	0.994547	0.000056
C41	C	0.032072	0.998497	0.000066
C42	C	0.109582	0.997142	0.000082
C43	C	-0.090488	1.145458	0.000039
C44	C	-0.091868	1.238698	0.000039
N45	N	-0.095603	0.991844	0.219506
N46	N	-0.095553	0.991899	-0.219444
C47	C	-0.145147	0.932009	0.469142
C48	C	-0.158701	1.007856	0.530945
C49	C	-0.095586	0.991864	0.408667
C50	C	-0.082049	0.916037	0.530958
C51	C	-0.095572	0.991877	0.591388
C52	C	-0.109172	1.067749	0.469110
C53	C	-0.032492	0.975881	0.469117
C54	C	-0.046019	1.051782	0.530892
C55	C	-0.095597	0.991856	0.303406
C56	C	-0.095561	0.991895	0.696647
H57	H	-0.156070	0.429573	-0.140291
N58	N	-0.066889	0.831088	0.566937
H59	H	-0.019603	0.818543	0.543481
H60	H	-0.066582	0.831941	0.636962
N61	N	-0.449232	0.989239	0.174736
H62	H	-0.442230	0.936952	0.211494
H63	H	-0.430861	1.041104	0.211413
N64	N	0.046157	0.454242	0.000155
H65	H	0.070867	0.478570	0.057657
H66	H	0.046500	0.390952	-0.000470
H67	H	0.020842	0.962326	0.441937
H68	H	-0.883624	0.997000	0.152608
H69	H	-0.035039	0.554153	0.140374
N70	N	-0.200705	0.865035	0.433210
H71	H	-0.177883	0.822927	0.394670
H72	H	-0.226189	0.835072	0.487236
H73	H	-0.156094	0.429694	0.140476
H74	H	-0.219033	0.524291	0.000086
H75	H	-0.307485	0.986707	0.152499
H76	H	-0.035017	0.554159	-0.140250
H77	H	-0.751510	0.994645	0.152585
N78	N	-0.229369	1.025772	0.566926
H79	H	-0.228697	1.026189	0.636954
H80	H	-0.239937	1.082599	0.543396
N81	N	-0.124411	1.152720	0.433286
H82	H	-0.124343	1.152183	0.363255
H83	H	-0.171892	1.164888	0.456390
H84	H	-0.883680	0.997034	-0.152446
H85	H	-0.751562	0.994681	-0.152473
H86	H	-0.439656	0.989093	-0.152527
N87	N	-0.297904	0.986600	-0.174779
H88	H	-0.332027	0.987233	-0.228031
H89	H	-0.262032	1.038138	-0.178404
H90	H	-0.004099	1.102461	0.557835
