data_functionalizedCrystal
_audit_creation_method	'MofGen! by Chris Wilmer'
_symmetry_space_group_name_H-M	'P1'
_symmetry_Int_Tables_number	1
_symmetry_cell_setting	triclinic
loop_
_symmetry_equiv_pos_as_xyz
  x,y,z
_cell_length_a	18.215407
_cell_length_b	19.805405
_cell_length_c	18.215399
_cell_angle_alpha	90.027923
_cell_angle_beta	90.019833
_cell_angle_gamma	90.027174
loop_
_atom_site_label
_atom_site_type_symbol
_atom_site_fract_x
_atom_site_fract_y
_atom_site_fract_z
Zn1	Zn	1.125063	-0.269462	0.416116
Zn2	Zn	1.625063	0.230538	0.916116
Zn3	Zn	1.124967	-0.382653	0.293050
Zn4	Zn	1.624967	0.117347	0.793050
Zn5	Zn	1.001995	-0.269484	0.293063
Zn6	Zn	1.501995	0.230516	0.793063
Zn7	Zn	1.001957	-0.382615	0.416075
Zn8	Zn	1.501957	0.117385	0.916075
O9	O	1.063495	-0.326054	0.354576
O10	O	1.563495	0.173946	0.854576
O11	O	1.228034	-0.284484	0.399803
O12	O	1.728034	0.215516	0.899803
O13	O	1.108630	-0.367666	0.190067
O14	O	1.608630	0.132334	0.690067
O15	O	1.018376	-0.174765	0.309410
O16	O	1.518376	0.325235	0.809410
O17	O	1.227964	-0.367644	0.309386
O18	O	1.727964	0.132356	0.809386
O19	O	1.108793	-0.174748	0.399816
O20	O	1.608793	0.325252	0.899816
O21	O	1.018284	-0.284521	0.190077
O22	O	1.518284	0.215479	0.690077
O23	O	0.899006	-0.284485	0.309369
O24	O	1.399006	0.215515	0.809369
O25	O	1.018311	-0.367580	0.519064
O26	O	1.518311	0.132420	1.019064
O27	O	0.898978	-0.367602	0.399745
O28	O	1.398978	0.132398	0.899745
O29	O	1.108756	-0.284447	0.519095
O30	O	1.608756	0.215553	1.019095
O31	O	1.108594	-0.477365	0.309346
O32	O	1.608594	0.022635	0.809346
O33	O	1.018219	-0.477337	0.399732
O34	O	1.518219	0.022663	0.899732
C35	C	0.872289	-0.326042	0.354555
C36	C	1.372289	0.173958	0.854555
C37	C	0.790490	-0.326053	0.354563
C38	C	1.290490	0.173947	0.854563
C39	C	0.602301	-0.369400	0.401563
C40	C	1.102301	0.130600	0.901563
C41	C	0.525442	-0.369403	0.401572
C42	C	1.025442	0.130597	0.901572
C43	C	0.525442	-0.282719	0.307605
C44	C	1.025442	0.217281	0.807605
C45	C	0.602299	-0.282714	0.307600
C46	C	1.102299	0.217286	0.807600
C47	C	0.640727	-0.326059	0.354578
C48	C	1.140727	0.173941	0.854578
C49	C	0.487011	-0.326066	0.354592
C50	C	0.987011	0.173934	0.854592
C51	C	0.403677	-0.326068	0.354602
C52	C	0.903677	0.173932	0.854602
C53	C	0.724066	-0.326056	0.354570
C54	C	1.224066	0.173944	0.854570
C55	C	1.063412	-0.501910	0.354549
C56	C	1.563412	-0.001910	0.854549
C57	C	1.063443	-0.577142	0.354563
C58	C	1.563443	-0.077142	0.854563
C59	C	1.110495	-0.612419	0.401674
C60	C	1.610495	-0.112419	0.901674
C61	C	1.110522	-0.683108	0.401688
C62	C	1.610522	-0.183108	0.901688
C63	C	1.063499	-0.718517	0.354586
C64	C	1.563499	-0.218517	0.854586
C65	C	1.016442	-0.683235	0.307472
C66	C	1.516442	-0.183235	0.807472
C67	C	1.016412	-0.612548	0.307463
C68	C	1.516412	-0.112548	0.807463
C69	C	1.016560	-0.968308	0.307510
C70	C	1.516560	-0.468308	0.807510
C71	C	1.016595	-1.039000	0.307521
C72	C	1.516595	-0.539000	0.807521
C73	C	1.110670	-1.038868	0.401735
C74	C	1.610670	-0.538868	0.901735
C75	C	1.110640	-0.968181	0.401725
C76	C	1.610640	-0.468181	0.901725
C77	C	1.063580	-0.932905	0.354615
C78	C	1.563580	-0.432905	0.854615
C79	C	1.063551	-0.856256	0.354602
C80	C	1.563551	-0.356256	0.854602
C81	C	1.063532	-0.795164	0.354595
C82	C	1.563532	-0.295164	0.854595
C83	C	1.255448	-0.326066	0.354598
C84	C	1.755448	0.173934	0.854598
C85	C	1.337247	-0.326071	0.354607
C86	C	1.837247	0.173929	0.854607
C87	C	1.063540	-0.326007	0.546529
C88	C	1.563540	0.173993	1.046529
C89	C	1.063559	-0.325987	0.628328
C90	C	1.563559	0.174013	1.128328
C91	C	1.063600	-0.149511	0.354619
C92	C	1.563600	0.350489	0.854619
C93	C	1.063644	-0.074279	0.354637
C94	C	1.563644	0.425721	0.854637
C95	C	1.063493	-0.326051	0.163370
C96	C	1.563493	0.173949	0.663370
C97	C	1.063617	-0.325880	0.081571
C98	C	1.563617	0.174120	0.581571
C99	C	1.110671	-0.282659	0.816539
C100	C	1.610671	0.217341	1.316539
C101	C	1.110680	-0.282639	0.893398
C102	C	1.610680	0.217361	1.393398
C103	C	1.016500	-0.369210	0.893355
C104	C	1.516500	0.130790	1.393355
C105	C	1.016488	-0.369226	0.816497
C106	C	1.516488	0.130774	1.316497
C107	C	1.063578	-0.325952	0.778091
C108	C	1.563578	0.174048	1.278091
C109	C	1.063598	-0.325916	0.931808
C110	C	1.563598	0.174084	1.431808
C111	C	1.063608	-0.325895	1.015141
C112	C	1.563608	0.174105	1.515141
C113	C	1.063568	-0.325972	0.694752
C114	C	1.563568	0.174028	1.194752
H115	H	0.494159	-0.404695	0.439833
H116	H	0.994159	0.095305	0.939833
O117	O	1.156483	-0.240715	0.779196
O118	O	1.656483	0.259285	1.279196
C119	C	1.255800	-0.231617	0.692408
C120	C	1.755800	0.268383	1.192408
C121	C	1.203979	-0.279200	0.734663
C122	C	1.703979	0.220800	1.234663
H123	H	1.294204	-0.262712	0.656380
H124	H	1.794204	0.237288	1.156380
H125	H	1.289513	-0.200680	0.733058
H126	H	1.789513	0.299320	1.233058
H127	H	1.222006	-0.196221	0.656463
H128	H	1.722006	0.303779	1.156463
H129	H	1.237717	-0.314637	0.770608
H130	H	1.737717	0.185363	1.270608
H131	H	1.170264	-0.310089	0.693973
H132	H	1.670264	0.189911	1.193973
O133	O	1.156498	-0.240565	0.930631
O134	O	1.656498	0.259435	1.430631
C135	C	1.249881	-0.154674	0.922558
C136	C	1.749881	0.345326	1.422558
C137	C	1.198041	-0.202303	0.880300
C138	C	1.698041	0.297697	1.380300
H139	H	1.283472	-0.123717	0.881884
H140	H	1.783472	0.376283	1.381884
H141	H	1.288398	-0.185710	0.958521
H142	H	1.788398	0.314290	1.458521
H143	H	1.216108	-0.119301	0.958562
H144	H	1.716108	0.380699	1.458562
H145	H	1.231756	-0.237686	0.844256
H146	H	1.731756	0.262314	1.344256
H147	H	1.159522	-0.171225	0.844383
H148	H	1.659522	0.328775	1.344383
O149	O	0.970695	-0.411272	0.930550
O150	O	1.470695	0.088728	1.430550
C151	C	0.877317	-0.497173	0.922395
C152	C	1.377317	0.002827	1.422395
C153	C	0.929139	-0.449559	0.880182
C154	C	1.429139	0.050441	1.380182
H155	H	0.843715	-0.528151	0.881691
H156	H	1.343715	-0.028151	1.381691
H157	H	0.838809	-0.466125	0.958361
H158	H	1.338809	0.033875	1.458361
H159	H	0.911105	-0.532529	0.958391
H160	H	1.411105	-0.032529	1.458391
H161	H	0.895409	-0.414194	0.844146
H162	H	1.395409	0.085806	1.344146
H163	H	0.967649	-0.480649	0.844262
H164	H	1.467649	0.019351	1.344262
H165	H	0.494145	-0.247431	0.269356
H166	H	0.994145	0.252569	0.769356
H167	H	0.978244	-0.939592	0.269150
H168	H	1.478244	-0.439592	0.769150
O169	O	0.970763	-0.411221	0.779031
O170	O	1.470763	0.088779	1.279031
C171	C	0.929040	-0.449636	0.660606
C172	C	1.429040	0.050364	1.160606
C173	C	0.980847	-0.402037	0.702945
C174	C	1.480847	0.097963	1.202945
H175	H	0.937186	-0.442238	0.599082
H176	H	1.437186	0.057762	1.099082
H177	H	0.869691	-0.437744	0.675653
H178	H	1.369691	0.062256	1.175653
H179	H	0.941927	-0.504204	0.675745
H180	H	1.441927	-0.004204	1.175745
H181	H	0.968027	-0.347453	0.687828
H182	H	1.468027	0.152547	1.187828
H183	H	1.040181	-0.413987	0.687894
H184	H	1.540181	0.086013	1.187894
O185	O	0.639516	-0.411520	0.447270
O186	O	1.139516	0.088480	0.947270
C187	C	0.631401	-0.497521	0.540448
C188	C	1.131401	0.002479	1.040448
C189	C	0.589167	-0.449846	0.488731
C190	C	1.089167	0.050154	0.988731
H191	H	0.590712	-0.528530	0.573971
H192	H	1.090712	-0.028530	1.073971
H193	H	0.667393	-0.466519	0.579033
H194	H	1.167393	0.033481	1.079033
H195	H	0.667375	-0.532845	0.506582
H196	H	1.167375	-0.032845	1.006582
H197	H	0.553153	-0.414513	0.522537
H198	H	1.053153	0.085487	1.022537
H199	H	0.553222	-0.480890	0.450143
H200	H	1.053222	0.019110	0.950143
H201	H	1.148986	-1.067598	0.440097
H202	H	1.648986	-0.567598	0.940097
O203	O	0.639517	-0.240588	0.261886
O204	O	1.139517	0.259412	0.761886
C205	C	0.631413	-0.154581	0.168715
C206	C	1.131413	0.345419	0.668715
C207	C	0.589172	-0.202264	0.220431
C208	C	1.089172	0.297736	0.720431
H209	H	0.590727	-0.123574	0.135196
H210	H	1.090727	0.376426	0.635196
H211	H	0.667347	-0.185578	0.130126
H212	H	1.167347	0.314422	0.630126
H213	H	0.667444	-0.119257	0.202582
H214	H	1.167444	0.380743	0.702582
H215	H	0.553101	-0.237598	0.186623
H216	H	1.053101	0.262402	0.686623
H217	H	0.553284	-0.171226	0.259022
H218	H	1.053284	0.328774	0.759022
O219	O	1.156196	-0.578130	0.447501
O220	O	1.656196	-0.078130	0.947501
C221	C	1.249535	-0.585468	0.540929
C222	C	1.749535	-0.085468	1.040929
C223	C	1.197807	-0.624381	0.489075
C224	C	1.697807	-0.124381	0.989075
H225	H	1.283202	-0.622845	0.574545
H226	H	1.783202	-0.122845	1.074545
H227	H	1.215743	-0.552399	0.579423
H228	H	1.715743	-0.052399	1.079423
H229	H	1.287992	-0.552342	0.507165
H230	H	1.787992	-0.052342	1.007165
H231	H	1.159339	-0.657543	0.522780
H232	H	1.659339	-0.157543	1.022780
H233	H	1.231644	-0.657407	0.450580
H234	H	1.731644	-0.157407	0.950580
H235	H	1.148842	-0.711827	0.440045
H236	H	1.648842	-0.211827	0.940045
H237	H	1.148933	-0.939352	0.440078
H238	H	1.648933	-0.439352	0.940078
O239	O	0.970977	-1.073503	0.261794
O240	O	1.470977	-0.573503	0.761794
C241	C	0.929298	-1.182461	0.220097
C242	C	1.429298	-0.682461	0.720097
C243	C	0.981005	-1.143471	0.271903
C244	C	1.481005	-0.643471	0.771903
H245	H	0.937376	-1.239037	0.228264
H246	H	1.437376	-0.739037	0.728264
H247	H	0.942240	-1.168639	0.160746
H248	H	1.442240	-0.668639	0.660746
H249	H	0.869952	-1.168565	0.232965
H250	H	1.369952	-0.668565	0.732965
H251	H	1.040368	-1.157347	0.259102
H252	H	1.540368	-0.657347	0.759102
H253	H	0.968000	-1.157297	0.331239
H254	H	1.468000	-0.657297	0.831239
H255	H	0.978096	-0.583825	0.269101
H256	H	1.478096	-0.083825	0.769101
H257	H	0.978152	-0.712071	0.269124
H258	H	1.478152	-0.212071	0.769124
