data_functionalizedCrystal
_audit_creation_method	'MofGen! by Chris Wilmer'
_symmetry_space_group_name_H-M	'P1'
_symmetry_Int_Tables_number	1
_symmetry_cell_setting	triclinic
loop_
_symmetry_equiv_pos_as_xyz
  x,y,z
_cell_length_a	14.519710
_cell_length_b	17.699083
_cell_length_c	16.176319
_cell_angle_alpha	90.013827
_cell_angle_beta	89.993531
_cell_angle_gamma	96.518420
loop_
_atom_site_label
_atom_site_type_symbol
_atom_site_fract_x
_atom_site_fract_y
_atom_site_fract_z
O1	O	1.223449	-0.099216	-0.068742
O2	O	0.954923	-0.110899	-0.068749
O3	O	1.096773	0.005110	-0.068725
O4	O	1.081600	-0.215225	-0.068766
O5	O	1.096753	0.005118	0.068768
O6	O	0.954903	-0.110892	0.068744
O7	O	1.223430	-0.099208	0.068751
Cu8	Cu	1.089165	-0.105049	0.081302
Cu9	Cu	1.089188	-0.105058	-0.081300
O10	O	1.081580	-0.215217	0.068727
C11	C	0.920556	-0.110351	-0.000003
C12	C	0.818181	-0.108719	-0.000005
C13	C	1.257797	-0.099756	0.000004
C14	C	1.360171	-0.101388	-0.000000
C15	C	1.096219	0.033312	0.000025
C16	C	1.094588	0.117335	0.000035
C17	C	1.735042	-0.107395	-0.000002
C18	C	1.630741	-0.105727	-0.000001
C19	C	1.547610	-0.104392	-0.000002
C20	C	1.443302	-0.102723	0.000000
N21	N	1.089155	-0.105043	0.195667
C22	C	1.177851	0.165718	0.000044
C23	C	1.176313	0.244665	0.000046
C24	C	1.091511	0.275229	0.000045
C25	C	1.008242	0.226840	0.000034
C26	C	1.009781	0.147894	0.000026
C27	C	1.002033	0.545221	0.000064
C28	C	1.000501	0.624173	0.000074
C29	C	1.168566	0.641992	0.000084
C30	C	1.170105	0.563046	0.000076
C31	C	1.086836	0.514664	0.000061
C32	C	1.088505	0.429060	0.000057
C33	C	1.089841	0.360831	0.000054
C34	C	1.082134	0.756580	0.000005
C35	C	1.083765	0.672558	0.000077
N36	N	1.089205	-0.105059	-0.195665
C37	C	1.151985	-0.053695	0.238942
C38	C	1.151990	-0.053694	0.325489
C39	C	1.089168	-0.105045	0.368760
C40	C	1.026332	-0.156396	0.325479
C41	C	1.026323	-0.156392	0.238933
C42	C	1.026363	-0.156410	0.674507
C43	C	1.026378	-0.156411	0.761059
C44	C	1.152030	-0.053712	0.761063
C45	C	1.152022	-0.053708	0.674517
C46	C	1.089182	-0.105055	0.631244
C47	C	1.089177	-0.105055	0.537400
C48	C	1.089178	-0.105050	0.462602
H49	H	1.246907	0.140840	0.000049
H50	H	1.203150	-0.011882	0.360723
O51	O	0.965177	-0.206200	0.367475
C52	C	0.873918	-0.193737	0.346334
H53	H	0.873608	-0.133138	0.322560
H54	H	0.846726	-0.235637	0.296091
C55	C	0.811761	-0.279810	0.452423
C56	C	0.811379	-0.205379	0.423231
H57	H	0.773182	-0.286994	0.499855
H58	H	0.873244	-0.288209	0.466665
H59	H	0.789103	-0.314718	0.410547
H60	H	0.834048	-0.170472	0.465103
H61	H	0.749898	-0.196973	0.408998
O62	O	0.918096	0.653827	-0.000080
C63	C	0.867358	0.629096	-0.071289
H64	H	0.916962	0.612601	-0.121055
H65	H	0.815844	0.577719	-0.055203
C66	C	0.753589	0.714027	-0.042452
C67	C	0.814515	0.693773	-0.103579
H68	H	0.720990	0.753921	-0.062369
H69	H	0.787770	0.730687	0.005525
H70	H	0.710670	0.671207	-0.029053
H71	H	0.857440	0.736590	-0.116969
H72	H	0.780340	0.677122	-0.151558
O73	O	0.925923	0.256618	-0.000078
C74	C	0.920005	0.301728	-0.071291
H75	H	0.992740	0.321290	-0.095027
H76	H	0.879135	0.266901	-0.121160
C77	C	0.781164	0.347601	-0.020499
C78	C	0.870499	0.371632	-0.049648
H79	H	0.750623	0.390720	-0.007151
H80	H	0.785148	0.317208	0.027477
H81	H	0.747118	0.318578	-0.062062
H82	H	0.904547	0.400647	-0.008082
H83	H	0.866519	0.402033	-0.097617
H84	H	1.203180	-0.011896	0.639289
O85	O	0.928814	0.101001	0.000054
C86	C	0.853635	0.144903	0.000034
H87	H	0.877167	0.203794	0.026076
H88	H	0.827647	0.150554	-0.065930
C89	C	0.745927	0.033345	0.021957
C90	C	0.774828	0.105674	0.053948
H91	H	0.697313	0.009146	0.055210
H92	H	0.796576	0.003766	0.021967
H93	H	0.724277	0.038065	-0.033013
H94	H	0.796488	0.100953	0.108912
H95	H	0.724180	0.135251	0.053948
O96	O	1.213026	-0.003720	0.803011
C97	C	1.198190	0.071231	0.781900
H98	H	1.162640	0.071202	0.719067
H99	H	1.152343	0.094721	0.830621
C100	C	1.335601	0.121449	0.855073
C101	C	1.291945	0.121414	0.777897
H102	H	1.393433	0.152406	0.852607
H103	H	1.345595	0.070954	0.869299
H104	H	1.297386	0.141022	0.895666
H105	H	1.330155	0.101832	0.737308
H106	H	1.281960	0.171907	0.763664
H107	H	0.934231	0.505837	0.000052
H108	H	1.203146	-0.011882	0.203717
H109	H	0.975218	-0.198229	0.796288
O110	O	0.965294	-0.206363	0.632607
C111	C	0.909838	-0.251675	0.689361
H112	H	0.947656	-0.252600	0.751043
H113	H	0.841392	-0.226973	0.698590
C114	C	0.844187	-0.332154	0.579805
C115	C	0.890640	-0.333295	0.655563
H116	H	0.832340	-0.382500	0.558956
H117	H	0.881546	-0.301625	0.541568
H118	H	0.787154	-0.311566	0.587506
H119	H	0.947677	-0.353873	0.647859
H120	H	0.853290	-0.363829	0.693798
O121	O	1.252457	0.533321	0.000221
C122	C	1.258359	0.488180	0.071413
H123	H	1.210206	0.506921	0.121188
H124	H	1.236947	0.425953	0.055306
C125	C	1.417920	0.474598	0.042565
C126	C	1.358783	0.497619	0.103702
H127	H	1.479867	0.480417	0.062481
H128	H	1.413944	0.505008	-0.005400
H129	H	1.400065	0.422743	0.029148
H130	H	1.376631	0.549476	0.117111
H131	H	1.362765	0.467219	0.151671
H132	H	1.244114	0.284056	0.000054
H133	H	1.236367	0.681395	0.000092
O134	O	0.965384	-0.206378	0.196930
C135	C	0.980187	-0.281331	0.218065
H136	H	1.054020	-0.281840	0.241842
H137	H	0.929026	-0.303470	0.268303
C138	C	0.875046	-0.331988	0.111966
C139	C	0.965732	-0.332614	0.141163
H140	H	0.866125	-0.363624	0.064531
H141	H	0.865070	-0.281491	0.097729
H142	H	0.832422	-0.350436	0.153839
H143	H	1.008352	-0.314158	0.099295
H144	H	0.975714	-0.383109	0.155392
