data_functionalizedCrystal
_audit_creation_method	'MofGen! by Chris Wilmer'
_symmetry_space_group_name_H-M	'P1'
_symmetry_Int_Tables_number	1
_symmetry_cell_setting	triclinic
loop_
_symmetry_equiv_pos_as_xyz
  x,y,z
_cell_length_a	33.428889
_cell_length_b	33.428139
_cell_length_c	33.424847
_cell_angle_alpha	60.004234
_cell_angle_beta	60.008465
_cell_angle_gamma	59.994972
loop_
_atom_site_label
_atom_site_type_symbol
_atom_site_fract_x
_atom_site_fract_y
_atom_site_fract_z
O1	O	0.055565	-0.584504	0.488714
O2	O	0.555565	-0.084504	0.988714
O3	O	0.020982	-0.455083	0.393778
O4	O	0.520982	0.044917	0.893778
O5	O	0.102943	-0.536959	0.393689
O6	O	0.602943	-0.036959	0.893689
O7	O	-0.026396	-0.502628	0.488803
O8	O	0.473604	-0.002628	0.988803
O9	O	0.130140	-0.509767	0.420792
O10	O	0.630140	-0.009767	0.920792
O11	O	0.048179	-0.427891	0.420881
O12	O	0.548179	0.072109	0.920881
O13	O	0.082762	-0.557312	0.515817
O14	O	0.582762	-0.057312	1.015817
Cu15	Cu	0.067954	-0.490119	0.470823
Cu16	Cu	0.567954	0.009881	0.970823
Cu17	Cu	0.035790	-0.522276	0.438771
Cu18	Cu	0.535790	-0.022276	0.938771
O19	O	0.000801	-0.475436	0.515906
O20	O	0.500801	0.024564	1.015906
N21	N	0.090577	-0.467504	0.493370
N22	N	0.590577	0.032496	0.993370
N23	N	0.013171	-0.544895	0.416225
N24	N	0.513171	-0.044895	0.916225
C25	C	0.143377	-0.280390	0.546067
C26	C	0.643377	0.219610	1.046067
C27	C	0.143515	-0.414755	0.680369
C28	C	0.643515	0.085245	1.180369
C29	C	0.143392	-0.414735	0.546069
C30	C	0.643392	0.085265	1.046069
C31	C	0.277766	-0.414702	0.545966
C32	C	0.777766	0.085298	1.045966
C33	C	0.158177	-0.324719	0.560828
C34	C	0.658177	0.175281	1.060828
C35	C	0.158255	-0.399967	0.636038
C36	C	0.658255	0.100033	1.136038
C37	C	0.233434	-0.399936	0.560773
C38	C	0.733434	0.100064	1.060773
C39	C	0.158186	-0.399955	0.560829
C40	C	0.658186	0.100045	1.060829
C41	C	0.124540	-0.223964	0.527278
C42	C	0.624540	0.276036	1.027278
C43	C	0.124565	-0.433545	0.527281
C44	C	0.624565	0.066455	1.027281
C45	C	0.177014	-0.381145	0.579617
C46	C	0.677014	0.118855	1.079617
C47	C	0.359814	-0.400540	0.502735
C48	C	0.859814	0.099460	1.002735
C49	C	0.411105	-0.417624	0.485606
C50	C	0.911105	0.082376	0.985606
C51	C	0.411136	-0.500620	0.517255
C52	C	0.911136	-0.000620	1.017255
C53	C	0.359845	-0.483534	0.534385
C54	C	0.859845	0.016466	1.034385
C55	C	0.136887	-0.198305	0.476855
C56	C	0.636887	0.301695	0.976855
C57	C	0.119761	-0.147011	0.459777
C58	C	0.619761	0.352989	0.959777
C59	C	0.077945	-0.147038	0.543547
C60	C	0.577945	0.352962	1.043547
C61	C	0.095072	-0.198332	0.560625
C62	C	0.595072	0.301668	1.060625
C63	C	0.074134	-0.421169	0.539710
C64	C	0.574134	0.078831	1.039710
C65	C	0.057023	-0.438269	0.522625
C66	C	0.557023	0.061731	1.022625
C67	C	0.140770	-0.480120	0.480694
C68	C	0.640770	0.019880	0.980694
C69	C	0.157883	-0.463020	0.497773
C70	C	0.657883	0.036980	0.997773
C71	C	0.074339	-0.421208	0.762475
C72	C	0.574339	0.078792	1.262475
C73	C	0.057288	-0.438323	0.813768
C74	C	0.557288	0.061677	1.313768
C75	C	0.141075	-0.480183	0.813699
C76	C	0.641075	0.019817	1.313699
C77	C	0.158125	-0.463069	0.762404
C78	C	0.658125	0.036931	1.262404
C79	C	0.124756	-0.433580	0.736794
C80	C	0.624756	0.066420	1.236794
C81	C	0.334186	-0.433494	0.527123
C82	C	0.834186	0.066506	1.027123
C83	C	-0.173769	-0.597444	0.363037
C84	C	0.326231	-0.097444	0.863037
C85	C	-0.039302	-0.597595	0.228856
C86	C	0.460698	-0.097595	0.728856
C87	C	-0.039496	-0.597587	0.363300
C88	C	0.460504	-0.097587	0.863300
C89	C	-0.039512	-0.731889	0.363237
C90	C	0.460488	-0.231889	0.863237
C91	C	-0.129442	-0.612265	0.348329
C92	C	0.370558	-0.112265	0.848329
C93	C	-0.054138	-0.612351	0.273187
C94	C	0.445862	-0.112351	0.773187
C95	C	-0.054257	-0.687554	0.348440
C96	C	0.445743	-0.187554	0.848440
C97	C	-0.054247	-0.612346	0.348477
C98	C	0.445753	-0.112346	0.848477
C99	C	-0.230191	-0.578579	0.381758
C100	C	0.269809	-0.078579	0.881758
C101	C	-0.020722	-0.578803	0.382168
C102	C	0.479278	-0.078803	0.882168
C103	C	-0.073020	-0.631130	0.329609
C104	C	0.426980	-0.131130	0.829609
C105	C	-0.053713	-0.813916	0.406386
C106	C	0.446287	-0.313916	0.906386
C107	C	-0.036654	-0.865210	0.423504
C108	C	0.463346	-0.365210	0.923504
C109	C	0.046338	-0.865293	0.391984
C110	C	0.546338	-0.365293	0.891984
C111	C	0.029278	-0.813999	0.374865
C112	C	0.529278	-0.313999	0.874865
C113	C	-0.255900	-0.590938	0.432169
C114	C	0.244100	-0.090938	0.932169
C115	C	-0.307191	-0.573786	0.449185
C116	C	0.192809	-0.073786	0.949185
C117	C	-0.307060	-0.531922	0.365377
C118	C	0.192940	-0.031922	0.865377
C119	C	-0.255769	-0.549074	0.348360
C120	C	0.244231	-0.049074	0.848360
C121	C	-0.033081	-0.528377	0.369764
C122	C	0.466919	-0.028377	0.869764
C123	C	-0.016014	-0.511306	0.386922
C124	C	0.483986	-0.011306	0.886922
C125	C	0.025770	-0.595083	0.428877
C126	C	0.525770	-0.095083	0.928877
C127	C	0.008703	-0.612156	0.411725
C128	C	0.508703	-0.112156	0.911725
C129	C	-0.032755	-0.528393	0.146761
C130	C	0.467245	-0.028393	0.646761
C131	C	-0.015585	-0.511324	0.095468
C132	C	0.484415	-0.011324	0.595468
C133	C	0.026262	-0.595106	0.095516
C134	C	0.526262	-0.095106	0.595516
C135	C	0.009094	-0.612174	0.146811
C136	C	0.509094	-0.112174	0.646811
C137	C	-0.020417	-0.578816	0.172432
C138	C	0.479583	-0.078816	0.672432
C139	C	-0.020748	-0.788312	0.382068
C140	C	0.479252	-0.288312	0.882068
N141	N	0.436037	-0.467415	0.493101
N142	N	0.936037	0.032585	0.993101
O143	O	0.592642	-0.471896	0.376066
O144	O	1.092642	0.028104	0.876066
O145	O	0.592838	-0.567146	0.505347
O146	O	1.092838	-0.067146	1.005347
O147	O	0.592754	-0.566928	0.423360
O148	O	1.092754	-0.066928	0.923360
O149	O	0.592727	-0.472113	0.458053
O150	O	1.092727	0.027887	0.958053
O151	O	0.511269	-0.539835	0.450606
O152	O	1.011269	-0.039835	0.950606
O153	O	0.511353	-0.540052	0.532594
O154	O	1.011353	-0.040052	1.032594
O155	O	0.511157	-0.444802	0.403312
O156	O	1.011157	0.055198	0.903312
Cu157	Cu	0.503815	-0.489954	0.470441
Cu158	Cu	1.003815	0.010046	0.970441
Cu159	Cu	0.600180	-0.521995	0.438219
Cu160	Cu	1.100180	-0.021995	0.938219
O161	O	0.511242	-0.445020	0.485300
O162	O	1.011242	0.054980	0.985300
N163	N	0.667959	-0.544533	0.415554
N164	N	1.167959	-0.044533	0.915554
N165	N	0.090544	-0.122107	0.493359
N166	N	0.590544	0.377893	0.993359
O167	O	-0.026406	0.034587	0.488773
O168	O	0.473594	0.534587	0.988773
O169	O	0.102877	0.034627	0.393499
O170	O	0.602877	0.534627	0.893499
O171	O	0.020848	0.034591	0.393771
O172	O	0.520848	0.534591	0.893771
O173	O	0.055623	0.034623	0.488500
O174	O	0.555623	0.534623	0.988500
O175	O	0.048051	-0.046899	0.420925
O176	O	0.548051	0.453101	0.920925
O177	O	0.130080	-0.046864	0.420653
O178	O	0.630080	0.453136	0.920653
O179	O	0.000796	-0.046903	0.515927
O180	O	0.500796	0.453097	1.015927
Cu181	Cu	0.067922	-0.054324	0.470769
Cu182	Cu	0.567922	0.445676	0.970769
Cu183	Cu	0.035752	0.042048	0.438656
Cu184	Cu	0.535752	0.542048	0.938656
O185	O	0.082825	-0.046867	0.515655
O186	O	0.582825	0.453133	1.015655
N187	N	0.013123	0.109830	0.416068
N188	N	0.513123	0.609830	0.916068
N189	N	0.090892	-0.467554	0.838649
N190	N	0.590892	0.032446	1.338649
O191	O	0.086330	-0.584488	0.995334
O192	O	0.586330	-0.084488	1.495334
O193	O	-0.008902	-0.455160	0.995379
O194	O	0.491098	0.044840	1.495379
O195	O	-0.008679	-0.537172	0.995355
O196	O	0.491321	-0.037172	1.495355
O197	O	0.086107	-0.502475	0.995358
O198	O	0.586107	-0.002475	1.495358
O199	O	0.018452	-0.509990	0.913868
O200	O	0.518452	-0.009990	1.413868
O201	O	0.018230	-0.427978	0.913891
O202	O	0.518230	0.072022	1.413891
O203	O	0.113461	-0.557306	0.913847
O204	O	0.613461	-0.057306	1.413847
Cu205	Cu	0.068323	-0.490160	0.906429
Cu206	Cu	0.568323	0.009840	1.406429
Cu207	Cu	0.036237	-0.522306	1.002797
Cu208	Cu	0.536237	-0.022306	1.502797
O209	O	0.113239	-0.475293	0.913870
O210	O	0.613239	0.024707	1.413870
N211	N	0.013667	-0.544916	1.070577
N212	N	0.513667	-0.044916	1.570577
C213	C	0.031339	-0.425179	0.394250
C214	C	0.531339	0.074821	0.894250
C215	C	0.132837	-0.526572	0.394139
C216	C	0.632837	-0.026572	0.894139
C217	C	0.072405	-0.587216	0.515344
C218	C	0.572405	-0.087216	1.015344
C219	C	-0.029093	-0.485823	0.515455
C220	C	0.470907	0.014177	1.015455
C221	C	0.552119	-0.566716	0.535258
C222	C	1.052119	-0.066716	1.035258
C223	C	0.552016	-0.566447	0.433726
C224	C	1.052016	-0.066447	0.933726
C225	C	0.551873	-0.445232	0.373402
C226	C	1.051873	0.054768	0.873402
C227	C	0.551980	-0.445502	0.474933
C228	C	1.051980	0.054498	0.974933
C229	C	0.132731	-0.006013	0.393923
C230	C	0.632731	0.493987	0.893923
C231	C	0.031182	-0.006158	0.394293
C232	C	0.531182	0.493842	0.894293
C233	C	-0.029092	-0.006163	0.515469
C234	C	0.470908	0.493837	1.015469
C235	C	0.072491	-0.006119	0.515133
C236	C	0.572491	0.493881	1.015133
C237	C	-0.008451	-0.425276	0.954641
C238	C	0.491549	0.074724	1.454641
C239	C	-0.008170	-0.526833	0.954596
C240	C	0.491830	-0.026833	1.454596
C241	C	0.113010	-0.587190	0.954585
C242	C	0.613010	-0.087190	1.454585
C243	C	0.112735	-0.485627	0.954611
C244	C	0.612735	0.014373	1.454611
H245	H	0.047163	-0.397193	0.741627
H246	H	0.547163	0.102807	1.241627
H247	H	0.169984	-0.533889	0.364272
H248	H	0.669984	-0.033889	0.864272
O249	O	-0.073428	-0.477011	0.551042
O250	O	0.426572	0.022989	1.051042
C251	C	-0.103888	-0.428874	0.533335
C252	C	0.396112	0.071126	1.033335
H253	H	-0.080302	-0.405601	0.501862
H254	H	0.419698	0.094399	1.001862
H255	H	-0.128640	-0.429624	0.519742
H256	H	0.371360	0.070376	1.019742
C257	C	-0.164555	-0.435301	0.613528
C258	C	0.335445	0.064699	1.113528
C259	C	-0.135586	-0.406715	0.574874
C260	C	0.364414	0.093285	1.074874
H261	H	-0.184109	-0.421633	0.639152
H262	H	0.315891	0.078367	1.139152
H263	H	-0.144035	-0.467733	0.625458
H264	H	0.355965	0.032267	1.125458
H265	H	-0.185177	-0.435924	0.602194
H266	H	0.314823	0.064076	1.102194
H267	H	-0.114960	-0.406098	0.586207
H268	H	0.385040	0.093902	1.086207
H269	H	-0.156103	-0.374283	0.562948
H270	H	0.343897	0.125717	1.062948
H271	H	-0.066220	-0.006175	0.545378
H272	H	0.433780	0.493825	1.045378
O273	O	0.176891	-0.005669	0.358089
O274	O	0.676891	0.494331	0.858089
C275	C	0.170168	0.036630	0.316946
C276	C	0.670168	0.536630	0.816946
H277	H	0.131048	0.050532	0.317630
H278	H	0.631048	0.550532	0.817630
H279	H	0.177046	0.066239	0.317892
H280	H	0.677046	0.566239	0.817892
C281	C	0.254426	0.006983	0.268961
C282	C	0.754426	0.506983	0.768961
C283	C	0.206380	0.024056	0.269799
C284	C	0.706380	0.524056	0.769799
H285	H	0.276764	-0.000771	0.239878
H286	H	0.776764	0.499229	0.739878
H287	H	0.258956	-0.021513	0.296680
H288	H	0.758956	0.478487	0.796680
H289	H	0.260151	0.031661	0.269751
H290	H	0.760151	0.531661	0.769751
H291	H	0.200654	-0.000623	0.269014
H292	H	0.700654	0.499377	0.769014
H293	H	0.201850	0.052548	0.242078
H294	H	0.701850	0.552548	0.742078
H295	H	0.023733	-0.006162	0.364531
H296	H	0.523733	0.493838	0.864531
H297	H	0.047002	-0.397168	0.563734
H298	H	0.547002	0.102832	1.063734
H299	H	0.079939	-0.006110	0.544893
H300	H	0.579939	0.493890	1.044893
O301	O	0.022578	-0.380807	0.358688
O302	O	0.522578	0.119193	0.858688
C303	C	0.056201	-0.359040	0.345467
C304	C	0.556201	0.140960	0.845467
H305	H	0.070549	-0.375264	0.376864
H306	H	0.570549	0.124736	0.876864
H307	H	0.088102	-0.366428	0.311377
H308	H	0.588102	0.133572	0.811377
C309	C	0.012831	-0.283440	0.296098
C310	C	0.512831	0.216560	0.796098
C311	C	0.030451	-0.303364	0.334663
C312	C	0.530451	0.196636	0.834663
H313	H	-0.003052	-0.249097	0.289431
H314	H	0.496948	0.250903	0.789431
H315	H	-0.009821	-0.298105	0.305003
H316	H	0.490179	0.201895	0.805003
H317	H	0.039418	-0.289602	0.267694
H318	H	0.539418	0.210398	0.767694
H319	H	0.003863	-0.297208	0.363067
H320	H	0.503863	0.202792	0.863067
H321	H	0.053097	-0.288697	0.325762
H322	H	0.553097	0.211303	0.825762
H323	H	-0.038348	-0.388133	0.954654
H324	H	0.461652	0.111867	1.454654
H325	H	0.056124	-0.793157	0.355062
H326	H	0.556124	-0.293157	0.855062
O327	O	-0.043621	-0.535745	0.954532
O328	O	0.456379	-0.035745	1.454532
C329	C	-0.025771	-0.583909	0.954516
C330	C	0.474229	-0.083909	1.454516
H331	H	0.015963	-0.596807	0.939106
H332	H	0.515963	-0.096807	1.439106
H333	H	-0.038170	-0.609266	0.993599
H334	H	0.461830	-0.109266	1.493599
C335	C	-0.097157	-0.569003	0.941446
C336	C	0.402843	-0.069003	1.441446
C337	C	-0.045899	-0.584843	0.922516
C338	C	0.454101	-0.084843	1.422516
H339	H	-0.109575	-0.569580	0.921709
H340	H	0.390425	-0.069580	1.421709
H341	H	-0.109184	-0.536555	0.941459
H342	H	0.390816	-0.036555	1.441459
H343	H	-0.107483	-0.590135	0.974015
H344	H	0.392517	-0.090135	1.474015
H345	H	-0.035575	-0.563707	0.889951
H346	H	0.464425	-0.063707	1.389951
H347	H	-0.033871	-0.617288	0.922497
H348	H	0.466129	-0.117288	1.422497
O349	O	0.148620	-0.631533	0.954588
O350	O	0.648620	-0.131533	1.454588
C351	C	0.130990	-0.662020	0.954566
C352	C	0.630990	-0.162020	1.454566
H353	H	0.089256	-0.648755	0.970004
H354	H	0.589256	-0.148755	1.470004
H355	H	0.143430	-0.660685	0.915468
H356	H	0.643430	-0.160685	1.415468
C357	C	0.202558	-0.731337	0.967544
C358	C	0.702558	-0.231337	1.467544
C359	C	0.151300	-0.715047	0.986508
C360	C	0.651300	-0.215047	1.486508
H361	H	0.215088	-0.764047	0.987245
H362	H	0.715088	-0.264047	1.487245
H363	H	0.214437	-0.710797	0.967557
H364	H	0.714437	-0.210797	1.467557
H365	H	0.212919	-0.730221	0.934962
H366	H	0.712919	-0.230221	1.434962
H367	H	0.140940	-0.716158	1.019086
H368	H	0.640940	-0.216158	1.519086
H369	H	0.139420	-0.735588	0.986501
H370	H	0.639420	-0.235588	1.486501
O371	O	0.081211	-0.631605	0.550874
O372	O	0.581211	-0.131605	1.050874
C373	C	0.092728	-0.668506	0.534054
C374	C	0.592728	-0.168506	1.034054
H375	H	0.076931	-0.651792	0.503619
H376	H	0.576931	-0.151792	1.003619
H377	H	0.134218	-0.685728	0.519308
H378	H	0.634218	-0.185728	1.019308
C379	C	0.090005	-0.728655	0.614090
C380	C	0.590005	-0.228655	1.114090
C381	C	0.070599	-0.708127	0.576713
C382	C	0.570599	-0.208127	1.076713
H383	H	0.076357	-0.753096	0.640405
H384	H	0.576357	-0.253096	1.140405
H385	H	0.082247	-0.703795	0.625423
H386	H	0.582247	-0.203795	1.125423
H387	H	0.124579	-0.743003	0.601796
H388	H	0.624579	-0.243003	1.101796
H389	H	0.036027	-0.693774	0.589005
H390	H	0.536027	-0.193774	1.089005
H391	H	0.078350	-0.732986	0.565383
H392	H	0.578350	-0.232986	1.065383
O393	O	0.552205	-0.602345	0.579573
O394	O	1.052205	-0.102345	1.079573
C395	C	0.552210	-0.584698	0.610063
C396	C	1.052210	-0.084698	1.110063
H397	H	0.567596	-0.553223	0.586500
H398	H	1.067596	-0.053223	1.086500
H399	H	0.513128	-0.571122	0.634837
H400	H	1.013128	-0.071122	1.134837
C401	C	0.565327	-0.664935	0.670671
C402	C	1.065327	-0.164935	1.170671
C403	C	0.584228	-0.626279	0.641730
C404	C	1.084228	-0.126279	1.141730
H405	H	0.585076	-0.690584	0.690207
H406	H	1.085076	-0.190584	1.190207
H407	H	0.565322	-0.676824	0.650131
H408	H	1.065322	-0.176824	1.150131
H409	H	0.532759	-0.653615	0.691312
H410	H	1.032759	-0.153615	1.191312
H411	H	0.616793	-0.637597	0.621086
H412	H	1.116793	-0.137597	1.121086
H413	H	0.584239	-0.614392	0.662268
H414	H	1.084239	-0.114392	1.162268
H415	H	-0.025639	-0.470264	0.074572
H416	H	0.474361	0.029736	0.574572
H417	H	0.142514	-0.478200	0.954606
H418	H	0.642514	0.021800	1.454606
H419	H	0.016234	-0.428240	0.834672
H420	H	0.516234	0.071760	1.334672
O421	O	0.552007	-0.601922	0.424800
O422	O	1.052007	-0.101922	0.924800
C423	C	0.551959	-0.584075	0.376648
C424	C	1.051959	-0.084075	0.876648
H425	H	0.536491	-0.542340	0.363776
H426	H	1.036491	-0.042340	0.863776
H427	H	0.591038	-0.596436	0.351267
H428	H	1.091038	-0.096436	0.851267
C429	C	0.539008	-0.655517	0.391532
C430	C	1.039008	-0.155517	0.891532
C431	C	0.520006	-0.604258	0.375724
C432	C	1.020006	-0.104258	0.875724
H433	H	0.519300	-0.667969	0.390961
H434	H	1.019300	-0.167969	0.890961
H435	H	0.539043	-0.667542	0.423972
H436	H	1.039043	-0.167542	0.923972
H437	H	0.571574	-0.665811	0.370379
H438	H	1.071574	-0.165811	0.870379
H439	H	0.487444	-0.593965	0.396880
H440	H	0.987444	-0.093965	0.896880
H441	H	0.519965	-0.592232	0.343287
H442	H	1.019965	-0.092232	0.843287
H443	H	0.551811	-0.415327	0.336274
H444	H	1.051811	0.084673	0.836274
H445	H	0.551974	-0.415718	0.482355
H446	H	1.051974	0.084282	0.982355
H447	H	0.199181	-0.473148	0.741498
H448	H	0.699181	0.026852	1.241498
O449	O	0.173557	-0.508839	0.838501
O450	O	0.673557	-0.008839	1.338501
C451	C	0.221713	-0.516079	0.804836
C452	C	0.721713	-0.016079	1.304836
H453	H	0.221587	-0.510335	0.768281
H454	H	0.721587	-0.010335	1.268281
H455	H	0.236406	-0.488776	0.799375
H456	H	0.736406	0.011224	1.299375
C457	C	0.254795	-0.575683	0.869715
C458	C	0.754795	-0.075683	1.369715
C459	C	0.254640	-0.568632	0.824819
C460	C	0.754640	-0.068632	1.324819
H461	H	0.275107	-0.608099	0.882042
H462	H	0.775107	-0.108099	1.382042
H463	H	0.222351	-0.570804	0.892397
H464	H	0.722351	-0.070804	1.392397
H465	H	0.267038	-0.552927	0.865158
H466	H	0.767038	-0.052927	1.365158
H467	H	0.242392	-0.591383	0.829378
H468	H	0.742392	-0.091383	1.329378
H469	H	0.287082	-0.573516	0.802138
H470	H	0.787082	-0.073516	1.302138
H471	H	0.015959	-0.428182	0.532734
H472	H	0.515959	0.071818	1.032734
H473	H	0.167905	-0.504126	0.456671
H474	H	0.667905	-0.004126	0.956671
H475	H	0.338981	-0.510371	0.554246
H476	H	0.838981	-0.010371	1.054246
O477	O	0.206882	-0.475012	0.485613
O478	O	0.706882	0.024988	0.985613
C479	C	0.228132	-0.457437	0.434235
C480	C	0.728132	0.042563	0.934235
H481	H	0.203790	-0.452419	0.416311
H482	H	0.703790	0.047581	0.916311
H483	H	0.231923	-0.420772	0.422635
H484	H	0.731923	0.079228	0.922635
C485	C	0.309000	-0.500710	0.440009
C486	C	0.809000	-0.000710	0.940009
C487	C	0.279105	-0.494550	0.417994
C488	C	0.779105	0.005450	0.917994
H489	H	0.340444	-0.523601	0.429990
H490	H	0.840444	-0.023601	0.929990
H491	H	0.294684	-0.512549	0.474623
H492	H	0.794684	-0.012549	0.974623
H493	H	0.312155	-0.470153	0.430340
H494	H	0.812155	0.029847	0.930340
H495	H	0.275946	-0.525105	0.427668
H496	H	0.775946	-0.025105	0.927668
H497	H	0.293422	-0.482716	0.383381
H498	H	0.793422	0.017284	0.883381
O499	O	0.436008	-0.549231	0.524279
O500	O	0.936008	-0.049231	1.024279
C501	C	0.423462	-0.564895	0.501250
C502	C	0.923462	-0.064895	1.001250
H503	H	0.386205	-0.538891	0.496911
H504	H	0.886205	-0.038891	0.996911
H505	H	0.452303	-0.564973	0.463626
H506	H	0.952303	-0.064973	0.963626
C507	C	0.466883	-0.648969	0.538113
C508	C	0.966883	-0.148969	1.038113
C509	C	0.421122	-0.617032	0.532786
C510	C	0.921122	-0.117032	1.032786
H511	H	0.465442	-0.681129	0.557564
H512	H	0.965442	-0.181129	1.057564
H513	H	0.475338	-0.638415	0.553626
H514	H	0.975338	-0.138415	1.053626
H515	H	0.490913	-0.649028	0.506757
H516	H	0.990913	-0.149028	1.006757
H517	H	0.397094	-0.616968	0.564142
H518	H	0.897094	-0.116968	1.064142
H519	H	0.412664	-0.627586	0.517279
H520	H	0.912664	-0.127586	1.017279
O521	O	0.435928	-0.385544	0.461903
O522	O	0.935928	0.114456	0.961903
C523	C	0.402283	-0.337714	0.459176
C524	C	0.902283	0.162286	0.959176
H525	H	0.365711	-0.335723	0.462566
H526	H	0.865711	0.164277	0.962566
H527	H	0.396857	-0.328139	0.490245
H528	H	0.896857	0.171861	0.990245
C529	C	0.467180	-0.303534	0.405486
C530	C	0.967180	0.196466	0.905486
C531	C	0.422264	-0.301088	0.409645
C532	C	0.922264	0.198912	0.909645
H533	H	0.479506	-0.280941	0.374934
H534	H	0.979506	0.219059	0.874934
H535	H	0.489848	-0.335758	0.407324
H536	H	0.989848	0.164242	0.907324
H537	H	0.462653	-0.295557	0.431379
H538	H	0.962653	0.204443	0.931379
H539	H	0.426793	-0.309071	0.383756
H540	H	0.926793	0.190929	0.883756
H541	H	0.399597	-0.268864	0.407801
H542	H	0.899597	0.231136	0.907801
H543	H	0.338923	-0.359792	0.496821
H544	H	0.838923	0.140208	0.996821
H545	H	0.160882	-0.219171	0.449698
H546	H	0.660882	0.280829	0.949698
H547	H	0.129813	-0.126117	0.418717
H548	H	0.629813	0.373883	0.918717
H549	H	0.085016	-0.219221	0.601683
H550	H	0.585016	0.280779	1.101683
O551	O	0.049311	-0.122213	0.576006
O552	O	0.549311	0.377787	1.076006
C553	C	0.042104	-0.155861	0.624174
C554	C	0.542104	0.344139	1.124174
H555	H	0.047840	-0.192427	0.624082
H556	H	0.547840	0.307573	1.124082
H557	H	0.069427	-0.161309	0.638839
H558	H	0.569427	0.338691	1.138839
C559	C	-0.017473	-0.090955	0.657220
C560	C	0.482527	0.409045	1.157220
C561	C	-0.010431	-0.135864	0.657107
C562	C	0.489569	0.364136	1.157107
H563	H	-0.049878	-0.078619	0.677535
H564	H	0.450122	0.421381	1.177535
H565	H	-0.012616	-0.068285	0.624768
H566	H	0.487384	0.431715	1.124768
H567	H	0.005300	-0.095501	0.669439
H568	H	0.505300	0.404499	1.169439
H569	H	-0.033200	-0.131316	0.644882
H570	H	0.466800	0.368684	1.144882
H571	H	-0.015293	-0.158533	0.689558
H572	H	0.484707	0.341467	1.189558
H573	H	-0.056788	-0.501226	0.167618
H574	H	0.443212	-0.001226	0.667618
H575	H	0.019144	-0.653235	0.167709
H576	H	0.519144	-0.153235	0.667709
O577	O	-0.061681	-0.495912	0.341080
O578	O	0.438319	0.004088	0.841080
C579	C	-0.068922	-0.447744	0.333807
C580	C	0.431078	0.052256	0.833807
H581	H	-0.063239	-0.447841	0.364767
H582	H	0.436761	0.052159	0.864767
H583	H	-0.041582	-0.433081	0.297299
H584	H	0.458418	0.066919	0.797299
C585	C	-0.128423	-0.414685	0.295333
C586	C	0.371577	0.085315	0.795333
C587	C	-0.121446	-0.414804	0.333361
C588	C	0.378554	0.085196	0.833361
H589	H	-0.160821	-0.394366	0.295055
H590	H	0.339179	0.105634	0.795055
H591	H	-0.123543	-0.447137	0.300231
H592	H	0.376457	0.052863	0.800231
H593	H	-0.105635	-0.402467	0.264913
H594	H	0.394365	0.097533	0.764913
H595	H	-0.144229	-0.427028	0.363781
H596	H	0.355771	0.072972	0.863781
H597	H	-0.126331	-0.382354	0.328468
H598	H	0.373669	0.117646	0.828468
H599	H	0.050281	-0.622271	0.074658
H600	H	0.550281	-0.122271	0.574658
H601	H	-0.026079	-0.470245	0.376824
H602	H	0.473921	0.029755	0.876824
H603	H	0.049734	-0.622248	0.452940
H604	H	0.549734	-0.122248	0.952940
H605	H	0.087072	-0.886205	0.386121
H606	H	0.587072	-0.386205	0.886121
O607	O	0.020771	-0.661157	0.423800
O608	O	0.520771	-0.161157	0.923800
C609	C	0.050392	-0.686933	0.453576
C610	C	0.550392	-0.186933	0.953576
H611	H	0.069042	-0.662497	0.447074
H612	H	0.569042	-0.162497	0.947074
H613	H	0.026678	-0.697962	0.493733
H614	H	0.526678	-0.197962	0.993733
C615	C	0.066682	-0.763215	0.448625
C616	C	0.566682	-0.263215	0.948625
C617	C	0.089592	-0.733203	0.440636
C618	C	0.589592	-0.233203	0.940636
H619	H	0.090860	-0.791757	0.440646
H620	H	0.590860	-0.291757	0.940646
H621	H	0.046724	-0.745849	0.428566
H622	H	0.546724	-0.245849	0.928566
H623	H	0.046921	-0.772400	0.482090
H624	H	0.546921	-0.272400	0.982090
H625	H	0.109347	-0.724014	0.407172
H626	H	0.609347	-0.224014	0.907172
H627	H	0.109553	-0.750568	0.460690
H628	H	0.609553	-0.250568	0.960690
H629	H	-0.063498	-0.886058	0.443304
H630	H	0.436502	-0.386058	0.943304
H631	H	-0.094449	-0.793002	0.412253
H632	H	0.405551	-0.293002	0.912253
H633	H	-0.328125	-0.583847	0.490235
H634	H	0.171875	-0.083847	0.990235
O635	O	-0.231130	-0.619575	0.464677
O636	O	0.268870	-0.119575	0.964677
C637	C	-0.264822	-0.626810	0.512822
C638	C	0.235178	-0.126810	1.012822
H639	H	-0.301362	-0.595856	0.512673
H640	H	0.198638	-0.095856	1.012673
H641	H	-0.270304	-0.663332	0.527505
H642	H	0.229696	-0.163332	1.027505
C643	C	-0.199980	-0.665211	0.545964
C644	C	0.300020	-0.165211	1.045964
C645	C	-0.244858	-0.627190	0.545781
C646	C	0.255142	-0.127190	1.045781
H647	H	-0.187666	-0.665447	0.566295
H648	H	0.312334	-0.165447	1.066295
H649	H	-0.177281	-0.660338	0.513528
H650	H	0.322719	-0.160338	1.013528
H651	H	-0.204555	-0.695641	0.558198
H652	H	0.295445	-0.195641	1.058198
H653	H	-0.240282	-0.596760	0.533541
H654	H	0.259718	-0.096760	1.033541
H655	H	-0.267557	-0.632057	0.578215
H656	H	0.232443	-0.132057	1.078215
O657	O	-0.331834	-0.503252	0.332869
O658	O	0.168166	-0.003252	0.832869
C659	C	-0.298142	-0.496040	0.284725
C660	C	0.201858	0.003960	0.784725
H661	H	-0.261596	-0.501808	0.284882
H662	H	0.238404	-0.001808	0.784882
H663	H	-0.292675	-0.523342	0.270022
H664	H	0.207325	-0.023342	0.770022
C665	C	-0.362978	-0.436406	0.251590
C666	C	0.137022	0.063594	0.751590
C667	C	-0.318092	-0.443486	0.251783
C668	C	0.181908	0.056514	0.751783
H669	H	-0.375285	-0.403989	0.231268
H670	H	0.124715	0.096011	0.731268
H671	H	-0.385677	-0.441266	0.284025
H672	H	0.114323	0.058734	0.784025
H673	H	-0.358416	-0.459161	0.239338
H674	H	0.141584	0.040839	0.739338
H675	H	-0.322656	-0.420736	0.264040
H676	H	0.177344	0.079264	0.764040
H677	H	-0.295394	-0.438621	0.219348
H678	H	0.204606	0.061379	0.719348
H679	H	-0.234840	-0.539009	0.307312
H680	H	0.265160	-0.039009	0.807312
