data_functionalizedCrystal
_audit_creation_method	'MofGen! by Chris Wilmer'
_symmetry_space_group_name_H-M	'P1'
_symmetry_Int_Tables_number	1
_symmetry_cell_setting	triclinic
loop_
_symmetry_equiv_pos_as_xyz
  x,y,z
_cell_length_a	12.837943
_cell_length_b	15.944493
_cell_length_c	11.295501
_cell_angle_alpha	94.593393
_cell_angle_beta	94.169432
_cell_angle_gamma	89.151992
loop_
_atom_site_label
_atom_site_type_symbol
_atom_site_fract_x
_atom_site_fract_y
_atom_site_fract_z
O1	O	1.381637	0.223906	0.098972
O2	O	1.079834	0.213120	0.098981
O3	O	1.239009	0.096897	0.098986
O4	O	1.222462	0.340129	0.098967
O5	O	1.226540	0.085802	-0.099063
O6	O	1.067365	0.202024	-0.099069
O7	O	1.369168	0.212811	-0.099077
Cu8	Cu	1.217128	0.206404	-0.117157
Cu9	Cu	1.231874	0.219526	0.117060
O10	O	1.209993	0.329033	-0.099083
C11	C	1.034980	0.203928	-0.000043
C12	C	0.919905	0.193060	-0.000039
C13	C	1.232099	0.060001	-0.000034
C14	C	1.230072	-0.033409	-0.000018
C15	C	0.678920	0.323712	-0.000066
C16	C	0.570797	0.313505	-0.000063
C17	C	0.595531	0.162439	-0.000039
C18	C	0.703655	0.172646	-0.000041
C19	C	0.745345	0.253285	-0.000053
C20	C	0.853472	0.263493	-0.000048
C21	C	0.878204	0.112427	-0.000032
C22	C	0.770080	0.102219	-0.000029
C23	C	1.323765	-0.261675	-0.000044
C24	C	1.279387	-0.310814	0.097606
C25	C	1.226315	-0.204431	-0.000033
C26	C	1.267071	-0.321732	-0.097655
C27	C	1.222692	-0.369632	-0.000052
C28	C	1.181968	-0.252336	0.097697
C29	C	1.169661	-0.263253	-0.097652
C30	C	1.125213	-0.312364	0.000022
C31	C	1.228404	-0.109264	-0.000021
C32	C	1.220595	-0.464797	-0.000056
C33	C	1.414023	0.222003	-0.000051
C34	C	1.529098	0.232871	-0.000048
C35	C	1.216904	0.365930	-0.000061
C36	C	1.218931	0.459340	-0.000068
N37	N	1.206764	0.197175	-0.281892
C38	C	1.316843	0.295224	-0.531193
C39	C	1.309019	0.288244	-0.655856
C40	C	1.183297	0.176230	-0.655882
C41	C	1.191121	0.183211	-0.531220
C42	C	1.257895	0.242711	-0.468879
C43	C	1.265714	0.249695	-0.344214
C44	C	1.139998	0.137677	-0.344243
C45	C	1.132174	0.130697	-0.468906
N46	N	1.242247	0.228749	0.281795
H47	H	0.887414	0.329153	-0.000060
H48	H	1.091993	0.094921	-0.293494
O49	O	1.337729	0.313871	-0.276977
H50	H	1.333260	0.309912	-0.179821
O51	O	0.723899	0.410681	-0.000081
H52	H	0.659543	0.457940	-0.000095
O53	O	1.111286	0.112056	-0.723132
H54	H	1.052004	0.144662	-0.779941
O55	O	0.949846	0.036457	-0.000025
H56	H	1.032036	0.057099	-0.000035
O57	O	1.314710	-0.361810	-0.207016
H58	H	1.397075	-0.341558	-0.206803
H59	H	0.516716	0.370854	-0.000077
O60	O	1.434952	-0.232051	0.000080
H61	H	1.480280	-0.250961	0.081265
H62	H	0.736119	0.036564	-0.000033
O63	O	0.550557	0.075467	-0.000044
H64	H	0.464212	0.080205	-0.000046
O65	O	1.340779	-0.338690	0.206948
H66	H	1.423127	-0.318484	0.206745
H67	H	1.146040	-0.222176	0.180341
H68	H	1.041210	-0.334547	0.000078
H69	H	1.123344	-0.242207	-0.180209
H70	H	1.371203	0.343679	-0.480435
O71	O	1.372592	0.344886	-0.723072
H72	H	1.420329	0.387434	-0.658775
O73	O	1.060149	0.066528	-0.536145
H74	H	1.064605	0.070499	-0.633300
