data_functionalizedCrystal
_audit_creation_method	'MofGen! by Chris Wilmer'
_symmetry_space_group_name_H-M	'P1'
_symmetry_Int_Tables_number	1
_symmetry_cell_setting	triclinic
loop_
_symmetry_equiv_pos_as_xyz
  x,y,z
_cell_length_a	19.188905
_cell_length_b	17.666332
_cell_length_c	10.654550
_cell_angle_alpha	90.005259
_cell_angle_beta	83.809729
_cell_angle_gamma	90.016479
loop_
_atom_site_label
_atom_site_type_symbol
_atom_site_fract_x
_atom_site_fract_y
_atom_site_fract_z
O1	O	0.927185	0.063071	0.156632
O2	O	0.724010	0.063045	0.177770
O3	O	0.830269	0.063056	-0.015638
O4	O	0.820926	0.063060	0.350040
O5	O	0.830250	-0.062841	-0.015648
O6	O	0.723991	-0.062852	0.177760
O7	O	0.927166	-0.062825	0.156622
Cu8	Cu	0.825577	-0.074334	0.167190
Cu9	Cu	0.825599	0.074554	0.167202
O10	O	0.820907	-0.062836	0.350030
C11	C	0.697984	0.000094	0.177086
C12	C	0.620466	0.000084	0.175047
C13	C	0.584078	0.068712	0.174073
C14	C	0.511241	0.068721	0.172143
C15	C	0.474798	0.000098	0.171162
C16	C	0.511194	-0.068539	0.172143
C17	C	0.584028	-0.068546	0.174085
N18	N	0.365282	-0.050972	0.096644
N19	N	0.296093	-0.050960	0.094796
C20	C	0.255353	0.000117	0.165311
N21	N	0.286416	0.051193	0.237729
N22	N	0.355612	0.051183	0.239572
C23	C	0.395821	0.000099	0.169056
C24	C	0.139987	0.068760	0.162247
C25	C	0.067149	0.068766	0.160325
C26	C	0.067104	-0.068496	0.160312
C27	C	0.139940	-0.068500	0.162247
C28	C	0.176377	0.000130	0.163208
N29	N	0.825566	-0.179053	0.167181
C30	C	0.872633	-0.218658	0.081582
C31	C	0.872637	-0.297906	0.081575
C32	C	0.825581	-0.337545	0.167190
C33	C	0.778505	-0.297931	0.252796
C34	C	0.778498	-0.218685	0.252791
N35	N	0.817232	-0.461963	0.278358
N36	N	0.817243	-0.537244	0.278359
C37	C	0.825600	-0.576309	0.167208
N38	N	0.833958	-0.537251	0.056052
N39	N	0.833951	-0.461963	0.056053
C40	C	0.825584	-0.423475	0.167204
C41	C	0.872674	-0.701844	0.081595
C42	C	0.872673	-0.781093	0.081587
C43	C	0.778544	-0.781116	0.252819
C44	C	0.778541	-0.701869	0.252816
C45	C	0.825610	-0.662237	0.167205
C46	C	0.953191	0.000128	0.157306
C47	C	1.030710	0.000143	0.159345
C48	C	0.829573	0.000109	-0.062426
C49	C	0.827521	0.000111	-0.201826
N50	N	0.825615	0.179273	0.167201
C51	C	0.890085	0.000117	-0.282645
C52	C	0.888152	0.000122	-0.413625
C53	C	0.761086	0.000112	-0.382952
C54	C	0.763020	0.000112	-0.251975
C55	C	0.954586	0.000115	-0.232496
C56	C	1.017155	0.000120	-0.313317
C57	C	1.015222	0.000125	-0.444296
C58	C	0.950720	0.000125	-0.494455
C59	C	0.821603	0.000113	0.396818
C60	C	0.823655	0.000116	0.536218
H61	H	0.481609	0.124608	0.171352
O62	O	0.698494	0.000073	-0.431883
C63	C	0.710204	0.000091	-0.564817
H64	H	0.764537	-0.023737	-0.595885
H65	H	0.668890	-0.036466	-0.604806
H66	H	0.706654	0.060489	-0.601254
O67	O	1.076044	0.000235	-0.522678
C68	C	1.115172	0.065448	-0.500009
H69	H	1.098513	0.087183	-0.400547
H70	H	1.173355	0.050786	-0.509555
H71	H	1.105289	0.111107	-0.571591
H72	H	1.069669	0.000139	-0.272468
O73	O	0.031733	0.135387	0.159211
C74	C	-0.002993	0.139499	0.049341
H75	H	-0.011461	0.079912	0.012803
H76	H	-0.055863	0.168550	0.072435
H77	H	0.030261	0.173360	-0.026056
H78	H	0.712075	0.000107	-0.186169
H79	H	0.169656	0.124642	0.163043
O80	O	0.948930	0.000236	-0.621710
C81	C	0.983127	0.065455	-0.673861
H82	H	1.021342	0.087194	-0.607332
H83	H	1.013063	0.050799	-0.769030
H84	H	0.942630	0.111109	-0.687391
O85	O	0.732801	-0.819695	0.335813
C86	C	0.689398	-0.865541	0.268757
H87	H	0.716733	-0.877410	0.170362
H88	H	0.678608	-0.921267	0.321227
H89	H	0.637758	-0.835020	0.260459
O90	O	0.732800	-0.663510	0.336099
C91	C	0.691254	-0.715486	0.411645
H92	H	0.719889	-0.771964	0.412935
H93	H	0.681084	-0.692586	0.511983
H94	H	0.639195	-0.723939	0.371108
H95	H	0.481516	-0.124412	0.171347
O96	O	0.619360	0.135444	0.175067
C97	C	0.571620	0.196020	0.173760
H98	H	0.516993	0.175906	0.212124
H99	H	0.588536	0.244020	0.235274
H100	H	0.570729	0.217118	0.072828
O101	O	0.031698	-0.135139	0.159128
C102	C	-0.003054	-0.139233	0.049283
H103	H	0.024073	-0.100286	-0.026124
H104	H	-0.001416	-0.199930	0.012750
H105	H	-0.059920	-0.120795	0.072397
H106	H	0.169568	-0.124385	0.163031
O107	O	0.619275	-0.135283	0.174964
C108	C	0.571492	-0.195852	0.173723
H109	H	0.522280	-0.175730	0.132598
H110	H	0.596663	-0.243853	0.113324
H111	H	0.556895	-0.216953	0.274240
H112	H	0.910966	-0.330158	0.011867
O113	O	0.918277	-0.180310	-0.001926
C114	C	0.906221	-0.199873	-0.126055
H115	H	0.850286	-0.221609	-0.126180
H116	H	0.913968	-0.147864	-0.189356
H117	H	0.944659	-0.245964	-0.163004
O118	O	0.732766	-0.336518	0.335791
C119	C	0.689367	-0.382369	0.268735
H120	H	0.716703	-0.394236	0.170341
H121	H	0.678581	-0.438095	0.321205
H122	H	0.637724	-0.351853	0.260435
O123	O	0.732752	-0.180326	0.336074
C124	C	0.691203	-0.232302	0.411616
H125	H	0.719835	-0.288781	0.412905
H126	H	0.681033	-0.209402	0.511955
H127	H	0.639144	-0.240751	0.371077
H128	H	0.910998	-0.669574	0.011882
H129	H	0.910998	-0.813340	0.011875
H130	H	0.956167	0.000109	-0.125847
