data_functionalizedCrystal
_audit_creation_method	'MofGen! by Chris Wilmer'
_symmetry_space_group_name_H-M	'P1'
_symmetry_Int_Tables_number	1
_symmetry_cell_setting	triclinic
loop_
_symmetry_equiv_pos_as_xyz
  x,y,z
_cell_length_a	26.210047
_cell_length_b	14.971486
_cell_length_c	27.732025
_cell_angle_alpha	96.876201
_cell_angle_beta	89.991759
_cell_angle_gamma	89.980506
loop_
_atom_site_label
_atom_site_type_symbol
_atom_site_fract_x
_atom_site_fract_y
_atom_site_fract_z
O1	O	0.042353	-1.185966	0.062990
O2	O	0.375687	-0.852633	0.396323
O3	O	0.709020	-0.519299	0.729657
O4	O	0.042365	-0.925445	0.070533
O5	O	0.375699	-0.592112	0.403867
O6	O	0.709032	-0.258779	0.737200
O7	O	0.042375	-1.063807	-0.003599
O8	O	0.375708	-0.730474	0.329735
O9	O	0.709041	-0.397141	0.663068
O10	O	0.042344	-1.047604	0.137122
O11	O	0.375678	-0.714271	0.470455
O12	O	0.709011	-0.380937	0.803788
O13	O	-0.042484	-1.063744	-0.003600
O14	O	0.290850	-0.730410	0.329734
O15	O	0.624183	-0.397077	0.663067
O16	O	-0.042493	-0.925382	0.070532
O17	O	0.290841	-0.592048	0.403865
O18	O	0.624174	-0.258715	0.737199
O19	O	-0.042505	-1.185902	0.062989
O20	O	0.290829	-0.852569	0.396322
O21	O	0.624162	-0.519235	0.729655
Cu22	Cu	-0.050247	-1.055636	0.066760
Cu23	Cu	0.283086	-0.722303	0.400094
Cu24	Cu	0.616420	-0.388969	0.733427
Cu25	Cu	0.050108	-1.055711	0.066762
Cu26	Cu	0.383441	-0.722378	0.400095
Cu27	Cu	0.716774	-0.389045	0.733428
O28	O	-0.042514	-1.047540	0.137121
O29	O	0.290819	-0.714207	0.470454
O30	O	0.624153	-0.380873	0.803787
C31	C	-0.000062	-0.892094	0.070195
C32	C	0.333271	-0.558761	0.403529
C33	C	0.666605	-0.225428	0.736862
C34	C	-0.000056	-0.792813	0.069184
C35	C	0.333277	-0.459480	0.402518
C36	C	0.666610	-0.126147	0.735851
C37	C	-0.000049	-1.063438	-0.021608
C38	C	0.333284	-0.730105	0.311726
C39	C	0.666617	-0.396772	0.645059
C40	C	-0.000034	-1.062424	-0.075268
C41	C	0.333299	-0.729090	0.258065
C42	C	0.666632	-0.395757	0.591399
N43	N	-0.120831	-1.055589	0.066759
N44	N	0.212502	-0.722256	0.400092
N45	N	0.545836	-0.388923	0.733426
C46	C	-0.526802	-0.994386	0.099571
C47	C	-0.193469	-0.661053	0.432905
C48	C	0.139864	-0.327720	0.766238
C49	C	-0.313144	-0.994343	0.099571
C50	C	0.020190	-0.661010	0.432905
C51	C	0.353523	-0.327677	0.766238
O52	O	-0.285529	-0.942200	0.127464
O53	O	0.047805	-0.608866	0.460798
O54	O	0.381138	-0.275533	0.794131
N55	N	-0.286415	-1.055618	0.066758
N56	N	0.046919	-0.722285	0.400091
N57	N	0.380252	-0.388951	0.733424
C58	C	-0.313103	-1.116904	0.033939
C59	C	0.020230	-0.783570	0.367273
C60	C	0.353563	-0.450237	0.700606
O61	O	-0.285466	-1.169015	0.006026
O62	O	0.047867	-0.835681	0.339359
O63	O	0.381201	-0.502348	0.672693
C64	C	-0.526761	-1.116942	0.033937
C65	C	-0.193428	-0.783609	0.367271
C66	C	0.139906	-0.450275	0.700604
C67	C	-0.553487	-1.055669	0.066757
C68	C	-0.220154	-0.722336	0.400090
C69	C	0.113179	-0.389003	0.733423
C70	C	-0.553529	-0.933118	0.132388
C71	C	-0.220195	-0.599785	0.465721
C72	C	0.113138	-0.266451	0.799054
C73	C	-0.606940	-0.933133	0.132389
C74	C	-0.273607	-0.599799	0.465722
C75	C	0.059726	-0.266466	0.799056
C76	C	-0.633625	-0.994416	0.099574
C77	C	-0.300292	-0.661082	0.432908
C78	C	0.033041	-0.327749	0.766241
C79	C	-0.606899	-1.055684	0.066758
C80	C	-0.273565	-0.722351	0.400091
C81	C	0.059768	-0.389017	0.733425
C82	C	-0.553449	-1.178223	0.001117
C83	C	-0.220115	-0.844889	0.334450
C84	C	0.113218	-0.511556	0.667784
C85	C	-0.606867	-1.178225	0.001119
C86	C	-0.273533	-0.844892	0.334452
C87	C	0.059800	-0.511559	0.667785
C88	C	-0.633593	-1.116953	0.033938
C89	C	-0.300260	-0.783619	0.367271
C90	C	0.033074	-0.450286	0.700605
C91	C	-0.686995	-1.116981	0.033945
C92	C	-0.353662	-0.783648	0.367278
C93	C	-0.020329	-0.450315	0.700611
N94	N	-0.713724	-1.055707	0.066758
N95	N	-0.380391	-0.722373	0.400092
N96	N	-0.047058	-0.389040	0.733425
C97	C	-0.687039	-0.994424	0.099573
C98	C	-0.353706	-0.661091	0.432907
C99	C	-0.020373	-0.327757	0.766240
C100	C	-0.200930	-1.116881	0.033943
C101	C	0.132403	-0.783547	0.367277
C102	C	0.465737	-0.450214	0.700610
C103	C	-0.147516	-1.116872	0.033944
C104	C	0.185817	-0.783539	0.367278
C105	C	0.519151	-0.450206	0.700611
C106	C	-0.147560	-0.994311	0.099576
C107	C	0.185773	-0.660977	0.432909
C108	C	0.519107	-0.327644	0.766243
C109	C	-0.200975	-0.994324	0.099577
C110	C	0.132358	-0.660990	0.432910
C111	C	0.465692	-0.327657	0.766244
C112	C	-0.227659	-1.055606	0.066757
C113	C	0.105674	-0.722273	0.400090
C114	C	0.439007	-0.388939	0.733424
C115	C	-0.799207	-0.994460	0.099574
C116	C	-0.465874	-0.661126	0.432907
C117	C	-0.132541	-0.327793	0.766241
C118	C	-0.852623	-0.994482	0.099574
C119	C	-0.519290	-0.661149	0.432907
C120	C	-0.185957	-0.327816	0.766240
C121	C	-0.852575	-1.117041	0.033941
C122	C	-0.519241	-0.783707	0.367274
C123	C	-0.185908	-0.450374	0.700607
C124	C	-0.799163	-1.117022	0.033942
C125	C	-0.465830	-0.783688	0.367276
C126	C	-0.132497	-0.450355	0.700609
C127	C	-0.772481	-1.055724	0.066761
C128	C	-0.439147	-0.722390	0.400094
C129	C	-0.105814	-0.389057	0.733427
O130	O	-0.714643	-1.169091	0.006063
O131	O	-0.381310	-0.835758	0.339396
O132	O	-0.047977	-0.502424	0.672729
O133	O	-0.714686	-0.942308	0.127475
O134	O	-0.381353	-0.608974	0.460809
O135	O	-0.048019	-0.275641	0.794142
C136	C	-0.473391	-0.994372	0.099570
C137	C	-0.140058	-0.661038	0.432903
C138	C	0.193276	-0.327705	0.766237
C139	C	-0.446664	-1.055640	0.066754
C140	C	-0.113331	-0.722307	0.400087
C141	C	0.220002	-0.388973	0.733420
C142	C	-0.473349	-1.116923	0.033939
C143	C	-0.140016	-0.783590	0.367272
C144	C	0.193317	-0.450256	0.700606
C145	C	-0.393250	-1.055632	0.066755
C146	C	-0.059917	-0.722298	0.400088
C147	C	0.273416	-0.388965	0.733421
C148	C	-0.366565	-0.994349	0.099570
C149	C	-0.033232	-0.661016	0.432903
C150	C	0.300101	-0.327682	0.766236
C151	C	-0.393294	-0.933074	0.132383
C152	C	-0.059961	-0.599741	0.465717
C153	C	0.273372	-0.266408	0.799050
C154	C	-0.446706	-0.933089	0.132385
C155	C	-0.113373	-0.599756	0.465718
C156	C	0.219961	-0.266422	0.799051
C157	C	-0.446620	-1.178198	0.001125
C158	C	-0.113287	-0.844864	0.334458
C159	C	0.220046	-0.511531	0.667792
C160	C	-0.393209	-1.178179	0.001127
C161	C	-0.059875	-0.844845	0.334460
C162	C	0.273458	-0.511512	0.667793
C163	C	-0.366524	-1.116896	0.033942
C164	C	-0.033190	-0.783562	0.367275
C165	C	0.300143	-0.450229	0.700608
N166	N	0.120692	-1.055765	0.066759
N167	N	0.454025	-0.722432	0.400092
N168	N	0.787358	-0.389099	0.733426
C169	C	-0.000076	-1.219253	0.063327
C170	C	0.333257	-0.885920	0.396660
C171	C	0.666590	-0.552587	0.729993
C172	C	-0.000078	-1.318534	0.064338
C173	C	0.333255	-0.985201	0.397671
C174	C	0.666588	-0.651868	0.731004
C175	C	-0.000066	-0.734893	0.112735
C176	C	0.333267	-0.401560	0.446068
C177	C	0.666600	-0.068227	0.779401
C178	C	-0.000074	-0.641609	0.111782
C179	C	0.333259	-0.308276	0.445115
C180	C	0.666593	0.025058	0.778449
C181	C	-0.000068	-0.606247	0.067278
C182	C	0.333266	-0.272913	0.400612
C183	C	0.666599	0.060420	0.733945
C184	C	-0.000059	-0.664174	0.023725
C185	C	0.333274	-0.330841	0.357058
C186	C	0.666608	0.002493	0.690391
C187	C	-0.000055	-0.757456	0.024678
C188	C	0.333278	-0.424123	0.358011
C189	C	0.666611	-0.090790	0.691345
C190	C	-0.000066	-0.469743	0.021741
C191	C	0.333268	-0.136410	0.355074
C192	C	0.666601	0.196924	0.688407
C193	C	-0.000068	-0.376454	0.020787
C194	C	0.333265	-0.043121	0.354121
C195	C	0.666598	0.290212	0.687454
C196	C	-0.000084	-0.353896	0.108845
C197	C	0.333249	-0.020562	0.442178
C198	C	0.666582	0.312771	0.775512
C199	C	-0.000080	-0.447178	0.109798
C200	C	0.333253	-0.113845	0.443132
C201	C	0.666586	0.219489	0.776465
C202	C	-0.000071	-0.505099	0.066244
C203	C	0.333262	-0.171766	0.399578
C204	C	0.666596	0.161568	0.732911
C205	C	0.046193	-1.055248	-0.458466
C206	C	0.379526	-0.721915	-0.125133
C207	C	0.712859	-0.388581	0.208201
C208	C	0.046209	-1.059046	-0.256789
C209	C	0.379542	-0.725713	0.076544
C210	C	0.712875	-0.392379	0.409877
O211	O	0.085549	-1.059602	-0.230719
O212	O	0.418882	-0.726269	0.102615
O213	O	0.752216	-0.392936	0.435948
N214	N	-0.000046	-1.059486	-0.231566
N215	N	0.333287	-0.726153	0.101767
N216	N	0.666621	-0.392819	0.435100
C217	C	-0.046308	-1.058982	-0.256766
C218	C	0.287025	-0.725649	0.076567
C219	C	0.620359	-0.392316	0.409900
O220	O	-0.085650	-1.059453	-0.230686
O221	O	0.247683	-0.726120	0.102647
O222	O	0.581016	-0.392786	0.435981
C223	C	-0.046324	-1.055191	-0.458443
C224	C	0.287009	-0.721858	-0.125109
C225	C	0.620343	-0.388524	0.208224
C226	C	-0.000066	-1.054742	-0.483662
C227	C	0.333267	-0.721408	-0.150329
C228	C	0.666601	-0.388075	0.183004
C229	C	0.092447	-1.054800	-0.483686
C230	C	0.425780	-0.721467	-0.150352
C231	C	0.759113	-0.388133	0.182981
C232	C	0.092442	-1.053846	-0.534102
C233	C	0.425775	-0.720512	-0.200768
C234	C	0.759109	-0.387179	0.132565
C235	C	0.046183	-1.053339	-0.559298
C236	C	0.379517	-0.720006	-0.225965
C237	C	0.712850	-0.386673	0.107369
C238	C	-0.000071	-1.053788	-0.534078
C239	C	0.333263	-0.720454	-0.200745
C240	C	0.666596	-0.387121	0.132588
C241	C	-0.092585	-1.054694	-0.483642
C242	C	0.240748	-0.721360	-0.150309
C243	C	0.574081	-0.388027	0.183024
C244	C	-0.092585	-1.053748	-0.534065
C245	C	0.240748	-0.720415	-0.200731
C246	C	0.574081	-0.387081	0.132602
C247	C	-0.046328	-1.053299	-0.559284
C248	C	0.287006	-0.719966	-0.225951
C249	C	0.620339	-0.386632	0.107382
C250	C	-0.046334	-1.052327	-0.609690
C251	C	0.287000	-0.718994	-0.276357
C252	C	0.620333	-0.385660	0.056976
N253	N	-0.000079	-1.051887	-0.634913
N254	N	0.333254	-0.718554	-0.301580
N255	N	0.666588	-0.385220	0.031754
C256	C	0.046180	-1.052393	-0.609717
C257	C	0.379513	-0.719060	-0.276384
C258	C	0.712846	-0.385727	0.056950
C259	C	-0.046297	-1.060971	-0.150883
C260	C	0.287037	-0.727638	0.182450
C261	C	0.620370	-0.394304	0.515784
C262	C	-0.046293	-1.061917	-0.100464
C263	C	0.287040	-0.728584	0.232869
C264	C	0.620374	-0.395251	0.566203
C265	C	0.046224	-1.061983	-0.100491
C266	C	0.379558	-0.728649	0.232843
C267	C	0.712891	-0.395316	0.566176
C268	C	0.046220	-1.061030	-0.150910
C269	C	0.379553	-0.727697	0.182423
C270	C	0.712887	-0.394363	0.515757
C271	C	-0.000042	-1.060531	-0.176106
C272	C	0.333291	-0.727198	0.157227
C273	C	0.666625	-0.393864	0.490561
C274	C	0.046167	-1.050388	-0.715594
C275	C	0.379500	-0.717055	-0.382260
C276	C	0.712833	-0.383722	-0.048927
C277	C	0.046158	-1.049430	-0.766014
C278	C	0.379491	-0.716097	-0.432681
C279	C	0.712825	-0.382763	-0.099347
C280	C	-0.046359	-1.049370	-0.765983
C281	C	0.286975	-0.716036	-0.432650
C282	C	0.620308	-0.382703	-0.099317
C283	C	-0.046350	-1.050323	-0.715567
C284	C	0.286983	-0.716990	-0.382234
C285	C	0.620316	-0.383656	-0.048901
C286	C	-0.000084	-1.050835	-0.690374
C287	C	0.333250	-0.717502	-0.357041
C288	C	0.666583	-0.384169	-0.023707
O289	O	-0.085653	-1.051780	-0.635792
O290	O	0.247680	-0.718447	-0.302459
O291	O	0.581013	-0.385113	0.030874
O292	O	0.085516	-1.051942	-0.635807
O293	O	0.418849	-0.718609	-0.302474
O294	O	0.752183	-0.385276	0.030859
C295	C	0.046197	-1.056202	-0.408050
C296	C	0.379530	-0.722869	-0.074717
C297	C	0.712864	-0.389536	0.258616
C298	C	-0.000057	-1.056650	-0.382831
C299	C	0.333276	-0.723317	-0.049497
C300	C	0.666610	-0.389984	0.283836
C301	C	-0.046316	-1.056144	-0.408027
C302	C	0.287018	-0.722811	-0.074693
C303	C	0.620351	-0.389478	0.258640
C304	C	-0.000053	-1.057597	-0.332412
C305	C	0.333280	-0.724263	0.000922
C306	C	0.666613	-0.390930	0.334255
C307	C	0.046205	-1.058103	-0.307215
C308	C	0.379539	-0.724770	0.026118
C309	C	0.712872	-0.391436	0.359451
C310	C	0.092460	-1.057663	-0.332438
C311	C	0.425793	-0.724330	0.000895
C312	C	0.759127	-0.390996	0.334228
C313	C	0.092456	-1.056709	-0.382854
C314	C	0.425789	-0.723375	-0.049521
C315	C	0.759122	-0.390042	0.283813
C316	C	-0.092570	-1.056584	-0.382804
C317	C	0.240763	-0.723251	-0.049471
C318	C	0.574096	-0.389918	0.283863
C319	C	-0.092562	-1.057538	-0.332388
C320	C	0.240771	-0.724204	0.000945
C321	C	0.574105	-0.390871	0.334279
C322	C	-0.046303	-1.058044	-0.307192
C323	C	0.287030	-0.724710	0.026142
C324	C	0.620363	-0.391377	0.359475
C325	C	-0.000089	-1.047909	0.155130
C326	C	0.333245	-0.714576	0.488463
C327	C	0.666578	-0.381242	0.821796
C328	C	-0.000101	-1.048924	0.208790
C329	C	0.333233	-0.715591	0.542123
C330	C	0.666566	-0.382257	0.875457
H331	H	-0.874382	-0.944587	0.126301
H332	H	-0.541049	-0.611253	0.459634
H333	H	-0.207716	-0.277920	0.792968
Cl334	Cl	-0.000097	-0.281082	0.163598
Cl335	Cl	0.333236	0.052252	0.496932
Cl336	Cl	0.666569	0.385585	0.830265
Cl337	Cl	-0.765672	-0.917400	0.140833
Cl338	Cl	-0.432339	-0.584066	0.474166
Cl339	Cl	-0.099006	-0.250733	0.807500
H340	H	-0.000071	-0.763677	0.148975
H341	H	0.333262	-0.430344	0.482308
H342	H	0.666595	-0.097011	0.815642
Cl343	Cl	-0.765566	-1.194062	-0.007312
Cl344	Cl	-0.432232	-0.860729	0.326021
Cl345	Cl	-0.098899	-0.527395	0.659354
H346	H	-0.628698	-0.883237	0.159112
H347	H	-0.295364	-0.549904	0.492445
H348	H	0.037969	-0.216570	0.825778
H349	H	-0.628590	-1.228128	-0.025609
H350	H	-0.295257	-0.894795	0.307725
H351	H	0.038076	-0.561461	0.641058
Cl352	Cl	0.150613	-1.058300	-0.300753
Cl353	Cl	0.483947	-0.724967	0.032580
Cl354	Cl	0.817280	-0.391634	0.365913
H355	H	-0.531807	-0.883210	0.159109
H356	H	-0.198473	-0.549877	0.492443
H357	H	0.134860	-0.216543	0.825776
Cl358	Cl	-0.150730	-1.055945	-0.414471
Cl359	Cl	0.182603	-0.722611	-0.081138
Cl360	Cl	0.515936	-0.389278	0.252195
H361	H	-0.222733	-0.944430	0.126301
H362	H	0.110601	-0.611097	0.459634
H363	H	0.443934	-0.277763	0.792968
H364	H	0.130110	-1.053486	-0.554631
H365	H	0.463443	-0.720153	-0.221298
H366	H	0.796777	-0.386820	0.112035
H367	H	-0.000047	-0.804615	-0.010785
H368	H	0.333287	-0.471281	0.322548
H369	H	0.666620	-0.137948	0.655881
Cl370	Cl	-0.000083	-0.491633	0.165747
Cl371	Cl	0.333250	-0.158299	0.499080
Cl372	Cl	0.666584	0.175034	0.832413
Cl373	Cl	-0.114003	-0.917269	0.140828
Cl374	Cl	0.219331	-0.583935	0.474161
Cl375	Cl	0.552664	-0.250602	0.807494
H376	H	-0.000082	-0.594454	0.147245
H377	H	0.333252	-0.261120	0.480579
H378	H	0.666585	0.072213	0.813912
Cl379	Cl	-0.000077	-0.332000	-0.035161
Cl380	Cl	0.333256	0.001334	0.298172
Cl381	Cl	0.666589	0.334667	0.631506
H382	H	0.083887	-1.060662	-0.171440
H383	H	0.417221	-0.727329	0.161893
H384	H	0.750554	-0.393996	0.495226
Cl385	Cl	-0.113923	-1.193916	-0.007309
Cl386	Cl	0.219410	-0.860582	0.326024
Cl387	Cl	0.552744	-0.527249	0.659357
Cl388	Cl	-0.000055	-0.542557	-0.033014
Cl389	Cl	0.333279	-0.209224	0.300319
Cl390	Cl	0.666612	0.124110	0.633653
H391	H	0.083841	-1.050806	-0.695087
H392	H	0.417175	-0.717473	-0.361754
H393	H	0.750508	-0.384140	-0.028421
Cl394	Cl	-0.000054	-0.619718	-0.032223
Cl395	Cl	0.333279	-0.286385	0.301110
Cl396	Cl	0.666612	0.046949	0.634443
Cl397	Cl	-0.886130	-1.194080	-0.007310
Cl398	Cl	-0.552797	-0.860746	0.326023
Cl399	Cl	-0.219463	-0.527413	0.659356
Cl400	Cl	0.150608	-1.055436	-0.452020
Cl401	Cl	0.483942	-0.722103	-0.118686
Cl402	Cl	0.817275	-0.388769	0.214647
Cl403	Cl	-0.480298	-0.856055	0.173645
Cl404	Cl	-0.146964	-0.522722	0.506978
Cl405	Cl	0.186369	-0.189389	0.840311
H406	H	-0.222653	-1.166786	0.007217
H407	H	0.110681	-0.833453	0.340550
H408	H	0.444014	-0.500120	0.673884
Cl409	Cl	0.104315	-1.048864	-0.797715
Cl410	Cl	0.437648	-0.715531	-0.464382
Cl411	Cl	0.770982	-0.382197	-0.131049
H412	H	-0.531696	-1.228116	-0.025607
H413	H	-0.198362	-0.894783	0.307726
H414	H	0.134971	-0.561449	0.641059
Cl415	Cl	-0.150742	-1.055248	-0.451949
Cl416	Cl	0.182591	-0.721915	-0.118616
Cl417	Cl	0.515925	-0.388581	0.214717
Cl418	Cl	-0.104461	-1.060338	-0.182550
Cl419	Cl	0.228873	-0.727004	0.150783
Cl420	Cl	0.562206	-0.393671	0.484116
Cl421	Cl	-0.359737	-0.856036	0.173637
Cl422	Cl	-0.026404	-0.522702	0.506970
Cl423	Cl	0.306929	-0.189369	0.840304
Cl424	Cl	-0.359616	-1.255218	-0.040134
Cl425	Cl	-0.026282	-0.921885	0.293199
Cl426	Cl	0.307051	-0.588552	0.626533
H427	H	0.083890	-1.062389	-0.079967
H428	H	0.417223	-0.729056	0.253366
H429	H	0.750557	-0.395722	0.586700
Cl430	Cl	-0.104448	-1.062461	-0.068764
Cl431	Cl	0.228885	-0.729127	0.264569
Cl432	Cl	0.562219	-0.395794	0.597902
H433	H	-0.468343	-1.228101	-0.025597
H434	H	-0.135010	-0.894767	0.307736
H435	H	0.198324	-0.561434	0.641069
Cl436	Cl	-0.150747	-1.053124	-0.565737
Cl437	Cl	0.182586	-0.719791	-0.232403
Cl438	Cl	0.515920	-0.386457	0.100930
Cl439	Cl	-0.104504	-1.050887	-0.683862
Cl440	Cl	0.228830	-0.717553	-0.350528
Cl441	Cl	0.562163	-0.384220	-0.017195
Cl442	Cl	-0.104509	-1.048726	-0.797667
Cl443	Cl	0.228824	-0.715393	-0.464334
Cl444	Cl	0.562157	-0.382060	-0.131001
H445	H	0.130124	-1.056343	-0.403383
H446	H	0.463457	-0.723009	-0.070050
H447	H	0.796790	-0.389676	0.263283
H448	H	-0.130234	-1.057895	-0.311858
H449	H	0.203100	-0.724561	0.021475
H450	H	0.536433	-0.391228	0.354809
