data_functionalizedCrystal
_audit_creation_method	'MofGen! by Chris Wilmer'
_symmetry_space_group_name_H-M	'P1'
_symmetry_Int_Tables_number	1
_symmetry_cell_setting	triclinic
loop_
_symmetry_equiv_pos_as_xyz
  x,y,z
_cell_length_a	6.817900
_cell_length_b	16.305597
_cell_length_c	10.943624
_cell_angle_alpha	93.792899
_cell_angle_beta	108.838799
_cell_angle_gamma	103.455834
loop_
_atom_site_label
_atom_site_type_symbol
_atom_site_fract_x
_atom_site_fract_y
_atom_site_fract_z
V1	V	-4.088114	-0.116694	-0.402994
O2	O	-4.074525	0.005630	-0.394867
O3	O	-4.039148	-0.231407	-0.400676
O4	O	-4.066500	-0.114889	-0.578553
O5	O	-4.046984	-0.111694	-0.215758
V6	V	-4.568344	-0.102064	-0.380546
O7	O	-4.356595	-0.148787	-0.452236
O8	O	-4.750061	-0.069971	-0.331304
O9	O	-4.394104	0.012649	-0.382864
O10	O	-4.699330	-0.224388	-0.388673
O11	O	-4.726871	-0.107064	-0.567782
O12	O	-4.366752	-0.103869	-0.204986
C13	C	-3.883145	-0.259371	-0.394431
C14	C	-3.924575	-0.353150	-0.393706
C15	C	-4.075307	-0.693909	-0.391134
C16	C	-3.838504	-0.653078	-0.384083
C17	C	-3.795003	-0.555480	-0.384326
C18	C	-4.000526	-0.524854	-0.392411
C19	C	-4.065013	-0.550229	-0.272111
C20	C	-4.106682	-0.647761	-0.271221
C21	C	-4.232848	-0.673080	-0.518137
C22	C	-4.186359	-0.575567	-0.520365
C23	C	-3.958272	-0.429312	-0.393128
C24	C	-4.117563	-0.789450	-0.390407
C25	C	-3.918033	-0.110741	-0.621330
C26	C	-3.981641	-0.110024	-0.764854
C27	C	-3.827604	-0.105197	-0.841983
C28	C	-4.000152	-0.176838	-0.948245
C29	C	-3.922456	-0.037114	-0.914328
C30	C	-4.153385	-0.181732	-0.869240
C31	C	-4.075623	-0.041944	-0.835299
C32	C	-4.248303	-0.113606	-0.941531
C33	C	-4.213449	0.040609	-0.389104
C34	C	-4.151258	0.134387	-0.389838
C35	C	-4.178559	-0.108020	-0.162202
C36	C	-4.094190	-0.108732	-0.018677
H37	H	-3.805809	-0.683553	-0.469700
N38	N	-3.603830	-0.100873	-0.787450
N39	N	-3.545702	-0.159309	-0.729345
H40	H	-3.387667	-0.156261	-0.690829
N41	N	-3.960958	-0.248366	-1.009955
N42	N	-4.005400	-0.259589	-1.130980
H43	H	-3.977704	-0.310102	-1.174559
H44	H	-4.106782	0.015087	-0.786099
N45	N	-3.964084	-0.662217	-0.151374
N46	N	-3.969006	-0.736727	-0.129052
H47	H	-3.868286	-0.746935	-0.044409
H48	H	-3.654094	-0.521052	-0.292464
N49	N	-4.129675	-0.555886	-0.632035
N50	N	-3.965024	-0.571299	-0.644007
H51	H	-3.924982	-0.557391	-0.722871
H52	H	-3.825445	0.023991	-0.934859
N53	N	-4.275071	-0.258502	-0.843770
N54	N	-4.263574	-0.329340	-0.887487
H55	H	-4.349504	-0.383560	-0.869497
N56	N	-4.472201	-0.118090	-0.995787
N57	N	-4.609402	-0.180950	-0.986736
H58	H	-4.767533	-0.184121	-1.025056
N59	N	-3.728411	-0.534226	-0.492133
N60	N	-3.684786	-0.458335	-0.510746
H61	H	-3.637736	-0.443326	-0.586882
N62	N	-3.689095	-0.670025	-0.269175
N63	N	-3.756258	-0.712042	-0.192453
H64	H	-3.650743	-0.724012	-0.111296
H65	H	-4.276684	-0.674605	-0.271140
H66	H	-4.215242	-0.530377	-0.273425
H67	H	-4.219179	-0.705587	-0.609369
N68	N	-3.898724	-0.505555	-0.153292
N69	N	-3.732592	-0.455008	-0.156890
H70	H	-3.615140	-0.423457	-0.072976
H71	H	-4.340760	-0.555733	-0.533736
H72	H	-4.406466	-0.700077	-0.524558
