data_functionalizedCrystal
_audit_creation_method	'MofGen! by Chris Wilmer'
_symmetry_space_group_name_H-M	'P1'
_symmetry_Int_Tables_number	1
_symmetry_cell_setting	triclinic
loop_
_symmetry_equiv_pos_as_xyz
  x,y,z
_cell_length_a	27.440280
_cell_length_b	27.440280
_cell_length_c	15.698487
_cell_angle_alpha	59.998346
_cell_angle_beta	89.996319
_cell_angle_gamma	60.000166
loop_
_atom_site_label
_atom_site_type_symbol
_atom_site_fract_x
_atom_site_fract_y
_atom_site_fract_z
Zr1	Zr	0.469563	0.533346	-0.111808
O2	O	0.391756	0.635017	-0.247819
O3	O	0.493407	0.431681	-0.070115
O4	O	0.493416	0.533345	-0.247827
O5	O	0.391749	0.533351	0.070078
O6	O	0.573618	0.533337	-0.247832
O7	O	0.391746	0.533353	-0.070106
O8	O	0.573601	0.351479	0.070063
O9	O	0.391766	0.715209	-0.247817
O10	O	0.563440	0.473489	-0.052335
O11	O	0.503588	0.473493	0.052287
O12	O	0.503600	0.593190	-0.156947
O13	O	0.443748	0.593194	-0.052325
Zr14	Zr	0.597481	0.533330	0.111762
Zr15	Zr	0.597476	0.533333	-0.111816
Zr16	Zr	0.469568	0.533342	0.111770
Zr17	Zr	0.469580	0.661243	-0.111805
Zr18	Zr	0.597464	0.405432	0.111759
O19	O	0.573637	0.634994	0.070069
O20	O	0.573631	0.634999	-0.247830
O21	O	0.391762	0.635012	0.070080
O22	O	0.675288	0.431659	0.247773
O23	O	0.675282	0.431663	-0.070126
O24	O	0.493413	0.431677	0.247785
O25	O	0.675295	0.533325	-0.070124
O26	O	0.573628	0.533330	0.247782
O27	O	0.493426	0.533338	0.247787
O28	O	0.675298	0.533323	0.070060
O29	O	0.493440	0.715199	-0.247824
O30	O	0.573604	0.351476	0.247778
O31	O	0.675278	0.351466	0.247771
O32	O	0.675275	0.351469	0.070057
O33	O	0.391769	0.715207	-0.070102
O34	O	0.493443	0.715197	-0.070109
O35	O	0.563444	0.473486	0.156901
O36	O	0.623296	0.473482	0.052279
O37	O	0.563456	0.593182	-0.052333
O38	O	0.503604	0.593187	0.052289
C39	C	0.533501	0.373357	-0.000026
C40	C	0.533494	0.319061	-0.000027
C41	C	0.564781	-0.017683	-0.054625
C42	C	0.564786	-0.068707	-0.054623
O43	O	0.591375	-0.095115	-0.101036
N44	N	0.533544	-0.094221	-0.000013
C45	C	0.502298	-0.068713	0.054606
O46	O	0.475725	-0.095100	0.101056
C47	C	0.502297	-0.017694	0.054608
C48	C	0.533537	0.007823	-0.000013
C49	C	0.596018	0.007833	-0.109242
C50	C	0.596012	0.058854	-0.109246
C51	C	0.564768	0.084360	-0.054634
C52	C	0.533530	0.058844	-0.000017
C53	C	0.471056	0.007810	0.109233
C54	C	0.471057	0.058832	0.109231
C55	C	0.502297	0.084349	0.054610
C56	C	0.502279	0.135371	0.054590
N57	N	0.533522	0.160885	-0.000019
C58	C	0.564766	0.135379	-0.054631
C59	C	0.502305	-0.175858	0.054598
C60	C	0.502303	-0.226873	0.054589
C61	C	0.564791	-0.226864	-0.054637
C62	C	0.564790	-0.175845	-0.054635
C63	C	0.533548	-0.150344	-0.000012
C64	C	0.564750	0.242528	-0.054637
C65	C	0.564739	0.293556	-0.054639
C66	C	0.502253	0.293540	0.054592
C67	C	0.502261	0.242519	0.054590
C68	C	0.533514	0.217013	-0.000026
O69	O	0.475707	0.161809	0.100983
O70	O	0.591341	0.161766	-0.101063
C71	C	0.373522	0.533353	-0.000013
C72	C	0.319220	0.533359	-0.000009
C73	C	-0.017479	0.533323	-0.077253
C74	C	-0.068497	0.533319	-0.077254
O75	O	-0.094873	0.533294	-0.142912
N76	N	-0.094013	0.533319	-0.000026
C77	C	-0.068506	0.533317	0.077213
O78	O	-0.094894	0.533316	0.142902
C79	C	-0.017486	0.533317	0.077217
C80	C	0.008024	0.533324	-0.000022
C81	C	0.008032	0.533329	-0.154485
C82	C	0.059045	0.533336	-0.154485
C83	C	0.084548	0.533336	-0.077254
C84	C	0.059038	0.533330	-0.000022
C85	C	0.008023	0.533310	0.154460
C86	C	0.059046	0.533309	0.154457
C87	C	0.084556	0.533316	0.077219
C88	C	0.135555	0.533336	0.077209
N89	N	0.161071	0.533336	-0.000018
C90	C	0.135568	0.533336	-0.077250
C91	C	-0.175649	0.533316	0.077200
C92	C	-0.226670	0.533321	0.077192
C93	C	-0.226657	0.533321	-0.077274
C94	C	-0.175638	0.533321	-0.077270
C95	C	-0.150133	0.533315	-0.000028
C96	C	0.242700	0.533349	-0.077245
C97	C	0.293717	0.533358	-0.077241
C98	C	0.293702	0.533354	0.077228
C99	C	0.242687	0.533349	0.077221
C100	C	0.217189	0.533344	-0.000020
O101	O	0.161965	0.533358	0.142837
O102	O	0.161967	0.533328	-0.142919
C103	C	0.693522	0.533322	-0.000033
C104	C	0.747824	0.533317	-0.000037
C105	C	0.533517	0.533342	-0.279685
C106	C	0.533515	0.533343	-0.374600
C107	C	0.533543	0.693318	-0.000020
C108	C	0.533550	0.747614	-0.000019
C109	C	0.533529	0.533331	-0.548364
C110	C	0.533523	0.533335	-0.451667
C111	C	0.533527	0.533334	0.279639
C112	C	0.533529	0.533333	0.374554
C113	C	0.693501	0.373342	-0.000036
C114	C	0.747796	0.319040	-0.000041
C115	C	0.533507	0.373353	0.279636
C116	C	0.533501	0.319056	0.374549
C117	C	0.693506	0.373338	0.279626
C118	C	0.747803	0.319035	0.374536
C119	C	0.373538	0.693338	-0.279672
C120	C	0.319241	0.747640	-0.374582
C121	C	0.373543	0.693334	-0.000009
C122	C	0.319248	0.747635	-0.000005
C123	C	0.533537	0.693322	-0.279682
C124	C	0.533543	0.747619	-0.374595
C125	C	0.742050	0.293544	-0.054660
C126	C	0.793061	0.242529	-0.054685
C127	C	0.849819	0.217009	-0.000085
C128	C	0.855564	0.242510	0.054536
C129	C	0.804553	0.293527	0.054555
C130	C	0.564743	0.293554	0.473739
C131	C	0.564736	0.242543	0.562929
C132	C	0.533490	0.217032	0.552927
C133	C	0.502245	0.242539	0.453727
C134	C	0.502249	0.293553	0.364540
C135	C	0.804549	0.293532	0.364495
C136	C	0.855572	0.242516	0.453665
C137	C	0.849848	0.217001	0.552874
C138	C	0.793096	0.242509	0.562913
C139	C	0.742074	0.293528	0.473744
C140	C	0.262495	0.773150	-0.364541
C141	C	0.211472	0.824181	-0.453711
C142	C	0.217196	0.849699	-0.552920
C143	C	0.273948	0.824188	-0.562959
C144	C	0.324970	0.773160	-0.473790
C145	C	0.324994	0.773137	0.054605
C146	C	0.273983	0.824166	0.054605
C147	C	0.217226	0.849688	0.000002
C148	C	0.211480	0.824184	-0.054615
C149	C	0.262491	0.773160	-0.054621
C150	C	0.564794	0.773114	-0.364560
C151	C	0.564811	0.824125	-0.453733
C152	C	0.533572	0.849644	-0.552940
C153	C	0.502319	0.824144	-0.562973
C154	C	0.502306	0.773131	-0.473801
H155	H	0.621464	-0.012931	-0.153712
O156	O	0.386208	0.745616	0.113499
H157	H	0.410947	0.755399	0.058359
H158	H	0.165262	0.844972	-0.099072
O159	O	0.468648	0.851655	-0.669982
H160	H	0.446922	0.825349	-0.661992
H161	H	0.695840	0.314322	-0.099135
H162	H	0.788372	0.221772	-0.099164
O163	O	0.904836	0.161977	-0.000099
H164	H	0.891299	0.148534	-0.047246
O165	O	0.086559	0.533339	-0.237790
H166	H	0.100129	0.486615	-0.233982
O167	O	0.533584	0.904674	-0.649110
H168	H	0.553136	0.885099	-0.696209
O169	O	0.256290	0.745649	-0.113513
H170	H	0.208252	0.771967	-0.151468
H171	H	0.809222	0.314299	0.283722
H172	H	0.476856	-0.247636	0.099054
H173	H	0.476855	0.752378	-0.481987
O174	O	0.468589	0.321063	0.257523
H175	H	0.500167	0.311252	0.214343
O176	O	0.598435	0.321077	-0.113552
H177	H	0.620166	0.294760	-0.151516
O178	O	0.786925	0.214978	0.669920
H179	H	0.831940	0.175210	0.730228
O180	O	0.598488	-0.148332	-0.113544
H181	H	0.566949	-0.092053	-0.173908
H182	H	0.257822	0.752376	-0.283768
O183	O	0.598450	0.215027	-0.113554
H184	H	0.620162	0.241354	-0.151537
O185	O	0.916779	0.215001	0.442827
H186	H	0.912183	0.241307	0.358858
O187	O	-0.019476	0.533338	-0.237799
H188	H	0.006839	0.533349	-0.291499
O189	O	0.598521	0.851623	-0.442898
H190	H	0.580460	0.874873	-0.399604
H191	H	0.590233	0.752345	-0.283789
H192	H	0.901782	0.221724	0.098990
H193	H	0.695871	0.314286	0.481934
O194	O	0.386168	0.745667	-0.484655
H195	H	0.410909	0.755464	-0.446657
O196	O	0.533499	0.161998	0.649126
H197	H	0.560483	0.148547	0.719776
H198	H	0.809240	0.314280	0.099038
H199	H	0.891398	0.175458	0.625473
O200	O	0.162164	0.904744	-0.649093
H201	H	0.121745	0.918190	-0.625433
O202	O	0.150265	0.851680	-0.442873
H203	H	0.154862	0.825348	-0.358904
O204	O	0.280119	0.851708	-0.669965
H205	H	0.235104	0.891468	-0.730274
H206	H	0.621452	0.079624	-0.153720
O207	O	0.598443	0.321067	0.484539
H208	H	0.620157	0.294763	0.568502
H209	H	0.590182	0.221781	0.643693
H210	H	-0.154870	0.533326	-0.140163
O211	O	0.598494	-0.254379	-0.113542
H212	H	0.633026	-0.310658	-0.058405
O213	O	0.468595	-0.148343	0.113497
H214	H	0.446868	-0.174655	0.151456
H215	H	0.278672	0.844923	0.099085
H216	H	0.476805	0.221761	0.445599
H217	H	0.445618	-0.012957	0.153713
H218	H	0.175694	0.891235	0.000015
H219	H	0.476815	0.221751	0.099054
O220	O	0.437368	0.086343	0.168149
H221	H	0.389350	0.109591	0.136603
O222	O	0.468589	0.321039	0.113534
H223	H	0.434064	0.377323	0.058436
O224	O	0.321234	0.533363	-0.160549
H225	H	0.294930	0.533355	-0.214244
H226	H	0.221946	0.533344	-0.140141
H227	H	-0.247431	0.533320	-0.140159
H228	H	-0.154888	0.533317	0.140098
O229	O	-0.254178	0.533311	0.160505
H230	H	-0.267741	0.580026	0.156720
O231	O	-0.019469	0.533283	0.237791
H232	H	-0.033028	0.579992	0.234021
O233	O	0.086555	0.533306	0.237768
H234	H	0.060239	0.533305	0.291465
H235	H	0.314473	0.533357	0.140106
O236	O	0.215166	0.533344	0.160523
H237	H	0.241475	0.533342	0.214229
