data_functionalizedCrystal
_audit_creation_method	'MofGen! by Chris Wilmer'
_symmetry_space_group_name_H-M	'P1'
_symmetry_Int_Tables_number	1
_symmetry_cell_setting	triclinic
loop_
_symmetry_equiv_pos_as_xyz
  x,y,z
_cell_length_a	14.519709
_cell_length_b	16.992695
_cell_length_c	16.053802
_cell_angle_alpha	87.258926
_cell_angle_beta	92.580376
_cell_angle_gamma	87.174184
loop_
_atom_site_label
_atom_site_type_symbol
_atom_site_fract_x
_atom_site_fract_y
_atom_site_fract_z
O1	O	-1.234886	-0.099504	-0.069320
O2	O	-0.734886	0.400496	0.430680
O3	O	-0.967279	-0.111608	-0.069346
O4	O	-0.467279	0.388392	0.430654
O5	O	-1.100010	0.008588	-0.069327
O6	O	-0.600010	0.508588	0.430673
O7	O	-1.102156	-0.219700	-0.069340
O8	O	-0.602156	0.280300	0.430660
O9	O	-1.092702	0.001999	0.069531
O10	O	-0.592702	0.501999	0.569531
O11	O	-0.959971	-0.118197	0.069512
O12	O	-0.459971	0.381803	0.569512
O13	O	-1.227578	-0.106092	0.069537
O14	O	-0.727578	0.393908	0.569537
Zn15	Zn	-1.092615	-0.113191	0.091571
Zn16	Zn	-0.592615	0.386809	0.591571
Zn17	Zn	-1.102243	-0.104510	-0.091380
Zn18	Zn	-0.602243	0.395490	0.408620
O19	O	-1.094848	-0.226288	0.069518
O20	O	-0.594848	0.273712	0.569518
C21	C	-1.093596	0.034510	0.000102
C22	C	-0.593596	0.534510	0.500102
C23	C	-1.085360	0.121566	0.000101
C24	C	-0.585360	0.621566	0.500101
C25	C	-0.929225	-0.114338	0.000080
C26	C	-0.429225	0.385662	0.500080
C27	C	-0.826723	-0.112647	0.000070
C28	C	-0.326723	0.387353	0.500070
C29	C	-1.265632	-0.103362	0.000110
C30	C	-0.765632	0.396638	0.500110
C31	C	-1.368135	-0.105053	0.000114
C32	C	-0.868135	0.394947	0.500114
C33	C	-0.451379	-0.106425	0.000108
C34	C	0.048621	0.393575	0.500108
C35	C	-0.555811	-0.108153	0.000097
C36	C	-0.055811	0.391847	0.500097
C37	C	-0.639048	-0.109536	0.000088
C38	C	-0.139048	0.390464	0.500088
C39	C	-0.743487	-0.111264	0.000079
C40	C	-0.243487	0.388736	0.500079
C41	C	-1.101262	-0.252210	0.000088
C42	C	-0.601262	0.247790	0.500088
C43	C	-1.109498	-0.339266	0.000083
C44	C	-0.609498	0.160734	0.500083
N45	N	-1.086050	-0.119115	0.216431
N46	N	-0.586050	0.380885	0.716431
C47	C	-1.164820	0.171694	0.000109
C48	C	-0.664820	0.671694	0.500109
C49	C	-1.157077	0.253492	0.000101
C50	C	-0.657077	0.753492	0.500101
C51	C	-1.069873	0.285160	0.000089
C52	C	-0.569873	0.785160	0.500089
C53	C	-0.990408	0.235025	0.000079
C54	C	-0.490408	0.735025	0.500079
C55	C	-0.998152	0.153229	0.000081
C56	C	-0.498152	0.653229	0.500081
C57	C	-1.037777	0.528803	0.000075
C58	C	-0.537777	1.028803	0.500075
C59	C	-1.030038	0.610605	0.000075
C60	C	-0.530038	1.110605	0.500075
C61	C	-1.196708	0.629067	0.000095
C62	C	-0.696708	1.129067	0.500095
C63	C	-1.204444	0.547269	0.000103
C64	C	-0.704444	1.047269	0.500103
C65	C	-1.124979	0.497141	0.000088
C66	C	-0.624979	0.997141	0.500088
N67	N	-1.061956	0.368770	0.000083
N68	N	-0.561956	0.868770	0.500083
N69	N	-1.132897	0.413533	0.000088
N70	N	-0.632897	0.913533	0.500088
N71	N	-1.108814	-0.098580	-0.216239
N72	N	-0.608814	0.401420	0.283761
C73	C	-1.142550	-0.067989	0.260133
C74	C	-0.642550	0.432011	0.760133
C75	C	-1.137968	-0.072141	0.347539
C76	C	-0.637968	0.427859	0.847539
C77	C	-1.076889	-0.127422	0.391241
C78	C	-0.576889	0.372578	0.891241
C79	C	-1.020382	-0.178549	0.347533
C80	C	-0.520382	0.321451	0.847533
C81	C	-1.024961	-0.174393	0.260128
C82	C	-0.524961	0.325607	0.760128
C83	C	-1.056886	-0.145552	0.652648
C84	C	-0.556886	0.354448	1.152648
C85	C	-1.052314	-0.149705	0.740059
C86	C	-0.552314	0.350295	1.240059
C87	C	-1.169899	-0.043295	0.740058
C88	C	-0.669899	0.456705	1.240058
C89	C	-1.174476	-0.039147	0.652652
C90	C	-0.674476	0.460853	1.152652
C91	C	-1.117966	-0.090272	0.608952
C92	C	-0.617966	0.409728	1.108952
N93	N	-1.072205	-0.131668	0.480584
N94	N	-0.572205	0.368332	0.980584
N95	N	-1.122646	-0.086022	0.519610
N96	N	-0.622646	0.413978	1.019610
H97	H	-1.221781	0.294304	0.000109
H98	H	-0.721781	0.794304	0.500109
O99	O	-1.240346	0.020483	0.605515
O100	O	-0.740346	0.520483	1.105515
H101	H	-1.278858	0.055343	0.650589
H102	H	-0.778858	0.555343	1.150589
H103	H	-1.275455	0.521492	0.000112
H104	H	-0.775455	1.021492	0.500112
H105	H	-1.261404	0.669890	0.000106
H106	H	-0.761404	1.169890	0.500106
H107	H	-0.959022	0.636384	0.000079
H108	H	-0.459022	1.136384	0.500079
O109	O	-0.952071	0.474740	0.000080
O110	O	-0.452071	0.974740	0.500080
H111	H	-0.890135	0.510505	0.000086
H112	H	-0.390135	1.010505	0.500086
O113	O	-1.258877	0.137541	0.000123
O114	O	-0.758877	0.637541	0.500123
H115	H	-1.269365	0.103393	-0.056468
H116	H	-0.769365	0.603393	0.443532
O117	O	-1.198906	-0.017002	0.394681
O118	O	-0.698906	0.482998	0.894681
H119	H	-1.244064	-0.051997	0.434499
H120	H	-0.744064	0.448003	0.934499
O121	O	-0.954506	-0.238179	0.394663
O122	O	-0.454506	0.261821	0.894663
H123	H	-0.960821	-0.232488	0.462783
H124	H	-0.460821	0.267512	0.962783
H125	H	-1.002574	-0.194725	0.775637
H126	H	-0.502574	0.305275	1.275637
O127	O	-0.964023	-0.229529	0.212978
O128	O	-0.464023	0.270471	0.712978
H129	H	-0.979397	-0.291484	0.229726
H130	H	-0.479397	0.208516	0.729726
O131	O	-0.896351	0.269179	0.000076
O132	O	-0.396351	0.769179	0.500076
H133	H	-0.891814	0.308694	-0.056515
H134	H	-0.391814	0.808694	0.443485
O135	O	-0.912451	0.099155	0.000081
O136	O	-0.412451	0.599155	0.500081
H137	H	-0.850510	0.134915	0.000083
H138	H	-0.350510	0.634915	0.500083
H139	H	-1.010876	-0.187181	0.617074
H140	H	-0.510876	0.312819	1.117074
O141	O	-1.208425	-0.008361	0.212997
O142	O	-0.708425	0.491639	0.712997
H143	H	-1.246935	0.026497	0.258074
H144	H	-0.746935	0.526497	0.758074
H145	H	-1.215905	-0.001671	0.775647
H146	H	-0.715905	0.498329	1.275647
