data_functionalizedCrystal
_audit_creation_method	'MofGen! by Chris Wilmer'
_symmetry_space_group_name_H-M	'P1'
_symmetry_Int_Tables_number	1
_symmetry_cell_setting	triclinic
loop_
_symmetry_equiv_pos_as_xyz
  x,y,z
_cell_length_a	8.597366
_cell_length_b	8.634740
_cell_length_c	7.540329
_cell_angle_alpha	89.998541
_cell_angle_beta	97.699001
_cell_angle_gamma	92.879812
loop_
_atom_site_label
_atom_site_type_symbol
_atom_site_fract_x
_atom_site_fract_y
_atom_site_fract_z
O1	O	2.117278	0.230667	0.176060
O2	O	2.617278	0.730667	0.676060
O3	O	1.663029	0.248366	0.106645
O4	O	2.163029	0.748366	0.606645
O5	O	1.868651	0.014717	0.138071
O6	O	2.368651	0.514717	0.638071
O7	O	1.911656	0.464316	0.144634
O8	O	2.411656	0.964316	0.644634
O9	O	1.868636	0.014713	0.433033
O10	O	2.368636	0.514713	0.933033
O11	O	1.663014	0.248363	0.401607
O12	O	2.163014	0.748363	0.901607
O13	O	2.117264	0.230664	0.471023
O14	O	2.617264	0.730664	0.971023
Cu15	Cu	1.890138	0.239513	0.463247
Cu16	Cu	2.390138	0.739513	0.963247
Cu17	Cu	1.890155	0.239517	0.114420
Cu18	Cu	2.390155	0.739517	0.614420
O19	O	1.911642	0.464313	0.439597
O20	O	2.411642	0.964313	0.939597
C21	C	1.604264	0.246465	0.245147
C22	C	2.104264	0.746465	0.745147
C23	C	1.429181	0.240784	0.218392
C24	C	1.929181	0.740784	0.718392
C25	C	1.858902	-0.042882	0.284061
C26	C	2.358902	0.457118	0.784061
C27	C	1.829854	-0.214503	0.279614
C28	C	2.329854	0.285497	0.779614
C29	C	2.176029	0.232565	0.332516
C30	C	2.676029	0.732565	0.832516
C31	C	2.351112	0.238246	0.359260
C32	C	2.851112	0.738246	0.859260
C33	C	1.921391	0.521912	0.293603
C34	C	2.421391	1.021912	0.793603
C35	C	1.950439	0.693533	0.298038
C36	C	2.450439	1.193533	0.798038
N37	N	1.890137	0.239510	0.708596
N38	N	2.390137	0.739510	1.208596
N39	N	1.890167	0.239508	-0.130927
N40	N	2.390167	0.739508	0.369073
H41	H	1.362076	0.238600	0.077309
H42	H	1.862076	0.738600	0.577309
F43	F	1.665855	-0.283206	0.254536
F44	F	2.165855	0.216794	0.754536
F45	F	1.438826	0.241084	0.543680
F46	F	1.938826	0.741084	1.043680
F47	F	2.114429	-0.237770	0.323088
F48	F	2.614429	0.262230	0.823088
