data_functionalizedCrystal
_audit_creation_method	'MofGen! by Chris Wilmer'
_symmetry_space_group_name_H-M	'P1'
_symmetry_Int_Tables_number	1
_symmetry_cell_setting	triclinic
loop_
_symmetry_equiv_pos_as_xyz
  x,y,z
_cell_length_a	19.188925
_cell_length_b	18.266242
_cell_length_c	16.974813
_cell_angle_alpha	93.659691
_cell_angle_beta	83.269101
_cell_angle_gamma	90.009890
loop_
_atom_site_label
_atom_site_type_symbol
_atom_site_fract_x
_atom_site_fract_y
_atom_site_fract_z
O1	O	0.926324	0.066743	0.098695
O2	O	1.426324	0.566743	0.598695
O3	O	0.723035	0.067528	0.111988
O4	O	1.223035	0.567528	0.611988
O5	O	0.830346	0.060312	-0.009782
O6	O	1.330346	0.560312	0.490218
O7	O	0.819013	0.073960	0.220465
O8	O	1.319013	0.573960	0.720465
O9	O	0.830328	-0.061451	-0.009785
O10	O	1.330328	0.438549	0.490215
O11	O	0.723017	-0.054234	0.111985
O12	O	1.223017	0.445766	0.611985
O13	O	0.926305	-0.055019	0.098692
O14	O	1.426305	0.444981	0.598692
Zn15	Zn	0.824658	-0.073959	0.105338
Zn16	Zn	1.324658	0.426041	0.605338
Zn17	Zn	0.824682	0.086468	0.105342
Zn18	Zn	1.324682	0.586468	0.605342
O19	O	0.818994	-0.047803	0.220461
O20	O	1.318994	0.452197	0.720461
C21	C	0.697014	0.006621	0.111557
C22	C	1.197014	0.506621	0.611557
C23	C	0.619507	0.006544	0.110267
C24	C	1.119507	0.506544	0.610267
N25	N	0.824647	-0.183446	0.105334
N26	N	1.324647	0.316554	0.605334
C27	C	0.057846	0.010269	0.173079
C28	C	0.557846	0.510269	0.673079
C29	C	0.130672	0.010345	0.174298
C30	C	0.630672	0.510345	0.674298
C31	C	0.175482	0.006109	0.102847
C32	C	0.675482	0.506109	0.602847
C33	C	0.147461	0.001814	0.030172
C34	C	0.647461	0.501814	0.530172
C35	C	0.074637	0.001746	0.028955
C36	C	0.574637	0.501746	0.528955
N37	N	0.296062	-0.038406	0.051119
N38	N	0.796062	0.461594	0.551119
N39	N	0.365242	-0.038342	0.052280
N40	N	0.865242	0.461658	0.552280
C41	C	0.394897	0.006317	0.106510
C42	C	0.894897	0.506317	0.606510
N43	N	0.352758	0.050902	0.159547
N44	N	0.852758	0.550902	0.659547
N45	N	0.283572	0.050834	0.158388
N46	N	0.783572	0.550834	0.658388
C47	C	0.254448	0.006183	0.104159
C48	C	0.754448	0.506183	0.604159
C49	C	0.501875	0.010699	0.180502
C50	C	1.001875	0.510699	0.680502
C51	C	0.574702	0.010780	0.181718
C52	C	1.074702	0.510780	0.681718
C53	C	0.591490	0.002241	0.037590
C54	C	1.091490	0.502241	0.537590
C55	C	0.518664	0.002168	0.036376
C56	C	1.018664	0.502168	0.536376
C57	C	0.473861	0.006394	0.107834
C58	C	0.973861	0.506394	0.607834
C59	C	0.866939	-0.218912	0.153175
C60	C	1.366939	0.281088	0.653175
C61	C	0.866951	-0.295558	0.153173
C62	C	1.366951	0.204442	0.653173
C63	C	0.824657	-0.336733	0.105339
C64	C	1.324657	0.163267	0.605339
C65	C	0.782362	-0.301258	0.057488
C66	C	1.282362	0.198742	0.557488
C67	C	0.782357	-0.224614	0.057485
C68	C	1.282357	0.275386	0.557485
N69	N	0.763506	-0.457201	0.103392
N70	N	1.263506	0.042799	0.603392
N71	N	0.763512	-0.530009	0.103399
N72	N	1.263512	-0.030009	0.603399
C73	C	0.824671	-0.567655	0.105342
C74	C	1.324671	-0.067655	0.605342
N75	N	0.885823	-0.529742	0.107293
N76	N	1.385823	-0.029742	0.607293
N77	N	0.885816	-0.456927	0.107290
N78	N	1.385816	0.043073	0.607290
C79	C	0.824658	-0.419840	0.105336
C80	C	1.324658	0.080160	0.605336
C81	C	0.866980	-0.686228	0.153183
C82	C	1.366980	-0.186228	0.653183
C83	C	0.866993	-0.762875	0.153175
C84	C	1.366993	-0.262875	0.653175
C85	C	0.782397	-0.768574	0.057495
C86	C	1.282397	-0.268574	0.557495
C87	C	0.782390	-0.691929	0.057498
C88	C	1.282390	-0.191929	0.557498
C89	C	0.824681	-0.650760	0.105346
C90	C	1.324681	-0.150760	0.605346
C91	C	0.952326	0.005889	0.099123
C92	C	1.452326	0.505889	0.599123
C93	C	1.029833	0.005971	0.100413
C94	C	1.529833	0.505971	0.600413
C95	C	0.829905	-0.002314	-0.039240
C96	C	1.329905	0.497686	0.460760
C97	C	0.828612	-0.007512	-0.127013
C98	C	1.328612	0.492488	0.372987
N99	N	0.824699	0.195955	0.105339
N100	N	1.324699	0.695955	0.605339
C101	C	0.828016	0.056418	-0.168242
C102	C	1.328016	0.556418	0.331758
C103	C	0.826796	0.051531	-0.250713
C104	C	1.326796	0.551531	0.249287
C105	C	0.826177	-0.017286	-0.291953
C106	C	1.326177	0.482714	0.208047
C107	C	0.826771	-0.081221	-0.250718
C108	C	1.326771	0.418779	0.249282
C109	C	0.827986	-0.076333	-0.168248
C110	C	1.327986	0.423667	0.331752
C111	C	0.822538	-0.039020	-0.538602
C112	C	1.322538	0.460980	-0.038602
C113	C	0.821325	-0.043902	-0.621078
C114	C	1.321325	0.456098	-0.121078
C115	C	0.821348	0.088850	-0.621067
C116	C	1.321348	0.588850	-0.121067
C117	C	0.822567	0.093731	-0.538596
C118	C	1.322567	0.593731	-0.038596
C119	C	0.823158	0.029797	-0.497367
C120	C	1.323158	0.529797	0.002633
N121	N	0.824932	-0.022282	-0.376252
N122	N	1.324932	0.477718	0.123748
N123	N	0.824397	0.034794	-0.413069
N124	N	1.324397	0.534794	0.086931
C125	C	0.819435	0.014825	0.249920
C126	C	1.319435	0.514825	0.749920
C127	C	0.820729	0.020028	0.337692
C128	C	1.320729	0.520028	0.837692
H129	H	0.021371	0.013713	0.231266
H130	H	0.521371	0.513713	0.731266
H131	H	0.183950	-0.001633	-0.028004
H132	H	0.683950	0.498367	0.471996
H133	H	0.153484	0.013838	0.233473
H134	H	0.653484	0.513838	0.733473
H135	H	0.627974	-0.001203	-0.020586
H136	H	1.127974	0.498797	0.479414
H137	H	0.051830	-0.001754	-0.030220
H138	H	0.551830	0.498246	0.469780
O139	O	0.826078	-0.148027	-0.290851
O140	O	1.326078	0.351973	0.209149
C141	C	0.764929	-0.154293	-0.329380
C142	C	1.264929	0.345707	0.170620
H143	H	0.744604	-0.097216	-0.338676
H144	H	1.244604	0.402784	0.161324
H145	H	0.777669	-0.185942	-0.389436
H146	H	1.277669	0.314058	0.110564
H147	H	0.723070	-0.184788	-0.291185
H148	H	1.223070	0.315212	0.208815
O149	O	0.458448	0.014851	0.249985
O150	O	0.958448	0.514851	0.749985
C151	C	0.498793	0.018652	0.314386
C152	C	0.998793	0.518652	0.814386
H153	H	0.553170	0.040502	0.294128
H154	H	1.053170	0.540502	0.794128
H155	H	0.471887	0.056971	0.364433
H156	H	0.971887	0.556971	0.864433
H157	H	0.503947	-0.038442	0.336673
H158	H	1.003947	0.461558	0.836673
H159	H	0.747916	-0.195738	0.018526
H160	H	1.247916	0.304262	0.518526
H161	H	0.597508	0.014286	0.240893
H162	H	1.097508	0.514286	0.740893
O163	O	0.741331	-0.808671	0.011100
O164	O	1.241331	-0.308671	0.511100
C165	C	0.750376	-0.883923	0.021392
C166	C	1.250376	-0.383923	0.521392
H167	H	0.770191	-0.890818	0.081245
H168	H	1.270191	-0.390818	0.581245
H169	H	0.698042	-0.913151	0.019538
H170	H	1.198042	-0.413151	0.519538
H171	H	0.790209	-0.908651	-0.028284
H172	H	1.290209	-0.408651	0.471716
O173	O	0.908053	-0.329902	0.199724
O174	O	1.408053	0.170098	0.699724
C175	C	0.945393	-0.277132	0.241937
C176	C	1.445393	0.222868	0.741937
H177	H	0.916486	-0.222225	0.246629
H178	H	1.416486	0.277775	0.746629
H179	H	0.949656	-0.295588	0.304104
H180	H	1.449656	0.204412	0.804104
H181	H	1.000229	-0.270912	0.209214
H182	H	1.500229	0.229088	0.709214
O183	O	0.491565	-0.002053	-0.034281
O184	O	0.991565	0.497947	0.465719
C185	C	0.546728	-0.005758	-0.097086
C186	C	1.046728	0.494242	0.402914
H187	H	0.596175	-0.027508	-0.075095
H188	H	1.096175	0.472492	0.424905
H189	H	0.531552	-0.044115	-0.147839
H190	H	1.031552	0.455885	0.352161
H191	H	0.557065	0.051352	-0.119111
H192	H	1.057065	0.551352	0.380889
H193	H	0.747948	-0.663052	0.018543
H194	H	1.247948	-0.163052	0.518543
O195	O	0.907917	-0.178888	0.199745
O196	O	1.407917	0.321112	0.699745
C197	C	0.865289	-0.131345	0.253804
C198	C	1.365289	0.368655	0.753804
H199	H	0.809725	-0.153940	0.262443
H200	H	1.309725	0.346060	0.762443
H201	H	0.887534	-0.126945	0.313308
H202	H	1.387534	0.373055	0.813308
H203	H	0.864137	-0.074706	0.229377
H204	H	1.364137	0.425294	0.729377
H205	H	0.747926	-0.334788	0.018540
H206	H	1.247926	0.165212	0.518540
O207	O	0.823216	-0.101069	-0.498482
O208	O	1.323216	0.398931	0.001518
C209	C	0.884367	-0.102756	-0.459959
C210	C	1.384367	0.397244	0.040041
H211	H	0.904703	-0.044573	-0.450661
H212	H	1.404703	0.455427	0.049339
H213	H	0.871627	-0.127286	-0.399904
H214	H	1.371627	0.372714	0.100096
H215	H	0.926218	-0.137772	-0.498160
H216	H	1.426218	0.362228	0.001840
H217	H	0.820817	-0.099944	-0.654654
H218	H	1.320817	0.400056	-0.154654
H219	H	0.901415	-0.652707	0.192144
H220	H	1.401415	-0.152707	0.692144
O221	O	0.826319	0.113573	-0.290877
O222	O	1.326319	0.613573	0.209123
C223	C	0.886067	0.114161	-0.347730
C224	C	1.386067	0.614161	0.152270
H225	H	0.906016	0.055613	-0.363126
H226	H	1.406016	0.555613	0.136874
H227	H	0.871631	0.138928	-0.403670
H228	H	1.371631	0.638928	0.096330
H229	H	0.928868	0.148417	-0.322370
H230	H	1.428868	0.648417	0.177630
O231	O	0.908097	-0.797212	0.199724
O232	O	1.408097	-0.297212	0.699724
C233	C	0.945432	-0.744437	0.241938
C234	C	1.445432	-0.244437	0.741938
H235	H	0.916519	-0.689533	0.246632
H236	H	1.416519	-0.189533	0.746632
H237	H	0.949696	-0.762893	0.304105
H238	H	1.449696	-0.262893	0.804105
H239	H	1.000267	-0.738211	0.209216
H240	H	1.500267	-0.238211	0.709216
H241	H	0.828523	0.112456	-0.134670
H242	H	1.328523	0.612456	0.365330
H243	H	0.823072	0.149770	-0.505024
H244	H	1.323072	0.649770	-0.005024
O245	O	0.820639	0.150928	-0.661140
O246	O	1.320639	0.650928	-0.161140
C247	C	0.759503	0.152593	-0.699691
C248	C	1.259503	0.652593	-0.199691
H249	H	0.717625	0.116777	-0.668427
H250	H	1.217625	0.616777	-0.168427
H251	H	0.739204	0.211421	-0.697555
H252	H	1.239204	0.711421	-0.197555
H253	H	0.772243	0.130927	-0.764265
H254	H	1.272243	0.630927	-0.264265
H255	H	0.828462	-0.128392	-0.134679
H256	H	1.328462	0.371608	0.365321
