data_functionalizedCrystal
_audit_creation_method	'MofGen! by Chris Wilmer'
_symmetry_space_group_name_H-M	'P1'
_symmetry_Int_Tables_number	1
_symmetry_cell_setting	triclinic
loop_
_symmetry_equiv_pos_as_xyz
  x,y,z
_cell_length_a	16.974885
_cell_length_b	15.455313
_cell_length_c	15.538191
_cell_angle_alpha	91.603349
_cell_angle_beta	65.372169
_cell_angle_gamma	90.969048
loop_
_atom_site_label
_atom_site_type_symbol
_atom_site_fract_x
_atom_site_fract_y
_atom_site_fract_z
O1	O	1.014735	-0.000957	0.120019
O2	O	0.781195	-0.017336	0.134388
O3	O	0.943426	-0.005962	-0.009805
O4	O	0.852504	-0.012331	0.264211
O5	O	0.934158	0.137650	-0.001593
O6	O	0.771927	0.126276	0.142599
O7	O	1.005468	0.142655	0.128230
Cu8	Cu	0.887851	0.147579	0.136165
Cu9	Cu	0.898811	-0.022260	0.126454
O10	O	0.843237	0.131281	0.272423
C11	C	0.747401	0.052424	0.137796
C12	C	0.660519	0.046331	0.135705
C13	C	0.948305	0.066508	-0.040769
C14	C	0.976641	0.068487	-0.145267
C15	C	0.172020	0.003566	0.123420
C16	C	0.253655	0.009304	0.125385
C17	C	0.289409	0.090456	0.130851
C18	C	0.243529	0.165876	0.134342
C19	C	0.161898	0.160138	0.132370
C20	C	0.533007	0.116012	0.137223
C21	C	0.614643	0.121745	0.139198
C22	C	0.624764	-0.034828	0.130240
C23	C	0.543129	-0.040559	0.128273
C24	C	0.497257	0.034861	0.131760
N25	N	0.372852	0.096323	0.132863
N26	N	0.413819	0.028993	0.129741
C27	C	1.039261	0.072892	0.124823
C28	C	1.126144	0.078981	0.126913
N29	N	0.880149	0.267034	0.142994
N30	N	0.906522	-0.141715	0.119616
C31	C	0.949082	0.317261	0.081759
C32	C	0.943261	0.407661	0.086933
C33	C	0.868510	0.447832	0.153347
C34	C	0.799571	0.397598	0.214585
C35	C	0.805389	0.307200	0.209406
C36	C	0.843402	0.717653	0.175676
C37	C	0.837589	0.808058	0.180852
C38	C	0.981280	0.818115	0.053198
C39	C	0.987094	0.727714	0.048028
C40	C	0.918153	0.677488	0.109263
N41	N	0.862560	0.540235	0.158639
N42	N	0.924101	0.585087	0.103966
C43	C	0.695135	0.048762	-0.433811
C44	C	0.721780	0.050633	-0.532005
C45	C	0.871654	0.061144	-0.554047
C46	C	0.845021	0.059270	-0.455852
C47	C	0.756761	0.053080	-0.395742
C48	C	0.906647	0.063587	-0.417783
C49	C	0.880016	0.061718	-0.319597
C50	C	0.791760	0.055531	-0.259480
C51	C	0.730130	0.051210	-0.297556
C52	C	0.994907	0.069783	-0.477896
C53	C	1.056533	0.074101	-0.439827
C54	C	1.029902	0.072225	-0.341639
C55	C	0.941646	0.066038	-0.281522
C56	C	1.091532	0.076546	-0.303564
C57	C	1.064901	0.074677	-0.205378
C58	C	0.915015	0.064169	-0.183336
C59	C	0.838357	0.058809	0.303387
C60	C	0.810022	0.056825	0.407885
H61	H	0.142912	-0.062517	0.118975
F62	F	0.652694	0.208123	0.145015
F63	F	0.656182	0.046041	-0.572516
F64	F	0.281585	0.252246	0.140156
F65	F	0.636193	0.044614	-0.233576
H66	H	0.124543	0.221549	0.135224
H67	H	0.749256	0.266306	0.259269
F68	F	0.302477	-0.070963	0.121662
F69	F	0.770032	0.664206	0.240848
F70	F	0.763416	0.053548	-0.154980
H71	H	0.495674	0.177425	0.140048
F72	F	0.505082	-0.126933	0.122457
H73	H	1.047962	0.695009	-0.006051
H74	H	0.662121	-0.096231	0.127400
H75	H	1.009954	0.284560	0.027681
H76	H	0.999391	0.448556	0.037069
F77	F	1.130489	0.079285	-0.164859
H78	H	1.037408	0.859017	0.003342
H79	H	0.776714	0.840761	0.234938
F80	F	1.185461	0.083148	-0.367549
H81	H	0.738703	0.430311	0.268658
H82	H	0.843145	0.059122	-0.134390
H83	H	0.623265	0.043715	-0.384865
F84	F	0.965583	0.067738	-0.618030
F85	F	1.023248	0.071778	-0.582394
F86	F	1.150462	0.080695	-0.503810
