data_functionalizedCrystal
_audit_creation_method	'MofGen! by Chris Wilmer'
_symmetry_space_group_name_H-M	'P1'
_symmetry_Int_Tables_number	1
_symmetry_cell_setting	triclinic
loop_
_symmetry_equiv_pos_as_xyz
  x,y,z
_cell_length_a	17.038272
_cell_length_b	17.019294
_cell_length_c	9.616153
_cell_angle_alpha	86.118767
_cell_angle_beta	89.998651
_cell_angle_gamma	87.244363
loop_
_atom_site_label
_atom_site_type_symbol
_atom_site_fract_x
_atom_site_fract_y
_atom_site_fract_z
O1	O	1.037224	0.171283	-0.135980
O2	O	0.809596	0.168563	-0.135695
O3	O	0.929759	0.055517	-0.122129
O4	O	0.917060	0.284330	-0.149546
O5	O	0.929743	0.055519	0.109162
O6	O	0.809579	0.168565	0.095596
O7	O	1.037208	0.171285	0.095311
Zn8	Zn	0.923391	0.169925	0.132176
Zn9	Zn	0.923412	0.169923	-0.172560
O10	O	0.917044	0.284331	0.081746
C11	C	0.780461	0.166090	-0.019758
C12	C	0.693675	0.158710	-0.018890
C13	C	0.643503	0.226470	-0.027008
C14	C	0.561958	0.219531	-0.026157
C15	C	0.530587	0.144831	-0.017199
C16	C	0.580765	0.077066	-0.009076
C17	C	0.662308	0.084006	-0.009917
C18	C	0.284850	0.120313	-0.014224
C19	C	0.203300	0.113378	-0.013388
C20	C	0.184499	0.255844	-0.030467
C21	C	0.266044	0.262777	-0.031315
C22	C	0.316215	0.195012	-0.023185
C23	C	0.447235	0.137736	-0.016333
C24	C	0.399565	0.202108	-0.024041
C25	C	0.929269	0.026096	-0.002962
C26	C	0.927824	-0.061571	0.007532
C27	C	0.927156	-0.102753	-0.113613
C28	C	0.925794	-0.185126	-0.103748
C29	C	0.925105	-0.226314	0.027263
C30	C	0.925770	-0.185126	0.148418
C31	C	0.927128	-0.102755	0.138552
C32	C	0.921002	-0.475022	0.063360
C33	C	0.919647	-0.557399	0.073217
C34	C	0.919669	-0.557393	-0.178950
C35	C	0.921030	-0.475020	-0.188805
C36	C	0.921692	-0.433839	-0.067650
C37	C	0.923714	-0.310512	0.037350
C38	C	0.923077	-0.349642	-0.077738
C39	C	1.066342	0.173758	-0.020628
C40	C	1.153129	0.181138	-0.021506
C41	C	0.917534	0.313752	-0.037425
C42	C	0.918979	0.401419	-0.047928
N43	N	0.923382	0.169926	0.340151
N44	N	0.923428	0.169916	-0.380534
C45	C	0.858910	0.230172	0.553291
C46	C	0.859048	0.230420	0.392094
C47	C	1.004937	0.193378	0.395805
C48	C	1.004585	0.193811	0.556971
C49	C	0.907114	0.086066	0.570106
C50	C	0.905232	0.086495	0.408828
H51	H	0.703158	0.028828	-0.003307
H52	H	0.425111	0.262928	-0.031327
H53	H	0.421684	0.076915	-0.009000
H54	H	0.921556	-0.441503	0.162014
O55	O	0.923160	-0.350441	0.164695
C56	C	0.991177	-0.334721	0.239500
H57	H	1.014725	-0.276378	0.196665
H58	H	0.976001	-0.330918	0.354386
H59	H	1.037802	-0.384156	0.227940
O60	O	1.063614	0.143886	0.609640
C61	C	1.116131	0.186210	0.685708
H62	H	1.084553	0.241985	0.720916
H63	H	1.138285	0.147963	0.780886
H64	H	1.168021	0.202906	0.616835
O65	O	0.919125	-0.597449	0.200466
C66	C	0.986015	-0.649488	0.214230
H67	H	1.033721	-0.627727	0.140069
H68	H	1.008718	-0.651889	0.326028
H69	H	0.969698	-0.710928	0.187725
O70	O	0.927953	-0.062713	-0.240842
C71	C	0.996398	-0.019432	-0.253563
H72	H	1.043298	-0.047325	-0.178691
H73	H	1.019122	-0.019960	-0.365017
H74	H	0.982120	0.043984	-0.227269
H75	H	0.921592	-0.441490	-0.295489
H76	H	1.054085	0.150888	0.362552
O77	O	0.837742	0.060658	0.621606
C78	C	0.824905	-0.014560	0.575406
H79	H	0.883534	-0.044476	0.547354
H80	H	0.795729	-0.051836	0.661859
H81	H	0.785071	-0.008193	0.479651
H82	H	0.925253	-0.218653	-0.202398
H83	H	0.919128	-0.590931	-0.277588
H84	H	1.019668	0.254033	0.348150
H85	H	0.925205	-0.218668	0.255091
O86	O	0.927801	-0.062871	0.256372
C87	C	0.926877	-0.116885	0.374123
H88	H	0.950664	-0.177204	0.344401
H89	H	0.965186	-0.095541	0.459769
H90	H	0.864036	-0.121585	0.413418
H91	H	0.923632	-0.316102	-0.184408
O92	O	0.296621	0.335293	-0.039859
C93	C	0.343227	0.343594	0.078924
H94	H	0.363595	0.282793	0.126183
H95	H	0.396597	0.378598	0.047737
H96	H	0.307180	0.376102	0.158900
H97	H	0.798423	0.215639	0.354339
O98	O	0.513333	0.285434	-0.034116
C99	C	0.558507	0.352853	-0.042177
H100	H	0.619388	0.336915	-0.084067
H101	H	0.528368	0.400665	-0.115055
H102	H	0.564295	0.375498	0.066068
H103	H	0.798094	0.215554	0.593842
O104	O	0.871173	0.303793	0.593010
C105	C	0.867309	0.303775	0.739474
H106	H	0.880200	0.241361	0.787300
H107	H	0.912588	0.344496	0.778087
H108	H	0.806017	0.325454	0.771470
H109	H	0.143641	0.311014	-0.037083
H110	H	0.869451	0.292530	0.346074
H111	H	1.018974	0.255129	0.587215
O112	O	0.833659	0.065518	0.365597
C113	C	0.800089	0.126007	0.273715
H114	H	0.848565	0.162795	0.225502
H115	H	0.766604	0.098865	0.187730
H116	H	0.757952	0.165271	0.333611
O117	O	0.550255	0.004519	-0.000621
C118	C	0.503634	-0.003752	-0.119398
H119	H	0.522872	0.038760	-0.208219
H120	H	0.511024	-0.066832	-0.152046
H121	H	0.439308	0.010127	-0.093975
H122	H	0.949174	0.039131	0.374216
H123	H	0.669038	0.287299	-0.034304
H124	H	0.177762	0.052545	-0.006094
H125	H	0.325690	0.065133	-0.007603
H126	H	0.954165	0.041161	0.613611
