data_functionalizedCrystal
_audit_creation_method	'MofGen! by Chris Wilmer'
_symmetry_space_group_name_H-M	'P1'
_symmetry_Int_Tables_number	1
_symmetry_cell_setting	triclinic
loop_
_symmetry_equiv_pos_as_xyz
  x,y,z
_cell_length_a	13.897447
_cell_length_b	21.295418
_cell_length_c	21.295411
_cell_angle_alpha	90.047857
_cell_angle_beta	89.985452
_cell_angle_gamma	89.962260
loop_
_atom_site_label
_atom_site_type_symbol
_atom_site_fract_x
_atom_site_fract_y
_atom_site_fract_z
Zn1	Zn	-0.383656	-0.962404	-0.356334
Zn2	Zn	-0.544936	-0.962326	-0.251072
Zn3	Zn	-0.383708	-0.857127	-0.251036
Zn4	Zn	-0.544962	-0.857117	-0.356261
O5	O	-0.464315	-0.909743	-0.303676
O6	O	-0.405018	-1.050483	-0.342416
O7	O	-0.523560	-0.948343	-0.162978
O8	O	-0.248719	-0.871129	-0.265019
O9	O	-0.523509	-1.050426	-0.265081
O10	O	-0.248681	-0.948475	-0.342381
O11	O	-0.405106	-0.871054	-0.162951
O12	O	-0.405131	-0.769036	-0.264949
O13	O	-0.523553	-0.871111	-0.444360
O14	O	-0.523604	-0.769029	-0.342257
O15	O	-0.405043	-0.948465	-0.444414
O16	O	-0.679921	-0.948333	-0.265011
O17	O	-0.679940	-0.871036	-0.342292
C18	C	-0.464377	-0.746192	-0.303592
C19	C	-0.464426	-0.676224	-0.303571
C20	C	-0.714930	-0.909692	-0.303661
C21	C	-0.822144	-0.909728	-0.303676
C22	C	-0.526199	-0.643369	-0.343763
C23	C	-0.526179	-0.577627	-0.343786
C24	C	-0.464397	-0.544741	-0.303606
C25	C	-0.402613	-0.577603	-0.263412
C26	C	-0.402627	-0.643345	-0.263394
N27	N	-0.456854	-0.441464	-0.248541
N28	N	-0.456846	-0.379013	-0.248560
C29	C	-0.464348	-0.346667	-0.303659
N30	N	-0.471878	-0.379131	-0.358740
N31	N	-0.471891	-0.441588	-0.358720
C32	C	-0.464374	-0.473456	-0.303622
C33	C	-0.526103	-0.242527	-0.343880
C34	C	-0.526077	-0.176783	-0.343904
C35	C	-0.402515	-0.176761	-0.263524
C36	C	-0.402537	-0.242503	-0.263505
C37	C	-0.464335	-0.275382	-0.303682
C38	C	-0.909213	-0.909758	-0.303690
C39	C	-1.018446	-0.909803	-0.303707
C40	C	-0.212722	-0.909812	-0.303704
C41	C	-0.105509	-0.909841	-0.303716
C42	C	-0.464295	-0.909796	-0.467866
C43	C	-0.464286	-0.909818	-0.537834
C44	C	-0.464271	-0.073934	-0.303743
C45	C	-0.464293	-0.143902	-0.303725
C46	C	-0.402575	-0.950095	-0.570730
C47	C	-0.402533	-0.950094	-0.636472
C48	C	-0.464220	-0.909823	-0.669317
C49	C	-0.525936	-0.869538	-0.636414
C50	C	-0.525969	-0.869536	-0.570672
N51	N	-0.548604	-0.904977	-0.772537
N52	N	-0.548570	-0.904983	-0.834989
C53	C	-0.464122	-0.909827	-0.867392
N54	N	-0.379708	-0.914677	-0.834984
N55	N	-0.379744	-0.914674	-0.772527
C56	C	-0.464190	-0.909821	-0.740602
C57	C	-0.402360	-0.950105	-0.971573
C58	C	-0.402317	-0.950099	-1.037317
C59	C	-0.525728	-0.869547	-1.037256
C60	C	-0.525763	-0.869549	-0.971514
C61	C	-0.464080	-0.909831	-0.938676
C62	C	-0.464266	-0.909728	-0.140124
C63	C	-0.464003	-0.909827	-0.070157
H64	H	-0.576519	-0.670136	-0.376479
H65	H	-0.352207	-0.149986	-0.230812
C66	C	-0.593142	-0.825888	-0.534985
C67	C	-0.688566	-0.839581	-0.550983
C68	C	-0.750475	-0.799393	-0.518113
H69	H	-0.579165	-0.783573	-0.545693
H70	H	-0.584394	-0.831663	-0.491123
H71	H	-0.697310	-0.833801	-0.594835
H72	H	-0.702573	-0.881889	-0.540273
H73	H	-0.741727	-0.805168	-0.474250
H74	H	-0.736490	-0.757080	-0.528823
H75	H	-0.815227	-0.808682	-0.528958
C76	C	-0.335431	-0.542015	-0.219762
C77	C	-0.281317	-0.584863	-0.184569
C78	C	-0.219404	-0.552103	-0.144360
H79	H	-0.372154	-0.516319	-0.192243
H80	H	-0.293401	-0.516431	-0.243883
H81	H	-0.323341	-0.610437	-0.160450
H82	H	-0.244573	-0.610561	-0.212071
H83	H	-0.177374	-0.526519	-0.168480
H84	H	-0.256135	-0.526408	-0.116845
H85	H	-0.182674	-0.581170	-0.120480
C86	C	-0.335438	-0.278064	-0.219793
C87	C	-0.281343	-0.235196	-0.184598
C88	C	-0.219526	-0.267931	-0.144318
H89	H	-0.293385	-0.303761	-0.243843
H90	H	-0.372260	-0.303646	-0.192283
H91	H	-0.244524	-0.209625	-0.212105
H92	H	-0.323371	-0.209497	-0.160535
H93	H	-0.256348	-0.293513	-0.116808
H94	H	-0.177479	-0.293627	-0.168374
H95	H	-0.182822	-0.238850	-0.120430
C96	C	-0.592988	-0.141078	-0.387624
C97	C	-0.538459	-0.103425	-0.428060
C98	C	-0.600066	-0.070532	-0.468348
H99	H	-0.634971	-0.115330	-0.363575
H100	H	-0.629776	-0.170059	-0.411582
H101	H	-0.501688	-0.074448	-0.404103
H102	H	-0.496479	-0.129158	-0.452122
H103	H	-0.636853	-0.099513	-0.492307
H104	H	-0.642046	-0.044787	-0.444295
H105	H	-0.563077	-0.044985	-0.495792
C106	C	-0.592794	-0.825712	-0.672037
C107	C	-0.571803	-0.763433	-0.656011
C108	C	-0.633363	-0.723039	-0.688821
H109	H	-0.657640	-0.834822	-0.661300
H110	H	-0.583929	-0.831441	-0.715908
H111	H	-0.580676	-0.757707	-0.612150
H112	H	-0.506968	-0.754303	-0.666750
H113	H	-0.624499	-0.728768	-0.732692
H114	H	-0.698206	-0.732155	-0.678080
H115	H	-0.619124	-0.680778	-0.677956
C116	C	-0.593350	-0.542060	-0.387453
C117	C	-0.647484	-0.584925	-0.422626
C118	C	-0.709377	-0.552186	-0.462853
H119	H	-0.556611	-0.516463	-0.414983
H120	H	-0.635368	-0.516377	-0.363346
H121	H	-0.605471	-0.610597	-0.446731
H122	H	-0.684243	-0.610524	-0.395112
H123	H	-0.751395	-0.526504	-0.438747
H124	H	-0.672631	-0.526591	-0.490380
H125	H	-0.746120	-0.581265	-0.486719
H126	H	-0.352129	-0.982901	-0.944835
H127	H	-0.352347	-0.982895	-0.543997
H128	H	-0.352322	-0.670094	-0.230664
C129	C	-0.335416	-0.993724	-0.672232
C130	C	-0.273566	-0.958105	-0.709934
C131	C	-0.211720	-0.998275	-0.742876
H132	H	-0.372191	-1.021150	-0.697951
H133	H	-0.298629	-1.017703	-0.643280
H134	H	-0.310350	-0.934136	-0.738883
H135	H	-0.236770	-0.930680	-0.684230
H136	H	-0.174932	-1.022254	-0.713924
H137	H	-0.248502	-1.025700	-0.768591
H138	H	-0.169742	-0.974113	-0.768456
H139	H	-0.352058	-0.982896	-1.064099
H140	H	-0.576418	-0.269298	-0.376597
H141	H	-0.575945	-0.836752	-1.063998
H142	H	-0.576021	-0.836756	-0.944730
