data_functionalizedCrystal
_audit_creation_method	'MofGen! by Chris Wilmer'
_symmetry_space_group_name_H-M	'P1'
_symmetry_Int_Tables_number	1
_symmetry_cell_setting	triclinic
loop_
_symmetry_equiv_pos_as_xyz
  x,y,z
_cell_length_a	16.992701
_cell_length_b	15.995292
_cell_length_c	16.053802
_cell_angle_alpha	92.568169
_cell_angle_beta	87.243340
_cell_angle_gamma	87.067893
loop_
_atom_site_label
_atom_site_type_symbol
_atom_site_fract_x
_atom_site_fract_y
_atom_site_fract_z
O1	O	1.043665	0.174231	-0.069426
O2	O	0.815380	0.172285	-0.069426
O3	O	0.935787	0.051786	-0.069427
O4	O	0.923259	0.294730	-0.069425
O5	O	0.929159	0.058390	0.069432
O6	O	0.808753	0.178889	0.069433
O7	O	1.037038	0.180835	0.069433
Zn8	Zn	0.921843	0.180910	0.091480
Zn9	Zn	0.930575	0.172210	-0.091473
O10	O	0.916631	0.301334	0.069434
C11	C	0.782854	0.173082	0.000003
C12	C	0.695812	0.165606	0.000003
C13	C	0.206862	0.115378	-0.000001
C14	C	0.288647	0.122408	0.000004
C15	C	0.320175	0.201575	0.000001
C16	C	0.269913	0.273717	0.000002
C17	C	0.188129	0.266686	0.000003
C18	C	0.563766	0.230716	0.000004
C19	C	0.645556	0.237742	0.000001
C20	C	0.664285	0.086433	0.000005
C21	C	0.582499	0.079408	0.000001
C22	C	0.532244	0.151550	0.000005
N23	N	0.403772	0.208764	0.000004
N24	N	0.448648	0.144361	0.000009
C25	C	0.931963	0.023858	0.000000
C26	C	0.930435	-0.069197	-0.000006
C27	C	0.924815	-0.407311	0.000002
C28	C	1.011706	-0.378170	0.000312
C29	C	1.013373	-0.281399	-0.000004
C30	C	0.927603	-0.239569	-0.000002
C31	C	0.887939	-0.275348	-0.079295
C32	C	0.886896	-0.372211	-0.079358
C33	C	0.877584	-0.364678	0.078551
C34	C	0.880755	-0.267920	0.079596
C35	C	0.929175	-0.144768	-0.000006
C36	C	0.923241	-0.502112	0.000001
C37	C	1.069564	0.180038	0.000002
C38	C	1.156606	0.187513	-0.000003
C39	C	0.920455	0.329262	0.000005
C40	C	0.921983	0.422317	0.000006
N41	N	0.915889	0.186848	0.216340
N42	N	0.936535	0.166266	-0.216333
C43	C	0.967141	0.135596	0.260034
C44	C	0.962984	0.139758	0.347441
C45	C	0.907578	0.195176	0.391152
C46	C	0.856320	0.246430	0.347453
C47	C	0.860475	0.242264	0.260047
C48	C	0.889432	0.213353	0.652562
C49	C	0.885283	0.217518	0.739973
C50	C	0.991946	0.110844	0.739955
C51	C	0.996098	0.106686	0.652548
C52	C	0.944838	0.157936	0.608856
N53	N	0.903329	0.199434	0.480496
N54	N	0.949084	0.153674	0.519514
H55	H	0.181199	0.050911	-0.000004
H56	H	1.044688	-0.257394	0.056835
H57	H	0.522858	0.289459	0.000004
C58	C	0.304588	0.360804	-0.000003
C59	C	0.289049	0.418815	-0.072112
C60	C	0.323720	0.505904	-0.072121
C61	C	0.373930	0.534983	-0.000021
C62	C	0.389471	0.476971	0.072093
C63	C	0.354800	0.389882	0.072102
H64	H	0.251878	0.397290	-0.125489
H65	H	0.312215	0.548848	-0.125504
H66	H	0.399596	0.599452	-0.000027
H67	H	0.426642	0.498497	0.125470
H68	H	0.366305	0.346938	0.125486
H69	H	0.811204	0.291550	0.383048
H70	H	0.909593	-0.244448	0.138256
C71	C	1.057041	0.045722	0.604463
C72	C	1.113421	-0.010661	0.652516
C73	C	1.174366	-0.071621	0.604427
C74	C	1.178931	-0.076198	0.508285
C75	C	1.122549	-0.019813	0.460226
C76	C	1.061604	0.041147	0.508315
H77	H	1.110044	-0.007275	0.723691
H78	H	1.216103	-0.113361	0.640004
H79	H	1.224045	-0.121325	0.472687
H80	H	1.125926	-0.023199	0.389051
H81	H	1.019866	0.082888	0.472738
H82	H	0.920928	-0.256075	-0.138305
C83	C	1.053301	-0.409323	0.077124
C84	C	1.019577	-0.382570	0.165607
C85	C	1.061171	-0.413733	0.242421
C86	C	1.136489	-0.471649	0.230753
C87	C	1.170217	-0.498405	0.142267
C88	C	1.128623	-0.467242	0.065453
H89	H	0.963819	-0.339694	0.174247
H90	H	1.036204	-0.393927	0.307924
H91	H	1.167280	-0.494718	0.287616
H92	H	1.225975	-0.541281	0.133627
H93	H	1.153590	-0.487049	-0.000050
H94	H	0.147211	0.325427	0.000004
C95	C	0.343925	0.043054	-0.000000
C96	C	0.336960	-0.016901	0.072101
C97	C	0.392238	-0.096260	0.072096
C98	C	0.454480	-0.115663	-0.000009
C99	C	0.461447	-0.055707	-0.072116
C100	C	0.406170	0.023652	-0.072111
H101	H	0.290883	-0.002538	0.125482
H102	H	0.387079	-0.140643	0.125474
H103	H	0.495399	-0.174410	-0.000013
H104	H	0.507525	-0.070069	-0.125497
H105	H	0.411328	0.068036	-0.125489
C106	C	0.719566	0.007082	0.000008
C107	C	0.774923	-0.005458	0.072116
C108	C	0.830204	-0.084813	0.072123
C109	C	0.830129	-0.151627	0.000022
C110	C	0.774770	-0.139089	-0.072092
C111	C	0.719489	-0.059734	-0.072099
H112	H	0.774980	0.044004	0.125495
H113	H	0.871184	-0.094094	0.125507
H114	H	0.871052	-0.210370	0.000027
H115	H	0.774713	-0.188551	-0.125470
H116	H	0.678509	-0.050453	-0.125482
H117	H	1.047717	-0.407648	-0.056233
C118	C	1.063273	-0.257090	-0.076932
C119	C	1.101724	-0.325777	-0.138271
C120	C	1.151622	-0.301469	-0.215206
C121	C	1.163068	-0.208474	-0.230802
C122	C	1.124616	-0.139781	-0.169461
C123	C	1.074718	-0.164089	-0.092526
H124	H	1.093252	-0.394622	-0.126728
H125	H	1.180087	-0.352320	-0.260615
H126	H	1.200006	-0.190480	-0.287754
H127	H	1.133088	-0.070936	-0.181004
H128	H	1.046254	-0.113238	-0.047117
C129	C	0.931374	-0.409534	-0.159428
C130	C	0.967592	-0.351164	-0.222867
C131	C	1.012072	-0.388483	-0.302938
C132	C	1.020335	-0.484170	-0.319570
C133	C	0.984116	-0.542546	-0.256129
C134	C	0.939635	-0.505228	-0.176058
H135	H	0.961476	-0.280325	-0.210557
H136	H	1.038884	-0.345269	-0.349902
H137	H	1.053262	-0.511796	-0.378843
H138	H	0.990232	-0.613385	-0.268439
H139	H	0.912824	-0.548442	-0.129095
C140	C	0.801051	-0.397867	-0.084231
C141	C	0.733665	-0.330229	-0.088055
C142	C	0.647823	-0.355881	-0.092935
C143	C	0.629367	-0.449170	-0.093990
C144	C	0.696755	-0.516814	-0.090165
C145	C	0.782597	-0.491162	-0.085285
H146	H	0.747326	-0.261166	-0.087275
H147	H	0.597939	-0.305806	-0.095767
H148	H	0.565822	-0.468159	-0.097602
H149	H	0.683094	-0.585877	-0.090946
H150	H	0.832481	-0.541237	-0.082454
H151	H	0.556836	0.014942	0.000003
C152	C	0.804098	0.298643	0.211982
C153	C	0.743179	0.359634	0.260060
C154	C	0.686798	0.416013	0.211996
C155	C	0.691335	0.411401	0.115854
C156	C	0.752256	0.350408	0.067770
C157	C	0.808637	0.294029	0.115834
H158	H	0.739819	0.363051	0.331235
H159	H	0.641700	0.461164	0.247591
H160	H	0.649598	0.453136	0.080274
H161	H	0.755616	0.346991	-0.003405
H162	H	0.853735	0.248878	0.080239
H163	H	0.671222	0.302213	0.000010
H164	H	0.840162	0.262650	0.775559
C165	C	0.910486	-0.396524	0.159746
C166	C	0.980666	-0.461661	0.155759
C167	C	1.013578	-0.493508	0.236949
C168	C	0.976308	-0.460218	0.322126
C169	C	0.906124	-0.395077	0.326117
C170	C	0.873212	-0.363230	0.244927
H171	H	1.008259	-0.486307	0.092703
H172	H	1.065533	-0.541730	0.233994
H173	H	1.000671	-0.483793	0.382228
H174	H	0.878531	-0.370431	0.389173
H175	H	0.821257	-0.315008	0.247881
H176	H	0.824965	-0.247843	-0.082241
H177	H	0.817923	-0.238911	0.084386
H178	H	1.012262	0.090472	0.224449
H179	H	0.813589	-0.382923	0.079087
H180	H	1.004717	0.098024	0.383015
H181	H	1.033678	0.069117	0.775537
H182	H	0.847695	0.255085	0.616995
