data_functionalizedCrystal
_audit_creation_method	'MofGen! by Chris Wilmer'
_symmetry_space_group_name_H-M	'P1'
_symmetry_Int_Tables_number	1
_symmetry_cell_setting	triclinic
loop_
_symmetry_equiv_pos_as_xyz
  x,y,z
_cell_length_a	17.699077
_cell_length_b	17.699083
_cell_length_c	13.448316
_cell_angle_alpha	89.992503
_cell_angle_beta	89.993795
_cell_angle_gamma	83.281795
loop_
_atom_site_label
_atom_site_type_symbol
_atom_site_fract_x
_atom_site_fract_y
_atom_site_fract_z
O1	O	1.004081	0.095691	-0.082681
O2	O	1.337414	0.429025	0.250653
O3	O	1.670748	0.762358	0.583986
O4	O	0.783702	0.108149	-0.082686
O5	O	1.117035	0.441482	0.250648
O6	O	1.450369	0.774815	0.583981
O7	O	0.900118	-0.008269	-0.082674
O8	O	1.233451	0.325064	0.250659
O9	O	1.566784	0.658397	0.583992
O10	O	0.887665	0.212109	-0.082692
O11	O	1.220999	0.545443	0.250641
O12	O	1.554332	0.878776	0.583975
O13	O	0.900103	-0.008276	0.082710
O14	O	1.233436	0.325057	0.416043
O15	O	1.566770	0.658390	0.749376
O16	O	0.783687	0.108142	0.082698
O17	O	1.117021	0.441475	0.416031
O18	O	1.450354	0.774808	0.749365
O19	O	1.004066	0.095684	0.082703
O20	O	1.337400	0.429018	0.416037
O21	O	1.670733	0.762351	0.749370
Cu22	Cu	0.893876	0.101912	0.097801
Cu23	Cu	1.227209	0.435246	0.431135
Cu24	Cu	1.560542	0.768579	0.764468
Cu25	Cu	0.893893	0.101921	-0.097784
Cu26	Cu	1.227226	0.435254	0.235549
Cu27	Cu	1.560559	0.768587	0.568883
O28	O	0.887651	0.212102	0.082692
O29	O	1.220984	0.545436	0.416025
O30	O	1.554317	0.878769	0.749358
C31	C	0.755498	0.107700	0.000006
C32	C	1.088831	0.441033	0.333339
C33	C	1.422164	0.774366	0.666672
C34	C	0.671479	0.106363	0.000004
C35	C	1.004813	0.439696	0.333337
C36	C	1.338146	0.773029	0.666671
C37	C	0.632004	0.105729	0.090156
C38	C	0.965337	0.439062	0.423489
C39	C	1.298671	0.772396	0.756822
C40	C	0.553061	0.104461	0.090157
C41	C	0.886395	0.437794	0.423490
C42	C	1.219728	0.771127	0.756824
C43	C	0.513595	0.103832	0.000005
C44	C	0.846928	0.437165	0.333339
C45	C	1.180262	0.770498	0.666672
C46	C	0.553076	0.104463	-0.090154
C47	C	0.886409	0.437797	0.243180
C48	C	1.219743	0.771130	0.576513
C49	C	0.632018	0.105726	-0.090154
C50	C	0.965351	0.439059	0.243180
C51	C	1.298685	0.772393	0.576513
C52	C	0.234713	0.099370	-0.090155
C53	C	0.568046	0.432703	0.243178
C54	C	0.901379	0.766037	0.576512
C55	C	0.155765	0.098110	-0.090148
C56	C	0.489098	0.431443	0.243185
C57	C	0.822432	0.764776	0.576519
C58	C	0.155756	0.098105	0.090156
C59	C	0.489090	0.431438	0.423489
C60	C	0.822423	0.764771	0.756822
C61	C	0.234698	0.099367	0.090155
C62	C	0.568031	0.432701	0.423489
C63	C	0.901365	0.766034	0.756822
C64	C	0.274173	0.099995	-0.000003
C65	C	0.607506	0.433328	0.333331
C66	C	0.940840	0.766662	0.666664
C67	C	0.359772	0.101369	-0.000003
C68	C	0.693105	0.434702	0.333330
C69	C	1.026438	0.768035	0.666664
C70	C	0.427997	0.102464	0.000004
C71	C	0.761330	0.435797	0.333338
C72	C	1.094664	0.769130	0.666671
C73	C	0.899664	-0.036470	0.000018
C74	C	1.232998	0.296864	0.333351
C75	C	1.566331	0.630197	0.666684
C76	C	0.898326	-0.120488	0.000018
C77	C	1.231659	0.212845	0.333351
C78	C	1.564992	0.546179	0.666685
C79	C	0.966659	-0.169110	0.000021
C80	C	1.299993	0.164223	0.333354
C81	C	1.633326	0.497556	0.666688
C82	C	0.965397	-0.248054	0.000012
C83	C	1.298730	0.085280	0.333346
C84	C	1.632064	0.418613	0.666679
C85	C	0.895800	-0.278373	0.000008
C86	C	1.229134	0.054960	0.333341
C87	C	1.562467	0.388294	0.666674
C88	C	0.827461	-0.229744	0.000002
C89	C	1.160795	0.103589	0.333335
C90	C	1.494128	0.436922	0.666668
C91	C	0.828724	-0.150803	0.000003
C92	C	1.162058	0.182531	0.333337
C93	C	1.495391	0.515864	0.666670
C94	C	0.822366	-0.548107	-0.000007
C95	C	1.155699	-0.214774	0.333327
C96	C	1.489033	0.118559	0.666660
C97	C	0.821108	-0.627055	-0.000005
C98	C	1.154442	-0.293722	0.333328
C99	C	1.487775	0.039612	0.666661
C100	C	0.959039	-0.645358	0.000002
C101	C	1.292372	-0.312025	0.333336
C102	C	1.625705	0.021308	0.666669
C103	C	0.960302	-0.566417	0.000004
C104	C	1.293635	-0.233083	0.333337
C105	C	1.626968	0.100250	0.666671
C106	C	0.891963	-0.517795	-0.000007
C107	C	1.225297	-0.184461	0.333326
C108	C	1.558630	0.148872	0.666660
C109	C	0.893333	-0.432196	0.000001
C110	C	1.226666	-0.098862	0.333334
C111	C	1.559999	0.234471	0.666667
C112	C	0.894430	-0.363971	0.000007
C113	C	1.227763	-0.030637	0.333340
C114	C	1.561097	0.302696	0.666674
C115	C	1.032271	0.096133	0.000010
C116	C	1.365604	0.429467	0.333343
C117	C	1.698937	0.762800	0.666676
C118	C	1.116289	0.097470	0.000005
C119	C	1.449622	0.430804	0.333338
C120	C	1.782956	0.764137	0.666672
C121	C	0.888104	0.240303	-0.000002
C122	C	1.221437	0.573636	0.333331
C123	C	1.554771	0.906969	0.666664
C124	C	0.889443	0.324321	-0.000009
C125	C	1.222776	0.657654	0.333324
C126	C	1.556109	0.990988	0.666657
N127	N	0.893869	0.101906	0.235366
N128	N	1.227202	0.435239	0.568699
N129	N	1.560536	0.768573	0.902032
N130	N	0.893905	0.101921	-0.235348
N131	N	1.227239	0.435254	0.097985
N132	N	1.560572	0.768588	0.431318
C133	C	0.945434	0.050377	0.287411
C134	C	1.278767	0.383710	0.620745
C135	C	1.612100	0.717044	0.954078
C136	C	0.945438	0.050377	0.391514
C137	C	1.278772	0.383710	0.724848
C138	C	1.612105	0.717043	1.058181
C139	C	0.893881	0.101909	0.443570
C140	C	1.227215	0.435242	0.776904
C141	C	1.560548	0.768576	1.110237
C142	C	0.842311	0.153440	0.391518
C143	C	1.175644	0.486773	0.724851
C144	C	1.508978	0.820107	1.058184
C145	C	0.842303	0.153436	0.287416
C146	C	1.175637	0.486770	0.620750
C147	C	1.508970	0.820103	0.954083
C148	C	0.842332	0.153445	0.608498
C149	C	1.175665	0.486778	0.941831
C150	C	1.508999	0.820112	1.275164
C151	C	0.842341	0.153450	0.712606
C152	C	1.175674	0.486783	1.045940
C153	C	1.509007	0.820117	1.379273
C154	C	0.945467	0.050385	0.712596
C155	C	1.278801	0.383718	1.045929
C156	C	1.612134	0.717052	1.379263
C157	C	0.945459	0.050382	0.608495
C158	C	1.278793	0.383715	0.941828
C159	C	1.612126	0.717048	1.275161
C160	C	0.893890	0.101914	0.556449
C161	C	1.227223	0.435247	0.889782
C162	C	1.560557	0.768581	1.223116
H163	H	0.266844	0.099879	-0.163567
H164	H	0.600177	0.433212	0.169766
H165	H	0.933511	0.766545	0.503099
O166	O	0.674564	0.106412	0.187396
O167	O	1.007897	0.439745	0.520730
O168	O	1.341231	0.773078	0.854063
H169	H	0.736089	0.107405	0.172254
H170	H	1.069422	0.440738	0.505588
H171	H	1.402755	0.774071	0.838921
H172	H	1.014683	-0.684956	0.000006
H173	H	1.348016	-0.351623	0.333340
H174	H	1.681350	-0.018289	0.666673
O175	O	0.748658	-0.495676	0.000006
O176	O	1.081991	-0.162343	0.333339
O177	O	1.415324	0.170990	0.666672
H178	H	0.715343	-0.506439	-0.067394
H179	H	1.048677	-0.173106	0.265939
H180	H	1.382010	0.160228	0.599273
H181	H	0.520926	0.103932	0.163568
H182	H	0.854259	0.437265	0.496901
H183	H	1.187592	0.770599	0.830234
O184	O	0.755019	-0.098360	0.000010
O185	O	1.088352	0.234974	0.333343
O186	O	1.421686	0.568307	0.666677
H187	H	0.752296	-0.061954	-0.067401
H188	H	1.085629	0.271380	0.265932
H189	H	1.418963	0.604713	0.599265
O190	O	1.001039	-0.005207	0.231266
O191	O	1.334372	0.328126	0.564599
O192	O	1.667706	0.661459	0.897933
H193	H	1.036890	-0.041044	0.284950
H194	H	1.370223	0.292289	0.618284
H195	H	1.703556	0.625623	0.951617
H196	H	0.266827	0.099883	0.163566
H197	H	0.600161	0.433217	0.496900
H198	H	0.933494	0.766550	0.830233
H199	H	0.520937	0.103946	-0.163557
H200	H	0.854270	0.437279	0.169777
H201	H	1.187604	0.770613	0.503110
H202	H	0.764431	-0.651737	-0.000007
H203	H	1.097764	-0.318404	0.333326
H204	H	1.431098	0.014929	0.666660
H205	H	0.800329	0.195396	0.433908
H206	H	1.133662	0.528730	0.767241
H207	H	1.466995	0.862063	1.100574
H208	H	0.664157	0.106244	-0.163565
H209	H	0.997491	0.439577	0.169769
H210	H	1.330824	0.772910	0.503102
H211	H	1.016974	-0.541735	0.000013
H212	H	1.350308	-0.208402	0.333346
H213	H	1.683641	0.124931	0.666680
H214	H	0.800313	0.195395	0.245042
H215	H	1.133646	0.528729	0.578375
H216	H	1.466980	0.862062	0.911708
O217	O	1.001067	-0.005199	0.552348
O218	O	1.334401	0.328134	0.885681
O219	O	1.667734	0.661467	1.219014
H220	H	0.969270	-0.041939	0.504933
H221	H	1.302603	0.291394	0.838266
H222	H	1.635937	0.624727	1.171600
O223	O	0.752393	-0.262440	0.000007
O224	O	1.085726	0.070894	0.333340
O225	O	1.419060	0.404227	0.666674
H226	H	0.762993	-0.325502	0.000021
H227	H	1.096327	0.007832	0.333354
H228	H	1.429660	0.341165	0.666687
H229	H	0.800357	0.195412	0.754985
H230	H	1.133690	0.528745	1.088318
H231	H	1.467023	0.862079	1.421652
H232	H	0.800336	0.195406	0.566126
H233	H	1.133669	0.528739	0.899459
H234	H	1.467003	0.862073	1.232792
O235	O	1.001068	-0.005187	0.447653
O236	O	1.334401	0.328147	0.780987
O237	O	1.667734	0.661480	1.114320
H238	H	1.036928	-0.041009	0.393966
H239	H	1.370261	0.292324	0.727300
H240	H	1.703595	0.625657	1.060633
H241	H	0.987457	0.008426	0.754977
H242	H	1.320790	0.341759	1.088311
H243	H	1.654123	0.675092	1.421644
H244	H	1.021041	-0.287639	0.000017
H245	H	1.354374	0.045694	0.333350
H246	H	1.687708	0.379027	0.666684
O247	O	0.113014	0.097689	0.187302
O248	O	0.446347	0.431022	0.520635
O249	O	0.779681	0.764356	0.853968
H250	H	0.083758	0.045640	0.191777
H251	H	0.417092	0.378973	0.525110
H252	H	0.750425	0.712306	0.858443
O253	O	0.113196	0.097405	-0.187387
O254	O	0.446529	0.430739	0.145947
O255	O	0.779863	0.764072	0.479280
H256	H	0.153909	0.098039	-0.250080
H257	H	0.487242	0.431372	0.083253
H258	H	0.820576	0.764706	0.416586
O259	O	1.041725	-0.136409	0.000017
O260	O	1.375058	0.196924	0.333350
O261	O	1.708391	0.530257	0.666683
H262	H	1.089028	-0.183485	0.000004
H263	H	1.422362	0.149848	0.333338
H264	H	1.755695	0.483181	0.666671
