data_functionalizedCrystal
_audit_creation_method	'MofGen! by Chris Wilmer'
_symmetry_space_group_name_H-M	'P1'
_symmetry_Int_Tables_number	1
_symmetry_cell_setting	triclinic
loop_
_symmetry_equiv_pos_as_xyz
  x,y,z
_cell_length_a	8.559649
_cell_length_b	13.339070
_cell_length_c	7.681481
_cell_angle_alpha	82.700297
_cell_angle_beta	94.913240
_cell_angle_gamma	92.703979
loop_
_atom_site_label
_atom_site_type_symbol
_atom_site_fract_x
_atom_site_fract_y
_atom_site_fract_z
O1	O	2.094922	-0.022785	-0.146401
O2	O	1.652108	0.027721	-0.146409
O3	O	1.822694	-0.140848	-0.146401
O4	O	1.924335	0.145783	-0.146409
O5	O	1.843672	-0.161637	0.146458
O6	O	1.673086	0.006931	0.146450
O7	O	2.115899	-0.043574	0.146458
Zn8	Zn	1.897823	-0.021623	0.192951
Zn9	Zn	1.870184	0.005769	-0.192903
O10	O	1.945313	0.124994	0.146449
C11	C	1.604764	0.021153	0.000020
C12	C	1.432434	0.032546	0.000017
C13	C	1.816014	-0.187598	0.000026
C14	C	1.764836	-0.295923	0.000018
C15	C	2.162764	-0.691632	0.000026
C16	C	2.210854	-0.589856	0.000043
C17	C	2.099353	-0.516368	0.000036
C18	C	1.939755	-0.544665	0.000013
C19	C	1.891662	-0.646451	0.000010
C20	C	1.828251	-0.471188	0.000020
C21	C	1.668653	-0.499485	-0.000003
C22	C	1.620567	-0.601262	-0.000008
C23	C	1.732068	-0.674750	-0.000001
C24	C	1.876344	-0.369401	0.000024
C25	C	1.605242	-0.324221	0.000008
C26	C	1.557152	-0.425997	-0.000010
C27	C	2.163243	-0.037007	0.000025
C28	C	2.335572	-0.048399	0.000017
C29	C	1.951993	0.171744	0.000019
C30	C	2.003170	0.280070	0.000015
N31	N	1.916697	-0.040318	0.456287
N32	N	1.851319	0.024455	-0.456238
H33	H	1.383518	0.110568	0.000005
O34	O	1.484975	-0.244964	0.000001
H35	H	1.419309	-0.262135	0.119375
O36	O	2.005131	-0.127898	0.555881
H37	H	1.924931	-0.176252	0.639884
O38	O	1.680189	-0.784524	-0.000027
H39	H	1.617531	-0.810086	0.119326
O40	O	1.762870	0.112021	0.444170
H41	H	1.765293	0.109578	0.300533
H42	H	2.006290	-0.346373	0.000043
O43	O	1.400339	-0.151749	0.000037
H44	H	1.530070	-0.144783	0.000057
O45	O	2.151208	-0.406592	0.000039
H46	H	2.280916	-0.399260	0.000039
H47	H	2.340798	-0.566825	0.000065
H48	H	1.490613	-0.624297	-0.000013
O49	O	1.385021	-0.456528	-0.000001
H50	H	1.348083	-0.493353	-0.119358
H51	H	2.253531	-0.751474	0.000046
