data_functionalizedCrystal
_audit_creation_method	'MofGen! by Chris Wilmer'
_symmetry_space_group_name_H-M	'P1'
_symmetry_Int_Tables_number	1
_symmetry_cell_setting	triclinic
loop_
_symmetry_equiv_pos_as_xyz
  x,y,z
_cell_length_a	26.374263
_cell_length_b	26.373608
_cell_length_c	26.370205
_cell_angle_alpha	60.005297
_cell_angle_beta	60.010839
_cell_angle_gamma	59.993700
loop_
_atom_site_label
_atom_site_type_symbol
_atom_site_fract_x
_atom_site_fract_y
_atom_site_fract_z
O1	O	0.070152	-0.740800	0.619517
O2	O	0.026377	-0.576764	0.499159
O3	O	0.130245	-0.680560	0.499088
O4	O	-0.033715	-0.637003	0.619589
O5	O	0.164701	-0.646107	0.533470
O6	O	0.060833	-0.542310	0.533541
O7	O	0.104608	-0.706346	0.653899
Cu8	Cu	0.085867	-0.621182	0.596859
Cu9	Cu	0.045119	-0.661927	0.556199
O10	O	0.000741	-0.602549	0.653971
N11	N	0.114528	-0.592529	0.625461
N12	N	0.016463	-0.690587	0.527598
C13	C	0.181428	-0.355400	0.692330
C14	C	0.181530	-0.525690	0.862573
C15	C	0.181440	-0.525667	0.692313
C16	C	0.351736	-0.525673	0.692271
C17	C	0.200174	-0.411588	0.711047
C18	C	0.200232	-0.506954	0.806384
C19	C	0.295546	-0.506943	0.711016
C20	C	0.200182	-0.506940	0.711037
C21	C	0.157567	-0.283881	0.668507
C22	C	0.157587	-0.549500	0.668479
C23	C	0.224035	-0.483107	0.734871
C24	C	0.455739	-0.507754	0.637520
C25	C	0.520749	-0.529425	0.615835
C26	C	0.520768	-0.634611	0.655947
C27	C	0.455759	-0.612939	0.677633
C28	C	0.173240	-0.251367	0.604595
C29	C	0.151546	-0.186351	0.582941
C30	C	0.098512	-0.186369	0.689113
C31	C	0.120206	-0.251385	0.710768
C32	C	0.093669	-0.533798	0.684205
C33	C	0.071992	-0.555464	0.662532
C34	C	0.178144	-0.608536	0.609422
C35	C	0.199825	-0.586869	0.631088
C36	C	0.093821	-0.533842	0.966616
C37	C	0.072187	-0.555526	1.031630
C38	C	0.178370	-0.608608	1.031591
C39	C	0.200004	-0.586926	0.966576
C40	C	0.157728	-0.549541	0.934090
C41	C	0.423247	-0.549509	0.668416
C42	C	-0.097522	-0.709158	0.508557
C43	C	-0.002050	-0.709295	0.413344
C44	C	-0.002241	-0.804604	0.508735
C45	C	-0.002225	-0.709288	0.508793
C46	C	-0.026009	-0.733087	0.484858
N47	N	0.552340	-0.592538	0.625346
O48	O	0.750867	-0.598274	0.477076
O49	O	0.751048	-0.718989	0.640960
O50	O	0.750981	-0.718715	0.537020
O51	O	0.750934	-0.598547	0.581017
O52	O	0.647701	-0.684348	0.571512
O53	O	0.647768	-0.684622	0.675452
O54	O	0.647587	-0.563907	0.511569
Cu55	Cu	0.638247	-0.621127	0.596660
Cu56	Cu	0.760388	-0.661769	0.555869
O57	O	0.647654	-0.564181	0.615509
N58	N	0.846295	-0.690358	0.527176
N59	N	0.114503	-0.154778	0.625499
O60	O	-0.033701	0.043855	0.619632
O61	O	0.130190	0.043858	0.498933
O62	O	0.026233	0.043841	0.499224
O63	O	0.070257	0.043872	0.619341
O64	O	0.060690	-0.059448	0.533654
O65	O	0.164647	-0.059431	0.533363
O66	O	0.000756	-0.059434	0.654062
Cu67	Cu	0.085848	-0.068863	0.596857
Cu68	Cu	0.045099	0.053287	0.556138
O69	O	0.104714	-0.059417	0.653771
N70	N	0.016435	0.139202	0.527497
N71	N	0.114760	-0.592585	1.063190
O72	O	0.108896	-0.740779	1.261808
O73	O	-0.011787	-0.576838	1.261822
O74	O	-0.011509	-0.680779	1.261780
O75	O	0.108618	-0.636838	1.261850
O76	O	0.022916	-0.646341	1.158496
O77	O	0.022638	-0.542399	1.158538
O78	O	0.143321	-0.706341	1.158524
Cu79	Cu	0.086123	-0.621225	1.149100
Cu80	Cu	0.045411	-0.661953	1.271246
O81	O	0.143044	-0.602399	1.158566
N82	N	0.016774	-0.690600	1.357156
C83	C	0.039504	-0.538867	0.499769
C84	C	0.168130	-0.667407	0.499680
C85	C	0.091482	-0.744243	0.653289
C86	C	-0.037145	-0.615703	0.653378
C87	C	0.699429	-0.718429	0.678853
C88	C	0.699348	-0.718091	0.550135
C89	C	0.699202	-0.564465	0.473677
C90	C	0.699287	-0.564805	0.602393
C91	C	0.168023	-0.007659	0.499484
C92	C	0.039327	-0.007807	0.499887
C93	C	-0.037119	-0.007789	0.653468
C94	C	0.091620	-0.007770	0.653109
C95	C	-0.011194	-0.538964	1.210181
C96	C	-0.010843	-0.667676	1.210109
C97	C	0.142729	-0.744214	1.210165
C98	C	0.142386	-0.615494	1.210214
H99	H	0.020147	-0.542732	1.058106
H100	H	0.699278	-0.527058	0.611808
H101	H	0.100832	-0.791364	0.691090
C102	C	-0.100704	-0.007788	0.704663
C103	C	-0.151895	-0.007797	0.692265
C104	C	-0.215479	-0.007796	0.743459
C105	C	-0.227873	-0.007785	0.807051
C106	C	-0.176681	-0.007775	0.819452
C107	C	-0.113096	-0.007776	0.768258
H108	H	-0.142721	-0.007806	0.645188
H109	H	-0.253375	-0.007803	0.734279
H110	H	-0.274942	-0.007784	0.844948
H111	H	-0.185854	-0.007767	0.866529
H112	H	-0.075200	-0.007769	0.777438
C113	C	0.699126	-0.513262	0.410096
C114	C	0.752713	-0.486498	0.370088
C115	C	0.752637	-0.435294	0.306507
C116	C	0.698974	-0.410854	0.282935
C117	C	0.645383	-0.437618	0.322945
C118	C	0.645459	-0.488822	0.386525
H119	H	0.792441	-0.504590	0.387536
H120	H	0.792309	-0.415482	0.276889
H121	H	0.698918	-0.372950	0.235869
H122	H	0.605655	-0.419526	0.305496
H123	H	0.605787	-0.508634	0.416143
C124	C	-0.061808	-0.680347	1.210020
C125	C	-0.125494	-0.629337	1.209982
C126	C	-0.176458	-0.642008	1.209892
C127	C	-0.163736	-0.705688	1.209841
C128	C	-0.100047	-0.756702	1.209880
C129	C	-0.049083	-0.744031	1.209969
H130	H	-0.134914	-0.582194	1.210019
H131	H	-0.223605	-0.604244	1.209864
H132	H	-0.201463	-0.715068	1.209775
H133	H	-0.090627	-0.803845	1.209842
H134	H	-0.001936	-0.781795	1.209997
H135	H	0.214995	-0.007372	0.461496
H136	H	-0.049082	-0.491880	1.210184
H137	H	-0.084239	-0.606419	0.691217
C138	C	0.026601	-0.007818	0.448905
C139	C	-0.037092	-0.007825	0.461624
C140	C	-0.049818	-0.007836	0.410643
C141	C	0.001149	-0.007839	0.346942
C142	C	0.064846	-0.007832	0.334220
C143	C	0.077572	-0.007821	0.385202
H144	H	-0.074824	-0.007822	0.508782
H145	H	-0.096971	-0.007841	0.420061
H146	H	-0.008272	-0.007847	0.309203
H147	H	0.102578	-0.007835	0.287063
H148	H	0.124725	-0.007816	0.375784
C149	C	0.699495	-0.769630	0.742437
C150	C	0.753153	-0.794074	0.766017
C151	C	0.753219	-0.845274	0.829600
C152	C	0.699627	-0.872031	0.869604
C153	C	0.645965	-0.847587	0.846025
C154	C	0.645899	-0.796387	0.782441
H155	H	0.792829	-0.774266	0.736403
H156	H	0.792943	-0.863369	0.847055
H157	H	0.699676	-0.909932	0.916673
H158	H	0.606290	-0.867394	0.875639
H159	H	0.606175	-0.778292	0.764986
H160	H	0.101045	-0.007760	0.690842
C161	C	0.193918	-0.807820	1.210162
C162	C	0.181513	-0.858995	1.210136
C163	C	0.232702	-0.922601	1.210132
C164	C	0.296295	-0.935032	1.210154
C165	C	0.308703	-0.883857	1.210181
C166	C	0.257514	-0.820251	1.210184
H167	H	0.134435	-0.849793	1.210119
H168	H	0.223517	-0.960484	1.210113
H169	H	0.334189	-0.982118	1.210152
H170	H	0.355781	-0.893058	1.210197
H171	H	0.266699	-0.782367	1.210204
C172	C	0.419973	-0.437979	0.627385
C173	C	0.455718	-0.392051	0.593400
C174	C	0.419955	-0.322277	0.583262
C175	C	0.348447	-0.298431	0.607108
C176	C	0.312697	-0.344360	0.641095
C177	C	0.348460	-0.414134	0.651233
H178	H	0.508657	-0.409702	0.575746
H179	H	0.446420	-0.288277	0.558103
H180	H	0.321973	-0.246780	0.599603
H181	H	0.259759	-0.326709	0.658749
H182	H	0.321996	-0.448134	0.676392
H183	H	0.030155	-0.491745	0.461969
H184	H	0.699366	-0.755841	0.540718
H185	H	0.180125	-0.606093	1.210228
C186	C	0.047314	-0.492716	0.930885
C187	C	-0.022982	-0.475447	0.966665
C188	C	-0.069488	-0.434324	0.930933
C189	C	-0.045697	-0.410470	0.859422
C190	C	0.024603	-0.427739	0.823638
C191	C	0.071109	-0.468862	0.859370
H192	H	-0.040596	-0.493105	1.019605
H193	H	-0.121528	-0.421541	0.957423
H194	H	-0.080123	-0.380028	0.832971
H195	H	0.042217	-0.410080	0.770698
H196	H	0.123149	-0.481645	0.832880
C197	C	0.224874	-0.649720	1.067325
C198	C	0.295171	-0.666984	1.031549
C199	C	0.341674	-0.708098	1.067284
C200	C	0.317880	-0.731948	1.138795
C201	C	0.247580	-0.714684	1.174575
C202	C	0.201077	-0.673570	1.138841
H203	H	0.312788	-0.649329	0.978609
H204	H	0.393716	-0.720878	1.040796
H205	H	0.352305	-0.762383	1.165248
H206	H	0.229963	-0.732339	1.227516
H207	H	0.149036	-0.660790	1.165328
H208	H	0.252044	-0.599714	0.940097
H209	H	0.059274	-0.503369	0.714648
H210	H	0.019945	-0.542665	0.675322
H211	H	0.212545	-0.638970	0.578981
H212	H	0.251872	-0.599651	0.618278
H213	H	0.429307	-0.646943	0.702793
H214	H	0.547237	-0.686258	0.663446
H215	H	0.547206	-0.495421	0.590679
H216	H	0.203661	-0.277820	0.570179
H217	H	0.068098	-0.159910	0.723527
C218	C	0.168783	-0.150577	0.512634
C219	C	0.204953	-0.105873	0.483137
C220	C	0.222189	-0.070102	0.412830
C221	C	0.203254	-0.079034	0.372021
C222	C	0.167081	-0.123741	0.401518
C223	C	0.149846	-0.159512	0.471825
H224	H	0.218972	-0.099259	0.513347
H225	H	0.248966	-0.037007	0.390995
H226	H	0.216012	-0.052554	0.319976
H227	H	0.153063	-0.130355	0.371309
H228	H	0.123068	-0.192607	0.493660
C229	C	0.102964	-0.287148	0.781073
C230	C	0.121898	-0.278214	0.821883
C231	C	0.104653	-0.313979	0.892191
C232	C	0.068475	-0.358677	0.921689
C233	C	0.049540	-0.367612	0.880879
C234	C	0.066785	-0.331848	0.810571
H235	H	0.148680	-0.245125	0.800047
H236	H	0.118670	-0.307364	0.922401
H237	H	0.055710	-0.385151	0.973735
H238	H	0.022757	-0.400702	0.902715
H239	H	0.052767	-0.338463	0.780361
C240	C	0.231747	-0.679945	0.448555
C241	C	0.282870	-0.743581	0.461076
C242	C	0.346487	-0.756120	0.409951
C243	C	0.358980	-0.705022	0.346306
C244	C	0.307856	-0.641381	0.333782
C245	C	0.244239	-0.628843	0.384907
H246	H	0.273623	-0.781411	0.508192
H247	H	0.384333	-0.803231	0.419222
H248	H	0.406073	-0.714303	0.308460
H249	H	0.317103	-0.603552	0.286666
H250	H	0.206393	-0.581732	0.375636
