data_functionalizedCrystal
_audit_creation_method	'MofGen! by Chris Wilmer'
_symmetry_space_group_name_H-M	'P1'
_symmetry_Int_Tables_number	1
_symmetry_cell_setting	triclinic
loop_
_symmetry_equiv_pos_as_xyz
  x,y,z
_cell_length_a	6.394989
_cell_length_b	16.109301
_cell_length_c	15.186229
_cell_angle_alpha	89.999006
_cell_angle_beta	89.999328
_cell_angle_gamma	84.979647
loop_
_atom_site_label
_atom_site_type_symbol
_atom_site_fract_x
_atom_site_fract_y
_atom_site_fract_z
O1	O	0.268482	1.105973	-0.073174
O2	O	0.301894	0.864264	-0.073186
O3	O	-0.018878	0.988549	-0.073181
O4	O	0.589255	0.981688	-0.073179
O5	O	-0.018883	0.988541	0.073277
O6	O	0.301889	0.864256	0.073271
O7	O	0.268478	1.105964	0.073283
Zn8	Zn	0.285183	0.985109	0.096531
Zn9	Zn	0.285189	0.985120	-0.096433
O10	O	0.589250	0.981679	0.073278
C11	C	0.300538	0.833271	0.000041
C12	C	0.296480	0.740933	0.000037
C13	C	0.473555	0.433809	0.000052
C14	C	0.477387	0.520570	0.000047
C15	C	0.096802	0.536414	0.000035
C16	C	0.092972	0.449655	0.000033
C17	C	0.281355	0.398354	0.000047
C18	C	0.289017	0.571874	0.000043
C19	C	0.293171	0.665944	0.000037
C20	C	0.277202	0.304278	0.000051
C21	C	0.667073	0.983040	0.000046
C22	C	0.903305	0.987186	0.000043
C23	C	0.269834	1.136958	0.000054
C24	C	0.273892	1.229296	0.000053
N25	N	0.285178	0.985107	0.228223
N26	N	0.285178	0.985128	-0.228126
C27	C	0.143187	1.040160	0.453948
C28	C	0.143182	1.040163	0.546138
C29	C	0.427175	0.930069	0.546143
C30	C	0.427168	0.930063	0.453955
C31	C	0.285177	0.985113	0.407860
C32	C	0.285178	0.985122	0.592237
C33	C	0.285174	0.985124	0.692194
C34	C	0.285178	0.985110	0.307897
H35	H	0.626949	0.392042	0.000063
H36	H	0.542794	0.885233	0.416427
H37	H	-0.056572	0.578193	0.000026
H38	H	0.027567	1.084984	0.416420
Cl39	Cl	-0.035330	1.109365	0.604075
Cl40	Cl	0.605678	0.860869	0.604094
Cl41	Cl	-0.148672	0.405080	0.000015
H42	H	0.633896	0.549432	0.000051
