data_functionalizedCrystal
_audit_creation_method	'MofGen! by Chris Wilmer'
_symmetry_space_group_name_H-M	'P1'
_symmetry_Int_Tables_number	1
_symmetry_cell_setting	triclinic
loop_
_symmetry_equiv_pos_as_xyz
  x,y,z
_cell_length_a	16.625548
_cell_length_b	25.639239
_cell_length_c	16.625548
_cell_angle_alpha	90.014267
_cell_angle_beta	90.008236
_cell_angle_gamma	90.039754
loop_
_atom_site_label
_atom_site_type_symbol
_atom_site_fract_x
_atom_site_fract_y
_atom_site_fract_z
Zn1	Zn	1.232491	-0.208223	0.455892
Zn2	Zn	1.565825	0.125111	0.789226
Zn3	Zn	1.899158	0.458444	1.122559
Zn4	Zn	1.232385	-0.295635	0.321053
Zn5	Zn	1.565719	0.037699	0.654386
Zn6	Zn	1.899052	0.371032	0.987720
Zn7	Zn	1.097682	-0.208217	0.321073
Zn8	Zn	1.431016	0.125117	0.654406
Zn9	Zn	1.764349	0.458450	0.987740
Zn10	Zn	1.097585	-0.295631	0.455843
Zn11	Zn	1.430919	0.037703	0.789176
Zn12	Zn	1.764252	0.371036	1.122509
O13	O	1.165036	-0.251926	0.388465
O14	O	1.498369	0.081407	0.721799
O15	O	1.831703	0.414741	1.055132
O16	O	1.345310	-0.219822	0.438018
O17	O	1.678643	0.113511	0.771351
O18	O	2.011976	0.446844	1.104685
O19	O	1.214513	-0.284038	0.208223
O20	O	1.547846	0.049296	0.541556
O21	O	1.881180	0.382629	0.874890
O22	O	1.115650	-0.135052	0.338987
O23	O	1.448983	0.198281	0.672320
O24	O	1.782316	0.531614	1.005653
O25	O	1.345232	-0.284043	0.338952
O26	O	1.678565	0.049290	0.672285
O27	O	2.011899	0.382623	1.005619
O28	O	1.214693	-0.135057	0.438038
O29	O	1.548027	0.198277	0.771371
O30	O	1.881360	0.531610	1.104704
O31	O	1.115547	-0.219812	0.208238
O32	O	1.448880	0.113521	0.541571
O33	O	1.782214	0.446855	0.874905
O34	O	0.984837	-0.219808	0.338938
O35	O	1.318170	0.113525	0.672272
O36	O	1.651504	0.446859	1.005605
O37	O	1.115485	-0.284036	0.568682
O38	O	1.448818	0.049297	0.902015
O39	O	1.782152	0.382630	1.235348
O40	O	0.984766	-0.284031	0.437953
O41	O	1.318099	0.049303	0.771286
O42	O	1.651433	0.382636	1.104619
O43	O	1.214600	-0.219818	0.568718
O44	O	1.547933	0.113515	0.902052
O45	O	1.881266	0.446848	1.235385
O46	O	1.214419	-0.368799	0.338904
O47	O	1.547752	-0.035466	0.672237
O48	O	1.881086	0.297867	1.005570
O49	O	1.115382	-0.368796	0.437933
O50	O	1.448715	-0.035463	0.771266
O51	O	1.782049	0.297870	1.104600
C52	C	0.955545	-0.251919	0.388443
C53	C	1.288879	0.081415	0.721776
C54	C	1.622212	0.414748	1.055109
C55	C	0.865924	-0.251928	0.388452
C56	C	1.199258	0.081405	0.721786
C57	C	1.532591	0.414739	1.055119
C58	C	1.164901	-0.387769	0.388428
C59	C	1.498234	-0.054435	0.721762
C60	C	1.831567	0.278898	1.055095
C61	C	1.164916	-0.445883	0.388440
C62	C	1.498250	-0.112549	0.721773
C63	C	1.831583	0.220784	1.055106
C64	C	0.537749	-0.251931	0.388487
C65	C	0.871082	0.081402	0.721820
C66	C	1.204415	0.414735	1.055153
C67	C	0.629057	-0.251929	0.388474
C68	C	0.962390	0.081404	0.721808
C69	C	1.295724	0.414738	1.055141
C70	C	0.701833	-0.251930	0.388469
C71	C	1.035167	0.081403	0.721802
C72	C	1.368500	0.414737	1.055135
C73	C	0.793148	-0.251927	0.388458
C74	C	1.126481	0.081406	0.721791
C75	C	1.459814	0.414740	1.055125
C76	C	1.216739	-0.806235	0.336988
C77	C	1.550073	-0.472901	0.670322
C78	C	1.883406	-0.139568	1.003655
C79	C	1.216770	-0.860839	0.336999
C80	C	1.550104	-0.527506	0.670333
C81	C	1.883437	-0.194172	1.003666
O82	O	1.260692	-0.889066	0.293213
O83	O	1.594025	-0.555733	0.626547
O84	O	1.927358	-0.222400	0.959880
N85	N	1.165178	-0.888165	0.388519
N86	N	1.498511	-0.554832	0.721852
N87	N	1.831845	-0.221498	1.055185
C88	C	1.113556	-0.860884	0.440036
C89	C	1.446890	-0.527551	0.773370
C90	C	1.780223	-0.194217	1.106703
O91	O	1.069676	-0.889141	0.483859
O92	O	1.403010	-0.555808	0.817193
O93	O	1.736343	-0.222474	1.150526
C94	C	1.113530	-0.806281	0.440029
C95	C	1.446863	-0.472947	0.773362
C96	C	1.780196	-0.139614	1.106696
C97	C	1.165120	-0.778958	0.388501
C98	C	1.498453	-0.445624	0.721834
C99	C	1.831787	-0.112291	1.055167
C100	C	1.268326	-0.778911	0.285465
C101	C	1.601659	-0.445578	0.618798
C102	C	1.934993	-0.112245	0.952131
C103	C	1.268293	-0.724311	0.285453
C104	C	1.601627	-0.390978	0.618786
C105	C	1.934960	-0.057644	0.952120
C106	C	1.216674	-0.697034	0.336965
C107	C	1.550008	-0.363700	0.670299
C108	C	1.883341	-0.030367	1.003632
C109	C	1.165088	-0.724357	0.388489
C110	C	1.498421	-0.391024	0.721822
C111	C	1.831754	-0.057690	1.055156
C112	C	1.061913	-0.779001	0.491550
C113	C	1.395246	-0.445667	0.824884
C114	C	1.728580	-0.112334	1.158217
C115	C	1.061891	-0.724394	0.491539
C116	C	1.395225	-0.391060	0.824872
C117	C	1.728558	-0.057727	1.158206
C118	C	1.113482	-0.697070	0.440011
C119	C	1.446815	-0.363737	0.773344
C120	C	1.780148	-0.030404	1.106677
C121	C	1.113436	-0.642479	0.439989
C122	C	1.446769	-0.309146	0.773323
C123	C	1.780102	0.024187	1.106656
N124	N	1.165028	-0.615153	0.388470
N125	N	1.498362	-0.281820	0.721803
N126	N	1.831695	0.051514	1.055137
C127	C	1.216648	-0.642430	0.336958
C128	C	1.549981	-0.309097	0.670291
C129	C	1.883314	0.024236	1.003625
C130	C	1.113617	-0.975555	0.440049
C131	C	1.446950	-0.642221	0.773382
C132	C	1.780284	-0.308888	1.106716
C133	C	1.113639	-1.030157	0.440053
C134	C	1.446972	-0.696824	0.773386
C135	C	1.780306	-0.363490	1.106719
C136	C	1.216854	-1.030108	0.337016
C137	C	1.550188	-0.696775	0.670350
C138	C	1.883521	-0.363442	1.003683
C139	C	1.216828	-0.975505	0.337009
C140	C	1.550161	-0.642172	0.670342
C141	C	1.883495	-0.308838	1.003676
C142	C	1.165210	-0.948229	0.388529
C143	C	1.498543	-0.614895	0.721863
C144	C	1.831876	-0.281562	1.055196
C145	C	1.216575	-0.527765	0.336937
C146	C	1.549908	-0.194432	0.670270
C147	C	1.883242	0.138901	1.003603
C148	C	1.216535	-0.473160	0.336927
C149	C	1.549869	-0.139827	0.670261
C150	C	1.883202	0.193507	1.003594
C151	C	1.113323	-0.473214	0.439966
C152	C	1.446657	-0.139880	0.773300
C153	C	1.779990	0.193453	1.106633
C154	C	1.113360	-0.527814	0.439973
C155	C	1.446693	-0.194481	0.773307
C156	C	1.780026	0.138853	1.106640
C157	C	1.164992	-0.555089	0.388456
C158	C	1.498325	-0.221755	0.721789
C159	C	1.831659	0.111578	1.055122
O160	O	1.069539	-0.614217	0.483755
O161	O	1.402873	-0.280884	0.817089
O162	O	1.736206	0.052449	1.150422
O163	O	1.260528	-0.614167	0.293150
O164	O	1.593861	-0.280833	0.626483
O165	O	1.927195	0.052500	0.959817
C166	C	1.375345	-0.251934	0.388488
C167	C	1.708678	0.081399	0.721822
C168	C	2.042012	0.414733	1.055155
C169	C	1.464966	-0.251937	0.388498
C170	C	1.798299	0.081396	0.721832
C171	C	2.131633	0.414729	1.055165
C172	C	1.165043	-0.251928	0.598774
C173	C	1.498377	0.081406	0.932107
C174	C	1.831710	0.414739	1.265441
C175	C	1.165046	-0.251928	0.688395
C176	C	1.498380	0.081405	1.021729
C177	C	1.831713	0.414738	1.355062
C178	C	1.165194	-0.115553	0.388520
C179	C	1.498528	0.217780	0.721853
C180	C	1.831861	0.551114	1.055187
C181	C	1.165262	-0.057439	0.388543
C182	C	1.498595	0.275894	0.721877
C183	C	1.831928	0.609228	1.055210
C184	C	1.165013	-0.251933	1.016571
C185	C	1.498346	0.081401	1.349904
C186	C	1.831679	0.414734	1.683238
C187	C	1.165020	-0.251933	0.925262
C188	C	1.498353	0.081400	1.258596
C189	C	1.831687	0.414733	1.591929
C190	C	1.165030	-0.251931	0.852486
C191	C	1.498363	0.081402	1.185819
C192	C	1.831697	0.414736	1.519153
C193	C	1.165036	-0.251931	0.761172
C194	C	1.498370	0.081403	1.094505
C195	C	1.831703	0.414736	1.427838
C196	C	1.165021	-0.251935	1.178974
C197	C	1.498355	0.081398	1.512308
C198	C	1.831688	0.414731	1.845641
C199	C	1.165013	-0.251931	1.089353
C200	C	1.498347	0.081402	1.422687
C201	C	1.831680	0.414735	1.756020
H202	H	1.258546	-0.450915	0.294964
H203	H	1.591880	-0.117582	0.628297
H204	H	1.925213	0.215752	0.961631
H205	H	1.071622	-1.052399	0.482005
H206	H	1.404955	-0.719066	0.815338
H207	H	1.738288	-0.385732	1.148672
H208	H	1.258621	-0.549966	0.294988
H209	H	1.591954	-0.216632	0.628322
H210	H	1.925287	0.116701	0.961655
O211	O	1.266906	-0.949022	0.286846
O212	O	1.600239	-0.615689	0.620180
O213	O	1.933572	-0.282356	0.953513
C214	C	1.249336	-0.962386	0.206470
C215	C	1.582670	-0.629053	0.539804
C216	C	1.916003	-0.295719	0.873137
H217	H	1.218355	-1.002050	0.204779
H218	H	1.551689	-0.668717	0.538113
H219	H	1.885022	-0.335384	0.871446
H220	H	1.307556	-0.964229	0.170369
H221	H	1.640890	-0.630895	0.503702
H222	H	1.974223	-0.297562	0.837035
H223	H	1.207892	-0.931686	0.179269
H224	H	1.541226	-0.598352	0.512602
H225	H	1.874559	-0.265019	0.845936
H226	H	1.071577	-0.953349	0.482001
H227	H	1.404910	-0.620016	0.815334
H228	H	1.738244	-0.286682	1.148667
O229	O	1.267032	-1.056692	0.287110
O230	O	1.600365	-0.723358	0.620443
O231	O	1.933698	-0.390025	0.953777
C232	C	1.256004	-1.110744	0.298189
C233	C	1.589337	-0.777410	0.631522
C234	C	1.922670	-0.444077	0.964856
H235	H	1.229474	-1.118187	0.360363
H236	H	1.562807	-0.784853	0.693696
H237	H	1.896140	-0.451520	1.027030
H238	H	1.316436	-1.131441	0.292881
H239	H	1.649770	-0.798108	0.626214
H240	H	1.983103	-0.464775	0.959547
H241	H	1.213186	-1.126311	0.250284
H242	H	1.546519	-0.792978	0.583617
H243	H	1.879853	-0.459644	0.916950
H244	H	1.310365	-0.801115	0.243517
H245	H	1.643698	-0.467781	0.576850
H246	H	1.977031	-0.134448	0.910184
O247	O	1.318453	-0.697714	0.235517
O248	O	1.651787	-0.364381	0.568850
O249	O	1.985120	-0.031048	0.902183
C250	C	1.370494	-0.666096	0.281467
C251	C	1.703828	-0.332762	0.614800
C252	C	2.037161	0.000571	0.948133
H253	H	1.342002	-0.657915	0.342541
H254	H	1.675335	-0.324582	0.675874
H255	H	2.008668	0.008751	1.009207
H256	H	1.381315	-0.627701	0.248624
H257	H	1.714649	-0.294368	0.581958
H258	H	2.047982	0.038965	0.915291
H259	H	1.430247	-0.687102	0.290391
H260	H	1.763580	-0.353768	0.623725
H261	H	2.096913	-0.020435	0.957058
O262	O	1.011775	-0.805453	0.541685
O263	O	1.345108	-0.472120	0.875018
O264	O	1.678441	-0.138786	1.208352
C265	C	0.966206	-0.769658	0.587131
C266	C	1.299539	-0.436325	0.920465
C267	C	1.632873	-0.102991	1.253798
H268	H	0.999217	-0.730714	0.589932
H269	H	1.332550	-0.397381	0.923265
H270	H	1.665883	-0.064047	1.256599
H271	H	0.957569	-0.785417	0.650660
H272	H	1.290902	-0.452084	0.983993
H273	H	1.624235	-0.118751	1.317326
H274	H	0.904986	-0.763897	0.557553
H275	H	1.238319	-0.430564	0.890886
H276	H	1.571652	-0.097231	1.224220
H277	H	1.019858	-0.702188	0.533496
H278	H	1.353192	-0.368855	0.866829
H279	H	1.686525	-0.035521	1.200162
H280	H	1.071353	-0.550062	0.481934
H281	H	1.404686	-0.216729	0.815268
H282	H	1.738020	0.116605	1.148601
O283	O	1.063303	-0.446685	0.490091
O284	O	1.396636	-0.113352	0.823424
O285	O	1.729969	0.219981	1.156757
C286	C	1.109167	-0.415049	0.542179
C287	C	1.442500	-0.081716	0.875513
C288	C	1.775833	0.251618	1.208846
H289	H	1.172672	-0.431467	0.547215
H290	H	1.506006	-0.098134	0.880548
H291	H	1.839339	0.235199	1.213881
H292	H	1.079965	-0.414426	0.604208
H293	H	1.413298	-0.081093	0.937541
H294	H	1.746632	0.252240	1.270875
H295	H	1.111949	-0.373672	0.517236
H296	H	1.445282	-0.040339	0.850570
H297	H	1.778616	0.292994	1.183903
