data_functionalizedCrystal
_audit_creation_method	'MofGen! by Chris Wilmer'
_symmetry_space_group_name_H-M	'P1'
_symmetry_Int_Tables_number	1
_symmetry_cell_setting	triclinic
loop_
_symmetry_equiv_pos_as_xyz
  x,y,z
_cell_length_a	18.101398
_cell_length_b	19.077068
_cell_length_c	19.076919
_cell_angle_alpha	94.470751
_cell_angle_beta	87.724166
_cell_angle_gamma	87.677468
loop_
_atom_site_label
_atom_site_type_symbol
_atom_site_fract_x
_atom_site_fract_y
_atom_site_fract_z
Zn1	Zn	1.102247	0.296773	0.409951
Zn2	Zn	1.102156	0.409927	0.296796
Zn3	Zn	0.983594	0.292048	0.292070
Zn4	Zn	0.973186	0.414613	0.414628
O5	O	1.040296	0.353340	0.353361
O6	O	1.205867	0.311800	0.394962
O7	O	1.090746	0.390351	0.197523
O8	O	1.003728	0.194026	0.303773
O9	O	1.205799	0.394933	0.311827
O10	O	1.090902	0.197498	0.390380
O11	O	1.003639	0.303746	0.194051
O12	O	0.878582	0.308290	0.308307
O13	O	0.985988	0.402920	0.512654
O14	O	0.870935	0.398338	0.398350
O15	O	1.080809	0.316344	0.509218
O16	O	1.080653	0.509197	0.316361
O17	O	0.985899	0.512640	0.402932
C18	C	1.032156	0.536498	0.360682
C19	C	1.028741	0.614855	0.363838
C20	C	0.847888	0.353310	0.353323
C21	C	0.765574	0.353315	0.353325
C22	C	1.032248	0.360682	0.537229
C23	C	1.028819	0.363810	0.615583
C24	C	0.466478	0.353361	0.353386
C25	C	0.502590	0.296444	0.296988
C26	C	0.588212	0.296582	0.296763
C27	C	0.614863	0.353338	0.353355
C28	C	0.581378	0.426782	0.336035
C29	C	0.495763	0.426463	0.335646
C30	C	0.495637	0.337485	0.427257
C31	C	0.581378	0.335815	0.426783
C32	C	0.698724	0.353329	0.353340
C33	C	0.382618	0.353375	0.353400
C34	C	1.233455	0.353371	0.353400
C35	C	1.315767	0.353384	0.353416
C36	C	1.048486	0.169468	0.346027
C37	C	1.051977	0.091113	0.342902
C38	C	1.076505	0.649852	0.320285
C39	C	1.073297	0.723477	0.323257
C40	C	1.022321	0.762102	0.369779
C41	C	0.974555	0.727100	0.413336
C42	C	0.977767	0.653476	0.410367
C43	C	1.007423	0.982487	0.383491
C44	C	1.004213	1.056115	0.386455
C45	C	1.102956	1.052487	0.296376
C46	C	1.106161	0.978863	0.293408
C47	C	1.058398	0.943866	0.336968
N48	N	1.019039	0.837358	0.372816
N49	N	1.061684	0.868612	0.333934
C50	C	1.048357	0.345976	0.170207
C51	C	1.051939	0.342649	0.091846
C52	C	1.076573	0.320207	0.650606
C53	C	1.073342	0.323144	0.724228
C54	C	1.022359	0.369688	0.762825
C55	C	0.974599	0.413294	0.727796
C56	C	0.977828	0.410353	0.654176
C57	C	1.007407	0.383314	0.983197
C58	C	1.004184	0.386253	1.056822
C59	C	1.102926	0.296102	1.053248
C60	C	1.106153	0.293168	0.979627
C61	C	1.058390	0.336771	0.944605
N62	N	1.019057	0.372693	0.838078
N63	N	1.061690	0.333762	0.869353
H64	H	0.611110	0.242026	0.307278
F65	F	1.153789	1.089738	0.250023
F66	F	1.130840	0.270670	0.609535
H67	H	0.598221	0.470197	0.375957
H68	H	0.933085	0.451189	0.759228
H69	H	0.933052	0.758554	0.451218
F70	F	1.160416	0.243629	0.938554
H71	H	1.112230	0.287638	0.752740
F72	F	1.153753	0.249698	1.090527
F73	F	0.949916	0.435792	1.097899
F74	F	0.949947	1.097221	0.435965
F75	F	0.956574	0.429720	0.945934
H76	H	1.112191	0.751969	0.287791
H77	H	0.968531	0.953999	0.418958
H78	H	0.938933	0.445852	0.625661
H79	H	0.482919	0.306572	0.242506
F80	F	0.478150	0.224906	0.310538
H81	H	0.610552	0.306838	0.241965
H82	H	0.604453	0.440899	0.282721
F83	F	0.471824	0.444519	0.265176
H84	H	0.471528	0.470146	0.375094
H85	H	0.475589	0.285018	0.443578
F86	F	0.610234	0.265196	0.443931
F87	F	0.464549	0.391718	0.482134
F88	F	0.604783	0.386366	0.484336
H89	H	1.118012	0.618408	0.282399
F90	F	1.160424	0.937760	0.243901
F91	F	0.926932	0.616230	0.456724
