data_functionalizedCrystal
_audit_creation_method	'MofGen! by Chris Wilmer'
_symmetry_space_group_name_H-M	'P1'
_symmetry_Int_Tables_number	1
_symmetry_cell_setting	triclinic
loop_
_symmetry_equiv_pos_as_xyz
  x,y,z
_cell_length_a	18.050590
_cell_length_b	18.050589
_cell_length_c	18.050582
_cell_angle_alpha	89.981795
_cell_angle_beta	89.999233
_cell_angle_gamma	89.982614
loop_
_atom_site_label
_atom_site_type_symbol
_atom_site_fract_x
_atom_site_fract_y
_atom_site_fract_z
Zn1	Zn	1.135292	0.295921	0.419624
Zn2	Zn	1.135203	0.420105	0.295444
Zn3	Zn	1.011112	0.295910	0.295482
Zn4	Zn	1.011060	0.420051	0.419626
O5	O	1.073167	0.357997	0.357544
O6	O	1.239205	0.312422	0.403134
O7	O	1.118727	0.403648	0.191524
O8	O	1.027644	0.191987	0.311965
O9	O	1.239140	0.403659	0.311899
O10	O	1.118879	0.191995	0.403172
O11	O	1.027557	0.312402	0.191553
O12	O	0.907180	0.312350	0.311967
O13	O	1.027555	0.403567	0.523550
O14	O	0.907142	0.403555	0.403175
O15	O	1.118828	0.312370	0.523549
O16	O	1.118676	0.524022	0.311901
O17	O	1.027468	0.523982	0.403138
C18	C	0.880215	0.357946	0.357576
C19	C	0.797669	0.357942	0.357607
C20	C	0.598219	0.407682	0.407088
C21	C	0.548826	0.339967	0.425358
C22	C	0.646538	0.357984	0.357571
C23	C	0.548850	0.425737	0.339300
C24	C	0.500553	0.358030	0.357537
C25	C	0.598233	0.290233	0.375876
C26	C	0.598261	0.376049	0.289787
C27	C	0.548890	0.308287	0.308031
C28	C	0.730637	0.357958	0.357592
C29	C	0.416457	0.358047	0.357516
C30	C	1.073077	0.550949	0.357532
C31	C	1.073107	0.633494	0.357551
C32	C	1.073196	0.357964	0.551250
C33	C	1.073208	0.357950	0.633796
C34	C	1.266872	0.358048	0.357512
C35	C	1.349418	0.358070	0.357499
C36	C	1.073277	0.164291	0.357573
C37	C	1.073324	0.081745	0.357585
C38	C	1.023557	0.832950	0.407148
C39	C	1.005459	0.882381	0.339386
C40	C	1.073180	0.784625	0.357561
C41	C	1.091314	0.882276	0.425331
C42	C	1.073249	0.930610	0.357576
C43	C	1.055046	0.832968	0.289763
C44	C	1.140933	0.832859	0.375754
C45	C	1.122861	0.882267	0.307945
C46	C	1.073138	0.700527	0.357553
C47	C	1.073290	1.014706	0.357576
C48	C	1.073180	0.357976	0.164592
C49	C	1.073312	0.357781	0.082047
C50	C	1.023612	0.407475	0.833247
C51	C	1.091367	0.425641	0.882621
C52	C	1.073245	0.357893	0.784926
C53	C	1.005527	0.339706	0.882634
C54	C	1.073274	0.357840	0.930911
C55	C	1.141036	0.376095	0.833213
C56	C	1.055150	0.290128	0.833221
C57	C	1.122952	0.308269	0.882573
C58	C	1.073227	0.357926	0.700828
C59	C	1.073300	0.357807	1.015008
H60	H	0.981530	0.811296	0.449023
H61	H	0.981678	0.449460	0.811589
N62	N	0.933624	0.909672	0.320067
N63	N	0.905514	0.893005	0.259023
H64	H	0.854779	0.912277	0.245382
H65	H	1.198184	0.811091	0.391160
H66	H	0.527154	0.483016	0.323863
H67	H	1.106625	0.903935	0.482637
N68	N	1.035755	0.805924	0.217849
N69	N	1.074857	0.822230	0.163070
H70	H	1.061230	0.803127	0.112282
H71	H	1.106690	0.482926	0.904320
N72	N	1.212914	0.395439	0.806089
N73	N	1.224495	0.398605	0.737889
H74	H	1.275257	0.412266	0.718730
H75	H	0.527367	0.266230	0.266142
N76	N	1.175539	0.909257	0.255282
N77	N	1.168776	0.893307	0.188241
H78	H	1.205978	0.912369	0.151046
H79	H	0.619834	0.232937	0.391380
H80	H	1.164986	0.266316	0.904094
N81	N	1.035899	0.218294	0.805959
N82	N	1.033350	0.206706	0.737738
H83	H	1.019746	0.155973	0.718482
N84	N	0.625516	0.395229	0.217912
N85	N	0.609727	0.456686	0.190150
H86	H	0.628976	0.470240	0.139388
N87	N	0.521566	0.320827	0.497247
N88	N	0.453346	0.317254	0.508586
H89	H	0.434094	0.303742	0.559358
N90	N	0.933668	0.320445	0.909866
N91	N	0.878945	0.359848	0.894060
H92	H	0.828192	0.346251	0.913291
H93	H	0.619881	0.449636	0.449011
