data_functionalizedCrystal
_audit_creation_method	'MofGen! by Chris Wilmer'
_symmetry_space_group_name_H-M	'P1'
_symmetry_Int_Tables_number	1
_symmetry_cell_setting	triclinic
loop_
_symmetry_equiv_pos_as_xyz
  x,y,z
_cell_length_a	10.723024
_cell_length_b	10.489741
_cell_length_c	9.798715
_cell_angle_alpha	89.997135
_cell_angle_beta	89.996609
_cell_angle_gamma	84.503522
loop_
_atom_site_label
_atom_site_type_symbol
_atom_site_fract_x
_atom_site_fract_y
_atom_site_fract_z
O1	O	1.657297	0.178906	-0.113481
O2	O	1.294155	0.196031	-0.113486
O3	O	1.483989	0.001865	-0.113475
O4	O	1.467463	0.373072	-0.113492
O5	O	1.483975	0.001865	0.113507
O6	O	1.294141	0.196030	0.113496
O7	O	1.657283	0.178906	0.113501
Zn8	Zn	1.475709	0.187468	0.149537
Zn9	Zn	1.475728	0.187469	-0.149522
O10	O	1.467448	0.373071	0.113490
C11	C	1.247647	0.194785	0.000005
C12	C	1.109091	0.191056	0.000003
C13	C	1.034175	0.299701	-0.000003
C14	C	0.890969	0.295850	-0.000004
C15	C	1.482734	-0.045666	0.000015
C16	C	1.478999	-0.187293	0.000012
C17	C	1.358213	-0.255356	0.000001
C18	C	1.415265	-0.347515	0.111915
C19	C	1.415307	-0.347489	-0.111871
C20	C	1.536100	-0.277587	0.112019
C21	C	1.536126	-0.277551	-0.111868
C22	C	1.593265	-0.369683	0.000074
C23	C	1.703790	0.180152	0.000007
C24	C	1.842347	0.183881	-0.000000
C25	C	1.468704	0.420602	-0.000003
C26	C	1.472438	0.562229	-0.000009
N27	N	1.475706	0.187467	0.353637
N28	N	1.475742	0.187460	-0.353622
C29	C	1.555412	0.105583	0.421418
C30	C	1.555432	0.105578	0.578581
H31	H	1.076055	0.395567	0.000001
C32	C	0.679029	0.393297	-0.000009
C33	C	0.804074	0.421416	-0.000010
H34	H	0.625384	0.470821	-0.000004
H35	H	0.663451	0.345014	-0.079157
H36	H	0.663445	0.345002	0.079151
H37	H	0.819660	0.469704	-0.079176
H38	H	0.819658	0.469720	0.079146
H39	H	0.906715	0.090867	-0.000004
C40	C	1.608807	-0.102617	-0.237537
C41	C	1.605071	-0.235669	-0.239594
H42	H	1.651371	-0.076761	-0.316394
H43	H	1.525786	-0.061901	-0.236741
H44	H	1.651820	-0.078958	-0.158086
H45	H	1.562050	-0.259327	-0.319040
H46	H	1.688107	-0.276399	-0.240403
H47	H	1.407503	0.257572	0.588098
C48	C	0.978551	0.052629	-0.116683
C49	C	1.052571	0.061630	0.000003
H50	H	0.943668	-0.027280	-0.116685
H51	H	0.912999	0.120282	-0.116673
H52	H	1.028795	0.058758	-0.195826
H53	H	1.002324	0.055511	0.079147
H54	H	1.118131	-0.006042	0.000005
C55	C	1.161202	-0.223308	0.117490
C56	C	1.224156	-0.188230	0.000145
H57	H	1.078446	-0.181859	0.117585
H58	H	1.157906	-0.313468	0.118290
H59	H	1.204550	-0.198367	0.196179
H60	H	1.180812	-0.213180	-0.078544
H61	H	1.227445	-0.098050	-0.000667
H62	H	1.364151	-0.378494	0.206530
C63	C	1.607843	-0.102845	0.238780
C64	C	1.605019	-0.236020	0.239898
H65	H	1.650381	-0.077184	0.317731
H66	H	1.650471	-0.078347	0.159417
H67	H	1.524589	-0.062688	0.238455
H68	H	1.688274	-0.276177	0.240212
H69	H	1.562394	-0.260531	0.319281
H70	H	1.623632	0.035476	0.363099
C71	C	1.223236	-0.330988	-0.239373
C72	C	1.346305	-0.389261	-0.239604
H73	H	1.180637	-0.356767	-0.318231
H74	H	1.181139	-0.356113	-0.159915
H75	H	1.224472	-0.240559	-0.239840
H76	H	1.345070	-0.479691	-0.239127
H77	H	1.388412	-0.364144	-0.319083
C78	C	1.309887	0.357813	0.339630
C79	C	1.383593	0.282102	0.432353
H80	H	1.253014	0.416232	0.388227
H81	H	1.362325	0.404075	0.283892
H82	H	1.264320	0.304477	0.283902
H83	H	1.429168	0.335438	0.488075
H84	H	1.331149	0.235837	0.488114
H85	H	1.692663	-0.419171	0.000138
H86	H	1.623676	0.035479	0.636870
