data_functionalizedCrystal
_audit_creation_method	'MofGen! by Chris Wilmer'
_symmetry_space_group_name_H-M	'P1'
_symmetry_Int_Tables_number	1
_symmetry_cell_setting	triclinic
loop_
_symmetry_equiv_pos_as_xyz
  x,y,z
_cell_length_a	10.654550
_cell_length_b	9.065218
_cell_length_c	9.130313
_cell_angle_alpha	90.000552
_cell_angle_beta	89.996220
_cell_angle_gamma	84.750394
loop_
_atom_site_label
_atom_site_type_symbol
_atom_site_fract_x
_atom_site_fract_y
_atom_site_fract_z
O1	O	1.668655	0.207228	-0.121914
O2	O	1.303255	0.226972	-0.121889
O3	O	1.493507	0.002416	-0.121899
O4	O	1.478402	0.431784	-0.121904
O5	O	1.493505	0.002422	0.121700
O6	O	1.303252	0.226978	0.121709
O7	O	1.668653	0.207234	0.121685
Cu8	Cu	1.485952	0.217107	0.143940
Cu9	Cu	1.485955	0.217100	-0.144144
O10	O	1.478400	0.431790	0.121695
C11	C	1.256450	0.225525	-0.000087
C12	C	1.116989	0.221188	-0.000078
C13	C	1.038027	0.353403	-0.000101
C14	C	0.906990	0.349319	-0.000126
C15	C	0.933890	0.080793	-0.000112
C16	C	1.064925	0.084879	-0.000076
C17	C	1.022496	0.508434	-0.000115
C18	C	0.891459	0.504350	-0.000141
C19	C	1.492055	-0.052559	-0.000102
C20	C	1.487714	-0.216378	-0.000109
C21	C	1.715457	0.208681	-0.000120
C22	C	1.854918	0.213018	-0.000139
C23	C	1.479852	0.486766	-0.000106
C24	C	1.484193	0.650585	-0.000108
N25	N	1.485959	0.217111	0.346563
N26	N	1.485957	0.217084	-0.346767
C27	C	1.570225	0.117712	0.423210
C28	C	1.570222	0.117694	0.576547
C29	C	1.401682	0.316488	0.576575
C30	C	1.401681	0.316497	0.423241
C31	C	1.667534	0.002944	0.423195
C32	C	1.667531	0.002926	0.576532
H33	H	1.058348	0.557796	-0.105288
H34	H	0.845972	0.551205	0.105027
H35	H	1.764142	0.028206	0.618142
O36	O	0.841814	0.573816	-0.121815
C37	C	0.722334	0.552104	-0.343616
C38	C	0.778459	0.473269	-0.205871
H39	H	0.671121	0.470839	-0.411629
H40	H	0.653041	0.649414	-0.309739
H41	H	0.801379	0.594408	-0.411510
H42	H	0.699500	0.430872	-0.137915
H43	H	0.847784	0.376030	-0.239849
H44	H	1.129212	-0.022783	-0.000036
O45	O	1.319874	0.413232	0.650900
C46	C	1.249218	0.668980	0.697910
C47	C	1.341922	0.559578	0.613627
H48	H	1.267029	0.787325	0.667830
H49	H	1.148387	0.648771	0.667731
H50	H	1.263668	0.651823	0.820662
H51	H	1.327587	0.576671	0.490856
H52	H	1.442719	0.579815	0.643928
H53	H	0.891483	-0.030185	-0.000133
O54	O	1.776476	0.046034	0.366636
C55	C	1.916590	0.239512	0.350163
C56	C	1.793200	0.190870	0.414326
H57	H	1.930137	0.356627	0.388671
H58	H	1.999361	0.160470	0.388751
H59	H	1.911573	0.237475	0.225465
H60	H	1.798092	0.192915	0.539026
H61	H	1.710479	0.269923	0.375624
H62	H	1.052066	0.569069	0.101835
O63	O	1.641341	-0.132405	0.373780
C64	C	1.593784	-0.379090	0.437796
C65	C	1.623406	-0.225873	0.493958
H66	H	1.579301	-0.454711	0.534931
H67	H	1.504439	-0.366681	0.368493
H68	H	1.675780	-0.429338	0.368368
H69	H	1.541489	-0.175539	0.563447
H70	H	1.712793	-0.238377	0.563181
H71	H	1.333054	0.397423	0.360836
H72	H	1.636593	-0.104243	0.624083
