data_functionalizedCrystal
_audit_creation_method	'MofGen! by Chris Wilmer'
_symmetry_space_group_name_H-M	'P1'
_symmetry_Int_Tables_number	1
_symmetry_cell_setting	triclinic
loop_
_symmetry_equiv_pos_as_xyz
  x,y,z
_cell_length_a	18.101398
_cell_length_b	18.101395
_cell_length_c	12.759393
_cell_angle_alpha	89.967630
_cell_angle_beta	89.986513
_cell_angle_gamma	90.026661
loop_
_atom_site_label
_atom_site_type_symbol
_atom_site_fract_x
_atom_site_fract_y
_atom_site_fract_z
Zn1	Zn	1.132148	-0.294882	-0.593797
Zn2	Zn	1.632148	0.205118	-0.093797
Zn3	Zn	1.132036	-0.418741	-0.418112
Zn4	Zn	1.632036	0.081259	0.081888
Zn5	Zn	1.008299	-0.294908	-0.418155
Zn6	Zn	1.508299	0.205092	0.081845
Zn7	Zn	1.008258	-0.418676	-0.593772
Zn8	Zn	1.508258	0.081324	-0.093772
O9	O	1.070185	-0.356802	-0.505959
O10	O	1.570185	0.143198	-0.005959
O11	O	1.235766	-0.311328	-0.570485
O12	O	1.735766	0.188672	-0.070485
O13	O	1.115592	-0.402352	-0.271096
O14	O	1.615592	0.097648	0.228904
O15	O	1.024792	-0.191272	-0.441484
O16	O	1.524792	0.308728	0.058516
O17	O	1.235684	-0.402327	-0.441409
O18	O	1.735684	0.097673	0.058591
O19	O	1.115784	-0.191252	-0.570527
O20	O	1.615784	0.308748	-0.070527
O21	O	1.024683	-0.311373	-0.271129
O22	O	1.524683	0.188627	0.228871
O23	O	0.904661	-0.311310	-0.441459
O24	O	1.404661	0.188690	0.058541
O25	O	1.024722	-0.402217	-0.740796
O26	O	1.524722	0.097783	-0.240796
O27	O	0.904631	-0.402242	-0.570484
O28	O	1.404631	0.097758	-0.070484
O29	O	1.115744	-0.311265	-0.740815
O30	O	1.615744	0.188735	-0.240815
O31	O	1.115552	-0.522365	-0.441385
O32	O	1.615552	-0.022365	0.058615
O33	O	1.024613	-0.522318	-0.570441
O34	O	1.524613	-0.022318	-0.070441
C35	C	0.877775	-0.356773	-0.505974
C36	C	1.377775	0.143227	-0.005974
C37	C	0.795461	-0.356778	-0.506005
C38	C	1.295461	0.143222	-0.006005
C39	C	0.496370	-0.356822	-0.505961
C40	C	0.996370	0.143178	-0.005961
C41	C	0.527701	-0.414310	-0.586739
C42	C	1.027701	0.085690	-0.086739
C43	C	0.613319	-0.414130	-0.587071
C44	C	1.113319	0.085870	-0.087071
C45	C	0.644752	-0.356801	-0.505983
C46	C	1.144752	0.143199	-0.005983
C47	C	0.613699	-0.278796	-0.536237
C48	C	1.113699	0.221204	-0.036237
C49	C	0.528054	-0.279141	-0.536811
C50	C	1.028054	0.220859	-0.036811
C51	C	0.527912	-0.376650	-0.394734
C52	C	1.027912	0.123350	0.105266
C53	C	0.613562	-0.378361	-0.395329
C54	C	1.113562	0.121639	0.104671
C55	C	0.728612	-0.356784	-0.505993
C56	C	1.228612	0.143216	-0.005993
C57	C	0.412510	-0.356833	-0.505953
C58	C	0.912510	0.143167	-0.005953
C59	C	1.070086	-0.549212	-0.505928
C60	C	1.570086	-0.049212	-0.005928
C61	C	1.070112	-0.631526	-0.505950
C62	C	1.570112	-0.131526	-0.005950
C63	C	1.070274	-0.930617	-0.506007
C64	C	1.570274	-0.430617	-0.006007
C65	C	1.013190	-0.899293	-0.587407
C66	C	1.513190	-0.399293	-0.087407
C67	C	1.012919	-0.813675	-0.587153
C68	C	1.512919	-0.313675	-0.087153
C69	C	1.070193	-0.782235	-0.505980
C70	C	1.570193	-0.282235	-0.005980
C71	C	1.049059	-0.813391	-0.395258
C72	C	1.549059	-0.313391	0.104742
C73	C	1.048691	-0.899037	-0.395745
C74	C	1.548691	-0.399037	0.104255
C75	C	1.148617	-0.898965	-0.534353
C76	C	1.648617	-0.398965	-0.034353
C77	C	1.148157	-0.813314	-0.536782
C78	C	1.648157	-0.313314	-0.036782
C79	C	1.070149	-0.698375	-0.505957
C80	C	1.570149	-0.198375	-0.005957
C81	C	1.070317	-1.014477	-0.506021
C82	C	1.570317	-0.514477	-0.006021
C83	C	1.263347	-0.356832	-0.505945
C84	C	1.763347	0.143168	-0.005945
C85	C	1.345661	-0.356844	-0.505939
C86	C	1.845661	0.143156	-0.005939
C87	C	1.070241	-0.356731	-0.779993
C88	C	1.570241	0.143269	-0.279993
C89	C	1.070264	-0.356700	-0.896769
C90	C	1.570264	0.143300	-0.396769
C91	C	1.070305	-0.163640	-0.506013
C92	C	1.570305	0.336360	-0.006013
C93	C	1.070356	-0.081326	-0.506036
C94	C	1.570356	0.418674	-0.006036
C95	C	1.117663	-0.309334	-0.951643
C96	C	1.617663	0.190666	-0.451643
C97	C	1.117675	-0.309303	-1.061367
C98	C	1.617675	0.190697	-0.561367
C99	C	1.022889	-0.404009	-1.061335
C100	C	1.522889	0.095991	-0.561335
C101	C	1.022873	-0.404036	-0.951612
C102	C	1.522873	0.095964	-0.451612
C103	C	1.070173	-0.356819	-0.232992
C104	C	1.570173	0.143181	0.267008
C105	C	1.070293	-0.356641	-0.116216
C106	C	1.570293	0.143359	0.383784
H107	H	0.634959	-0.339530	-0.331911
H108	H	1.134959	0.160470	0.168089
H109	H	1.088465	-0.919761	-0.333028
H110	H	1.588465	-0.419761	0.166972
H111	H	1.156271	-0.270731	-1.106040
H112	H	1.656271	0.229269	-0.606040
H113	H	0.954849	-0.793249	-0.568377
H114	H	1.454849	-0.293249	-0.068377
H115	H	0.984270	-0.442607	-0.906933
H116	H	1.484270	0.057393	-0.406933
H117	H	0.634313	-0.471974	-0.568110
H118	H	1.134313	0.028026	-0.068110
H119	H	0.507084	-0.472343	-0.567990
H120	H	1.007084	0.027657	-0.067990
H121	H	0.984306	-0.442550	-1.106001
H122	H	1.484306	0.057450	-0.606001
H123	H	1.089328	-0.793028	-0.332955
H124	H	1.589328	-0.293028	0.167045
H125	H	0.992397	-0.792004	-0.370813
H126	H	1.492397	-0.292004	0.129187
H127	H	0.635168	-0.261676	-0.616665
H128	H	1.135168	0.238324	-0.116665
H129	H	1.156250	-0.270788	-0.906993
H130	H	1.656250	0.229212	-0.406993
H131	H	1.191147	-0.919222	-0.475066
H132	H	1.691147	-0.419222	0.024934
H133	H	0.506194	-0.401357	-0.668675
H134	H	1.006194	0.098643	-0.168675
H135	H	0.508097	-0.262325	-0.618123
H136	H	1.008097	0.237675	-0.118123
H137	H	0.633825	-0.401010	-0.669483
H138	H	1.133825	0.098990	-0.169483
H139	H	0.955474	-0.920876	-0.568868
H140	H	1.455474	-0.420876	-0.068868
H141	H	0.507330	-0.234773	-0.480674
H142	H	1.007330	0.265227	0.019326
H143	H	0.506297	-0.432558	-0.367240
H144	H	1.006297	0.067442	0.132760
H145	H	0.634061	-0.234802	-0.479237
H146	H	1.134061	0.265198	0.020763
H147	H	0.633865	-0.435761	-0.372511
H148	H	1.133865	0.064239	0.127489
H149	H	0.507651	-0.334775	-0.334547
H150	H	1.007651	0.165225	0.165453
H151	H	1.164094	-0.792947	-0.618267
H152	H	1.664094	-0.292947	-0.118267
H153	H	1.026142	-0.792607	-0.669252
H154	H	1.526142	-0.292607	-0.169252
H155	H	1.026282	-0.919837	-0.669773
H156	H	1.526282	-0.419837	-0.169773
H157	H	0.991423	-0.919077	-0.371730
H158	H	1.491423	-0.419077	0.128270
H159	H	1.167885	-0.920510	-0.613715
H160	H	1.667885	-0.420510	-0.113715
H161	H	1.192937	-0.791909	-0.481814
H162	H	1.692937	-0.291909	0.018186
