data_functionalizedCrystal
_audit_creation_method	'MofGen! by Chris Wilmer'
_symmetry_space_group_name_H-M	'P1'
_symmetry_Int_Tables_number	1
_symmetry_cell_setting	triclinic
loop_
_symmetry_equiv_pos_as_xyz
  x,y,z
_cell_length_a	25.639242
_cell_length_b	25.639240
_cell_length_c	16.625539
_cell_angle_alpha	90.038438
_cell_angle_beta	90.021538
_cell_angle_gamma	90.025061
loop_
_atom_site_label
_atom_site_type_symbol
_atom_site_fract_x
_atom_site_fract_y
_atom_site_fract_z
Zn1	Zn	0.799284	-0.208257	0.455873
Zn2	Zn	0.799205	-0.295695	0.321017
Zn3	Zn	0.711849	-0.208264	0.321052
Zn4	Zn	0.711814	-0.295652	0.455804
O5	O	0.755538	-0.251967	0.388436
O6	O	0.872438	-0.219871	0.437999
O7	O	0.787599	-0.284118	0.208189
O8	O	0.723495	-0.135098	0.338979
O9	O	0.872381	-0.284112	0.338920
O10	O	0.787733	-0.135093	0.438032
O11	O	0.723419	-0.219883	0.208214
O12	O	0.638679	-0.219841	0.338913
O13	O	0.723435	-0.284038	0.568646
O14	O	0.638654	-0.284044	0.437915
O15	O	0.787699	-0.219829	0.568697
O16	O	0.787565	-0.368855	0.338853
O17	O	0.723359	-0.368823	0.437881
C18	C	0.619695	-0.251939	0.388410
C19	C	0.561581	-0.251939	0.388418
C20	C	0.310426	-0.218576	0.440121
C21	C	0.365030	-0.218571	0.440116
O22	O	0.393299	-0.190182	0.484070
N23	N	0.392308	-0.251961	0.388446
C24	C	0.364978	-0.285362	0.336782
O25	O	0.393193	-0.313762	0.292833
C26	C	0.310374	-0.285369	0.336791
C27	C	0.283100	-0.251973	0.388460
C28	C	0.283152	-0.185184	0.491785
C29	C	0.228551	-0.185189	0.491789
C30	C	0.201225	-0.218586	0.440127
C31	C	0.228499	-0.251978	0.388463
C32	C	0.283045	-0.318772	0.285133
C33	C	0.228438	-0.318777	0.285147
C34	C	0.201164	-0.285381	0.336815
C35	C	0.146573	-0.285380	0.336805
N36	N	0.119295	-0.251990	0.388475
C37	C	0.146622	-0.218593	0.440137
C38	C	0.479648	-0.285344	0.336768
C39	C	0.534251	-0.285334	0.336754
C40	C	0.534300	-0.218545	0.440089
C41	C	0.479696	-0.218552	0.440098
C42	C	0.452371	-0.251955	0.388438
C43	C	0.031957	-0.218605	0.440139
C44	C	-0.022649	-0.218611	0.440136
C45	C	-0.022693	-0.285402	0.336804
C46	C	0.031907	-0.285395	0.336804
C47	C	0.059231	-0.251994	0.388478
O48	O	0.118269	-0.313756	0.292876
O49	O	0.118400	-0.190202	0.484086
C50	C	0.755464	-0.387810	0.388373
C51	C	0.755480	-0.445924	0.388373
C52	C	0.789003	-0.806246	0.440106
C53	C	0.789019	-0.860850	0.440123
O54	O	0.817433	-0.889052	0.484043
N55	N	0.755611	-0.888206	0.388514
C56	C	0.722181	-0.860955	0.336892
O57	O	0.693766	-0.889237	0.292997
C58	C	0.722163	-0.806352	0.336880
C59	C	0.755577	-0.778998	0.388486
C60	C	0.822414	-0.778892	0.491709
C61	C	0.822399	-0.724292	0.491691
C62	C	0.788974	-0.697045	0.440071
C63	C	0.755563	-0.724398	0.388469
C64	C	0.688732	-0.779102	0.285263
C65	C	0.688717	-0.724495	0.285256
C66	C	0.722131	-0.697141	0.336862
C67	C	0.722122	-0.642550	0.336831
N68	N	0.755530	-0.615194	0.388439
C69	C	0.788956	-0.642441	0.440059
C70	C	0.722220	-0.975626	0.336922
C71	C	0.722240	-1.030228	0.336929
C72	C	0.789077	-1.030119	0.440161
C73	C	0.789059	-0.975516	0.440149
C74	C	0.755628	-0.948269	0.388530
C75	C	0.788922	-0.527776	0.440018
C76	C	0.788906	-0.473171	0.439993
C77	C	0.722067	-0.473284	0.336765
C78	C	0.722085	-0.527885	0.336786
C79	C	0.755515	-0.555130	0.388419
O80	O	0.693720	-0.614313	0.292935
O81	O	0.817361	-0.614152	0.483954
C82	C	0.891911	-0.251996	0.388463
C83	C	0.950025	-0.252008	0.388474
C84	C	0.755572	-0.251928	0.598745
C85	C	0.755586	-0.251911	0.688367
C86	C	0.755626	-0.115594	0.388518
C87	C	0.755664	-0.057480	0.388552
C88	C	0.755534	-0.251968	0.178946
C89	C	0.755621	-0.251837	0.089325
C90	C	0.755611	-0.251853	1.016543
C91	C	0.755602	-0.251871	0.925234
C92	C	0.755599	-0.251883	0.852457
C93	C	0.755590	-0.251900	0.761143
H94	H	0.305395	-0.157988	0.533858
H95	H	0.849606	-0.702024	0.533715
H96	H	0.054197	-0.191407	0.482217
N97	N	0.652693	-0.808595	0.229600
H98	H	0.631516	-0.783041	0.196905
H99	H	0.628490	-0.831249	0.262391
N100	N	0.450183	-0.321367	0.281029
H101	H	0.427524	-0.300091	0.243730
H102	H	0.427560	-0.345625	0.313775
N103	N	0.312454	-0.354790	0.229402
H104	H	0.286849	-0.375946	0.196684
H105	H	0.335110	-0.379012	0.262145
H106	H	0.054115	-0.312583	0.294725
H107	H	0.206193	-0.345979	0.243080
N108	N	0.652657	-0.695108	0.229582
H109	H	0.631494	-0.720725	0.196895
H110	H	0.673944	-0.672458	0.192288
H111	H	0.694881	-0.550157	0.294758
N112	N	0.825090	-0.946013	0.495817
H113	H	0.849326	-0.923355	0.463086
H114	H	0.846232	-0.971596	0.528508
H115	H	0.457493	-0.191358	0.482170
H116	H	0.556558	-0.191351	0.482155
N117	N	0.686020	-0.443891	0.281086
H118	H	0.691082	-0.405150	0.288912
H119	H	0.648676	-0.453453	0.293585
H120	H	0.849633	-0.801071	0.533749
H121	H	0.695036	-1.052494	0.294897
N122	N	0.563665	-0.321345	0.281013
H123	H	0.538063	-0.342500	0.248289
H124	H	0.586322	-0.345569	0.313754
H125	H	-0.044952	-0.312591	0.294739
N126	N	0.686164	-0.946240	0.281237
H127	H	0.665007	-0.971859	0.248547
H128	H	0.707454	-0.923590	0.243946
N129	N	0.824948	-0.443668	0.495655
H130	H	0.846122	-0.469218	0.528359
H131	H	0.803645	-0.421007	0.532932
H132	H	-0.044853	-0.191414	0.482210
N133	N	0.824971	-0.557157	0.495715
H134	H	0.846131	-0.531536	0.528400
H135	H	0.849190	-0.579815	0.462946
H136	H	0.816293	-1.052314	0.482194
H137	H	0.206349	-0.157997	0.533866
