data_functionalizedCrystal
_audit_creation_method	'MofGen! by Chris Wilmer'
_symmetry_space_group_name_H-M	'P1'
_symmetry_Int_Tables_number	1
_symmetry_cell_setting	triclinic
loop_
_symmetry_equiv_pos_as_xyz
  x,y,z
_cell_length_a	29.839134
_cell_length_b	21.295417
_cell_length_c	21.295411
_cell_angle_alpha	90.020597
_cell_angle_beta	90.036602
_cell_angle_gamma	90.022447
loop_
_atom_site_label
_atom_site_type_symbol
_atom_site_fract_x
_atom_site_fract_y
_atom_site_fract_z
Zn1	Zn	0.686811	-0.250803	0.356118
Zn2	Zn	1.186811	0.249197	0.856118
Zn3	Zn	0.686742	-0.356055	0.250845
Zn4	Zn	1.186742	0.143945	0.750845
Zn5	Zn	0.611677	-0.250790	0.250841
Zn6	Zn	1.111677	0.249210	0.750841
Zn7	Zn	0.611657	-0.356025	0.356055
Zn8	Zn	1.111657	0.143975	0.856055
O9	O	0.649222	-0.303418	0.303465
O10	O	1.149222	0.196582	0.803465
O11	O	0.749669	-0.264782	0.342182
O12	O	1.249669	0.235218	0.842182
O13	O	0.676765	-0.342098	0.162755
O14	O	1.176765	0.157902	0.662755
O15	O	0.621681	-0.162702	0.264831
O16	O	1.121681	0.337298	0.764831
O17	O	0.749618	-0.342111	0.264838
O18	O	1.249618	0.157889	0.764838
O19	O	0.676882	-0.162712	0.342178
O20	O	1.176882	0.337288	0.842178
O21	O	0.621615	-0.264761	0.162752
O22	O	1.121615	0.235239	0.662752
O23	O	0.548808	-0.264732	0.264770
O24	O	1.048808	0.235268	0.764770
O25	O	0.621646	-0.342060	0.444153
O26	O	1.121646	0.157940	0.944153
O27	O	0.548792	-0.342047	0.342070
O28	O	1.048792	0.157953	0.842070
O29	O	0.676861	-0.264754	0.444199
O30	O	1.176861	0.235246	0.944199
O31	O	0.676744	-0.444140	0.264777
O32	O	1.176744	0.055860	0.764777
O33	O	0.621579	-0.444118	0.342074
O34	O	1.121579	0.055882	0.842074
C35	C	0.532499	-0.303385	0.303413
C36	C	1.032499	0.196615	0.803413
C37	C	0.482565	-0.303386	0.303406
C38	C	0.982565	0.196614	0.803406
C39	C	0.649164	-0.466970	0.303433
C40	C	1.149164	0.033030	0.803433
C41	C	0.649181	-0.536938	0.303441
C42	C	1.149181	-0.036938	0.803441
C43	C	0.125973	-0.263100	0.263297
C44	C	0.625973	0.236900	0.763297
C45	C	0.313646	-0.263082	0.263259
C46	C	0.813646	0.236918	0.763259
O47	O	0.337907	-0.228776	0.229098
O48	O	0.837907	0.271224	0.729098
N49	N	0.337120	-0.303397	0.303437
N50	N	0.837120	0.196603	0.803437
C51	C	0.313672	-0.343715	0.343631
C52	C	0.813672	0.156285	0.843631
O53	O	0.337944	-0.378000	0.377809
O54	O	0.837944	0.122000	0.877809
C55	C	0.126000	-0.343729	0.343672
C56	C	0.626000	0.156271	0.843672
C57	C	0.102529	-0.303417	0.303486
C58	C	0.602529	0.196583	0.803486
C59	C	0.102502	-0.222791	0.223115
C60	C	0.602502	0.277209	0.723115
C61	C	0.055586	-0.222798	0.223123
C62	C	0.555586	0.277202	0.723123
C63	C	0.032142	-0.263115	0.263312
C64	C	0.532142	0.236885	0.763312
C65	C	0.055613	-0.303424	0.303494
C66	C	0.555613	0.196576	0.803494
C67	C	0.102553	-0.384044	0.383869
C68	C	0.602553	0.115956	0.883869
C69	C	0.055632	-0.384043	0.383876
C70	C	0.555632	0.115957	0.883876
C71	C	0.032161	-0.343731	0.343691
C72	C	0.532161	0.156269	0.843691
C73	C	-0.014747	-0.343748	0.343691
C74	C	0.485253	0.156252	0.843691
N75	N	-0.038220	-0.303434	0.303512
N76	N	0.461780	0.196566	0.803512
C77	C	-0.014776	-0.263117	0.263323
C78	C	0.485224	0.236883	0.763323
C79	C	0.412203	-0.343706	0.343606
C80	C	0.912203	0.156294	0.843606
C81	C	0.459120	-0.343703	0.343595
C82	C	0.959120	0.156297	0.843595
C83	C	0.459091	-0.263069	0.263223
C84	C	0.959091	0.236931	0.763223
C85	C	0.412173	-0.263076	0.263231
C86	C	0.912173	0.236924	0.763231
C87	C	0.388729	-0.303392	0.303427
C88	C	0.888729	0.196608	0.803427
C89	C	-0.113302	-0.263136	0.263341
C90	C	0.386698	0.236864	0.763341
C91	C	-0.160221	-0.263149	0.263351
C92	C	0.339779	0.236851	0.763351
C93	C	-0.160188	-0.343780	0.343724
C94	C	0.339812	0.156220	0.843724
C95	C	-0.113272	-0.343770	0.343713
C96	C	0.386728	0.156230	0.843713
C97	C	-0.089830	-0.303443	0.303519
C98	C	0.410170	0.196557	0.803519
O99	O	-0.039036	-0.378031	0.377838
O100	O	0.460964	0.121969	0.877838
O101	O	-0.039056	-0.228828	0.229160
O102	O	0.460944	0.271172	0.729160
C103	C	0.172888	-0.263093	0.263289
C104	C	0.672888	0.236907	0.763289
C105	C	0.196360	-0.303402	0.303471
C106	C	0.696360	0.196598	0.803471
C107	C	0.172915	-0.343719	0.343661
C108	C	0.672915	0.156281	0.843661
C109	C	0.243277	-0.303400	0.303460
C110	C	0.743277	0.196600	0.803460
C111	C	0.266722	-0.263083	0.263271
C112	C	0.766722	0.236917	0.763271
C113	C	0.243248	-0.222769	0.223092
C114	C	0.743248	0.277231	0.723092
C115	C	0.196333	-0.222776	0.223100
C116	C	0.696333	0.277224	0.723100
C117	C	0.196389	-0.384033	0.383839
C118	C	0.696389	0.115967	0.883839
C119	C	0.243304	-0.384023	0.383828
C120	C	0.743304	0.115977	0.883828
C121	C	0.266749	-0.343706	0.343638
C122	C	0.766749	0.156294	0.843638
C123	C	0.766400	-0.303451	0.303518
C124	C	1.266400	0.196549	0.803518
C125	C	0.816334	-0.303465	0.303540
C126	C	1.316334	0.196535	0.803540
C127	C	0.677907	-0.569752	0.343744
C128	C	1.177907	-0.069752	0.843744
C129	C	0.677923	-0.635495	0.343759
C130	C	1.177923	-0.135495	0.843759
C131	C	0.649217	-0.668420	0.303460
C132	C	1.149217	-0.168420	0.803460
C133	C	0.620486	-0.635598	0.263154
C134	C	1.120486	-0.135598	0.763154
C135	C	0.620467	-0.569857	0.263144
C136	C	1.120467	-0.069857	0.763144
N137	N	0.645821	-0.771672	0.248368
N138	N	1.145821	-0.271672	0.748368
N139	N	0.645841	-0.834123	0.248380
N140	N	1.145841	-0.334123	0.748380
C141	C	0.649270	-0.866495	0.303489
C142	C	1.149270	-0.366495	0.803489
N143	N	0.652687	-0.834056	0.358588
N144	N	1.152687	-0.334056	0.858588
N145	N	0.652670	-0.771599	0.358576
N146	N	1.152670	-0.271599	0.858576
C147	C	0.649234	-0.739706	0.303467
C148	C	1.149234	-0.239706	0.803467
C149	C	0.678015	-0.970595	0.343812
C150	C	1.178015	-0.470595	0.843812
C151	C	0.678028	-1.036338	0.343829
C152	C	1.178028	-0.536338	0.843829
C153	C	0.620592	-1.036441	0.263218
C154	C	1.120592	-0.536441	0.763218
C155	C	0.620577	-0.970698	0.263207
C156	C	1.120577	-0.470698	0.763207
C157	C	0.649291	-0.937779	0.303503
C158	C	1.149291	-0.437779	0.803503
C159	C	0.649259	-0.303405	0.467655
C160	C	1.149259	0.196595	0.967655
C161	C	0.649275	-0.303399	0.537623
C162	C	1.149275	0.196601	1.037623
C163	C	0.649291	-0.139228	0.303511
C164	C	1.149291	0.360772	0.803511
C165	C	0.649321	-0.069260	0.303530
C166	C	1.149321	0.430740	0.803530
C167	C	0.649210	-0.303386	0.139913
C168	C	1.149210	0.196614	0.639913
C169	C	0.649282	-0.303214	0.069946
C170	C	1.149282	0.196786	0.569946
C171	C	0.678024	-0.263144	0.570515
C172	C	1.178024	0.236856	1.070515
C173	C	0.678024	-0.263117	0.636258
C174	C	1.178024	0.236883	1.136258
C175	C	0.649278	-0.303356	0.669106
C176	C	1.149278	0.196644	1.169106
C177	C	0.620523	-0.343614	0.636206
C178	C	1.120523	0.156386	1.136206
C179	C	0.620522	-0.343635	0.570465
C180	C	1.120522	0.156365	1.070465
N181	N	0.645813	-0.358423	0.772321
N182	N	1.145813	0.141577	1.272321
N183	N	0.645817	-0.358400	0.834773
N184	N	1.145817	0.141600	1.334773
C185	C	0.649281	-0.303292	0.867181
C186	C	1.149281	0.196708	1.367181
N187	N	0.652750	-0.248205	0.834778
N188	N	1.152750	0.251795	1.334778
N189	N	0.652748	-0.248228	0.772321
N190	N	1.152748	0.251772	1.272321
C191	C	0.649277	-0.303336	0.740391
C192	C	1.149277	0.196664	1.240391
C193	C	0.678031	-0.263004	0.971358
C194	C	1.178031	0.236996	1.471358
C195	C	0.678028	-0.262975	1.037102
C196	C	1.178028	0.237025	1.537102
C197	C	0.620530	-0.343478	1.037049
C198	C	1.120530	0.156522	1.537049
C199	C	0.620531	-0.343501	0.971307
C200	C	1.120531	0.156499	1.471307
C201	C	0.649284	-0.303264	0.938465
C202	C	1.149284	0.196736	1.438465
H203	H	-0.094221	-0.230295	0.230615
H204	H	0.405779	0.269705	0.730615
H205	H	0.121585	-0.189957	0.190388
H206	H	0.621585	0.310043	0.690388
H207	H	0.597120	-0.376235	1.063794
H208	H	1.097120	0.123765	1.563794
C209	C	0.030099	-0.427749	0.427494
C210	C	0.530099	0.072251	0.927494
C211	C	-0.016014	-0.419120	0.418916
C212	C	0.483986	0.080880	0.918916
C213	C	-0.039548	-0.459366	0.459090
C214	C	0.460452	0.040634	0.959090
H215	H	0.037721	-0.470056	0.418246
H216	H	0.537721	0.029944	0.918246
H217	H	0.037788	-0.418587	0.469817
H218	H	0.537788	0.081413	0.969817
H219	H	-0.023701	-0.428287	0.376603
H220	H	0.476299	0.071713	0.876603
H221	H	-0.023650	-0.376822	0.428169
H222	H	0.476350	0.123178	0.928169
H223	H	-0.031859	-0.450204	0.501413
H224	H	0.468141	0.049796	1.001413
H225	H	-0.031922	-0.501670	0.449839
H226	H	0.468078	-0.001670	0.949839
H227	H	-0.070838	-0.453513	0.453280
H228	H	0.429162	0.046487	0.953280
H229	H	0.262410	-0.416856	0.416551
H230	H	0.762410	0.083144	0.916551
H231	H	0.597123	-0.376285	0.944526
H232	H	1.097123	0.123715	1.444526
C233	C	0.709188	-0.219212	0.935727
C234	C	1.209188	0.280788	1.435727
C235	C	0.699424	-0.156919	0.951694
C236	C	1.199424	0.343081	1.451694
C237	C	0.728111	-0.116561	0.918878
C238	C	1.228111	0.383439	1.418878
H239	H	0.739386	-0.228344	0.946500
H240	H	1.239386	0.271656	1.446500
H241	H	0.705067	-0.224952	0.891857
H242	H	1.205067	0.275048	1.391857
H243	H	0.703549	-0.151181	0.995554
H244	H	1.203549	0.348819	1.495554
H245	H	0.669231	-0.147767	0.940919
H246	H	1.169231	0.352233	1.440919
H247	H	0.723990	-0.122301	0.875008
H248	H	1.223990	0.377699	1.375008
H249	H	0.758307	-0.125699	0.929654
H250	H	1.258307	0.374301	1.429654
H251	H	0.721488	-0.074291	0.929703
H252	H	1.221488	0.425709	1.429703
C253	C	0.170791	-0.178982	0.179567
C254	C	0.670791	0.321018	0.679567
C255	C	0.143870	-0.138694	0.215273
C256	C	0.643870	0.361306	0.715273
C257	C	0.120332	-0.098351	0.175186
C258	C	0.620332	0.401649	0.675186
H259	H	0.191423	-0.154912	0.155613
H260	H	0.691423	0.345088	0.655613
H261	H	0.152445	-0.203017	0.152113
H262	H	0.652445	0.296983	0.652113
H263	H	0.162214	-0.114661	0.242715
H264	H	0.662214	0.385339	0.742715
H265	H	0.123230	-0.162747	0.239225
H266	H	0.623230	0.337253	0.739225
H267	H	0.101986	-0.122386	0.147732
H268	H	0.601986	0.377614	0.647732
H269	H	0.140966	-0.074285	0.151234
H270	H	0.640966	0.425715	0.651234
H271	H	0.102060	-0.071015	0.199406
H272	H	0.602060	0.428985	0.699406
C273	C	0.709067	-0.671245	0.387492
C274	C	1.209067	-0.171245	0.887492
C275	C	0.702929	-0.735864	0.378884
C276	C	1.202929	-0.235864	0.878884
C277	C	0.731607	-0.768815	0.419164
C278	C	1.231607	-0.268815	0.919164
H279	H	0.739270	-0.660519	0.378361
H280	H	1.239270	-0.160519	0.878361
H281	H	0.702474	-0.660497	0.429791
H282	H	1.202474	-0.160497	0.929791
H283	H	0.709526	-0.746609	0.336594
H284	H	1.209526	-0.246609	0.836594
H285	H	0.672733	-0.746610	0.388019
H286	H	1.172733	-0.246610	0.888019
H287	H	0.725014	-0.758067	0.461463
H288	H	1.225014	-0.258067	0.961463
H289	H	0.761808	-0.758084	0.410029
H290	H	1.261808	-0.258084	0.910029
H291	H	0.727444	-0.812663	0.413333
H292	H	1.227444	-0.312663	0.913333
H293	H	0.393066	-0.230248	0.230511
H294	H	0.893066	0.269752	0.730511
H295	H	0.393119	-0.376538	0.376339
H296	H	0.893119	0.123462	0.876339
C297	C	0.589352	-0.534145	0.219345
C298	C	1.089352	-0.034145	0.719345
C299	C	0.614793	-0.496386	0.179042
C300	C	1.114793	0.003614	0.679042
C301	C	0.586145	-0.463473	0.138690
C302	C	1.086145	0.036527	0.638690
H303	H	0.572246	-0.563095	0.195287
H304	H	1.072246	-0.063095	0.695287
H305	H	0.569770	-0.508470	0.243373
H306	H	1.069770	-0.008470	0.743373
H307	H	0.634367	-0.522059	0.155016
H308	H	1.134367	-0.022059	0.655016
H309	H	0.631898	-0.467425	0.203083
H310	H	1.131898	0.032575	0.703083
H311	H	0.566564	-0.437798	0.162718
H312	H	1.066564	0.062202	0.662718
H313	H	0.569041	-0.492427	0.114636
H314	H	1.069041	0.007573	0.614636
H315	H	0.603403	-0.437845	0.111344
H316	H	1.103403	0.062155	0.611344
C317	C	0.709198	-0.934963	0.387639
C318	C	1.209198	-0.434963	0.887639
C319	C	0.734346	-0.977775	0.422958
C320	C	1.234346	-0.477775	0.922958
C321	C	0.763071	-0.944976	0.463346
C322	C	1.263071	-0.444976	0.963346
H323	H	0.728816	-0.909305	0.363661
H324	H	1.228816	-0.409305	0.863661
H325	H	0.692002	-0.909336	0.415066
H326	H	1.192002	-0.409336	0.915066
H327	H	0.751541	-1.003391	0.395535
H328	H	1.251541	-0.503391	0.895535
H329	H	0.714740	-1.003434	0.446949
H330	H	1.214740	-0.503434	0.946949
H331	H	0.745875	-0.919349	0.490773
H332	H	1.245875	-0.419349	0.990773
H333	H	0.782686	-0.919319	0.439363
H334	H	1.282686	-0.419319	0.939363
H335	H	0.780134	-0.974019	0.487319
H336	H	1.280134	-0.474019	0.987319
H337	H	0.036480	-0.189972	0.190399
H338	H	0.536480	0.310028	0.690399
C339	C	-0.185728	-0.387480	0.387335
C340	C	0.314272	0.112520	0.887335
C341	C	-0.231840	-0.378839	0.378750
C342	C	0.268160	0.121161	0.878750
C343	C	-0.255383	-0.419075	0.418923
C344	C	0.244617	0.080925	0.918923
H345	H	-0.178111	-0.429789	0.378092
H346	H	0.321889	0.070211	0.878092
H347	H	-0.178041	-0.378317	0.429659
H348	H	0.321959	0.121683	0.929659
H349	H	-0.239524	-0.388007	0.336436
H350	H	0.260476	0.111993	0.836436
H351	H	-0.239470	-0.336538	0.387998
H352	H	0.260530	0.163462	0.887998
H353	H	-0.247695	-0.409912	0.461246
H354	H	0.252305	0.090088	0.961246
H355	H	-0.247762	-0.461382	0.409676
H356	H	0.252238	0.038618	0.909676
H357	H	-0.286671	-0.413214	0.413107
H358	H	0.213329	0.086786	0.913107
C359	C	0.589376	-0.935180	0.219373
C360	C	1.089376	-0.435180	0.719373
C361	C	0.564248	-0.978083	0.184071
C362	C	1.064248	-0.478083	0.684071
C363	C	0.535503	-0.945388	0.143677
C364	C	1.035503	-0.445388	0.643677
H365	H	0.569746	-0.909540	0.243346
H366	H	1.069746	-0.409540	0.743346
H367	H	0.606556	-0.909545	0.191935
H368	H	1.106556	-0.409545	0.691935
H369	H	0.547069	-1.003708	0.211505
H370	H	1.047069	-0.503708	0.711505
H371	H	0.583866	-1.003725	0.160085
H372	H	1.083866	-0.503725	0.660085
H373	H	0.552682	-0.919752	0.116240
H374	H	1.052682	-0.419752	0.616240
H375	H	0.515875	-0.919749	0.167655
H376	H	1.015875	-0.419749	0.667655
H377	H	0.518453	-0.974492	0.119716
H378	H	1.018453	-0.474492	0.619716
H379	H	0.701434	-0.230333	0.663044
H380	H	1.201434	0.269667	1.163044
C381	C	0.484631	-0.219317	0.219659
C382	C	0.984631	0.280683	0.719659
C383	C	0.530743	-0.227937	0.228268
C384	C	1.030743	0.272063	0.728268
C385	C	0.554286	-0.187637	0.188160
C386	C	1.054286	0.312363	0.688160
H387	H	0.476974	-0.228422	0.177321
H388	H	0.976974	0.271578	0.677321
H389	H	0.476986	-0.177023	0.228961
H390	H	0.976986	0.322977	0.728961
H391	H	0.538385	-0.270222	0.218962
H392	H	1.038385	0.229778	0.718962
H393	H	0.538414	-0.218828	0.270598
H394	H	1.038414	0.281172	0.770598
H395	H	0.546640	-0.145342	0.197461
H396	H	1.046640	0.354658	0.697461
H397	H	0.546625	-0.196745	0.145824
H398	H	1.046625	0.303255	0.645824
H399	H	0.585575	-0.193476	0.193999
H400	H	1.085575	0.306524	0.693999
C401	C	0.589364	-0.387281	0.671980
C402	C	1.089364	0.112719	1.171980
C403	C	0.595528	-0.378660	0.736595
C404	C	1.095528	0.121340	1.236595
C405	C	0.566835	-0.418880	0.769568
C406	C	1.066835	0.081120	1.269568
H407	H	0.559164	-0.378103	0.661260
H408	H	1.059164	0.121897	1.161260
H409	H	0.595926	-0.429594	0.661245
H410	H	1.095926	0.070406	1.161245
H411	H	0.588964	-0.336356	0.747326
H412	H	1.088964	0.163644	1.247326
H413	H	0.625723	-0.387842	0.747334
H414	H	1.125723	0.112158	1.247334
H415	H	0.573396	-0.461194	0.758833
H416	H	1.073396	0.038806	1.258833
H417	H	0.536636	-0.409700	0.758842
H418	H	1.036636	0.090300	1.258842
H419	H	0.571016	-0.413041	0.813412
H420	H	1.071016	0.086959	1.313412
H421	H	-0.179329	-0.230321	0.230625
H422	H	0.320671	0.269679	0.730625
H423	H	0.478227	-0.376536	0.376311
H424	H	0.978227	0.123464	0.876311
C425	C	0.171020	-0.427882	0.427496
C426	C	0.671020	0.072118	0.927496
C427	C	0.201624	-0.463194	0.462664
C428	C	0.701624	0.036806	0.962664
C429	C	0.178274	-0.503606	0.502880
C430	C	0.678274	-0.003606	1.002880
H431	H	0.152734	-0.403923	0.455030
H432	H	0.652734	0.096077	0.955030
H433	H	0.152711	-0.455313	0.403381
H434	H	0.652711	0.044687	0.903381
H435	H	0.219926	-0.435766	0.486777
H436	H	0.719926	0.064234	0.986777
H437	H	0.219912	-0.487166	0.435146
H438	H	0.719912	0.012834	0.935146
H439	H	0.159964	-0.531037	0.478765
H440	H	0.659964	-0.031037	0.978765
H441	H	0.159988	-0.479642	0.530410
H442	H	0.659988	0.020358	1.030410
H443	H	0.199035	-0.527574	0.526742
H444	H	0.699035	-0.027574	1.026742
C445	C	0.268789	-0.179019	0.179527
C446	C	0.768789	0.320981	0.679527
C447	C	0.314900	-0.187637	0.188138
C448	C	0.814900	0.312363	0.688138
C449	C	0.338444	-0.147339	0.148028
C450	C	0.838444	0.352661	0.648028
H451	H	0.261132	-0.188128	0.137189
H452	H	0.761132	0.311872	0.637189
H453	H	0.261142	-0.136724	0.188824
H454	H	0.761142	0.363276	0.688824
H455	H	0.322544	-0.229922	0.178837
H456	H	0.822544	0.270078	0.678837
H457	H	0.322570	-0.178523	0.230468
H458	H	0.822570	0.321477	0.730468
H459	H	0.330797	-0.105044	0.157326
H460	H	0.830797	0.394956	0.657326
H461	H	0.330784	-0.156452	0.105693
H462	H	0.830784	0.343548	0.605693
H463	H	0.369733	-0.153177	0.153870
H464	H	0.869733	0.346823	0.653870
H465	H	0.121655	-0.416871	0.416592
H466	H	0.621655	0.083129	0.916592
C467	C	0.709166	-0.219183	1.072846
C468	C	1.209166	0.280817	1.572846
C469	C	0.683746	-0.178800	1.110549
C470	C	1.183746	0.321200	1.610549
C471	C	0.712414	-0.138442	1.143477
C472	C	1.212414	0.361558	1.643477
H473	H	0.728740	-0.243183	1.098563
H474	H	1.228740	0.256817	1.598563
H475	H	0.726280	-0.195189	1.043886
H476	H	1.226280	0.304811	1.543886
H477	H	0.666640	-0.202791	1.139505
H478	H	1.166640	0.297209	1.639505
H479	H	0.664174	-0.154786	1.084847
H480	H	1.164174	0.345214	1.584847
H481	H	0.729528	-0.114448	1.114517
H482	H	1.229528	0.385552	1.614517
H483	H	0.731986	-0.162447	1.169191
H484	H	1.231986	0.337553	1.669191
H485	H	0.695171	-0.111033	1.169058
H486	H	1.195171	0.388967	1.669058
C487	C	0.709181	-0.219341	0.534903
C488	C	1.209181	0.280659	1.034903
C489	C	0.699412	-0.157055	0.550891
C490	C	1.199412	0.342945	1.050891
C491	C	0.728099	-0.116681	0.518094
C492	C	1.228099	0.383319	1.018094
H493	H	0.739379	-0.228473	0.545677
H494	H	1.239379	0.271527	1.045677
H495	H	0.705064	-0.225065	0.491030
H496	H	1.205064	0.274935	0.991030
H497	H	0.703533	-0.151333	0.594754
H498	H	1.203533	0.348667	1.094754
H499	H	0.669219	-0.147903	0.540115
H500	H	1.169219	0.352097	1.040115
H501	H	0.723982	-0.122406	0.474221
H502	H	1.223982	0.377594	0.974221
H503	H	0.758295	-0.125818	0.528871
H504	H	1.258295	0.374182	1.028871
H505	H	0.721471	-0.074415	0.528933
H506	H	1.221471	0.425585	1.028933
C507	C	0.709096	-0.534126	0.387564
C508	C	1.209096	-0.034126	0.887564
C509	C	0.734250	-0.576940	0.422875
C510	C	1.234250	-0.076940	0.922875
C511	C	0.762981	-0.544143	0.463254
C512	C	1.262981	-0.044143	0.963254
H513	H	0.728711	-0.508468	0.363581
H514	H	1.228711	-0.008468	0.863581
H515	H	0.691906	-0.508499	0.414997
H516	H	1.191906	-0.008499	0.914997
H517	H	0.751439	-0.602556	0.395445
H518	H	1.251439	-0.102556	0.895445
H519	H	0.714646	-0.602599	0.446871
H520	H	1.214646	-0.102599	0.946871
H521	H	0.745790	-0.518516	0.490687
H522	H	1.245790	-0.018516	0.990687
H523	H	0.782593	-0.518487	0.439266
H524	H	1.282593	-0.018487	0.939266
H525	H	0.780048	-0.573187	0.487221
H526	H	1.280048	-0.073187	0.987221
H527	H	0.597112	-0.662410	0.230344
H528	H	1.097112	-0.162410	0.730344
C529	C	0.709244	-1.072051	0.387487
C530	C	1.209244	-0.572051	0.887487
C531	C	0.738049	-1.109795	0.351893
C532	C	1.238049	-0.609795	0.851893
C533	C	0.766808	-1.142709	0.392089
C534	C	1.266808	-0.642709	0.892089
H535	H	0.726385	-1.043101	0.411497
H536	H	1.226385	-0.543101	0.911497
H537	H	0.692069	-1.097735	0.414884
H538	H	1.192069	-0.597735	0.914884
H539	H	0.755223	-1.084112	0.324506
H540	H	1.255223	-0.584112	0.824506
H541	H	0.720921	-1.138756	0.327884
H542	H	1.220921	-0.638756	0.827884
H543	H	0.749633	-1.168394	0.419486
H544	H	1.249633	-0.668394	0.919486
H545	H	0.783946	-1.113755	0.416097
H546	H	1.283946	-0.613755	0.916097
H547	H	0.786353	-1.168326	0.367944
H548	H	1.286353	-0.668326	0.867944
H549	H	0.597217	-1.063248	0.230410
H550	H	1.097217	-0.563248	0.730410
H551	H	0.597108	-0.376415	0.543685
H552	H	1.097108	0.123585	1.043685
H553	H	-0.094161	-0.376600	0.376431
H554	H	0.405839	0.123400	0.876431
