data_functionalizedCrystal
_audit_creation_method	'MofGen! by Chris Wilmer'
_symmetry_space_group_name_H-M	'P1'
_symmetry_Int_Tables_number	1
_symmetry_cell_setting	triclinic
loop_
_symmetry_equiv_pos_as_xyz
  x,y,z
_cell_length_a	12.827893
_cell_length_b	16.625546
_cell_length_c	12.827885
_cell_angle_alpha	90.035124
_cell_angle_beta	90.019272
_cell_angle_gamma	90.022439
loop_
_atom_site_label
_atom_site_type_symbol
_atom_site_fract_x
_atom_site_fract_y
_atom_site_fract_z
Zn1	Zn	1.597618	-0.320963	0.590810
Zn2	Zn	2.097618	0.179037	1.090810
Zn3	Zn	1.597491	-0.455817	0.416054
Zn4	Zn	2.097491	0.044183	0.916054
Zn5	Zn	1.422860	-0.321002	0.416084
Zn6	Zn	1.922860	0.178998	0.916084
Zn7	Zn	1.422823	-0.455757	0.590754
Zn8	Zn	1.922823	0.044243	1.090754
O9	O	1.510198	-0.388385	0.503425
O10	O	2.010198	0.111615	1.003425
O11	O	1.743837	-0.338861	0.567639
O12	O	2.243837	0.161139	1.067639
O13	O	1.574287	-0.437976	0.269822
O14	O	2.074287	0.062024	0.769822
O15	O	1.446110	-0.208165	0.439297
O16	O	1.946110	0.291835	0.939297
O17	O	1.743744	-0.437937	0.439247
O18	O	2.243744	0.062063	0.939247
O19	O	1.574505	-0.208136	0.567668
O20	O	2.074505	0.291864	1.067668
O21	O	1.445987	-0.338928	0.269843
O22	O	1.945987	0.161072	0.769843
O23	O	1.276619	-0.338869	0.439243
O24	O	1.776619	0.161131	0.939243
O25	O	1.446048	-0.437835	0.736997
O26	O	1.946048	0.062165	1.236997
O27	O	1.276592	-0.437873	0.567572
O28	O	1.776592	0.062127	1.067572
O29	O	1.574469	-0.338802	0.737039
O30	O	2.074469	0.161198	1.237039
O31	O	1.574252	-0.568642	0.439192
O32	O	2.074252	-0.068642	0.939192
O33	O	1.445925	-0.568598	0.567544
O34	O	1.945925	-0.068598	1.067544
C35	C	1.238688	-0.388370	0.503405
C36	C	1.738688	0.111630	1.003405
C37	C	1.122535	-0.388382	0.503422
C38	C	1.622535	0.111618	1.003422
C39	C	1.070765	-0.437449	0.566825
C40	C	1.570765	0.062551	1.066825
C41	C	0.950714	-0.437464	0.566844
C42	C	1.450714	0.062536	1.066844
C43	C	1.510099	-0.597876	0.503382
C44	C	2.010099	-0.097876	1.003382
C45	C	1.510152	-0.687497	0.503398
C46	C	2.010152	-0.187497	1.003398
C47	C	1.510335	-1.015673	0.503507
C48	C	2.010335	-0.515673	1.003507
C49	C	1.510281	-0.924364	0.503479
C50	C	2.010281	-0.424364	1.003479
C51	C	1.510243	-0.851588	0.503452
C52	C	2.010243	-0.351588	1.003452
C53	C	1.510190	-0.760274	0.503425
C54	C	2.010190	-0.260274	1.003425
C55	C	1.782768	-0.388401	0.503446
C56	C	2.282768	0.111599	1.003446
C57	C	1.898921	-0.388408	0.503455
C58	C	2.398921	0.111592	1.003455
C59	C	1.510269	-0.388308	0.775996
C60	C	2.010269	0.111692	1.275996
C61	C	1.510299	-0.388275	0.892149
C62	C	2.010299	0.111725	1.392149
C63	C	1.510326	-0.178076	0.503492
C64	C	2.010326	0.321924	1.003492
C65	C	1.510380	-0.088455	0.503521
C66	C	2.010380	0.411545	1.003521
C67	C	1.510187	-0.388404	0.231915
C68	C	2.010187	0.111596	0.731915
C69	C	1.510359	-0.388210	0.115763
C70	C	2.010359	0.111790	0.615763
C71	C	1.573853	-0.339261	0.943954
C72	C	2.073853	0.160739	1.443954
C73	C	1.573886	-0.339225	1.064004
C74	C	2.073886	0.160775	1.564004
H75	H	0.906193	-0.479474	0.621123
H76	H	1.406193	0.020526	1.121123
H77	H	1.455950	-0.430178	1.071218
H78	H	1.955950	0.069822	1.571218
H79	H	1.077981	-0.346382	0.449157
H80	H	1.577981	0.153618	0.949157
H81	H	1.628300	-0.297265	1.108555
H82	H	2.128300	0.202735	1.608555
H83	H	0.943436	-0.346401	0.449166
H84	H	1.443436	0.153599	0.949166
O85	O	1.445565	-0.438397	0.945301
O86	O	1.945565	0.061603	1.445301
C87	C	1.431589	-0.547105	1.068669
C88	C	1.931589	-0.047105	1.568669
C89	C	1.505021	-0.490402	1.008527
C90	C	2.005021	0.009598	1.508527
H91	H	1.479630	-0.589154	1.119818
H92	H	1.979630	-0.089154	1.619818
H93	H	1.383754	-0.584074	1.011038
H94	H	1.883754	-0.084074	1.511038
H95	H	1.377006	-0.510019	1.119732
H96	H	1.877006	-0.010019	1.619732
H97	H	1.559668	-0.527425	0.957462
H98	H	2.059668	-0.027425	1.457462
H99	H	1.552783	-0.453430	1.066214
H100	H	2.052783	0.046570	1.566214
O101	O	1.638596	-0.289191	0.890730
O102	O	2.138596	0.210809	1.390730
C103	C	1.652579	-0.180424	0.767448
C104	C	2.152579	0.319576	1.267448
C105	C	1.579137	-0.237090	0.827638
C106	C	2.079137	0.262910	1.327638
H107	H	1.604535	-0.138275	0.716441
H108	H	2.104535	0.361725	1.216441
H109	H	1.707118	-0.217457	0.716270
H110	H	2.207118	0.282543	1.216270
H111	H	1.700462	-0.143553	0.825141
H112	H	2.200462	0.356447	1.325141
H113	H	1.531186	-0.273974	0.770020
H114	H	2.031186	0.226026	1.270020
H115	H	1.524667	-0.200011	0.878832
H116	H	2.024667	0.299989	1.378832
O117	O	1.124069	-0.487529	0.631472
O118	O	1.624069	0.012471	1.131472
C119	C	1.292321	-0.533118	0.690473
C120	C	1.792321	-0.033118	1.190473
C121	C	1.232088	-0.476373	0.617188
C122	C	1.732088	0.023627	1.117188
H123	H	1.379665	-0.524106	0.678966
H124	H	1.879665	-0.024106	1.178966
H125	H	1.270973	-0.598152	0.671990
H126	H	1.770973	-0.098152	1.171990
H127	H	1.270904	-0.519063	0.774781
H128	H	1.770904	-0.019063	1.274781
H129	H	1.253473	-0.490355	0.532856
H130	H	1.753473	0.009645	1.032856
H131	H	1.253442	-0.411355	0.635761
H132	H	1.753442	0.088645	1.135761
