data_functionalizedCrystal
_audit_creation_method	'MofGen! by Chris Wilmer'
_symmetry_space_group_name_H-M	'P1'
_symmetry_Int_Tables_number	1
_symmetry_cell_setting	triclinic
loop_
_symmetry_equiv_pos_as_xyz
  x,y,z
_cell_length_a	19.805407
_cell_length_b	19.805405
_cell_length_c	19.805399
_cell_angle_alpha	89.970699
_cell_angle_beta	89.980427
_cell_angle_gamma	90.026410
loop_
_atom_site_label
_atom_site_type_symbol
_atom_site_fract_x
_atom_site_fract_y
_atom_site_fract_z
Zn1	Zn	1.034736	-0.269479	-0.382712
Zn2	Zn	1.284736	-0.019479	-0.132712
Zn3	Zn	1.534736	0.230521	0.117288
Zn4	Zn	1.784736	0.480521	0.367288
Zn5	Zn	1.034651	-0.382667	-0.269520
Zn6	Zn	1.284651	-0.132667	-0.019520
Zn7	Zn	1.534651	0.117333	0.230480
Zn8	Zn	1.784651	0.367333	0.480480
Zn9	Zn	0.921550	-0.269498	-0.269536
Zn10	Zn	1.171550	-0.019498	-0.019536
Zn11	Zn	1.421550	0.230502	0.230464
Zn12	Zn	1.671550	0.480502	0.480464
Zn13	Zn	0.921514	-0.382631	-0.382667
Zn14	Zn	1.171514	-0.132631	-0.132667
Zn15	Zn	1.421514	0.117369	0.117333
Zn16	Zn	1.671514	0.367369	0.367333
O17	O	0.978113	-0.326069	-0.326109
O18	O	1.228113	-0.076069	-0.076109
O19	O	1.478113	0.173931	0.173891
O20	O	1.728113	0.423931	0.423891
O21	O	1.129441	-0.284501	-0.367708
O22	O	1.379441	-0.034501	-0.117708
O23	O	1.629441	0.215499	0.132292
O24	O	1.879441	0.465499	0.382292
O25	O	1.019627	-0.367678	-0.174805
O26	O	1.269627	-0.117678	0.075195
O27	O	1.519627	0.132322	0.325195
O28	O	1.769627	0.382322	0.575195
O29	O	0.936616	-0.174778	-0.284575
O30	O	1.186616	0.075222	-0.034575
O31	O	1.436616	0.325222	0.215425
O32	O	1.686616	0.575222	0.465425
O33	O	1.129378	-0.367660	-0.284547
O34	O	1.379378	-0.117660	-0.034547
O35	O	1.629378	0.132340	0.215453
O36	O	1.879378	0.382340	0.465453
O37	O	1.019772	-0.174765	-0.367724
O38	O	1.269772	0.075235	-0.117724
O39	O	1.519772	0.325235	0.132276
O40	O	1.769772	0.575235	0.382276
O41	O	0.936533	-0.284533	-0.174817
O42	O	1.186533	-0.034533	0.075183
O43	O	1.436533	0.215467	0.325183
O44	O	1.686533	0.465467	0.575183
O45	O	0.826829	-0.284498	-0.284531
O46	O	1.076829	-0.034498	-0.034531
O47	O	1.326829	0.215502	0.215469
O48	O	1.576829	0.465502	0.465469
O49	O	0.936553	-0.367598	-0.477389
O50	O	1.186553	-0.117598	-0.227389
O51	O	1.436553	0.132402	0.022611
O52	O	1.686553	0.382402	0.272611
O53	O	0.826802	-0.367617	-0.367648
O54	O	1.076802	-0.117617	-0.117648
O55	O	1.326802	0.132383	0.132352
O56	O	1.576802	0.382383	0.382352
O57	O	1.019737	-0.284466	-0.477422
O58	O	1.269737	-0.034466	-0.227422
O59	O	1.519737	0.215534	0.022578
O60	O	1.769737	0.465534	0.272578
O61	O	1.019592	-0.477379	-0.284503
O62	O	1.269592	-0.227379	-0.034503
O63	O	1.519592	0.022621	0.215497
O64	O	1.769592	0.272621	0.465497
O65	O	0.936471	-0.477353	-0.367632
O66	O	1.186471	-0.227353	-0.117632
O67	O	1.436471	0.022647	0.132368
O68	O	1.686471	0.272647	0.382368
C69	C	0.802257	-0.326056	-0.326087
C70	C	1.052257	-0.076056	-0.076087
C71	C	1.302257	0.173944	0.173913
C72	C	1.552257	0.423944	0.423913
C73	C	0.727025	-0.326067	-0.326093
C74	C	0.977025	-0.076067	-0.076093
C75	C	1.227025	0.173933	0.173907
C76	C	1.477025	0.423933	0.423907
C77	C	0.691684	-0.369412	-0.369302
C78	C	0.941684	-0.119412	-0.119302
C79	C	1.191684	0.130588	0.130698
C80	C	1.441684	0.380588	0.380698
C81	C	0.620996	-0.369413	-0.369312
C82	C	0.870996	-0.119413	-0.119312
C83	C	1.120996	0.130587	0.130688
C84	C	1.370996	0.380587	0.380688
C85	C	0.585649	-0.326072	-0.326109
C86	C	0.835649	-0.076072	-0.076109
C87	C	1.085649	0.173928	0.173891
C88	C	1.335649	0.423928	0.423891
C89	C	0.620994	-0.282722	-0.282898
C90	C	0.870994	-0.032722	-0.032898
C91	C	1.120994	0.217278	0.217102
C92	C	1.370994	0.467278	0.467102
C93	C	0.691681	-0.282718	-0.282892
C94	C	0.941681	-0.032718	-0.032892
C95	C	1.191681	0.217282	0.217108
C96	C	1.441681	0.467282	0.467108
C97	C	0.335921	-0.282737	-0.282920
C98	C	0.585921	-0.032737	-0.032920
C99	C	0.835921	0.217263	0.217080
C100	C	1.085921	0.467263	0.467080
C101	C	0.265229	-0.282746	-0.282928
C102	C	0.515229	-0.032746	-0.032928
C103	C	0.765229	0.217254	0.217072
C104	C	1.015229	0.467254	0.467072
C105	C	0.265235	-0.369432	-0.369340
C106	C	0.515235	-0.119432	-0.119340
C107	C	0.765235	0.130568	0.130660
C108	C	1.015235	0.380568	0.380660
C109	C	0.335922	-0.369428	-0.369334
C110	C	0.585922	-0.119428	-0.119334
C111	C	0.835922	0.130572	0.130666
C112	C	1.085922	0.380572	0.380666
C113	C	0.371262	-0.326076	-0.326126
C114	C	0.621262	-0.076076	-0.076126
C115	C	0.871262	0.173924	0.173874
C116	C	1.121262	0.423924	0.423874
C117	C	0.447910	-0.326074	-0.326117
C118	C	0.697910	-0.076074	-0.076117
C119	C	0.947910	0.173926	0.173883
C120	C	1.197910	0.423926	0.423883
C121	C	0.509002	-0.326076	-0.326114
C122	C	0.759002	-0.076076	-0.076114
C123	C	1.009002	0.173924	0.173886
C124	C	1.259002	0.423924	0.423886
C125	C	0.978036	-0.501925	-0.326076
C126	C	1.228036	-0.251925	-0.076076
C127	C	1.478036	-0.001925	0.173924
C128	C	1.728036	0.248075	0.423924
C129	C	0.978066	-0.577157	-0.326084
C130	C	1.228066	-0.327157	-0.076084
C131	C	1.478066	-0.077157	0.173916
C132	C	1.728066	0.172843	0.423916
C133	C	1.021389	-0.612492	-0.282845
C134	C	1.271389	-0.362492	-0.032845
C135	C	1.521389	-0.112492	0.217155
C136	C	1.771389	0.137508	0.467155
C137	C	1.021418	-0.683181	-0.282860
C138	C	1.271418	-0.433181	-0.032860
C139	C	1.521418	-0.183181	0.217140
C140	C	1.771418	0.066819	0.467140
C141	C	0.978119	-0.718532	-0.326111
C142	C	1.228119	-0.468532	-0.076111
C143	C	1.478119	-0.218532	0.173889
C144	C	1.728119	0.031468	0.423889
C145	C	0.934794	-0.683192	-0.369356
C146	C	1.184794	-0.433192	-0.119356
C147	C	1.434794	-0.183192	0.130644
C148	C	1.684794	0.066808	0.380644
C149	C	0.934769	-0.612505	-0.369344
C150	C	1.184769	-0.362505	-0.119344
C151	C	1.434769	-0.112505	0.130656
C152	C	1.684769	0.137495	0.380656
C153	C	0.934894	-0.968265	-0.369406
C154	C	1.184894	-0.718265	-0.119406
C155	C	1.434894	-0.468265	0.130594
C156	C	1.684894	-0.218265	0.380594
C157	C	0.934921	-1.038957	-0.369413
C158	C	1.184921	-0.788957	-0.119413
C159	C	1.434921	-0.538957	0.130587
C160	C	1.684921	-0.288957	0.380587
C161	C	1.021542	-1.038941	-0.282922
C162	C	1.271542	-0.788941	-0.032922
C163	C	1.521542	-0.538941	0.217078
C164	C	1.771542	-0.288941	0.467078
C165	C	1.021517	-0.968254	-0.282910
C166	C	1.271517	-0.718254	-0.032910
C167	C	1.521517	-0.468254	0.217090
C168	C	1.771517	-0.218254	0.467090
C169	C	0.978195	-0.932920	-0.326157
C170	C	1.228195	-0.682920	-0.076157
C171	C	1.478195	-0.432920	0.173843
C172	C	1.728195	-0.182920	0.423843
C173	C	0.978166	-0.856271	-0.326141
C174	C	1.228166	-0.606271	-0.076141
C175	C	1.478166	-0.356271	0.173859
C176	C	1.728166	-0.106271	0.423859
C177	C	0.978145	-0.795179	-0.326124
C178	C	1.228145	-0.545179	-0.076124
C179	C	1.478145	-0.295179	0.173876
C180	C	1.728145	-0.045179	0.423876
C181	C	1.154655	-0.326082	-0.326131
C182	C	1.404655	-0.076082	-0.076131
C183	C	1.654655	0.173918	0.173869
C184	C	1.904655	0.423918	0.423869
C185	C	1.229887	-0.326088	-0.326140
C186	C	1.479887	-0.076088	-0.076140
C187	C	1.729887	0.173912	0.173860
C188	C	1.979887	0.423912	0.423860
C189	C	0.978151	-0.326026	-0.502651
C190	C	1.228151	-0.076026	-0.252651
C191	C	1.478151	0.173974	-0.002651
C192	C	1.728151	0.423974	0.247349
C193	C	0.978167	-0.326008	-0.577883
C194	C	1.228167	-0.076008	-0.327883
C195	C	1.478167	0.173992	-0.077883
C196	C	1.728167	0.423992	0.172117
C197	C	0.978207	-0.149526	-0.326156
C198	C	1.228207	0.100474	-0.076156
C199	C	1.478207	0.350474	0.173844
C200	C	1.728207	0.600474	0.423844
C201	C	0.978248	-0.074294	-0.326177
C202	C	1.228248	0.175706	-0.076177
C203	C	1.478248	0.425706	0.173823
C204	C	1.728248	0.675706	0.423823
C205	C	1.021481	-0.282719	-0.613246
C206	C	1.271481	-0.032719	-0.363246
C207	C	1.521481	0.217281	-0.113246
C208	C	1.771481	0.467281	0.136754
C209	C	1.021488	-0.282699	-0.683934
C210	C	1.271488	-0.032699	-0.433934
C211	C	1.521488	0.217301	-0.183934
C212	C	1.771488	0.467301	0.066066
C213	C	0.978184	-0.325973	-0.719259
C214	C	1.228184	-0.075973	-0.469259
C215	C	1.478184	0.174027	-0.219259
C216	C	1.728184	0.424027	0.030741
C217	C	0.934864	-0.369264	-0.683892
C218	C	1.184864	-0.119264	-0.433892
C219	C	1.434864	0.130736	-0.183892
C220	C	1.684864	0.380736	0.066108
C221	C	0.934854	-0.369279	-0.613204
C222	C	1.184854	-0.119279	-0.363204
C223	C	1.434854	0.130721	-0.113204
C224	C	1.684854	0.380721	0.136796
C225	C	0.934902	-0.369201	-0.968965
C226	C	1.184902	-0.119201	-0.718965
C227	C	1.434902	0.130799	-0.468965
C228	C	1.684902	0.380799	-0.218965
C229	C	0.934917	-0.369183	-1.039657
C230	C	1.184917	-0.119183	-0.789657
C231	C	1.434917	0.130817	-0.539657
C232	C	1.684917	0.380817	-0.289657
C233	C	1.021536	-0.282620	-1.039695
C234	C	1.271536	-0.032620	-0.789695
C235	C	1.521536	0.217380	-0.539695
C236	C	1.771536	0.467380	-0.289695
C237	C	1.021527	-0.282636	-0.969008
C238	C	1.271527	-0.032636	-0.719008
C239	C	1.521527	0.217364	-0.469008
C240	C	1.771527	0.467364	-0.219008
C241	C	0.978205	-0.325924	-0.933647
C242	C	1.228205	-0.075924	-0.683647
C243	C	1.478205	0.174076	-0.433647
C244	C	1.728205	0.424076	-0.183647
C245	C	0.978197	-0.325944	-0.856998
C246	C	1.228197	-0.075944	-0.606998
C247	C	1.478197	0.174056	-0.356998
C248	C	1.728197	0.424056	-0.106998
C249	C	0.978194	-0.325957	-0.795906
C250	C	1.228194	-0.075957	-0.545906
C251	C	1.478194	0.174043	-0.295906
C252	C	1.728194	0.424043	-0.045906
C253	C	0.978114	-0.326062	-0.150253
C254	C	1.228114	-0.076062	0.099747
C255	C	1.478114	0.173938	0.349747
C256	C	1.728114	0.423938	0.599747
C257	C	0.978229	-0.325890	-0.075021
C258	C	1.228229	-0.075890	0.174979
C259	C	1.478229	0.174110	0.424979
C260	C	1.728229	0.424110	0.674979
H261	H	0.236452	-0.247448	-0.247747
H262	H	0.486452	0.002552	0.002253
H263	H	0.736452	0.252552	0.252253
H264	H	0.986452	0.502552	0.502253
Br265	Br	0.217271	-0.428270	-0.427979
Br266	Br	0.467271	-0.178270	-0.177979
Br267	Br	0.717271	0.071730	0.072021
Br268	Br	0.967271	0.321730	0.322021
Br269	Br	0.383873	-0.223898	-0.224285
Br270	Br	0.633873	0.026102	0.025715
Br271	Br	0.883873	0.276102	0.275715
Br272	Br	1.133873	0.526102	0.525715
H273	H	0.592209	-0.247430	-0.247724
H274	H	0.842209	0.002570	0.002276
H275	H	1.092209	0.252570	0.252276
H276	H	1.342209	0.502570	0.502276
H277	H	0.899602	-0.404495	-0.712659
H278	H	1.149602	-0.154495	-0.462659
H279	H	1.399602	0.095505	-0.212659
H280	H	1.649602	0.345505	0.037341
Br281	Br	0.876037	-0.731168	-0.428061
Br282	Br	1.126037	-0.481168	-0.178061
Br283	Br	1.376037	-0.231168	0.071939
Br284	Br	1.626037	0.018832	0.321939
Br285	Br	0.739645	-0.223886	-0.224253
Br286	Br	0.989645	0.026114	0.025747
Br287	Br	1.239645	0.276114	0.275747
Br288	Br	1.489645	0.526114	0.525747
H289	H	1.056820	-1.067719	-0.247711
H290	H	1.306820	-0.817719	0.002289
H291	H	1.556820	-0.567719	0.252289
H292	H	1.806820	-0.317719	0.502289
H293	H	1.056644	-0.583713	-0.247621
H294	H	1.306644	-0.333713	0.002379
H295	H	1.556644	-0.083713	0.252379
H296	H	1.806644	0.166287	0.502379
Br297	Br	0.876107	-0.427948	-0.920984
Br298	Br	1.126107	-0.177948	-0.670984
Br299	Br	1.376107	0.072052	-0.420984
Br300	Br	1.626107	0.322052	-0.170984
H301	H	1.056695	-0.711948	-0.247649
H302	H	1.306695	-0.461948	0.002351
H303	H	1.556695	-0.211948	0.252351
H304	H	1.806695	0.038052	0.502351
H305	H	0.899576	-0.404523	-0.584413
H306	H	1.149576	-0.154523	-0.334413
H307	H	1.399576	0.095477	-0.084413
H308	H	1.649576	0.345477	0.165587
Br309	Br	0.383890	-0.428254	-0.427965
Br310	Br	0.633890	-0.178254	-0.177965
Br311	Br	0.883890	0.071746	0.072035
Br312	Br	1.133890	0.321746	0.322035
Br313	Br	0.876155	-1.086935	-0.428116
Br314	Br	1.126155	-0.836935	-0.178116
Br315	Br	1.376155	-0.586935	0.071884
Br316	Br	1.626155	-0.336935	0.321884
Br317	Br	0.573036	-0.428239	-0.427956
Br318	Br	0.823036	-0.178239	-0.177956
Br319	Br	1.073036	0.071761	0.072044
Br320	Br	1.323036	0.321761	0.322044
H321	H	1.056809	-0.247370	-1.068495
H322	H	1.306809	0.002630	-0.818495
H323	H	1.556809	0.252630	-0.568495
H324	H	1.806809	0.502630	-0.318495
Br325	Br	0.876100	-0.920320	-0.428098
Br326	Br	1.126100	-0.670320	-0.178098
Br327	Br	1.376100	-0.420320	0.071902
Br328	Br	1.626100	-0.170320	0.321902
H329	H	0.899492	-0.583735	-0.404555
H330	H	1.149492	-0.333735	-0.154555
H331	H	1.399492	-0.083735	0.095445
H332	H	1.649492	0.166265	0.345445
Br333	Br	1.080280	-0.920280	-0.224208
Br334	Br	1.330280	-0.670280	0.025792
Br335	Br	1.580280	-0.420280	0.275792
Br336	Br	1.830280	-0.170280	0.525792
Br337	Br	1.080261	-0.223992	-0.565312
Br338	Br	1.330261	0.026008	-0.315312
Br339	Br	1.580261	0.276008	-0.065312
Br340	Br	1.830261	0.526008	0.184688
Br341	Br	1.080307	-0.223978	-0.731924
Br342	Br	1.330307	0.026022	-0.481924
Br343	Br	1.580307	0.276022	-0.231924
Br344	Br	1.830307	0.526022	0.018076
H345	H	0.899650	-0.404423	-1.068417
H346	H	1.149650	-0.154423	-0.818417
H347	H	1.399650	0.095577	-0.568417
H348	H	1.649650	0.345577	-0.318417
Br349	Br	0.739648	-0.428240	-0.427933
Br350	Br	0.989648	-0.178240	-0.177933
Br351	Br	1.239648	0.071760	0.072067
Br352	Br	1.489648	0.321760	0.322067
Br353	Br	1.080303	-0.223909	-0.921070
Br354	Br	1.330303	0.026091	-0.671070
Br355	Br	1.580303	0.276091	-0.421070
Br356	Br	1.830303	0.526091	-0.171070
