data_functionalizedCrystal
_audit_creation_method	'MofGen! by Chris Wilmer'
_symmetry_space_group_name_H-M	'P1'
_symmetry_Int_Tables_number	1
_symmetry_cell_setting	triclinic
loop_
_symmetry_equiv_pos_as_xyz
  x,y,z
_cell_length_a	14.519709
_cell_length_b	14.519709
_cell_length_c	13.596369
_cell_angle_alpha	89.999709
_cell_angle_beta	89.993066
_cell_angle_gamma	96.319855
loop_
_atom_site_label
_atom_site_type_symbol
_atom_site_fract_x
_atom_site_fract_y
_atom_site_fract_z
O1	O	0.120893	-1.223868	-0.081665
O2	O	0.370893	-0.973868	0.168335
O3	O	0.620893	-0.723868	0.418335
O4	O	0.870893	-0.473868	0.668335
O5	O	0.135129	-0.955392	-0.081696
O6	O	0.385129	-0.705392	0.168304
O7	O	0.635129	-0.455392	0.418304
O8	O	0.885129	-0.205392	0.668304
O9	O	-0.006227	-1.096748	-0.081671
O10	O	0.243773	-0.846748	0.168329
O11	O	0.493773	-0.596748	0.418329
O12	O	0.743773	-0.346748	0.668329
O13	O	0.262249	-1.082512	-0.081690
O14	O	0.512249	-0.832512	0.168310
O15	O	0.762249	-0.582512	0.418310
O16	O	1.012249	-0.332512	0.668310
O17	O	-0.006235	-1.096734	0.081912
O18	O	0.243765	-0.846734	0.331912
O19	O	0.493765	-0.596734	0.581912
O20	O	0.743765	-0.346734	0.831912
O21	O	0.135122	-0.955377	0.081887
O22	O	0.385122	-0.705377	0.331887
O23	O	0.635122	-0.455377	0.581887
O24	O	0.885122	-0.205377	0.831887
O25	O	0.120885	-1.223854	0.081917
O26	O	0.370885	-0.973854	0.331917
O27	O	0.620885	-0.723854	0.581917
O28	O	0.870885	-0.473854	0.831917
Zn29	Zn	0.128002	-1.089614	0.107875
Zn30	Zn	0.378002	-0.839614	0.357875
Zn31	Zn	0.628002	-0.589614	0.607875
Zn32	Zn	0.878002	-0.339614	0.857875
Zn33	Zn	0.128012	-1.089632	-0.107653
Zn34	Zn	0.378012	-0.839632	0.142347
Zn35	Zn	0.628012	-0.589632	0.392347
Zn36	Zn	0.878012	-0.339632	0.642347
O37	O	0.262242	-1.082498	0.081893
O38	O	0.512242	-0.832498	0.331893
O39	O	0.762242	-0.582498	0.581893
O40	O	1.012242	-0.332498	0.831893
C41	C	0.134462	-0.921025	0.000092
C42	C	0.384462	-0.671025	0.250092
C43	C	0.634462	-0.421025	0.500092
C44	C	0.884462	-0.171025	0.750092
C45	C	0.132474	-0.818643	0.000081
C46	C	0.382474	-0.568643	0.250081
C47	C	0.632474	-0.318643	0.500081
C48	C	0.882474	-0.068643	0.750081
C49	C	-0.040591	-1.096078	0.000121
C50	C	0.209409	-0.846078	0.250121
C51	C	0.459409	-0.596078	0.500121
C52	C	0.709409	-0.346078	0.750121
C53	C	-0.142972	-1.094090	0.000121
C54	C	0.107028	-0.844090	0.250121
C55	C	0.357028	-0.594090	0.500121
C56	C	0.607028	-0.344090	0.750121
N57	N	0.127995	-1.089608	0.254966
N58	N	0.377995	-0.839608	0.504966
N59	N	0.627995	-0.589608	0.754966
N60	N	0.877995	-0.339608	1.004966
C61	C	-0.517868	-1.086770	0.000095
C62	C	-0.267868	-0.836770	0.250095
C63	C	-0.017868	-0.586770	0.500095
C64	C	0.232132	-0.336770	0.750095
C65	C	-0.413560	-1.088803	0.000102
C66	C	-0.163560	-0.838803	0.250102
C67	C	0.086440	-0.588803	0.500102
C68	C	0.336440	-0.338803	0.750102
C69	C	-0.330423	-1.090430	0.000109
C70	C	-0.080423	-0.840430	0.250109
C71	C	0.169577	-0.590430	0.500109
C72	C	0.419577	-0.340430	0.750109
C73	C	-0.226109	-1.092463	0.000114
C74	C	0.023891	-0.842463	0.250114
C75	C	0.273891	-0.592463	0.500114
C76	C	0.523891	-0.342463	0.750114
C77	C	0.296605	-1.083168	0.000099
C78	C	0.546605	-0.833168	0.250099
C79	C	0.796605	-0.583168	0.500099
C80	C	1.046605	-0.333168	0.750099
C81	C	0.398987	-1.085156	0.000092
C82	C	0.648987	-0.835156	0.250092
C83	C	0.898987	-0.585156	0.500092
C84	C	1.148987	-0.335156	0.750092
C85	C	0.121553	-1.258221	0.000128
C86	C	0.371553	-1.008221	0.250128
C87	C	0.621553	-0.758221	0.500128
C88	C	0.871553	-0.508221	0.750128
C89	C	0.123541	-1.360602	0.000132
C90	C	0.373541	-1.110602	0.250132
C91	C	0.623541	-0.860602	0.500132
C92	C	0.873541	-0.610602	0.750132
C93	C	0.125154	-0.443748	0.000126
C94	C	0.375154	-0.193748	0.250126
C95	C	0.625154	0.056252	0.500126
C96	C	0.875154	0.306252	0.750126
C97	C	0.127187	-0.548056	0.000113
C98	C	0.377187	-0.298056	0.250113
C99	C	0.627187	-0.048056	0.500113
C100	C	0.877187	0.201944	0.750113
C101	C	0.128814	-0.631192	0.000102
C102	C	0.378814	-0.381192	0.250102
C103	C	0.628814	-0.131192	0.500102
C104	C	0.878814	0.118808	0.750102
C105	C	0.130847	-0.735507	0.000091
C106	C	0.380847	-0.485507	0.250091
C107	C	0.630847	-0.235507	0.500091
C108	C	0.880847	0.014493	0.750091
N109	N	0.128012	-1.089645	-0.254745
N110	N	0.378012	-0.839645	-0.004745
N111	N	0.628012	-0.589645	0.245255
N112	N	0.878012	-0.339645	0.495255
C113	C	0.128013	-1.089631	0.656257
C114	C	0.378013	-0.839631	0.906257
C115	C	0.628013	-0.589631	1.156257
C116	C	0.878013	-0.339631	1.406257
C117	C	0.128011	-1.089622	0.544606
C118	C	0.378011	-0.839622	0.794606
C119	C	0.628011	-0.589622	1.044606
C120	C	0.878011	-0.339622	1.294606
C121	C	0.128005	-1.089620	0.455615
C122	C	0.378005	-0.839620	0.705615
C123	C	0.628005	-0.589620	0.955615
C124	C	0.878005	-0.339620	1.205615
C125	C	0.128001	-1.089610	0.343957
C126	C	0.378001	-0.839610	0.593957
C127	C	0.628001	-0.589610	0.843957
C128	C	0.878001	-0.339610	1.093957
