data_functionalizedCrystal
_audit_creation_method	'MofGen! by Chris Wilmer'
_symmetry_space_group_name_H-M	'P1'
_symmetry_Int_Tables_number	1
_symmetry_cell_setting	triclinic
loop_
_symmetry_equiv_pos_as_xyz
  x,y,z
_cell_length_a	6.817900
_cell_length_b	17.982959
_cell_length_c	10.773894
_cell_angle_alpha	96.506974
_cell_angle_beta	96.645922
_cell_angle_gamma	102.451857
loop_
_atom_site_label
_atom_site_type_symbol
_atom_site_fract_x
_atom_site_fract_y
_atom_site_fract_z
V1	V	-3.943879	-0.102609	-0.389451
O2	O	-3.938325	0.007812	-0.381502
O3	O	-3.890812	-0.206227	-0.387303
O4	O	-3.861680	-0.099767	-0.559069
O5	O	-3.967659	-0.099386	-0.208547
V6	V	-4.432491	-0.089551	-0.367751
O7	O	-4.193973	-0.131254	-0.437053
O8	O	-4.632593	-0.060907	-0.320150
O9	O	-4.262351	0.014067	-0.369899
O10	O	-4.555442	-0.199972	-0.375700
O11	O	-4.526107	-0.092774	-0.548656
O12	O	-4.291483	-0.092393	-0.198133
C13	C	-3.735771	-0.231527	-0.381292
C14	C	-3.773445	-0.316228	-0.380667
C15	C	-3.971817	-0.359856	-0.386614
C16	C	-4.007205	-0.439442	-0.386034
C17	C	-3.844216	-0.475398	-0.379497
C18	C	-3.645828	-0.431764	-0.373553
C19	C	-3.610444	-0.352180	-0.374142
C20	C	-3.788521	-0.752717	-0.371177
C21	C	-3.823921	-0.832306	-0.370584
C22	C	-4.185282	-0.839979	-0.383068
C23	C	-4.149898	-0.760395	-0.383657
C24	C	-3.951516	-0.716769	-0.377720
C25	C	-3.913147	-0.630473	-0.378352
C26	C	-3.882580	-0.561692	-0.378856
C27	C	-3.698609	-0.095725	-0.600395
C28	C	-3.712655	-0.094086	-0.739062
C29	C	-3.890602	-0.096926	-0.806939
C30	C	-3.905123	-0.095233	-0.950258
C31	C	-4.080734	0.039363	-0.375906
C32	C	-4.022297	0.124063	-0.376540
C33	C	-4.117897	-0.096438	-0.156800
C34	C	-4.083090	-0.098072	-0.018132
H35	H	-3.513123	-0.461046	-0.368238
C36	C	-4.151127	-0.320314	-0.393814
N37	N	-4.286192	-0.290533	-0.399245
C38	C	-4.225426	-0.487430	-0.392572
N39	N	-4.389800	-0.523574	-0.397496
C40	C	-4.329206	-0.720852	-0.390883
N41	N	-4.464269	-0.691071	-0.396343
C42	C	-4.403516	-0.887977	-0.389623
N43	N	-4.567885	-0.924129	-0.394563
H44	H	-3.691185	-0.861579	-0.365269
H45	H	-4.224703	-0.101760	-0.970148
H46	H	-3.626990	-0.717205	-0.366335
C47	C	-4.081899	-0.101899	-0.742108
N48	N	-4.225989	-0.105645	-0.693280
C49	C	-3.713796	-0.090224	-1.015074
N50	N	-3.569688	-0.086441	-1.063893
H51	H	-3.448912	-0.316659	-0.369304
C52	C	-3.521341	-0.089078	-0.803883
N53	N	-3.377233	-0.085295	-0.852702
