data_functionalizedCrystal
_audit_creation_method	'MofGen! by Chris Wilmer'
_symmetry_space_group_name_H-M	'P1'
_symmetry_Int_Tables_number	1
_symmetry_cell_setting	triclinic
loop_
_symmetry_equiv_pos_as_xyz
  x,y,z
_cell_length_a	14.560438
_cell_length_b	14.560432
_cell_length_c	14.560438
_cell_angle_alpha	59.999266
_cell_angle_beta	89.998602
_cell_angle_gamma	60.000610
loop_
_atom_site_label
_atom_site_type_symbol
_atom_site_fract_x
_atom_site_fract_y
_atom_site_fract_z
Zr1	Zr	0.884794	1.005258	-0.120514
O2	O	0.738153	1.196859	-0.267160
O3	O	0.929743	0.813658	-0.075560
O4	O	0.929752	1.005258	-0.267161
O5	O	0.738141	1.005259	0.075581
O6	O	1.080892	1.005256	-0.267161
O7	O	0.738144	1.005259	-0.075559
O8	O	1.080877	0.662519	0.075579
O9	O	0.738157	1.347996	-0.267158
O10	O	1.061712	0.892464	-0.056386
O11	O	0.948916	0.892465	0.056408
O12	O	0.948926	1.118049	-0.169178
O13	O	0.836129	1.118050	-0.056384
Zr14	Zr	1.125840	1.005254	0.120537
Zr15	Zr	1.125845	1.005255	-0.120513
Zr16	Zr	0.884789	1.005257	0.120537
Zr17	Zr	0.884800	1.246304	-0.120511
Zr18	Zr	1.125834	0.764208	0.120535
O19	O	1.080891	1.196854	0.075584
O20	O	1.080897	1.196855	-0.267159
O21	O	0.738146	1.196859	0.075583
O22	O	1.272481	0.813653	0.267184
O23	O	1.272488	0.813654	-0.075559
O24	O	0.929736	0.813657	0.267183
O25	O	1.272492	1.005253	-0.075557
O26	O	1.080882	1.005255	0.267185
O27	O	0.929741	1.005256	0.267185
O28	O	1.272489	1.005253	0.075583
O29	O	0.929761	1.347994	-0.267158
O30	O	1.080873	0.662518	0.267182
O31	O	1.272477	0.662516	0.267182
O32	O	1.272481	0.662516	0.075579
O33	O	0.738153	1.347996	-0.075555
O34	O	0.929757	1.347994	-0.075555
O35	O	1.061708	0.892463	0.169202
O36	O	1.174505	0.892462	0.056408
O37	O	1.061718	1.118047	-0.056384
O38	O	0.948921	1.118048	0.056410
C39	C	1.005309	0.703744	0.000009
C40	C	1.005307	0.601414	0.000008
C41	C	0.703798	1.005260	0.000011
C42	C	0.601465	1.005261	0.000011
C43	C	0.457244	1.005250	-0.083251
C44	C	0.553391	1.005259	-0.083255
C45	C	0.553381	1.005266	0.083280
C46	C	0.457231	1.005266	0.083278
C47	C	0.409182	1.005235	-0.166516
C48	C	0.457259	1.005232	-0.249787
C49	C	0.553406	1.005242	-0.249791
C50	C	0.601476	1.005254	-0.166524
C51	C	0.838771	0.767932	-0.166518
C52	C	0.755503	0.803113	-0.249776
C53	C	0.755506	0.706960	-0.249772
C54	C	0.838789	0.575614	-0.166504
C55	C	0.922056	0.540433	-0.083246
C56	C	0.922042	0.636597	-0.083256
C57	C	1.088595	0.373917	0.083274
C58	C	1.088589	0.470068	0.083277
C59	C	1.171877	0.242571	0.166542
C60	C	1.255142	0.207388	0.249807
C61	C	1.255134	0.303550	0.249801
C62	C	1.171856	0.434887	0.166535
C63	C	1.306836	1.005252	0.000013
C64	C	1.409168	1.005251	0.000013
C65	C	1.005323	1.005257	-0.301505
C66	C	1.005325	1.005257	-0.403837
C67	C	1.005325	1.306768	0.000015
C68	C	1.005327	1.409098	0.000016
C69	C	1.088584	1.005261	-0.451921
C70	C	1.088579	1.005256	-0.548070
C71	C	0.922045	1.005247	-0.548046
C72	C	0.922056	1.005243	-0.451894
C73	C	1.171853	1.005275	-0.403865
C74	C	1.255119	1.005281	-0.451949
C75	C	1.255113	1.005276	-0.548098
C76	C	1.171843	1.005264	-0.596163
C77	C	1.005311	1.005255	0.301529
C78	C	1.005309	1.005255	0.403861
C79	C	1.306828	0.703741	0.000010
C80	C	1.409158	0.601409	0.000009
C81	C	1.005303	0.703744	0.301526
C82	C	1.005298	0.601413	0.403858
C83	C	1.306822	0.703740	0.301527
C84	C	1.409150	0.601408	0.403859
C85	C	0.703812	1.306772	-0.301503
C86	C	0.601484	1.409104	-0.403835
C87	C	0.703806	1.306772	0.000014
C88	C	0.601476	1.409103	0.000015
C89	C	1.005331	1.306769	-0.301502
C90	C	1.005335	1.409099	-0.403834
C91	C	1.398360	0.553331	-0.058865
C92	C	1.494514	0.457187	-0.058869
C93	C	1.612261	0.457204	0.058884
C94	C	1.516108	0.553353	0.058881
C95	C	1.291410	0.601387	-0.117736
C96	C	1.280606	0.553307	-0.176614
C97	C	1.376760	0.457163	-0.176619
C98	C	1.483717	0.409099	-0.117745
C99	C	1.064174	0.553332	0.510811
C100	C	1.064161	0.457187	0.606958
C101	C	0.946394	0.457208	0.489185
C102	C	0.946402	0.553358	0.393041
C103	C	1.123071	0.601387	0.521628
C104	C	1.181953	0.553306	0.628585
C105	C	1.181939	0.457160	0.724733
C106	C	1.123044	0.409097	0.713922
C107	C	1.516103	0.553328	0.393060
C108	C	1.612247	0.457182	0.489216
C109	C	1.494472	0.457203	0.606965
C110	C	1.398330	0.553353	0.510810
C111	C	1.526922	0.601383	0.286109
C112	C	1.633880	0.553301	0.275306
C113	C	1.730024	0.457156	0.371461
C114	C	1.719211	0.409092	0.478419
H115	H	0.418110	1.005233	-0.317585
H116	H	1.642678	0.592447	0.188217
H117	H	1.322947	0.100445	0.317593
O118	O	1.171852	0.538606	0.166510
H119	H	1.091882	0.599909	0.174584
H120	H	1.367959	0.418029	-0.224569
H121	H	0.592527	1.005274	0.151073
O122	O	1.344943	0.265604	0.339603
H123	H	1.402844	0.158121	0.397503
O124	O	0.832219	1.005276	-0.599909
H125	H	0.774322	1.005274	-0.550319
H126	H	1.322917	1.005268	-0.587242
O127	O	1.171865	1.005264	-0.300153
H128	H	1.243759	1.005260	-0.274805
O129	O	0.405374	1.005253	0.173089
H130	H	0.454958	1.005239	0.231000
O131	O	0.305489	1.005209	-0.166478
H132	H	0.236093	1.093248	-0.246433
H133	H	1.171852	1.005247	-0.674448
H134	H	0.592543	1.005252	-0.317599
H135	H	1.817110	0.418018	0.362662
O136	O	0.832253	1.005249	-0.400027
H137	H	0.774337	1.005263	-0.449607
O138	O	1.587431	0.305401	-0.117746
H139	H	1.561956	0.280038	-0.168573
H140	H	1.213110	0.679666	-0.117733
H141	H	1.485678	0.418060	0.694055
O142	O	0.705162	1.005297	-0.166561
H143	H	0.686467	1.093362	-0.174658
O144	O	0.838772	0.871637	-0.166520
H145	H	0.766880	0.968876	-0.238410
H146	H	1.699350	0.418061	0.106818
H147	H	1.524904	0.592500	0.106821
O148	O	1.165256	0.605148	-0.240122
H149	H	1.100207	0.680074	-0.230224
O150	O	0.665677	0.944774	-0.339585
H151	H	0.679652	1.005731	-0.325599
O152	O	1.344953	1.005247	-0.400094
H153	H	1.330974	1.005246	-0.325156
H154	H	0.898462	0.592504	0.305954
H155	H	1.448644	0.679666	0.207808
H156	H	0.687707	0.735612	-0.317572
H157	H	1.123091	0.679671	0.443346
H158	H	1.229895	0.592453	0.637379
O159	O	0.838803	0.471900	-0.166499
H160	H	0.766911	0.518429	-0.238382
H161	H	1.229874	0.418024	0.811818
O162	O	1.123030	0.305392	0.817620
H163	H	1.173870	0.280025	0.893811
O164	O	1.171894	0.138853	0.166552
H165	H	1.091937	0.149421	0.174655
O166	O	0.882905	0.405344	0.477521
H167	H	0.892809	0.330390	0.562345
H168	H	1.797503	0.330813	0.556711
H169	H	1.311243	0.592501	0.519607
