data_functionalizedCrystal
_audit_creation_method	'MofGen! by Chris Wilmer'
_symmetry_space_group_name_H-M	'P1'
_symmetry_Int_Tables_number	1
_symmetry_cell_setting	triclinic
loop_
_symmetry_equiv_pos_as_xyz
  x,y,z
_cell_length_a	16.625546
_cell_length_b	19.077236
_cell_length_c	19.076919
_cell_angle_alpha	89.887323
_cell_angle_beta	92.269917
_cell_angle_gamma	92.315185
loop_
_atom_site_label
_atom_site_type_symbol
_atom_site_fract_x
_atom_site_fract_y
_atom_site_fract_z
Zn1	Zn	-0.292690	1.058301	-0.440534
Zn2	Zn	0.207310	1.558301	0.059466
Zn3	Zn	-0.421906	1.062945	-0.323024
Zn4	Zn	0.078094	1.562945	0.176976
Zn5	Zn	-0.292268	0.945516	-0.318314
Zn6	Zn	0.207732	1.445516	0.181686
Zn7	Zn	-0.432663	0.940764	-0.435762
Zn8	Zn	0.067337	1.440764	0.064238
O9	O	-0.359882	1.001881	-0.379409
O10	O	0.140118	1.501881	0.120591
O11	O	-0.305506	1.157250	-0.428915
O12	O	0.194494	1.657250	0.071085
O13	O	-0.400030	1.051300	-0.224069
O14	O	0.099970	1.551300	0.275931
O15	O	-0.179490	0.960522	-0.334553
O16	O	0.320510	1.460522	0.165447
O17	O	-0.400440	1.160662	-0.342581
O18	O	0.099560	1.660662	0.157419
O19	O	-0.179801	1.043385	-0.424348
O20	O	0.320199	1.543385	0.075652
O21	O	-0.304786	0.965025	-0.220609
O22	O	0.195214	1.465025	0.279391
O23	O	-0.315216	0.846552	-0.329926
O24	O	0.184784	1.346552	0.170074
O25	O	-0.418774	0.952423	-0.534726
O26	O	0.081226	1.452423	-0.034726
O27	O	-0.418364	0.843061	-0.416214
O28	O	0.081636	1.343061	0.083786
O29	O	-0.315937	1.038777	-0.538232
O30	O	0.184063	1.538777	-0.038232
O31	O	-0.536166	1.046692	-0.337953
O32	O	-0.036166	1.546692	0.162047
O33	O	-0.544069	0.956927	-0.420781
O34	O	-0.044069	1.456927	0.079219
C35	C	-0.367912	0.819310	-0.372042
C36	C	0.132088	1.319310	0.127958
C37	C	-0.371368	0.741204	-0.368907
C38	C	0.128632	1.241204	0.131093
C39	C	-0.323649	0.702731	-0.412452
C40	C	0.176351	1.202731	0.087548
C41	C	-0.326892	0.629343	-0.409500
C42	C	0.173108	1.129343	0.090500
C43	C	-0.377858	0.594429	-0.363006
C44	C	0.122142	1.094429	0.136994
C45	C	-0.425579	0.632907	-0.319456
C46	C	0.074421	1.132907	0.180544
C47	C	-0.422331	0.706294	-0.322405
C48	C	0.077669	1.206294	0.177595
C49	C	-0.392858	0.375136	-0.349356
C50	C	0.107142	0.875136	0.150644
C51	C	-0.396104	0.301744	-0.346412
C52	C	0.103896	0.801744	0.153588
C53	C	-0.297416	0.298185	-0.436456
C54	C	0.202584	0.798185	0.063544
C55	C	-0.294176	0.371573	-0.439403
C56	C	0.205824	0.871573	0.060597
C57	C	-0.341894	0.410045	-0.395851
C58	C	0.158106	0.910045	0.104149
N59	N	-0.381176	0.519414	-0.359989
N60	N	0.118824	1.019414	0.140011
N61	N	-0.338571	0.485059	-0.398864
N62	N	0.161429	0.985059	0.101136
C63	C	-0.569374	1.001816	-0.379377
C64	C	-0.069374	1.501816	0.120623
C65	C	-0.658994	1.001851	-0.379389
C66	C	-0.158994	1.501851	0.120611
C67	C	-0.987168	1.001971	-0.379467
C68	C	-0.487168	1.501971	0.120533
C69	C	-0.895860	1.001935	-0.379447
C70	C	-0.395860	1.501935	0.120553
C71	C	-0.823084	1.001911	-0.379428
C72	C	-0.323084	1.501911	0.120572
C73	C	-0.731770	1.001876	-0.379409
C74	C	-0.231770	1.501876	0.120591
C75	C	-0.149571	1.001965	-0.379457
C76	C	0.350429	1.501965	0.120543
C77	C	-0.059949	1.002001	-0.379478
C78	C	0.440051	1.502001	0.120522
C79	C	-0.368603	0.994552	-0.562688
C80	C	0.131397	1.494552	-0.062688
C81	C	-0.372319	0.991429	-0.640791
C82	C	0.127681	1.491429	-0.140791
C83	C	-0.351821	1.185166	-0.386805
C84	C	0.148179	1.685166	0.113195
C85	C	-0.348385	1.263271	-0.389957
C86	C	0.151615	1.763271	0.110043
C87	C	-0.320525	1.034919	-0.679310
C88	C	0.179475	1.534919	-0.179310
C89	C	-0.324014	1.031975	-0.752695
C90	C	0.175986	1.531975	-0.252695
C91	C	-0.379302	0.985545	-0.787560
C92	C	0.120698	1.485545	-0.287560
C93	C	-0.431097	0.942051	-0.749036
C94	C	0.068903	1.442051	-0.249036
C95	C	-0.427604	0.944991	-0.675651
C96	C	0.072396	1.444991	-0.175651
C97	C	-0.395488	0.971928	-1.006839
C98	C	0.104512	1.471928	-0.506839
C99	C	-0.398979	0.968992	-1.080229
C100	C	0.101021	1.468992	-0.580229
C101	C	-0.291895	1.058916	-1.083883
C102	C	0.208105	1.558916	-0.583883
C103	C	-0.288409	1.061855	-1.010497
C104	C	0.211591	1.561855	-0.510497
C105	C	-0.340202	1.018358	-0.971979
C106	C	0.159798	1.518358	-0.471979
N107	N	-0.382871	0.982537	-0.862572
N108	N	0.117129	1.482537	-0.362572
N109	N	-0.336628	1.021363	-0.896969
N110	N	0.163372	1.521363	-0.396969
C111	C	-0.351135	1.009223	-0.196844
C112	C	0.148865	1.509223	0.303156
C113	C	-0.347186	1.012482	-0.118748
C114	C	0.152814	1.512482	0.381252
H115	H	-0.461188	0.737618	-0.286945
H116	H	0.038812	1.237618	0.213055
H117	H	-0.288036	0.598022	-0.444960
H118	H	0.211964	1.098022	0.055040
Cl119	Cl	-0.460600	0.917245	-0.958426
Cl120	Cl	0.039400	1.417245	-0.458426
H121	H	-0.249727	1.094328	-1.115252
H122	H	0.250273	1.594328	-0.615252
Cl123	Cl	-0.500599	0.883678	-0.792866
Cl124	Cl	-0.000599	1.383678	-0.292866
Cl125	Cl	-0.492716	0.890313	-0.627227
Cl126	Cl	0.007284	1.390313	-0.127227
H127	H	-0.282149	0.731153	-0.450314
H128	H	0.217851	1.231153	0.049686
Cl129	Cl	-0.230107	0.415460	-0.497860
Cl130	Cl	0.269893	0.915460	0.002140
H131	H	-0.437611	0.273319	-0.308551
H132	H	0.062389	0.773319	0.191449
Cl133	Cl	-0.237430	0.249817	-0.491202
Cl134	Cl	0.262570	0.749817	0.008798
Cl135	Cl	-0.218903	1.120228	-0.966673
Cl136	Cl	0.281097	1.620228	-0.466673
Cl137	Cl	-0.489646	0.589015	-0.261002
Cl138	Cl	0.010354	1.089015	0.238998
H139	H	-0.431714	0.406451	-0.313893
H140	H	0.068286	0.906451	0.186107
H141	H	-0.275507	1.072729	-0.650928
H142	H	0.224493	1.572729	-0.150928
Cl143	Cl	-0.258933	1.086682	-0.801118
Cl144	Cl	0.241067	1.586682	-0.301118
H145	H	-0.444003	0.931181	-1.108613
H146	H	0.055997	1.431181	-0.608613
