data_functionalizedCrystal
_audit_creation_method	'MofGen! by Chris Wilmer'
_symmetry_space_group_name_H-M	'P1'
_symmetry_Int_Tables_number	1
_symmetry_cell_setting	triclinic
loop_
_symmetry_equiv_pos_as_xyz
  x,y,z
_cell_length_a	18.215407
_cell_length_b	16.959454
_cell_length_c	18.215399
_cell_angle_alpha	89.976304
_cell_angle_beta	89.980167
_cell_angle_gamma	90.020523
loop_
_atom_site_label
_atom_site_type_symbol
_atom_site_fract_x
_atom_site_fract_y
_atom_site_fract_z
Zn1	Zn	1.125097	-0.314680	-0.416138
Zn2	Zn	1.125015	-0.446866	-0.293080
Zn3	Zn	1.002029	-0.314706	-0.293085
Zn4	Zn	1.002005	-0.446822	-0.416105
O5	O	1.063537	-0.380768	-0.354602
O6	O	1.228070	-0.332222	-0.399825
O7	O	1.108677	-0.429364	-0.190097
O8	O	1.018398	-0.204092	-0.309424
O9	O	1.228010	-0.429339	-0.309416
O10	O	1.108815	-0.204073	-0.399830
O11	O	1.018319	-0.332267	-0.190100
O12	O	0.899042	-0.332224	-0.309392
O13	O	1.018358	-0.429264	-0.519094
O14	O	0.899024	-0.429289	-0.399775
O15	O	1.108792	-0.332180	-0.519118
O16	O	1.108654	-0.557471	-0.309385
O17	O	1.018279	-0.557438	-0.399770
C18	C	0.872330	-0.380755	-0.354581
C19	C	0.790531	-0.380768	-0.354589
C20	C	1.063475	-0.586135	-0.354590
C21	C	1.063516	-0.673991	-0.354609
C22	C	0.602348	-0.431389	-0.401593
C23	C	0.525489	-0.431392	-0.401602
C24	C	0.525478	-0.330162	-0.307628
C25	C	0.602335	-0.330156	-0.307623
C26	C	0.640768	-0.380774	-0.354604
C27	C	0.487052	-0.380782	-0.354618
C28	C	0.403718	-0.380785	-0.354628
C29	C	0.724107	-0.380771	-0.354596
C30	C	1.016547	-1.045480	-0.401661
C31	C	1.110731	-1.045454	-0.307618
C32	C	1.110706	-0.962908	-0.307611
C33	C	1.063599	-0.921644	-0.354629
C34	C	1.016518	-0.962926	-0.401654
C35	C	1.157781	-0.921619	-0.260582
C36	C	1.157756	-0.839068	-0.260573
C37	C	1.110653	-0.797803	-0.307595
C38	C	1.063570	-0.839091	-0.354622
C39	C	1.016464	-0.797827	-0.401640
C40	C	0.969384	-0.839113	-0.448672
C41	C	0.969414	-0.921661	-0.448676
C42	C	1.110623	-0.715255	-0.307591
C43	C	1.016435	-0.715273	-0.401634
C44	C	1.255489	-0.380783	-0.354624
C45	C	1.337288	-0.380789	-0.354633
C46	C	1.063581	-0.380714	-0.546555
C47	C	1.063601	-0.380691	-0.628354
C48	C	1.063619	-0.174600	-0.354631
C49	C	1.063653	-0.086744	-0.354643
C50	C	1.110707	-0.330092	-0.816562
C51	C	1.110716	-0.330069	-0.893420
C52	C	1.016546	-0.431167	-0.893384
C53	C	1.016534	-0.431186	-0.816527
C54	C	1.063619	-0.380649	-0.778118
C55	C	1.063639	-0.380608	-0.931834
C56	C	1.063649	-0.380583	-1.015168
C57	C	1.063609	-0.380672	-0.694779
C58	C	1.063534	-0.380766	-0.163396
C59	C	1.063658	-0.380566	-0.081597
H60	H	0.494211	-0.472606	-0.439866
H61	H	0.978218	-1.079098	-0.439955
H62	H	0.931026	-0.805506	-0.486951
H63	H	0.494176	-0.288952	-0.269376
H64	H	0.978184	-0.472355	-0.785225
C65	C	1.161813	-1.090394	-0.256620
C66	C	1.151757	-1.171523	-0.266687
C67	C	1.198796	-1.212949	-0.219711
H68	H	1.151085	-1.076976	-0.207143
H69	H	1.211276	-1.076888	-0.267413
H70	H	1.102305	-1.185023	-0.255888
H71	H	1.162490	-1.184964	-0.316154
H72	H	1.248259	-1.199443	-0.230505
H73	H	1.188064	-1.199525	-0.170237
H74	H	1.191984	-1.267999	-0.226540
C75	C	0.965369	-0.670333	-0.452656
C76	C	0.975428	-0.589203	-0.442597
C77	C	0.928406	-0.547781	-0.489593
H78	H	0.915903	-0.683814	-0.441890
H79	H	0.976125	-0.683779	-0.502130
H80	H	0.964666	-0.575763	-0.393135
H81	H	1.024884	-0.575699	-0.453368
H82	H	0.939163	-0.561226	-0.539067
H83	H	0.878944	-0.561268	-0.478823
H84	H	0.935230	-0.492730	-0.482780
H85	H	0.633617	-0.288934	-0.269359
C86	C	0.918325	-0.966629	-0.499649
C87	C	0.928417	-1.047752	-0.489572
C88	C	0.881358	-1.089204	-0.536504
H89	H	0.929012	-0.953166	-0.549136
H90	H	0.868865	-0.953188	-0.488821
H91	H	0.977866	-1.061188	-0.500405
H92	H	0.917725	-1.061238	-0.440094
H93	H	0.831898	-1.075763	-0.525677
H94	H	0.892049	-1.075735	-0.585989
H95	H	0.888194	-1.144250	-0.529669
H96	H	1.196127	-0.955222	-0.222297
H97	H	0.633638	-0.472604	-0.439850
H98	H	1.196091	-0.805459	-0.222279
H99	H	1.149044	-0.288940	-0.785291
C100	C	1.161607	-0.670387	-0.256443
C101	C	1.119943	-0.623067	-0.209224
C102	C	1.166886	-0.581732	-0.162088
H103	H	1.193662	-0.638081	-0.284534
H104	H	1.189650	-0.706759	-0.228395
H105	H	1.091912	-0.586700	-0.237268
H106	H	1.087890	-0.655354	-0.181116
H107	H	1.194930	-0.618104	-0.134040
H108	H	1.198939	-0.549430	-0.190185
H109	H	1.138624	-0.549626	-0.130040
H110	H	1.149058	-0.288899	-0.924718
H111	H	0.978214	-0.472314	-0.924667
