data_functionalizedCrystal
_audit_creation_method	'MofGen! by Chris Wilmer'
_symmetry_space_group_name_H-M	'P1'
_symmetry_Int_Tables_number	1
_symmetry_cell_setting	triclinic
loop_
_symmetry_equiv_pos_as_xyz
  x,y,z
_cell_length_a	12.827893
_cell_length_b	12.827892
_cell_length_c	19.077174
_cell_angle_alpha	92.275857
_cell_angle_beta	87.686480
_cell_angle_gamma	90.015552
loop_
_atom_site_label
_atom_site_type_symbol
_atom_site_fract_x
_atom_site_fract_y
_atom_site_fract_z
Zn1	Zn	1.621354	-0.439781	-0.397936
Zn2	Zn	1.614243	-0.607519	-0.280248
Zn3	Zn	1.439591	-0.432794	-0.280258
Zn4	Zn	1.446579	-0.614480	-0.397909
O5	O	1.530442	-0.523643	-0.339088
O6	O	1.766647	-0.462043	-0.382332
O7	O	1.585175	-0.578504	-0.181760
O8	O	1.463754	-0.287485	-0.295883
O9	O	1.761423	-0.585279	-0.295867
O10	O	1.597294	-0.292619	-0.382341
O11	O	1.456859	-0.450134	-0.181766
O12	O	1.294282	-0.456883	-0.295857
O13	O	1.475663	-0.597143	-0.496403
O14	O	1.299415	-0.590368	-0.382295
O15	O	1.604070	-0.468793	-0.496423
O16	O	1.591951	-0.754677	-0.295841
O17	O	1.468769	-0.759792	-0.382286
C18	C	1.258931	-0.523623	-0.339074
C19	C	1.142779	-0.523641	-0.339085
C20	C	1.093583	-0.462776	-0.381938
C21	C	0.973533	-0.462793	-0.381950
C22	C	1.530376	-0.795153	-0.339075
C23	C	1.530444	-0.911307	-0.339093
C24	C	1.596498	-0.965551	-0.381913
C25	C	1.596571	-1.085602	-0.381933
C26	C	1.803013	-0.523664	-0.339102
C27	C	1.919166	-0.523673	-0.339108
C28	C	1.541439	-0.534524	-0.522664
C29	C	1.546125	-0.539161	-0.600893
C30	C	1.530538	-0.251075	-0.339116
C31	C	1.530578	-0.134923	-0.339128
C32	C	1.481522	-0.474505	-0.637649
C33	C	1.485922	-0.478870	-0.711154
C34	C	1.554930	-0.547887	-0.747902
C35	C	1.619535	-0.612550	-0.711141
C36	C	1.615130	-0.608189	-0.637638
C37	C	1.575264	-0.568101	-0.967733
C38	C	1.579667	-0.572454	-1.041241
C39	C	1.446051	-0.438776	-1.041249
C40	C	1.441656	-0.434417	-0.967744
C41	C	1.506258	-0.499083	-0.930990
N42	N	1.559431	-0.552348	-0.823035
N43	N	1.501751	-0.494627	-0.855858
C44	C	1.519548	-0.512730	-0.156226
C45	C	1.515064	-0.507799	-0.077997
H46	H	1.096021	-0.575759	-0.302406
Br47	Br	1.702801	-0.695947	-0.587754
Br48	Br	1.690841	-1.163330	-0.443034
H49	H	1.652993	-0.923116	-0.418562
H50	H	1.474028	-1.088291	-0.302463
Br51	Br	1.436264	-0.982027	-0.278016
Br52	Br	1.387872	-0.380827	-0.587784
H53	H	1.433311	-0.426225	-0.741076
H54	H	1.635866	-0.628657	-1.071160
H55	H	1.385460	-0.378219	-0.937829
H56	H	1.675718	-0.668750	-0.741067
Br57	Br	1.171504	-0.375894	-0.443070
Br58	Br	0.903010	-0.375946	-0.443108
Br59	Br	1.662944	-0.655857	-0.917862
Br60	Br	0.989684	-0.610541	-0.277960
Br61	Br	1.358380	-0.351021	-1.091133
