data_functionalizedCrystal
_audit_creation_method	'MofGen! by Chris Wilmer'
_symmetry_space_group_name_H-M	'P1'
_symmetry_Int_Tables_number	1
_symmetry_cell_setting	triclinic
loop_
_symmetry_equiv_pos_as_xyz
  x,y,z
_cell_length_a	11.169417
_cell_length_b	16.625539
_cell_length_c	11.169416
_cell_angle_alpha	89.977153
_cell_angle_beta	90.011589
_cell_angle_gamma	89.983071
loop_
_atom_site_label
_atom_site_type_symbol
_atom_site_fract_x
_atom_site_fract_y
_atom_site_fract_z
Zn1	Zn	1.834932	-0.455862	-0.477765
Zn2	Zn	2.168265	-0.122528	-0.144432
Zn3	Zn	2.501598	0.210805	0.188902
Zn4	Zn	1.834830	-0.321042	-0.678477
Zn5	Zn	2.168163	0.012292	-0.345144
Zn6	Zn	2.501497	0.345625	-0.011811
Zn7	Zn	1.634227	-0.321051	-0.477811
Zn8	Zn	1.967560	0.012283	-0.144478
Zn9	Zn	2.300893	0.345616	0.188855
Zn10	Zn	1.634225	-0.455840	-0.678409
Zn11	Zn	1.967558	-0.122507	-0.345076
Zn12	Zn	2.300892	0.210827	-0.011742
O13	O	1.734553	-0.388449	-0.578116
O14	O	2.067887	-0.055115	-0.244782
O15	O	2.401220	0.278218	0.088551
O16	O	2.002868	-0.437983	-0.504399
O17	O	2.336201	-0.104649	-0.171066
O18	O	2.669535	0.228684	0.162268
O19	O	1.808178	-0.208210	-0.651907
O20	O	2.141511	0.125123	-0.318573
O21	O	2.474844	0.458456	0.014760
O22	O	1.660894	-0.338946	-0.309856
O23	O	1.994227	-0.005613	0.023478
O24	O	2.327560	0.327720	0.356811
O25	O	2.002793	-0.338931	-0.651862
O26	O	2.336127	-0.005598	-0.318528
O27	O	2.669460	0.327736	0.014805
O28	O	1.808351	-0.437991	-0.309821
O29	O	2.141684	-0.104658	0.023512
O30	O	2.475018	0.228675	0.356845
O31	O	1.660795	-0.208217	-0.504478
O32	O	1.994129	0.125116	-0.171145
O33	O	2.327462	0.458450	0.162189
O34	O	1.466277	-0.338926	-0.504412
O35	O	1.799610	-0.005592	-0.171079
O36	O	2.132943	0.327741	0.162255
O37	O	1.660891	-0.568675	-0.651745
O38	O	1.994224	-0.235342	-0.318412
O39	O	2.327558	0.097991	0.014921
O40	O	1.466276	-0.437955	-0.651790
O41	O	1.799609	-0.104621	-0.318457
O42	O	2.132942	0.228712	0.014876
O43	O	1.808349	-0.568691	-0.504333
O44	O	2.141683	-0.235358	-0.171000
O45	O	2.475016	0.097975	0.162334
O46	O	1.808176	-0.338910	-0.846418
O47	O	2.141510	-0.005577	-0.513085
O48	O	2.474843	0.327756	-0.179751
O49	O	1.660793	-0.437946	-0.846368
O50	O	1.994126	-0.104613	-0.513035
O51	O	2.327459	0.228721	-0.179701
C52	C	1.422729	-0.388439	-0.578100
C53	C	1.756062	-0.055106	-0.244766
C54	C	2.089395	0.278227	0.088567
C55	C	1.289329	-0.388455	-0.578122
C56	C	1.622662	-0.055121	-0.244788
C57	C	1.955995	0.278212	0.088545
C58	C	1.734631	-0.598758	-0.578026
C59	C	2.067965	-0.265424	-0.244693
C60	C	2.401298	0.067909	0.088640
C61	C	1.734665	-0.688379	-0.577988
C62	C	2.067998	-0.355045	-0.244655
C63	C	2.401331	-0.021712	0.088678
C64	C	1.734720	-1.016555	-0.577854
C65	C	2.068053	-0.683221	-0.244520
C66	C	2.401387	-0.349888	0.088813
C67	C	1.734701	-0.925246	-0.577895
C68	C	2.068035	-0.591913	-0.244562
C69	C	2.401368	-0.258579	0.088772
C70	C	1.734693	-0.852470	-0.577922
C71	C	2.068026	-0.519136	-0.244589
C72	C	2.401360	-0.185803	0.088745
C73	C	1.734673	-0.761155	-0.577961
C74	C	2.068006	-0.427822	-0.244628
C75	C	2.401340	-0.094489	0.088705
C76	C	2.047596	-0.388458	-0.578133
C77	C	2.380929	-0.055125	-0.244800
C78	C	2.714262	0.278208	0.088534
C79	C	2.180996	-0.388462	-0.578140
C80	C	2.514329	-0.055129	-0.244807
C81	C	2.847662	0.278204	0.088527
C82	C	1.734506	-0.388442	-0.889940
C83	C	2.067839	-0.055109	-0.556607
C84	C	2.401172	0.278224	-0.223274
C85	C	1.734595	-0.388467	-1.023340
C86	C	2.067929	-0.055133	-0.690007
C87	C	2.401262	0.278200	-0.356674
C88	C	1.734545	-0.178958	-0.578118
C89	C	2.067878	0.154376	-0.244785
C90	C	2.401211	0.487709	0.088548
C91	C	1.734744	-0.089337	-0.577818
C92	C	2.068077	0.243996	-0.244485
C93	C	2.401411	0.577330	0.088848
C94	C	1.734634	-0.388472	-0.265073
C95	C	2.067967	-0.055139	0.068260
C96	C	2.401300	0.278194	0.401593
C97	C	1.734668	-0.388483	-0.131673
C98	C	2.068001	-0.055149	0.201660
C99	C	2.401335	0.278184	0.534993
