data_functionalizedCrystal
_audit_creation_method	'MofGen! by Chris Wilmer'
_symmetry_space_group_name_H-M	'P1'
_symmetry_Int_Tables_number	1
_symmetry_cell_setting	triclinic
loop_
_symmetry_equiv_pos_as_xyz
  x,y,z
_cell_length_a	8.634740
_cell_length_b	8.559649
_cell_length_c	9.730223
_cell_angle_alpha	89.996892
_cell_angle_beta	89.997377
_cell_angle_gamma	85.174486
loop_
_atom_site_label
_atom_site_type_symbol
_atom_site_fract_x
_atom_site_fract_y
_atom_site_fract_z
O1	O	1.985468	0.511629	-0.114276
O2	O	1.541597	0.468727	-0.114280
O3	O	1.802638	0.263597	-0.114275
O4	O	1.724427	0.716760	-0.114282
O5	O	1.802624	0.263588	0.114305
O6	O	1.541583	0.468718	0.114300
O7	O	1.985454	0.511621	0.114304
Zn8	Zn	1.763516	0.490168	0.150594
Zn9	Zn	1.763535	0.490180	-0.150570
O10	O	1.724413	0.716751	0.114298
C11	C	1.485291	0.459004	0.000009
C12	C	1.317539	0.430026	0.000007
C13	C	1.808558	0.204975	0.000013
C14	C	1.826201	0.030311	0.000007
C15	C	2.041761	0.521344	0.000011
C16	C	2.209512	0.550322	0.000004
C17	C	1.718493	0.775373	0.000007
C18	C	1.700851	0.950037	0.000004
N19	N	1.763515	0.490161	0.356130
N20	N	1.763550	0.490176	-0.356107
C21	C	1.879133	0.399379	0.428058
C22	C	1.879148	0.399382	0.571941
C23	C	1.647920	0.580961	0.571955
C24	C	1.647900	0.580949	0.428074
H25	H	1.245366	0.675491	0.000011
H26	H	1.553742	0.654874	0.369506
H27	H	1.281691	0.304865	-0.000026
Br28	Br	2.036059	0.276165	0.669556
Br29	Br	2.027576	-0.077849	0.000023
Br30	Br	1.499467	0.058202	0.000021
Br31	Br	2.036036	0.276164	0.330424
Br32	Br	1.491022	0.704172	0.669598
