data_functionalizedCrystal
_audit_creation_method	'MofGen! by Chris Wilmer'
_symmetry_space_group_name_H-M	'P1'
_symmetry_Int_Tables_number	1
_symmetry_cell_setting	triclinic
loop_
_symmetry_equiv_pos_as_xyz
  x,y,z
_cell_length_a	16.109301
_cell_length_b	19.188930
_cell_length_c	14.586319
_cell_angle_alpha	89.991095
_cell_angle_beta	89.999213
_cell_angle_gamma	83.303131
loop_
_atom_site_label
_atom_site_type_symbol
_atom_site_fract_x
_atom_site_fract_y
_atom_site_fract_z
O1	O	1.102833	0.089744	-0.076193
O2	O	0.860734	0.100912	-0.076209
O3	O	0.988770	-0.006311	-0.076182
O4	O	0.974797	0.196968	-0.076219
O5	O	0.988762	-0.006313	0.076298
O6	O	0.860726	0.100911	0.076272
O7	O	1.102825	0.089742	0.076288
Cu8	Cu	0.981774	0.095326	0.090203
Cu9	Cu	0.981785	0.095328	-0.090124
O10	O	0.974789	0.196966	0.076262
C11	C	0.829757	0.100459	0.000030
C12	C	0.737466	0.099103	0.000025
C13	C	0.514993	0.159573	0.000024
C14	C	0.428277	0.158294	0.000030
C15	C	0.448573	0.031076	0.000050
C16	C	0.535287	0.032357	0.000050
C17	C	0.568495	0.096608	0.000033
C18	C	0.395064	0.094047	0.000038
C19	C	0.301043	0.092659	0.000045
C20	C	0.662522	0.097996	0.000028
C21	C	0.988313	-0.032324	0.000061
C22	C	0.986955	-0.109832	0.000068
C23	C	1.062082	-0.154580	0.000078
C24	C	1.060806	-0.227407	0.000063
C25	C	0.984399	-0.255482	0.000057
C26	C	0.909261	-0.210724	0.000043
C27	C	0.910540	-0.137899	0.000048
N28	N	0.925991	-0.363624	0.051945
N29	N	0.924782	-0.432805	0.051942
C30	C	0.980543	-0.474900	0.000038
N31	N	1.037571	-0.445200	-0.051850
N32	N	1.038783	-0.376013	-0.051843
C33	C	0.983004	-0.334448	0.000051
C34	C	1.054292	-0.598616	0.000030
C35	C	1.053012	-0.671443	0.000010
C36	C	0.901465	-0.654759	-0.000001
C37	C	0.902747	-0.581933	0.000010
C38	C	0.979162	-0.553866	0.000030
C39	C	1.133802	0.090196	0.000047
C40	C	1.226093	0.091552	0.000046
C41	C	0.975246	0.222979	0.000017
C42	C	0.976604	0.300486	0.000003
N43	N	0.981773	0.095325	0.217034
N44	N	0.981793	0.095325	-0.216955
C45	C	1.038486	0.047862	0.452052
C46	C	1.038488	0.047860	0.548034
C47	C	0.925074	0.142790	0.548020
C48	C	0.925068	0.142787	0.452040
C49	C	0.981779	0.095324	0.404059
C50	C	0.981787	0.095325	0.596020
C51	C	0.981789	0.095323	0.700087
C52	C	0.981776	0.095325	0.299985
H53	H	0.578851	-0.018920	0.000059
H54	H	0.847050	-0.233587	0.000036
O55	O	1.125974	-0.714942	-0.000147
C56	C	1.212471	-0.806856	-0.079118
C57	C	1.129819	-0.757622	-0.079063
H58	H	1.215599	-0.841385	-0.142905
H59	H	1.267333	-0.774315	-0.079161
H60	H	1.215644	-0.841349	-0.015282
H61	H	1.126564	-0.723119	-0.142889
H62	H	1.074996	-0.790205	-0.078972
O63	O	0.829788	-0.538432	-0.000151
C64	C	0.743308	-0.446488	-0.079119
C65	C	0.825959	-0.495723	-0.079057
H66	H	0.740193	-0.411935	-0.142898
H67	H	0.688445	-0.479027	-0.079185
H68	H	0.740124	-0.412018	-0.015275
H69	H	0.829225	-0.530202	-0.142890
H70	H	0.880783	-0.463141	-0.078943
H71	H	1.084662	0.009214	0.412988
O72	O	1.136383	-0.127433	0.000051
C73	C	1.286558	-0.151671	0.000127
C74	C	1.202473	-0.182510	0.000137
H75	H	1.340015	-0.196185	0.000216
H76	H	1.291011	-0.118009	-0.063698
H77	H	1.290894	-0.117978	0.063928
H78	H	1.198081	-0.216234	-0.063621
H79	H	1.198056	-0.216131	0.064004
H80	H	0.542027	0.211890	0.000017
O81	O	0.870073	0.188871	0.594773
C82	C	0.819788	0.230922	0.742628
C83	C	0.882132	0.178706	0.689798
H84	H	0.829505	0.222712	0.819465
H85	H	0.830417	0.286862	0.723807
H86	H	0.753240	0.221816	0.723712
H87	H	0.948705	0.187747	0.708686
H88	H	0.871431	0.122784	0.708623
O89	O	0.827315	-0.682138	0.000030
C90	C	0.758181	-0.786935	-0.000054
C91	C	0.842217	-0.756018	-0.000060
H92	H	0.770200	-0.846670	-0.000145
H93	H	0.721047	-0.768566	0.063771
H94	H	0.721076	-0.768448	-0.063855
H95	H	0.879389	-0.774490	0.063698
H96	H	0.879287	-0.774383	-0.063927
H97	H	0.384719	0.209567	0.000025
H98	H	1.121986	-0.263848	0.000067
H99	H	0.421524	-0.021234	0.000069
H100	H	1.084663	0.009211	0.587107
O101	O	0.869948	0.188963	0.405556
C102	C	0.757422	0.283092	0.415662
C103	C	0.819811	0.230853	0.468420
H104	H	0.716859	0.316963	0.466465
H105	H	0.793142	0.318026	0.370738
H106	H	0.716038	0.252920	0.370715
H107	H	0.861212	0.260967	0.513418
H108	H	0.784040	0.195919	0.513286
H109	H	0.849360	-0.101464	0.000041
O110	O	1.128497	-0.571315	0.000200
C111	C	1.217873	-0.498760	0.079179
C112	C	1.133814	-0.529640	0.079114
H113	H	1.222191	-0.465048	0.142965
H114	H	1.271383	-0.543230	0.079233
H115	H	1.222250	-0.465099	0.015342
H116	H	1.129355	-0.563293	0.142941
H117	H	1.080344	-0.485137	0.079013
