data_functionalizedCrystal
_audit_creation_method	'MofGen! by Chris Wilmer'
_symmetry_space_group_name_H-M	'P1'
_symmetry_Int_Tables_number	1
_symmetry_cell_setting	triclinic
loop_
_symmetry_equiv_pos_as_xyz
  x,y,z
_cell_length_a	12.837943
_cell_length_b	12.837938
_cell_length_c	11.295483
_cell_angle_alpha	94.533028
_cell_angle_beta	94.538974
_cell_angle_gamma	85.171210
loop_
_atom_site_label
_atom_site_type_symbol
_atom_site_fract_x
_atom_site_fract_y
_atom_site_fract_z
O1	O	1.408688	-0.265789	0.098994
O2	O	1.908688	0.234211	0.598994
O3	O	1.105555	-0.252345	0.099001
O4	O	1.605555	0.247655	0.599001
O5	O	1.250400	-0.107500	0.098998
O6	O	1.750400	0.392500	0.598998
O7	O	1.263843	-0.410634	0.098997
O8	O	1.763843	0.089366	0.598997
O9	O	1.237676	-0.120201	-0.099052
O10	O	1.737676	0.379799	0.400948
O11	O	1.092831	-0.265046	-0.099050
O12	O	1.592831	0.234954	0.400950
O13	O	1.395964	-0.278489	-0.099056
O14	O	1.895964	0.221511	0.400944
Cu15	Cu	1.243235	-0.272927	-0.117137
Cu16	Cu	1.743235	0.227073	0.382863
Cu17	Cu	1.258283	-0.257908	0.117081
Cu18	Cu	1.758283	0.242092	0.617081
O19	O	1.251118	-0.423334	-0.099054
O20	O	1.751118	0.076666	0.400946
C21	C	1.060124	-0.254154	-0.000024
C22	C	1.560124	0.245846	0.499976
C23	C	0.943709	-0.240609	-0.000021
C24	C	1.443709	0.259391	0.499979
C25	C	1.239497	-0.074781	-0.000024
C26	C	1.739497	0.425219	0.499976
C27	C	1.225953	0.041634	-0.000016
C28	C	1.725953	0.541634	0.499984
C29	C	1.441395	-0.276680	-0.000029
C30	C	1.941395	0.223320	0.499971
C31	C	1.557810	-0.290225	-0.000024
C32	C	2.057810	0.209775	0.499976
C33	C	1.388786	0.266511	0.000018
C34	C	1.888786	0.766511	0.500018
C35	C	1.376065	0.375894	0.000026
C36	C	1.876065	0.875894	0.500026
C37	C	1.187793	0.369786	0.000017
C38	C	1.687793	0.869786	0.500017
C39	C	1.200514	0.260403	0.000009
C40	C	1.700514	0.760403	0.500009
C41	C	1.301013	0.208769	0.000007
C42	C	1.801013	0.708769	0.500007
C43	C	1.313732	0.099384	-0.000009
C44	C	1.813732	0.599384	0.499991
C45	C	1.125462	0.093278	-0.000010
C46	C	1.625462	0.593278	0.499990
C47	C	1.112741	0.202661	-0.000002
C48	C	1.612741	0.702661	0.499998
C49	C	1.782684	-0.127396	-0.000036
C50	C	2.282684	0.372604	0.499964
C51	C	1.892067	-0.140117	-0.000031
C52	C	2.392067	0.359883	0.499969
C53	C	1.885960	-0.328387	-0.000019
C54	C	2.385960	0.171613	0.499981
C55	C	1.776577	-0.315666	-0.000023
C56	C	2.276577	0.184334	0.499977
C57	C	1.724944	-0.215167	-0.000030
C58	C	2.224944	0.284833	0.499970
C59	C	1.615559	-0.202447	-0.000026
C60	C	2.115559	0.297553	0.499974
C61	C	1.609454	-0.390717	-0.000022
C62	C	2.109454	0.109283	0.499978
C63	C	1.718837	-0.403438	-0.000018
C64	C	2.218837	0.096562	0.499982
N65	N	1.232659	-0.283491	-0.281873
N66	N	1.732659	0.216509	0.218127
C67	C	1.262023	0.543947	-0.000016
C68	C	1.762023	1.043947	0.499984
C69	C	1.275572	0.427535	0.000023
C70	C	1.775572	0.927535	0.500023
C71	C	1.344995	-0.171231	-0.531164
C72	C	1.844995	0.328769	-0.031164
C73	C	1.337011	-0.179223	-0.655828
C74	C	1.837011	0.320777	-0.155828
C75	C	1.208701	-0.307460	-0.655866
C76	C	1.708701	0.192540	-0.155866
C77	C	1.216685	-0.299468	-0.531202
C78	C	1.716685	0.200532	-0.031202
C79	C	1.284836	-0.231353	-0.468856
C80	C	1.784836	0.268647	0.031144
C81	C	1.292825	-0.223368	-0.344190
C82	C	1.792825	0.276632	0.155810
C83	C	1.164510	-0.351598	-0.344230
C84	C	1.664510	0.148402	0.155770
C85	C	1.156526	-0.359590	-0.468894
C86	C	1.656526	0.140410	0.031106
N87	N	1.268867	-0.247336	0.281817
N88	N	1.768867	0.252664	0.781817
H89	H	1.470615	0.224469	0.000005
H90	H	1.970615	0.724469	0.500005
H91	H	1.400494	-0.115777	-0.480401
H92	H	1.900494	0.384223	0.019599
N93	N	1.774529	-0.511828	-0.000014
N94	N	2.274529	-0.011828	0.499986
H95	H	1.852585	-0.506571	-0.000013
H96	H	2.352585	-0.006571	0.499987
H97	H	1.758791	-0.545994	0.073411
H98	H	2.258791	-0.045994	0.573411
H99	H	1.562430	-0.462186	-0.000017
H100	H	2.062430	0.037814	0.499983
H101	H	1.395563	0.057345	-0.000015
H102	H	1.895563	0.557345	0.499985
N103	N	1.954337	-0.045443	-0.000032
N104	N	2.454337	0.454557	0.499968
H105	H	2.004570	-0.041811	0.073387
H106	H	2.504570	0.458189	0.573387
H107	H	1.995077	-0.051292	-0.073497
H108	H	2.495077	0.448708	0.426503
N109	N	1.470738	0.438164	0.000026
N110	N	1.970738	0.938164	0.500026
H111	H	1.464942	0.478978	-0.073389
H112	H	1.964942	0.978978	0.426611
H113	H	1.474325	0.488330	0.073494
H114	H	1.974325	0.988330	0.573494
H115	H	1.101036	-0.415045	-0.519670
H116	H	1.601036	0.084955	-0.019670
H117	H	1.105972	0.411846	0.000030
H118	H	1.605972	0.911846	0.500030
H119	H	1.030918	0.244717	0.000004
H120	H	1.530918	0.744717	0.500004
H121	H	1.053990	0.046253	-0.000028
H122	H	1.553990	0.546253	0.499972
N123	N	1.559864	-0.094057	-0.000028
N124	N	2.059864	0.405943	0.499972
H125	H	1.613045	-0.040386	-0.000035
H126	H	2.113045	0.459614	0.499965
H127	H	1.509899	-0.089392	-0.073450
H128	H	2.009899	0.410608	0.426550
H129	H	1.928019	-0.410210	-0.000024
H130	H	2.428019	0.089790	0.499976
H131	H	1.385997	-0.130265	-0.706556
H132	H	1.885997	0.369735	-0.206556
N133	N	1.726986	-0.019008	-0.000025
N134	N	2.226986	0.480992	0.499975
H135	H	1.780164	0.034667	-0.000021
H136	H	2.280164	0.534667	0.499979
H137	H	1.677021	-0.014335	-0.073445
H138	H	2.177021	0.485665	0.426555
H139	H	1.348320	-0.167908	-0.293429
H140	H	1.848320	0.332092	0.206571
H141	H	1.153207	-0.362910	-0.706644
H142	H	1.653207	0.137090	-0.206644
N143	N	1.099626	-0.416457	-0.277028
N144	N	1.599626	0.083543	0.222972
H145	H	1.115026	-0.401065	-0.188592
H146	H	1.615026	0.098935	0.311408
H147	H	1.022770	-0.398392	-0.298830
H148	H	1.522770	0.101608	0.201170
