data_functionalizedCrystal
_audit_creation_method	'MofGen! by Chris Wilmer'
_symmetry_space_group_name_H-M	'P1'
_symmetry_Int_Tables_number	1
_symmetry_cell_setting	triclinic
loop_
_symmetry_equiv_pos_as_xyz
  x,y,z
_cell_length_a	13.330367
_cell_length_b	19.288864
_cell_length_c	19.288865
_cell_angle_alpha	96.863755
_cell_angle_beta	90.009880
_cell_angle_gamma	89.978603
loop_
_atom_site_label
_atom_site_type_symbol
_atom_site_fract_x
_atom_site_fract_y
_atom_site_fract_z
O1	O	0.083757	-0.921351	0.086647
O2	O	0.583757	-0.421351	0.586647
O3	O	0.083690	-0.719091	0.098336
O4	O	0.583690	-0.219091	0.598336
O5	O	0.083705	-0.826065	-0.008639
O6	O	0.583705	-0.326065	0.491361
O7	O	0.083741	-0.814377	0.193622
O8	O	0.583741	-0.314377	0.693622
O9	O	-0.083142	-0.826050	-0.008641
O10	O	0.416858	-0.326050	0.491359
O11	O	-0.083158	-0.719075	0.098334
O12	O	0.416842	-0.219075	0.598334
O13	O	-0.083091	-0.921336	0.086645
O14	O	0.416909	-0.421336	0.586645
Cu15	Cu	-0.098359	-0.820204	0.092489
Cu16	Cu	0.401641	-0.320204	0.592489
Cu17	Cu	0.098958	-0.820223	0.092492
Cu18	Cu	0.598958	-0.320223	0.592492
O19	O	-0.083106	-0.814361	0.193620
O20	O	0.416894	-0.314361	0.693620
C21	C	0.000257	-0.693207	0.097959
C22	C	0.500257	-0.193207	0.597959
C23	C	0.000231	-0.616103	0.096830
C24	C	0.500231	-0.116103	0.596830
N25	N	-0.237140	-0.820196	0.092487
N26	N	0.262860	-0.320196	0.592487
C27	C	0.000278	-0.825682	-0.034516
C28	C	0.500278	-0.325682	0.465484
C29	C	0.000269	-0.824553	-0.111620
C30	C	0.500269	-0.324553	0.388380
C31	C	-0.709770	-0.772852	0.139842
C32	C	-0.209770	-0.272852	0.639842
C33	C	-0.709724	-0.867612	0.045136
C34	C	-0.209724	-0.367612	0.545136
C35	C	-0.604706	-0.867604	0.045134
C36	C	-0.104706	-0.367604	0.545134
C37	C	-0.552215	-0.820220	0.092487
C38	C	-0.052215	-0.320220	0.592487
C39	C	-0.604742	-0.772844	0.139842
C40	C	-0.104742	-0.272844	0.639842
C41	C	-0.552171	-0.914983	-0.002215
C42	C	-0.052171	-0.414983	0.497785
C43	C	-0.447146	-0.914978	-0.002219
C44	C	0.052854	-0.414978	0.497781
C45	C	-0.394653	-0.867590	0.045132
C46	C	0.105347	-0.367590	0.545132
C47	C	-0.447186	-0.820212	0.092488
C48	C	0.052814	-0.320212	0.592488
C49	C	-0.394695	-0.772829	0.139841
C50	C	0.105305	-0.272829	0.639841
C51	C	-0.447227	-0.725446	0.187195
C52	C	0.052773	-0.225446	0.687195
C53	C	-0.552249	-0.725457	0.187193
C54	C	-0.052249	-0.225457	0.687193
C55	C	-0.289631	-0.867580	0.045134
C56	C	0.210369	-0.367580	0.545134
C57	C	-0.289667	-0.772821	0.139842
C58	C	0.210333	-0.272821	0.639842
N59	N	0.237739	-0.820236	0.092489
N60	N	0.737739	-0.320236	0.592489
C61	C	0.000344	-0.947220	0.087022
C62	C	0.500344	-0.447220	0.587022
C63	C	0.000377	-1.024324	0.088151
C64	C	0.500377	-0.524324	0.588151
C65	C	0.000258	-0.571407	0.159598
C66	C	0.500258	-0.071407	0.659598
C67	C	0.000268	-0.498960	0.158537
C68	C	0.500268	0.001040	0.658537
C69	C	0.000273	-0.471212	0.094705
C70	C	0.500273	0.028788	0.594705
C71	C	0.000240	-0.515918	0.031929
C72	C	0.500240	-0.015918	0.531929
C73	C	0.000219	-0.588364	0.032991
C74	C	0.500219	-0.088364	0.532991
C75	C	0.058751	-0.362956	0.044526
C76	C	0.558751	0.137044	0.544526
C77	C	0.058779	-0.290511	0.043467
C78	C	0.558779	0.209489	0.543467
C79	C	0.000333	-0.247767	0.091425
C80	C	0.500333	0.252233	0.591425
C81	C	-0.058127	-0.277474	0.140455
C82	C	0.441873	0.222526	0.640455
C83	C	-0.058148	-0.349919	0.141518
C84	C	0.441852	0.150081	0.641518
C85	C	0.000295	-0.392658	0.093546
C86	C	0.500295	0.107342	0.593546
C87	C	0.000370	-0.124514	0.153047
C88	C	0.500370	0.375486	0.653047
C89	C	0.000375	-0.052066	0.151984
C90	C	0.500375	0.447934	0.651984
C91	C	0.000356	-0.069026	0.025374
C92	C	0.500356	0.430974	0.525374
C93	C	0.000342	-0.141473	0.026439
C94	C	0.500342	0.358527	0.526439
C95	C	0.000353	-0.169212	0.090278
C96	C	0.500353	0.330788	0.590278
C97	C	0.000285	-0.887321	-0.156316
C98	C	0.500285	-0.387321	0.343684
C99	C	0.000301	-0.886260	-0.228763
C100	C	0.500301	-0.386260	0.271237
C101	C	0.000280	-0.822428	-0.256511
C102	C	0.500280	-0.322428	0.243489
C103	C	0.000270	-0.759652	-0.211805
C104	C	0.500270	-0.259652	0.288195
C105	C	0.000264	-0.760714	-0.139359
C106	C	0.500264	-0.260714	0.360641
C107	C	-0.058179	-0.772243	-0.364799
C108	C	0.441821	-0.272243	0.135201
C109	C	-0.058180	-0.771183	-0.437244
C110	C	0.441820	-0.271183	0.062756
C111	C	0.000302	-0.819148	-0.479956
C112	C	0.500302	-0.319148	0.020044
C113	C	0.058771	-0.868185	-0.450218
C114	C	0.558771	-0.368185	0.049782
C115	C	0.058766	-0.869247	-0.377772
C116	C	0.558766	-0.369247	0.122228
C117	C	0.000287	-0.821269	-0.335065
C118	C	0.500287	-0.321269	0.164935
C119	C	0.000336	-0.880770	-0.603209
C120	C	0.500336	-0.380770	-0.103209
C121	C	0.000357	-0.879707	-0.675657
C122	C	0.500357	-0.379707	-0.175657
C123	C	0.000317	-0.753097	-0.658697
C124	C	0.500317	-0.253097	-0.158697
C125	C	0.000305	-0.754162	-0.586250
C126	C	0.500305	-0.254162	-0.086250
C127	C	0.000310	-0.818001	-0.558511
C128	C	0.500310	-0.318001	-0.058511
C129	C	0.000323	-0.814745	0.219497
C130	C	0.500323	-0.314745	0.719497
C131	C	0.000339	-0.815874	0.296601
C132	C	0.500339	-0.315874	0.796601
H133	H	-0.246935	-0.734232	0.178400
H134	H	0.253065	-0.234232	0.678400
H135	H	0.000344	-0.932751	-0.580622
H136	H	0.500344	-0.432751	-0.080622
F137	F	0.000319	-0.953069	-0.276341
F138	F	0.500319	-0.453069	0.223659
F139	F	0.000294	-0.451382	0.225346
F140	F	0.500294	0.048618	0.725346
H141	H	-0.105784	-0.731251	-0.461451
H142	H	0.394216	-0.231251	0.038549
H143	H	-0.404477	-0.686869	0.225753
H144	H	0.095523	-0.186869	0.725753
F145	F	-0.608160	-0.675034	0.237587
F146	F	-0.108160	-0.175034	0.737587
H147	H	0.000365	-0.147101	0.205028
H148	H	0.500365	0.352899	0.705028
H149	H	0.000325	-0.177866	-0.024674
H150	H	0.500325	0.322134	0.475326
F151	F	-0.120367	-0.381534	0.193696
F152	F	0.379633	0.118466	0.693696
F153	F	0.000300	-0.685161	-0.688223
F154	F	0.500300	-0.185161	-0.188223
H155	H	0.000422	-0.046435	-0.026600
H156	H	0.500422	0.453565	0.473400
H157	H	-0.752544	-0.734272	0.178395
H158	H	-0.252544	-0.234272	0.678395
H159	H	0.106375	-0.909173	-0.353562
H160	H	0.606375	-0.409173	0.146438
F161	F	0.000284	-0.687355	-0.538679
F162	F	0.500284	-0.187355	-0.038679
F163	F	0.121005	-0.258900	-0.008709
F164	F	0.621005	0.241100	0.491291
F165	F	-0.765588	-0.918043	-0.005254
F166	F	-0.265588	-0.418043	0.494746
F167	F	0.120961	-0.408441	-0.006522
F168	F	0.620961	0.091559	0.493478
F169	F	-0.120334	-0.231988	0.191501
F170	F	0.379666	0.268012	0.691501
F171	F	0.000381	-0.946517	-0.723227
F172	F	0.500381	-0.446517	-0.223227
F173	F	0.000398	-0.004496	0.218794
F174	F	0.500398	0.495504	0.718794
F175	F	0.000255	-0.691717	-0.241336
F176	F	0.500255	-0.191717	0.258664
F177	F	-0.120430	-0.721189	-0.319347
F178	F	0.379570	-0.221189	0.180653
H179	H	0.000257	-0.493322	-0.020044
H180	H	0.500257	0.006678	0.479956
F181	F	-0.608035	-0.965414	-0.052605
F182	F	-0.108035	-0.465414	0.447395
F183	F	0.000248	-0.693905	-0.091788
F184	F	0.500248	-0.193905	0.408212
H185	H	0.106393	-0.907243	-0.484993
H186	H	0.606393	-0.407243	0.015007
H187	H	-0.404381	-0.953558	-0.040777
H188	H	0.095619	-0.453558	0.459223
H189	H	0.000269	-0.593987	0.211580
H190	H	0.500269	-0.093987	0.711580
F191	F	0.000190	-0.635935	-0.033818
F192	F	0.500190	-0.135935	0.466182
H193	H	-0.246865	-0.906161	0.006582
H194	H	0.253135	-0.406161	0.506582
H195	H	0.000293	-0.939303	-0.133736
H196	H	0.500293	-0.439303	0.366264
