data_functionalizedCrystal
_audit_creation_method	'MofGen! by Chris Wilmer'
_symmetry_space_group_name_H-M	'P1'
_symmetry_Int_Tables_number	1
_symmetry_cell_setting	triclinic
loop_
_symmetry_equiv_pos_as_xyz
  x,y,z
_cell_length_a	27.440280
_cell_length_b	27.440280
_cell_length_c	18.878441
_cell_angle_alpha	90.002267
_cell_angle_beta	59.991714
_cell_angle_gamma	60.007024
loop_
_atom_site_label
_atom_site_type_symbol
_atom_site_fract_x
_atom_site_fract_y
_atom_site_fract_z
Zr1	Zr	0.533358	0.469580	-0.092941
O2	O	0.635034	0.391778	-0.206075
O3	O	0.431689	0.493421	-0.058251
O4	O	0.533357	0.493437	-0.206043
O5	O	0.533365	0.391760	0.058289
O6	O	0.533347	0.573640	-0.206028
O7	O	0.533367	0.391761	-0.058282
O8	O	0.351482	0.573610	0.058345
O9	O	0.715230	0.391789	-0.206085
O10	O	0.473497	0.563455	-0.043456
O11	O	0.473503	0.503600	0.043529
O12	O	0.593204	0.503619	-0.130477
O13	O	0.593209	0.443764	-0.043493
Zr14	Zr	0.533341	0.597492	0.092999
Zr15	Zr	0.533343	0.597495	-0.092918
Zr16	Zr	0.533356	0.469578	0.092976
Zr17	Zr	0.661261	0.469599	-0.092957
Zr18	Zr	0.405438	0.597474	0.093016
O19	O	0.635010	0.573652	0.058309
O20	O	0.635013	0.573655	-0.206041
O21	O	0.635031	0.391774	0.058276
O22	O	0.431664	0.675295	0.206133
O23	O	0.431668	0.675298	-0.058218
O24	O	0.431685	0.493418	0.206100
O25	O	0.533333	0.675313	-0.058231
O26	O	0.533342	0.573635	0.206101
O27	O	0.533351	0.493432	0.206087
O28	O	0.533332	0.675312	0.058340
O29	O	0.715218	0.493464	-0.206066
O30	O	0.351480	0.573609	0.206125
O31	O	0.351468	0.675283	0.206143
O32	O	0.351470	0.675285	0.058364
O33	O	0.715228	0.391788	-0.058305
O34	O	0.715216	0.493462	-0.058287
O35	O	0.473495	0.563453	0.130536
O36	O	0.473489	0.623309	0.043551
O37	O	0.593195	0.563473	-0.043471
O38	O	0.593201	0.503617	0.043514
C39	C	0.373362	0.533513	0.000050
C40	C	0.319064	0.533505	0.000056
C41	C	0.533368	0.373535	-0.000000
C42	C	0.533374	0.319232	-0.000010
C43	C	0.040175	0.577719	0.064266
C44	C	0.091197	0.577714	0.064270
O45	O	0.080015	0.615293	0.118881
N46	N	0.160894	0.533531	0.000039
C47	C	0.179569	0.489353	-0.064204
O48	O	0.243537	0.451772	-0.118838
C49	C	0.128547	0.489362	-0.064210
C50	C	0.058850	0.533544	0.000030
C51	C	-0.029519	0.621899	0.128501
C52	C	-0.080537	0.621904	0.128498
C53	C	-0.061862	0.577729	0.064261
C54	C	0.007832	0.533549	0.000027
C55	C	0.147223	0.445187	-0.128457
C56	C	0.096194	0.445200	-0.128458
C57	C	0.026497	0.489383	-0.064218
C58	C	-0.024511	0.489379	-0.064213
N59	N	-0.094208	0.533562	0.000018
C60	C	-0.112883	0.577737	0.064255
C61	C	0.286714	0.489339	-0.064187
C62	C	0.337735	0.489328	-0.064178
C63	C	0.249359	0.577690	0.064295
C64	C	0.198338	0.577698	0.064289
C65	C	0.217017	0.533523	0.000043
C66	C	-0.220022	0.577743	0.064245
C67	C	-0.271041	0.577743	0.064239
C68	C	-0.182661	0.489383	-0.064237
C69	C	-0.131646	0.489382	-0.064228
C70	C	-0.150332	0.533567	0.000017
O71	O	-0.013381	0.451820	-0.118798
O72	O	-0.176851	0.615317	0.118873
C73	C	0.470852	0.013768	0.045478
C74	C	0.470848	-0.037250	0.045485
O75	O	0.417707	-0.037075	0.084143
N76	N	0.533333	-0.094001	0.000060
C77	C	0.595826	-0.099732	-0.045369
O78	O	0.648974	-0.152687	-0.084005
C79	C	0.595829	-0.048714	-0.045371
C80	C	0.533340	0.008036	0.000050
C81	C	0.408368	0.070516	0.090896
C82	C	0.408372	0.121530	0.090887
C83	C	0.470860	0.115798	0.045459
C84	C	0.533344	0.059051	0.000041
C85	C	0.658321	-0.054446	-0.090794
C86	C	0.658319	-0.003422	-0.090792
C87	C	0.595830	0.053328	-0.045371
C88	C	0.595836	0.104333	-0.045396
N89	N	0.533351	0.161083	0.000030
C90	C	0.470863	0.166816	0.045457
C91	C	0.595815	-0.206871	-0.045360
C92	C	0.595813	-0.257888	-0.045363
C93	C	0.470835	-0.195402	0.045492
C94	C	0.470838	-0.144385	0.045490
C95	C	0.533330	-0.150120	0.000066
C96	C	0.470877	0.273948	0.045434
C97	C	0.470886	0.324965	0.045418
C98	C	0.595864	0.262475	-0.045434
C99	C	0.595855	0.211463	-0.045422
C100	C	0.533356	0.217203	0.000018
O101	O	0.648951	0.104204	-0.084031
O102	O	0.417725	0.219773	0.084096
C103	C	0.693336	0.533560	0.000009
C104	C	0.747634	0.533568	0.000002
C105	C	0.533352	0.533539	-0.232525
C106	C	0.533353	0.533540	-0.311452
C107	C	0.533330	0.693537	0.000058
C108	C	0.533324	0.747840	0.000068
C109	C	0.533349	0.489349	-0.651416
C110	C	0.533347	0.489352	-0.577255
C111	C	0.533345	0.533537	-0.540172
C112	C	0.533339	0.577725	-0.577250
C113	C	0.533336	0.577724	-0.651406
C114	C	0.533345	0.577723	-0.422686
C115	C	0.533349	0.577724	-0.348525
C116	C	0.533356	0.489351	-0.348535
C117	C	0.533354	0.489350	-0.422691
C118	C	0.533348	0.533538	-0.459764
C119	C	0.533346	0.533534	0.232583
C120	C	0.533345	0.533533	0.311510
C121	C	0.373343	0.693514	0.000079
C122	C	0.319039	0.747809	0.000095
C123	C	0.373359	0.533510	0.232604
C124	C	0.319060	0.533501	0.311537
C125	C	0.373340	0.693511	0.232633
C126	C	0.319035	0.747805	0.311576
C127	C	0.693358	0.373561	-0.232575
C128	C	0.747664	0.319267	-0.311518
C129	C	0.693355	0.373559	-0.000020
C130	C	0.747660	0.319264	-0.000037
C131	C	0.693339	0.533563	-0.232545
C132	C	0.747639	0.533571	-0.311479
C133	C	0.293541	0.742064	-0.045321
C134	C	0.242523	0.793075	-0.045322
C135	C	0.217001	0.849831	0.000098
C136	C	0.242503	0.855575	0.045516
C137	C	0.293524	0.804564	0.045512
C138	C	0.293556	0.564740	0.394030
C139	C	0.242544	0.564729	0.468203
C140	C	0.217032	0.533483	0.459883
C141	C	0.242541	0.502241	0.377382
C142	C	0.293556	0.502248	0.303210
C143	C	0.293529	0.804552	0.303244
C144	C	0.242511	0.855572	0.377413
C145	C	0.216995	0.849844	0.459913
C146	C	0.242505	0.793091	0.468244
C147	C	0.293527	0.742073	0.394076
C148	C	0.773175	0.262521	-0.303186
C149	C	0.824210	0.211501	-0.377354
C150	C	0.849728	0.217229	-0.459855
C151	C	0.824215	0.273981	-0.468186
C152	C	0.773184	0.325000	-0.394018
C153	C	0.773163	0.325009	0.045371
C154	C	0.824195	0.273998	0.045353
C155	C	0.849719	0.217242	-0.000070
C156	C	0.824214	0.211498	-0.045485
C157	C	0.773186	0.262508	-0.045470
C158	C	0.773134	0.564824	-0.303131
C159	C	0.824147	0.564844	-0.377290
C160	C	0.849667	0.533608	-0.459797
C161	C	0.824167	0.502354	-0.468144
C162	C	0.773151	0.502338	-0.393985
H163	H	-0.327793	0.613722	0.116554
H164	H	0.314287	0.695869	0.400872
Cl165	Cl	0.741089	0.396353	0.102477
H166	H	0.844952	0.278687	0.082338
Cl167	Cl	0.913880	0.153084	-0.553088
Cl168	Cl	0.325615	0.604027	0.404513
Cl169	Cl	0.741061	0.604098	-0.199416
Cl170	Cl	0.210420	0.785901	0.571965
H171	H	0.314297	0.809227	0.236075
H172	H	0.221745	0.901777	0.370614
Cl173	Cl	0.152858	0.913953	0.000096
H174	H	-0.044737	0.657875	0.180811
H175	H	0.234161	0.613659	0.116600
Cl176	Cl	0.913867	0.153120	-0.000078
H177	H	0.533332	0.613703	-0.681590
H178	H	0.844904	0.590293	-0.370477
H179	H	0.175450	0.891391	0.520298
H180	H	0.752401	0.257846	-0.236017
Cl181	Cl	0.210407	0.926930	0.102616
H182	H	0.891208	0.533625	-0.520175
Cl183	Cl	0.856271	0.140163	-0.366862
Cl184	Cl	0.210460	0.462964	0.366936
Cl185	Cl	0.856300	0.281172	-0.571907
H186	H	0.845004	0.165281	-0.082467
Cl187	Cl	0.741127	0.255275	-0.102555
H188	H	0.844953	0.476923	-0.535331
Cl189	Cl	0.741113	0.463039	-0.404496
Cl190	Cl	0.325619	0.670720	-0.102432
H191	H	0.709207	-0.100646	-0.127780
H192	H	-0.235246	0.613723	0.116559
H193	H	0.175492	0.533482	0.520285
H194	H	0.221780	0.590173	0.535372
Cl195	Cl	0.325567	0.811798	0.102620
H196	H	-0.137285	0.657883	0.180807
Cl197	Cl	0.674413	0.140119	-0.102541
H198	H	0.314314	0.476812	0.236044
H199	H	0.141590	0.613676	0.116599
H200	H	0.111412	0.409228	-0.180777
Cl201	Cl	0.425351	0.433774	-0.144930
H202	H	0.752413	0.371204	-0.400812
H203	H	0.203967	0.409213	-0.180774
Cl204	Cl	0.310208	0.433795	-0.144955
Cl205	Cl	0.533362	0.433800	-0.469315
Cl206	Cl	0.533364	0.433801	-0.301927
H207	H	-0.074894	0.453390	-0.116517
Cl208	Cl	0.392305	0.281173	0.102557
Cl209	Cl	0.533351	0.433806	-0.530646
Cl210	Cl	0.392323	0.396307	0.102521
Cl211	Cl	0.329810	0.192868	0.147998
Cl212	Cl	-0.159196	0.433850	-0.144985
Cl213	Cl	0.329801	0.077737	0.148014
H214	H	0.419953	-0.190743	0.082479
Cl215	Cl	0.392277	-0.073046	0.102595
H216	H	0.221765	0.788386	-0.082307
Cl217	Cl	0.674385	-0.214090	-0.102480
Cl218	Cl	0.674373	-0.329226	-0.102479
H219	H	0.646740	0.257818	-0.082423
Cl220	Cl	0.736886	-0.010638	-0.147899
H221	H	0.533346	0.613704	-0.318336
Cl222	Cl	0.533336	0.633277	-0.469288
Cl223	Cl	0.533357	0.433796	-0.698030
H224	H	0.533333	0.613704	-0.547050
