data_functionalizedCrystal
_audit_creation_method	'MofGen! by Chris Wilmer'
_symmetry_space_group_name_H-M	'P1'
_symmetry_Int_Tables_number	1
_symmetry_cell_setting	triclinic
loop_
_symmetry_equiv_pos_as_xyz
  x,y,z
_cell_length_a	10.686220
_cell_length_b	19.121459
_cell_length_c	10.686551
_cell_angle_alpha	82.976666
_cell_angle_beta	90.307919
_cell_angle_gamma	92.155268
loop_
_atom_site_label
_atom_site_type_symbol
_atom_site_fract_x
_atom_site_fract_y
_atom_site_fract_z
Zn1	Zn	1.984281	-0.171312	-0.548339
Zn2	Zn	2.484281	0.328688	-0.048339
Zn3	Zn	1.976955	-0.298499	-0.328148
Zn4	Zn	2.476955	0.201501	0.171852
Zn5	Zn	1.759658	-0.189288	-0.353182
Zn6	Zn	2.259658	0.310712	0.146818
Zn7	Zn	1.783286	-0.297075	-0.554041
Zn8	Zn	2.283286	0.202925	-0.054041
O9	O	1.876045	-0.239043	-0.445927
O10	O	2.376045	0.260957	0.054073
O11	O	2.158366	-0.181256	-0.506267
O12	O	2.658366	0.318744	-0.006267
O13	O	1.935176	-0.292130	-0.155257
O14	O	2.435176	0.207870	0.344743
O15	O	1.782632	-0.088566	-0.387160
O16	O	2.282632	0.411434	0.112840
O17	O	2.152984	-0.274700	-0.344493
O18	O	2.652984	0.225300	0.155507
O19	O	1.947661	-0.075359	-0.530542
O20	O	2.447661	0.424641	-0.030542
O21	O	1.775528	-0.211894	-0.173649
O22	O	2.275528	0.288106	0.326351
O23	O	1.587735	-0.210513	-0.392689
O24	O	2.087735	0.289487	0.107311
O25	O	1.822902	-0.272273	-0.729497
O26	O	2.322902	0.227727	-0.229497
O27	O	1.605094	-0.289704	-0.540260
O28	O	2.105094	0.210296	-0.040260
O29	O	1.970572	-0.179876	-0.725307
O30	O	2.470572	0.320124	-0.225307
O31	O	1.958087	-0.396647	-0.350022
O32	O	2.458087	0.103353	0.149978
O33	O	1.815799	-0.395601	-0.515986
O34	O	2.315799	0.104399	-0.015986
C35	C	1.551024	-0.251905	-0.469811
C36	C	2.051024	0.248095	0.030189
C37	C	1.411983	-0.257423	-0.480056
C38	C	1.911983	0.242577	0.019944
C39	C	1.888748	-0.421619	-0.430931
C40	C	2.388748	0.078381	0.069069
C41	C	1.894300	-0.499719	-0.424549
C42	C	2.394300	0.000281	0.075451
C43	C	1.929444	-0.941465	-0.384089
C44	C	2.429444	-0.441465	0.115911
C45	C	1.924216	-0.868082	-0.390089
C46	C	2.424216	-0.368082	0.109911
C47	C	1.847460	-0.830879	-0.479440
C48	C	2.347460	-0.330879	0.020560
C49	C	1.775917	-0.867063	-0.562788
C50	C	2.275917	-0.367063	-0.062788
C51	C	1.781138	-0.940445	-0.556781
C52	C	2.281138	-0.440445	-0.056781
C53	C	1.827978	-0.609286	-0.501891
C54	C	2.327978	-0.109286	-0.001891
C55	C	1.822765	-0.535899	-0.507893
C56	C	2.322765	-0.035899	-0.007893
C57	C	1.971063	-0.536922	-0.335192
C58	C	2.471063	-0.036922	0.164808
C59	C	1.976284	-0.610306	-0.329199
C60	C	2.476284	-0.110306	0.170801
C61	C	1.904736	-0.646484	-0.412542
C62	C	2.404736	-0.146484	0.087458
C63	C	1.842118	-0.755869	-0.485578
C64	C	2.342118	-0.255869	0.014422
C65	C	1.910072	-0.721493	-0.406398
C66	C	2.410072	-0.221493	0.093602
C67	C	2.202334	-0.226132	-0.421952
C68	C	2.702334	0.273868	0.078048
C69	C	2.341380	-0.220629	-0.411735
C70	C	2.841380	0.279371	0.088265
C71	C	1.900190	-0.223910	-0.774369
C72	C	2.400190	0.276090	-0.274369
C73	C	1.910479	-0.217462	-0.914331
C74	C	2.410479	0.282538	-0.414331
C75	C	1.863328	-0.055752	-0.461007
C76	C	2.363328	0.444248	0.038993
C77	C	1.857909	0.022356	-0.467434
C78	C	2.357909	0.522356	0.032566
C79	C	1.852062	-0.254064	-0.118762
C80	C	2.352062	0.245936	0.381238
C81	C	1.842001	-0.260305	0.021201
C82	C	2.342001	0.239695	0.521201
H83	H	1.366058	-0.293147	-0.546386
H84	H	1.866058	0.206853	-0.046386
N85	N	2.054699	-0.648288	-0.237915
N86	N	2.554699	-0.148288	0.262085
N87	N	2.037383	-0.645793	-0.122985
N88	N	2.537383	-0.145793	0.377015
H89	H	2.092774	-0.672615	-0.058519
H90	H	2.592774	-0.172615	0.441481
H91	H	1.982464	-0.838625	-0.322223
H92	H	2.482464	-0.338625	0.177777
N93	N	1.399006	-0.175822	-0.328508
N94	N	1.899006	0.324178	0.171492
N95	N	1.515662	-0.171255	-0.320013
N96	N	2.015662	0.328745	0.179987
H97	H	1.556364	-0.139611	-0.261234
H98	H	2.056364	0.360389	0.238766
H99	H	1.991954	-0.971750	-0.311336
H100	H	2.491954	-0.471750	0.188664
H101	H	2.029313	-0.507459	-0.267337
H102	H	2.529313	-0.007459	0.232663
H103	H	1.976988	-0.175848	-0.966219
H104	H	2.476988	0.324152	-0.466219
H105	H	1.760258	-0.505611	-0.580659
H106	H	2.260258	-0.005611	-0.080659
N107	N	1.754885	-0.646233	-0.587015
N108	N	2.254885	-0.146233	-0.087015
N109	N	1.638261	-0.643052	-0.587720
N110	N	2.138261	-0.143052	-0.087720
H111	H	1.586633	-0.669147	-0.647844
H112	H	2.086633	-0.169147	-0.147844
N113	N	1.697504	-0.829054	-0.654039
N114	N	2.197504	-0.329054	-0.154039
N115	N	1.692849	-0.763535	-0.659391
N116	N	2.192849	-0.263535	-0.159391
H117	H	1.637469	-0.736690	-0.723839
H118	H	2.137469	-0.236690	-0.223839
H119	H	1.722894	-0.969901	-0.624655
H120	H	2.222894	-0.469901	-0.124655
N121	N	1.988453	-0.759495	-0.315114
N122	N	2.488453	-0.259495	0.184886
N123	N	1.941506	-0.805917	-0.234717
N124	N	2.441506	-0.305917	0.265283
H125	H	1.996864	-0.832762	-0.170248
H126	H	2.496864	-0.332762	0.329752
H127	H	1.779623	-0.725572	-0.558331
H128	H	2.279623	-0.225572	-0.058331
H129	H	1.775505	-0.301920	-0.926917
H130	H	2.275505	0.198080	-0.426917
