data_functionalizedCrystal
_audit_creation_method	'MofGen! by Chris Wilmer'
_symmetry_space_group_name_H-M	'P1'
_symmetry_Int_Tables_number	1
_symmetry_cell_setting	triclinic
loop_
_symmetry_equiv_pos_as_xyz
  x,y,z
_cell_length_a	17.699104
_cell_length_b	11.792254
_cell_length_c	16.176319
_cell_angle_alpha	89.993043
_cell_angle_beta	89.991696
_cell_angle_gamma	83.745057
loop_
_atom_site_label
_atom_site_type_symbol
_atom_site_fract_x
_atom_site_fract_y
_atom_site_fract_z
O1	O	1.004839	0.143639	-0.068764
O2	O	0.784563	0.162287	-0.068762
O3	O	0.900041	-0.012270	-0.068757
O4	O	0.889360	0.318196	-0.068768
O5	O	0.900025	-0.012281	0.068736
O6	O	0.784546	0.162276	0.068731
O7	O	1.004823	0.143628	0.068730
Cu8	Cu	0.894683	0.152951	0.081285
Cu9	Cu	0.894702	0.152964	-0.081317
O10	O	0.889344	0.318185	0.068725
C11	C	0.756354	0.161609	-0.000015
C12	C	0.672326	0.159593	-0.000014
C13	C	0.147943	0.250681	-0.000026
C14	C	0.226897	0.252569	-0.000028
C15	C	0.274965	0.150097	-0.000024
C16	C	0.244076	0.045730	-0.000027
C17	C	0.165124	0.043844	-0.000030
C18	C	0.562483	0.053338	-0.000014
C19	C	0.641440	0.055233	-0.000008
C20	C	0.624257	0.262063	-0.000012
C21	C	0.545304	0.260176	-0.000015
C22	C	0.514422	0.155810	-0.000022
C23	C	0.428811	0.153764	-0.000021
C24	C	0.360575	0.152142	-0.000020
C25	C	0.899360	-0.054558	-0.000011
C26	C	0.897346	-0.180548	-0.000011
C27	C	0.895710	-0.282865	-0.000014
C28	C	0.893664	-0.411227	-0.000022
C29	C	1.033031	0.144305	-0.000019
C30	C	1.117059	0.146322	-0.000025
C31	C	0.890025	0.360473	-0.000023
C32	C	0.892039	0.486462	-0.000028
N33	N	0.894675	0.152941	0.195650
N34	N	0.894716	0.152965	-0.195682
C35	C	0.945825	0.075678	0.238916
C36	C	0.945829	0.075677	0.325463
C37	C	0.894686	0.152945	0.368743
C38	C	0.843531	0.230211	0.325470
C39	C	0.843524	0.230206	0.238925
C40	C	0.843557	0.230232	0.674498
C41	C	0.843569	0.230233	0.761050
C42	C	0.945862	0.075704	0.761037
C43	C	0.945855	0.075698	0.674492
C44	C	0.894697	0.152960	0.631227
C45	C	0.894693	0.152959	0.537383
C46	C	0.894694	0.152952	0.462585
H47	H	0.537349	-0.031643	-0.000017
H48	H	0.987502	0.012784	0.639256
H49	H	0.649410	0.347043	-0.000010
H50	H	0.801872	0.293119	0.203698
C51	C	0.296949	-0.066992	-0.000024
C52	C	0.383794	-0.064923	-0.000017
C53	C	0.436665	-0.177648	-0.000013
C54	C	0.402691	-0.292441	-0.000016
C55	C	0.315841	-0.294515	-0.000023
C56	C	0.262970	-0.181790	-0.000028
H57	H	0.408948	0.020058	-0.000014
H58	H	0.500957	-0.176112	-0.000007
H59	H	0.441829	-0.375887	-0.000013
H60	H	0.290688	-0.379496	-0.000026
H61	H	0.198678	-0.183325	-0.000033
H62	H	0.987474	0.012763	0.203684
H63	H	0.108811	0.334125	-0.000023
C64	C	0.787304	0.315226	0.808660
C65	C	0.817233	0.401983	0.868137
C66	C	0.760973	0.486971	0.915747
C67	C	0.674783	0.485203	0.903880
C68	C	0.644850	0.398443	0.844400
C69	C	0.701110	0.313455	0.796790
H70	H	0.881040	0.403295	0.876924
H71	H	0.783132	0.551196	0.959778
H72	H	0.633136	0.548116	0.939124
H73	H	0.581043	0.397132	0.835613
H74	H	0.678951	0.249230	0.752759
H75	H	0.987478	0.012764	0.360690
C76	C	0.694318	-0.057494	-0.000011
C77	C	0.690540	-0.143092	0.071379
C78	C	0.743417	-0.255811	0.071377
C79	C	0.800072	-0.282931	-0.000015
C80	C	0.803853	-0.197331	-0.071411
C81	C	0.750976	-0.084612	-0.071409
H82	H	0.648598	-0.123017	0.124233
H83	H	0.740618	-0.319177	0.124229
H84	H	0.839215	-0.366373	-0.000017
H85	H	0.845795	-0.217406	-0.124265
H86	H	0.753775	-0.021245	-0.124261
H87	H	0.506170	0.343619	-0.000014
H88	H	0.252039	0.337548	-0.000036
H89	H	0.987515	0.012789	0.796273
C90	C	0.131147	-0.070952	-0.000026
C91	C	0.149073	-0.156018	0.071374
C92	C	0.115098	-0.270817	0.071374
C93	C	0.063196	-0.300550	-0.000026
C94	C	0.045267	-0.215482	-0.071432
C95	C	0.079243	-0.100683	-0.071432
H96	H	0.187497	-0.134010	0.124233
H97	H	0.128370	-0.333790	0.124233
H98	H	0.038045	-0.385531	-0.000026
H99	H	0.006844	-0.237490	-0.124291
H100	H	0.065970	-0.037710	-0.124291
C101	C	0.787272	0.315208	0.373073
C102	C	0.787312	0.315278	0.468269
C103	C	0.731053	0.400281	0.515869
C104	C	0.674754	0.485215	0.468272
C105	C	0.674712	0.485149	0.373070
C106	C	0.730971	0.400146	0.325470
H107	H	0.828989	0.252402	0.503508
H108	H	0.731084	0.400329	0.586344
H109	H	0.633108	0.548139	0.503508
H110	H	0.633035	0.548025	0.337831
H111	H	0.730940	0.400097	0.254995
H112	H	0.801904	0.293143	0.639279
