data_functionalizedCrystal
_audit_creation_method	'MofGen! by Chris Wilmer'
_symmetry_space_group_name_H-M	'P1'
_symmetry_Int_Tables_number	1
_symmetry_cell_setting	triclinic
loop_
_symmetry_equiv_pos_as_xyz
  x,y,z
_cell_length_a	17.077404
_cell_length_b	16.120444
_cell_length_c	16.120256
_cell_angle_alpha	84.383140
_cell_angle_beta	87.120369
_cell_angle_gamma	92.924506
loop_
_atom_site_label
_atom_site_type_symbol
_atom_site_fract_x
_atom_site_fract_y
_atom_site_fract_z
Zn1	Zn	1.159632	-0.356807	0.489439
Zn2	Zn	1.409632	-0.106807	0.739439
Zn3	Zn	1.659632	0.143193	0.989439
Zn4	Zn	1.909632	0.393193	1.239439
Zn5	Zn	1.159531	-0.489494	0.356750
Zn6	Zn	1.409531	-0.239494	0.606750
Zn7	Zn	1.659531	0.010506	0.856750
Zn8	Zn	1.909531	0.260506	1.106750
Zn9	Zn	1.035374	-0.349734	0.349686
Zn10	Zn	1.285374	-0.099734	0.599686
Zn11	Zn	1.535374	0.150266	0.849686
Zn12	Zn	1.785374	0.400266	1.099686
Zn13	Zn	1.021316	-0.496534	0.496476
Zn14	Zn	1.271316	-0.246534	0.746476
Zn15	Zn	1.521316	0.003466	0.996476
Zn16	Zn	1.771316	0.253466	1.246476
O17	O	1.093963	-0.423142	0.423088
O18	O	1.343963	-0.173142	0.673088
O19	O	1.593963	0.076858	0.923088
O20	O	1.843963	0.326858	1.173088
O21	O	1.269464	-0.374422	0.471848
O22	O	1.519464	-0.124422	0.721848
O23	O	1.769464	0.125578	0.971848
O24	O	2.019464	0.375578	1.221848
O25	O	1.148902	-0.465048	0.238850
O26	O	1.398902	-0.215048	0.488850
O27	O	1.648902	0.034952	0.738850
O28	O	1.898902	0.284952	0.988850
O29	O	1.057782	-0.233707	0.362323
O30	O	1.307782	0.016293	0.612323
O31	O	1.557782	0.266293	0.862323
O32	O	1.807782	0.516293	1.112323
O33	O	1.269390	-0.471906	0.374363
O34	O	1.519390	-0.221906	0.624363
O35	O	1.769390	0.028094	0.874363
O36	O	2.019390	0.278094	1.124363
O37	O	1.149074	-0.238903	0.464999
O38	O	1.399074	0.011097	0.714999
O39	O	1.649074	0.261097	0.964999
O40	O	1.899074	0.511097	1.214999
O41	O	1.057684	-0.362367	0.233661
O42	O	1.307684	-0.112367	0.483661
O43	O	1.557684	0.137633	0.733661
O44	O	1.807684	0.387633	0.983661
O45	O	0.923663	-0.369194	0.369147
O46	O	1.173663	-0.119194	0.619147
O47	O	1.423663	0.130806	0.869147
O48	O	1.673663	0.380806	1.119147
O49	O	1.033823	-0.483905	0.612505
O50	O	1.283823	-0.233905	0.862505
O51	O	1.533823	0.016095	1.112505
O52	O	1.783823	0.266095	1.362505
O53	O	0.913335	-0.477047	0.476993
O54	O	1.163335	-0.227047	0.726993
O55	O	1.413335	0.022953	0.976993
O56	O	1.663335	0.272953	1.226993
O57	O	1.135443	-0.381249	0.607335
O58	O	1.385443	-0.131249	0.857335
O59	O	1.635443	0.118751	1.107335
O60	O	1.885443	0.368751	1.357335
O61	O	1.135271	-0.607393	0.381187
O62	O	1.385271	-0.357393	0.631187
O63	O	1.635271	-0.107393	0.881187
O64	O	1.885271	0.142607	1.131187
O65	O	1.033725	-0.612566	0.483843
O66	O	1.283725	-0.362566	0.733843
O67	O	1.533725	-0.112566	0.983843
O68	O	1.783725	0.137434	1.233843
C69	C	0.890017	-0.423118	0.423068
C70	C	1.140017	-0.173118	0.673068
C71	C	1.390017	0.076882	0.923068
C72	C	1.640017	0.326882	1.173068
C73	C	0.802766	-0.423128	0.423080
C74	C	1.052766	-0.173128	0.673080
C75	C	1.302766	0.076872	0.923080
C76	C	1.552766	0.326872	1.173080
C77	C	0.761807	-0.372468	0.473928
C78	C	1.011807	-0.122468	0.723928
C79	C	1.261807	0.127532	0.973928
C80	C	1.511807	0.377532	1.223928
C81	C	0.679826	-0.372473	0.473932
C82	C	0.929826	-0.122473	0.723932
C83	C	1.179826	0.127527	0.973932
C84	C	1.429826	0.377527	1.223932
C85	C	0.638806	-0.423144	0.423092
C86	C	0.888806	-0.173144	0.673092
C87	C	1.138806	0.076856	0.923092
C88	C	1.388806	0.326856	1.173092
C89	C	0.679771	-0.473807	0.372239
C90	C	0.929771	-0.223807	0.622239
C91	C	1.179771	0.026193	0.872239
C92	C	1.429771	0.276193	1.122239
C93	C	0.761751	-0.473797	0.372231
C94	C	1.011751	-0.223797	0.622231
C95	C	1.261751	0.026203	0.872231
C96	C	1.511751	0.276203	1.122231
C97	C	0.508899	-0.473827	0.372261
C98	C	0.758899	-0.223827	0.622261
C99	C	1.008899	0.026173	0.872261
C100	C	1.258899	0.276173	1.122261
C101	C	0.426914	-0.473839	0.372270
C102	C	0.676914	-0.223839	0.622270
C103	C	0.926914	0.026161	0.872270
C104	C	1.176914	0.276161	1.122270
C105	C	0.426974	-0.372504	0.473961
C106	C	0.676974	-0.122504	0.723961
C107	C	0.926974	0.127496	0.973961
C108	C	1.176974	0.377496	1.223961
C109	C	0.508954	-0.372493	0.473953
C110	C	0.758954	-0.122493	0.723953
C111	C	1.008954	0.127507	0.973953
C112	C	1.258954	0.377507	1.223953
C113	C	0.549914	-0.423157	0.423101
C114	C	0.799914	-0.173157	0.673101
C115	C	1.049914	0.076843	0.923101
C116	C	1.299914	0.326843	1.173101
C117	C	1.082982	-0.640308	0.434063
C118	C	1.332982	-0.390308	0.684063
C119	C	1.582982	-0.140308	0.934063
C120	C	1.832982	0.109692	1.184063
C121	C	1.078355	-0.733214	0.438786
C122	C	1.328355	-0.483214	0.688786
C123	C	1.578355	-0.233214	0.938786
C124	C	1.828355	0.016786	1.188786
C125	C	1.118150	-0.942124	0.398766
C126	C	1.368150	-0.692124	0.648766
C127	C	1.618150	-0.442124	0.898766
C128	C	1.868150	-0.192124	1.148766
C129	C	1.069921	-0.903309	0.447419
C130	C	1.319921	-0.653309	0.697419
C131	C	1.569921	-0.403309	0.947419
C132	C	1.819921	-0.153309	1.197419
C133	C	1.074615	-0.808660	0.442614
C134	C	1.324615	-0.558660	0.692614
C135	C	1.574615	-0.308660	0.942614
C136	C	1.824615	-0.058660	1.192614
C137	C	1.113457	-1.036783	0.403569
C138	C	1.363457	-0.786783	0.653569
C139	C	1.613457	-0.536783	0.903569
C140	C	1.863457	-0.286783	1.153569
C141	C	1.298705	-0.423168	0.423108
C142	C	1.548705	-0.173168	0.673108
C143	C	1.798705	0.076832	0.923108
C144	C	2.048705	0.326832	1.173108
C145	C	1.385954	-0.423178	0.423117
C146	C	1.635954	-0.173178	0.673117
C147	C	1.885954	0.076822	0.923117
C148	C	2.135954	0.326822	1.173117
C149	C	1.083076	-0.434151	0.641095
C150	C	1.333076	-0.184151	0.891095
C151	C	1.583076	0.065849	1.141095
C152	C	1.833076	0.315849	1.391095
C153	C	1.078437	-0.438843	0.733997
C154	C	1.328437	-0.188843	0.983997
C155	C	1.578437	0.061157	1.233997
C156	C	1.828437	0.311157	1.483997
C157	C	1.105007	-0.205129	0.412088
C158	C	1.355007	0.044871	0.662088
C159	C	1.605007	0.294871	0.912088
C160	C	1.855007	0.544871	1.162088
C161	C	1.109714	-0.112225	0.407401
C162	C	1.359714	0.137775	0.657401
C163	C	1.609714	0.387775	0.907401
C164	C	1.859714	0.637775	1.157401
C165	C	1.104856	-0.412116	0.205926
C166	C	1.354856	-0.162116	0.455926
C167	C	1.604856	0.087884	0.705926
C168	C	1.854856	0.337884	0.955926
C169	C	1.109659	-0.407189	0.113012
C170	C	1.359659	-0.157189	0.363012
C171	C	1.609659	0.092811	0.613012
C172	C	1.859659	0.342811	0.863012
C173	C	1.118156	-0.398656	0.942922
C174	C	1.368156	-0.148656	1.192922
C175	C	1.618156	0.101344	1.442922
C176	C	1.868156	0.351344	1.692922
C177	C	1.069942	-0.447373	0.904082
C178	C	1.319942	-0.197373	1.154082
C179	C	1.569942	0.052627	1.404082
C180	C	1.819942	0.302627	1.654082
C181	C	1.074670	-0.442626	0.809438
C182	C	1.324670	-0.192626	1.059438
C183	C	1.574670	0.057374	1.309438
C184	C	1.824670	0.307374	1.559438
C185	C	1.113429	-0.403402	1.037574
C186	C	1.363429	-0.153402	1.287574
C187	C	1.613429	0.096598	1.537574
C188	C	1.863429	0.346598	1.787574
H189	H	0.646480	-0.331222	0.515338
H190	H	0.896480	-0.081222	0.765338
H191	H	1.146480	0.168778	1.015338
H192	H	1.396480	0.418778	1.265338
H193	H	0.542350	-0.331237	0.515356
H194	H	0.792350	-0.081237	0.765356
H195	H	1.042350	0.168763	1.015356
H196	H	1.292350	0.418763	1.265356
F197	F	1.011340	-0.952784	0.506577
F198	F	1.261340	-0.702784	0.756577
F199	F	1.511340	-0.452784	1.006577
F200	F	1.761340	-0.202784	1.256577
F201	F	1.176724	-0.892650	0.339609
F202	F	1.426724	-0.642650	0.589609
F203	F	1.676724	-0.392650	0.839609
F204	F	1.926724	-0.142650	1.089609
H205	H	1.025110	-0.492643	0.941911
H206	H	1.275110	-0.242643	1.191911
H207	H	1.525110	0.007357	1.441911
H208	H	1.775110	0.257357	1.691911
F209	F	1.176738	-0.339474	0.893479
F210	F	1.426738	-0.089474	1.143479
F211	F	1.676738	0.160526	1.393479
F212	F	1.926738	0.410526	1.643479
H213	H	0.795199	-0.331207	0.515329
H214	H	1.045199	-0.081207	0.765329
H215	H	1.295199	0.168793	1.015329
H216	H	1.545199	0.418793	1.265329
H217	H	0.393517	-0.515101	0.330873
H218	H	0.643517	-0.265101	0.580873
H219	H	0.893517	-0.015101	0.830873
H220	H	1.143517	0.234899	1.080873
F221	F	0.383381	-0.318581	0.528080
F222	F	0.633381	-0.068581	0.778080
F223	F	0.883381	0.181419	1.028080
F224	F	1.133381	0.431419	1.278080
H225	H	0.542246	-0.515081	0.330850
H226	H	0.792246	-0.265081	0.580850
H227	H	1.042246	-0.015081	0.830850
H228	H	1.292246	0.234919	1.080850
F229	F	0.636113	-0.527731	0.318127
F230	F	0.886113	-0.277731	0.568127
F231	F	1.136113	-0.027731	0.818127
F232	F	1.386113	0.222269	1.068127
F233	F	0.805343	-0.527717	0.318113
F234	F	1.055343	-0.277717	0.568113
F235	F	1.305343	-0.027717	0.818113
F236	F	1.555343	0.222283	1.068113
