data_functionalizedCrystal
_audit_creation_method	'MofGen! by Chris Wilmer'
_symmetry_space_group_name_H-M	'P1'
_symmetry_Int_Tables_number	1
_symmetry_cell_setting	triclinic
loop_
_symmetry_equiv_pos_as_xyz
  x,y,z
_cell_length_a	18.215405
_cell_length_b	18.215407
_cell_length_c	18.215399
_cell_angle_alpha	89.979405
_cell_angle_beta	90.030551
_cell_angle_gamma	89.975194
loop_
_atom_site_label
_atom_site_type_symbol
_atom_site_fract_x
_atom_site_fract_y
_atom_site_fract_z
Zn1	Zn	-0.292993	-1.125072	0.416118
Zn2	Zn	0.040340	-0.791739	0.749451
Zn3	Zn	0.373673	-0.458405	1.082784
Zn4	Zn	-0.416065	-1.124980	0.293046
Zn5	Zn	-0.082731	-0.791647	0.626379
Zn6	Zn	0.250602	-0.458314	0.959712
Zn7	Zn	-0.293016	-1.002005	0.293063
Zn8	Zn	0.040317	-0.668671	0.626397
Zn9	Zn	0.373650	-0.335338	0.959730
Zn10	Zn	-0.416023	-1.001970	0.416069
Zn11	Zn	-0.082689	-0.668637	0.749402
Zn12	Zn	0.250644	-0.335304	1.082736
O13	O	-0.354524	-1.063507	0.354574
O14	O	-0.021191	-0.730173	0.687907
O15	O	0.312142	-0.396840	1.021241
O16	O	-0.309327	-1.228044	0.399805
O17	O	0.024006	-0.894711	0.733138
O18	O	0.357340	-0.561377	1.066471
O19	O	-0.399769	-1.108643	0.190064
O20	O	-0.066436	-0.775310	0.523397
O21	O	0.266897	-0.441977	0.856730
O22	O	-0.190029	-1.018382	0.309414
O23	O	0.143304	-0.685049	0.642748
O24	O	0.476638	-0.351716	0.976081
O25	O	-0.399747	-1.227977	0.309384
O26	O	-0.066414	-0.894643	0.642718
O27	O	0.266920	-0.561310	0.976051
O28	O	-0.190012	-1.108799	0.399822
O29	O	0.143321	-0.775466	0.733155
O30	O	0.476655	-0.442133	1.066488
O31	O	-0.309366	-1.018293	0.190077
O32	O	0.023967	-0.684960	0.523410
O33	O	0.357301	-0.351627	0.856743
O34	O	-0.309325	-0.899016	0.309367
O35	O	0.024008	-0.565682	0.642701
O36	O	0.357341	-0.232349	0.976034
O37	O	-0.399675	-1.018324	0.519060
O38	O	-0.066342	-0.684991	0.852393
O39	O	0.266991	-0.351657	1.185726
O40	O	-0.399697	-0.898991	0.399739
O41	O	-0.066364	-0.565657	0.733072
O42	O	0.266969	-0.232324	1.066406
O43	O	-0.309286	-1.108766	0.519095
O44	O	0.024047	-0.775433	0.852429
O45	O	0.357380	-0.442100	1.185762
O46	O	-0.519043	-1.108610	0.309337
O47	O	-0.185710	-0.775277	0.642671
O48	O	0.147623	-0.441944	0.976004
O49	O	-0.519012	-1.018235	0.399722
O50	O	-0.185679	-0.684902	0.733055
O51	O	0.147654	-0.351569	1.066389
C52	C	-0.354510	-0.872301	0.354550
C53	C	-0.021177	-0.538967	0.687884
C54	C	0.312157	-0.205634	1.021217
C55	C	-0.354521	-0.790502	0.354558
C56	C	-0.021188	-0.457168	0.687891
C57	C	0.312145	-0.123835	1.021224
C58	C	-0.545731	-1.063429	0.354538
C59	C	-0.212397	-0.730096	0.687872
C60	C	0.120936	-0.396762	1.021205
C61	C	-0.627529	-1.063463	0.354548
C62	C	-0.294196	-0.730130	0.687881
C63	C	0.039137	-0.396797	1.021215
C64	C	-0.401650	-0.602314	0.401553
C65	C	-0.068317	-0.268981	0.734886
C66	C	0.265016	0.064353	1.068219
C67	C	-0.401652	-0.525455	0.401561
C68	C	-0.068319	-0.192122	0.734894
C69	C	0.265015	0.141211	1.068227
C70	C	-0.307402	-0.525452	0.307598
C71	C	0.025931	-0.192118	0.640931
C72	C	0.359265	0.141215	0.974265
C73	C	-0.307397	-0.602309	0.307594
C74	C	0.025936	-0.268976	0.640927
C75	C	0.359269	0.064358	0.974261
C76	C	-0.354526	-0.640738	0.354570
C77	C	-0.021192	-0.307405	0.687904
C78	C	0.312141	0.025929	1.021237
C79	C	-0.354532	-0.487022	0.354582
C80	C	-0.021199	-0.153689	0.687916
C81	C	0.312135	0.179645	1.021249
C82	C	-0.354533	-0.403688	0.354591
C83	C	-0.021200	-0.070355	0.687924
C84	C	0.312133	0.262978	1.021257
C85	C	-0.354524	-0.724077	0.354563
C86	C	-0.021190	-0.390744	0.687896
C87	C	0.312143	-0.057410	1.021230
C88	C	-0.815715	-1.110632	0.307571
C89	C	-0.482382	-0.777299	0.640905
C90	C	-0.149048	-0.443965	0.974238
C91	C	-0.892574	-1.110665	0.307589
C92	C	-0.559240	-0.777331	0.640922
C93	C	-0.225907	-0.443998	0.974256
C94	C	-0.892581	-1.016476	0.401629
C95	C	-0.559248	-0.683143	0.734963
C96	C	-0.225915	-0.349809	1.068296
C97	C	-0.815724	-1.016447	0.401615
C98	C	-0.482391	-0.683114	0.734948
C99	C	-0.149057	-0.349781	1.068281
C100	C	-0.777293	-1.063524	0.354581
C101	C	-0.443960	-0.730191	0.687915
C102	C	-0.110626	-0.396857	1.021248
C103	C	-0.931009	-1.063586	0.354614
C104	C	-0.597676	-0.730252	0.687947
C105	C	-0.264342	-0.396919	1.021281
C106	C	-1.014343	-1.063621	0.354634
C107	C	-0.681009	-0.730288	0.687967
C108	C	-0.347676	-0.396954	1.021300
C109	C	-0.693954	-1.063490	0.354563
C110	C	-0.360621	-0.730157	0.687896
C111	C	-0.027287	-0.396823	1.021229
C112	C	-0.162571	-1.063605	0.354625
C113	C	0.170762	-0.730272	0.687959
C114	C	0.504095	-0.396938	1.021292
C115	C	-0.080772	-1.063647	0.354648
C116	C	0.252561	-0.730313	0.687981
C117	C	0.585894	-0.396980	1.021314
C118	C	-0.354473	-1.063552	0.546527
C119	C	-0.021140	-0.730218	0.879860
C120	C	0.312193	-0.396885	1.213194
C121	C	-0.354452	-1.063571	0.628326
C122	C	-0.021119	-0.730237	0.961659
C123	C	0.312215	-0.396904	1.294992
C124	C	-0.354537	-0.255460	0.354595
C125	C	-0.021204	0.077874	0.687928
C126	C	0.312130	0.411207	1.021261
C127	C	-0.354536	-0.337259	0.354595
C128	C	-0.021203	-0.003925	0.687928
C129	C	0.312130	0.329408	1.021262
C130	C	-0.354522	-1.063504	0.163368
C131	C	-0.021188	-0.730171	0.496701
C132	C	0.312145	-0.396838	0.830034
C133	C	-0.354336	-1.063628	0.081569
C134	C	-0.021003	-0.730295	0.414902
C135	C	0.312331	-0.396961	0.748236
C136	C	-0.307342	-1.110681	0.816540
C137	C	0.025991	-0.777348	1.149873
C138	C	0.359324	-0.444014	1.483206
C139	C	-0.307321	-1.110690	0.893398
C140	C	0.026012	-0.777356	1.226732
C141	C	0.359346	-0.444023	1.560065
C142	C	-0.401448	-1.016513	0.893350
C143	C	-0.068114	-0.683179	1.226683
C144	C	0.265219	-0.349846	1.560017
C145	C	-0.401465	-1.016501	0.816493
C146	C	-0.068131	-0.683167	1.149826
C147	C	0.265202	-0.349834	1.483159
C148	C	-0.354413	-1.063589	0.778089
C149	C	-0.021080	-0.730256	1.111423
C150	C	0.312253	-0.396922	1.444756
C151	C	-0.354375	-1.063610	0.931806
C152	C	-0.021041	-0.730276	1.265139
C153	C	0.312292	-0.396943	1.598472
C154	C	-0.354352	-1.063619	1.015139
C155	C	-0.021018	-0.730286	1.348473
C156	C	0.312315	-0.396952	1.681806
C157	C	-0.354435	-1.063579	0.694750
C158	C	-0.021102	-0.730246	1.028084
C159	C	0.312232	-0.396912	1.361417
H160	H	-0.440025	-0.494174	0.439819
H161	H	-0.106691	-0.160840	0.773153
H162	H	0.226642	0.172493	1.106486
O163	O	-0.774260	-1.161413	0.256854
O164	O	-0.440927	-0.828080	0.590188
O165	O	-0.107594	-0.494747	0.923521
H166	H	-0.813893	-1.194182	0.224175
H167	H	-0.480560	-0.860848	0.557508
H168	H	-0.147227	-0.527515	0.890841
H169	H	-0.269033	-0.494153	0.269351
H170	H	0.064300	-0.160820	0.602684
H171	H	0.397634	0.172513	0.936017
H172	H	-0.269018	-0.633595	0.269335
H173	H	0.064315	-0.300262	0.602669
H174	H	0.397649	0.033072	0.936002
H175	H	-0.269028	-1.149021	0.785274
H176	H	0.064305	-0.815688	1.118607
H177	H	0.397639	-0.482355	1.451941
H178	H	-0.923854	-1.149026	0.269310
H179	H	-0.590520	-0.815692	0.602643
H180	H	-0.257187	-0.482359	0.935976
O181	O	-0.452215	-0.965685	0.775012
O182	O	-0.118882	-0.632352	1.108346
O183	O	0.214452	-0.299019	1.441679
H184	H	-0.484930	-0.932944	0.814627
H185	H	-0.151596	-0.599610	1.147961
H186	H	0.181737	-0.266277	1.481294
H187	H	-0.923881	-0.978146	0.439921
H188	H	-0.590548	-0.644813	0.773254
H189	H	-0.257215	-0.311480	1.106588
H190	H	-0.440024	-0.633601	0.439805
H191	H	-0.106690	-0.300267	0.773139
H192	H	0.226643	0.033066	1.106472
H193	H	-0.268990	-1.149035	0.924701
H194	H	0.064344	-0.815702	1.258035
H195	H	0.397677	-0.482369	1.591368
H196	H	-0.439757	-0.978177	0.924627
H197	H	-0.106424	-0.644843	1.257960
H198	H	0.226910	-0.311510	1.591294
O199	O	-0.774274	-0.965625	0.452310
O200	O	-0.440941	-0.632292	0.785643
O201	O	-0.107608	-0.298959	1.118976
H202	H	-0.813909	-0.932883	0.485006
H203	H	-0.480575	-0.599550	0.818339
H204	H	-0.147242	-0.266216	1.151673
