data_functionalizedCrystal
_audit_creation_method	'MofGen! by Chris Wilmer'
_symmetry_space_group_name_H-M	'P1'
_symmetry_Int_Tables_number	1
_symmetry_cell_setting	triclinic
loop_
_symmetry_equiv_pos_as_xyz
  x,y,z
_cell_length_a	6.817900
_cell_length_b	11.102288
_cell_length_c	9.514088
_cell_angle_alpha	88.634974
_cell_angle_beta	118.843545
_cell_angle_gamma	108.605689
loop_
_atom_site_label
_atom_site_type_symbol
_atom_site_fract_x
_atom_site_fract_y
_atom_site_fract_z
V1	V	-4.243923	-0.178092	-0.500743
O2	O	-4.200435	0.006240	-0.491211
O3	O	-4.219795	-0.350897	-0.497319
O4	O	-4.278445	-0.176370	-0.719135
O5	O	-4.141379	-0.169496	-0.267860
V6	V	-4.713661	-0.155924	-0.472888
O7	O	-4.535420	-0.226720	-0.561845
O8	O	-4.872362	-0.107296	-0.411787
O9	O	-4.514583	0.016881	-0.476313
O10	O	-4.874546	-0.340256	-0.482421
O11	O	-4.933602	-0.164520	-0.705772
O12	O	-4.455933	-0.157646	-0.254497
C13	C	-4.068017	-0.392991	-0.489419
C14	C	-4.130129	-0.534268	-0.488075
C15	C	-4.345435	-0.607150	-0.495456
C16	C	-4.403793	-0.739895	-0.494206
C17	C	-4.031511	-0.726865	-0.478186
C18	C	-3.973165	-0.594123	-0.479448
C19	C	-4.142830	-0.170363	-0.772365
C20	C	-4.252499	-0.170099	-0.950901
C21	C	-4.329702	0.058969	-0.484208
C22	C	-4.246833	0.200244	-0.485563
C23	C	-4.254888	-0.163657	-0.201258
C24	C	-4.124455	-0.163915	-0.022720
H25	H	-3.903722	-0.775615	-0.471159
H26	H	-4.446040	-0.175193	-1.026009
H27	H	-3.930937	-0.158835	-0.947624
H28	H	-4.579113	-0.799231	-0.500219
H29	H	-3.797834	-0.534781	-0.473443
H30	H	-4.473248	-0.558420	-0.502478
