data_functionalizedCrystal
_audit_creation_method	'MofGen! by Chris Wilmer'
_symmetry_space_group_name_H-M	'P1'
_symmetry_Int_Tables_number	1
_symmetry_cell_setting	triclinic
loop_
_symmetry_equiv_pos_as_xyz
  x,y,z
_cell_length_a	10.686220
_cell_length_b	10.685594
_cell_length_c	11.169409
_cell_angle_alpha	94.340176
_cell_angle_beta	94.348347
_cell_angle_gamma	98.404471
loop_
_atom_site_label
_atom_site_type_symbol
_atom_site_fract_x
_atom_site_fract_y
_atom_site_fract_z
Zn1	Zn	1.901845	-0.356181	-0.566005
Zn2	Zn	2.401845	0.143819	-0.066005
Zn3	Zn	1.885446	-0.568495	-0.381996
Zn4	Zn	2.385446	-0.068495	0.118004
Zn5	Zn	1.689571	-0.372559	-0.381993
Zn6	Zn	2.189571	0.127441	0.118007
Zn7	Zn	1.673311	-0.584682	-0.599271
Zn8	Zn	2.173311	-0.084682	-0.099271
O9	O	1.787543	-0.470479	-0.482316
O10	O	2.287543	0.029521	0.017684
O11	O	2.077286	-0.370717	-0.527675
O12	O	2.577286	0.129283	-0.027675
O13	O	1.859405	-0.542583	-0.214056
O14	O	2.359405	-0.042583	0.285944
O15	O	1.731398	-0.192758	-0.392479
O16	O	2.231398	0.307242	0.107521
O17	O	2.065238	-0.526703	-0.392485
O18	O	2.565238	-0.026703	0.107515
O19	O	1.887354	-0.180726	-0.527672
O20	O	2.387354	0.319274	-0.027672
O21	O	1.715496	-0.398630	-0.214053
O22	O	2.215496	0.101370	0.285947
O23	O	1.509797	-0.414326	-0.424736
O24	O	2.009797	0.085674	0.075264
O25	O	1.703685	-0.554291	-0.762798
O26	O	2.203685	-0.054291	-0.262798
O27	O	1.497851	-0.570172	-0.584369
O28	O	1.997851	-0.070172	-0.084369
O29	O	1.871588	-0.386413	-0.738357
O30	O	2.371588	0.113587	-0.238357
O31	O	1.843638	-0.748270	-0.424741
O32	O	2.343638	-0.248270	0.075259
O33	O	1.687783	-0.760163	-0.584372
O34	O	2.187783	-0.260163	-0.084372
C35	C	1.457770	-0.495783	-0.508162
C36	C	1.957770	0.004217	-0.008162
C37	C	1.316690	-0.506639	-0.519250
C38	C	1.816690	-0.006639	-0.019250
C39	C	1.762201	-0.800271	-0.508190
C40	C	2.262201	-0.300271	-0.008190
C41	C	1.751476	-0.941348	-0.519290
C42	C	2.251476	-0.441348	-0.019290
C43	C	2.118604	-0.445077	-0.456370
C44	C	2.618604	0.054923	0.043630
C45	C	2.259682	-0.434252	-0.445313
C46	C	2.759682	0.065748	0.054687
C47	C	1.787652	-0.470331	-0.795340
C48	C	2.287652	0.029669	-0.295340
C49	C	1.787698	-0.470268	-0.928732
C50	C	2.287698	0.029732	-0.428732
C51	C	1.813019	-0.139397	-0.456364
C52	C	2.313019	0.360603	0.043636
C53	C	1.823875	0.001691	-0.445305
C54	C	2.323875	0.501691	0.054695
C55	C	1.787515	-0.470530	-0.170497
C56	C	2.287515	0.029470	0.329503
C57	C	1.787743	-0.470217	-0.037058
C58	C	2.287743	0.029783	0.462942
H59	H	1.257558	-0.576930	-0.591033
H60	H	1.757558	-0.076930	-0.091033
H61	H	1.318807	-0.363975	-0.373528
H62	H	1.818807	0.136025	0.126472
H63	H	1.681285	-1.000516	-0.591132
H64	H	2.181285	-0.500516	-0.091132
H65	H	1.894072	-0.939149	-0.373477
H66	H	2.394072	-0.439149	0.126523
