data_functionalizedCrystal
_audit_creation_method	'MofGen! by Chris Wilmer'
_symmetry_space_group_name_H-M	'P1'
_symmetry_Int_Tables_number	1
_symmetry_cell_setting	triclinic
loop_
_symmetry_equiv_pos_as_xyz
  x,y,z
_cell_length_a	19.120785
_cell_length_b	19.077105
_cell_length_c	19.076919
_cell_angle_alpha	90.076224
_cell_angle_beta	89.729181
_cell_angle_gamma	90.062222
loop_
_atom_site_label
_atom_site_type_symbol
_atom_site_fract_x
_atom_site_fract_y
_atom_site_fract_z
Zn1	Zn	-0.338642	1.044402	-0.425356
Zn2	Zn	0.161358	1.544402	0.074644
Zn3	Zn	-0.451190	1.044433	-0.302844
Zn4	Zn	0.048810	1.544433	0.197156
Zn5	Zn	-0.329265	0.932004	-0.303567
Zn6	Zn	0.170735	1.432004	0.196433
Zn7	Zn	-0.450768	0.922272	-0.415615
Zn8	Zn	0.049232	1.422272	0.084385
O9	O	-0.392466	0.985778	-0.361846
O10	O	0.107534	1.485778	0.138154
O11	O	-0.357673	1.142570	-0.412879
O12	O	0.142327	1.642570	0.087121
O13	O	-0.431269	1.033605	-0.204775
O14	O	0.068731	1.533605	0.295225
O15	O	-0.232557	0.950974	-0.324102
O16	O	0.267443	1.450974	0.175898
O17	O	-0.440362	1.142593	-0.322870
O18	O	0.059638	1.642593	0.177130
O19	O	-0.239446	1.033553	-0.413580
O20	O	0.260554	1.533553	0.086420
O21	O	-0.341691	0.951004	-0.205306
O22	O	0.158309	1.451004	0.294694
O23	O	-0.341281	0.832549	-0.314656
O24	O	0.158719	1.332549	0.185344
O25	O	-0.439642	0.934387	-0.515072
O26	O	0.060358	1.434387	-0.015072
O27	O	-0.430549	0.825399	-0.396978
O28	O	0.069451	1.325399	0.103022
O29	O	-0.357263	1.024116	-0.522229
O30	O	0.142737	1.524116	-0.022229
O31	O	-0.549086	1.024169	-0.313424
O32	O	-0.049086	1.524169	0.186576
O33	O	-0.548776	0.934417	-0.396277
O34	O	-0.048776	1.434417	0.103723
C35	C	-0.384853	0.803522	-0.354839
C36	C	0.115147	1.303522	0.145161
C37	C	-0.381613	0.725550	-0.351857
C38	C	0.118387	1.225550	0.148143
C39	C	-0.426633	0.685215	-0.393243
C40	C	0.073367	1.185215	0.106757
C41	C	-0.423580	0.611953	-0.390445
C42	C	0.076420	1.111953	0.109555
C43	C	-0.375510	0.579027	-0.346257
C44	C	0.124490	1.079027	0.153743
C45	C	-0.330485	0.619368	-0.304869
C46	C	0.169515	1.119368	0.195131
C47	C	-0.333535	0.692629	-0.307671
C48	C	0.166465	1.192629	0.192329
C49	C	-0.361393	0.360318	-0.333292
C50	C	0.138607	0.860318	0.166708
C51	C	-0.358348	0.287052	-0.330492
C52	C	0.141652	0.787052	0.169508
C53	C	-0.451442	0.279642	-0.416069
C54	C	0.048558	0.779642	0.083931
C55	C	-0.454491	0.352904	-0.418864
C56	C	0.045509	0.852904	0.081136
C57	C	-0.409464	0.393238	-0.377479
C58	C	0.090536	0.893238	0.122521
N59	N	-0.372389	0.504141	-0.343395
N60	N	0.127611	1.004141	0.156605
N61	N	-0.412581	0.468123	-0.380346
N62	N	0.087419	0.968123	0.119654
C63	C	-0.574330	0.978259	-0.353731
C64	C	-0.074330	1.478259	0.146269
C65	C	-0.652136	0.975105	-0.350285
C66	C	-0.152136	1.475105	0.149715
C67	C	-1.092013	0.955094	-0.328482
C68	C	-0.592013	1.455094	0.171518
C69	C	-1.018906	0.958059	-0.331719
C70	C	-0.518906	1.458059	0.168281
C71	C	-0.985880	1.002504	-0.379958
C72	C	-0.485880	1.502504	0.120042
C73	C	-1.025965	1.043981	-0.424968
C74	C	-0.525965	1.543981	0.075032
C75	C	-1.099070	1.041012	-0.421734
C76	C	-0.599070	1.541012	0.078266
C77	C	-0.765326	1.013613	-0.392060
C78	C	-0.265326	1.513613	0.107940
C79	C	-0.692215	1.016581	-0.395290
C80	C	-0.192215	1.516581	0.104710
C81	C	-0.685161	0.930657	-0.302041
C82	C	-0.185161	1.430657	0.197959
C83	C	-0.758268	0.927696	-0.298808
C84	C	-0.258268	1.427696	0.201192
C85	C	-0.798347	0.969170	-0.343820
C86	C	-0.298347	1.469170	0.156180
C87	C	-0.911154	1.005537	-0.383267
C88	C	-0.411154	1.505537	0.116733
C89	C	-0.873072	0.966133	-0.340514
C90	C	-0.373072	1.466133	0.159486
C91	C	-0.209894	0.993345	-0.370008
C92	C	0.290106	1.493345	0.129992
C93	C	-0.132092	0.996570	-0.373486
C94	C	0.367908	1.496570	0.126514
C95	C	-0.399452	0.978163	-0.544815
C96	C	0.100548	1.478163	-0.044815
C97	C	-0.402428	0.974917	-0.622786
C98	C	0.097572	1.474917	-0.122786
C99	C	-0.400110	1.168746	-0.368880
C100	C	0.099890	1.668746	0.131120
C101	C	-0.403368	1.246716	-0.371878
C102	C	0.096632	1.746716	0.128122
C103	C	-0.360939	1.020107	-0.663144
C104	C	0.139061	1.520107	-0.163144
C105	C	-0.363732	1.017049	-0.736405
C106	C	0.136268	1.517049	-0.236405
C107	C	-0.408020	0.968805	-0.769307
C108	C	0.091980	1.468805	-0.269307
C109	C	-0.449512	0.923610	-0.728944
C110	C	0.050488	1.423610	-0.228944
C111	C	-0.446714	0.926665	-0.655684
C112	C	0.053286	1.426665	-0.155684
C113	C	-0.420984	0.954656	-0.988012
C114	C	0.079016	1.454656	-0.488012
C115	C	-0.423781	0.951606	-1.061277
C116	C	0.076219	1.451606	-0.561277
C117	C	-0.338000	1.045045	-1.068733
C118	C	0.162000	1.545045	-0.568733
C119	C	-0.335209	1.048098	-0.995472
C120	C	0.164791	1.548098	-0.495472
C121	C	-0.376698	1.002901	-0.955115
C122	C	0.123302	1.502901	-0.455115
N123	N	-0.410879	0.965680	-0.844192
N124	N	0.089121	1.465680	-0.344192
N125	N	-0.373835	1.006023	-0.880231
N126	N	0.126165	1.506023	-0.380231
C127	C	-0.385459	0.993406	-0.179592
C128	C	0.114541	1.493406	0.320408
C129	C	-0.382291	0.996796	-0.101635
C130	C	0.117709	1.496796	0.398365
H131	H	-0.324734	0.393149	-0.299588
H132	H	0.175266	0.893149	0.200412
N133	N	-0.469003	0.902297	-1.094876
N134	N	0.030997	1.402297	-0.594876
N135	N	-0.506026	0.861931	-1.058837
N136	N	-0.006026	1.361931	-0.558837
H137	H	-0.537954	0.827100	-1.082566
H138	H	-0.037954	1.327100	-0.582566
H139	H	-0.324877	1.059395	-0.636360
H140	H	0.175123	1.559395	-0.136360
H141	H	-0.485569	0.884326	-0.755739
H142	H	0.014431	1.384326	-0.255739
H143	H	-0.291342	0.592554	-0.268894
H144	H	0.208658	1.092554	0.231106
N145	N	-0.463367	0.908485	-0.946805
N146	N	0.036633	1.408485	-0.446805
N147	N	-0.502908	0.865416	-0.976194
N148	N	-0.002908	1.365416	-0.476194
H149	H	-0.532844	0.832806	-0.947090
H150	H	-0.032844	1.332806	-0.447090
N151	N	-0.503591	0.386546	-0.463996
N152	N	-0.003591	0.886546	0.036004
N153	N	-0.506312	0.451957	-0.466486
N154	N	-0.006312	0.951957	0.033514
H155	H	-0.540994	0.475718	-0.498356
H156	H	-0.040994	0.975718	0.001644
N157	N	-1.125739	0.909684	-0.279212
N158	N	-0.625739	1.409684	0.220788
N159	N	-1.165630	0.862277	-0.300330
N160	N	-0.665630	1.362277	0.199670
H161	H	-1.189446	0.830202	-0.265533
H162	H	-0.689446	1.330202	0.234467
N163	N	-0.489094	0.880495	-0.614467
N164	N	0.010906	1.380495	-0.114467
N165	N	-0.528633	0.837421	-0.643851
N166	N	-0.028633	1.337421	-0.143851
H167	H	-0.558563	0.804809	-0.614743
H168	H	-0.058563	1.304809	-0.114743
H169	H	-0.986273	0.924286	-0.295073
H170	H	-0.486273	1.424286	0.204927
N171	N	-0.992248	1.089379	-0.474255
N172	N	-0.492248	1.589379	0.025745
N173	N	-1.002669	1.081650	-0.538439
N174	N	-0.502669	1.581650	-0.038439
H175	H	-0.978859	1.113715	-0.573250
H176	H	-0.478859	1.613715	-0.073250
N177	N	-0.469585	0.570756	-0.432704
N178	N	0.030415	1.070756	0.067296
N179	N	-0.511505	0.529065	-0.404390
N180	N	-0.011505	1.029065	0.095610
H181	H	-0.544001	0.499971	-0.434236
H182	H	-0.044001	0.999971	0.065764
H183	H	-0.785152	0.891506	-0.259525
H184	H	-0.285152	1.391506	0.240475
N185	N	-0.289953	1.097367	-0.961869
N186	N	0.210047	1.597367	-0.461869
N187	N	-0.242754	1.076236	-0.922038
N188	N	0.257246	1.576236	-0.422038
H189	H	-0.210791	1.111034	-0.898307
H190	H	0.289209	1.611034	-0.398307
H191	H	-0.329949	1.053849	-0.769262
H192	H	0.170051	1.553849	-0.269262
H193	H	-0.652522	0.896890	-0.265395
H194	H	-0.152522	1.396890	0.234605
H195	H	-0.465779	0.712017	-0.429223
H196	H	0.034221	1.212017	0.070777
N197	N	-0.287537	0.733822	-0.265399
N198	N	0.212463	1.233822	0.234601
N199	N	-0.244617	0.704418	-0.225951
N200	N	0.255383	1.204418	0.274049
H201	H	-0.212125	0.733509	-0.196098
H202	H	0.287875	1.233509	0.303902
N203	N	-0.295618	1.091194	-1.109969
N204	N	0.204382	1.591194	-0.609969
N205	N	-0.251546	1.066653	-1.151893
N206	N	0.248454	1.566653	-0.651893
H207	H	-0.221610	1.099245	-1.181017
H208	H	0.278390	1.599245	-0.681017
N209	N	-0.497429	0.238431	-0.458334
N210	N	0.002571	0.738431	0.041666
N211	N	-0.494703	0.173020	-0.455828
N212	N	0.005297	0.673020	0.044172
H213	H	-0.527182	0.143914	-0.485680
H214	H	-0.027182	0.643914	0.014320
H215	H	-0.319195	0.260246	-0.294513
H216	H	0.180805	0.760246	0.205487
H217	H	-0.665330	1.052776	-0.434574
H218	H	-0.165330	1.552776	0.065426
N219	N	-0.806248	1.055979	-0.438045
N220	N	-0.306248	1.555979	0.061955
N221	N	-0.776750	1.095657	-0.481111
N222	N	-0.276750	1.595657	0.018889
H223	H	-0.805653	1.125580	-0.513591
H224	H	-0.305653	1.625580	-0.013591
H225	H	-1.131703	1.074780	-0.458387
H226	H	-0.631703	1.574780	0.041613
N227	N	-0.906819	0.920749	-0.291239
N228	N	-0.406819	1.420749	0.208761
N229	N	-0.946942	0.945681	-0.245714
N230	N	-0.446942	1.445681	0.254286
H231	H	-0.970784	0.913632	-0.210911
H232	H	-0.470784	1.413632	0.289089
H233	H	-0.884258	1.041726	-0.422544
H234	H	-0.384258	1.541726	0.077456
