data_functionalizedCrystal
_audit_creation_method	'MofGen! by Chris Wilmer'
_symmetry_space_group_name_H-M	'P1'
_symmetry_Int_Tables_number	1
_symmetry_cell_setting	triclinic
loop_
_symmetry_equiv_pos_as_xyz
  x,y,z
_cell_length_a	19.188930
_cell_length_b	19.188928
_cell_length_c	9.130313
_cell_angle_alpha	89.979778
_cell_angle_beta	90.009631
_cell_angle_gamma	96.855705
loop_
_atom_site_label
_atom_site_type_symbol
_atom_site_fract_x
_atom_site_fract_y
_atom_site_fract_z
O1	O	0.087160	-0.926145	0.122382
O2	O	0.587160	-0.426145	0.622382
O3	O	0.098896	-0.722833	0.122263
O4	O	0.598896	-0.222833	0.622263
O5	O	-0.008628	-0.830356	0.122298
O6	O	0.491372	-0.330356	0.622298
O7	O	0.194683	-0.818622	0.122348
O8	O	0.694683	-0.318622	0.622348
O9	O	-0.008631	-0.830349	-0.121301
O10	O	0.491369	-0.330349	0.378699
O11	O	0.098893	-0.722826	-0.121336
O12	O	0.598893	-0.222826	0.378664
O13	O	0.087157	-0.926138	-0.121217
O14	O	0.587157	-0.426138	0.378783
Cu15	Cu	0.093024	-0.824481	-0.143519
Cu16	Cu	0.593024	-0.324481	0.356481
Cu17	Cu	0.093028	-0.824490	0.144565
Cu18	Cu	0.593028	-0.324490	0.644565
O19	O	0.194680	-0.818615	-0.121251
O20	O	0.694680	-0.318615	0.378749
C21	C	0.098514	-0.696819	0.000448
C22	C	0.598514	-0.196819	0.500448
C23	C	0.097374	-0.619314	0.000401
C24	C	0.597374	-0.119314	0.500401
C25	C	-0.034641	-0.829973	0.000494
C26	C	0.465359	-0.329973	0.500494
C27	C	-0.112145	-0.828832	0.000480
C28	C	0.387855	-0.328832	0.500480
C29	C	0.160465	-0.574390	0.000436
C30	C	0.660465	-0.074390	0.500436
C31	C	0.159394	-0.501566	0.000444
C32	C	0.659394	-0.001566	0.500444
C33	C	0.095229	-0.473670	0.000447
C34	C	0.595229	0.026330	0.500447
C35	C	0.032129	-0.518603	0.000405
C36	C	0.532129	-0.018603	0.500405
C37	C	0.033202	-0.591426	0.000382
C38	C	0.533202	-0.091426	0.500382
N39	N	0.046184	-0.365692	0.083390
N40	N	0.546184	0.134308	0.583390
N41	N	0.045169	-0.296513	0.083415
N42	N	0.545169	0.203487	0.583415
C43	C	0.091992	-0.254261	0.000513
C44	C	0.591992	0.245739	0.500513
N45	N	0.139880	-0.283799	-0.082396
N46	N	0.639880	0.216201	0.417604
N47	N	0.140897	-0.352984	-0.082414
N48	N	0.640897	0.147016	0.417586
C49	C	0.094058	-0.394707	0.000471
C50	C	0.594058	0.105293	0.500471
C51	C	0.153927	-0.130372	0.000555
C52	C	0.653927	0.369628	0.500555
C53	C	0.152853	-0.057547	0.000554
C54	C	0.652853	0.442453	0.500554
C55	C	0.025586	-0.074586	0.000529
C56	C	0.525586	0.425414	0.500529
C57	C	0.026661	-0.147409	0.000515
C58	C	0.526661	0.352591	0.500515
C59	C	0.090834	-0.175298	0.000535
C60	C	0.590834	0.324702	0.500535
C61	C	-0.157070	-0.891923	0.000510
C62	C	0.342930	-0.391923	0.500510
C63	C	-0.229893	-0.890851	0.000533
C64	C	0.270107	-0.390851	0.500533
C65	C	-0.257789	-0.826685	0.000497
C66	C	0.242211	-0.326685	0.500497
C67	C	-0.212855	-0.763586	0.000475
C68	C	0.287145	-0.263586	0.500475
C69	C	-0.140033	-0.764659	0.000467
C70	C	0.359967	-0.264659	0.500467
N71	N	-0.365795	-0.777635	-0.082433
N72	N	0.134205	-0.277635	0.417567
N73	N	-0.434974	-0.776620	-0.082429
N74	N	0.065026	-0.276620	0.417571
C75	C	-0.477198	-0.823447	0.000524
C76	C	0.022802	-0.323447	0.500524
N77	N	-0.447632	-0.871339	0.083454
N78	N	0.052368	-0.371339	0.583454
N79	N	-0.378447	-0.872356	0.083443
N80	N	0.121553	-0.372356	0.583443
C81	C	-0.336752	-0.825514	0.000506
C82	C	0.163248	-0.325514	0.500506
C83	C	-0.601087	-0.885380	0.000581
C84	C	-0.101087	-0.385380	0.500581
C85	C	-0.673912	-0.884306	0.000613
C86	C	-0.173912	-0.384306	0.500613
C87	C	-0.656872	-0.757039	0.000540
C88	C	-0.156872	-0.257039	0.500540
C89	C	-0.584049	-0.758115	0.000523
C90	C	-0.084049	-0.258115	0.500523
C91	C	-0.556161	-0.822287	0.000537
C92	C	-0.056161	-0.322287	0.500537
C93	C	0.220693	-0.818998	0.000556
C94	C	0.720693	-0.318998	0.500556
C95	C	0.298197	-0.820139	0.000579
C96	C	0.798197	-0.320139	0.500579
N97	N	0.093021	-0.824480	-0.346141
N98	N	0.593021	-0.324480	0.153859
C99	C	0.087540	0.047848	0.000576
C100	C	0.587540	0.547848	0.500576
C101	C	0.088686	-0.029656	0.000555
C102	C	0.588686	0.470344	0.500555
C103	C	0.045430	-0.872107	-0.422778
C104	C	0.545430	-0.372107	0.077222
C105	C	0.045430	-0.872114	-0.576115
C106	C	0.545430	-0.372114	-0.076115
C107	C	0.140619	-0.776864	-0.576165
C108	C	0.640619	-0.276864	-0.076165
C109	C	0.140615	-0.776855	-0.422831
C110	C	0.640615	-0.276855	0.077169
N111	N	0.093025	-0.824496	0.347188
N112	N	0.593025	-0.324496	0.847188
H113	H	0.212720	-0.597092	0.000454
H114	H	0.712720	-0.097092	0.500454
C115	C	-0.570408	-0.955971	0.000619
C116	C	-0.070408	-0.455971	0.500619
N117	N	-0.547303	-1.009140	0.000651
N118	N	-0.047303	-0.509140	0.500651
C119	C	-0.038454	-0.487916	0.000410
C120	C	0.461546	0.012084	0.500410
N121	N	-0.091619	-0.464802	0.000410
N122	N	0.408381	0.035198	0.500410
H123	H	0.006675	-0.910886	-0.360341
H124	H	0.506675	-0.410886	0.139659
H125	H	-0.547470	-0.706739	0.000490
H126	H	-0.047470	-0.206739	0.500490
H127	H	-0.018176	-0.628004	0.000355
H128	H	0.481824	-0.128004	0.500355
H129	H	0.206180	-0.153080	0.000549
H130	H	0.706180	0.346920	0.500549
H131	H	-0.235573	-0.711341	0.000448
H132	H	0.264427	-0.211341	0.500448
H133	H	0.204232	-0.020970	0.000573
H134	H	0.704232	0.479030	0.500573
H135	H	0.006675	-0.910895	-0.638508
H136	H	0.506675	-0.410895	-0.138508
C137	C	-0.042745	-0.196828	0.000495
C138	C	0.457255	0.303172	0.500495
N139	N	-0.095025	-0.234050	0.000477
N140	N	0.404975	0.265950	0.500477
H141	H	0.179370	-0.738090	-0.638621
H142	H	0.679370	-0.238090	-0.138621
C143	C	-0.687553	-0.686455	0.000505
C144	C	-0.187553	-0.186455	0.500505
N145	N	-0.710666	-0.633289	0.000482
N146	N	-0.210666	-0.133289	0.500482
C147	C	0.193004	-0.724491	-0.338526
C148	C	0.693004	-0.224491	0.161474
N149	N	0.232473	-0.685062	-0.275027
N150	N	0.732473	-0.185062	0.224973
H151	H	0.210773	-0.464982	0.000468
H152	H	0.710773	0.035018	0.500468
C153	C	-0.044998	-0.043904	0.000531
C154	C	0.455002	0.456096	0.500531
N155	N	-0.098163	-0.020791	0.000530
N156	N	0.401837	0.479209	0.500530
H157	H	-0.103455	-0.713281	0.000442
H158	H	0.396545	-0.213281	0.500442
H159	H	-0.134368	-0.944177	0.000527
H160	H	0.365632	-0.444177	0.500527
H161	H	-0.266478	-0.942229	0.000564
H162	H	0.233522	-0.442229	0.500564
H163	H	-0.710489	-0.935684	0.000646
H164	H	-0.210489	-0.435684	0.500646
