data_functionalizedCrystal
_audit_creation_method	'MofGen! by Chris Wilmer'
_symmetry_space_group_name_H-M	'P1'
_symmetry_Int_Tables_number	1
_symmetry_cell_setting	triclinic
loop_
_symmetry_equiv_pos_as_xyz
  x,y,z
_cell_length_a	11.026607
_cell_length_b	15.995362
_cell_length_c	9.482900
_cell_angle_alpha	80.659695
_cell_angle_beta	78.636152
_cell_angle_gamma	83.958302
loop_
_atom_site_label
_atom_site_type_symbol
_atom_site_fract_x
_atom_site_fract_y
_atom_site_fract_z
O1	O	1.629092	-0.340367	-0.120849
O2	O	1.275784	-0.300441	-0.120856
O3	O	1.462090	-0.199971	-0.120863
O4	O	1.442786	-0.440837	-0.120843
O5	O	1.424247	-0.220483	0.120931
O6	O	1.237941	-0.320954	0.120937
O7	O	1.591249	-0.360880	0.120945
Cu8	Cu	1.411140	-0.342790	0.143019
Cu9	Cu	1.455893	-0.318531	-0.142930
O10	O	1.404943	-0.461350	0.120951
C11	C	1.211652	-0.303332	0.000039
C12	C	1.076937	-0.281375	0.000036
C13	C	1.003134	-0.342001	0.000040
C14	C	0.863899	-0.319309	0.000036
C15	C	1.442369	-0.178911	0.000028
C16	C	1.439971	-0.085598	0.000011
C17	C	1.431356	0.253449	-0.000017
C18	C	1.298756	0.226060	-0.000558
C19	C	1.301070	0.128961	-0.000003
C20	C	1.435630	0.085244	-0.000004
C21	C	1.479464	0.104744	0.138068
C22	C	1.476108	0.201873	0.138174
C23	C	1.521884	0.225145	-0.136791
C24	C	1.522143	0.128358	-0.138606
C25	C	1.438051	-0.009820	0.000009
C26	C	1.428937	0.348511	-0.000019
C27	C	1.655382	-0.357989	0.000046
C28	C	1.790098	-0.379945	0.000040
N29	N	1.379671	-0.359853	0.344140
C30	C	1.424653	0.517594	0.000033
C31	C	1.427015	0.424291	-0.000031
N32	N	1.487371	-0.301463	-0.344052
C33	C	1.446603	-0.323558	0.416337
C34	C	1.420430	-0.337763	0.583755
H35	H	1.037048	-0.212667	-0.000007
H36	H	1.523279	-0.281965	0.354206
C37	C	1.590975	-0.245278	0.572024
N38	N	1.669012	-0.202964	0.508810
C39	C	1.252487	0.112381	-0.133707
N40	N	1.215886	0.099898	-0.234414
H41	H	1.261217	0.260986	-0.099576
C42	C	1.606382	0.224886	0.146653
N43	N	1.704502	0.242214	0.153049
C44	C	1.276074	-0.416035	0.428074
N45	N	1.198042	-0.458353	0.491290
H46	H	1.230546	0.245259	0.097903
C47	C	1.316827	-0.393948	0.667683
N48	N	1.238795	-0.436266	0.730900
H49	H	1.233763	0.100492	0.099144
H50	H	1.043028	-0.410707	0.000054
C51	C	1.389798	0.224490	0.277601
N52	N	1.324784	0.241521	0.382619
C53	C	1.611920	0.064925	0.145028
N54	N	1.711682	0.034927	0.150274
H55	H	1.417928	0.074496	0.240823
C56	C	1.485398	0.273717	-0.278176
N57	N	1.457902	0.310302	-0.384660
C58	C	0.810015	-0.226486	0.000028
N59	N	0.769428	-0.156572	0.000020
C60	C	0.843980	-0.472769	0.000047
N61	N	0.884565	-0.542683	0.000049
C62	C	1.479160	0.112939	-0.276601
N63	N	1.446774	0.101329	-0.380536
H64	H	1.621574	0.098913	-0.146944
H65	H	1.619858	0.242239	-0.137724
