data_functionalizedCrystal
_audit_creation_method	'MofGen! by Chris Wilmer'
_symmetry_space_group_name_H-M	'P1'
_symmetry_Int_Tables_number	1
_symmetry_cell_setting	triclinic
loop_
_symmetry_equiv_pos_as_xyz
  x,y,z
_cell_length_a	12.645331
_cell_length_b	12.645330
_cell_length_c	17.077396
_cell_angle_alpha	89.974314
_cell_angle_beta	89.982322
_cell_angle_gamma	90.012599
loop_
_atom_site_label
_atom_site_type_symbol
_atom_site_fract_x
_atom_site_fract_y
_atom_site_fract_z
Zn1	Zn	1.620717	-0.422025	-0.443872
Zn2	Zn	1.620631	-0.599313	-0.312614
Zn3	Zn	1.443447	-0.422064	-0.312619
Zn4	Zn	1.443429	-0.599247	-0.443837
O5	O	1.532056	-0.510662	-0.378235
O6	O	1.769052	-0.445553	-0.426473
O7	O	1.597098	-0.575844	-0.202768
O8	O	1.467006	-0.273712	-0.330046
O9	O	1.768989	-0.575806	-0.330038
O10	O	1.597245	-0.273683	-0.426477
O11	O	1.466922	-0.445621	-0.202771
O12	O	1.295097	-0.445557	-0.330012
O13	O	1.466975	-0.575694	-0.553688
O14	O	1.295084	-0.575733	-0.426417
O15	O	1.597228	-0.445489	-0.553714
O16	O	1.597081	-0.747651	-0.330004
O17	O	1.466892	-0.747603	-0.426413
C18	C	1.256626	-0.510643	-0.378212
C19	C	1.138796	-0.510660	-0.378221
C20	C	1.532004	-0.786092	-0.378221
C21	C	1.532079	-0.903922	-0.378242
C22	C	1.093887	-0.428639	-0.317671
C23	C	0.971327	-0.428336	-0.317878
C24	C	0.970954	-0.480868	-0.461085
C25	C	1.093552	-0.480255	-0.460707
C26	C	1.093594	-0.622718	-0.356688
C27	C	0.970986	-0.622133	-0.354891
C28	C	1.614074	-0.948789	-0.317643
C29	C	1.613886	-1.071350	-0.317427
C30	C	1.420365	-1.071929	-0.356012
C31	C	1.420786	-0.949331	-0.355551
C32	C	1.560932	-0.949002	-0.461267
C33	C	1.563450	-1.071607	-0.460847
C34	C	1.808561	-0.510682	-0.378259
C35	C	1.926391	-0.510691	-0.378269
C36	C	1.532109	-0.510580	-0.582980
C37	C	1.532132	-0.510545	-0.670229
C38	C	1.532137	-0.234157	-0.378266
C39	C	1.532171	-0.116327	-0.378279
C40	C	1.464370	-0.442729	-0.711221
C41	C	1.464387	-0.442705	-0.793201
C42	C	1.532172	-0.510492	-0.834189
C43	C	1.599937	-0.578315	-0.793192
C44	C	1.599914	-0.578344	-0.711213
C45	C	1.599983	-0.578249	-0.964062
C46	C	1.600008	-0.578219	-1.046047
C47	C	1.464456	-0.442611	-1.046050
C48	C	1.464433	-0.442639	-0.964071
C49	C	1.532200	-0.510461	-0.923080
C50	C	1.532064	-0.510667	-0.174287
C51	C	1.532246	-0.510404	-0.087038
H52	H	1.123299	-0.447031	-0.256065
N53	N	1.486031	-0.912611	-0.517918
N54	N	1.431846	-0.977700	-0.555641
H55	H	1.378944	-0.951994	-0.595646
H56	H	0.941854	-0.538791	-0.507453
N57	N	1.132556	-0.325070	-0.335377
N58	N	1.193046	-0.311402	-0.392395
H59	H	1.220360	-0.238257	-0.404902
H60	H	1.122160	-0.398358	-0.478909
H61	H	0.941193	-0.446943	-0.256481
H62	H	1.409177	-0.387523	-0.677854
N63	N	1.132294	-0.656891	-0.282183
N64	N	1.104727	-0.744576	-0.255208
H65	H	1.132058	-0.768702	-0.202586
H66	H	1.655175	-0.633468	-0.930689
H67	H	0.940264	-0.399879	-0.479612
H68	H	1.409280	-0.387386	-1.079429
H69	H	1.697205	-0.919244	-0.331387
N70	N	1.395182	-0.373440	-0.835089
N71	N	1.327631	-0.410708	-0.880828
H72	H	1.278754	-0.361787	-0.910414
H73	H	1.357633	-1.101065	-0.398803
N74	N	1.130843	-0.551981	-0.519249
N75	N	1.106768	-0.647737	-0.515650
H76	H	1.133104	-0.698390	-0.556996
H77	H	0.941857	-0.644629	-0.293942
H78	H	1.655124	-0.633514	-0.826570
H79	H	0.940390	-0.686486	-0.395753
N80	N	1.130038	-0.699366	-0.412011
N81	N	1.189043	-0.671728	-0.467080
H82	H	1.214787	-0.725852	-0.506155
H83	H	1.594792	-1.100756	-0.255920
H84	H	1.696783	-1.101364	-0.331336
H85	H	1.655101	-0.633558	-0.677839
N86	N	0.934554	-0.324176	-0.335811
N87	N	0.999435	-0.251481	-0.348218
H88	H	0.973466	-0.177912	-0.360885
H89	H	1.595190	-0.918053	-0.256476
H90	H	1.396373	-0.920816	-0.294867
H91	H	1.357599	-0.919654	-0.397780
N92	N	1.669242	-0.647441	-1.087940
N93	N	1.736807	-0.610114	-1.133696
H94	H	1.785704	-0.658997	-1.163289
H95	H	1.395555	-1.102714	-0.296005
H96	H	1.645730	-1.100616	-0.477640
H97	H	1.641044	-0.918002	-0.481559
N98	N	1.395193	-0.373385	-0.922214
N99	N	1.334693	-0.312837	-0.958820
H100	H	1.285788	-0.263926	-0.929259
N101	N	1.494071	-1.110035	-0.520513
N102	N	1.420107	-1.171274	-0.503076
H103	H	1.371106	-1.198424	-0.545215
