data_functionalizedCrystal
_audit_creation_method	'MofGen! by Chris Wilmer'
_symmetry_space_group_name_H-M	'P1'
_symmetry_Int_Tables_number	1
_symmetry_cell_setting	triclinic
loop_
_symmetry_equiv_pos_as_xyz
  x,y,z
_cell_length_a	14.044220
_cell_length_b	13.339070
_cell_length_c	12.376457
_cell_angle_alpha	75.601917
_cell_angle_beta	77.663671
_cell_angle_gamma	75.590914
loop_
_atom_site_label
_atom_site_type_symbol
_atom_site_fract_x
_atom_site_fract_y
_atom_site_fract_z
O1	O	1.336804	-0.231639	-0.093995
O2	O	1.058464	-0.222623	-0.093998
O3	O	1.165689	-0.076985	-0.093994
O4	O	1.229579	-0.377277	-0.094000
O5	O	1.138882	-0.113342	0.094017
O6	O	1.031657	-0.258980	0.094012
O7	O	1.309996	-0.267995	0.094016
Zn8	Zn	1.166570	-0.269260	0.123865
Zn9	Zn	1.201890	-0.221359	-0.123848
O10	O	1.202772	-0.413633	0.094011
C11	C	1.008708	-0.236856	0.000007
C12	C	0.900387	-0.225085	0.000005
C13	C	1.359753	-0.253763	0.000008
C14	C	1.468075	-0.265532	0.000002
C15	C	1.141494	-0.056500	0.000010
C16	C	1.109326	0.058705	0.000005
C17	C	1.666396	-0.287051	0.000003
C18	C	1.702073	-0.203570	0.000005
C19	C	1.812425	-0.215544	0.000005
C20	C	1.556034	-0.275079	0.000002
C21	C	1.226967	-0.434118	0.000005
C22	C	1.259136	-0.549322	0.000002
N23	N	1.142473	-0.301951	0.292922
C24	C	1.359451	0.400926	0.000008
C25	C	1.389677	0.292684	0.000019
C26	C	1.319592	0.234184	0.000015
C27	C	1.219276	0.283937	0.000001
C28	C	1.189046	0.392189	-0.000001
C29	C	1.149186	0.225446	0.000006
C30	C	1.048870	0.275199	-0.000008
C31	C	1.018646	0.383440	-0.000011
C32	C	1.088731	0.441940	-0.000007
C33	C	1.179416	0.117195	0.000008
C34	C	1.009011	0.108457	-0.000001
C35	C	0.978785	0.216699	-0.000012
N36	N	1.225993	-0.188660	-0.292905
C37	C	1.281927	-0.112752	0.647913
C38	C	1.298787	-0.089871	0.529574
C39	C	1.259710	-0.142889	0.470405
C40	C	1.203769	-0.218793	0.529587
C41	C	1.186914	-0.241682	0.647938
C42	C	1.164697	-0.271819	0.470430
C43	C	1.108756	-0.347722	0.529612
C44	C	1.091903	-0.370607	0.647951
C45	C	1.130980	-0.317590	0.707120
C46	C	1.181552	-0.248929	0.352079
C47	C	1.086539	-0.377859	0.352104
C48	C	1.069679	-0.400740	0.470443
H49	H	1.718725	-0.367507	0.000000
H50	H	1.046362	-0.432421	0.696137
N51	N	1.359117	-0.008010	0.465744
H52	H	1.428239	-0.030191	0.486331
H53	H	1.325586	0.062537	0.486369
N54	N	1.056128	0.558691	-0.000021
H55	H	1.115751	0.588197	-0.000022
H56	H	1.005437	0.569491	0.069676
N57	N	0.910446	0.437089	-0.000018
H58	H	0.904042	0.495281	-0.069713
H59	H	0.884228	0.468262	0.069724
H60	H	1.649752	-0.123092	-0.000076
H61	H	1.024131	-0.462543	0.518644
H62	H	1.261094	0.076696	0.000020
N63	N	1.044381	-0.435053	0.288310
H64	H	1.100545	-0.474806	0.239196
H65	H	0.997953	-0.381994	0.239288
N66	N	0.870590	0.270365	-0.000027
H67	H	0.862080	0.347813	-0.000028
H68	H	0.828725	0.236065	0.069670
H69	H	1.313745	-0.069598	0.696096
N70	N	1.352188	0.117439	0.000020
H71	H	1.426372	0.094797	0.000025
H72	H	1.335894	0.103212	-0.069685
N73	N	1.497865	0.239022	0.000040
H74	H	1.537677	0.292504	0.000041
H75	H	1.524061	0.207773	-0.069654
H76	H	0.951940	0.060825	0.000001
H77	H	1.227100	-0.187128	0.303904
H78	H	1.273440	-0.124255	0.374048
N79	N	1.112793	-0.342271	0.834761
H80	H	1.146034	-0.297162	0.863258
H81	H	1.141363	-0.419487	0.863172
H82	H	1.416502	0.448565	0.000021
