data_functionalizedCrystal
_audit_creation_method	'MofGen! by Chris Wilmer'
_symmetry_space_group_name_H-M	'P1'
_symmetry_Int_Tables_number	1
_symmetry_cell_setting	triclinic
loop_
_symmetry_equiv_pos_as_xyz
  x,y,z
_cell_length_a	15.944551
_cell_length_b	16.992695
_cell_length_c	16.053802
_cell_angle_alpha	92.744111
_cell_angle_beta	87.417146
_cell_angle_gamma	87.083480
loop_
_atom_site_label
_atom_site_type_symbol
_atom_site_fract_x
_atom_site_fract_y
_atom_site_fract_z
O1	O	1.117982	0.104424	0.069331
O2	O	0.874268	0.116892	0.069350
O3	O	0.995147	-0.003484	0.069348
O4	O	0.997102	0.224800	0.069333
O5	O	1.001794	-0.010090	-0.069512
O6	O	0.880915	0.110287	-0.069509
O7	O	1.124629	0.097818	-0.069529
Zn8	Zn	1.003827	0.103003	-0.091566
Zn9	Zn	0.995069	0.111707	0.091387
O10	O	1.003749	0.218195	-0.069526
C11	C	0.846262	0.113072	-0.000077
C12	C	0.752912	0.111521	-0.000069
N13	N	0.989093	0.117641	0.216247
C14	C	0.995957	-0.036000	-0.000078
C15	C	0.988456	-0.123044	-0.000067
C16	C	0.532803	0.033196	-0.000080
C17	C	0.470945	0.072824	0.068382
C18	C	0.581998	0.108713	-0.000079
C19	C	0.477522	0.066329	-0.068522
C20	C	0.416904	0.105995	-0.000092
C21	C	0.521367	0.148364	0.068440
C22	C	0.527952	0.141856	-0.068525
C23	C	0.466115	0.181540	-0.000046
C24	C	0.677105	0.110277	-0.000071
C25	C	0.321798	0.104438	-0.000094
C26	C	1.152634	0.101638	-0.000100
C27	C	1.245984	0.103190	-0.000102
C28	C	1.002939	0.250710	-0.000099
C29	C	1.010440	0.337754	-0.000105
C30	C	0.938074	0.387991	-0.000099
C31	C	0.945126	0.469779	-0.000089
C32	C	1.024544	0.501327	-0.000091
C33	C	1.096914	0.451084	-0.000095
C34	C	1.089862	0.369298	-0.000098
C35	C	1.053774	0.744927	-0.000074
C36	C	1.060822	0.826719	-0.000073
C37	C	0.909032	0.845408	-0.000065
C38	C	0.901987	0.763620	-0.000074
C39	C	0.974357	0.713384	-0.000074
N40	N	1.031754	0.584927	-0.000083
N41	N	0.967146	0.629787	-0.000075
N42	N	1.009810	0.097063	-0.216426
C43	C	1.040639	0.066518	0.259940
C44	C	1.036456	0.070668	0.347347
C45	C	0.980722	0.125937	0.391060
C46	C	0.929174	0.177065	0.347360
C47	C	0.933361	0.172918	0.259955
C48	C	0.962450	0.144045	0.652470
C49	C	0.958264	0.148185	0.739881
C50	C	1.065548	0.041789	0.739862
C51	C	1.069727	0.037645	0.652455
C52	C	1.018182	0.088775	0.608763
N53	N	0.976443	0.130178	0.480403
N54	N	1.022466	0.084538	0.519421
H55	H	0.445921	0.043637	0.126267
H56	H	1.107515	0.000162	0.775443
H57	H	0.920478	0.185676	0.616903
H58	H	0.561928	-0.029473	0.000009
O59	O	0.544595	0.189673	0.137544
C60	C	0.632998	0.190623	0.136723
H61	H	0.661763	0.138359	0.096151
H62	H	0.654770	0.186369	0.203106
H63	H	0.653946	0.247910	0.110250
H64	H	0.891388	0.214549	0.224381
H65	H	0.850113	0.886319	-0.000065
H66	H	0.912875	0.193194	0.775467
O67	O	1.086558	0.020923	0.389661
C68	C	1.136658	-0.028738	0.332337
H69	H	1.105149	-0.032658	0.270034
H70	H	1.144184	-0.090143	0.357585
H71	H	1.201153	-0.003570	0.323038
H72	H	1.125496	0.852402	-0.000075
O73	O	0.431669	0.256414	-0.000120
C74	C	0.461936	0.292991	-0.071680
H75	H	0.524403	0.262461	-0.095308
H76	H	0.471456	0.357821	-0.055165
H77	H	0.414426	0.288269	-0.122433
O78	O	1.174113	0.481628	-0.000204
C79	C	1.221999	0.452556	-0.072132
H80	H	1.196446	0.394695	-0.096111
H81	H	1.290410	0.441972	-0.055959
H82	H	1.217864	0.497491	-0.122489
H83	H	1.112704	0.704034	-0.000079
O84	O	0.875053	0.230683	0.389949
C85	C	0.882421	0.223393	0.476465
H86	H	0.909185	0.161680	0.488396
H87	H	0.817793	0.233542	0.509685
H88	H	0.926242	0.269061	0.501274
H89	H	0.873404	0.362311	-0.000107
H90	H	0.552995	0.171016	-0.126412
H91	H	1.115110	-0.007359	0.616866
H92	H	1.148789	0.328396	-0.000100
O93	O	0.454268	0.024821	-0.137485
C94	C	0.407951	-0.039372	-0.112904
H95	H	0.424351	-0.054836	-0.047052
H96	H	0.424200	-0.092485	-0.157863
H97	H	0.337849	-0.022706	-0.113919
O98	O	0.874747	0.518465	-0.000127
C99	C	0.803139	0.473082	-0.000112
H100	H	0.821624	0.410794	-0.026404
H101	H	0.754032	0.501334	-0.040428
H102	H	0.775856	0.470420	0.066504
H103	H	0.837316	0.737940	-0.000063
H104	H	1.086020	0.021510	0.224356
