data_functionalizedCrystal
_audit_creation_method	'MofGen! by Chris Wilmer'
_symmetry_space_group_name_H-M	'P1'
_symmetry_Int_Tables_number	1
_symmetry_cell_setting	triclinic
loop_
_symmetry_equiv_pos_as_xyz
  x,y,z
_cell_length_a	12.759401
_cell_length_b	10.685594
_cell_length_c	12.759393
_cell_angle_alpha	94.341997
_cell_angle_beta	89.982620
_cell_angle_gamma	94.385039
loop_
_atom_site_label
_atom_site_type_symbol
_atom_site_fract_x
_atom_site_fract_y
_atom_site_fract_z
Zn1	Zn	1.574201	-0.502275	-0.626050
Zn2	Zn	1.560634	-0.713322	-0.463845
Zn3	Zn	1.398502	-0.502341	-0.450394
Zn4	Zn	1.385033	-0.713224	-0.639480
O5	O	1.479592	-0.607790	-0.544942
O6	O	1.719421	-0.530283	-0.604542
O7	O	1.539086	-0.685404	-0.315044
O8	O	1.433123	-0.325754	-0.462445
O9	O	1.709454	-0.685339	-0.485370
O10	O	1.562208	-0.325704	-0.591499
O11	O	1.419968	-0.530397	-0.305161
O12	O	1.249695	-0.530302	-0.475467
O13	O	1.410168	-0.685172	-0.784715
O14	O	1.239800	-0.685237	-0.614388
O15	O	1.549148	-0.530188	-0.774848
O16	O	1.526026	-0.889888	-0.498393
O17	O	1.397013	-0.889816	-0.627431
C18	C	1.206627	-0.607767	-0.544926
C19	C	1.089849	-0.607788	-0.544946
C20	C	1.029853	-0.688591	-0.617180
C21	C	0.920128	-0.688607	-0.617192
C22	C	0.930403	-0.527012	-0.472729
C23	C	1.040127	-0.526991	-0.472722
C24	C	1.023920	-0.781890	-0.700582
C25	C	0.914195	-0.781906	-0.700594
C26	C	1.458615	-0.935637	-0.565852
C27	C	1.449736	-1.075891	-0.574833
C28	C	1.753624	-0.607815	-0.544959
C29	C	1.870400	-0.607825	-0.544966
C30	C	1.479669	-0.607662	-0.818967
C31	C	1.479701	-0.607607	-0.935741
C32	C	1.500681	-0.278664	-0.523973
C33	C	1.509667	-0.138410	-0.515038
C34	C	1.417706	-0.526880	-0.985462
C35	C	1.417740	-0.526843	-1.095184
C36	C	1.541774	-0.688262	-1.105453
C37	C	1.541733	-0.688305	-0.995734
C38	C	1.346099	-0.433682	-0.979533
C39	C	1.346134	-0.433645	-1.089255
C40	C	1.479583	-0.607827	-0.271977
C41	C	1.479776	-0.607527	-0.155182
H42	H	0.878167	-0.879611	-0.684900
N43	N	1.392559	-0.310745	-0.926604
H44	H	1.455590	-0.326672	-0.883051
H45	H	1.414979	-0.251365	-0.981790
H46	H	1.391638	-1.129664	-0.632899
H47	H	0.889907	-0.461230	-0.413927
H48	H	1.374187	-0.335901	-1.112812
N49	N	1.104840	-0.439807	-0.394840
H50	H	1.056690	-0.388625	-0.349093
H51	H	1.147083	-0.491067	-0.349405
N52	N	1.065618	-0.747374	-0.806205
H53	H	1.005083	-0.731978	-0.853343
H54	H	1.114657	-0.668544	-0.796529
N55	N	1.240796	-0.479980	-1.137298
H56	H	1.189872	-0.502393	-1.079810
H57	H	1.212921	-0.411628	-1.177527
N58	N	1.586638	-1.067191	-0.438118
H59	H	1.660269	-1.089974	-0.455944
H60	H	1.582198	-0.973755	-0.442422
N61	N	1.061149	-0.904783	-0.669634
H62	H	0.998434	-0.964178	-0.654688
H63	H	1.103267	-0.943622	-0.728944
H64	H	1.592199	-0.754059	-0.955257
H65	H	0.882421	-0.747023	-0.775719
N66	N	1.608671	-0.775304	-1.170161
H67	H	1.599287	-0.763034	-1.247213
H68	H	1.684959	-0.755688	-1.149736
H69	H	1.263041	-0.459852	-0.951427
