data_functionalizedCrystal
_audit_creation_method	'MofGen! by Chris Wilmer'
_symmetry_space_group_name_H-M	'P1'
_symmetry_Int_Tables_number	1
_symmetry_cell_setting	triclinic
loop_
_symmetry_equiv_pos_as_xyz
  x,y,z
_cell_length_a	10.654556
_cell_length_b	14.519709
_cell_length_c	9.130313
_cell_angle_alpha	90.012940
_cell_angle_beta	89.998135
_cell_angle_gamma	95.916159
loop_
_atom_site_label
_atom_site_type_symbol
_atom_site_fract_x
_atom_site_fract_y
_atom_site_fract_z
O1	O	1.666589	-0.129560	-0.121774
O2	O	1.300993	-0.141895	-0.121792
O3	O	1.493484	-0.001540	-0.121742
O4	O	1.474098	-0.269916	-0.121825
O5	O	1.493471	-0.001536	0.121857
O6	O	1.300980	-0.141891	0.121807
O7	O	1.666576	-0.129556	0.121824
Cu8	Cu	1.483777	-0.135723	0.144058
Cu9	Cu	1.483792	-0.135728	-0.144026
O10	O	1.474085	-0.269912	0.121774
C11	C	1.254197	-0.140986	0.000005
C12	C	1.114781	-0.138273	0.000001
C13	C	0.918279	-0.134455	-0.132773
C14	C	1.049277	-0.136998	-0.132783
C15	C	1.049281	-0.136994	0.132802
C16	C	0.918287	-0.134443	0.132811
C17	C	1.492574	0.032827	0.000065
C18	C	1.489867	0.135222	0.000087
C19	C	1.479900	0.510170	0.000126
C20	C	1.482667	0.405848	0.000116
C21	C	1.484883	0.322699	0.000108
C22	C	1.487651	0.218370	0.000095
C23	C	1.713372	-0.130465	0.000023
C24	C	1.852788	-0.133179	0.000019
C25	C	1.474995	0.695722	0.000016
C26	C	1.477702	0.593327	0.000140
N27	N	1.483775	-0.135719	0.346681
N28	N	1.483804	-0.135725	-0.346648
C29	C	1.569039	-0.073596	0.423355
C30	C	1.569051	-0.073596	0.576692
C31	C	1.398531	-0.197851	0.576667
C32	C	1.398514	-0.197845	0.423333
H33	H	1.102594	-0.138036	-0.240915
C34	C	0.717471	-0.130554	-0.250691
C35	C	0.846281	-0.133057	-0.278734
H36	H	0.673027	-0.129695	-0.340806
H37	H	0.705464	-0.076455	-0.196121
H38	H	0.686560	-0.183825	-0.196147
H39	H	0.877194	-0.079782	-0.333269
H40	H	0.858296	-0.187161	-0.333327
H41	H	0.864963	-0.133403	0.240952
C42	C	1.250087	-0.140913	0.250716
C43	C	1.121280	-0.138398	0.278762
H44	H	1.294530	-0.141788	0.340830
H45	H	1.281006	-0.087649	0.196186
H46	H	1.262081	-0.195019	0.196131
H47	H	1.109285	-0.084288	0.333339
H48	H	1.090351	-0.191667	0.333315
H49	H	1.638478	-0.023009	0.639116
C50	C	1.737579	0.049231	0.438787
C51	C	1.662744	-0.005300	0.339098
H52	H	1.795422	0.091400	0.386769
H53	H	1.782839	0.010531	0.498561
H54	H	1.685225	0.082756	0.498622
H55	H	1.715097	-0.038830	0.279269
H56	H	1.617480	0.033406	0.279298
H57	H	1.329115	-0.248434	0.639092
C58	C	1.325109	-0.357002	0.376047
C59	C	1.304789	-0.266139	0.339040
H60	H	1.267252	-0.399158	0.324000
H61	H	1.312912	-0.365893	0.478324
H62	H	1.408941	-0.367579	0.350890
H63	H	1.220959	-0.255560	0.364208
H64	H	1.316975	-0.257245	0.236741
