data_functionalizedCrystal
_audit_creation_method	'MofGen! by Chris Wilmer'
_symmetry_space_group_name_H-M	'P1'
_symmetry_Int_Tables_number	1
_symmetry_cell_setting	triclinic
loop_
_symmetry_equiv_pos_as_xyz
  x,y,z
_cell_length_a	14.971506
_cell_length_b	16.109304
_cell_length_c	14.048226
_cell_angle_alpha	89.996377
_cell_angle_beta	89.993237
_cell_angle_gamma	83.542513
loop_
_atom_site_label
_atom_site_type_symbol
_atom_site_fract_x
_atom_site_fract_y
_atom_site_fract_z
O1	O	1.186781	0.108428	-0.079161
O2	O	1.520114	0.441761	0.254172
O3	O	1.853447	0.775094	0.587505
O4	O	0.926364	0.121385	-0.079161
O5	O	1.259698	0.454718	0.254172
O6	O	1.593031	0.788052	0.587506
O7	O	1.063725	-0.006115	-0.079162
O8	O	1.397058	0.327218	0.254172
O9	O	1.730392	0.660552	0.587505
O10	O	1.049420	0.235928	-0.079161
O11	O	1.382753	0.569261	0.254173
O12	O	1.716087	0.902594	0.587506
O13	O	1.063709	-0.006123	0.079160
O14	O	1.397042	0.327211	0.412493
O15	O	1.730375	0.660544	0.745826
O16	O	0.926348	0.121377	0.079160
O17	O	1.259681	0.454711	0.412494
O18	O	1.593015	0.788044	0.745827
O19	O	1.186764	0.108420	0.079160
O20	O	1.520097	0.441753	0.412493
O21	O	1.853431	0.775087	0.745827
Zn22	Zn	1.056553	0.114898	0.104297
Zn23	Zn	1.389887	0.448231	0.437631
Zn24	Zn	1.723220	0.781564	0.770964
Zn25	Zn	1.056575	0.114907	-0.104298
Zn26	Zn	1.389908	0.448241	0.229035
Zn27	Zn	1.723242	0.781574	0.562369
O28	O	1.049403	0.235920	0.079161
O29	O	1.382737	0.569254	0.412494
O30	O	1.716070	0.902587	0.745827
C31	C	0.893033	0.120799	-0.000000
C32	C	1.226366	0.454132	0.333333
C33	C	1.559699	0.787465	0.666666
C34	C	0.793739	0.119053	-0.000000
C35	C	1.127072	0.452386	0.333333
C36	C	1.460406	0.785720	0.666666
C37	C	1.063137	-0.037095	-0.000003
C38	C	1.396470	0.296239	0.333330
C39	C	1.729804	0.629572	0.666664
C40	C	1.061398	-0.129392	-0.000010
C41	C	1.394732	0.203941	0.333324
C42	C	1.728065	0.537275	0.666657
C43	C	0.355359	0.187296	-0.000010
C44	C	0.688692	0.520629	0.333323
C45	C	1.022025	0.853962	0.666657
C46	C	0.448657	0.188929	-0.000014
C47	C	0.781990	0.522263	0.333319
C48	C	1.115323	0.855596	0.666653
C49	C	0.505984	0.114018	-0.000010
C50	C	0.839317	0.447352	0.333323
C51	C	1.172650	0.780685	0.666657
C52	C	0.470009	0.037468	-0.000012
C53	C	0.803342	0.370802	0.333322
C54	C	1.136676	0.704135	0.666655
C55	C	0.376713	0.035836	-0.000014
C56	C	0.710046	0.369169	0.333319
C57	C	1.043379	0.702502	0.666652
C58	C	0.664467	0.040877	-0.000004
C59	C	0.997800	0.374210	0.333330
C60	C	1.331134	0.707543	0.666663
C61	C	0.757770	0.042509	0.000001
C62	C	1.091103	0.375843	0.333334
C63	C	1.424436	0.709176	0.666667
C64	C	0.736411	0.193970	-0.000003
C65	C	1.069744	0.527304	0.333330
C66	C	1.403078	0.860637	0.666663
C67	C	0.643115	0.192338	-0.000006
C68	C	0.976448	0.525671	0.333327
C69	C	1.309781	0.859004	0.666661
C70	C	0.607146	0.115788	-0.000006
C71	C	0.940480	0.449121	0.333327
C72	C	1.273813	0.782454	0.666661
C73	C	1.057391	-0.341731	-0.086307
C74	C	1.390724	-0.008397	0.247026
C75	C	1.724057	0.324936	0.580360
C76	C	1.055749	-0.428453	-0.086306
C77	C	1.389082	-0.095119	0.247027
C78	C	1.722415	0.238214	0.580361
C79	C	1.055735	-0.428458	0.086305
C80	C	1.389069	-0.095125	0.419638
C81	C	1.722402	0.238209	0.752971
C82	C	1.057371	-0.341737	0.086303
C83	C	1.390704	-0.008403	0.419636
C84	C	1.724037	0.324930	0.752969
C85	C	1.058203	-0.298376	-0.000006
C86	C	1.391536	0.034958	0.333327
C87	C	1.724870	0.368291	0.666661
C88	C	1.054926	-0.471819	-0.000003
C89	C	1.388259	-0.138486	0.333330
C90	C	1.721592	0.194847	0.666663
C91	C	1.053146	-0.565848	-0.000002
C92	C	1.386479	-0.232514	0.333332
C93	C	1.719812	0.100819	0.666665
C94	C	1.059981	-0.204341	-0.000008
C95	C	1.393315	0.128992	0.333325
C96	C	1.726648	0.462325	0.666659
C97	C	1.220096	0.109006	-0.000003
C98	C	1.553429	0.442340	0.333331
C99	C	1.886763	0.775673	0.666664
C100	C	1.319390	0.110752	-0.000009
C101	C	1.652723	0.444085	0.333325
C102	C	1.986056	0.777419	0.666658
C103	C	1.049992	0.266900	0.000000
C104	C	1.383325	0.600233	0.333334
C105	C	1.716658	0.933566	0.666667
C106	C	1.051730	0.359197	0.000000
C107	C	1.385064	0.692530	0.333334
C108	C	1.718397	1.025864	0.666667
N109	N	1.056545	0.114890	0.246658
N110	N	1.389878	0.448224	0.579991
N111	N	1.723212	0.781557	0.913325
N112	N	1.056591	0.114908	-0.246659
N113	N	1.389924	0.448242	0.086675
N114	N	1.723257	0.781575	0.420008
C115	C	1.117387	0.058457	0.296476
C116	C	1.450721	0.391790	0.629809
C117	C	1.784054	0.725123	0.963142
C118	C	1.117394	0.058456	0.396133
C119	C	1.450727	0.391789	0.729467
C120	C	1.784060	0.725123	1.062800
C121	C	1.056561	0.114894	0.445971
C122	C	1.389894	0.448227	0.779305
C123	C	1.723227	0.781561	1.112638
C124	C	0.995712	0.171330	0.396147
C125	C	1.329045	0.504664	0.729480
C126	C	1.662379	0.837997	1.062813
C127	C	0.995702	0.171326	0.296491
C128	C	1.329036	0.504659	0.629824
C129	C	1.662369	0.837993	0.963157
C130	C	0.995738	0.171336	0.603861
C131	C	1.329071	0.504670	0.937194
C132	C	1.662404	0.838003	1.270528
C133	C	0.995748	0.171342	0.703524
C134	C	1.329082	0.504675	1.036857
C135	C	1.662415	0.838009	1.370190
C136	C	1.117429	0.058466	0.703503
C137	C	1.450762	0.391800	1.036837
C138	C	1.784096	0.725133	1.370170
C139	C	1.117419	0.058462	0.603848
C140	C	1.450753	0.391796	0.937181
C141	C	1.784086	0.725129	1.270514
C142	C	1.056571	0.114900	0.554030
C143	C	1.389905	0.448233	0.887363
C144	C	1.723238	0.781566	1.220696
H145	H	0.308688	0.248297	-0.000006
H146	H	0.642022	0.581631	0.333327
H147	H	0.975355	0.914964	0.666661
H148	H	0.946157	0.217279	0.255930
H149	H	1.279490	0.550612	0.589263
H150	H	1.612824	0.883946	0.922597
F151	F	0.930972	0.231402	0.550845
F152	F	1.264306	0.564736	0.884179
F153	F	1.597639	0.898069	1.217512
F154	F	1.058273	-0.295585	-0.178164
F155	F	1.391606	0.037748	0.155169
F156	F	1.724940	0.371082	0.488503
H157	H	1.055060	-0.463773	0.156574
H158	H	1.388393	-0.130440	0.489907
H159	H	1.721726	0.202893	0.823241
H160	H	1.055085	-0.463748	-0.156581
H161	H	1.388419	-0.130415	0.176752
H162	H	1.721752	0.202918	0.510086
H163	H	1.166935	0.012503	0.436694
H164	H	1.500269	0.345836	0.770028
H165	H	1.833602	0.679170	1.103361
H166	H	0.516692	-0.023525	-0.000014
H167	H	0.850025	0.309808	0.333319
H168	H	1.183359	0.643141	0.666652
H169	H	0.635186	-0.021458	-0.000008
H170	H	0.968519	0.311875	0.333325
H171	H	1.301852	0.645208	0.666658
H172	H	0.946176	0.217280	0.436731
H173	H	1.279510	0.550614	0.770064
H174	H	1.612843	0.883947	1.103397
H175	H	0.477938	0.251259	-0.000024
H176	H	0.811271	0.584592	0.333309
H177	H	1.144604	0.917926	0.666643
F178	F	1.058227	-0.295591	0.178161
F179	F	1.391560	0.037742	0.511494
F180	F	1.724893	0.371075	0.844828
F181	F	1.182140	-0.001610	0.243444
F182	F	1.515473	0.331724	0.576777
F183	F	1.848806	0.665057	0.910110
F184	F	0.582104	0.272066	-0.000005
F185	F	0.915438	0.605400	0.333328
F186	F	1.248771	0.938733	0.666662
H187	H	1.166958	0.012510	0.563270
H188	H	1.500291	0.345844	0.896603
H189	H	1.833625	0.679177	1.229936
F190	F	1.182188	-0.001597	0.756527
F191	F	1.515521	0.331736	1.089860
F192	F	1.848855	0.665069	1.423194
F193	F	0.931000	0.231410	0.756558
F194	F	1.264333	0.564743	1.089891
F195	F	1.597667	0.898077	1.423225
H196	H	0.765701	0.256300	-0.000003
H197	H	1.099034	0.589634	0.333331
H198	H	1.432367	0.922967	0.666664
F199	F	0.818780	-0.037219	-0.000001
F200	F	1.152114	0.296114	0.333332
F201	F	1.485447	0.629447	0.666666
H202	H	0.347429	-0.026494	-0.000015
H203	H	0.680762	0.306839	0.333318
H204	H	1.014095	0.640173	0.666651
