data_functionalizedCrystal
_audit_creation_method	'MofGen! by Chris Wilmer'
_symmetry_space_group_name_H-M	'P1'
_symmetry_Int_Tables_number	1
_symmetry_cell_setting	triclinic
loop_
_symmetry_equiv_pos_as_xyz
  x,y,z
_cell_length_a	21.295417
_cell_length_b	21.295418
_cell_length_c	12.759393
_cell_angle_alpha	89.955003
_cell_angle_beta	90.039170
_cell_angle_gamma	89.951286
loop_
_atom_site_label
_atom_site_type_symbol
_atom_site_fract_x
_atom_site_fract_y
_atom_site_fract_z
Zn1	Zn	-0.250266	-0.962338	0.594669
Zn2	Zn	0.249734	-0.462338	1.094669
Zn3	Zn	-0.355550	-0.962246	0.418966
Zn4	Zn	0.144450	-0.462246	0.918966
Zn5	Zn	-0.250332	-0.857067	0.418927
Zn6	Zn	0.249668	-0.357067	0.918927
Zn7	Zn	-0.355535	-0.857031	0.594526
Zn8	Zn	0.144465	-0.357031	1.094526
O9	O	-0.302921	-0.909670	0.506772
O10	O	0.197079	-0.409670	1.006772
O11	O	-0.264211	-1.050415	0.571438
O12	O	0.235789	-0.550415	1.071438
O13	O	-0.341627	-0.948270	0.271939
O14	O	0.158373	-0.448270	0.771939
O15	O	-0.162234	-0.871085	0.442283
O16	O	0.337766	-0.371085	0.942283
O17	O	-0.341563	-1.050347	0.442349
O18	O	0.158437	-0.550347	0.942349
O19	O	-0.162185	-0.948427	0.571400
O20	O	0.337815	-0.448427	1.071400
O21	O	-0.264324	-0.870995	0.271911
O22	O	0.235676	-0.370995	0.771911
O23	O	-0.264309	-0.768972	0.442145
O24	O	0.235691	-0.268972	0.942145
O25	O	-0.341537	-0.871024	0.741566
O26	O	0.158463	-0.371024	1.241566
O27	O	-0.341601	-0.768946	0.571156
O28	O	0.158399	-0.268946	1.071156
O29	O	-0.264196	-0.948393	0.741671
O30	O	0.235804	-0.448393	1.241671
O31	O	-0.443637	-0.948235	0.442210
O32	O	0.056363	-0.448235	0.942210
O33	O	-0.443626	-0.870934	0.571194
O34	O	0.056374	-0.370934	1.071194
C35	C	-0.302961	-0.746119	0.506631
C36	C	0.197039	-0.246119	1.006631
C37	C	-0.302993	-0.676151	0.506596
C38	C	0.197007	-0.176151	1.006596
C39	C	-0.466472	-0.909588	0.506714
C40	C	0.033528	-0.409588	1.006714
C41	C	-0.536441	-0.909610	0.506724
C42	C	-0.036441	-0.409610	1.006724
C43	C	-0.343294	-0.643287	0.573668
C44	C	0.156706	-0.143287	1.073668
C45	C	-0.343281	-0.577544	0.573707
C46	C	0.156719	-0.077544	1.073707
C47	C	-0.302974	-0.544668	0.506656
C48	C	0.197026	-0.044668	1.006656
C49	C	-0.262666	-0.577540	0.439579
C50	C	0.237334	-0.077540	0.939579
C51	C	-0.262675	-0.643281	0.439549
C52	C	0.237325	-0.143281	0.939549
N53	N	-0.298068	-0.441395	0.414752
N54	N	0.201932	0.058605	0.914752
N55	N	-0.298063	-0.378943	0.414784
N56	N	0.201937	0.121057	0.914784
C57	C	-0.302942	-0.346593	0.506744
C58	C	0.197058	0.153407	1.006744
N59	N	-0.307839	-0.379054	0.598673
N60	N	0.192161	0.120946	1.098673
N61	N	-0.307848	-0.441511	0.598640
N62	N	0.192152	0.058489	1.098640
C63	C	-0.302959	-0.473383	0.506681
C64	C	0.197041	0.026617	1.006681
C65	C	-0.343231	-0.242444	0.573864
C66	C	0.156769	0.257556	1.073864
C67	C	-0.343214	-0.176700	0.573905
C68	C	0.156786	0.323300	1.073905
C69	C	-0.262602	-0.176697	0.439767
C70	C	0.237398	0.323303	0.939767
C71	C	-0.262616	-0.242440	0.439736
C72	C	0.237384	0.257560	0.939736
C73	C	-0.302934	-0.275309	0.506783
C74	C	0.197066	0.224691	1.006783
C75	C	-0.569292	-0.949897	0.439631
C76	C	-0.069292	-0.449897	0.939631
C77	C	-0.635035	-0.949926	0.439655
C78	C	-0.135035	-0.449926	0.939655
C79	C	-0.667923	-0.909658	0.506760
C80	C	-0.167923	-0.409658	1.006760
C81	C	-0.635063	-0.869369	0.573866
C82	C	-0.135063	-0.369369	1.073866
C83	C	-0.569322	-0.869345	0.573848
C84	C	-0.069322	-0.369345	1.073848
N85	N	-0.771206	-0.854591	0.514722
N86	N	-0.271206	-0.354591	1.014722
N87	N	-0.833657	-0.854615	0.514733
N88	N	-0.333657	-0.354615	1.014733
C89	C	-0.865998	-0.909728	0.506821
C90	C	-0.365998	-0.409728	1.006821
N91	N	-0.833528	-0.964818	0.498876
N92	N	-0.333528	-0.464818	0.998876
N93	N	-0.771070	-0.964792	0.498859
N94	N	-0.271070	-0.464792	0.998859
C95	C	-0.739208	-0.909680	0.506788
C96	C	-0.239208	-0.409680	1.006788
C97	C	-0.970135	-0.950050	0.439750
C98	C	-0.470135	-0.450050	0.939750
C99	C	-1.035878	-0.950081	0.439781
C100	C	-0.535878	-0.450081	0.939781
C101	C	-1.035906	-0.869518	0.573987
C102	C	-0.535906	-0.369518	1.073987
C103	C	-0.970164	-0.869493	0.573961
C104	C	-0.470164	-0.369493	1.073961
C105	C	-0.937282	-0.909758	0.506837
C106	C	-0.437282	-0.409758	1.006837
C107	C	-0.138730	-0.909770	0.506853
C108	C	0.361270	-0.409770	1.006853
C109	C	-0.068762	-0.909813	0.506888
C110	C	0.431238	-0.409813	1.006888
C111	C	-0.302857	-0.909714	0.780805
C112	C	0.197143	-0.409714	1.280805
C113	C	-0.302830	-0.909733	0.897582
C114	C	0.197170	-0.409733	1.397582
C115	C	-0.302892	-0.073861	0.506884
C116	C	0.197108	0.426139	1.006884
C117	C	-0.302906	-0.143829	0.506854
C118	C	0.197094	0.356171	1.006854
C119	C	-0.302939	-0.909663	0.233805
C120	C	0.197061	-0.409663	0.733805
C121	C	-0.302788	-0.909766	0.117029
C122	C	0.197212	-0.409766	0.617029
C123	C	-0.262555	-0.950025	0.952501
C124	C	0.237445	-0.450025	1.452501
C125	C	-0.262532	-0.950040	1.062225
C126	C	0.237468	-0.450040	1.562225
C127	C	-0.343065	-0.869470	1.062102
C128	C	0.156935	-0.369470	1.562102
C129	C	-0.343084	-0.869452	0.952380
C130	C	0.156916	-0.369452	1.452380
C131	C	-0.222301	-0.990306	0.897703
C132	C	0.277699	-0.490306	1.397703
C133	C	-0.182023	-1.030601	0.952621
C134	C	0.317977	-0.530601	1.452621
C135	C	-0.182000	-1.030616	1.062345
C136	C	0.318000	-0.530616	1.562345
C137	C	-0.222256	-0.990336	1.117151
C138	C	0.277744	-0.490336	1.617151
H139	H	-0.376123	-0.670045	0.628265
H140	H	0.123877	-0.170045	1.128265
O141	O	-0.386697	-0.277910	0.646192
O142	O	0.113303	0.222090	1.146192
H143	H	-0.436092	-0.265235	0.628051
H144	H	0.063908	0.234765	1.128051
O145	O	-0.386773	-0.542085	0.646011
O146	O	0.113227	-0.042085	1.146011
H147	H	-0.414820	-0.575986	0.692609
H148	H	0.085180	-0.075986	1.192609
O149	O	-0.222224	-0.990351	1.235498
O150	O	0.277776	-0.490351	1.735498
H151	H	-0.209500	-0.942885	1.264388
H152	H	0.290500	-0.442885	1.764388
H153	H	-0.661845	-0.836583	0.628506
H154	H	-0.161845	-0.336583	1.128506
H155	H	-0.661788	-0.982734	0.385020
H156	H	-0.161788	-0.482734	0.885020
H157	H	-0.375870	-0.836634	0.907665
H158	H	0.124130	-0.336634	1.407665
O159	O	-0.533832	-0.993333	0.367243
O160	O	-0.033832	-0.493333	0.867243
H161	H	-0.503944	-0.965167	0.313712
H162	H	-0.003944	-0.465167	0.813712
H163	H	-0.229802	-0.269198	0.385113
H164	H	0.270198	0.230802	0.885113
O165	O	-0.533883	-0.825880	0.646195
O166	O	-0.033883	-0.325880	1.146195
H167	H	-0.567794	-0.797878	0.692856
H168	H	-0.067794	-0.297878	1.192856
O169	O	-0.386483	-0.826031	1.121213
O170	O	0.113517	-0.326031	1.621213
H171	H	-0.375697	-0.776630	1.100126
H172	H	0.124303	-0.276630	1.600126
H173	H	-0.943361	-0.982839	0.385097
H174	H	-0.443361	-0.482839	0.885097
H175	H	-0.376030	-0.149944	0.628530
H176	H	0.123970	0.350056	1.128530
O177	O	-0.219204	-0.542087	0.367234
O178	O	0.280796	-0.042087	0.867234
H179	H	-0.225977	-0.490851	0.378506
H180	H	0.274023	0.009149	0.878506
H181	H	-0.149245	-1.063392	0.907991
H182	H	0.350755	-0.563392	1.407991
O183	O	-1.071317	-0.993533	0.367412
O184	O	-0.571317	-0.493533	0.867412
H185	H	-1.037404	-1.021521	0.320729
H186	H	-0.537404	-0.521521	0.820729
H187	H	-1.062683	-0.836733	0.628630
H188	H	-0.562683	-0.336733	1.128630
H189	H	-0.229781	-0.149930	0.385178
H190	H	0.270219	0.350070	0.885178
H191	H	-0.943414	-0.836685	0.628590
H192	H	-0.443414	-0.336685	1.128590
O193	O	-0.222331	-0.990287	0.779358
O194	O	0.277669	-0.490287	1.279358
H195	H	-0.174862	-0.977589	0.750435
H196	H	0.325138	-0.477589	1.250435
O197	O	-0.219218	-0.678734	0.367185
O198	O	0.280782	-0.178734	0.867185
H199	H	-0.191192	-0.644831	0.320556
H200	H	0.308808	-0.144831	0.820556
O201	O	-0.138561	-1.074074	1.121585
O202	O	0.361439	-0.574074	1.621585
H203	H	-0.110579	-1.102082	1.065043
H204	H	0.389421	-0.602082	1.565043
