data_functionalizedCrystal
_audit_creation_method	'MofGen! by Chris Wilmer'
_symmetry_space_group_name_H-M	'P1'
_symmetry_Int_Tables_number	1
_symmetry_cell_setting	triclinic
loop_
_symmetry_equiv_pos_as_xyz
  x,y,z
_cell_length_a	12.759395
_cell_length_b	29.839133
_cell_length_c	12.759387
_cell_angle_alpha	90.026960
_cell_angle_beta	90.020509
_cell_angle_gamma	90.031139
loop_
_atom_site_label
_atom_site_type_symbol
_atom_site_fract_x
_atom_site_fract_y
_atom_site_fract_z
Zn1	Zn	1.606160	-0.178811	0.594033
Zn2	Zn	1.606005	-0.253949	0.418365
Zn3	Zn	1.430458	-0.178836	0.418370
Zn4	Zn	1.430405	-0.253917	0.594004
O5	O	1.518257	-0.216378	0.506193
O6	O	1.753160	-0.188781	0.570740
O7	O	1.582676	-0.244009	0.271345
O8	O	1.453853	-0.115965	0.441686
O9	O	1.753047	-0.243985	0.441678
O10	O	1.582940	-0.115947	0.570745
O11	O	1.453702	-0.188823	0.271348
O12	O	1.283430	-0.188792	0.441658
O13	O	1.453762	-0.243930	0.741029
O14	O	1.283391	-0.243954	0.570696
O15	O	1.582888	-0.188750	0.741050
O16	O	1.582624	-0.316812	0.441650
O17	O	1.453611	-0.316788	0.570692
C18	C	1.245289	-0.216373	0.506175
C19	C	1.128513	-0.216381	0.506192
C20	C	1.128510	-0.273914	0.640342
C21	C	1.073649	-0.302684	0.707420
C22	C	0.963927	-0.302690	0.707433
C23	C	0.909065	-0.273921	0.640363
C24	C	0.963927	-0.245151	0.573285
C25	C	1.073651	-0.245150	0.573277
C26	C	0.963929	-0.187616	0.439142
C27	C	1.073651	-0.187613	0.439122
C28	C	0.909067	-0.158848	0.372072
C29	C	0.963929	-0.130079	0.304987
C30	C	1.073657	-0.130076	0.304976
C31	C	1.128512	-0.158843	0.372044
C32	C	1.518124	-0.333101	0.506190
C33	C	1.518163	-0.383035	0.506224
C34	C	1.585511	-0.739578	0.573471
C35	C	1.585412	-0.551905	0.573470
O36	O	1.642538	-0.527603	0.630630
N37	N	1.518246	-0.528480	0.506222
C38	C	1.451104	-0.551977	0.438964
O39	O	1.393981	-0.527746	0.381757
C40	C	1.451210	-0.739649	0.438960
C41	C	1.518373	-0.763071	0.506221
C42	C	1.652670	-0.763000	0.640725
C43	C	1.652690	-0.809916	0.640729
C44	C	1.585552	-0.833409	0.573479
C45	C	1.518393	-0.809987	0.506225
C46	C	1.384074	-0.763145	0.371698
C47	C	1.384109	-0.810066	0.371701
C48	C	1.451272	-0.833488	0.438962
C49	C	1.451275	-0.880395	0.438978
N50	N	1.518441	-0.903820	0.506226
C51	C	1.585579	-0.880327	0.573477
C52	C	1.451052	-0.453446	0.438972
C53	C	1.451024	-0.406528	0.438974
C54	C	1.585334	-0.406460	0.573479
C55	C	1.585355	-0.453378	0.573481
C56	C	1.518218	-0.476871	0.506220
C57	C	1.585616	-0.978853	0.573480
C58	C	1.585627	-1.025772	0.573481
C59	C	1.451322	-1.025837	0.438972
C60	C	1.451307	-0.978921	0.438975
C61	C	1.518462	-0.955430	0.506232
O62	O	1.394187	-0.904726	0.381839
O63	O	1.642711	-0.904565	0.630658
C64	C	1.585491	-0.692662	0.573468
C65	C	1.518333	-0.669240	0.506214
C66	C	1.451194	-0.692733	0.438963
C67	C	1.518305	-0.622322	0.506215
C68	C	1.585443	-0.598829	0.573466
C69	C	1.652609	-0.622254	0.640714
C70	C	1.652630	-0.669169	0.640718
C71	C	1.384028	-0.669309	0.371715
C72	C	1.384012	-0.622393	0.371717
C73	C	1.451151	-0.598900	0.438968
C74	C	1.792290	-0.216384	0.506212
C75	C	1.909067	-0.216386	0.506220
C76	C	1.518336	-0.216334	0.780227
C77	C	1.518370	-0.216315	0.897004
C78	C	1.518419	-0.099200	0.506219
C79	C	1.518489	-0.049265	0.506230
C80	C	1.518238	-0.216390	0.233226
C81	C	1.518408	-0.216282	0.116449
C82	C	1.652839	-0.158860	0.897045
C83	C	1.720088	-0.130126	0.951927
C84	C	1.720113	-0.130110	1.061649
C85	C	1.652880	-0.158830	1.116491
C86	C	1.585631	-0.187564	1.061609
C87	C	1.585615	-0.187578	0.951885
C88	C	1.451159	-0.245016	1.061568
C89	C	1.451137	-0.245035	0.951846
C90	C	1.383926	-0.273736	1.116410
C91	C	1.316681	-0.302473	1.061529
C92	C	1.316659	-0.302489	0.951800
C93	C	1.383888	-0.273770	0.896964
H94	H	0.919251	-0.106656	0.250389
H95	H	1.217854	-0.158843	0.372039
H96	H	1.640318	-1.044840	0.628259
H97	H	1.261885	-0.325883	0.907122
H98	H	1.396322	-0.387461	0.384216
H99	H	1.652898	-0.158810	1.205832
N100	N	1.383928	-0.273711	1.234752
H101	H	1.436727	-0.251149	1.261200
H102	H	1.403154	-0.304541	1.261107
H103	H	1.707389	-0.828982	0.695492
N104	N	1.244152	-0.333438	1.120676
H105	H	1.254362	-0.329062	1.198512
H106	H	1.260434	-0.365530	1.101507
N107	N	1.658046	-0.953520	0.646019
H108	H	1.700587	-0.975483	0.688621
H109	H	1.615245	-0.934057	0.694602
N110	N	1.246852	-0.273914	0.640326
H111	H	1.273332	-0.243107	0.659762
H112	H	1.273149	-0.282151	0.568200
N113	N	1.132819	-0.333713	0.779754
H114	H	1.210652	-0.329348	0.769567
H115	H	1.113593	-0.365789	0.763264
N116	N	1.792615	-0.099155	0.892784
H117	H	1.867667	-0.106139	0.911904
H118	H	1.776272	-0.067064	0.911912
H119	H	1.383881	-0.273781	0.807623
H120	H	1.707347	-0.743876	0.695488
H121	H	0.919259	-0.326114	0.762059
H122	H	1.774867	-0.106709	1.106333
N123	N	0.790723	-0.273925	0.640375
H124	H	0.764293	-0.296516	0.693046
H125	H	0.764342	-0.282133	0.568235
N126	N	1.378923	-1.051182	0.366432
H127	H	1.336370	-1.029227	0.323819
H128	H	1.330288	-1.070657	0.409149
H129	H	1.118319	-0.106644	0.250360
H130	H	0.819726	-0.158852	0.372092
N131	N	1.378621	-0.478776	0.366426
H132	H	1.329918	-0.498250	0.409075
H133	H	1.421417	-0.498212	0.317779
H134	H	1.652835	-0.158875	0.807704
H135	H	1.640041	-0.472446	0.628255
N136	N	1.725081	-0.694419	0.713270
H137	H	1.773816	-0.713878	0.670635
H138	H	1.682303	-0.713862	0.761917
N139	N	1.657747	-0.381116	0.646017
H140	H	1.647531	-0.347841	0.635806
H141	H	1.732795	-0.389293	0.629727
H142	H	1.329385	-0.744081	0.316928
N143	N	1.311699	-0.835404	0.299150
H144	H	1.269154	-0.813444	0.256545
H145	H	1.263059	-0.854877	0.341865
H146	H	1.396606	-0.959850	0.384216
N147	N	1.725017	-0.596910	0.713257
H148	H	1.714804	-0.563635	0.703043
H149	H	1.800067	-0.605087	0.696977
H150	H	1.329311	-0.603326	0.316948
N151	N	1.311614	-0.694644	0.299174
H152	H	1.269067	-0.672682	0.256576
H153	H	1.262974	-0.714116	0.341894
