data_functionalizedCrystal
_audit_creation_method	'MofGen! by Chris Wilmer'
_symmetry_space_group_name_H-M	'P1'
_symmetry_Int_Tables_number	1
_symmetry_cell_setting	triclinic
loop_
_symmetry_equiv_pos_as_xyz
  x,y,z
_cell_length_a	19.805407
_cell_length_b	18.101395
_cell_length_c	19.805399
_cell_angle_alpha	89.974882
_cell_angle_beta	89.980427
_cell_angle_gamma	90.031104
loop_
_atom_site_label
_atom_site_type_symbol
_atom_site_fract_x
_atom_site_fract_y
_atom_site_fract_z
Zn1	Zn	1.034714	-0.294847	-0.382731
Zn2	Zn	1.534714	0.205153	0.117269
Zn3	Zn	1.034619	-0.418690	-0.269548
Zn4	Zn	1.534619	0.081310	0.230452
Zn5	Zn	0.921528	-0.294867	-0.269556
Zn6	Zn	1.421528	0.205133	0.230444
Zn7	Zn	0.921482	-0.418651	-0.382695
Zn8	Zn	1.421482	0.081349	0.117305
O9	O	0.978086	-0.356764	-0.326132
O10	O	1.478086	0.143236	0.173868
O11	O	1.129418	-0.311283	-0.367729
O12	O	1.629418	0.188717	0.132271
O13	O	1.019597	-0.402290	-0.174832
O14	O	1.519597	0.097710	0.325168
O15	O	0.936601	-0.191232	-0.284587
O16	O	1.436601	0.308768	0.215413
O17	O	1.129348	-0.402270	-0.284574
O18	O	1.629348	0.097730	0.215426
O19	O	1.019758	-0.191217	-0.367737
O20	O	1.519758	0.308783	0.132263
O21	O	0.936510	-0.311318	-0.174838
O22	O	1.436510	0.188682	0.325162
O23	O	0.826806	-0.311279	-0.284552
O24	O	1.326806	0.188721	0.215448
O25	O	0.936523	-0.402203	-0.477416
O26	O	1.436523	0.097797	0.022584
O27	O	0.826772	-0.402223	-0.367674
O28	O	1.326772	0.097777	0.132326
O29	O	1.019714	-0.311245	-0.477443
O30	O	1.519714	0.188755	0.022557
O31	O	1.019553	-0.522318	-0.284538
O32	O	1.519553	-0.022318	0.215462
O33	O	0.936432	-0.522289	-0.367667
O34	O	1.436432	-0.022289	0.132333
C35	C	0.802230	-0.356750	-0.326110
C36	C	1.302230	0.143250	0.173890
C37	C	0.726998	-0.356761	-0.326117
C38	C	1.226998	0.143239	0.173883
C39	C	0.977995	-0.549174	-0.326112
C40	C	1.477995	-0.049174	0.173888
C41	C	0.978018	-0.631489	-0.326127
C42	C	1.478018	-0.131489	0.173873
C43	C	0.691654	-0.404187	-0.369329
C44	C	1.191654	0.095813	0.130671
C45	C	0.620965	-0.404188	-0.369339
C46	C	1.120965	0.095812	0.130661
C47	C	0.585622	-0.356767	-0.326132
C48	C	1.085622	0.143233	0.173868
C49	C	0.620971	-0.309336	-0.282919
C50	C	1.120971	0.190664	0.217081
C51	C	0.691658	-0.309332	-0.282913
C52	C	1.191658	0.190668	0.217087
C53	C	0.335898	-0.309353	-0.282941
C54	C	0.835898	0.190647	0.217059
C55	C	0.265206	-0.309363	-0.282948
C56	C	0.765206	0.190637	0.217052
C57	C	0.265205	-0.404209	-0.369367
C58	C	0.765205	0.095791	0.130633
C59	C	0.335892	-0.404205	-0.369361
C60	C	0.835892	0.095795	0.130639
C61	C	0.371235	-0.356771	-0.326150
C62	C	0.871235	0.143229	0.173850
C63	C	0.447883	-0.356770	-0.326141
C64	C	0.947883	0.143230	0.173859
C65	C	0.508975	-0.356772	-0.326137
C66	C	1.008975	0.143228	0.173863
C67	C	0.978167	-0.930579	-0.326163
C68	C	1.478167	-0.430579	0.173837
C69	C	0.925991	-0.899267	-0.378595
C70	C	1.425991	-0.399267	0.121405
C71	C	0.925743	-0.813649	-0.378431
C72	C	1.425743	-0.313649	0.121569
C73	C	0.978093	-0.782197	-0.326146
C74	C	1.478093	-0.282197	0.173854
C75	C	0.958782	-0.813345	-0.254811
C76	C	1.458782	-0.313345	0.245189
C77	C	0.958446	-0.898990	-0.255125
C78	C	1.458446	-0.398990	0.244875
C79	C	1.049768	-0.898924	-0.344438
C80	C	1.549768	-0.398924	0.155562
C81	C	1.049347	-0.813273	-0.346002
C82	C	1.549347	-0.313273	0.153998
C83	C	0.978053	-0.698337	-0.326131
C84	C	1.478053	-0.198337	0.173869
C85	C	0.978206	-1.014439	-0.326173
C86	C	1.478206	-0.514439	0.173827
C87	C	1.154629	-0.356779	-0.326155
C88	C	1.654629	0.143221	0.173845
C89	C	1.229861	-0.356785	-0.326164
C90	C	1.729861	0.143215	0.173836
C91	C	0.978124	-0.356717	-0.502675
C92	C	1.478124	0.143283	-0.002675
C93	C	0.978140	-0.356697	-0.577907
C94	C	1.478140	0.143303	-0.077907
C95	C	0.978195	-0.163602	-0.326167
C96	C	1.478195	0.336398	0.173833
C97	C	0.978242	-0.081288	-0.326182
C98	C	1.478242	0.418712	0.173818
C99	C	1.021458	-0.309333	-0.613266
C100	C	1.521458	0.190667	-0.113266
C101	C	1.021465	-0.309311	-0.683955
C102	C	1.521465	0.190689	-0.183955
C103	C	0.978157	-0.356659	-0.719283
C104	C	1.478157	0.143341	-0.219283
C105	C	0.934834	-0.404025	-0.683919
C106	C	1.434834	0.095975	-0.183919
C107	C	0.934824	-0.404042	-0.613231
C108	C	1.434824	0.095958	-0.113231
C109	C	0.934872	-0.403956	-0.968992
C110	C	1.434872	0.096044	-0.468992
C111	C	0.934887	-0.403937	-1.039684
C112	C	1.434887	0.096063	-0.539684
C113	C	1.021513	-0.309225	-1.039716
C114	C	1.521513	0.190775	-0.539716
C115	C	1.021503	-0.309242	-0.969028
C116	C	1.521503	0.190758	-0.469028
C117	C	0.978178	-0.356606	-0.933670
C118	C	1.478178	0.143394	-0.433670
C119	C	0.978170	-0.356628	-0.857022
C120	C	1.478170	0.143372	-0.357022
C121	C	0.978168	-0.356641	-0.795930
C122	C	1.478168	0.143359	-0.295930
C123	C	0.978087	-0.356757	-0.150276
C124	C	1.478087	0.143243	0.349724
C125	C	0.978202	-0.356568	-0.075045
C126	C	1.478202	0.143432	0.424955
H127	H	0.720425	-0.442805	-0.404510
H128	H	1.220425	0.057195	0.095490
H129	H	0.364665	-0.270735	-0.247751
H130	H	0.864665	0.229265	0.252249
C131	C	0.582479	-0.257926	-0.236037
C132	C	1.082479	0.242074	0.263963
C133	C	0.513009	-0.268093	-0.245277
C134	C	1.013009	0.231907	0.254723
C135	C	0.477530	-0.220752	-0.202095
C136	C	0.977530	0.279248	0.297905
H137	H	0.594009	-0.208152	-0.245982
H138	H	1.094009	0.291848	0.254018
H139	H	0.594000	-0.268702	-0.190526
H140	H	1.094000	0.231298	0.309474
H141	H	0.501492	-0.257312	-0.290778
H142	H	1.001492	0.242688	0.209222
H143	H	0.501459	-0.317857	-0.235327
H144	H	1.001459	0.182143	0.264673
H145	H	0.489051	-0.231528	-0.156584
H146	H	0.989051	0.268472	0.343416
H147	H	0.489066	-0.170981	-0.212044
H148	H	0.989066	0.329019	0.287956
H149	H	0.430391	-0.227649	-0.208354
H150	H	0.930391	0.272351	0.291646
H151	H	0.899604	-0.442533	-0.940212
H152	H	1.399604	0.057467	-0.440212
H153	H	0.899543	-0.442604	-0.584443
H154	H	1.399543	0.057396	-0.084443
H155	H	1.067374	-0.920474	-0.395569
H156	H	1.567374	-0.420474	0.104431
C157	C	1.068549	-0.257754	-0.930795
C158	C	1.568549	0.242246	-0.430795
C159	C	1.106475	-0.216254	-0.976892
C160	C	1.606475	0.283746	-0.476892
C161	C	1.149813	-0.168806	-0.941697
C162	C	1.649813	0.331194	-0.441697
H163	H	1.098081	-0.286009	-0.903217
H164	H	1.598081	0.213991	-0.403217
H165	H	1.042684	-0.225453	-0.903237
H166	H	1.542684	0.274547	-0.403237
H167	H	1.132338	-0.248551	-1.004439
H168	H	1.632338	0.251449	-0.504439
H169	H	1.076962	-0.187984	-1.004472
H170	H	1.576962	0.312016	-0.504472
H171	H	1.123948	-0.136504	-0.914139
H172	H	1.623948	0.363496	-0.414139
H173	H	1.179339	-0.197066	-0.914120
H174	H	1.679339	0.302934	-0.414120
H175	H	1.175546	-0.140637	-0.972968
H176	H	1.675546	0.359363	-0.472968
C177	C	1.006931	-0.926765	-0.201334
C178	C	1.506931	-0.426765	0.298666
C179	C	1.007017	-1.004114	-0.201229
C180	C	1.507017	-0.504114	0.298771
C181	C	1.051686	-1.029721	-0.151700
C182	C	1.551686	-0.529721	0.348300
H183	H	0.992973	-0.909254	-0.158335
H184	H	1.492973	-0.409254	0.341665
H185	H	1.051138	-0.909186	-0.210816
H186	H	1.551138	-0.409186	0.289184
H187	H	0.962820	-1.021685	-0.191742
H188	H	1.462820	-0.521685	0.308258
H189	H	1.020982	-1.021644	-0.244215
H190	H	1.520982	-0.521644	0.255785
H191	H	1.095893	-1.012143	-0.161182
H192	H	1.595893	-0.512143	0.338818
H193	H	1.037724	-1.012205	-0.108706
H194	H	1.537724	-0.512205	0.391294
H195	H	1.051756	-1.082204	-0.151627
H196	H	1.551756	-0.582204	0.348373
H197	H	0.899569	-0.442573	-0.712688
H198	H	1.399569	0.057427	-0.212688
C199	C	0.854960	-0.786368	-0.362424
C200	C	1.354960	-0.286368	0.137576
C201	C	0.831156	-0.743457	-0.416209
C202	C	1.331156	-0.243457	0.083791
C203	C	0.765948	-0.718324	-0.401488
C204	C	1.265948	-0.218324	0.098512
H205	H	0.855984	-0.757318	-0.322507
H206	H	1.355984	-0.257318	0.177493
H207	H	0.825845	-0.827484	-0.355881
H208	H	1.325845	-0.327484	0.144119
H209	H	0.860264	-0.702348	-0.422743
H210	H	1.360264	-0.202348	0.077257
H211	H	0.830116	-0.772492	-0.456131
H212	H	1.330116	-0.272492	0.043869
H213	H	0.736832	-0.759440	-0.394946
H214	H	1.236832	-0.259440	0.105054
H215	H	0.766978	-0.689277	-0.361570
H216	H	1.266978	-0.189277	0.138430
H217	H	0.749786	-0.689212	-0.437981
H218	H	1.249786	-0.189212	0.062019
H219	H	1.056788	-0.270657	-1.068513
H220	H	1.556788	0.229343	-0.568513
C221	C	1.068561	-0.258047	-0.574877
C222	C	1.568561	0.241953	-0.074877
C223	C	1.111928	-0.299989	-0.534307
C224	C	1.611928	0.200011	-0.034307
C225	C	1.155332	-0.252767	-0.498941
C226	C	1.655332	0.247233	0.001059
H227	H	1.042760	-0.225771	-0.547248
H228	H	1.542760	0.274229	-0.047248
H229	H	1.094399	-0.229846	-0.606039
H230	H	1.594399	0.270154	-0.106039
H231	H	1.086093	-0.328177	-0.503148
H232	H	1.586093	0.171823	-0.003148
H233	H	1.137744	-0.332263	-0.561918
H234	H	1.637744	0.167737	-0.061918
H235	H	1.181170	-0.224566	-0.530104
H236	H	1.681170	0.275434	-0.030104
H237	H	1.129525	-0.220493	-0.471317
H238	H	1.629525	0.279507	0.028683
H239	H	1.184765	-0.281217	-0.471415
H240	H	1.684765	0.218783	0.028585
H241	H	0.899617	-0.442494	-1.068446
H242	H	1.399617	0.057506	-0.568446
C243	C	0.729913	-0.257817	-0.235918
C244	C	1.229913	0.242183	0.264082
C245	C	0.683833	-0.216304	-0.198066
C246	C	1.183833	0.283696	0.301934
C247	C	0.719047	-0.168846	-0.154761
C248	C	1.219047	0.331154	0.345239
H249	H	0.757516	-0.225519	-0.261782
H250	H	1.257516	0.274481	0.238218
H251	H	0.757447	-0.286089	-0.206344
H252	H	1.257447	0.213911	0.293656
H253	H	0.656310	-0.188035	-0.227636
H254	H	1.156310	0.311965	0.272364
H255	H	0.656228	-0.248583	-0.172188
H256	H	1.156228	0.251417	0.327812
H257	H	0.746581	-0.197118	-0.125186
H258	H	1.246581	0.302882	0.374814
H259	H	0.746649	-0.136553	-0.180630
H260	H	1.246649	0.363447	0.319370
H261	H	0.687787	-0.140679	-0.129068
H262	H	1.187787	0.359321	0.370932
H263	H	0.236420	-0.442829	-0.404554
H264	H	0.736420	0.057171	0.095446
H265	H	1.056741	-0.270744	-0.712741
H266	H	1.556741	0.229256	-0.212741
C267	C	0.582561	-0.455562	-0.416337
C268	C	1.082561	0.044438	0.083663
C269	C	0.542031	-0.413703	-0.459810
C270	C	1.042031	0.086297	0.040190
C271	C	0.506652	-0.461005	-0.503123
C272	C	1.006652	0.038995	-0.003123
H273	H	0.554904	-0.487808	-0.390475
H274	H	1.054904	0.012192	0.109525
H275	H	0.613716	-0.483792	-0.442103
H276	H	1.113716	0.016208	0.057897
H277	H	0.510879	-0.385486	-0.434047
H278	H	1.010879	0.114514	0.065953
H279	H	0.569670	-0.381459	-0.485687
H280	H	1.069670	0.118541	0.014313
H281	H	0.537808	-0.489235	-0.528888
H282	H	1.037808	0.010765	-0.028888
H283	H	0.479000	-0.493249	-0.477255
H284	H	0.979000	0.006751	0.022745
H285	H	0.479154	-0.432611	-0.532628
H286	H	0.979154	0.067389	-0.032628
H287	H	0.937825	-0.792587	-0.431325
H288	H	1.437825	-0.292587	0.068675
H289	H	0.364665	-0.442822	-0.404542
H290	H	0.864665	0.057178	0.095458
C291	C	0.942020	-0.926781	-0.449298
C292	C	1.442020	-0.426781	0.050702
C293	C	0.999068	-0.972363	-0.447049
C294	C	1.499068	-0.472363	0.052951
C295	C	1.013848	-0.997737	-0.512168
C296	C	1.513848	-0.497737	-0.012168
H297	H	0.950687	-0.885843	-0.478050
H298	H	1.450687	-0.385843	0.021950
H299	H	0.904682	-0.954026	-0.466241
H300	H	1.404682	-0.454026	0.033759
H301	H	1.036398	-0.945118	-0.430116
H302	H	1.536398	-0.445118	0.069884
H303	H	0.990417	-1.013312	-0.418310
H304	H	1.490417	-0.513312	0.081690
H305	H	0.976510	-1.024982	-0.529110
H306	H	1.476510	-0.524982	-0.029110
H307	H	1.022512	-0.956795	-0.540914
H308	H	1.522512	-0.456795	-0.040914
H309	H	1.052552	-1.028672	-0.510649
H310	H	1.552552	-0.528672	-0.010649
H311	H	0.906997	-0.791960	-0.239053
H312	H	1.406997	-0.291960	0.260947
H313	H	0.236431	-0.270742	-0.247765
H314	H	0.736431	0.229258	0.252235
H315	H	0.906106	-0.919033	-0.239644
H316	H	1.406106	-0.419033	0.260356
C317	C	0.855661	-0.928144	-0.362774
C318	C	1.355661	-0.428144	0.137226
C319	C	0.831327	-0.968280	-0.418075
C320	C	1.331327	-0.468280	0.081925
C321	C	0.766547	-0.994904	-0.403519
C322	C	1.266547	-0.494904	0.096481
H323	H	0.826339	-0.887781	-0.353921
H324	H	1.326339	-0.387781	0.146079
H325	H	0.857548	-0.959355	-0.324242
H326	H	1.357548	-0.459355	0.175758
H327	H	0.829435	-0.937071	-0.456594
H328	H	1.329435	-0.437071	0.043406
H329	H	0.860630	-1.008653	-0.426935
H330	H	1.360630	-0.508653	0.073065
H331	H	0.768435	-1.026115	-0.364988
H332	H	1.268435	-0.526115	0.135012
H333	H	0.737232	-0.954537	-0.394666
H334	H	1.237232	-0.454537	0.105334
H335	H	0.750032	-1.022145	-0.441035
H336	H	1.250032	-0.522145	0.058965
C337	C	1.007906	-0.786074	-0.201388
C338	C	1.507906	-0.286074	0.298612
C339	C	1.056532	-0.740689	-0.231667
C340	C	1.556532	-0.240689	0.268333
C341	C	1.101791	-0.715544	-0.182475
C342	C	1.601791	-0.215544	0.317525
H343	H	1.029496	-0.827120	-0.180741
H344	H	1.529496	-0.327120	0.319259
H345	H	0.984030	-0.758742	-0.168129
H346	H	1.484030	-0.258742	0.331871
H347	H	1.080406	-0.768020	-0.264914
H348	H	1.580406	-0.268020	0.235086
H349	H	1.034963	-0.699632	-0.252310
H350	H	1.534963	-0.199632	0.247690
H351	H	1.077915	-0.688213	-0.149216
H352	H	1.577915	-0.188213	0.350784
H353	H	1.123375	-0.756595	-0.161831
H354	H	1.623375	-0.256595	0.338169
H355	H	1.134785	-0.684743	-0.203011
H356	H	1.634785	-0.184743	0.296989
C357	C	1.068861	-0.786266	-0.416022
C358	C	1.568861	-0.286266	0.083978
C359	C	1.132446	-0.814370	-0.433152
C360	C	1.632446	-0.314370	0.066848
C361	C	1.150430	-0.789528	-0.497661
C362	C	1.650430	-0.289528	0.002339
H363	H	1.070416	-0.733817	-0.416285
H364	H	1.570416	-0.233817	0.083715
H365	H	1.036376	-0.802813	-0.447904
H366	H	1.536376	-0.302813	0.052096
H367	H	1.164924	-0.797819	-0.401279
H368	H	1.664924	-0.297819	0.098721
H369	H	1.130908	-0.866816	-0.432905
H370	H	1.630908	-0.366816	0.067095
H371	H	1.117944	-0.806076	-0.529542
H372	H	1.617944	-0.306076	-0.029542
H373	H	1.151981	-0.737080	-0.497917
H374	H	1.651981	-0.237080	0.002083
H375	H	1.193571	-0.808599	-0.509294
H376	H	1.693571	-0.308599	-0.009294
C377	C	1.101603	-0.926070	-0.293587
C378	C	1.601603	-0.426070	0.206413
C379	C	1.103836	-1.003366	-0.294865
C380	C	1.603836	-0.503366	0.205135
C381	C	1.151580	-1.028404	-0.248037
C382	C	1.651580	-0.528404	0.251963
H383	H	1.089301	-0.909893	-0.249656
H384	H	1.589301	-0.409893	0.250344
H385	H	1.144784	-0.906807	-0.304894
H386	H	1.644784	-0.406807	0.195106
H387	H	1.060665	-1.022622	-0.283553
H388	H	1.560665	-0.522622	0.216447
H389	H	1.116147	-1.019563	-0.338785
H390	H	1.616147	-0.519563	0.161215
H391	H	1.194760	-1.009141	-0.259344
H392	H	1.694760	-0.509141	0.240656
H393	H	1.139273	-1.012222	-0.204109
H394	H	1.639273	-0.512222	0.295891
H395	H	1.153106	-1.080851	-0.248902
H396	H	1.653106	-0.580851	0.251098
H397	H	1.090278	-0.791859	-0.310597
H398	H	1.590278	-0.291859	0.189403
