data_functionalizedCrystal
_audit_creation_method	'MofGen! by Chris Wilmer'
_symmetry_space_group_name_H-M	'P1'
_symmetry_Int_Tables_number	1
_symmetry_cell_setting	triclinic
loop_
_symmetry_equiv_pos_as_xyz
  x,y,z
_cell_length_a	11.026607
_cell_length_b	13.185407
_cell_length_c	10.065875
_cell_angle_alpha	95.783549
_cell_angle_beta	79.302338
_cell_angle_gamma	80.279750
loop_
_atom_site_label
_atom_site_type_symbol
_atom_site_fract_x
_atom_site_fract_y
_atom_site_fract_z
O1	O	1.491617	0.417354	-0.113491
O2	O	1.154270	0.368488	-0.113494
O3	O	1.380740	0.245519	-0.113487
O4	O	1.265147	0.540323	-0.113498
O5	O	1.337516	0.269088	0.113500
O6	O	1.111046	0.392056	0.113494
O7	O	1.448393	0.440923	0.113496
Zn8	Zn	1.272856	0.420232	0.149534
Zn9	Zn	1.329806	0.389179	-0.149532
O10	O	1.221923	0.563892	0.113490
C11	C	1.090391	0.371257	-0.000000
C12	C	0.964454	0.344383	-0.000001
C13	C	0.866415	0.418586	-0.000004
C14	C	0.736252	0.390812	-0.000005
C15	C	1.370847	0.218975	0.000005
C16	C	1.405752	0.104766	0.000000
C17	C	1.072634	-0.249885	-0.000014
C18	C	1.039838	-0.142582	-0.000024
C19	C	1.131313	-0.080739	-0.000017
C20	C	1.255592	-0.126211	-0.000003
C21	C	1.288394	-0.233525	-0.000004
C22	C	1.347073	-0.064380	-0.000007
C23	C	1.471351	-0.109851	0.000008
C24	C	1.504147	-0.217155	0.000007
C25	C	1.412672	-0.278998	0.000001
C26	C	1.314271	0.042935	-0.000005
C27	C	1.530030	0.059294	0.000005
C28	C	1.562827	-0.048009	0.000014
C29	C	1.512272	0.438153	-0.000000
C30	C	1.638211	0.465026	-0.000009
C31	C	1.231816	0.590435	-0.000005
C32	C	1.196912	0.704643	-0.000009
N33	N	1.233998	0.441426	0.353639
N34	N	1.368676	0.367979	-0.353636
C35	C	1.316281	0.396545	0.421420
C36	C	1.286381	0.412866	0.578586
H37	H	0.723836	0.306714	-0.000037
N38	N	0.654644	0.576424	0.000001
H39	H	0.745296	0.580478	0.000004
H40	H	0.630781	0.602914	-0.084148
H41	H	1.461260	0.317464	0.588045
H42	H	0.952031	0.260290	-0.000033
H43	H	1.193791	0.463372	0.636905
H44	H	1.213082	0.079947	-0.000016
H45	H	1.104602	0.006631	-0.000023
N46	N	1.438897	0.329621	0.344155
H47	H	1.487997	0.372472	0.284840
H48	H	1.489611	0.301910	0.411050
H49	H	0.878843	0.502677	0.000001
H50	H	1.604531	0.109639	-0.000060
N51	N	0.905807	-0.093539	-0.000042
H52	H	0.852833	-0.148995	-0.000042
H53	H	0.871472	-0.040636	0.084104
N54	N	0.973985	-0.316585	-0.000016
H55	H	0.890276	-0.271500	-0.000019
H56	H	0.998925	-0.370197	-0.084166
N57	N	1.448045	-0.394732	0.000034
H58	H	1.371233	-0.427003	0.000041
H59	H	1.514355	-0.426032	-0.084107
N60	N	1.111355	0.508322	0.430879
H61	H	1.107378	0.510496	0.532205
H62	H	1.105738	0.581033	0.405972
H63	H	1.605346	-0.254176	0.000006
H64	H	1.664016	-0.085047	0.000025
