data_functionalizedCrystal
_audit_creation_method	'MofGen! by Chris Wilmer'
_symmetry_space_group_name_H-M	'P1'
_symmetry_Int_Tables_number	1
_symmetry_cell_setting	triclinic
loop_
_symmetry_equiv_pos_as_xyz
  x,y,z
_cell_length_a	10.489741
_cell_length_b	12.503572
_cell_length_c	14.044191
_cell_angle_alpha	93.847901
_cell_angle_beta	88.865475
_cell_angle_gamma	86.448361
loop_
_atom_site_label
_atom_site_type_symbol
_atom_site_fract_x
_atom_site_fract_y
_atom_site_fract_z
O1	O	1.714363	-0.089245	0.128403
O2	O	2.214363	0.410755	0.628403
O3	O	1.344443	-0.089261	0.140965
O4	O	1.844443	0.410739	0.640965
O5	O	1.523846	-0.089255	-0.003339
O6	O	2.023846	0.410745	0.496661
O7	O	1.534960	-0.089251	0.272707
O8	O	2.034960	0.410749	0.772707
O9	O	1.510356	0.089386	0.007532
O10	O	2.010356	0.589386	0.507532
O11	O	1.330953	0.089381	0.151835
O12	O	1.830953	0.589381	0.651835
O13	O	1.700873	0.089397	0.139274
O14	O	2.200873	0.589397	0.639274
Cu15	Cu	1.514681	0.105700	0.146547
Cu16	Cu	2.014681	0.605700	0.646547
Cu17	Cu	1.530635	-0.105564	0.133691
Cu18	Cu	2.030635	0.394436	0.633691
O19	O	1.521470	0.089391	0.283577
O20	O	2.021470	0.589391	0.783577
C21	C	1.290070	0.000058	0.145451
C22	C	1.790070	0.500058	0.645451
C23	C	1.148153	0.000051	0.142612
C24	C	1.648153	0.500051	0.642612
N25	N	1.503470	0.254292	0.155589
N26	N	2.003470	0.754292	0.655589
N27	N	1.541856	-0.254156	0.124642
N28	N	2.041856	0.245844	0.624642
C29	C	1.070697	0.000060	0.050796
C30	C	1.570697	0.500060	0.550796
C31	C	0.989622	-0.088017	0.088809
C32	C	1.489622	0.411983	0.588809
C33	C	0.976358	0.088110	0.099549
C34	C	1.476358	0.588110	0.599549
C35	C	1.068953	-0.088098	0.180659
C36	C	1.568953	0.411902	0.680659
C37	C	1.055691	0.088108	0.191390
C38	C	1.555691	0.588108	0.691390
C39	C	0.974652	0.000010	0.229469
C40	C	1.474652	0.500010	0.729469
C41	C	1.755246	0.000076	0.134787
C42	C	2.255246	0.500076	0.634787
C43	C	1.897164	0.000075	0.137626
C44	C	2.397164	0.500075	0.637626
C45	C	1.512239	0.000063	-0.033252
C46	C	2.012239	0.500063	0.466748
C47	C	1.497737	0.000054	-0.138577
C48	C	1.997737	0.500054	0.361423
C49	C	1.486978	0.473407	0.168897
C50	C	1.986978	0.973407	0.668897
C51	C	1.558344	0.526736	0.111337
C52	C	2.058344	1.026736	0.611337
C53	C	1.549168	0.648659	0.118742
C54	C	2.049168	1.148659	0.618742
C55	C	1.496153	0.351473	0.161493
C56	C	1.996153	0.851473	0.661493
C57	C	1.533077	0.000071	0.313490
C58	C	2.033077	0.500071	0.813490
C59	C	1.547580	0.000073	0.418815
C60	C	2.047580	0.500073	0.918815
C61	C	1.471236	0.000060	0.668579
C62	C	1.971236	0.500060	1.168579
C63	C	1.574075	0.000066	0.611653
C64	C	2.074075	0.500066	1.111653
C65	C	1.559330	0.000070	0.504348
C66	C	2.059330	0.500070	1.004348
C67	C	1.485979	0.000057	0.775894
C68	C	1.985979	0.500057	1.275894
H69	H	0.960289	-0.162482	0.045429
H70	H	1.460289	0.337518	0.545429
O71	O	1.648411	0.465936	0.038692
O72	O	2.148411	0.965936	0.538692
H73	H	1.641587	0.378326	0.044204
H74	H	2.141587	0.878326	0.544204
O75	O	1.396933	0.534206	0.241548
O76	O	1.896933	1.034206	0.741548
H77	H	1.403782	0.621815	0.236043
H78	H	1.903782	1.121815	0.736043
H79	H	0.935814	0.162572	0.065214
H80	H	1.435814	0.662572	0.565214
O81	O	1.339950	0.000065	0.626392
O82	O	1.839950	0.500065	1.126392
H83	H	1.266881	0.000057	0.684644
H84	H	1.766881	0.500057	1.184644
O85	O	1.705374	0.000084	0.653833
O86	O	2.205374	0.500084	1.153833
H87	H	1.696505	0.000093	0.732719
H88	H	2.196505	0.500093	1.232719
H89	H	1.112737	-0.000051	-0.024690
H90	H	1.612737	0.499949	0.475310
H91	H	1.109349	-0.162644	0.214942
H92	H	1.609349	0.337356	0.714942
H93	H	0.932898	-0.000037	0.305025
H94	H	1.432898	0.499963	0.805025
H95	H	1.085052	0.162576	0.234740
H96	H	1.585052	0.662576	0.734740
