data_functionalizedCrystal
_audit_creation_method	'MofGen! by Chris Wilmer'
_symmetry_space_group_name_H-M	'P1'
_symmetry_Int_Tables_number	1
_symmetry_cell_setting	triclinic
loop_
_symmetry_equiv_pos_as_xyz
  x,y,z
_cell_length_a	21.395362
_cell_length_b	14.908520
_cell_length_c	21.395355
_cell_angle_alpha	93.280325
_cell_angle_beta	89.956060
_cell_angle_gamma	93.337688
loop_
_atom_site_label
_atom_site_type_symbol
_atom_site_fract_x
_atom_site_fract_y
_atom_site_fract_z
Zn1	Zn	0.943513	-0.358891	-0.368965
Zn2	Zn	1.443513	0.141109	0.131035
Zn3	Zn	0.937386	-0.509736	-0.270231
Zn4	Zn	1.437386	-0.009736	0.229769
Zn5	Zn	0.838727	-0.358933	-0.264168
Zn6	Zn	1.338727	0.141067	0.235832
Zn7	Zn	0.832667	-0.509755	-0.374937
Zn8	Zn	1.332667	-0.009755	0.125063
O9	O	0.888073	-0.434329	-0.319575
O10	O	1.388073	0.065671	0.180425
O11	O	1.030380	-0.378876	-0.355906
O12	O	1.530380	0.121124	0.144094
O13	O	0.924270	-0.489742	-0.181749
O14	O	1.424270	0.010258	0.318251
O15	O	0.857727	-0.232679	-0.273033
O16	O	1.357727	0.267321	0.226967
O17	O	1.025878	-0.489701	-0.283367
O18	O	1.525878	0.010299	0.216633
O19	O	0.934713	-0.232649	-0.350027
O20	O	1.434713	0.267351	0.149973
O21	O	0.851786	-0.378948	-0.177295
O22	O	1.351786	0.121052	0.322705
O23	O	0.750244	-0.378966	-0.278823
O24	O	1.250244	0.121034	0.221177
O25	O	0.847399	-0.489733	-0.461822
O26	O	1.347399	0.010267	0.038178
O27	O	0.745792	-0.489773	-0.360205
O28	O	1.245792	0.010227	0.139795
O29	O	0.928838	-0.378894	-0.457435
O30	O	1.428838	0.121106	0.042565
O31	O	0.918395	-0.635987	-0.289157
O32	O	1.418395	-0.135987	0.210843
O33	O	0.841458	-0.636001	-0.366084
O34	O	1.341458	-0.136001	0.133916
C35	C	0.725284	-0.434377	-0.319504
C36	C	1.225284	0.065623	0.180496
C37	C	0.655641	-0.434419	-0.319490
C38	C	1.155641	0.065581	0.180510
C39	C	0.878621	-0.668729	-0.328940
C40	C	1.378621	-0.168729	0.171060
C41	C	0.874634	-0.769006	-0.332968
C42	C	1.374634	-0.269006	0.167032
C43	C	0.620623	-0.492193	-0.361808
C44	C	1.120623	0.007807	0.138192
C45	C	0.555188	-0.492171	-0.361835
C46	C	1.055188	0.007829	0.138165
C47	C	0.524774	-0.434384	-0.319533
C48	C	1.024774	0.065616	0.180467
C49	C	0.559800	-0.376599	-0.277212
C50	C	1.059800	0.123401	0.222788
C51	C	0.625234	-0.376616	-0.277190
C52	C	1.125234	0.123384	0.222810
C53	C	0.421340	-0.427116	-0.262837
C54	C	0.921340	0.072884	0.237163
C55	C	0.355907	-0.427105	-0.262858
C56	C	0.855907	0.072895	0.237142
C57	C	0.322956	-0.434325	-0.319600
C58	C	0.822956	0.065675	0.180400
C59	C	0.355444	-0.441575	-0.376324
C60	C	0.855444	0.058425	0.123676
C61	C	0.420877	-0.441593	-0.376302
C62	C	0.920877	0.058407	0.123698
C63	C	0.453823	-0.434358	-0.319552
C64	C	0.953823	0.065642	0.180448
C65	C	0.216986	-0.492079	-0.361951
C66	C	0.716986	0.007921	0.138049
C67	C	0.151550	-0.492050	-0.361979
C68	C	0.651550	0.007950	0.138021
C69	C	0.156163	-0.376483	-0.277350
C70	C	0.656163	0.123517	0.222650
C71	C	0.221598	-0.376506	-0.277327
C72	C	0.721598	0.123494	0.222673
C73	C	0.252005	-0.434309	-0.319627
C74	C	0.752005	0.065691	0.180373
C75	C	0.947340	-0.957362	-0.260497
C76	C	1.447340	-0.457362	0.239503
C77	C	0.943596	-1.051582	-0.264279
C78	C	1.443596	-0.551582	0.235721
C79	C	0.863407	-1.051666	-0.344317
C80	C	1.363407	-0.551666	0.155683
C81	C	0.867151	-0.957446	-0.340535
C82	C	1.367151	-0.457446	0.159465
C83	C	0.909118	-0.910298	-0.298623
C84	C	1.409118	-0.410298	0.201377
C85	C	0.912858	-0.816077	-0.294838
C86	C	1.412858	-0.316077	0.205162
C87	C	0.832672	-0.816163	-0.374879
C88	C	1.332672	-0.316163	0.125121
C89	C	0.828929	-0.910382	-0.378661
C90	C	1.328929	-0.410382	0.121339
C91	C	1.051498	-0.434282	-0.319647
C92	C	1.551498	0.065718	0.180353
C93	C	1.121141	-0.434262	-0.319677
C94	C	1.621141	0.065738	0.180323
C95	C	0.888126	-0.434311	-0.482998
C96	C	1.388126	0.065689	0.017002
C97	C	0.888148	-0.434303	-0.552639
C98	C	1.388148	0.065697	-0.052639
C99	C	0.897580	-0.199014	-0.310187
C100	C	1.397580	0.300986	0.189813
C101	C	0.901631	-0.098737	-0.306187
C102	C	1.401631	0.401263	0.193813
C103	C	0.930552	-0.376587	-0.583068
C104	C	1.430552	0.123413	-0.083068
C105	C	0.930553	-0.376548	-0.648502
C106	C	1.430553	0.123452	-0.148502
C107	C	0.888156	-0.434242	-0.683505
C108	C	1.388156	0.065758	-0.183505
C109	C	0.845745	-0.491962	-0.653068
C110	C	1.345745	0.008038	-0.153068
C111	C	0.845741	-0.491992	-0.587635
C112	C	1.345741	0.008008	-0.087635
C113	C	0.879933	-0.515477	-0.790423
C114	C	1.379933	-0.015477	-0.290423
C115	C	0.879941	-0.515447	-0.855855
C116	C	1.379941	-0.015447	-0.355855
C117	C	0.888164	-0.434146	-0.885322
C118	C	1.388164	0.065854	-0.385322
C119	C	0.896392	-0.352872	-0.849348
C120	C	1.396392	0.147128	-0.349348
C121	C	0.896388	-0.352902	-0.783915
C122	C	1.396388	0.147098	-0.283915
C123	C	0.888155	-0.434214	-0.754456
C124	C	1.388155	0.065786	-0.254456
C125	C	0.930570	-0.376383	-0.986702
C126	C	1.430570	0.123617	-0.486702
C127	C	0.930566	-0.376343	-1.052137
C128	C	1.430566	0.123657	-0.552137
C129	C	0.845761	-0.491764	-1.056701
C130	C	1.345761	0.008236	-0.556701
C131	C	0.845762	-0.491797	-0.991267
C132	C	1.345762	0.008203	-0.491267
C133	C	0.888170	-0.434107	-0.956272
C134	C	1.388170	0.065893	-0.456272
C135	C	0.888059	-0.434282	-0.156786
C136	C	1.388059	0.065718	0.343214
C137	C	0.888169	-0.434036	-0.087135
C138	C	1.388169	0.065964	0.412865
H139	H	0.645376	-0.539259	-0.396253
H140	H	1.145376	-0.039259	0.103747
H141	H	0.965081	-0.329544	-0.673283
H142	H	1.465081	0.170456	-0.173283
F143	F	0.456403	-0.419433	-0.202439
F144	F	0.956403	0.080567	0.297561
F145	F	0.975707	-0.314920	-1.084522
F146	F	1.475707	0.185080	-0.584522
F147	F	0.784269	-0.960571	-0.423266
F148	F	1.284269	-0.460571	0.076734
H149	H	0.328616	-0.447453	-0.422529
H150	H	0.828616	0.052547	0.077471
F151	F	0.791984	-0.766067	-0.415451
F152	F	1.291984	-0.266067	0.084549
F153	F	0.258868	-0.315017	-0.232284
F154	F	0.758868	0.184983	0.267716
F155	F	0.975684	-0.315184	-0.545827
F156	F	1.475684	0.184816	-0.045827
F157	F	0.517912	-0.553664	-0.406878
F158	F	1.017912	-0.053664	0.093122
H159	H	0.811235	-0.538731	-1.085199
H160	H	1.311235	-0.038731	-0.585199
H161	H	0.811236	-0.538801	-0.966492
H162	H	1.311236	-0.038801	-0.466492
H163	H	0.903086	-0.286726	-0.754629
H164	H	1.403086	0.213274	-0.254629
F165	F	0.527430	-0.315095	-0.232193
F166	F	1.027430	0.184905	0.267807
H167	H	0.903089	-0.286669	-0.873338
H168	H	1.403089	0.213331	-0.373338
F169	F	0.871189	-0.601946	-0.894135
F170	F	1.371189	-0.101946	-0.394135
F171	F	0.975701	-0.314982	-0.949455
F172	F	1.475701	0.185018	-0.449455
F173	F	0.871194	-0.602016	-0.759070
F174	F	1.371194	-0.102016	-0.259070
F175	F	0.662504	-0.315122	-0.232147
F176	F	1.162504	0.184878	0.267853
F177	F	0.800621	-0.553360	-0.690320
F178	F	1.300621	-0.053360	-0.190320
H179	H	0.241745	-0.539140	-0.396397
H180	H	0.741745	-0.039140	0.103603
F181	F	0.957520	-0.765899	-0.250229
F182	F	1.457520	-0.265899	0.249771
F183	F	0.321337	-0.419389	-0.202488
F184	F	0.821337	0.080611	0.297512
H185	H	0.447326	-0.447493	-0.422489
H186	H	0.947326	0.052507	0.077511
H187	H	0.981507	-0.918973	-0.226366
H188	H	1.481507	-0.418973	0.273634
H189	H	0.811208	-0.538991	-0.562859
H190	H	1.311208	-0.038991	-0.062859
H191	H	0.123040	-0.539095	-0.396443
H192	H	0.623040	-0.039095	0.103557
F193	F	0.818754	-1.101860	-0.388926
F194	F	1.318754	-0.601860	0.111074
F195	F	0.123799	-0.314976	-0.232331
F196	F	0.623799	0.185024	0.267669
F197	F	0.984279	-1.101668	-0.223701
F198	F	1.484279	-0.601668	0.276299
