data_functionalizedCrystal
_audit_creation_method	'MofGen! by Chris Wilmer'
_symmetry_space_group_name_H-M	'P1'
_symmetry_Int_Tables_number	1
_symmetry_cell_setting	triclinic
loop_
_symmetry_equiv_pos_as_xyz
  x,y,z
_cell_length_a	17.077404
_cell_length_b	13.032721
_cell_length_c	17.077396
_cell_angle_alpha	97.153695
_cell_angle_beta	89.980499
_cell_angle_gamma	97.204757
loop_
_atom_site_label
_atom_site_type_symbol
_atom_site_fract_x
_atom_site_fract_y
_atom_site_fract_z
Zn1	Zn	1.160375	-0.416035	-0.483523
Zn2	Zn	1.660375	0.083965	0.016477
Zn3	Zn	1.143613	-0.590801	-0.368926
Zn4	Zn	1.643613	-0.090801	0.131074
Zn5	Zn	1.029103	-0.416072	-0.352275
Zn6	Zn	1.529103	0.083928	0.147725
Zn7	Zn	1.012412	-0.590739	-0.500144
Zn8	Zn	1.512412	-0.090739	-0.000144
O9	O	1.086376	-0.503412	-0.426217
O10	O	1.586376	-0.003412	0.073783
O11	O	1.267997	-0.439229	-0.468335
O12	O	1.767997	0.060771	0.031665
O13	O	1.128394	-0.567664	-0.256874
O14	O	1.628394	-0.067664	0.243126
O15	O	1.060517	-0.269828	-0.355761
O16	O	1.560517	0.230172	0.144239
O17	O	1.255683	-0.567629	-0.384141
O18	O	1.755683	-0.067629	0.115859
O19	O	1.156961	-0.269801	-0.452188
O20	O	1.656961	0.230199	0.047812
O21	O	1.044264	-0.439292	-0.244641
O22	O	1.544264	0.060708	0.255359
O23	O	0.917043	-0.439231	-0.371877
O24	O	1.417043	0.060769	0.128123
O25	O	1.032069	-0.567523	-0.607782
O26	O	1.532069	-0.067523	-0.107782
O27	O	0.904780	-0.567559	-0.480516
O28	O	1.404780	-0.067559	0.019484
O29	O	1.140777	-0.439169	-0.595571
O30	O	1.640777	0.060831	-0.095571
O31	O	1.112209	-0.737032	-0.400257
O32	O	1.612209	-0.237032	0.099743
O33	O	1.015816	-0.736987	-0.496662
O34	O	1.515816	-0.236987	0.003338
C35	C	0.882430	-0.503393	-0.426193
C36	C	1.382430	-0.003393	0.073807
C37	C	0.795178	-0.503410	-0.426204
C38	C	1.295178	-0.003410	0.073796
C39	C	0.747814	-0.570331	-0.482702
C40	C	1.247814	-0.070331	0.017298
C41	C	0.665833	-0.570333	-0.482715
C42	C	1.165833	-0.070333	0.017285
C43	C	0.631218	-0.503419	-0.426226
C44	C	1.131218	-0.003419	0.073774
C45	C	0.678589	-0.436491	-0.369726
C46	C	1.178589	0.063509	0.130274
C47	C	0.760569	-0.436484	-0.369717
C48	C	1.260569	0.063516	0.130283
C49	C	0.507717	-0.436512	-0.369747
C50	C	1.007717	0.063488	0.130253
C51	C	0.425732	-0.436519	-0.369754
C52	C	0.925732	0.063481	0.130246
C53	C	0.412982	-0.570361	-0.482744
C54	C	0.912982	-0.070361	0.017256
C55	C	0.494961	-0.570354	-0.482735
C56	C	0.994961	-0.070354	0.017265
C57	C	0.542326	-0.503427	-0.426234
C58	C	1.042326	-0.003427	0.073766
C59	C	1.060404	-0.774928	-0.452087
C60	C	1.560404	-0.274928	0.047913
C61	C	1.049365	-0.891083	-0.463180
C62	C	1.549365	-0.391083	0.036820
C63	C	1.092179	-0.942857	-0.420462
C64	C	1.592179	-0.442857	0.079538
C65	C	1.080770	-1.062910	-0.431927
C66	C	1.580770	-0.562910	0.068073
C67	C	1.291118	-0.503432	-0.426241
C68	C	1.791118	-0.003432	0.073759
C69	C	1.378367	-0.503440	-0.426251
C70	C	1.878367	-0.003440	0.073749
C71	C	1.086431	-0.503335	-0.630954
C72	C	1.586431	-0.003335	-0.130954
C73	C	1.086454	-0.503302	-0.718201
C74	C	1.586454	-0.003302	-0.218201
C75	C	1.112470	-0.230836	-0.400263
C76	C	1.612470	0.269164	0.099737
C77	C	1.123590	-0.114681	-0.389203
C78	C	1.623590	0.385319	0.110797
C79	C	1.143060	-0.436463	-0.752833
C80	C	1.643060	0.063537	-0.252833
C81	C	1.143073	-0.436428	-0.834811
C82	C	1.643073	0.063572	-0.334811
C83	C	1.086482	-0.503239	-0.882154
C84	C	1.586482	-0.003239	-0.382154
C85	C	1.029870	-0.570081	-0.847516
C86	C	1.529870	-0.070081	-0.347516
C87	C	1.029855	-0.570110	-0.765540
C88	C	1.529855	-0.070110	-0.265540
C89	C	1.029908	-0.570018	-1.018380
C90	C	1.529908	-0.070018	-0.518380
C91	C	1.029924	-0.569991	-1.100362
C92	C	1.529924	-0.069991	-0.600362
C93	C	1.143126	-0.436336	-1.087651
C94	C	1.643126	0.063664	-0.587651
C95	C	1.143111	-0.436365	-1.005675
C96	C	1.643111	0.063635	-0.505675
C97	C	1.086499	-0.503209	-0.971042
C98	C	1.586499	-0.003209	-0.471042
C99	C	1.086374	-0.503413	-0.222269
C100	C	1.586374	-0.003413	0.277731
C101	C	1.086530	-0.503152	-0.134995
C102	C	1.586530	-0.003152	0.365005
H103	H	0.374413	-0.624852	-0.528751
H104	H	0.874413	-0.124852	-0.028751
Cl105	Cl	1.011137	-1.131683	-0.501506
Cl106	Cl	1.511137	-0.631683	-0.001506
Cl107	Cl	1.161818	-0.874079	-0.350896
Cl108	Cl	1.661818	-0.374079	0.149104
Cl109	Cl	0.979735	-0.959861	-0.532756
Cl110	Cl	1.479735	-0.459861	-0.032756
Cl111	Cl	1.193232	-1.045910	-0.319632
Cl112	Cl	1.693232	-0.545910	0.180368
Cl113	Cl	1.214211	-0.352472	-0.693324
Cl114	Cl	1.714211	0.147528	-0.193324
H115	H	0.983753	-0.624527	-0.737343
H116	H	1.483753	-0.124527	-0.237343
Cl117	Cl	0.958772	-0.653972	-1.159878
Cl118	Cl	1.458772	-0.153972	-0.659878
H119	H	1.189169	-0.382003	-0.863004
H120	H	1.689169	0.117997	-0.363004
H121	H	1.189196	-0.381968	-0.967130
H122	H	1.689196	0.118032	-0.467130
Cl123	Cl	0.567261	-0.352373	-0.298715
Cl124	Cl	1.067261	0.147627	0.201285
Cl125	Cl	0.635073	-0.352363	-0.298715
Cl126	Cl	1.135073	0.147637	0.201285
Cl127	Cl	0.538476	-0.654483	-0.553746
Cl128	Cl	1.038476	-0.154483	-0.053746
H129	H	0.775990	-0.624824	-0.528699
H130	H	1.275990	-0.124824	-0.028699
Cl131	Cl	0.958724	-0.654069	-0.907034
Cl132	Cl	1.458724	-0.154069	-0.407034
Cl133	Cl	0.820113	-0.352349	-0.298690
Cl134	Cl	1.320113	0.147651	0.201310
Cl135	Cl	1.214296	-0.352305	-1.131188
Cl136	Cl	1.714296	0.147695	-0.631188
H137	H	0.627272	-0.624828	-0.528720
H138	H	1.127272	-0.124828	-0.028720
H139	H	0.397552	-0.382020	-0.323764
H140	H	0.897552	0.117980	0.176236
Cl141	Cl	0.958737	-0.654051	-0.974844
Cl142	Cl	1.458737	-0.154051	-0.474844
