data_functionalizedCrystal
_audit_creation_method	'MofGen! by Chris Wilmer'
_symmetry_space_group_name_H-M	'P1'
_symmetry_Int_Tables_number	1
_symmetry_cell_setting	triclinic
loop_
_symmetry_equiv_pos_as_xyz
  x,y,z
_cell_length_a	14.044191
_cell_length_b	14.044190
_cell_length_c	15.186229
_cell_angle_alpha	89.991383
_cell_angle_beta	89.999039
_cell_angle_gamma	93.191777
loop_
_atom_site_label
_atom_site_type_symbol
_atom_site_fract_x
_atom_site_fract_y
_atom_site_fract_z
O1	O	1.277177	0.230199	-0.073204
O2	O	1.777177	0.730199	0.426796
O3	O	1.000504	0.221887	-0.073215
O4	O	1.500504	0.721887	0.426785
O5	O	1.134684	0.087707	-0.073192
O6	O	1.634684	0.587707	0.426808
O7	O	1.142997	0.364379	-0.073227
O8	O	1.642997	0.864379	0.426773
O9	O	1.134674	0.087704	0.073265
O10	O	1.634674	0.587704	0.573265
O11	O	1.000494	0.221884	0.073242
O12	O	1.500494	0.721884	0.573242
O13	O	1.277167	0.230196	0.073253
O14	O	1.777167	0.730196	0.573253
Zn15	Zn	1.138829	0.226040	0.096501
Zn16	Zn	1.638829	0.726040	0.596501
Zn17	Zn	1.138842	0.226043	-0.096463
Zn18	Zn	1.638842	0.726043	0.403537
O19	O	1.142987	0.364376	0.073231
O20	O	1.642987	0.864376	0.573231
C21	C	0.964877	0.218249	0.000013
C22	C	1.464877	0.718249	0.500013
C23	C	0.858734	0.207401	0.000010
C24	C	1.358734	0.707401	0.500010
C25	C	1.131043	0.052083	0.000039
C26	C	1.631043	0.552083	0.500039
C27	C	1.120195	-0.054060	0.000046
C28	C	1.620195	0.445940	0.500046
C29	C	0.613277	0.264502	0.000011
C30	C	1.113277	0.764502	0.500011
C31	C	0.664400	0.187585	0.000019
C32	C	1.164400	0.687585	0.500019
C33	C	0.772537	0.198614	0.000014
C34	C	1.272537	0.698614	0.500014
C35	C	0.505130	0.253475	0.000017
C36	C	1.005130	0.753475	0.500017
C37	C	1.177296	-0.299517	0.000014
C38	C	1.677296	0.200483	0.500014
C39	C	1.100379	-0.248394	0.000017
C40	C	1.600379	0.251606	0.500017
C41	C	1.111408	-0.140257	0.000033
C42	C	1.611408	0.359743	0.500033
C43	C	1.166269	-0.407664	-0.000003
C44	C	1.666269	0.092336	0.499997
C45	C	1.312794	0.233834	0.000023
C46	C	1.812794	0.733834	0.500023
C47	C	1.418937	0.244682	0.000021
C48	C	1.918937	0.744682	0.500021
C49	C	1.146628	0.400000	-0.000002
C50	C	1.646628	0.900000	0.499998
C51	C	1.157476	0.506143	-0.000015
C52	C	1.657476	1.006143	0.499985
N53	N	1.138827	0.226037	0.228194
N54	N	1.638827	0.726037	0.728194
N55	N	1.138851	0.226039	-0.228155
N56	N	1.638851	0.726039	0.271845
C57	C	1.198266	0.166646	0.453926
C58	C	1.698266	0.666646	0.953926
C59	C	1.198269	0.166644	0.546116
C60	C	1.698269	0.666644	1.046116
C61	C	1.079405	0.285433	0.546105
C62	C	1.579405	0.785433	1.046105
C63	C	1.079398	0.285429	0.453917
C64	C	1.579398	0.785429	0.953917
C65	C	1.138834	0.226037	0.407830
C66	C	1.638834	0.726037	0.907830
C67	C	1.138844	0.226039	0.592208
C68	C	1.638844	0.726039	1.092208
C69	C	1.138846	0.226037	0.692164
C70	C	1.638846	0.726037	1.192164
C71	C	1.138830	0.226037	0.307868
C72	C	1.638830	0.726037	0.807868
H73	H	0.626955	0.113453	-0.000034
H74	H	1.126955	0.613453	0.499966
H75	H	0.650720	0.338629	-0.000001
H76	H	1.150720	0.838629	0.499999
H77	H	1.251423	-0.262074	0.000026
H78	H	1.751423	0.237926	0.500026
H79	H	1.026247	-0.285839	0.000009
H80	H	1.526247	0.214161	0.500009
O81	O	1.256021	0.108860	0.409293
O82	O	1.756021	0.608860	0.909293
C83	C	1.373952	-0.008927	0.419038
C84	C	1.873952	0.491073	0.919038
C85	C	1.308578	0.056457	0.469691
C86	C	1.808578	0.556457	0.969691
H87	H	1.416476	-0.051297	0.467848
H88	H	1.916476	0.448703	0.967848
H89	H	1.328740	-0.060193	0.375915
H90	H	1.828740	0.439807	0.875915
H91	H	1.425089	0.036363	0.375843
H92	H	1.925089	0.536363	0.875843
H93	H	1.257429	0.011243	0.512935
H94	H	1.757429	0.511243	1.012935
H95	H	1.353849	0.107727	0.512759
H96	H	1.853849	0.607727	1.012759
O97	O	1.255864	0.108848	0.590933
O98	O	1.755864	0.608848	1.090933
C99	C	1.265177	-0.019772	0.695071
C100	C	1.765177	0.480228	1.195071
C101	C	1.199838	0.045608	0.644356
C102	C	1.699838	0.545608	1.144356
H103	H	1.219909	-0.070904	0.738290
H104	H	1.719909	0.429096	1.238290
H105	H	1.307634	-0.062290	0.646332
H106	H	1.807634	0.437710	1.146332
H107	H	1.316376	0.025529	0.738183
H108	H	1.816376	0.525529	1.238183
H109	H	1.148584	0.000379	0.601243
H110	H	1.648584	0.500379	1.101243
H111	H	1.157449	0.088131	0.693143
H112	H	1.657449	0.588131	1.193143
H113	H	1.031016	0.333790	0.583639
H114	H	1.531016	0.833790	1.083639
H115	H	1.030997	0.333793	0.416383
H116	H	1.530997	0.833793	0.916383
