data_functionalizedCrystal
_audit_creation_method	'MofGen! by Chris Wilmer'
_symmetry_space_group_name_H-M	'P1'
_symmetry_Int_Tables_number	1
_symmetry_cell_setting	triclinic
loop_
_symmetry_equiv_pos_as_xyz
  x,y,z
_cell_length_a	19.121241
_cell_length_b	18.101395
_cell_length_c	18.101389
_cell_angle_alpha	89.983159
_cell_angle_beta	87.537002
_cell_angle_gamma	92.465429
loop_
_atom_site_label
_atom_site_type_symbol
_atom_site_fract_x
_atom_site_fract_y
_atom_site_fract_z
Zn1	Zn	1.073726	-0.246717	-0.467123
Zn2	Zn	1.573726	0.253283	0.032877
Zn3	Zn	1.073627	-0.370548	-0.343280
Zn4	Zn	1.573627	0.129452	0.156720
Zn5	Zn	0.956272	-0.251991	-0.338003
Zn6	Zn	1.456272	0.248009	0.161997
Zn7	Zn	0.956226	-0.375795	-0.461790
Zn8	Zn	1.456226	0.124205	0.038210
O9	O	1.014963	-0.311263	-0.402549
O10	O	1.514963	0.188737	0.097451
O11	O	1.172000	-0.258740	-0.455135
O12	O	1.672000	0.241260	0.044865
O13	O	1.058038	-0.354832	-0.238946
O14	O	1.558038	0.145168	0.261054
O15	O	0.971914	-0.147656	-0.355154
O16	O	1.471914	0.352344	0.144846
O17	O	1.171928	-0.349718	-0.364148
O18	O	1.671928	0.150282	0.135852
O19	O	1.058206	-0.143781	-0.450018
O20	O	1.558206	0.356219	0.049982
O21	O	0.971818	-0.267729	-0.235069
O22	O	1.471818	0.232271	0.264931
O23	O	0.857979	-0.272818	-0.349983
O24	O	1.357979	0.227182	0.150017
O25	O	0.971834	-0.358662	-0.566131
O26	O	1.471834	0.141338	-0.066131
O27	O	0.857944	-0.363776	-0.440929
O28	O	1.357944	0.136224	0.059071
O29	O	1.058161	-0.263829	-0.570049
O30	O	1.558161	0.236171	-0.070049
O31	O	1.057993	-0.474879	-0.358977
O32	O	1.557993	0.025121	0.141023
O33	O	0.971738	-0.478735	-0.446046
O34	O	1.471738	0.021265	0.053954
C35	C	1.014869	-0.503678	-0.402523
C36	C	1.514869	-0.003678	0.097477
C37	C	1.014893	-0.585991	-0.402539
C38	C	1.514893	-0.085991	0.097461
C39	C	0.832477	-0.319439	-0.394306
C40	C	1.332477	0.180561	0.105694
C41	C	0.754409	-0.322954	-0.390797
C42	C	1.254409	0.177046	0.109203
C43	C	1.015047	-0.885075	-0.402586
C44	C	1.515047	-0.385075	0.097414
C45	C	0.960904	-0.856200	-0.457515
C46	C	1.460904	-0.356200	0.042485
C47	C	0.960647	-0.770594	-0.457324
C48	C	1.460647	-0.270594	0.042676
C49	C	1.014970	-0.736696	-0.402564
C50	C	1.514970	-0.236696	0.097436
C51	C	0.994931	-0.768732	-0.323611
C52	C	1.494931	-0.268732	0.176389
C53	C	0.994582	-0.854393	-0.323939
C54	C	1.494582	-0.354393	0.176061
C55	C	1.089348	-0.850087	-0.425928
C56	C	1.589348	-0.350087	0.074072
C57	C	1.088911	-0.764456	-0.427620
C58	C	1.588911	-0.264456	0.072380
C59	C	1.014928	-0.652838	-0.402546
C60	C	1.514928	-0.152838	0.097454
C61	C	1.015087	-0.968932	-0.402598
C62	C	1.515087	-0.468932	0.097402
C63	C	0.717770	-0.277314	-0.436592
C64	C	1.217770	0.222686	0.063408
C65	C	0.644417	-0.280614	-0.433289
C66	C	1.144417	0.219386	0.066711
C67	C	0.607703	-0.329558	-0.384193
C68	C	1.107703	0.170442	0.115807
C69	C	0.644346	-0.375200	-0.338392
C70	C	1.144346	0.124800	0.161608
C71	C	0.717698	-0.371896	-0.341692
C72	C	1.217698	0.128104	0.158308
C73	C	0.386225	-0.341896	-0.371851
C74	C	0.886225	0.158104	0.128149
C75	C	0.312868	-0.345198	-0.368556
C76	C	0.812868	0.154802	0.131444
C77	C	0.312943	-0.250611	-0.463452
C78	C	0.812943	0.249389	0.036548
C79	C	0.386297	-0.247314	-0.466751
C80	C	0.886297	0.252686	0.033249
C81	C	0.422934	-0.292953	-0.420948
C82	C	0.922934	0.207047	0.079052
C83	C	0.532724	-0.332934	-0.380817
C84	C	1.032724	0.167066	0.119183
C85	C	0.497912	-0.289574	-0.424321
C86	C	0.997912	0.210426	0.075679
C87	C	1.198161	-0.303055	-0.410825
C88	C	1.698161	0.196945	0.089175
C89	C	1.276230	-0.299558	-0.414352
C90	C	1.776230	0.200442	0.085648
C91	C	1.015003	-0.311242	-0.595713
C92	C	1.515003	0.188758	-0.095713
C93	C	1.015021	-0.311234	-0.678028
C94	C	1.515021	0.188766	-0.178028
C95	C	1.015076	-0.118096	-0.402592
C96	C	1.515076	0.381904	0.097408
C97	C	1.015125	-0.035780	-0.402610
C98	C	1.515125	0.464220	0.097390
C99	C	1.015062	-0.311093	-0.977121
C100	C	1.515062	0.188907	-0.477121
C101	C	0.960560	-0.370586	-0.943322
C102	C	1.460560	0.129414	-0.443322
C103	C	0.960707	-0.370844	-0.857710
C104	C	1.460707	0.129156	-0.357710
C105	C	1.015041	-0.311163	-0.828737
C106	C	1.515041	0.188837	-0.328737
C107	C	1.089041	-0.329026	-0.863170
C108	C	1.589041	0.170974	-0.363170
C109	C	1.088738	-0.329414	-0.948802
C110	C	1.588738	0.170586	-0.448802
C111	C	0.996206	-0.233582	-0.944695
C112	C	1.496206	0.266418	-0.444695
C113	C	0.994559	-0.234108	-0.858970
C114	C	1.494559	0.265892	-0.358970
C115	C	1.015033	-0.311201	-0.744877
C116	C	1.515033	0.188799	-0.244877
C117	C	1.015074	-0.311057	-1.060981
C118	C	1.515074	0.188943	-0.560981
C119	C	1.014963	-0.311228	-0.210138
C120	C	1.514963	0.188772	0.289862
C121	C	1.015082	-0.311022	-0.127830
C122	C	1.515082	0.188978	0.372170
H123	H	0.973184	-0.748978	-0.515762
H124	H	1.473184	-0.248978	-0.015762
C125	C	1.111009	-0.404603	-0.835199
C126	C	1.611009	0.095397	-0.335199
N127	N	1.127551	-0.461531	-0.814132
N128	N	1.627551	0.038469	-0.314132
C129	C	0.758000	-0.422106	-0.291315
C130	C	1.258000	0.077894	0.208685
N131	N	0.788354	-0.459924	-0.253368
N132	N	1.288354	0.040076	0.246632
C133	C	0.758149	-0.223470	-0.490601
C134	C	1.258149	0.276530	0.009399
N135	N	0.788560	-0.182911	-0.531280
N136	N	1.288560	0.317089	-0.031280
H137	H	1.130740	-0.286910	-0.844698
H138	H	1.630740	0.213090	-0.344698
C139	C	0.886574	-0.356260	-0.825961
C140	C	1.386574	0.143740	-0.325961
N141	N	0.830734	-0.345278	-0.802051
N142	N	1.330734	0.154722	-0.302051
C143	C	0.924569	-0.210727	-0.970627
C144	C	1.424569	0.289273	-0.470627
N145	N	0.870608	-0.193522	-0.990158
N146	N	1.370608	0.306478	-0.490158
H147	H	0.941193	-0.749756	-0.303950
H148	H	1.441193	-0.249756	0.196050
H149	H	0.905520	-0.359935	-0.961433
H150	H	1.405520	0.140065	-0.461433
C151	C	0.977216	-0.447827	-0.973142
C152	C	1.477216	0.052173	-0.473142
N153	N	0.989767	-0.506006	-0.995599
N154	N	1.489767	-0.006006	-0.495599
C155	C	0.921003	-0.215809	-0.828165
C156	C	1.421003	0.284191	-0.328165
N157	N	0.865605	-0.202022	-0.804947
N158	N	1.365605	0.297978	-0.304947
H159	H	0.283106	-0.213453	-0.500741
H160	H	0.783106	0.286547	-0.000741
H161	H	1.129686	-0.868519	-0.385962
H162	H	1.629686	-0.368519	0.114038
H163	H	0.973317	-0.876202	-0.516135
H164	H	1.473317	-0.376202	-0.016135
H165	H	0.614448	-0.415048	-0.298414
H166	H	1.114448	0.084952	0.201586
C167	C	0.886951	-0.888668	-0.436512
C168	C	1.386951	-0.388668	0.063488
N169	N	0.831250	-0.913121	-0.420687
N170	N	1.331250	-0.413121	0.079313
H171	H	0.905573	-0.752640	-0.441599
H172	H	1.405573	-0.252640	0.058401
H173	H	0.416184	-0.207461	-0.506733
H174	H	0.916184	0.292539	-0.006733
H175	H	0.527807	-0.249720	-0.464291
H176	H	1.027807	0.250280	0.035709
H177	H	1.130722	-0.287783	-0.971429
H178	H	1.630722	0.212217	-0.471429
C179	C	0.604118	-0.230408	-0.483670
C180	C	1.104118	0.269592	0.016330
N181	N	0.573766	-0.192590	-0.521620
N182	N	1.073766	0.307410	-0.021620
H183	H	1.035902	-0.189297	-0.966754
H184	H	1.535902	0.310703	-0.466754
H185	H	0.973156	-0.428366	-0.837789
H186	H	1.473156	0.071634	-0.337789
H187	H	0.940269	-0.876870	-0.304555
H188	H	1.440269	-0.376870	0.195445
C189	C	1.110327	-0.405829	-0.976773
C190	C	1.610327	0.094171	-0.476773
N191	N	1.126585	-0.463389	-0.997837
N192	N	1.626585	0.036611	-0.497837
C193	C	1.045538	-0.880085	-0.266514
C194	C	1.545538	-0.380085	0.233486
N195	N	1.083913	-0.899434	-0.223258
N196	N	1.583913	-0.399434	0.276742
C197	C	1.046525	-0.738882	-0.266613
C198	C	1.546525	-0.238882	0.233387
N199	N	1.085386	-0.716395	-0.223682
N200	N	1.585386	-0.216395	0.276318
C201	C	0.492331	-0.386775	-0.326816
C202	C	0.992331	0.113225	0.173184
N203	N	0.461905	-0.427327	-0.286142
N204	N	0.961905	0.072673	0.213858
H205	H	1.031359	-0.187697	-0.839239
H206	H	1.531359	0.312303	-0.339239
H207	H	0.282977	-0.385058	-0.328576
H208	H	0.782977	0.114942	0.171424
H209	H	1.104023	-0.743425	-0.485741
H210	H	1.604023	-0.243425	0.014259
C211	C	1.114028	-0.878099	-0.502621
C212	C	1.614028	-0.378099	-0.002621
N213	N	1.132609	-0.899197	-0.560389
N214	N	1.632609	-0.399197	-0.060389
H215	H	0.416046	-0.379060	-0.334556
H216	H	0.916046	0.120940	0.165444
C217	C	1.146292	-0.732947	-0.377869
C218	C	1.646292	-0.232947	0.122131
N219	N	1.189510	-0.709216	-0.340390
N220	N	1.689510	-0.209216	0.159610
