data_functionalizedCrystal
_audit_creation_method	'MofGen! by Chris Wilmer'
_symmetry_space_group_name_H-M	'P1'
_symmetry_Int_Tables_number	1
_symmetry_cell_setting	triclinic
loop_
_symmetry_equiv_pos_as_xyz
  x,y,z
_cell_length_a	12.759401
_cell_length_b	29.839131
_cell_length_c	29.839125
_cell_angle_alpha	89.974637
_cell_angle_beta	89.990937
_cell_angle_gamma	90.035390
loop_
_atom_site_label
_atom_site_type_symbol
_atom_site_fract_x
_atom_site_fract_y
_atom_site_fract_z
Zn1	Zn	1.606008	-0.178914	-0.253946
Zn2	Zn	1.605868	-0.254026	-0.178806
Zn3	Zn	1.430339	-0.178911	-0.178833
Zn4	Zn	1.430235	-0.254018	-0.253912
O5	O	1.518112	-0.216468	-0.216374
O6	O	1.753010	-0.188883	-0.243982
O7	O	1.582568	-0.244064	-0.115943
O8	O	1.453743	-0.116045	-0.188822
O9	O	1.752907	-0.244067	-0.188777
O10	O	1.582806	-0.116047	-0.244008
O11	O	1.453608	-0.188878	-0.115962
O12	O	1.283304	-0.188870	-0.188789
O13	O	1.453567	-0.244053	-0.316783
O14	O	1.283228	-0.244051	-0.243949
O15	O	1.582706	-0.188875	-0.316809
O16	O	1.582468	-0.316892	-0.188743
O17	O	1.453432	-0.316887	-0.243923
C18	C	1.245145	-0.216459	-0.216368
C19	C	1.128368	-0.216467	-0.216376
C20	C	1.073494	-0.245245	-0.245051
C21	C	0.963770	-0.245251	-0.245055
C22	C	0.963804	-0.187698	-0.187708
C23	C	1.073526	-0.187691	-0.187706
C24	C	1.073474	-0.278474	-0.278158
C25	C	0.963750	-0.278480	-0.278163
C26	C	1.517952	-0.333190	-0.216336
C27	C	1.517980	-0.383125	-0.216335
C28	C	1.585301	-0.692734	-0.245150
C29	C	1.585415	-0.880407	-0.245177
O30	O	1.642497	-0.904643	-0.269649
N31	N	1.518291	-0.903910	-0.216424
C32	C	1.451128	-0.880491	-0.187664
O33	O	1.394030	-0.904787	-0.163212
C34	C	1.451010	-0.692819	-0.187640
C35	C	1.518146	-0.669319	-0.216392
C36	C	1.652431	-0.669234	-0.273900
C37	C	1.652406	-0.622319	-0.273891
C38	C	1.585251	-0.598903	-0.245133
C39	C	1.518121	-0.622403	-0.216383
C40	C	1.383843	-0.669401	-0.158882
C41	C	1.383817	-0.622480	-0.158880
C42	C	1.450953	-0.598980	-0.187632
C43	C	1.450941	-0.552072	-0.187615
N44	N	1.518065	-0.528570	-0.216369
C45	C	1.585220	-0.551986	-0.245127
C46	C	1.451197	-0.979022	-0.187678
C47	C	1.451228	-1.025939	-0.187684
C48	C	1.585513	-1.025852	-0.245198
C49	C	1.585487	-0.978934	-0.245190
C50	C	1.518321	-0.955519	-0.216432
C51	C	1.585163	-0.453460	-0.245107
C52	C	1.585135	-0.406540	-0.245094
C53	C	1.450846	-0.406631	-0.187582
C54	C	1.450877	-0.453547	-0.187593
C55	C	1.518039	-0.476960	-0.216359
O56	O	1.393880	-0.527807	-0.163160
O57	O	1.642293	-0.527681	-0.269583
C58	C	1.585326	-0.739650	-0.245159
C59	C	1.518196	-0.763150	-0.216409
C60	C	1.451041	-0.739734	-0.187651
C61	C	1.518227	-0.810068	-0.216415
C62	C	1.585382	-0.833483	-0.245173
C63	C	1.652506	-0.809981	-0.273927
C64	C	1.652481	-0.763065	-0.273918
C65	C	1.383917	-0.763237	-0.158897
C66	C	1.383948	-0.810152	-0.158908
C67	C	1.451103	-0.833568	-0.187667
C68	C	1.792146	-0.216476	-0.216381
C69	C	1.908922	-0.216480	-0.216383
C70	C	1.518141	-0.216464	-0.333553
C71	C	1.518153	-0.216462	-0.383487
C72	C	1.518302	-0.099289	-0.216422
C73	C	1.518383	-0.049355	-0.216442
C74	C	1.585466	-0.187655	-0.693147
C75	C	1.585518	-0.187617	-0.880820
O76	O	1.642673	-0.163167	-0.905099
N77	N	1.518292	-0.216342	-0.904272
C78	C	1.451043	-0.245076	-0.880804
O79	O	1.393857	-0.269504	-0.905058
C80	C	1.450987	-0.245112	-0.693131
C81	C	1.518225	-0.216388	-0.669681
C82	C	1.652698	-0.158934	-0.669697
C83	C	1.652689	-0.158945	-0.622781
C84	C	1.585447	-0.187678	-0.599316
C85	C	1.518215	-0.216400	-0.622766
C86	C	1.383733	-0.273843	-0.669663
C87	C	1.383723	-0.273849	-0.622742
C88	C	1.450961	-0.245125	-0.599292
C89	C	1.450964	-0.245144	-0.552385
N90	N	1.518190	-0.216420	-0.528933
C91	C	1.585432	-0.187687	-0.552398
C92	C	1.451079	-0.245056	-0.979334
C93	C	1.451094	-0.245047	-1.026252
C94	C	1.585569	-0.187588	-1.026265
C95	C	1.585558	-0.187599	-0.979347
C96	C	1.518305	-0.216331	-0.955882
C97	C	1.585407	-0.187713	-0.453872
C98	C	1.585394	-0.187729	-0.406953
C99	C	1.450917	-0.245187	-0.406943
C100	C	1.450933	-0.245173	-0.453859
C101	C	1.518181	-0.216433	-0.477322
O102	O	1.393831	-0.269578	-0.528077
O103	O	1.642593	-0.163255	-0.528136
C104	C	1.585476	-0.187644	-0.740062
C105	C	1.518244	-0.216365	-0.763512
C106	C	1.451003	-0.245098	-0.740047
C107	C	1.518259	-0.216357	-0.810430
C108	C	1.585501	-0.187624	-0.833896
C109	C	1.652727	-0.158899	-0.810443
C110	C	1.652718	-0.158911	-0.763528
C111	C	1.383776	-0.273823	-0.763499
C112	C	1.383792	-0.273809	-0.810415
C113	C	1.451034	-0.245076	-0.833880
C114	C	1.518144	-0.216439	-0.099652
C115	C	1.518336	-0.216314	-0.049718
H116	H	1.107465	-0.311503	-0.265628
H117	H	1.396174	-0.268582	-0.387829
H118	H	1.329119	-0.603418	-0.135462
H119	H	1.103277	-0.269208	-0.312971
O120	O	1.718062	-0.130964	-0.740821
C121	C	1.777423	-0.105613	-0.771602
H122	H	1.734392	-0.104054	-0.805044
H123	H	1.788686	-0.070218	-0.758059
H124	H	1.857190	-0.122066	-0.776591
O125	O	1.717682	-0.832683	-0.301928
C126	C	1.694613	-0.821211	-0.346693
H127	H	1.654222	-0.787156	-0.347605
H128	H	1.770397	-0.819575	-0.366870
H129	H	1.640569	-0.847624	-0.361802
O130	O	0.923231	-0.263749	-0.317661
C131	C	0.957462	-0.291807	-0.352732
H132	H	0.979955	-0.325947	-0.338536
H133	H	0.891651	-0.296088	-0.378211
H134	H	1.028459	-0.276075	-0.369807
O135	O	0.928287	-0.320005	-0.267015
C136	C	0.965170	-0.351493	-0.298497
H137	H	1.038588	-0.337865	-0.315502
H138	H	0.984687	-0.384235	-0.280663
H139	H	0.902061	-0.357842	-0.324785
O140	O	1.318374	-0.301728	-0.833122
C141	C	1.259045	-0.327096	-0.802344
H142	H	1.255445	-0.308701	-0.768903
H143	H	1.176257	-0.331879	-0.815891
H144	H	1.297455	-0.361220	-0.797349
O145	O	1.318312	-0.301757	-0.692366
C146	C	1.258982	-0.327121	-0.661584
H147	H	1.255387	-0.308722	-0.628146
H148	H	1.176192	-0.331903	-0.675130
H149	H	1.297388	-0.361245	-0.656587
H150	H	1.640152	-0.164339	-0.387862
O151	O	1.318283	-0.301699	-0.599932
C152	C	1.250471	-0.276131	-0.572787
H153	H	1.244044	-0.240743	-0.586928
H154	H	1.169591	-0.292378	-0.572255
H155	H	1.282942	-0.274598	-0.537228
O156	O	1.650384	-0.383782	-0.273069
C157	C	1.709675	-0.414514	-0.298446
H158	H	1.666654	-0.447973	-0.299989
H159	H	1.720815	-0.400934	-0.333845
H160	H	1.789499	-0.419486	-0.282026
O161	O	1.650900	-0.159652	-0.956639
C162	C	1.710269	-0.134302	-0.987417
H163	H	1.667246	-0.132743	-1.020861
H164	H	1.721531	-0.098907	-0.973875
H165	H	1.790036	-0.150756	-0.992403
H166	H	1.640154	-0.959803	-0.268602
O167	O	1.126782	-0.159779	-0.159791
C168	C	1.099919	-0.169516	-0.114995
H169	H	1.069722	-0.205405	-0.112651
H170	H	1.172069	-0.165601	-0.092807
H171	H	1.036246	-0.145416	-0.103306
O172	O	1.385742	-0.272892	-1.049079
C173	C	1.317912	-0.247311	-1.076217
H174	H	1.355018	-0.213264	-1.083258
H175	H	1.303814	-0.265606	-1.109204
H176	H	1.240056	-0.242376	-1.058136
H177	H	1.396192	-0.268566	-0.472953
O178	O	1.717523	-0.691996	-0.301885
C179	C	1.657699	-0.719152	-0.330881
H180	H	1.574932	-0.705050	-0.333626
H181	H	1.695649	-0.719643	-0.365467
H182	H	1.654140	-0.754721	-0.316998
O183	O	1.717803	-0.740220	-0.301786
C184	C	1.785679	-0.713062	-0.276236
H185	H	1.792237	-0.727215	-0.240855
H186	H	1.866504	-0.712496	-0.292516
H187	H	1.753186	-0.677515	-0.274675
H188	H	0.919138	-0.164269	-0.164366
O189	O	1.717894	-0.130938	-0.833262
C190	C	1.658118	-0.101926	-0.860413
H191	H	1.575377	-0.099153	-0.846268
H192	H	1.696166	-0.067352	-0.860959
H193	H	1.654477	-0.115811	-0.895967
H194	H	1.639845	-0.472517	-0.268534
O195	O	1.318672	-0.833025	-0.131039
C196	C	1.250767	-0.860160	-0.156601
H197	H	1.287779	-0.867159	-0.190658
H198	H	1.236713	-0.893168	-0.138302
H199	H	1.172901	-0.842098	-0.161511
H200	H	1.329020	-0.297222	-0.744398
H201	H	1.640164	-0.164309	-0.472970
O202	O	1.717650	-0.599564	-0.301866
C203	C	1.776938	-0.630300	-0.327240
H204	H	1.733913	-0.663758	-0.328779
H205	H	1.788079	-0.616724	-0.362640
H206	H	1.856761	-0.635271	-0.310819
O207	O	1.318651	-0.740564	-0.130915
C208	C	1.259400	-0.771374	-0.105550
H209	H	1.302460	-0.804803	-0.104024
H210	H	1.248252	-0.757850	-0.070144
H211	H	1.179579	-0.776382	-0.121970
O212	O	1.650692	-1.048553	-0.273199
C213	C	1.627618	-1.037083	-0.317964
H214	H	1.587218	-1.003030	-0.318876
H215	H	1.703401	-1.035443	-0.338142
H216	H	1.573580	-1.063499	-0.333073
O217	O	1.385921	-1.048695	-0.159736
C218	C	1.326664	-1.017961	-0.134347
H219	H	1.322983	-0.984509	-0.152745
H220	H	1.243900	-1.031548	-0.129525
H221	H	1.365191	-1.012975	-0.100241
O222	O	1.385712	-0.273011	-0.956613
C223	C	1.326369	-0.298350	-0.987379
H224	H	1.369423	-0.299898	-1.020821
H225	H	1.315093	-0.333750	-0.973818
H226	H	1.246608	-0.281894	-0.992376
H227	H	1.707439	-0.135555	-0.603693
H228	H	1.707455	-0.135534	-0.688798
O229	O	1.385569	-0.476308	-0.159647
C230	C	1.326315	-0.445577	-0.134253
H231	H	1.322638	-0.412121	-0.152645
H232	H	1.243549	-0.459163	-0.129434
H233	H	1.364841	-0.440598	-0.100145
O234	O	1.650731	-0.159624	-1.049083
C235	C	1.590949	-0.130615	-1.076235
H236	H	1.508205	-0.127847	-1.062091
H237	H	1.628985	-0.096039	-1.076779
H238	H	1.587316	-0.144499	-1.111789
O239	O	1.386099	-0.956230	-0.159717
C240	C	1.445945	-0.929093	-0.130710
H241	H	1.525529	-0.922020	-0.146585
H242	H	1.403132	-0.896123	-0.124665
H243	H	1.457564	-0.947193	-0.097427
H244	H	1.396172	-0.387559	-0.164165
O245	O	1.318522	-0.692152	-0.130940
C246	C	1.259266	-0.661415	-0.105554
H247	H	1.255598	-0.627962	-0.123953
H248	H	1.176497	-0.674997	-0.100737
H249	H	1.297784	-0.656430	-0.071446
