data_functionalizedCrystal
_audit_creation_method	'MofGen! by Chris Wilmer'
_symmetry_space_group_name_H-M	'P1'
_symmetry_Int_Tables_number	1
_symmetry_cell_setting	triclinic
loop_
_symmetry_equiv_pos_as_xyz
  x,y,z
_cell_length_a	17.000371
_cell_length_b	17.019294
_cell_length_c	13.596369
_cell_angle_alpha	86.115041
_cell_angle_beta	89.994129
_cell_angle_gamma	79.505866
loop_
_atom_site_label
_atom_site_type_symbol
_atom_site_fract_x
_atom_site_fract_y
_atom_site_fract_z
O1	O	1.056071	0.028428	-0.084203
O2	O	1.556071	0.528428	0.415797
O3	O	0.824306	0.057061	-0.086628
O4	O	1.324306	0.557061	0.413372
O5	O	0.946654	-0.072537	-0.075647
O6	O	1.446654	0.427463	0.424353
O7	O	0.933723	0.158026	-0.095184
O8	O	1.433723	0.658026	0.404816
O9	O	0.946642	-0.072543	0.087936
O10	O	1.446642	0.427457	0.587936
O11	O	0.824294	0.057055	0.076955
O12	O	1.324294	0.557055	0.576955
O13	O	1.056059	0.028423	0.079381
O14	O	1.556059	0.528423	0.579381
Zn15	Zn	0.940174	0.042738	0.104140
Zn16	Zn	1.440174	0.542738	0.604140
Zn17	Zn	0.940190	0.042745	-0.111388
Zn18	Zn	1.440190	0.542745	0.388612
O19	O	0.933711	0.158020	0.068399
O20	O	1.433711	0.658020	0.568399
C21	C	0.794644	0.058596	-0.004967
C22	C	1.294644	0.558596	0.495033
C23	C	0.706281	0.063169	-0.005355
C24	C	1.206281	0.563169	0.494645
C25	C	0.674335	-0.007205	0.000610
C26	C	1.174335	0.492795	0.500610
C27	C	0.591307	-0.002903	0.000239
C28	C	1.091307	0.497097	0.500239
C29	C	0.540226	0.071773	-0.006091
C30	C	1.040226	0.571773	0.493909
C31	C	0.572177	0.142152	-0.012059
C32	C	1.072177	0.642152	0.487941
C33	C	0.655204	0.137849	-0.011695
C34	C	1.155204	0.637849	0.488305
C35	C	0.289062	0.088391	-0.007506
C36	C	0.789062	0.588391	0.492494
C37	C	0.206030	0.092688	-0.007867
C38	C	0.706030	0.592688	0.492133
C39	C	0.225166	-0.052367	0.004429
C40	C	0.725166	0.447633	0.504429
C41	C	0.308193	-0.056663	0.004799
C42	C	0.808193	0.443337	0.504799
C43	C	0.340136	0.013716	-0.001174
C44	C	0.840136	0.513716	0.498826
C45	C	0.455358	0.076171	-0.006468
C46	C	0.955358	0.576171	0.493532
C47	C	0.425003	0.009316	-0.000804
C48	C	0.925003	0.509316	0.499196
C49	C	0.946157	-0.101895	0.008630
C50	C	1.446157	0.398105	0.508630
C51	C	0.944686	-0.189363	0.016035
C52	C	1.444686	0.310637	0.516035
C53	C	0.944004	-0.230449	-0.069654
C54	C	1.444004	0.269551	0.430346
C55	C	0.942616	-0.312634	-0.062693
C56	C	1.442616	0.187366	0.437307
C57	C	0.941918	-0.353733	0.029959
C58	C	1.441918	0.146267	0.529959
C59	C	0.942598	-0.312641	0.115655
C60	C	1.442598	0.187359	0.615655
C61	C	0.943979	-0.230457	0.108693
C62	C	1.443979	0.269543	0.608693
C63	C	0.937741	-0.601877	0.055442
C64	C	1.437741	-0.101877	0.555442
C65	C	0.936361	-0.684068	0.062398
C66	C	1.436361	-0.184068	0.562398
C67	C	0.936378	-0.684054	-0.115951
C68	C	1.436378	-0.184054	0.384049
C69	C	0.937765	-0.601869	-0.122905
C70	C	1.437765	-0.101869	0.377095
C71	C	0.938441	-0.560784	-0.037209
C72	C	1.438441	-0.060784	0.462791
C73	C	0.940502	-0.437740	0.037077
C74	C	1.440502	0.062260	0.537077
C75	C	0.939851	-0.476777	-0.044328
C76	C	1.439851	0.023223	0.455672
C77	C	1.085721	0.026888	-0.002283
C78	C	1.585721	0.526888	0.497717
C79	C	1.174084	0.022315	-0.001902
C80	C	1.674084	0.522315	0.498098
C81	C	0.934208	0.187378	-0.015880
C82	C	1.434208	0.687378	0.484120
C83	C	0.935679	0.274847	-0.023292
C84	C	1.435679	0.774847	0.476708
N85	N	0.940169	0.042732	0.251232
N86	N	1.440169	0.542732	0.751232
N87	N	0.940202	0.042745	-0.258480
N88	N	1.440202	0.542745	0.241520
C89	C	0.940189	0.042746	0.652522
C90	C	1.440189	0.542746	1.152522
C91	C	0.940181	0.042745	0.540871
C92	C	1.440181	0.542745	1.040871
C93	C	0.940180	0.042740	0.451881
C94	C	1.440180	0.542740	0.951881
C95	C	0.940171	0.042738	0.340223
C96	C	1.440171	0.542738	0.840223
H97	H	0.530581	0.202955	-0.017219
H98	H	1.030581	0.702955	0.482781
C99	C	1.013911	-0.151644	0.205492
C100	C	1.513911	0.348356	0.705492
C101	C	0.944728	-0.185294	0.202887
C102	C	1.444728	0.314706	0.702887
H103	H	1.014366	-0.123760	0.263644
H104	H	1.514366	0.376240	0.763644
H105	H	1.059762	-0.192935	0.205290
H106	H	1.559762	0.307065	0.705290
H107	H	1.014517	-0.115405	0.149313
H108	H	1.514517	0.384595	0.649313
H109	H	0.944125	-0.221538	0.259062
H110	H	1.444125	0.278462	0.759062
H111	H	0.898865	-0.143999	0.203098
H112	H	1.398865	0.356001	0.703098
C113	C	0.937631	-0.610112	-0.298496
C114	C	1.437631	-0.110112	0.201504
C115	C	0.938526	-0.556694	-0.224751
C116	C	1.438526	-0.056694	0.275249
H117	H	0.938098	-0.582220	-0.361372
H118	H	1.438098	-0.082220	0.138628
H119	H	0.983485	-0.651397	-0.291292
H120	H	1.483485	-0.151397	0.208708
H121	H	0.890693	-0.632936	-0.292847
H122	H	1.390693	-0.132936	0.207153
H123	H	0.985468	-0.533875	-0.230397
H124	H	1.485468	-0.033875	0.269603
H125	H	0.892667	-0.515394	-0.231959
H126	H	1.392667	-0.015394	0.268041
H127	H	0.413759	0.136973	-0.011620
H128	H	0.913759	0.636973	0.488380
H129	H	0.944577	-0.196993	-0.145101
H130	H	1.444577	0.303007	0.354899
H131	H	0.938307	-0.568438	0.125222
H132	H	1.438307	-0.068438	0.625222
H133	H	0.349778	-0.117473	0.009958
H134	H	0.849778	0.382527	0.509958
H135	H	0.565301	-0.060209	0.005095
H136	H	1.065301	0.439791	0.505095
C137	C	0.142908	-0.131678	-0.072948
C138	C	0.642908	0.368322	0.427052
C139	C	0.190052	-0.129725	0.010981
C140	C	0.690052	0.370275	0.510981
H141	H	0.121236	-0.179441	-0.068907
H142	H	0.621236	0.320559	0.431093
H143	H	0.100608	-0.086595	-0.076759
H144	H	0.600608	0.413405	0.423241
H145	H	0.174914	-0.130335	-0.130098
H146	H	0.674914	0.369665	0.369902
H147	H	0.158045	-0.131062	0.068132
H148	H	0.658045	0.368938	0.568132
H149	H	0.232358	-0.174821	0.014802
H150	H	0.732358	0.325179	0.514802
H151	H	0.940414	-0.443310	-0.119765
H152	H	1.440414	0.056690	0.380235
C153	C	0.529481	-0.079663	-0.077351
C154	C	1.029481	0.420337	0.422649
C155	C	0.481151	-0.072766	0.006154
C156	C	0.981151	0.427234	0.506154
H157	H	0.564152	-0.130335	-0.073047
H158	H	1.064152	0.369665	0.426953
H159	H	0.496698	-0.074981	-0.134782
H160	H	0.996698	0.425019	0.365218
H161	H	0.560380	-0.038357	-0.080846
H162	H	1.060380	0.461643	0.419154
H163	H	0.450247	-0.114069	0.009645
H164	H	0.950247	0.385931	0.509645
H165	H	0.513937	-0.077456	0.063600
H166	H	1.013937	0.422544	0.563600
H167	H	0.315060	0.145699	-0.012376
H168	H	0.815060	0.645699	0.487624
C169	C	0.164147	0.217649	-0.102568
C170	C	0.664147	0.717649	0.397432
C171	C	0.149875	0.174776	-0.014835
C172	C	0.649875	0.674776	0.485165
H173	H	0.129474	0.268320	-0.106870
H174	H	0.629474	0.768320	0.393130
H175	H	0.218157	0.225165	-0.103201
H176	H	0.718157	0.725165	0.396799
H177	H	0.154476	0.188539	-0.157135
H178	H	0.654476	0.688539	0.342865
H179	H	0.159552	0.203883	0.039732
H180	H	0.659552	0.703883	0.539732
H181	H	0.095852	0.167262	-0.014193
H182	H	0.595852	0.667262	0.485807
C183	C	1.010552	-0.351553	0.270967
C184	C	1.510552	0.148447	0.770967
C185	C	0.941830	-0.357812	0.217503
C186	C	1.441830	0.142188	0.717503
H187	H	1.010076	-0.379434	0.333848
H188	H	1.510076	0.120566	0.833848
H189	H	1.056716	-0.374255	0.236253
H190	H	1.556716	0.125745	0.736253
H191	H	1.011461	-0.296722	0.279073
H192	H	1.511461	0.203278	0.779073
H193	H	0.940923	-0.412642	0.209392
H194	H	1.440923	0.087358	0.709392
H195	H	0.895654	-0.335112	0.252226
H196	H	1.395654	0.164888	0.752226
H197	H	0.715920	-0.068015	0.005769
H198	H	1.215920	0.431985	0.505769
C199	C	1.009480	-0.418680	-0.157128
C200	C	1.509480	0.081320	0.342872
C201	C	0.941879	-0.357814	-0.156872
C202	C	1.441879	0.142186	0.343128
H203	H	1.009022	-0.446579	-0.215267
H204	H	1.509022	0.053421	0.284733
H205	H	1.056404	-0.395847	-0.155358
H206	H	1.556404	0.104153	0.344642
H207	H	1.008850	-0.454900	-0.100936
H208	H	1.508850	0.045100	0.399064
H209	H	0.942511	-0.321590	-0.213060
H210	H	1.442511	0.178410	0.286940
H211	H	0.894942	-0.380648	-0.158651
H212	H	1.394942	0.119352	0.341349
H213	H	0.935827	-0.717515	-0.185720
H214	H	1.435827	-0.217515	0.314280
C215	C	0.627955	0.281662	-0.023874
C216	C	1.127955	0.781662	0.476126
C217	C	0.690321	0.215207	-0.018247
C218	C	1.190321	0.715207	0.481753
H219	H	0.649636	0.329419	-0.027917
H220	H	1.149636	0.829419	0.472083
H221	H	0.595975	0.280324	-0.080802
H222	H	1.095975	0.780324	0.419198
H223	H	0.595965	0.280316	0.033289
H224	H	1.095965	0.780316	0.533289
H225	H	0.722308	0.216549	-0.075414
H226	H	1.222308	0.716549	0.424586
H227	H	0.722315	0.216545	0.038687
H228	H	1.222315	0.716545	0.538687
C229	C	0.936466	-0.675827	0.237997
C230	C	1.436466	-0.175827	0.737997
C231	C	0.935586	-0.729244	0.164248
C232	C	1.435586	-0.229244	0.664248
H233	H	0.935984	-0.703718	0.300870
H234	H	1.435984	-0.203718	0.800870
H235	H	0.983398	-0.653004	0.232364
H236	H	1.483398	-0.153004	0.732364
H237	H	0.890605	-0.634538	0.230780
H238	H	1.390605	-0.134538	0.730780
H239	H	0.981451	-0.770530	0.171461
H240	H	1.481451	-0.270530	0.671461
H241	H	0.888650	-0.752080	0.169884
H242	H	1.388650	-0.252080	0.669884
H243	H	0.939936	-0.471212	0.112514
H244	H	1.439936	0.028788	0.612514
