data_functionalizedCrystal
_audit_creation_method	'MofGen! by Chris Wilmer'
_symmetry_space_group_name_H-M	'P1'
_symmetry_Int_Tables_number	1
_symmetry_cell_setting	triclinic
loop_
_symmetry_equiv_pos_as_xyz
  x,y,z
_cell_length_a	16.625546
_cell_length_b	16.959455
_cell_length_c	16.959447
_cell_angle_alpha	90.014322
_cell_angle_beta	90.032216
_cell_angle_gamma	90.019415
loop_
_atom_site_label
_atom_site_type_symbol
_atom_site_fract_x
_atom_site_fract_y
_atom_site_fract_z
Zn1	Zn	-0.321051	1.208371	0.446898
Zn2	Zn	-0.455899	1.208288	0.314715
Zn3	Zn	-0.321077	1.076199	0.314736
Zn4	Zn	-0.455839	1.076158	0.446854
O5	O	-0.388466	1.142254	0.380801
O6	O	-0.338954	1.318970	0.429374
O7	O	-0.438050	1.190748	0.204107
O8	O	-0.208241	1.093784	0.332295
O9	O	-0.438026	1.318909	0.332260
O10	O	-0.208222	1.190890	0.429394
O11	O	-0.338997	1.093703	0.204122
O12	O	-0.338939	0.965583	0.332252
O13	O	-0.437923	1.093714	0.557471
O14	O	-0.437947	0.965553	0.429318
O15	O	-0.338895	1.190850	0.557503
O16	O	-0.568723	1.190709	0.332217
O17	O	-0.568679	1.093634	0.429298
C18	C	-0.388440	0.936888	0.380783
C19	C	-0.388448	0.849031	0.380794
C20	C	-0.597957	1.142179	0.380768
C21	C	-0.687578	1.142219	0.380780
C22	C	-0.336870	0.477547	0.330364
C23	C	-0.440129	0.477564	0.431283
C24	C	-0.440117	0.560110	0.431278
C25	C	-0.388482	0.601378	0.380815
C26	C	-0.336859	0.560100	0.330356
C27	C	-0.491746	0.601394	0.481731
C28	C	-0.491737	0.683945	0.481727
C29	C	-0.440097	0.725215	0.431267
C30	C	-0.388471	0.683932	0.380807
C31	C	-0.336836	0.725200	0.330343
C32	C	-0.285205	0.683918	0.279886
C33	C	-0.285219	0.601370	0.279895
C34	C	-0.440083	0.807763	0.431257
C35	C	-0.336824	0.807753	0.330335
C36	C	-1.015754	1.142357	0.380862
C37	C	-0.924445	1.142316	0.380842
C38	C	-0.851669	1.142288	0.380821
C39	C	-0.760355	1.142248	0.380801
C40	C	-0.178157	1.142351	0.380851
C41	C	-0.088536	1.142392	0.380873
C42	C	-0.388494	1.348422	0.380819
C43	C	-0.388505	1.436279	0.380827
C44	C	-0.388400	1.142287	0.586969
C45	C	-0.388371	1.142301	0.674826
C46	C	-0.388475	1.142267	0.175435
C47	C	-0.388276	1.142406	0.087578
C48	C	-0.439845	1.091821	1.046287
C49	C	-0.336727	1.192969	1.046316
C50	C	-0.336744	1.192948	0.963770
C51	C	-0.388313	1.142364	0.922479
C52	C	-0.439866	1.091800	0.963734
C53	C	-0.285199	1.243517	0.922509
C54	C	-0.285214	1.243498	0.839958
C55	C	-0.336780	1.192909	0.798666
C56	C	-0.388334	1.142343	0.839925
C57	C	-0.439903	1.091758	0.798634
C58	C	-0.491453	1.041187	0.839892
C59	C	-0.491431	1.041211	0.922441
C60	C	-0.336802	1.192886	0.716117
C61	C	-0.439923	1.091737	0.716080
H62	H	-0.243167	0.717529	0.238795
H63	H	-0.533777	0.717550	0.522813
C64	C	-0.280709	1.247974	1.091001
C65	C	-0.235580	1.292263	1.037202
C66	C	-0.183972	1.342949	1.078340
H67	H	-0.245498	1.217848	1.123220
H68	H	-0.311533	1.282452	1.123175
H69	H	-0.204759	1.257788	1.005042
H70	H	-0.270770	1.322404	1.004981
H71	H	-0.214795	1.377427	1.110513
H72	H	-0.148766	1.312817	1.110557
H73	H	-0.153351	1.373010	1.041843
H74	H	-0.482122	0.841371	0.472336
H75	H	-0.243185	0.567751	0.238815
H76	H	-0.481814	1.050645	1.079883
H77	H	-0.243219	1.284705	0.956135
H78	H	-0.243239	1.284676	0.806373
C79	C	-0.280707	1.247687	0.671363
C80	C	-0.200920	1.230512	0.691454
C81	C	-0.149220	1.280973	0.650235
H82	H	-0.292409	1.300822	0.684851
H83	H	-0.288049	1.240422	0.616279
H84	H	-0.193582	1.237784	0.746526
H85	H	-0.189194	1.177386	0.677964
H86	H	-0.156562	1.273708	0.595151
H87	H	-0.160929	1.334105	0.663726
H88	H	-0.095079	1.269322	0.663855
C89	C	-0.280733	0.852413	0.275455
C90	C	-0.235538	0.798590	0.231259
C91	C	-0.183868	0.839701	0.180688
H92	H	-0.245564	0.884640	0.305660
H93	H	-0.311513	0.884576	0.240913
H94	H	-0.204760	0.766441	0.265797
H95	H	-0.270685	0.766362	0.201039
H96	H	-0.214648	0.871864	0.146146
H97	H	-0.148705	0.871927	0.210899
H98	H	-0.153203	0.803189	0.150690
H99	H	-0.533403	1.000041	0.956041
C100	C	-0.496317	0.432809	0.485980
C101	C	-0.576074	0.452852	0.468626
C102	C	-0.627856	0.411631	0.518997
H103	H	-0.484679	0.446328	0.539134
H104	H	-0.488988	0.377725	0.478756
H105	H	-0.583399	0.507924	0.475856
H106	H	-0.587737	0.439331	0.415482
H107	H	-0.620527	0.356547	0.511773
H108	H	-0.616210	0.425153	0.572147
H109	H	-0.681976	0.425218	0.507224
C110	C	-0.280903	0.432590	0.275614
C111	C	-0.291971	0.351463	0.286407
C112	C	-0.240435	0.310025	0.235978
H113	H	-0.226709	0.446043	0.287227
H114	H	-0.292643	0.446051	0.222466
H115	H	-0.280226	0.338008	0.339543
H116	H	-0.346154	0.337987	0.274788
H117	H	-0.252175	0.323485	0.182830
H118	H	-0.186245	0.323484	0.247596
H119	H	-0.247943	0.254976	0.243289
H120	H	-0.533790	0.567788	0.522810
C121	C	-0.496053	1.036918	0.671291
C122	C	-0.575826	1.054113	0.691336
C123	C	-0.627556	1.003640	0.650083
H124	H	-0.484351	0.983787	0.684783
H125	H	-0.488739	1.044158	0.616212
H126	H	-0.583136	1.046867	0.746403
H127	H	-0.587553	1.107234	0.677842
H128	H	-0.620242	1.010880	0.595004
H129	H	-0.615847	0.950513	0.663579
H130	H	-0.681688	1.015305	0.663672
C131	C	-0.547582	0.986376	0.795093
C132	C	-0.627357	1.003573	0.815134
C133	C	-0.679086	0.953112	0.773867
H134	H	-0.535886	0.933242	0.808577
H135	H	-0.540263	0.993626	0.740016
H136	H	-0.634672	0.996317	0.870199
H137	H	-0.639078	1.056698	0.801648
H138	H	-0.671767	0.960361	0.718790
H139	H	-0.667383	0.899981	0.787354
H140	H	-0.733219	0.964778	0.787454
