data_functionalizedCrystal
_audit_creation_method	'MofGen! by Chris Wilmer'
_symmetry_space_group_name_H-M	'P1'
_symmetry_Int_Tables_number	1
_symmetry_cell_setting	triclinic
loop_
_symmetry_equiv_pos_as_xyz
  x,y,z
_cell_length_a	11.169417
_cell_length_b	16.625545
_cell_length_c	11.169409
_cell_angle_alpha	90.036260
_cell_angle_beta	89.980487
_cell_angle_gamma	89.974714
loop_
_atom_site_label
_atom_site_type_symbol
_atom_site_fract_x
_atom_site_fract_y
_atom_site_fract_z
Zn1	Zn	1.834848	0.320909	-0.678500
Zn2	Zn	2.334848	0.820909	-0.178500
Zn3	Zn	1.834689	0.455771	-0.477803
Zn4	Zn	2.334689	0.955771	0.022197
Zn5	Zn	1.634134	0.320959	-0.477835
Zn6	Zn	2.134134	0.820959	0.022165
Zn7	Zn	1.634094	0.455707	-0.678449
Zn8	Zn	2.134094	0.955707	-0.178449
O9	O	1.734441	0.388337	-0.578147
O10	O	2.234441	0.888337	-0.078147
O11	O	2.002777	0.338805	-0.651885
O12	O	2.502777	0.838805	-0.151885
O13	O	1.808036	0.437936	-0.309858
O14	O	2.308036	0.937936	0.190142
O15	O	1.660842	0.208120	-0.504489
O16	O	2.160842	0.708120	-0.004489
O17	O	2.002660	0.437888	-0.504434
O18	O	2.502660	0.937888	-0.004434
O19	O	1.808306	0.208084	-0.651916
O20	O	2.308306	0.708084	-0.151916
O21	O	1.660689	0.338891	-0.309881
O22	O	2.160689	0.838891	0.190119
O23	O	1.466179	0.338828	-0.504440
O24	O	1.966179	0.838828	-0.004440
O25	O	1.660773	0.437778	-0.846406
O26	O	2.160773	0.937778	-0.346406
O27	O	1.466149	0.437826	-0.651830
O28	O	1.966149	0.937826	-0.151830
O29	O	1.808267	0.338743	-0.846443
O30	O	2.308267	0.838743	-0.346443
O31	O	1.807997	0.568595	-0.504384
O32	O	2.307997	1.068595	-0.004384
O33	O	1.660620	0.568548	-0.651798
O34	O	2.160620	1.068548	-0.151798
C35	C	1.422617	0.388326	-0.578133
C36	C	1.922617	0.888326	-0.078133
C37	C	1.289217	0.388341	-0.578156
C38	C	1.789217	0.888341	-0.078156
C39	C	1.734319	0.597828	-0.578109
C40	C	2.234319	1.097828	-0.078109
C41	C	1.734377	0.687449	-0.578132
C42	C	2.234377	1.187449	-0.078132
C43	C	1.734573	1.015624	-0.578276
C44	C	2.234573	1.515624	-0.078276
C45	C	1.734514	0.924316	-0.578239
C46	C	2.234514	1.424316	-0.078239
C47	C	1.734474	0.851539	-0.578203
C48	C	2.234474	1.351539	-0.078203
C49	C	1.734417	0.760225	-0.578168
C50	C	2.234417	1.260225	-0.078168
C51	C	2.047484	0.388348	-0.578161
C52	C	2.547484	0.888348	-0.078161
C53	C	2.180884	0.388353	-0.578168
C54	C	2.680884	0.888353	-0.078168
C55	C	1.734533	0.388247	-0.891190
C56	C	2.234533	0.888247	-0.391190
C57	C	1.734573	0.388209	-1.024590
C58	C	2.234573	0.888209	-0.524590
C59	C	1.734586	1.178028	-0.578226
C60	C	2.234586	1.678028	-0.078226
C61	C	1.734622	1.088407	-0.578296
C62	C	2.234622	1.588407	-0.078296
C63	C	1.734419	0.388368	-0.266322
C64	C	2.234419	0.888368	0.233678
C65	C	1.734612	0.388179	-0.132923
C66	C	2.234612	0.888179	0.367077
