data_functionalizedCrystal
_audit_creation_method	'MofGen! by Chris Wilmer'
_symmetry_space_group_name_H-M	'P1'
_symmetry_Int_Tables_number	1
_symmetry_cell_setting	triclinic
loop_
_symmetry_equiv_pos_as_xyz
  x,y,z
_cell_length_a	10.686220
_cell_length_b	13.032721
_cell_length_c	10.685880
_cell_angle_alpha	102.020524
_cell_angle_beta	89.641569
_cell_angle_gamma	100.973619
loop_
_atom_site_label
_atom_site_type_symbol
_atom_site_fract_x
_atom_site_fract_y
_atom_site_fract_z
Zn1	Zn	1.925388	-0.332655	-0.616943
Zn2	Zn	1.885824	-0.498367	-0.434375
Zn3	Zn	1.699211	-0.334827	-0.423622
Zn4	Zn	1.688425	-0.525454	-0.664590
O5	O	1.799712	-0.422826	-0.534883
O6	O	2.097407	-0.342392	-0.577285
O7	O	1.849025	-0.466246	-0.255697
O8	O	1.750286	-0.185410	-0.424826
O9	O	2.068340	-0.464140	-0.443153
O10	O	1.916457	-0.183815	-0.566858
O11	O	1.711922	-0.346094	-0.247797
O12	O	1.520513	-0.372359	-0.471027
O13	O	1.731902	-0.510306	-0.835522
O14	O	1.512588	-0.512411	-0.648066
O15	O	1.905998	-0.368657	-0.800515
O16	O	1.838566	-0.651089	-0.489354
O17	O	1.693538	-0.670989	-0.658492
C18	C	1.470587	-0.445561	-0.563551
C19	C	1.329784	-0.455315	-0.575850
C20	C	1.760624	-0.699705	-0.580285
C21	C	1.744021	-0.818150	-0.599741
C22	C	1.808448	-0.861074	-0.524780
C23	C	1.791290	-0.983493	-0.544886
C24	C	2.130122	-0.400002	-0.506103
C25	C	2.270923	-0.390277	-0.493839
C26	C	1.822160	-0.442261	-0.865263
C27	C	1.831726	-0.450543	-1.006051
C28	C	1.838988	-0.144864	-0.489328
C29	C	1.855726	-0.026413	-0.469915
C30	C	1.777435	-0.403384	-0.205769
C31	C	1.768157	-0.394785	-0.064911
H32	H	1.272450	-0.518468	-0.655470
H33	H	1.876315	-0.807196	-0.445721
H34	H	1.706404	-0.340716	-1.007597
C35	C	1.915029	-0.523699	-1.083510
N36	N	1.977729	-0.578834	-1.141861
C37	C	1.699603	-1.056276	-0.651702
N38	N	1.630544	-1.111098	-0.732153
H39	H	1.328249	-0.327134	-0.414217
H40	H	1.923597	-0.972536	-0.390852
C41	C	1.652339	-0.890937	-0.706551
N42	N	1.583280	-0.945758	-0.787002
