data_functionalizedCrystal
_audit_creation_method	'MofGen! by Chris Wilmer'
_symmetry_space_group_name_H-M	'P1'
_symmetry_Int_Tables_number	1
_symmetry_cell_setting	triclinic
loop_
_symmetry_equiv_pos_as_xyz
  x,y,z
_cell_length_a	14.908932
_cell_length_b	14.908571
_cell_length_c	14.908308
_cell_angle_alpha	90.175053
_cell_angle_beta	90.209830
_cell_angle_gamma	90.192796
loop_
_atom_site_label
_atom_site_type_symbol
_atom_site_fract_x
_atom_site_fract_y
_atom_site_fract_z
Zn1	Zn	-0.467705	-1.320081	0.559203
Zn2	Zn	-0.609462	-1.321019	0.400242
Zn3	Zn	-0.450491	-1.179324	0.401245
Zn4	Zn	-0.608398	-1.162104	0.541958
O5	O	-0.534014	-1.245632	0.475662
O6	O	-0.494159	-1.445619	0.544913
O7	O	-0.581616	-1.309822	0.274960
O8	O	-0.327363	-1.204810	0.429836
O9	O	-0.598308	-1.446308	0.428125
O10	O	-0.340011	-1.308223	0.545886
O11	O	-0.464820	-1.205719	0.275697
O12	O	-0.463787	-1.051626	0.413114
O13	O	-0.596493	-1.175460	0.669660
O14	O	-0.579801	-1.038974	0.516495
O15	O	-0.493127	-1.291525	0.682330
O16	O	-0.734732	-1.293124	0.411404
O17	O	-0.733950	-1.176370	0.515522
C18	C	-0.519811	-1.012782	0.463043
C19	C	-0.513758	-0.913165	0.457664
C20	C	-0.300260	-1.258333	0.489897
C21	C	-0.200648	-1.263745	0.495963
C22	C	-0.766861	-1.233003	0.461503
C23	C	-0.866480	-1.227681	0.455481
C24	C	-0.000295	-1.166211	0.386519
C25	C	0.093300	-1.171293	0.392215
C26	C	0.080137	-1.278988	0.513056
C27	C	-0.013457	-1.273905	0.507359
C28	C	-0.053670	-1.217516	0.444088
C29	C	-0.147266	-1.212438	0.438388
C30	C	-0.160427	-1.320128	0.559232
C31	C	-0.066832	-1.325210	0.564928
C32	C	-0.546611	-1.231467	0.709423
C33	C	-0.551979	-1.225431	0.809038
C34	C	-0.548272	-1.479391	0.488331
C35	C	-0.554348	-1.579005	0.493730
C36	C	-0.623358	-0.712849	0.555043
C37	C	-0.617674	-0.619250	0.549992
C38	C	-0.496701	-0.632366	0.442517
C39	C	-0.502386	-0.725965	0.447568
C40	C	-0.565717	-0.766203	0.503831
C41	C	-0.571406	-0.859804	0.508877
C42	C	-0.450429	-0.872918	0.401407
C43	C	-0.444745	-0.779319	0.396356
C44	C	-0.521404	-1.259796	0.242817
C45	C	-0.515794	-1.266019	0.143227
C46	C	-0.454410	-1.334946	1.009421
C47	C	-0.459451	-1.329278	1.103018
C48	C	-0.567097	-1.208423	1.089832
C49	C	-0.562056	-1.214091	0.996235
C50	C	-0.505712	-1.277356	0.956032
C51	C	-0.500676	-1.283028	0.862433
C52	C	-0.608317	-1.162169	0.849249
C53	C	-0.613358	-1.156501	0.942846
H54	H	-0.180005	-1.166525	0.386867
H55	H	-0.622975	-0.892564	0.554688
Cl56	Cl	-0.702981	-0.763437	0.625762
Cl57	Cl	-0.016270	-1.396089	0.644471
Cl58	Cl	-0.690139	-0.552178	0.614377
H59	H	-0.650093	-1.115277	0.805769
Cl60	Cl	0.160398	-1.106790	0.319842
Cl61	Cl	-0.050851	-1.095334	0.306971
Cl62	Cl	-0.227533	-1.384636	0.631602
Cl63	Cl	-0.684185	-1.076972	0.993395
Cl64	Cl	0.130706	-1.349848	0.592610
Cl65	Cl	-0.417079	-0.581765	0.371806
Cl66	Cl	-0.365129	-0.728726	0.325633
H67	H	-0.454799	-1.334542	0.829702
Cl68	Cl	-0.377969	-0.939998	0.337015
Cl69	Cl	-0.383590	-1.414486	0.958877
H70	H	-0.417674	-1.376172	1.146484
H71	H	-0.612969	-1.156915	1.122581
