data_functionalizedCrystal
_audit_creation_method	'MofGen! by Chris Wilmer'
_symmetry_space_group_name_H-M	'P1'
_symmetry_Int_Tables_number	1
_symmetry_cell_setting	triclinic
loop_
_symmetry_equiv_pos_as_xyz
  x,y,z
_cell_length_a	12.759401
_cell_length_b	12.827892
_cell_length_c	12.759393
_cell_angle_alpha	90.031046
_cell_angle_beta	90.018496
_cell_angle_gamma	90.015553
loop_
_atom_site_label
_atom_site_type_symbol
_atom_site_fract_x
_atom_site_fract_y
_atom_site_fract_z
Zn1	Zn	1.606250	-0.415967	0.593985
Zn2	Zn	1.606143	-0.590748	0.418307
Zn3	Zn	1.430552	-0.416022	0.418325
Zn4	Zn	1.430539	-0.590667	0.593948
O5	O	1.518371	-0.503351	0.506141
O6	O	1.753257	-0.439163	0.570689
O7	O	1.582811	-0.567626	0.271288
O8	O	1.453910	-0.269778	0.441649
O9	O	1.753178	-0.567573	0.441619
O10	O	1.582994	-0.269738	0.570706
O11	O	1.453805	-0.439256	0.271301
O12	O	1.283530	-0.439178	0.441613
O13	O	1.453887	-0.567436	0.740974
O14	O	1.283520	-0.567489	0.570643
O15	O	1.582981	-0.439085	0.741001
O16	O	1.582798	-0.736973	0.441583
O17	O	1.453782	-0.736914	0.570626
C18	C	1.245404	-0.503332	0.506127
C19	C	1.128627	-0.503349	0.506146
C20	C	1.073787	-0.570267	0.573221
C21	C	0.964063	-0.570280	0.573232
C22	C	0.964028	-0.436453	0.439085
C23	C	1.073750	-0.436436	0.439079
C24	C	1.073807	-0.647534	0.650666
C25	C	0.964083	-0.647548	0.650678
C26	C	1.518305	-0.774861	0.506122
C27	C	1.518373	-0.891014	0.506149
C28	C	1.582220	-0.942695	0.570067
C29	C	1.582292	-1.062746	0.570097
C30	C	1.792404	-0.503371	0.506156
C31	C	1.909181	-0.503379	0.506162
C32	C	1.518445	-0.503245	0.780175
C33	C	1.518476	-0.503200	0.896951
C34	C	1.518466	-0.230781	0.506184
C35	C	1.518506	-0.114628	0.506202
C36	C	1.518358	-0.503380	0.233174
C37	C	1.518530	-0.503131	0.116398
C38	C	1.585705	-0.436361	0.951829
C39	C	1.585730	-0.436324	1.061553
C40	C	1.451294	-0.569973	1.061512
C41	C	1.451265	-0.570005	0.951790
C42	C	1.663323	-0.359203	0.951854
C43	C	1.663348	-0.359165	1.061578
H44	H	1.103615	-0.625951	0.732073
H45	H	0.930085	-0.618659	0.728029
H46	H	1.636825	-0.898067	0.624774
H47	H	1.396571	-0.624360	1.106175
H48	H	1.463760	-0.935644	0.451452
H49	H	1.636957	-1.107191	0.624816
O50	O	1.446094	-1.055778	0.433700
H51	H	1.392623	-1.006063	0.480706
H52	H	1.641556	-0.278273	0.922097
H53	H	1.107820	-0.724374	0.621383
H54	H	1.396517	-0.624428	0.907113
O55	O	0.924598	-0.754717	0.621611
H56	H	0.992284	-0.807171	0.607361
H57	H	1.740595	-0.388216	0.917818
O58	O	1.624809	-0.257307	1.106694
H59	H	1.604361	-0.203331	1.041879
O60	O	1.771122	-0.387888	1.101039
H61	H	1.823862	-0.401992	1.033341
O62	O	1.132890	-0.364264	0.366720
H63	H	1.111840	-0.282271	0.384874
O64	O	0.904842	-0.364310	0.366724
H65	H	0.819331	-0.375574	0.377984
