data_functionalizedCrystal
_audit_creation_method	'MofGen! by Chris Wilmer'
_symmetry_space_group_name_H-M	'P1'
_symmetry_Int_Tables_number	1
_symmetry_cell_setting	triclinic
loop_
_symmetry_equiv_pos_as_xyz
  x,y,z
_cell_length_a	16.120484
_cell_length_b	14.908783
_cell_length_c	14.908803
_cell_angle_alpha	90.199445
_cell_angle_beta	83.995202
_cell_angle_gamma	96.375081
loop_
_atom_site_label
_atom_site_type_symbol
_atom_site_fract_x
_atom_site_fract_y
_atom_site_fract_z
Zn1	Zn	-0.293504	1.328173	0.602924
Zn2	Zn	-0.425178	1.329157	0.459342
Zn3	Zn	-0.292544	1.186578	0.443848
Zn4	Zn	-0.441282	1.169217	0.601790
O5	O	-0.363127	1.253281	0.526976
O6	O	-0.304633	1.454497	0.590836
O7	O	-0.400442	1.317921	0.331097
O8	O	-0.175319	1.212214	0.458940
O9	O	-0.401373	1.455220	0.485347
O10	O	-0.176024	1.316243	0.575813
O11	O	-0.302997	1.213168	0.319714
O12	O	-0.318613	1.058081	0.457841
O13	O	-0.428821	1.182625	0.728129
O14	O	-0.427890	1.045327	0.573880
O15	O	-0.320249	1.299409	0.728963
O16	O	-0.544667	1.301087	0.484247
O17	O	-0.556499	1.183580	0.588903
C18	C	-0.374896	1.018983	0.514057
C19	C	-0.379952	0.918747	0.508552
C20	C	-0.288874	0.729619	0.608239
C21	C	-0.293622	0.635438	0.603069
C22	C	-0.394190	0.636204	0.493040
C23	C	-0.389442	0.730385	0.498210
C24	C	-0.336783	0.777089	0.555812
C25	C	-0.332041	0.871271	0.560985
C26	C	-0.432604	0.872035	0.450952
C27	C	-0.437352	0.777854	0.445783
C28	C	-0.581011	1.240580	0.538154
C29	C	-0.674220	1.235226	0.542971
C30	C	-0.844875	1.225457	0.551784
C31	C	-0.880532	1.281266	0.502191
C32	C	-0.975490	1.275830	0.507095
C33	C	-0.749908	1.230892	0.546882
C34	C	-0.144392	1.266056	0.515775
C35	C	-0.051181	1.271499	0.511002
C36	C	-0.376438	1.238971	0.762180
C37	C	-0.382111	1.232873	0.862410
C38	C	-0.351313	1.488494	0.539946
C39	C	-0.346279	1.588727	0.545473
C40	C	-0.279695	1.343020	1.051621
C41	C	-0.285022	1.337293	1.145796
C42	C	-0.398087	1.215690	1.144937
C43	C	-0.392760	1.221416	1.050762
C44	C	-0.333563	1.285084	1.004107
C45	C	-0.328241	1.290815	0.909931
C46	C	-0.441301	1.169207	0.909073
C47	C	-0.446628	1.163481	1.003248
C48	C	-0.349887	1.267529	1.292687
C49	C	-0.344216	1.273631	1.192457
H50	H	-0.471622	0.910694	0.408269
H51	H	-0.246001	0.767646	0.655144
H52	H	-0.839743	1.333126	0.456050
H53	H	-0.885661	1.173599	0.597921
C54	C	-0.495274	0.726474	0.382425
C55	C	-0.481840	0.746039	0.280275
C56	C	-0.539766	0.694660	0.216918
C57	C	-0.611125	0.623715	0.255711
C58	C	-0.624562	0.604146	0.357867
C59	C	-0.566637	0.655526	0.421224
H60	H	-0.429013	0.798560	0.251553
H61	H	-0.529819	0.709147	0.141295
H62	H	-0.654005	0.585682	0.208811
H63	H	-0.677390	0.551626	0.386589
H64	H	-0.576584	0.641039	0.496846
H65	H	-0.446282	1.163854	1.182939
C66	C	-0.274116	0.922650	0.624342
C67	C	-0.287546	0.903082	0.726491
C68	C	-0.229617	0.954458	0.789847
C69	C	-0.158259	1.025403	0.751052
C70	C	-0.144825	1.044974	0.648897
C71	C	-0.202754	0.993598	0.585542
H72	H	-0.340373	0.850561	0.755214
H73	H	-0.239562	0.939970	0.865469
H74	H	-0.115376	1.063435	0.797952
H75	H	-0.091998	1.097495	0.620174
H76	H	-0.192809	1.008086	0.509919
C77	C	-0.263125	1.360845	0.858608
C78	C	-0.168893	1.358253	0.866264
C79	C	-0.103774	1.428283	0.814943
C80	C	-0.132885	1.500904	0.755966
C81	C	-0.227121	1.503499	0.748307
C82	C	-0.292241	1.433469	0.799628
H83	H	-0.147339	1.304492	0.909924
H84	H	-0.034014	1.426362	0.820613
H85	H	-0.084679	1.552744	0.717975
H86	H	-0.248675	1.557260	0.704647
H87	H	-0.362000	1.435390	0.793958
C88	C	-0.214586	1.413054	1.000294
C89	C	-0.120352	1.410479	1.007946
C90	C	-0.055242	1.480514	0.956620
C91	C	-0.084367	1.553126	0.897641
C92	C	-0.178606	1.555705	0.889986
C93	C	-0.243715	1.485669	0.941313
H94	H	-0.098788	1.356725	1.051608
H95	H	0.014519	1.478605	0.962286
H96	H	-0.036169	1.604971	0.859646
H97	H	-0.200169	1.609459	0.846325
H98	H	-0.313477	1.487578	0.935646
H99	H	-0.254607	0.596792	0.645759
C100	C	-0.452102	0.584816	0.429677
C101	C	-0.438657	0.604380	0.327527
C102	C	-0.496567	0.552989	0.264161
C103	C	-0.567921	0.482035	0.302946
C104	C	-0.581370	0.462468	0.405102
C105	C	-0.523460	0.513858	0.468467
H106	H	-0.385833	0.656907	0.298811
H107	H	-0.486611	0.567475	0.188539
H108	H	-0.610790	0.443993	0.256039
H109	H	-0.634194	0.409941	0.433817
H110	H	-0.533416	0.499373	0.544090
C111	C	-0.225769	1.401026	1.198063
C112	C	-0.160657	1.471055	1.146741
C113	C	-0.101400	1.534790	1.199008
C114	C	-0.107255	1.528494	1.302597
C115	C	-0.172369	1.458462	1.353925
C116	C	-0.231626	1.394728	1.301658
H117	H	-0.156321	1.475718	1.070053
H118	H	-0.053199	1.586632	1.161011
H119	H	-0.063389	1.575674	1.341288
H120	H	-0.176705	1.453799	1.430612
H121	H	-0.279827	1.342885	1.339655
C122	C	-0.511744	1.093457	1.054579
C123	C	-0.579272	1.124770	1.124851
C124	C	-0.644392	1.054749	1.176184
C125	C	-0.641984	0.953415	1.157246
C126	C	-0.574453	0.922097	1.086972
C127	C	-0.509333	0.992118	1.035638
H128	H	-0.581057	1.199787	1.138872
H129	H	-0.694383	1.077933	1.228206
H130	H	-0.690190	0.901582	1.195246
H131	H	-0.572668	0.847079	1.072950
H132	H	-0.459342	0.968933	0.983617
C133	C	-0.500553	1.105454	0.856815
C134	C	-0.464104	1.040706	0.786319
C135	C	-0.523354	0.976948	0.734066
C136	C	-0.619052	0.977939	0.752309
C137	C	-0.655506	1.042689	0.822808
C138	C	-0.596257	1.106447	0.875061
H139	H	-0.393258	1.039970	0.772812
H140	H	-0.496367	0.929016	0.681878
H141	H	-0.662912	0.930742	0.713628
H142	H	-0.726353	1.043425	0.836316
H143	H	-0.623243	1.154379	0.927249
