data_functionalizedCrystal
_audit_creation_method	'MofGen! by Chris Wilmer'
_symmetry_space_group_name_H-M	'P1'
_symmetry_Int_Tables_number	1
_symmetry_cell_setting	triclinic
loop_
_symmetry_equiv_pos_as_xyz
  x,y,z
_cell_length_a	12.759401
_cell_length_b	21.395361
_cell_length_c	21.395355
_cell_angle_alpha	89.978489
_cell_angle_beta	90.022740
_cell_angle_gamma	89.967767
loop_
_atom_site_label
_atom_site_type_symbol
_atom_site_fract_x
_atom_site_fract_y
_atom_site_fract_z
Zn1	Zn	1.606168	0.249486	0.354218
Zn2	Zn	1.606005	0.354245	0.249435
Zn3	Zn	1.430461	0.249489	0.249458
Zn4	Zn	1.430410	0.354232	0.354179
O5	O	1.518261	0.301863	0.301822
O6	O	1.753167	0.263387	0.340325
O7	O	1.582672	0.340356	0.161760
O8	O	1.453859	0.161810	0.263381
O9	O	1.753047	0.340353	0.263342
O10	O	1.582950	0.161808	0.340348
O11	O	1.453701	0.263392	0.161777
O12	O	1.283433	0.263379	0.263343
O13	O	1.453771	0.340330	0.441862
O14	O	1.283395	0.340333	0.340280
O15	O	1.582900	0.263374	0.441891
O16	O	1.582621	0.441922	0.263303
O17	O	1.453613	0.441912	0.340258
C18	C	1.245294	0.301855	0.301810
C19	C	1.128517	0.301867	0.301820
C20	C	1.518122	0.464651	0.301788
C21	C	1.518159	0.534292	0.301794
C22	C	1.518348	0.301850	0.465246
C23	C	1.518385	0.301845	0.534887
C24	C	1.073663	0.341998	0.341818
C25	C	0.963939	0.342001	0.341830
C26	C	0.963933	0.261739	0.261841
C27	C	1.073655	0.261734	0.261832
C28	C	0.814036	0.364504	0.415693
C29	C	0.759178	0.404645	0.455686
C30	C	0.794748	0.465794	0.465189
C31	C	0.885173	0.486813	0.434689
C32	C	0.940026	0.446676	0.394692
C33	C	0.904458	0.385519	0.385201
C34	C	1.223559	0.239237	0.187968
C35	C	1.278414	0.199102	0.147967
C36	C	1.242846	0.137952	0.138458
C37	C	1.152417	0.116935	0.168947
C38	C	1.097563	0.157070	0.208948
C39	C	1.133138	0.218219	0.218458
C40	C	1.792294	0.301871	0.301835
C41	C	1.909071	0.301875	0.301841
C42	C	1.518429	0.138440	0.301871
C43	C	1.518500	0.068798	0.301892
C44	C	1.585393	0.566989	0.261764
C45	C	1.585442	0.632425	0.261778
C46	C	1.518238	0.665160	0.301815
C47	C	1.450999	0.632455	0.341852
C48	C	1.450959	0.567021	0.341841
C49	C	1.423640	0.768877	0.306727
C50	C	1.423678	0.834310	0.306733
C51	C	1.518360	0.866981	0.301852
C52	C	1.613008	0.834211	0.296951
C53	C	1.612969	0.768777	0.296940
C54	C	1.518274	0.736112	0.301832
C55	C	1.585653	0.970631	0.261836
C56	C	1.585704	1.036067	0.261854
C57	C	1.451251	1.036096	0.341925
C58	C	1.451210	0.970661	0.341909
C59	C	1.518410	0.937932	0.301862
C60	C	1.518234	0.301830	0.139035
C61	C	1.518401	0.301659	0.069394
C62	C	1.585620	0.261772	0.567616
C63	C	1.585618	0.261745	0.633052
C64	C	1.518393	0.301802	0.665756
C65	C	1.451146	0.341878	0.633018
C66	C	1.451142	0.341899	0.567584
C67	C	1.510050	0.358218	0.769418
C68	C	1.510061	0.358197	0.834851
C69	C	1.518400	0.301736	0.867576
C70	C	1.526749	0.245293	0.834860
C71	C	1.526745	0.245314	0.769426
C72	C	1.518390	0.301783	0.736708
C73	C	1.585637	0.261630	0.971258
C74	C	1.585628	0.261602	1.036695
C75	C	1.451161	0.341741	1.036660
C76	C	1.451164	0.341763	0.971225
C77	C	1.518408	0.301709	0.938528
H78	H	1.013648	0.463790	0.369859
H79	H	1.352046	0.216220	0.123141
H80	H	1.252534	0.289028	0.195713
H81	H	1.640114	0.540343	0.229157
N82	N	1.378607	0.385114	0.532279
H83	H	1.336010	0.410483	0.562923
H84	H	1.421328	0.414124	0.505134
H85	H	1.690033	0.742097	0.292952
N86	N	1.302008	0.094657	0.095318
H87	H	1.254475	0.080931	0.060154
H88	H	1.364688	0.117281	0.077485
H89	H	1.396421	0.374399	0.944576
N90	N	1.657963	0.667702	0.218604
H91	H	1.700528	0.637039	0.193233
H92	H	1.615229	0.694889	0.189593
H93	H	1.023935	0.139950	0.233777
H94	H	1.123445	0.067146	0.161194
H95	H	1.533541	0.199357	0.742792
N96	N	1.658137	0.218521	0.668363
H97	H	1.700733	0.193150	0.637721
H98	H	1.706727	0.244024	0.695521
H99	H	1.503269	0.404157	0.861484
H100	H	1.690108	0.860810	0.292976
H101	H	1.396414	0.374350	1.063287
N102	N	1.658130	0.935324	0.218646
H103	H	1.700738	0.965970	0.193292
H104	H	1.706710	0.908132	0.244170
N105	N	1.658230	1.071337	0.218681
H106	H	1.700790	1.040672	0.193310
H107	H	1.615502	1.098528	0.189671
N108	N	1.378773	1.071394	0.385113
H109	H	1.389001	1.117809	0.379048
H110	H	1.303738	1.060005	0.375321
H111	H	1.502978	0.404183	0.742779
H112	H	1.533541	0.199317	0.861504
H113	H	1.396408	0.374491	0.659650
N114	N	0.735574	0.509086	0.508322
H115	H	0.733635	0.490554	0.551729
H116	H	0.771860	0.551005	0.509662
H117	H	1.396457	0.944037	0.374502
N118	N	1.658155	0.218430	0.935986
H119	H	1.700744	0.193035	0.966652
H120	H	1.615419	0.189444	0.908826
N121	N	0.904760	0.218471	0.218696
H122	H	0.826927	0.224569	0.224764
H123	H	0.923908	0.228170	0.173935
N124	N	1.658156	0.218381	1.071997
H125	H	1.647954	0.224442	1.118411
H126	H	1.641860	0.173636	1.060556
N127	N	1.321599	0.869652	0.312009
H128	H	1.261613	0.839028	0.315106
H129	H	1.323094	0.896783	0.350618
N130	N	0.775671	0.298549	0.405445
H131	H	0.774583	0.275501	0.446645
H132	H	0.702597	0.299703	0.387319
H133	H	1.396208	0.540398	0.374439
N134	N	1.321513	0.733641	0.311998
H135	H	1.261562	0.764328	0.315100
H136	H	1.311771	0.706517	0.273814
H137	H	1.396282	0.659112	0.374451
H138	H	0.914120	0.536609	0.442424
N139	N	1.132838	0.385282	0.384946
H140	H	1.081434	0.410704	0.410287
H141	H	1.178411	0.359820	0.413985
H142	H	1.640374	0.229155	0.540998
N143	N	0.661650	0.381978	0.488580
H144	H	0.647443	0.337146	0.476499
H145	H	0.672156	0.384777	0.535285
