data_functionalizedCrystal
_audit_creation_method	'MofGen! by Chris Wilmer'
_symmetry_space_group_name_H-M	'P1'
_symmetry_Int_Tables_number	1
_symmetry_cell_setting	triclinic
loop_
_symmetry_equiv_pos_as_xyz
  x,y,z
_cell_length_a	12.759401
_cell_length_b	18.050590
_cell_length_c	12.759393
_cell_angle_alpha	89.965159
_cell_angle_beta	89.982754
_cell_angle_gamma	90.017597
loop_
_atom_site_label
_atom_site_type_symbol
_atom_site_fract_x
_atom_site_fract_y
_atom_site_fract_z
Zn1	Zn	1.606214	-0.295641	-0.593953
Zn2	Zn	1.606100	-0.419849	-0.418260
Zn3	Zn	1.430520	-0.295676	-0.418292
Zn4	Zn	1.430492	-0.419792	-0.593901
O5	O	1.518331	-0.357740	-0.506101
O6	O	1.753220	-0.312127	-0.570655
O7	O	1.582773	-0.403416	-0.271243
O8	O	1.453885	-0.191747	-0.441629
O9	O	1.753136	-0.403383	-0.441574
O10	O	1.582966	-0.191721	-0.570686
O11	O	1.453775	-0.312186	-0.271267
O12	O	1.283495	-0.312130	-0.441579
O13	O	1.453838	-0.403284	-0.740929
O14	O	1.283475	-0.403318	-0.570598
O15	O	1.582940	-0.312072	-0.740967
O16	O	1.582747	-0.523766	-0.441524
O17	O	1.453728	-0.523724	-0.570567
C18	C	1.245364	-0.357722	-0.506087
C19	C	1.128587	-0.357733	-0.506106
C20	C	1.073762	-0.310306	-0.573422
C21	C	0.964038	-0.310320	-0.573429
C22	C	0.963975	-0.405194	-0.438799
C23	C	1.073697	-0.405176	-0.438788
C24	C	1.073797	-0.255533	-0.651152
C25	C	0.964073	-0.255547	-0.651159
C26	C	1.518251	-0.550692	-0.506060
C27	C	1.518312	-0.633238	-0.506077
C28	C	1.588618	-0.832684	-0.436001
C29	C	1.614284	-0.882009	-0.531888
C30	C	1.518372	-0.784368	-0.506119
C31	C	1.492814	-0.882124	-0.410275
C32	C	1.518431	-0.930353	-0.506151
C33	C	1.544086	-0.832606	-0.602056
C34	C	1.422572	-0.832716	-0.480379
C35	C	1.448200	-0.882019	-0.576331
C36	C	1.518340	-0.700270	-0.506099
C37	C	1.518463	-1.014449	-0.506181
C38	C	1.792365	-0.357758	-0.506117
C39	C	1.909141	-0.357765	-0.506123
C40	C	1.518399	-0.357668	-0.780135
C41	C	1.518427	-0.357637	-0.896912
C42	C	1.518441	-0.164034	-0.506167
C43	C	1.518488	-0.081488	-0.506194
C44	C	1.451227	-0.405109	-0.951756
C45	C	1.451265	-0.405082	-1.061480
C46	C	1.585708	-0.310105	-1.061506
C47	C	1.585674	-0.310136	-0.951784
C48	C	1.373604	-0.459942	-0.951741
C49	C	1.373642	-0.459915	-1.061466
C50	C	1.518325	-0.357758	-0.233134
C51	C	1.518500	-0.357579	-0.116358
H52	H	0.934325	-0.271025	-0.732493
N53	N	0.918968	-0.183148	-0.612764
H54	H	0.874378	-0.192452	-0.548674
H55	H	0.977932	-0.148186	-0.594262
N56	N	1.667329	-0.803975	-0.357546
H57	H	1.630115	-0.773223	-0.302905
H58	H	1.703518	-0.847139	-0.322509
N59	N	1.658225	-0.258863	-1.120684
H60	H	1.733279	-0.270407	-1.101583
H61	H	1.647966	-0.266067	-1.198498
H62	H	1.341553	-0.811046	-0.458558
H63	H	1.640406	-0.271487	-0.907134
H64	H	1.292291	-0.444492	-1.091250
N65	N	1.132822	-0.456321	-0.366165
H66	H	1.113729	-0.509402	-0.382338
H67	H	1.210642	-0.449050	-0.376396
H68	H	0.919269	-0.443821	-0.383992
H69	H	1.565648	-0.810948	-0.683192
N70	N	1.118929	-0.282906	-0.753453
H71	H	1.060033	-0.296144	-0.802891
H72	H	1.163524	-0.242713	-0.785828
H73	H	1.296312	-0.439342	-0.917716
H74	H	1.402763	-0.514548	-1.095479
N75	N	1.402395	-0.536147	-0.912282
H76	H	1.474476	-0.549839	-0.938637
H77	H	1.402314	-0.536156	-0.833127
N78	N	1.113254	-0.179320	-0.622474
H79	H	1.086915	-0.142042	-0.675321
H80	H	1.086859	-0.165644	-0.550408
H81	H	1.695325	-0.903664	-0.553680
N82	N	1.369528	-0.910524	-0.654971
H83	H	1.388987	-0.892407	-0.727315
H84	H	1.369563	-0.966472	-0.654045
H85	H	1.471172	-0.903874	-0.329209
