data_functionalizedCrystal
_audit_creation_method	'MofGen! by Chris Wilmer'
_symmetry_space_group_name_H-M	'P1'
_symmetry_Int_Tables_number	1
_symmetry_cell_setting	triclinic
loop_
_symmetry_equiv_pos_as_xyz
  x,y,z
_cell_length_a	15.995350
_cell_length_b	15.995300
_cell_length_c	16.776229
_cell_angle_alpha	89.997895
_cell_angle_beta	89.996506
_cell_angle_gamma	83.482091
loop_
_atom_site_label
_atom_site_type_symbol
_atom_site_fract_x
_atom_site_fract_y
_atom_site_fract_z
O1	O	1.110969	0.107931	-0.066213
O2	O	1.610969	0.607931	0.433787
O3	O	0.867191	0.121259	-0.066228
O4	O	1.367191	0.621259	0.433772
O5	O	0.995766	-0.007295	-0.066224
O6	O	1.495766	0.492705	0.433776
O7	O	0.982394	0.236486	-0.066217
O8	O	1.482394	0.736486	0.433783
O9	O	0.995749	-0.007303	0.066353
O10	O	1.495749	0.492697	0.566353
O11	O	0.867174	0.121251	0.066349
O12	O	1.367174	0.621251	0.566349
O13	O	1.110952	0.107923	0.066364
O14	O	1.610952	0.607923	0.566364
Zn15	Zn	0.989060	0.114586	0.087406
Zn16	Zn	1.489060	0.614586	0.587406
Zn17	Zn	0.989083	0.114596	-0.087270
Zn18	Zn	1.489083	0.614596	0.412730
O19	O	0.982377	0.236478	0.066360
O20	O	1.482377	0.736478	0.566360
C21	C	0.995212	-0.038495	0.000062
C22	C	1.495212	0.461505	0.500062
C23	C	0.993577	-0.131448	0.000054
C24	C	1.493577	0.368552	0.500054
C25	C	0.835988	0.120704	0.000058
C26	C	1.335988	0.620704	0.500058
C27	C	0.743038	0.119052	0.000052
C28	C	1.243038	0.619052	0.500052
C29	C	0.990558	-0.301631	0.000061
C30	C	1.490558	0.198369	0.500061
C31	C	1.082105	-0.349096	0.000065
C32	C	1.582105	0.150904	0.500065
C33	C	1.080435	-0.445784	0.000369
C34	C	1.580435	0.054216	0.500369
C35	C	0.987586	-0.469187	0.000068
C36	C	1.487586	0.030813	0.500068
C37	C	0.942156	-0.428057	0.075623
C38	C	1.442156	0.071943	0.575623
C39	C	0.944473	-0.331424	0.075684
C40	C	1.444473	0.168576	0.575684
C41	C	0.943136	-0.331139	-0.075086
C42	C	1.443136	0.168861	0.424914
C43	C	0.943145	-0.428083	-0.076076
C44	C	1.443145	0.071917	0.423924
C45	C	0.985901	-0.563883	0.000074
C46	C	1.485901	-0.063883	0.500074
C47	C	0.992239	-0.206935	0.000060
C48	C	1.492239	0.293065	0.500060
C49	C	0.405292	0.113120	0.000068
C50	C	0.905292	0.613120	0.500068
C51	C	0.452742	0.021566	0.000361
C52	C	0.952742	0.521566	0.500361
C53	C	0.549432	0.023218	0.000057
C54	C	1.049432	0.523218	0.500057
C55	C	0.572852	0.116062	0.000061
C56	C	1.072852	0.616062	0.500061
C57	C	0.531766	0.161224	-0.075642
C58	C	1.031766	0.661224	0.424358
C59	C	0.435131	0.158924	-0.075700
C60	C	0.935131	0.658924	0.424300
C61	C	0.434772	0.160807	0.075064
C62	C	0.934772	0.660807	0.575064
C63	C	0.531717	0.160785	0.076059
C64	C	1.031717	0.660785	0.576059
C65	C	0.667549	0.117730	0.000054
C66	C	1.167549	0.617730	0.500054
C67	C	0.310594	0.111455	0.000070
C68	C	0.810594	0.611455	0.500070
C69	C	1.142155	0.108478	0.000076
C70	C	1.642155	0.608478	0.500076
C71	C	1.235105	0.110130	0.000077
C72	C	1.735105	0.610130	0.500077
C73	C	0.982931	0.267677	0.000073
C74	C	1.482931	0.767677	0.500073
C75	C	0.984566	0.360630	0.000076
C76	C	1.484566	0.860630	0.500076
N77	N	0.989051	0.114578	0.206617
N78	N	1.489051	0.614578	0.706617
N79	N	0.989099	0.114597	-0.206481
N80	N	1.489099	0.614597	0.293519
C81	C	1.046001	0.057678	0.248336
C82	C	1.546001	0.557678	0.748336
C83	C	1.046006	0.057677	0.331788
C84	C	1.546006	0.557677	0.831788
C85	C	0.989064	0.114581	0.373520
C86	C	1.489064	0.614581	0.873520
C87	C	0.932108	0.171485	0.331795
C88	C	1.432108	0.671485	0.831795
C89	C	0.932100	0.171481	0.248344
C90	C	1.432100	0.671481	0.748344
C91	C	0.932138	0.171501	0.668342
C92	C	1.432138	0.671501	1.168342
C93	C	0.932152	0.171502	0.751799
C94	C	1.432152	0.671502	1.251799
C95	C	1.046044	0.057697	0.751786
C96	C	1.546044	0.557697	1.251786
C97	C	1.046036	0.057693	0.668335
C98	C	1.546036	0.557693	1.168335
C99	C	0.989078	0.114593	0.626618
C100	C	1.489078	0.614593	1.126618
C101	C	0.989072	0.114592	0.536129
C102	C	1.489072	0.614592	1.036129
C103	C	0.989073	0.114587	0.464007
C104	C	1.489073	0.614587	0.964007
H105	H	1.118898	-0.330615	-0.054115
H106	H	1.618898	0.169385	0.445885
N107	N	0.851788	-0.446738	0.079075
N108	N	1.351788	0.053262	0.579075
H109	H	0.813172	-0.392212	0.078199
H110	H	1.313172	0.107788	0.578199
H111	H	0.839474	-0.482149	0.031575
H112	H	1.339474	0.017851	0.531575
H113	H	0.885780	0.217843	0.785775
H114	H	1.385780	0.717843	1.285775
H115	H	0.577303	-0.012515	-0.054307
H116	H	1.077303	0.487485	0.445693
N117	N	0.567892	0.117117	0.150247
N118	N	1.067892	0.617117	0.650247
H119	H	0.541199	0.146162	0.198929
H120	H	1.041199	0.646162	0.698929
H121	H	0.556010	0.056441	0.149690
H122	H	1.056010	0.556441	0.649690
N123	N	0.587107	-0.023815	0.071927
N124	N	1.087107	0.476185	0.571927
H125	H	0.617187	0.015391	0.106002
H126	H	1.117187	0.515391	0.606002
H127	H	0.540867	-0.045809	0.104038
H128	H	1.040867	0.454191	0.604038
H129	H	0.434220	-0.015034	0.054651
H130	H	0.934220	0.484966	0.554651
H131	H	0.875454	-0.443428	-0.080870
H132	H	1.375454	0.056572	0.419130
N133	N	0.410888	0.115308	-0.150659
N134	N	0.910888	0.615308	0.349341
H135	H	0.462952	0.097752	-0.183354
H136	H	0.962952	0.597752	0.316646
H137	H	0.382946	0.063915	-0.135922
H138	H	0.882946	0.563915	0.364078
H139	H	0.977198	-0.313107	0.132381
H140	H	1.477198	0.186893	0.632381
H141	H	0.885740	0.217815	0.365778
H142	H	1.385740	0.717815	0.865778
H143	H	0.885724	0.217814	0.214378
H144	H	1.385724	0.717814	0.714378
N145	N	0.983078	-0.303991	-0.150966
N146	N	1.483078	0.196009	0.349034
H147	H	1.003413	-0.355233	-0.183778
H148	H	1.503413	0.144767	0.316222
H149	H	0.940233	-0.266252	-0.182500
H150	H	1.440233	0.233748	0.317500
N151	N	0.987080	-0.464292	-0.150123
N152	N	1.487080	0.035708	0.349877
H153	H	1.047761	-0.452423	-0.149441
H154	H	1.547761	0.047577	0.350559
H155	H	0.984638	-0.527091	-0.151593
H156	H	1.484638	-0.027091	0.348407
N157	N	1.127740	-0.483496	-0.071340
N158	N	1.627740	0.016504	0.428660
H159	H	1.149865	-0.437315	-0.103435
H160	H	1.649865	0.062685	0.396565
H161	H	1.176352	-0.524851	-0.053008
H162	H	1.676352	-0.024851	0.446992
N163	N	0.853730	-0.289044	-0.076063
N164	N	1.353730	0.210956	0.423937
H165	H	0.843955	-0.251040	-0.028091
H166	H	1.343955	0.248960	0.471909
H167	H	0.843921	-0.254622	-0.126356
H168	H	1.343921	0.245378	0.373644
H169	H	0.433162	-0.014859	-0.053631
H170	H	0.933162	0.485141	0.446369
H171	H	1.092407	0.011359	0.634360
H172	H	1.592407	0.511359	1.134360
H173	H	0.545879	0.229435	-0.078455
H174	H	1.045879	0.729435	0.421545
H175	H	0.402871	0.226142	-0.079134
H176	H	0.902871	0.726142	0.420866
H177	H	1.118366	-0.329431	0.054130
H178	H	1.618366	0.170569	0.554130
H179	H	1.092374	0.011343	0.214363
H180	H	1.592374	0.511343	0.714363
N181	N	0.569352	0.119691	-0.150283
N182	N	1.069352	0.619691	0.349717
H183	H	0.631958	0.123408	-0.151152
H184	H	1.131958	0.623408	0.348848
H185	H	0.558713	0.058653	-0.150992
H186	H	1.058713	0.558653	0.349008
H187	H	0.414235	0.130873	0.132445
H188	H	0.914235	0.630873	0.632445
N189	N	1.127495	-0.482685	0.072534
N190	N	1.627495	0.017315	0.572534
H191	H	1.149403	-0.436132	0.104274
H192	H	1.649403	0.063868	0.604274
H193	H	1.088286	-0.512503	0.106845
H194	H	1.588286	-0.012503	0.606845
H195	H	0.547070	0.228490	0.080634
H196	H	1.047070	0.728490	0.580634
H197	H	0.402998	0.228309	0.075578
H198	H	0.902998	0.728309	0.575578
N199	N	1.107459	-0.003665	0.376786
N200	N	1.607459	0.496335	0.876786
H201	H	1.143544	-0.039701	0.337686
H202	H	1.643544	0.460299	0.837686
H203	H	1.144452	0.028450	0.411386
H204	H	1.644452	0.528450	0.911386
N205	N	1.107480	-0.003677	0.796781
N206	N	1.607480	0.496323	1.296781
H207	H	1.098846	0.004955	0.855979
H208	H	1.598846	0.504955	1.355979
H209	H	1.097825	-0.063085	0.782198
H210	H	1.597825	0.436915	1.282198
N211	N	0.870701	0.232872	0.623363
N212	N	1.370701	0.732872	1.123363
H213	H	0.880331	0.292307	0.637881
H214	H	1.380331	0.792307	1.137881
H215	H	0.879353	0.224169	0.564178
H216	H	1.379353	0.724169	1.064178
N217	N	0.855431	-0.288670	0.079982
N218	N	1.355431	0.211330	0.579982
H219	H	0.856241	-0.225624	0.080064
H220	H	1.356241	0.274376	0.580064
H221	H	0.822641	-0.305535	0.032296
H222	H	1.322641	0.194465	0.532296
N223	N	0.983417	-0.465619	0.150395
N224	N	1.483417	0.034381	0.650395
H225	H	1.031527	-0.509268	0.135499
H226	H	1.531527	-0.009268	0.635499
H227	H	1.005529	-0.419738	0.182900
H228	H	1.505529	0.080262	0.682900
