data_functionalizedCrystal
_audit_creation_method	'MofGen! by Chris Wilmer'
_symmetry_space_group_name_H-M	'P1'
_symmetry_Int_Tables_number	1
_symmetry_cell_setting	triclinic
loop_
_symmetry_equiv_pos_as_xyz
  x,y,z
_cell_length_a	21.295417
_cell_length_b	12.759401
_cell_length_c	12.759393
_cell_angle_alpha	89.977503
_cell_angle_beta	90.038095
_cell_angle_gamma	89.968672
loop_
_atom_site_label
_atom_site_type_symbol
_atom_site_fract_x
_atom_site_fract_y
_atom_site_fract_z
Zn1	Zn	-0.250565	-1.606151	0.594008
Zn2	Zn	-0.355847	-1.605994	0.418305
Zn3	Zn	-0.250597	-1.430450	0.418339
Zn4	Zn	-0.355802	-1.430393	0.593938
O5	O	-0.303203	-1.518247	0.506147
O6	O	-0.264536	-1.753151	0.570716
O7	O	-0.341918	-1.582665	0.271288
O8	O	-0.162503	-1.453846	0.441685
O9	O	-0.341887	-1.753035	0.441628
O10	O	-0.162480	-1.582933	0.570749
O11	O	-0.264591	-1.453694	0.271313
O12	O	-0.264547	-1.283421	0.441617
O13	O	-0.341809	-1.453750	0.740968
O14	O	-0.341841	-1.283380	0.570628
O15	O	-0.264492	-1.582879	0.741020
O16	O	-0.443930	-1.582610	0.441559
O17	O	-0.443897	-1.453597	0.570596
C18	C	-0.303193	-1.245279	0.506119
C19	C	-0.303204	-1.128503	0.506132
C20	C	-0.343512	-1.073647	0.573201
C21	C	-0.343513	-0.963923	0.573219
C22	C	-0.262898	-0.963921	0.439089
C23	C	-0.262894	-1.073643	0.439078
C24	C	-0.466754	-1.518109	0.506089
C25	C	-0.536722	-1.518146	0.506099
C26	C	-0.569585	-1.585383	0.438979
C27	C	-0.635328	-1.585432	0.439003
C28	C	-0.668205	-1.518226	0.506136
C29	C	-0.635334	-1.450985	0.573269
C30	C	-0.569593	-1.450945	0.573251
N31	N	-0.771471	-1.426319	0.514136
N32	N	-0.833922	-1.426360	0.514147
C33	C	-0.866280	-1.518344	0.506196
N34	N	-0.833826	-1.610287	0.498213
N35	N	-0.771369	-1.610245	0.498197
C36	C	-0.739490	-1.518262	0.506163
C37	C	-0.970428	-1.585640	0.439098
C38	C	-1.036172	-1.585691	0.439129
C39	C	-1.036177	-1.451233	0.573390
C40	C	-0.970434	-1.451192	0.573364
C41	C	-0.937564	-1.518393	0.506212
C42	C	-0.139012	-1.518414	0.506229
C43	C	-0.069044	-1.518485	0.506263
C44	C	-0.303142	-1.518325	0.780181
C45	C	-0.303117	-1.518359	0.896958
C46	C	-0.303211	-0.792280	0.506170
C47	C	-0.303210	-0.909057	0.506162
C48	C	-0.303217	-1.518229	0.233180
C49	C	-0.303066	-1.518399	0.116404
C50	C	-0.262851	-1.585601	0.951848
C51	C	-0.262824	-1.585619	1.061573
C52	C	-0.343333	-1.451149	1.061506
C53	C	-0.343357	-1.451127	0.951783
H54	H	-0.230080	-0.919240	0.384495
H55	H	-0.376335	-0.919264	0.627835
H56	H	-1.062928	-1.640449	0.384473
N57	N	-0.668916	-1.654096	0.370431
N58	N	-0.727613	-1.654113	0.370454
H59	H	-0.751334	-1.702604	0.322024
N60	N	-0.936871	-1.382502	0.641932
N61	N	-0.966230	-1.322504	0.701872
H62	H	-0.942527	-1.273990	0.750305
N63	N	-0.384480	-1.382433	0.895692
N64	N	-0.362335	-1.315499	0.834467
H65	H	-0.391374	-1.266982	0.794851
N66	N	-0.384436	-1.382465	1.117495
N67	N	-0.420377	-1.322420	1.068468
H68	H	-0.449404	-1.273903	1.108008
H69	H	-0.542835	-1.396192	0.627910
N70	N	-0.384691	-1.129687	0.641683
N71	N	-0.442772	-1.117380	0.634533
H72	H	-0.471856	-1.156956	0.682901
N73	N	-0.221709	-1.129668	0.370565
N74	N	-0.185724	-1.080676	0.310698
H75	H	-0.156637	-1.120243	0.262315
H76	H	-0.542824	-1.640105	0.384303
N77	N	-0.221735	-1.654264	0.895861
N78	N	-0.163647	-1.647353	0.908149
H79	H	-0.134605	-1.695846	0.868612
H80	H	-0.662107	-1.396267	0.627931
N81	N	-0.936857	-1.654287	0.370502
N82	N	-0.966211	-1.714324	0.310581
H83	H	-0.942503	-1.762808	0.262133
H84	H	-1.062944	-1.396517	0.628055
N85	N	-0.221686	-1.654307	1.117625
N86	N	-0.185761	-1.714321	1.068657
H87	H	-0.156704	-1.762834	1.108243
