data_functionalizedCrystal
_audit_creation_method	'MofGen! by Chris Wilmer'
_symmetry_space_group_name_H-M	'P1'
_symmetry_Int_Tables_number	1
_symmetry_cell_setting	triclinic
loop_
_symmetry_equiv_pos_as_xyz
  x,y,z
_cell_length_a	18.215407
_cell_length_b	15.299816
_cell_length_c	18.215399
_cell_angle_alpha	80.342622
_cell_angle_beta	90.019833
_cell_angle_gamma	80.351325
loop_
_atom_site_label
_atom_site_type_symbol
_atom_site_fract_x
_atom_site_fract_y
_atom_site_fract_z
Zn1	Zn	1.175767	-0.359060	0.466870
Zn2	Zn	1.196971	-0.509888	0.365123
Zn3	Zn	1.052704	-0.359090	0.343821
Zn4	Zn	1.073954	-0.509838	0.488141
O5	O	1.124849	-0.434469	0.415989
O6	O	1.281565	-0.379077	0.453386
O7	O	1.177814	-0.489918	0.259318
O8	O	1.051262	-0.232875	0.342327
O9	O	1.297144	-0.489889	0.378633
O10	O	1.141676	-0.232854	0.432730
O11	O	1.071822	-0.379127	0.243667
O12	O	0.952537	-0.379078	0.362953
O13	O	1.087479	-0.489804	0.588299
O14	O	0.968149	-0.489832	0.468984
O15	O	1.162281	-0.379028	0.572671
O16	O	1.198419	-0.636092	0.399259
O17	O	1.108039	-0.636055	0.489639
C18	C	0.933640	-0.434454	0.415965
C19	C	0.851844	-0.434469	0.415976
C20	C	0.671811	-0.492229	0.471140
C21	C	0.594953	-0.492232	0.471150
C22	C	0.578641	-0.376725	0.360856
C23	C	0.655497	-0.376719	0.360850
C24	C	0.702081	-0.434476	0.415992
C25	C	0.548366	-0.434485	0.416007
C26	C	0.465033	-0.434488	0.416017
C27	C	0.785420	-0.434472	0.415983
C28	C	1.157856	-0.668798	0.449085
C29	C	1.172044	-0.769046	0.463268
C30	C	1.023929	-1.051970	0.314869
C31	C	1.010595	-0.957782	0.301545
C32	C	1.050956	-0.910594	0.341974
C33	C	1.104653	-0.957601	0.395730
C34	C	1.117984	-1.051798	0.409060
C35	C	1.145012	-0.910422	0.436165
C36	C	1.198709	-0.957429	0.489922
C37	C	1.212038	-1.051616	0.503248
C38	C	1.171677	-1.098805	0.462819
C39	C	1.131680	-0.816225	0.422836
C40	C	1.225736	-0.816053	0.517027
C41	C	1.239070	-0.910240	0.530351
C42	C	1.316804	-0.434485	0.416013
C43	C	1.398604	-0.434492	0.416023
C44	C	1.124885	-0.434407	0.607933
C45	C	1.124900	-0.434380	0.689728
C46	C	1.091733	-0.199224	0.382779
C47	C	1.077621	-0.098977	0.368628
C48	C	1.124846	-0.434466	0.224782
C49	C	1.124938	-0.434238	0.142951
C50	C	1.163859	-0.376645	0.869778
C51	C	1.163864	-0.376619	0.946633
C52	C	1.085974	-0.491976	0.962896
C53	C	1.085965	-0.491997	0.886042
C54	C	1.124912	-0.434333	0.839485
C55	C	1.124926	-0.434286	0.993194
C56	C	1.124931	-0.434258	1.076524
C57	C	1.124906	-0.434360	0.756150
H58	H	0.540704	-0.329703	0.315960
C59	C	0.796870	-0.543511	0.520104
C60	C	0.723017	-0.555707	0.531755
H61	H	0.828480	-0.582705	0.557526
H62	H	0.800932	-0.482935	0.522397
H63	H	0.811288	-0.556639	0.472492
H64	H	0.708597	-0.542574	0.579365
H65	H	0.718951	-0.616297	0.529469
C66	C	1.051407	-0.543169	1.087931
C67	C	1.043172	-0.555365	1.014075
H68	H	1.024986	-0.582310	1.119525
H69	H	1.032105	-0.482575	1.091970
H70	H	1.102717	-0.556369	1.102390
H71	H	0.991862	-0.542159	0.999614
H72	H	1.062471	-0.615973	1.010033
C73	C	0.740110	-0.364029	0.260078
C74	C	0.688778	-0.313233	0.300226
H75	H	0.760658	-0.324834	0.222658
H76	H	0.715644	-0.403273	0.237420
H77	H	0.778847	-0.398418	0.292928
H78	H	0.650038	-0.278849	0.267377
H79	H	0.713244	-0.273973	0.322884
H80	H	1.182533	-1.175500	0.473662
H81	H	1.054244	-0.538972	0.861377
C82	C	1.303682	-1.041984	0.595002
C83	C	1.271065	-1.103289	0.562335
H84	H	1.340127	-1.073885	0.631474
H85	H	1.266408	-1.005262	0.617933
H86	H	1.326642	-1.005237	0.557753
H87	H	1.248100	-1.140032	0.599583
H88	H	1.308345	-1.140026	0.539404
H89	H	0.570311	-0.539259	0.516058
H90	H	1.087960	-0.777960	0.379067
C91	C	0.980655	-0.775766	0.271600
C92	C	1.036306	-0.807061	0.327323
H93	H	0.971616	-0.711847	0.262550
H94	H	0.936184	-0.797107	0.287311
H95	H	0.996430	-0.797109	0.227144
H96	H	1.020528	-0.785723	0.371782
H97	H	1.080786	-0.785711	0.311616
C98	C	0.918976	-0.967421	0.209774
C99	C	0.951582	-0.906114	0.242451
H100	H	0.882547	-0.935520	0.173285
H101	H	0.896004	-1.004157	0.247009
H102	H	0.956264	-1.004152	0.186856
H103	H	0.914295	-0.869387	0.265374
H104	H	0.974554	-0.869362	0.205209
H105	H	0.991069	-1.090399	0.281960
C106	C	1.247072	-0.671592	0.538415
C107	C	1.270108	-0.764193	0.561470
H108	H	1.274465	-0.639573	0.565849
H109	H	1.195447	-0.656204	0.546965
H110	H	1.255692	-0.656197	0.486797
H111	H	1.261482	-0.779589	0.613088
H112	H	1.321745	-0.779587	0.552927
H113	H	1.282791	-0.948527	0.574121
C114	C	1.240842	-0.262610	0.861424
C115	C	1.206660	-0.313253	0.818601
H116	H	1.267260	-0.223469	0.829829
H117	H	1.274529	-0.301897	0.896949
H118	H	1.203914	-0.228108	0.886528
H119	H	1.243588	-0.347762	0.793502
H120	H	1.172970	-0.273961	0.783063
H121	H	1.195577	-0.329643	0.971294
