data_functionalizedCrystal
_audit_creation_method	'MofGen! by Chris Wilmer'
_symmetry_space_group_name_H-M	'P1'
_symmetry_Int_Tables_number	1
_symmetry_cell_setting	triclinic
loop_
_symmetry_equiv_pos_as_xyz
  x,y,z
_cell_length_a	21.395362
_cell_length_b	19.121063
_cell_length_c	21.395355
_cell_angle_alpha	92.420740
_cell_angle_beta	89.956060
_cell_angle_gamma	92.485681
loop_
_atom_site_label
_atom_site_type_symbol
_atom_site_fract_x
_atom_site_fract_y
_atom_site_fract_z
Zn1	Zn	0.947241	-0.279403	-0.365205
Zn2	Zn	1.280574	0.053930	-0.031871
Zn3	Zn	1.613907	0.387263	0.301462
Zn4	Zn	0.942680	-0.396839	-0.264891
Zn5	Zn	1.276013	-0.063505	0.068443
Zn6	Zn	1.609347	0.269828	0.401776
Zn7	Zn	0.842454	-0.279436	-0.260407
Zn8	Zn	1.175788	0.053897	0.072926
Zn9	Zn	1.509121	0.387231	0.406259
Zn10	Zn	0.837961	-0.396853	-0.369596
Zn11	Zn	1.171295	-0.063520	-0.036263
Zn12	Zn	1.504628	0.269814	0.297071
O13	O	0.892584	-0.338133	-0.315025
O14	O	1.225917	-0.004799	0.018309
O15	O	1.559251	0.328534	0.351642
O16	O	1.034314	-0.294962	-0.351936
O17	O	1.367648	0.038372	-0.018603
O18	O	1.700981	0.371705	0.314730
O19	O	0.929357	-0.381273	-0.176618
O20	O	1.262690	-0.047939	0.156715
O21	O	1.596023	0.285394	0.490048
O22	O	0.860144	-0.181145	-0.270595
O23	O	1.193477	0.152188	0.062738
O24	O	1.526810	0.485522	0.396072
O25	O	1.030964	-0.381241	-0.278236
O26	O	1.364297	-0.047908	0.055097
O27	O	1.697630	0.285426	0.388431
O28	O	0.937130	-0.181121	-0.347589
O29	O	1.270463	0.152212	-0.014256
O30	O	1.603796	0.485546	0.319077
O31	O	0.855721	-0.295017	-0.173324
O32	O	1.189055	0.038316	0.160009
O33	O	1.522388	0.371649	0.493342
O34	O	0.754180	-0.295031	-0.274853
O35	O	1.087513	0.038302	0.058481
O36	O	1.420846	0.371635	0.391814
O37	O	0.852486	-0.381266	-0.456691
O38	O	1.185819	-0.047932	-0.123358
O39	O	1.519152	0.285401	0.209976
O40	O	0.750879	-0.381297	-0.355073
O41	O	1.084212	-0.047964	-0.021740
O42	O	1.417545	0.285369	0.311593
O43	O	0.932773	-0.294976	-0.453465
O44	O	1.266106	0.038358	-0.120132
O45	O	1.599439	0.371691	0.213202
O46	O	0.925000	-0.495127	-0.282494
O47	O	1.258333	-0.161794	0.050839
O48	O	1.591666	0.171539	0.384173
O49	O	0.848063	-0.495138	-0.359420
O50	O	1.181397	-0.161804	-0.026087
O51	O	1.514730	0.171529	0.307246
C52	C	0.729795	-0.338170	-0.314953
C53	C	1.063128	-0.004837	0.018380
C54	C	1.396462	0.328497	0.351713
C55	C	0.660152	-0.338203	-0.314938
C56	C	0.993486	-0.004869	0.018395
C57	C	1.326819	0.328464	0.351728
C58	C	0.625735	-0.383181	-0.356651
C59	C	0.959068	-0.049848	-0.023318
C60	C	1.292401	0.283486	0.310015
C61	C	0.560300	-0.383164	-0.356679
C62	C	0.893633	-0.049830	-0.023345
C63	C	1.226967	0.283503	0.309988
C64	C	0.529285	-0.338176	-0.314982
C65	C	0.862619	-0.004842	0.018351
C66	C	1.195952	0.328491	0.351685
C67	C	0.563711	-0.293189	-0.273266
C68	C	0.897045	0.040145	0.060067
C69	C	1.230378	0.373478	0.393401
C70	C	0.629145	-0.293202	-0.273244
C71	C	0.962478	0.040131	0.060089
C72	C	1.295812	0.373464	0.393423
C73	C	0.425776	-0.332517	-0.258362
C74	C	0.759109	0.000816	0.074972
C75	C	1.092442	0.334149	0.408305
C76	C	0.360343	-0.332509	-0.258383
C77	C	0.693676	0.000824	0.074951
C78	C	1.027010	0.334158	0.408284
C79	C	0.327466	-0.338130	-0.315049
C80	C	0.660800	-0.004797	0.018284
C81	C	0.994133	0.328537	0.351617
C82	C	0.360030	-0.343774	-0.371698
C83	C	0.693363	-0.010441	-0.038364
C84	C	1.026696	0.322892	0.294969
C85	C	0.425463	-0.343788	-0.371676
C86	C	0.758797	-0.010454	-0.038342
C87	C	1.092130	0.322879	0.294991
C88	C	0.458334	-0.338156	-0.315001
C89	C	0.791667	-0.004822	0.018332
C90	C	1.125000	0.328511	0.351665
C91	C	0.222096	-0.383092	-0.356795
C92	C	0.555430	-0.049758	-0.023462
C93	C	0.888763	0.283575	0.309871
C94	C	0.156661	-0.383070	-0.356824
C95	C	0.489994	-0.049736	-0.023490
C96	C	0.823327	0.283597	0.309843
C97	C	0.160073	-0.293098	-0.273405
C98	C	0.493407	0.040235	0.059928
C99	C	0.826740	0.373568	0.393261
C100	C	0.225508	-0.293117	-0.273383
C101	C	0.558841	0.040216	0.059951
C102	C	0.892175	0.373550	0.393284
C103	C	0.256516	-0.338117	-0.315077
C104	C	0.589849	-0.004784	0.018256
C105	C	0.923182	0.328549	0.351590
C106	C	0.885566	-0.520617	-0.321934
C107	C	1.218899	-0.187284	0.011399
C108	C	1.552233	0.146050	0.344733
C109	C	0.882621	-0.598685	-0.324911
C110	C	1.215954	-0.265351	0.008423
C111	C	1.549288	0.067982	0.341756
C112	C	0.921325	-0.635332	-0.286291
C113	C	1.254659	-0.301999	0.047042
C114	C	1.587992	0.031335	0.380376
C115	C	0.918559	-0.708685	-0.289094
C116	C	1.251893	-0.375352	0.044239
C117	C	1.585226	-0.042018	0.377572
C118	C	0.877085	-0.745389	-0.330515
C119	C	1.210419	-0.412056	0.002819
C120	C	1.543752	-0.078722	0.336152
C121	C	0.838379	-0.708736	-0.369139
C122	C	1.171713	-0.375403	-0.035805
C123	C	1.505046	-0.042070	0.297528
C124	C	0.841149	-0.635385	-0.366338
C125	C	1.174482	-0.302052	-0.033005
C126	C	1.507816	0.031282	0.300329
C127	C	0.866720	-0.966864	-0.340976
C128	C	1.200053	-0.633531	-0.007642
C129	C	1.533387	-0.300198	0.325691
C130	C	0.863952	-1.040221	-0.343772
C131	C	1.197285	-0.706887	-0.010439
C132	C	1.530619	-0.373554	0.322895
C133	C	0.944133	-1.040164	-0.263728
C134	C	1.277466	-0.706831	0.069605
C135	C	1.610800	-0.373498	0.402939
C136	C	0.946896	-0.966812	-0.260928
C137	C	1.280230	-0.633478	0.072405
C138	C	1.613563	-0.300145	0.405738
C139	C	0.908193	-0.930165	-0.299555
C140	C	1.241526	-0.596832	0.033779
C141	C	1.574859	-0.263499	0.367112
C142	C	0.874256	-0.820367	-0.333380
C143	C	1.207589	-0.487034	-0.000046
C144	C	1.540922	-0.153701	0.333287
C145	C	0.911026	-0.855188	-0.296692
C146	C	1.244359	-0.521855	0.036641
C147	C	1.577693	-0.188522	0.369974
C148	C	1.056009	-0.338096	-0.315097
C149	C	1.389342	-0.004763	0.018237
C150	C	1.722676	0.328571	0.351570
C151	C	1.125651	-0.338080	-0.315127
C152	C	1.458984	-0.004747	0.018206
C153	C	1.792317	0.328586	0.351539
C154	C	0.892637	-0.338119	-0.478447
C155	C	1.225970	-0.004785	-0.145114
C156	C	1.559303	0.328548	0.188219
C157	C	0.892659	-0.338112	-0.548089
C158	C	1.225992	-0.004779	-0.214755
C159	C	1.559326	0.328554	0.118578
C160	C	0.899647	-0.154936	-0.308102
C161	C	1.232980	0.178397	0.025231
C162	C	1.566313	0.511731	0.358565
C163	C	0.902656	-0.076868	-0.305152
C164	C	1.235990	0.256465	0.028181
C165	C	1.569323	0.589798	0.361514
C166	C	0.934463	-0.293179	-0.579123
C167	C	1.267796	0.040154	-0.245789
C168	C	1.601130	0.373487	0.087544
C169	C	0.934463	-0.293149	-0.644557
C170	C	1.267797	0.040184	-0.311224
C171	C	1.601130	0.373517	0.022110
C172	C	0.892666	-0.338065	-0.678955
C173	C	1.225999	-0.004731	-0.345622
C174	C	1.559332	0.328602	-0.012288
C175	C	0.850854	-0.383001	-0.647913
C176	C	1.184187	-0.049667	-0.314580
C177	C	1.517521	0.283666	0.018754
C178	C	0.850851	-0.383025	-0.582480
C179	C	1.184184	-0.049691	-0.249146
C180	C	1.517517	0.283642	0.084187
C181	C	0.885286	-0.401308	-0.785023
C182	C	1.218620	-0.067974	-0.451689
C183	C	1.551953	0.265359	-0.118356
C184	C	0.885294	-0.401285	-0.850455
C185	C	1.218627	-0.067951	-0.517121
C186	C	1.551961	0.265382	-0.183788
C187	C	0.892672	-0.337990	-0.880773
C188	C	1.226006	-0.004657	-0.547440
C189	C	1.559339	0.328676	-0.214106
C190	C	0.900056	-0.274717	-0.845651
C191	C	1.233390	0.058616	-0.512318
C192	C	1.566723	0.391950	-0.178985
C193	C	0.900053	-0.274741	-0.780218
C194	C	1.233386	0.058593	-0.446885
C195	C	1.566720	0.391926	-0.113551
C196	C	0.892664	-0.338043	-0.749907
C197	C	1.225998	-0.004710	-0.416573
C198	C	1.559331	0.328623	-0.083240
C199	C	0.934479	-0.293021	-0.982759
C200	C	1.267812	0.040313	-0.649425
C201	C	1.601146	0.373646	-0.316092
C202	C	0.934475	-0.292989	-1.048194
C203	C	1.267808	0.040344	-0.714861
C204	C	1.601142	0.373677	-0.381527
C205	C	0.850869	-0.382847	-1.051549
C206	C	1.184202	-0.049514	-0.718216
C207	C	1.517535	0.283819	-0.384882
C208	C	0.850870	-0.382872	-0.986115
C209	C	1.184203	-0.049539	-0.652781
C210	C	1.517536	0.283794	-0.319448
C211	C	0.892678	-0.337960	-0.951723
C212	C	1.226011	-0.004627	-0.618390
C213	C	1.559345	0.328707	-0.285057
C214	C	0.892570	-0.338096	-0.152236
C215	C	1.225903	-0.004763	0.181098
C216	C	1.559236	0.328570	0.514431
C217	C	0.892676	-0.337904	-0.082588
C218	C	1.226010	-0.004571	0.250746
C219	C	1.559343	0.328762	0.584079
H220	H	0.128639	-0.419695	-0.390795
H221	H	0.461972	-0.086362	-0.057462
H222	H	0.795305	0.246972	0.275871
H223	H	0.950076	-0.738520	-0.257645
H224	H	1.283409	-0.405187	0.075688
H225	H	1.616743	-0.071853	0.409021
Cl226	Cl	0.792492	-0.589313	-0.414893
Cl227	Cl	1.125825	-0.255980	-0.081560
Cl228	Cl	1.459159	0.077353	0.251774
Cl229	Cl	0.121090	-0.236537	-0.220990
Cl230	Cl	0.454423	0.096796	0.112344
Cl231	Cl	0.787757	0.430130	0.445677
Cl232	Cl	0.811801	-1.086362	-0.395839
Cl233	Cl	1.145135	-0.753029	-0.062506
Cl234	Cl	1.478468	-0.419695	0.270827
H235	H	0.906064	-0.223221	-0.751624
H236	H	1.239397	0.110112	-0.418291
H237	H	1.572730	0.443445	-0.084958
Cl238	Cl	0.524723	-0.236629	-0.220850
Cl239	Cl	0.858056	0.096704	0.112483
Cl240	Cl	1.191389	0.430038	0.445817
Cl241	Cl	0.987019	-0.236714	-0.535891
Cl242	Cl	1.320352	0.096619	-0.202558
Cl243	Cl	1.653685	0.429952	0.130775
Cl244	Cl	0.318707	-0.350837	-0.442941
Cl245	Cl	0.652040	-0.017503	-0.109608
Cl246	Cl	0.985374	0.315830	0.223725
H247	H	0.944797	-0.825302	-0.262970
H248	H	1.278130	-0.491969	0.070363
H249	H	1.611463	-0.158635	0.403696
H250	H	0.840486	-0.850260	-0.367103
H251	H	1.173819	-0.516926	-0.033770
H252	H	1.507153	-0.183593	0.299564
H253	H	0.975644	-1.070010	-0.232282
H254	H	1.308977	-0.736676	0.101052
H255	H	1.642311	-0.403343	0.434385
H256	H	0.532271	-0.419790	-0.390649
H257	H	0.865605	-0.086457	-0.057315
H258	H	1.198938	0.246877	0.276018
Cl259	Cl	0.987009	-0.236643	-0.683580
Cl260	Cl	1.320342	0.096690	-0.350246
Cl261	Cl	1.653675	0.430023	-0.016913
Cl262	Cl	0.798293	-0.439517	-0.543463
Cl263	Cl	1.131626	-0.106184	-0.210130
Cl264	Cl	1.464960	0.227149	0.123203
H265	H	0.451974	-0.348381	-0.417801
H266	H	0.785307	-0.015048	-0.084467
H267	H	1.118641	0.318285	0.248866
Cl268	Cl	0.798315	-0.439366	-0.947098
Cl269	Cl	1.131649	-0.106033	-0.613765
Cl270	Cl	1.464982	0.227301	-0.280431
Cl271	Cl	0.261081	-0.439658	-0.409214
Cl272	Cl	0.594414	-0.106325	-0.075880
Cl273	Cl	0.927747	0.227009	0.257453
Cl274	Cl	0.268779	-0.236571	-0.220939
Cl275	Cl	0.602112	0.096762	0.112395
Cl276	Cl	0.935445	0.430095	0.445728
Cl277	Cl	0.909336	-0.195141	-0.883758
Cl278	Cl	1.242669	0.138192	-0.550425
Cl279	Cl	1.576002	0.471525	-0.217091
H280	H	0.816820	-0.419569	-0.675924
H281	H	1.150154	-0.086236	-0.342591
H282	H	1.483487	0.247098	-0.009257
Cl283	Cl	0.319413	-0.325413	-0.187169
Cl284	Cl	0.652746	0.007921	0.146164
Cl285	Cl	0.986079	0.341254	0.479498
H286	H	0.968519	-0.256447	-0.954755
H287	H	1.301852	0.076887	-0.621422
H288	H	1.635185	0.410220	-0.288089
H289	H	0.657168	-0.256574	-0.239276
H290	H	0.990501	0.076760	0.094057
H291	H	1.323835	0.410093	0.427391
H292	H	0.968516	-0.256395	-1.073461
H293	H	1.301849	0.076938	-0.740127
H294	H	1.635183	0.410271	-0.406794
H295	H	0.816830	-0.419411	-1.079555
H296	H	1.150164	-0.086078	-0.746222
H297	H	1.483497	0.247256	-0.412888
H298	H	0.879111	-0.452836	-0.760343
H299	H	1.212444	-0.119503	-0.427009
H300	H	1.545777	0.213830	-0.093676
Cl301	Cl	0.664712	-0.439750	-0.409070
Cl302	Cl	0.998045	-0.106416	-0.075737
Cl303	Cl	1.331379	0.226917	0.257597
H304	H	0.452538	-0.327937	-0.212214
H305	H	0.785872	0.005396	0.121120
H306	H	1.119205	0.338729	0.454453
Cl307	Cl	0.999046	-0.920675	-0.208864
Cl308	Cl	1.332379	-0.587341	0.124470
Cl309	Cl	1.665713	-0.254008	0.457803
H310	H	0.835205	-0.937033	-0.372426
H311	H	1.168538	-0.603699	-0.039092
H312	H	1.501872	-0.270366	0.294241
H313	H	0.955095	-0.605453	-0.252559
H314	H	1.288428	-0.272119	0.080774
H315	H	1.621762	0.061214	0.414107
Cl316	Cl	0.786244	-0.754879	-0.421214
Cl317	Cl	1.119577	-0.421545	-0.087881
Cl318	Cl	1.452911	-0.088212	0.245453
H319	H	0.879285	-0.452806	-0.879046
H320	H	1.212619	-0.119473	-0.545713
H321	H	1.545952	0.213861	-0.212379
