data_functionalizedCrystal
_audit_creation_method	'MofGen! by Chris Wilmer'
_symmetry_space_group_name_H-M	'P1'
_symmetry_Int_Tables_number	1
_symmetry_cell_setting	triclinic
loop_
_symmetry_equiv_pos_as_xyz
  x,y,z
_cell_length_a	21.295418
_cell_length_b	12.645330
_cell_length_c	12.645324
_cell_angle_alpha	90.031766
_cell_angle_beta	89.958037
_cell_angle_gamma	89.966493
loop_
_atom_site_label
_atom_site_type_symbol
_atom_site_fract_x
_atom_site_fract_y
_atom_site_fract_z
Zn1	Zn	0.962401	0.421511	-0.599984
Zn2	Zn	0.962330	0.598820	-0.422724
Zn3	Zn	0.857127	0.421620	-0.422670
Zn4	Zn	0.857117	0.598782	-0.599881
O5	O	0.909744	0.510184	-0.511315
O6	O	1.050481	0.445002	-0.576536
O7	O	0.948349	0.575376	-0.274369
O8	O	0.871126	0.273259	-0.446211
O9	O	1.050429	0.575270	-0.446304
O10	O	0.948470	0.273178	-0.576483
O11	O	0.871057	0.445188	-0.274329
O12	O	0.769036	0.445151	-0.446111
O13	O	0.871108	0.575205	-0.748242
O14	O	0.769029	0.575311	-0.576307
O15	O	0.948460	0.444965	-0.748318
O16	O	0.948339	0.747163	-0.446204
O17	O	0.871040	0.747134	-0.576360
C18	C	0.746192	0.510239	-0.511193
C19	C	0.676224	0.510289	-0.511165
C20	C	0.909698	0.785613	-0.511300
C21	C	0.909736	0.903443	-0.511329
C22	C	0.909791	0.510068	-0.787820
C23	C	0.909811	0.510019	-0.905650
C24	C	0.643370	0.578153	-0.578857
C25	C	0.577627	0.578127	-0.578905
C26	C	0.544742	0.510248	-0.511242
C27	C	0.577604	0.442370	-0.443545
C28	C	0.643345	0.442391	-0.443507
N29	N	0.441466	0.501981	-0.418520
N30	N	0.379015	0.501968	-0.418560
C31	C	0.346667	0.510180	-0.511354
N32	N	0.379130	0.518426	-0.604110
N33	N	0.441587	0.518445	-0.604070
C34	C	0.473456	0.510217	-0.511276
C35	C	0.242527	0.578019	-0.579103
C36	C	0.176784	0.577986	-0.579153
C37	C	0.176761	0.442235	-0.443784
C38	C	0.242503	0.442263	-0.443744
C39	C	0.275383	0.510161	-0.511402
C40	C	1.073934	0.510128	-0.511438
C41	C	1.143902	0.510105	-0.511490
C42	C	0.909807	0.233678	-0.511353
C43	C	0.909834	0.115848	-0.511369
C44	C	0.861307	1.071033	-0.593463
C45	C	0.861059	0.948474	-0.593199
C46	C	0.891776	0.948059	-0.399597
C47	C	0.891480	1.070658	-0.400095
C48	C	0.976421	1.070498	-0.540021
C49	C	0.976012	0.947891	-0.542464
C50	C	0.958662	0.428322	-1.073262
C51	C	0.958506	0.428027	-0.950702
C52	C	0.843494	0.479692	-0.950091
C53	C	0.843790	0.479072	-1.072690
C54	C	0.926739	0.622163	-1.072858
C55	C	0.928190	0.621598	-0.950253
C56	C	0.909733	0.510222	-0.235885
C57	C	0.909835	0.509972	-0.118055
H58	H	0.670136	0.633439	-0.633952
H59	H	0.550872	0.633389	-0.634032
C60	C	0.679489	0.367743	-0.369041
H61	H	0.723351	0.377474	-0.378713
H62	H	0.668661	0.383167	-0.297794
H63	H	0.668760	0.296526	-0.384694
H64	H	0.947313	0.344918	-0.921383
C65	C	0.826703	0.906758	-0.366216
H66	H	0.816253	0.934195	-0.298494
H67	H	0.796175	0.928889	-0.416283
H68	H	0.827541	0.831703	-0.363264
H69	H	0.150035	0.633247	-0.634282
C70	C	0.278648	0.367621	-0.369276
H71	H	0.322510	0.377349	-0.378950
H72	H	0.267822	0.383048	-0.298028
H73	H	0.267916	0.296405	-0.384926
H74	H	1.012575	1.099477	-0.480229
C75	C	0.994313	0.908504	-0.653550
H76	H	1.034445	0.935668	-0.671938
H77	H	0.995694	0.833418	-0.653797
H78	H	0.964090	0.932150	-0.703457
C79	C	0.793004	0.557555	-0.910668
H80	H	0.753280	0.537760	-0.938481
H81	H	0.791435	0.555944	-0.835610
H82	H	0.803146	0.627004	-0.933614
C83	C	0.541432	0.367706	-0.369118
H84	H	0.497573	0.377420	-0.378828
H85	H	0.552247	0.296500	-0.384747
H86	H	0.552154	0.383147	-0.297854
C87	C	0.998553	1.112133	-0.648220
H88	H	0.967387	1.157566	-0.676934
H89	H	1.036641	1.150243	-0.639661
H90	H	1.005270	1.054267	-0.694827
H91	H	0.269299	0.633300	-0.634200
H92	H	0.806172	0.535956	-1.102316
H93	H	0.149986	0.386962	-0.388696
H94	H	0.976994	0.644467	-0.921209
C95	C	0.876217	0.907712	-0.705123
H96	H	0.882581	0.966080	-0.751164
H97	H	0.913206	0.865747	-0.702985
H98	H	0.842198	0.866178	-0.730284
C99	C	0.990952	0.659427	-1.114667
H100	H	1.008055	0.606905	-1.160083
H101	H	0.985809	0.723529	-1.152832
H102	H	1.018616	0.670810	-1.056871
H103	H	0.828902	0.398598	-0.919388
H104	H	0.872441	1.100430	-0.676582
H105	H	0.829461	0.397063	-1.101291
H106	H	1.014071	0.917230	-0.487028
C107	C	1.024939	0.453657	-0.910110
H108	H	1.052267	0.464339	-0.968548
H109	H	1.023596	0.515994	-0.868213
H110	H	1.039945	0.396430	-0.868543
C111	C	1.025314	0.453633	-1.113155
H112	H	1.023963	0.514218	-1.157491
H113	H	1.051987	0.467197	-1.054522
H114	H	1.041109	0.395098	-1.152091
H115	H	0.947614	0.345673	-1.104079
H116	H	0.812251	1.101959	-0.574720
C117	C	0.883636	0.708202	-0.908834
H118	H	0.853103	0.677306	-0.863602
H119	H	0.907072	0.759365	-0.870553
H120	H	0.863231	0.741352	-0.966804
H121	H	0.811695	0.919265	-0.574213
C122	C	0.825724	1.109458	-0.367323
H123	H	0.799442	1.050293	-0.353836
H124	H	0.828949	1.151339	-0.305180
H125	H	0.808208	1.150663	-0.422753
H126	H	0.891178	0.683001	-1.101830
H127	H	0.925291	1.100307	-0.336841
H128	H	0.926000	0.918892	-0.336757
