data_functionalizedCrystal
_audit_creation_method	'MofGen! by Chris Wilmer'
_symmetry_space_group_name_H-M	'P1'
_symmetry_Int_Tables_number	1
_symmetry_cell_setting	triclinic
loop_
_symmetry_equiv_pos_as_xyz
  x,y,z
_cell_length_a	9.798715
_cell_length_b	17.699083
_cell_length_c	17.699083
_cell_angle_alpha	83.283015
_cell_angle_beta	89.995964
_cell_angle_gamma	90.002347
loop_
_atom_site_label
_atom_site_type_symbol
_atom_site_fract_x
_atom_site_fract_y
_atom_site_fract_z
O1	O	0.113302	-1.004075	-0.095710
O2	O	0.113347	-0.783697	-0.108162
O3	O	0.113312	-0.900112	0.008253
O4	O	0.113338	-0.887660	-0.212125
O5	O	-0.113671	-0.900104	0.008254
O6	O	-0.113635	-0.783688	-0.108162
O7	O	-0.113680	-1.004066	-0.095709
Zn8	Zn	-0.149696	-0.893876	-0.101936
Zn9	Zn	0.149363	-0.893887	-0.101936
O10	O	-0.113644	-0.887651	-0.212125
C11	C	-0.000138	-0.755495	-0.107716
C12	C	-0.000121	-0.671477	-0.106377
N13	N	-0.353795	-0.893874	-0.101935
C14	C	-0.000180	-0.899662	0.036451
C15	C	-0.000180	-0.898323	0.120469
C16	C	-0.421587	-0.942756	-0.052842
C17	C	-0.578750	-0.942768	-0.052839
N18	N	0.353463	-0.893896	-0.101930
C19	C	-0.000191	-1.032268	-0.096156
C20	C	-0.000199	-1.116286	-0.097494
C21	C	-0.000113	-0.622856	-0.174710
C22	C	-0.000131	-0.543913	-0.173448
C23	C	-0.000147	-0.513592	-0.103852
C24	C	-0.000159	-0.562219	-0.035513
C25	C	-0.000151	-0.641161	-0.036776
C26	C	-0.000193	-0.243856	-0.030418
C27	C	-0.000197	-0.164908	-0.029160
C28	C	-0.000174	-0.146608	-0.167090
C29	C	-0.000165	-0.225550	-0.168353
C30	C	-0.000185	-0.274170	-0.100015
C31	C	-0.000168	-0.359769	-0.101384
C32	C	-0.000154	-0.427995	-0.102481
C33	C	-0.000150	-0.888102	-0.240322
C34	C	-0.000141	-0.889440	-0.324340
C35	C	-0.000196	-0.966656	0.169090
C36	C	-0.000183	-0.965394	0.248033
C37	C	-0.000165	-0.895798	0.278354
C38	C	-0.000145	-0.827459	0.229727
C39	C	-0.000148	-0.828722	0.150785
C40	C	-0.000133	-0.822364	0.548090
C41	C	-0.000134	-0.821106	0.627038
C42	C	-0.000169	-0.959036	0.645338
C43	C	-0.000171	-0.960299	0.566396
C44	C	-0.000144	-0.891961	0.517776
C45	C	-0.000155	-0.893330	0.432177
C46	C	-0.000164	-0.894427	0.363951
H47	H	-0.363278	-0.984594	-0.010811
H48	H	-0.000134	-0.773078	0.111198
C49	C	-0.432551	-0.837336	-0.158704
H50	H	-0.369639	-0.806660	-0.189499
H51	H	-0.488299	-0.864621	-0.190063
H52	H	-0.488286	-0.805832	-0.131567
C53	C	-0.000095	-0.656202	-0.251268
H54	H	-0.000105	-0.615936	-0.291783
H55	H	0.079061	-0.686613	-0.254630
H56	H	-0.079256	-0.686620	-0.254627
C57	C	-0.000118	-0.490433	-0.248615
H58	H	-0.000090	-0.519797	-0.290244
H59	H	-0.079276	-0.459262	-0.250994
H60	H	0.079042	-0.459253	-0.250987
H61	H	-0.000146	-0.250232	-0.225025
H62	H	-0.637048	-0.984620	-0.010812
C63	C	-0.000187	-1.040559	0.301516
H64	H	-0.000161	-1.029841	0.352874
H65	H	-0.079344	-1.069105	0.292349
H66	H	0.078973	-1.069100	0.292328
C67	C	-0.000171	-0.093124	-0.242262
H68	H	-0.000193	-0.041766	-0.231546
H69	H	0.078990	-0.102296	-0.270805
H70	H	-0.079328	-0.102309	-0.270805
H71	H	-0.000191	-0.537526	0.021154
C72	C	-0.000228	-0.131557	0.047400
H73	H	-0.000252	-0.171819	0.087919
H74	H	0.078922	-0.101139	0.050763
H75	H	-0.079396	-0.101145	0.050750
C76	C	-0.000205	-0.297328	0.044751
H77	H	-0.000201	-0.267962	0.086379
H78	H	-0.079357	-0.328507	0.047128
H79	H	0.078960	-0.328501	0.047128
H80	H	-0.000219	-1.023330	0.144409
C81	C	-0.000146	-0.694644	0.038390
H82	H	-0.000142	-0.665282	0.080021
H83	H	-0.079294	-0.725826	0.040767
H84	H	0.079023	-0.725813	0.040762
H85	H	-0.000193	-1.016971	0.541714
H86	H	-0.000184	-1.014680	0.684934
H87	H	-0.000122	-0.764429	0.651721
H88	H	-0.000111	-0.766718	0.508512
H89	H	-0.000121	-0.770792	0.254420
H90	H	-0.588248	-0.852046	-0.143966
