data_functionalizedCrystal
_audit_creation_method	'MofGen! by Chris Wilmer'
_symmetry_space_group_name_H-M	'P1'
_symmetry_Int_Tables_number	1
_symmetry_cell_setting	triclinic
loop_
_symmetry_equiv_pos_as_xyz
  x,y,z
_cell_length_a	31.640172
_cell_length_b	21.606444
_cell_length_c	21.606444
_cell_angle_alpha	60.001331
_cell_angle_beta	90.005700
_cell_angle_gamma	59.997094
loop_
_atom_site_label
_atom_site_type_symbol
_atom_site_fract_x
_atom_site_fract_y
_atom_site_fract_z
Zr1	Zr	0.407174	0.677376	-0.081121
O2	O	0.339680	0.806511	-0.179957
O3	O	0.427865	0.548252	-0.050826
O4	O	0.427860	0.677376	-0.179944
O5	O	0.339689	0.677383	0.051015
O6	O	0.497417	0.677363	-0.179931
O7	O	0.339686	0.677387	-0.050839
O8	O	0.497427	0.446384	0.051039
O9	O	0.339680	0.908362	-0.179954
O10	O	0.488599	0.601349	-0.037891
O11	O	0.436692	0.601355	0.038111
O12	O	0.436686	0.753382	-0.113909
O13	O	0.384779	0.753388	-0.037907
Zr14	Zr	0.518115	0.677348	0.081346
Zr15	Zr	0.518110	0.677355	-0.081100
Zr16	Zr	0.407180	0.677369	0.081324
Zr17	Zr	0.407173	0.839816	-0.081116
Zr18	Zr	0.518117	0.514908	0.081341
O19	O	0.497424	0.806472	0.051050
O20	O	0.497416	0.806482	-0.179926
O21	O	0.339688	0.806501	0.051020
O22	O	0.585609	0.548213	0.180182
O23	O	0.585601	0.548223	-0.050795
O24	O	0.427873	0.548242	0.180151
O25	O	0.585600	0.677342	-0.050791
O26	O	0.497430	0.677348	0.180169
O27	O	0.427873	0.677361	0.180155
O28	O	0.585604	0.677337	0.051063
O29	O	0.427858	0.908345	-0.179937
O30	O	0.497431	0.446379	0.180161
O31	O	0.585610	0.446363	0.180178
O32	O	0.585606	0.446368	0.051056
O33	O	0.339684	0.908356	-0.050831
O34	O	0.427863	0.908340	-0.050814
O35	O	0.488604	0.601342	0.114134
O36	O	0.540511	0.601336	0.038131
O37	O	0.488598	0.753369	-0.037887
O38	O	0.436691	0.753375	0.038116
C39	C	0.462646	0.474174	0.000106
C40	C	0.462647	0.405214	0.000103
C41	C	0.489741	0.372813	-0.039570
C42	C	0.489742	0.308013	-0.039565
C43	C	0.462647	0.275620	0.000110
C44	C	0.435553	0.308023	0.039788
C45	C	0.435554	0.372818	0.039787
C46	C	0.435546	0.046714	0.039794
C47	C	0.435546	-0.018083	0.039791
C48	C	0.489735	-0.018091	-0.039558
C49	C	0.489736	0.046704	-0.039559
C50	C	0.462644	0.079098	0.000123
C51	C	0.462643	0.149361	0.000118
C52	C	0.462645	0.205363	0.000111
C53	C	0.323881	0.677388	0.000085
C54	C	0.276786	0.677396	0.000076
C55	C	0.011879	0.597994	0.039808
C56	C	-0.165106	0.597979	0.039823
O57	O	-0.164946	0.530486	0.073598
N58	N	-0.214334	0.677338	0.000142
C59	C	-0.219315	0.756707	-0.039542
O60	O	-0.265248	0.824206	-0.073287
C61	C	-0.042331	0.756721	-0.039553
C62	C	0.006897	0.677357	0.000125
C63	C	0.061104	0.518636	0.079483
C64	C	0.105347	0.518641	0.079476
C65	C	0.100365	0.598003	0.039793
C66	C	0.051140	0.677361	0.000118
C67	C	-0.047312	0.836089	-0.079232
C68	C	-0.003061	0.836085	-0.079229
C69	C	0.046167	0.756721	-0.039551
C70	C	0.090402	0.756728	-0.039573
N71	N	0.139629	0.677369	0.000109
C72	C	0.144611	0.598007	0.039792
C73	C	-0.312233	0.756694	-0.039536
C74	C	-0.356479	0.756690	-0.039534
C75	C	-0.302267	0.597962	0.039833
C76	C	-0.258020	0.597967	0.039826
C77	C	-0.263005	0.677335	0.000146
C78	C	0.237524	0.598022	0.039772
C79	C	0.281768	0.598034	0.039759
C80	C	0.227553	0.756761	-0.039604
C81	C	0.183312	0.756750	-0.039594
C82	C	0.188300	0.677374	0.000100
O83	O	0.090281	0.824186	-0.073322
O84	O	0.190548	0.530517	0.073545
C85	C	-0.032365	0.597990	0.039816
C86	C	-0.081590	0.677347	0.000140
C87	C	-0.086572	0.756710	-0.039542
C88	C	-0.125836	0.677344	0.000142
C89	C	-0.120854	0.597982	0.039824
C90	C	-0.071626	0.518623	0.079506
C91	C	-0.027383	0.518627	0.079498
C92	C	-0.135800	0.836069	-0.079224
C93	C	-0.180041	0.836058	-0.079214
C94	C	-0.175059	0.756695	-0.039531
C95	C	0.601408	0.677337	0.000139
C96	C	0.648503	0.677328	0.000149
C97	C	0.462638	0.677371	-0.203082
C98	C	0.462635	0.677374	-0.272045
C99	C	0.462643	0.880550	0.000119
C100	C	0.462643	0.949510	0.000121
C101	C	0.435537	0.756733	-0.344124
C102	C	0.435541	0.756731	-0.408919
C103	C	0.462642	0.677368	-0.401633
C104	C	0.489743	0.598003	-0.329546
C105	C	0.489742	0.598006	-0.264753
C106	C	0.489752	0.597988	-0.590849
C107	C	0.489750	0.597990	-0.655650
C108	C	0.435551	0.756712	-0.735015
C109	C	0.435550	0.756715	-0.670222
C110	C	0.462653	0.677351	-0.598141
C111	C	0.462649	0.677354	-0.527883
C112	C	0.462643	0.677364	-0.471889
C113	C	0.462652	0.677353	0.203307
C114	C	0.462654	0.677350	0.272269
C115	C	0.601410	0.474149	0.000133
C116	C	0.648505	0.405180	0.000140
C117	C	0.462653	0.474165	0.203300
C118	C	0.462656	0.405202	0.272260
C119	C	0.601417	0.474140	0.203327
C120	C	0.648515	0.405168	0.272297
C121	C	0.323873	0.880585	-0.203103
C122	C	0.276775	0.949556	-0.272072
C123	C	0.323880	0.880576	0.000092
C124	C	0.276785	0.949545	0.000085
C125	C	0.462636	0.880559	-0.203076
C126	C	0.462633	0.949522	-0.272036
C127	C	0.643524	0.372798	-0.039547
C128	C	0.687771	0.308003	-0.039556
C129	C	0.736999	0.275587	0.000127
C130	C	0.741979	0.307975	0.039815
C131	C	0.697732	0.372773	0.039819
C132	C	0.489755	0.372810	0.344335
C133	C	0.489756	0.308021	0.409136
C134	C	0.462660	0.275621	0.401862
C135	C	0.435558	0.308020	0.329780
C136	C	0.435555	0.372812	0.264980
C137	C	0.697732	0.372775	0.265013
C138	C	0.741989	0.307977	0.329811
C139	C	0.737029	0.275570	0.401892
C140	C	0.687806	0.307970	0.409174
C141	C	0.643550	0.372770	0.344377
C142	C	0.227558	0.981957	-0.264788
C143	C	0.183300	1.046775	-0.329586
C144	C	0.188261	1.079186	-0.401667
C145	C	0.237483	1.046782	-0.408949
C146	C	0.281740	0.981970	-0.344152
C147	C	0.281766	0.981933	0.039765
C148	C	0.237519	1.046746	0.039755
C149	C	0.188291	1.079164	0.000070
C150	C	0.183311	1.046773	-0.039614
C151	C	0.227557	0.981966	-0.039609
C152	C	0.489734	0.981901	-0.264737
C153	C	0.489742	1.046691	-0.329526
C154	C	0.462645	1.079104	-0.401614
C155	C	0.435543	1.046719	-0.408911
C156	C	0.435539	0.981926	-0.344122
H157	H	0.511805	0.281632	-0.071870
H158	H	0.511810	1.073052	-0.323570
H159	H	0.773070	0.222805	0.454647
O160	O	-0.100400	0.921692	-0.122028
H161	H	-0.121852	0.925485	-0.081969
O162	O	0.130216	1.081708	-0.321717
H163	H	0.100271	1.132230	-0.378879
O164	O	0.703110	0.407685	0.082637
H165	H	0.684250	0.395244	0.126490
O166	O	0.518966	0.512413	-0.187006
H167	H	0.537806	0.457226	-0.192823
H168	H	-0.139864	0.900697	-0.111540
H169	H	-0.298217	0.533342	0.072139
O170	O	0.406329	1.081654	-0.486658
H171	H	0.364680	1.111180	-0.493271
H172	H	0.143224	1.073178	-0.071925
H173	H	0.223494	0.955597	-0.071919
O174	O	0.590431	0.407763	-0.082359
H175	H	0.594409	0.374361	-0.109962
H176	H	0.413494	0.281639	0.072096
O177	O	0.140525	1.149100	-0.471554
H178	H	0.105469	1.166179	-0.454372
O179	O	0.406327	0.407737	0.187245
H180	H	0.410870	0.458239	0.143400
O181	O	0.025711	0.433027	0.122294
H182	H	0.030218	0.394974	0.183280
H183	H	0.683775	0.281574	0.467871
H184	H	0.511797	-0.044476	-0.071866
O185	O	0.406307	0.842332	-0.351983
H186	H	0.387469	0.897514	-0.412992
H187	H	0.511798	0.073080	-0.071869
O188	O	0.406309	-0.053010	0.082568
H189	H	0.387469	-0.019597	0.110160
O190	O	0.462644	1.148999	-0.471491
H191	H	0.486037	1.166073	-0.454298
O192	O	0.406321	0.081660	0.082582
H193	H	0.387475	0.048256	0.110160
H194	H	-0.067577	0.454003	0.111812
O195	O	0.590468	0.407687	0.352248
H196	H	0.568999	0.479167	0.324636
H197	H	0.223509	0.955572	-0.206102
H198	H	0.241516	1.073179	-0.467645
O199	O	-0.233137	0.921663	-0.122012
H200	H	-0.229162	0.976845	-0.149598
O201	O	0.518998	0.273069	0.486877
H202	H	0.537847	0.306472	0.481042
O203	O	0.334825	0.947013	-0.352012
H204	H	0.330833	0.980436	-0.413022
H205	H	-0.217940	0.533341	0.072142
H206	H	0.511800	0.955520	-0.206046
O207	O	0.703093	0.407721	0.187275
H208	H	0.664054	0.458220	0.143432
H209	H	0.782064	0.281604	0.323868
O210	O	0.334859	0.946987	0.082558
H211	H	0.330880	0.980417	0.110133
O212	O	0.242899	1.081663	0.082569
H213	H	0.224032	1.069238	0.126415
H214	H	0.321852	0.533403	0.072072
O215	O	0.462671	0.205734	0.471760
H216	H	0.439275	0.188644	0.454600
H217	H	0.065169	0.454006	0.111802
H218	H	0.773023	0.222824	0.000119
O219	O	0.140574	1.149042	0.000097
H220	H	0.140606	1.208078	-0.024714
O221	O	0.406329	0.407774	0.082573
H222	H	0.387483	0.374371	0.110155
H223	H	0.413468	0.955570	-0.350076
H224	H	-0.396559	0.821317	-0.071854
H225	H	0.511802	0.399187	-0.071882
O226	O	0.518980	0.512405	-0.321688
H227	H	0.537829	0.457222	-0.260679
O228	O	0.795075	0.273002	0.082622
H229	H	0.825001	0.222496	0.075956
H230	H	0.511820	0.399183	0.350272
H231	H	0.241593	0.533386	0.072096
H232	H	-0.316300	0.821328	-0.071853
O233	O	0.158441	0.433041	0.122276
H234	H	0.154463	0.377862	0.149873
H235	H	0.143227	0.821375	-0.071913
O236	O	-0.008436	0.921691	-0.122034
H237	H	-0.050102	0.976870	-0.149626
H238	H	0.683706	0.281641	-0.071874
H239	H	0.413476	0.821353	-0.467607
O240	O	0.222217	0.842329	-0.082461
H241	H	0.241092	0.846160	-0.042444
O242	O	0.406317	0.842313	-0.678079
H243	H	0.421977	0.880362	-0.709531
O244	O	0.406327	0.842318	-0.812761
H245	H	0.410886	0.828988	-0.856595
H246	H	0.511820	0.533360	-0.649709
H247	H	0.413498	0.281630	0.323868
O248	O	0.518977	0.512392	-0.513110
H249	H	0.537815	0.457209	-0.518933
