data_functionalizedCrystal
_audit_creation_method	'MofGen! by Chris Wilmer'
_symmetry_space_group_name_H-M	'P1'
_symmetry_Int_Tables_number	1
_symmetry_cell_setting	triclinic
loop_
_symmetry_equiv_pos_as_xyz
  x,y,z
_cell_length_a	13.635800
_cell_length_b	10.992421
_cell_length_c	11.102291
_cell_angle_alpha	91.888780
_cell_angle_beta	71.394248
_cell_angle_gamma	71.235237
loop_
_atom_site_label
_atom_site_type_symbol
_atom_site_fract_x
_atom_site_fract_y
_atom_site_fract_z
V1	V	2.056184	-0.177777	-0.396241
O2	O	2.035266	0.008526	-0.388717
O3	O	2.044980	-0.352486	-0.393514
O4	O	2.044570	-0.175050	-0.569064
O5	O	2.035678	-0.170138	-0.211951
V6	V	2.294683	-0.155492	-0.374201
O7	O	2.193969	-0.226660	-0.444589
O8	O	2.381996	-0.106608	-0.325853
O9	O	2.194284	0.019217	-0.376928
O10	O	2.374300	-0.341795	-0.381725
O11	O	2.373887	-0.163131	-0.558491
O12	O	2.194694	-0.158219	-0.201378
V13	V	2.556184	-0.177777	-0.396241
O14	O	2.535266	0.008526	-0.388717
O15	O	2.544980	-0.352486	-0.393514
O16	O	2.544570	-0.175050	-0.569064
O17	O	2.535678	-0.170138	-0.211951
V18	V	2.794683	-0.155492	-0.374201
O19	O	2.693969	-0.226660	-0.444589
O20	O	2.881996	-0.106608	-0.325853
O21	O	2.694284	0.019217	-0.376928
O22	O	2.874300	-0.341795	-0.381725
O23	O	2.873887	-0.163131	-0.558491
O24	O	2.694694	-0.158219	-0.201378
C25	C	1.970234	-0.395076	-0.387258
C26	C	2.001801	-0.537902	-0.386180
C27	C	1.935654	-0.733189	-0.377489
C28	C	1.902611	-0.584545	-0.378107
C29	C	2.037387	-0.576533	-0.267661
C30	C	2.069508	-0.725076	-0.266406
C31	C	2.134684	-0.763668	-0.509364
C32	C	2.100151	-0.615154	-0.511936
C33	C	1.969711	-0.168737	-0.611188
C34	C	2.000943	-0.167663	-0.752471
C35	C	2.107634	-0.173566	-0.825319
C36	C	2.136967	-0.172532	-0.958065
C37	C	1.952909	-0.159696	-0.945105
C38	C	1.923575	-0.160721	-0.812360
C39	C	2.213900	-0.180982	-0.832803
C40	C	2.243234	-0.179948	-0.965549
C41	C	2.100700	0.061800	-0.383180
C42	C	2.058754	0.204626	-0.384267
C43	C	2.470234	-0.395076	-0.387258
C44	C	2.501801	-0.537902	-0.386180
C45	C	2.101224	-0.164536	-0.159247
C46	C	2.059610	-0.165604	-0.017963
C47	C	2.469711	-0.168737	-0.611188
C48	C	2.500943	-0.167663	-0.752471
C49	C	2.600700	0.061800	-0.383180
C50	C	2.558754	0.204626	-0.384267
C51	C	2.601224	-0.164536	-0.159247
C52	C	2.559610	-0.165604	-0.017963
C53	C	2.608650	-0.611547	-0.392013
C54	C	2.638307	-0.745749	-0.391011
C55	C	2.454254	-0.732649	-0.378338
C56	C	2.424601	-0.598451	-0.379349
C57	C	2.714911	-0.619110	-0.399324
C58	C	2.744568	-0.753313	-0.398322
C59	C	2.607634	-0.173566	-0.825319
C60	C	2.636967	-0.172532	-0.958065
C61	C	2.452909	-0.159696	-0.945105
C62	C	2.423575	-0.160721	-0.812360
C63	C	2.713900	-0.180982	-0.832803
C64	C	2.743234	-0.179948	-0.965549
H65	H	1.873849	-0.558784	-0.462793
H66	H	2.770799	-0.599684	-0.491756
C67	C	2.367793	-0.151985	-1.010984
N68	N	2.303675	-0.146151	-1.060598
C69	C	1.917649	-0.796887	-0.490408
N70	N	1.903985	-0.845228	-0.575181
C71	C	1.857727	-0.760992	-0.255632
N72	N	1.799036	-0.781947	-0.163854
H73	H	1.836700	-0.155916	-0.753052
C74	C	2.767587	-0.056718	-1.004885
N75	N	2.785926	0.036099	-1.034514
H76	H	2.336700	-0.155916	-0.753052
C77	C	2.714770	-0.546404	-0.278267
N78	N	2.714656	-0.491640	-0.187082
H79	H	1.828485	-0.532099	-0.287816
C80	C	2.307064	-0.517448	-0.372944
N81	N	2.218531	-0.456436	-0.368117
H82	H	2.261822	-0.276796	-0.808330
H83	H	2.075443	-0.591262	-0.599622
H84	H	2.315299	-0.272847	-1.018387
C85	C	1.994960	-0.748736	-0.139283
N86	N	1.938803	-0.766549	-0.043534
H87	H	2.723434	-0.093778	-0.785716
H88	H	2.391405	-0.781964	-0.372778
C89	C	2.778644	-0.310418	-0.799734
N90	N	2.827409	-0.407909	-0.774827
H91	H	2.175010	-0.584947	-0.525172
H92	H	2.770279	-0.778551	-0.311505
H93	H	2.157614	-0.765959	-0.266219
C94	C	2.135748	-0.535677	-0.269497
N95	N	2.209832	-0.504900	-0.270881
C96	C	1.942719	-0.503264	-0.141884
N97	N	1.871410	-0.448082	-0.047151
C98	C	2.130115	-0.830567	-0.630519
N99	N	2.126661	-0.880953	-0.721766
H100	H	1.889922	-0.154042	-0.993882
H101	H	2.224594	-0.804785	-0.515576
H102	H	2.815299	-0.272847	-1.018387
C103	C	2.267587	-0.056718	-1.004885
N104	N	2.285926	0.036099	-1.034514
H105	H	2.223434	-0.093778	-0.785716
H106	H	2.810609	-0.811816	-0.492472
