data_functionalizedCrystal
_audit_creation_method	'MofGen! by Chris Wilmer'
_symmetry_space_group_name_H-M	'P1'
_symmetry_Int_Tables_number	1
_symmetry_cell_setting	triclinic
loop_
_symmetry_equiv_pos_as_xyz
  x,y,z
_cell_length_a	11.169417
_cell_length_b	16.120444
_cell_length_c	11.169409
_cell_angle_alpha	92.861568
_cell_angle_beta	89.979436
_cell_angle_gamma	92.927304
loop_
_atom_site_label
_atom_site_type_symbol
_atom_site_fract_x
_atom_site_fract_y
_atom_site_fract_z
Zn1	Zn	1.810616	-0.331820	-0.702712
Zn2	Zn	1.800268	-0.471263	-0.512185
Zn3	Zn	1.609896	-0.331871	-0.502050
Zn4	Zn	1.599680	-0.471196	-0.712825
O5	O	1.705115	-0.401538	-0.607443
O6	O	1.977193	-0.350325	-0.677447
O7	O	1.774960	-0.452822	-0.342894
O8	O	1.645128	-0.215199	-0.520194
O9	O	1.969590	-0.452773	-0.537468
O10	O	1.792596	-0.215161	-0.667619
O11	O	1.635094	-0.350411	-0.335448
O12	O	1.440591	-0.350345	-0.530000
O13	O	1.627716	-0.452658	-0.879430
O14	O	1.433086	-0.452707	-0.684856
O15	O	1.782690	-0.350259	-0.871999
O16	O	1.765053	-0.587920	-0.547275
O17	O	1.617682	-0.587870	-0.694684
C18	C	1.393291	-0.401525	-0.607426
C19	C	1.259890	-0.401540	-0.607449
C20	C	1.689169	-0.618145	-0.623203
C21	C	1.682457	-0.710811	-0.629985
C22	C	1.740228	-0.921757	-0.572517
C23	C	1.670224	-0.880467	-0.642381
C24	C	1.677033	-0.786061	-0.635482
C25	C	1.733421	-1.016171	-0.579415
C26	C	2.018156	-0.401551	-0.607460
C27	C	2.151556	-0.401556	-0.607467
C28	C	1.705218	-0.401445	-0.920479
C29	C	1.705262	-0.401406	-1.053876
C30	C	1.721156	-0.184084	-0.591648
C31	C	1.727992	-0.091418	-0.584917
C32	C	1.705086	-0.401569	-0.295620
C33	C	1.705292	-0.401374	-0.162207
H34	H	1.605179	-0.916018	-0.707373
O35	O	1.826383	-0.874678	-0.486425
H36	H	1.919396	-0.891254	-0.508284
