data_functionalizedCrystal
_audit_creation_method	'MofGen! by Chris Wilmer'
_symmetry_space_group_name_H-M	'P1'
_symmetry_Int_Tables_number	1
_symmetry_cell_setting	triclinic
loop_
_symmetry_equiv_pos_as_xyz
  x,y,z
_cell_length_a	19.288864
_cell_length_b	10.654541
_cell_length_c	17.766277
_cell_angle_alpha	89.993913
_cell_angle_beta	89.976791
_cell_angle_gamma	83.810087
loop_
_atom_site_label
_atom_site_type_symbol
_atom_site_fract_x
_atom_site_fract_y
_atom_site_fract_z
O1	O	0.922378	0.156657	-0.062836
O2	O	0.720256	0.177790	-0.062784
O3	O	0.825965	-0.015616	-0.062806
O4	O	0.816669	0.350062	-0.062813
O5	O	0.825946	-0.015625	0.062382
O6	O	0.720237	0.177780	0.062404
O7	O	0.922359	0.156647	0.062353
Cu8	Cu	0.821296	0.167213	0.073809
Cu9	Cu	0.821319	0.167224	-0.074241
O10	O	0.816650	0.350053	0.062375
C11	C	0.694365	0.177105	-0.000183
C12	C	0.617248	0.175064	-0.000163
C13	C	0.573295	0.288545	-0.000177
C14	C	0.500835	0.286627	-0.000186
C15	C	0.472332	0.171222	-0.000195
C16	C	0.516296	0.057725	-0.000177
C17	C	0.588754	0.059646	-0.000161
C18	C	0.363483	0.080504	-0.044078
C19	C	0.291026	0.078588	-0.044098
C20	C	0.248848	0.165292	-0.000241
C21	C	0.279134	0.253935	0.043628
C22	C	0.351592	0.255856	0.043644
C23	C	0.393765	0.169126	-0.000212
C24	C	0.126325	0.276702	-0.000262
C25	C	0.053864	0.274780	-0.000266
C26	C	0.069327	0.045875	-0.000265
C27	C	0.141786	0.047800	-0.000254
C28	C	0.170280	0.163218	-0.000256
C29	C	0.825273	-0.062404	-0.000212
C30	C	0.823232	-0.201804	-0.000213
C31	C	0.949636	-0.232480	-0.000236
C32	C	1.011877	-0.313307	-0.000245
C33	C	1.009955	-0.444284	-0.000247
C34	C	0.945785	-0.494436	-0.000242
C35	C	0.883545	-0.413609	-0.000232
C36	C	0.885474	-0.282631	-0.000228
C37	C	0.757142	-0.382933	-0.000215
C38	C	0.759063	-0.251955	-0.000208
C39	C	0.692973	-0.433084	-0.000210
C40	C	0.630732	-0.352257	-0.000195
C41	C	0.632656	-0.221273	-0.000192
C42	C	0.696823	-0.171129	-0.000198
C43	C	0.948250	0.157332	-0.000250
C44	C	1.025367	0.159373	-0.000274
C45	C	0.817342	0.396841	-0.000220
C46	C	0.819383	0.536241	-0.000225
N47	N	0.821286	0.167204	0.177940
N48	N	0.821335	0.167223	-0.178371
C49	C	0.868109	0.081606	0.217317
C50	C	0.868113	0.081600	0.296119
C51	C	0.821301	0.167214	0.335540
C52	C	0.774468	0.252818	0.296154
C53	C	0.774461	0.252813	0.217354
C54	C	0.812750	0.281635	0.460378
C55	C	0.812763	0.281642	0.539176
C56	C	0.821319	0.167229	0.578587
C57	C	0.829878	0.052804	0.539188
C58	C	0.829871	0.052799	0.460388
C59	C	0.821303	0.167228	0.420986
C60	C	0.868150	0.081617	0.703410
C61	C	0.868149	0.081610	0.782213
C62	C	0.774507	0.252839	0.782247
C63	C	0.774504	0.252836	0.703445
C64	C	0.821329	0.167226	0.664031
H65	H	0.244794	0.324538	0.079342
H66	H	0.698396	-0.064483	-0.000191
O67	O	0.913614	-0.001683	0.179148
C68	C	0.954954	-0.077216	0.230808
H69	H	0.926478	-0.078496	0.286996
H70	H	1.006744	-0.036674	0.239155
C71	C	1.003595	-0.211188	0.131053
C72	C	0.968617	-0.212769	0.200062
H73	H	1.012026	-0.294803	0.112086
H74	H	0.975746	-0.160298	0.096247
H75	H	1.046750	-0.177398	0.138017
H76	H	0.925460	-0.246544	0.193094
H77	H	0.996460	-0.263668	0.234865
O78	O	0.458228	0.396984	-0.000239
C79	C	0.498916	0.499264	-0.000218
H80	H	0.552848	0.467083	-0.023900
H81	H	0.504205	0.534672	0.059840
C82	C	0.397120	0.646154	-0.020247
C83	C	0.463359	0.606631	-0.049339
H84	H	0.375187	0.712387	-0.050544
H85	H	0.369707	0.577247	-0.020258
H86	H	0.401537	0.675652	0.029801
H87	H	0.458941	0.577120	-0.099382
H88	H	0.490771	0.675536	-0.049337
O89	O	0.261725	-0.007636	-0.086726
C90	C	0.314487	-0.083745	-0.125438
H91	H	0.366110	-0.082218	-0.094410
H92	H	0.319676	-0.045765	-0.184936
C93	C	0.231976	-0.222127	-0.167373
C94	C	0.295378	-0.220260	-0.129261
H95	H	0.220188	-0.306334	-0.169735
H96	H	0.196428	-0.170848	-0.141295
H97	H	0.236308	-0.190470	-0.216951
H98	H	0.291043	-0.251900	-0.079681
H99	H	0.330925	-0.271547	-0.155330
H100	H	0.944226	-0.601085	-0.000253
H101	H	0.018077	0.367194	-0.000273
H102	H	0.906244	0.011893	0.328185
O103	O	1.074251	-0.264741	-0.000152
C104	C	1.112209	-0.306065	0.064687
H105	H	1.092833	-0.396803	0.086305
H106	H	1.104523	-0.230230	0.110089
C107	C	1.214025	-0.219629	0.018425
C108	C	1.190231	-0.331081	0.044974
H109	H	1.262153	-0.235055	0.006267
H110	H	1.188452	-0.191783	-0.025257
H111	H	1.207614	-0.156444	0.056265
H112	H	1.196634	-0.394258	0.007130
H113	H	1.215807	-0.358938	0.088649
H114	H	0.581972	-0.155470	-0.000187
H115	H	0.376248	0.328028	0.079365
H116	H	0.578490	-0.393102	-0.000195
O117	O	0.838155	-0.058457	0.422233
C118	C	0.845728	-0.159447	0.473907
H119	H	0.821473	-0.127008	0.530091
H120	H	0.903491	-0.191842	0.482254
C121	C	0.838530	-0.309662	0.374173
C122	C	0.808733	-0.269823	0.443178
H123	H	0.815713	-0.377750	0.355217
H124	H	0.833431	-0.241624	0.339358
H125	H	0.886664	-0.336649	0.381138
H126	H	0.760603	-0.242822	0.436210
H127	H	0.813824	-0.337859	0.477990
H128	H	0.836846	-0.040362	0.571274
O129	O	0.913653	-0.001670	0.665234
C130	C	0.954990	-0.077214	0.716892
H131	H	0.926511	-0.078500	0.773078
H132	H	1.006781	-0.036677	0.725243
C133	C	1.003631	-0.211174	0.617131
C134	C	0.968651	-0.212762	0.686138
H135	H	1.012061	-0.294785	0.598160
H136	H	0.975784	-0.160276	0.582327
H137	H	1.046786	-0.177388	0.624100
H138	H	0.925493	-0.246533	0.679167
H139	H	0.996491	-0.263669	0.720940
O140	O	0.913664	-0.001373	0.820550
C141	C	0.956843	0.065695	0.866091
H142	H	0.929646	0.164087	0.877902
H143	H	1.008212	0.073999	0.835697
C144	C	1.004758	-0.126019	0.926436
C145	C	0.971352	-0.005176	0.940948
H146	H	1.013711	-0.169737	0.972610
H147	H	0.975670	-0.171206	0.895753
H148	H	1.047562	-0.119082	0.901106
H149	H	0.928545	-0.012115	0.966269
H150	H	1.000433	0.040008	0.971637
H151	H	0.397820	0.009895	-0.079797
H152	H	0.596490	0.382527	-0.000181
H153	H	1.060636	-0.510094	-0.000261
O154	O	0.729001	0.335833	0.820613
C155	C	0.685823	0.268775	0.866208
H156	H	0.713017	0.170382	0.878008
H157	H	0.634451	0.260475	0.835865
C158	C	0.637920	0.460500	0.926568
C159	C	0.671323	0.339654	0.941066
H160	H	0.628973	0.504223	0.972743
H161	H	0.667008	0.505679	0.895849
H162	H	0.595114	0.453566	0.901281
H163	H	0.714133	0.346590	0.966345
H164	H	0.642242	0.294477	0.971792
O165	O	0.728966	0.335812	0.334528
C166	C	0.685792	0.268755	0.380128
H167	H	0.712987	0.170361	0.391926
H168	H	0.634417	0.260454	0.349790
C169	C	0.637894	0.460480	0.440491
C170	C	0.671298	0.339635	0.454987
H171	H	0.628950	0.504203	0.486667
H172	H	0.666978	0.505659	0.409768
H173	H	0.595084	0.453545	0.415208
H174	H	0.714110	0.346571	0.480261
H175	H	0.642220	0.294458	0.485716
O176	O	0.728952	0.336094	0.179216
C177	C	0.687618	0.411636	0.230903
H178	H	0.716101	0.412926	0.287061
H179	H	0.635829	0.371096	0.239312
C180	C	0.638964	0.545591	0.131171
C181	C	0.673951	0.547184	0.200144
H182	H	0.630531	0.629202	0.112197
H183	H	0.666810	0.494695	0.096348
H184	H	0.595811	0.511801	0.138188
H185	H	0.717107	0.580958	0.193125
H186	H	0.646113	0.598089	0.234966
O187	O	0.728999	0.336118	0.665306
C188	C	0.687669	0.411663	0.716995
H189	H	0.716155	0.412954	0.773152
H190	H	0.635880	0.371125	0.725407
C191	C	0.639012	0.545616	0.617264
C192	C	0.674002	0.547210	0.686235
H193	H	0.630578	0.629226	0.598289
H194	H	0.666855	0.494718	0.582439
H195	H	0.595858	0.511828	0.624284
H196	H	0.717158	0.580982	0.679213
H197	H	0.646166	0.598117	0.721057
H198	H	0.624542	-0.032767	-0.000150
H199	H	0.177574	-0.044609	-0.000246
O200	O	0.804411	0.392898	0.577328
C201	C	0.796865	0.493881	0.525649
H202	H	0.777611	0.459230	0.469492
H203	H	0.849361	0.531862	0.517232
C204	C	0.767362	0.642252	0.625397
C205	C	0.743709	0.599695	0.556426
H206	H	0.734575	0.707527	0.644382
H207	H	0.772449	0.574220	0.660215
H208	H	0.811109	0.673894	0.618374
H209	H	0.699967	0.568040	0.563451
H210	H	0.738613	0.667725	0.521610
H211	H	0.149526	0.370682	-0.000253
H212	H	0.046121	-0.048091	-0.000319
H213	H	0.493085	-0.036239	-0.000195
H214	H	0.951208	-0.125834	-0.000224
H215	H	0.691413	-0.539734	-0.000216
H216	H	0.805771	0.374810	0.428296
