data_functionalizedCrystal
_audit_creation_method	'MofGen! by Chris Wilmer'
_symmetry_space_group_name_H-M	'P1'
_symmetry_Int_Tables_number	1
_symmetry_cell_setting	triclinic
loop_
_symmetry_equiv_pos_as_xyz
  x,y,z
_cell_length_a	14.044220
_cell_length_b	10.654550
_cell_length_c	9.130313
_cell_angle_alpha	90.006582
_cell_angle_beta	89.999132
_cell_angle_gamma	91.163110
loop_
_atom_site_label
_atom_site_type_symbol
_atom_site_fract_x
_atom_site_fract_y
_atom_site_fract_z
O1	O	0.133225	-1.681227	-0.121925
O2	O	0.145918	-1.317024	-0.121902
O3	O	0.001551	-1.493659	-0.121899
O4	O	0.277592	-1.504593	-0.121929
O5	O	0.001560	-1.493647	0.121700
O6	O	0.145927	-1.317012	0.121696
O7	O	0.133234	-1.681215	0.121673
Cu8	Cu	0.139581	-1.499112	0.143927
Cu9	Cu	0.139571	-1.499127	-0.144156
O10	O	0.277601	-1.504580	0.121670
C11	C	-0.033790	-1.488867	-0.000099
C12	C	-0.139110	-1.474592	-0.000096
C13	C	0.144991	-1.270127	-0.000100
C14	C	0.142202	-1.130403	-0.000091
C15	C	0.134161	-1.728113	-0.000132
C16	C	0.136950	-1.867836	-0.000151
C17	C	-0.331943	-1.448493	-0.000116
C18	C	-0.388911	-1.549741	-0.000126
C19	C	-0.496210	-1.535219	-0.000137
C20	C	-0.224634	-1.463013	-0.000105
C21	C	0.312942	-1.509372	-0.000133
C22	C	0.418262	-1.523648	-0.000146
N23	N	0.139588	-1.499111	0.346550
C24	C	0.227203	-1.059459	-0.000121
C25	C	0.224578	-0.928175	-0.000146
C26	C	0.051942	-0.938790	-0.000116
C27	C	0.054569	-1.070072	-0.000081
C28	C	0.314837	-1.119790	-0.000131
C29	C	0.399845	-1.048846	-0.000163
C30	C	0.397219	-0.917561	-0.000188
C31	C	0.309585	-0.857221	-0.000181
N32	N	0.139557	-1.499137	-0.346779
C33	C	0.197650	-1.581775	0.423204
C34	C	0.197633	-1.581792	0.576541
C35	C	0.081488	-1.416469	0.576556
C36	C	0.081501	-1.416460	0.423222
C37	C	0.255737	-1.664427	0.346533
C38	C	0.313805	-1.747097	0.423187
C39	C	0.313787	-1.747113	0.576524
C40	C	0.255702	-1.664460	0.653206
H41	H	-0.357098	-1.647328	-0.000231
C42	C	-0.374913	-1.316670	-0.000095
H43	H	-0.442439	-1.324082	-0.000088
H44	H	-0.354411	-1.272295	-0.085031
H45	H	-0.354416	-1.272313	0.084876
C46	C	0.317729	-1.264198	-0.000097
H47	H	0.382092	-1.289971	-0.000096
H48	H	0.286435	-1.295881	-0.085028
H49	H	0.286454	-1.295831	0.084879
C50	C	-0.038927	-1.148121	-0.000048
H51	H	-0.024810	-1.234947	-0.000012
H52	H	-0.074832	-1.128818	-0.084994
H53	H	-0.074816	-1.128761	0.084913
H54	H	0.471193	-1.097984	-0.000156
H55	H	-0.019405	-0.889650	-0.000135
C56	C	0.490721	-0.839526	-0.000222
H57	H	0.543285	-0.894263	-0.000234
H58	H	0.493296	-0.788066	0.084712
H59	H	0.493276	-0.788119	-0.085195
H60	H	0.034199	-1.349175	0.639003
H61	H	0.307454	-0.750320	-0.000179
C62	C	0.255755	-1.664408	0.177868
H63	H	0.212860	-1.603332	0.143196
H64	H	0.236333	-1.744984	0.143148
H65	H	0.318090	-1.644866	0.143207
C66	C	0.377692	-1.838010	0.338844
H67	H	0.369394	-1.826155	0.236544
H68	H	0.360672	-1.922028	0.363946
H69	H	0.442432	-1.821915	0.363995
H70	H	0.361062	-1.814435	0.638932
C71	C	0.255674	-1.664482	0.821874
H72	H	0.212763	-1.603422	0.856559
H73	H	0.317995	-1.644968	0.856589
H74	H	0.236227	-1.745071	0.856527
H75	H	0.034223	-1.349146	0.360808
