data_functionalizedCrystal
_audit_creation_method	'MofGen! by Chris Wilmer'
_symmetry_space_group_name_H-M	'P1'
_symmetry_Int_Tables_number	1
_symmetry_cell_setting	triclinic
loop_
_symmetry_equiv_pos_as_xyz
  x,y,z
_cell_length_a	18.215407
_cell_length_b	29.839131
_cell_length_c	18.215399
_cell_angle_alpha	90.026703
_cell_angle_beta	90.019833
_cell_angle_gamma	90.042151
loop_
_atom_site_label
_atom_site_type_symbol
_atom_site_fract_x
_atom_site_fract_y
_atom_site_fract_z
Zn1	Zn	1.124986	-0.178853	0.416122
Zn2	Zn	1.624986	0.321147	0.916122
Zn3	Zn	1.124858	-0.253982	0.293059
Zn4	Zn	1.624858	0.246018	0.793059
Zn5	Zn	1.001919	-0.178867	0.293070
Zn6	Zn	1.501919	0.321133	0.793070
Zn7	Zn	1.001848	-0.253957	0.416083
Zn8	Zn	1.501848	0.246043	0.916083
O9	O	1.063403	-0.216415	0.354583
O10	O	1.563403	0.283585	0.854583
O11	O	1.227953	-0.188823	0.399809
O12	O	1.727953	0.311177	0.899809
O13	O	1.108526	-0.244034	0.190076
O14	O	1.608526	0.255966	0.690076
O15	O	1.018327	-0.115998	0.309414
O16	O	1.518327	0.384002	0.809414
O17	O	1.227859	-0.244020	0.309395
O18	O	1.727859	0.255980	0.809395
O19	O	1.108744	-0.115987	0.399820
O20	O	1.608744	0.384013	0.899820
O21	O	1.018203	-0.188848	0.190084
O22	O	1.518203	0.311152	0.690084
O23	O	0.898925	-0.188824	0.309376
O24	O	1.398925	0.311176	0.809376
O25	O	1.018207	-0.243978	0.519073
O26	O	1.518207	0.256022	1.019073
O27	O	0.898873	-0.243992	0.399754
O28	O	1.398873	0.256008	0.899754
O29	O	1.108676	-0.188799	0.519101
O30	O	1.608676	0.311201	1.019101
O31	O	1.108458	-0.316846	0.309357
O32	O	1.608458	0.183154	0.809357
O33	O	1.018083	-0.316827	0.399743
O34	O	1.518083	0.183173	0.899743
C35	C	0.872196	-0.216407	0.354562
C36	C	1.372196	0.283593	0.854562
C37	C	0.790398	-0.216414	0.354571
C38	C	1.290398	0.283586	0.854571
C39	C	1.063269	-0.333137	0.354561
C40	C	1.563269	0.166863	0.854561
C41	C	1.063279	-0.383072	0.354576
C42	C	1.563279	0.116928	0.854576
C43	C	0.602196	-0.245186	0.401571
C44	C	1.102196	0.254814	0.901571
C45	C	0.525337	-0.245187	0.401581
C46	C	1.025337	0.254813	0.901581
C47	C	0.525361	-0.187652	0.307612
C48	C	1.025361	0.312348	0.807612
C49	C	0.602219	-0.187648	0.307607
C50	C	1.102219	0.312352	0.807607
C51	C	0.640634	-0.216418	0.354585
C52	C	1.140634	0.283582	0.854585
C53	C	0.486918	-0.216423	0.354600
C54	C	0.986918	0.283577	0.854600
C55	C	0.403584	-0.216424	0.354609
C56	C	0.903584	0.283576	0.854609
C57	C	0.723973	-0.216416	0.354577
C58	C	1.223973	0.283584	0.854577
C59	C	1.016375	-0.739665	0.401644
C60	C	1.516375	-0.239665	0.901644
C61	C	1.016278	-0.551992	0.401621
C62	C	1.516278	-0.051992	0.901621
O63	O	0.976238	-0.527732	0.441627
O64	O	1.476238	-0.027732	0.941627
N65	N	1.063357	-0.528517	0.354598
N66	N	1.563357	-0.028517	0.854598
C67	C	1.110467	-0.551963	0.307580
C68	C	1.610467	-0.051963	0.807580
O69	O	1.150514	-0.527690	0.267589
O70	O	1.650514	-0.027690	0.767589
C71	C	1.110567	-0.739635	0.307608
C72	C	1.610567	-0.239635	0.807608
C73	C	1.063480	-0.763108	0.354629
C74	C	1.563480	-0.263108	0.854629
C75	C	0.969292	-0.763138	0.448662
C76	C	1.469292	-0.263138	0.948662
C77	C	0.969314	-0.810053	0.448665
C78	C	1.469314	-0.310053	0.948665
C79	C	1.016419	-0.833496	0.401649
C80	C	1.516419	-0.333496	0.901649
C81	C	1.063502	-0.810023	0.354631
C82	C	1.563502	-0.310023	0.854631
C83	C	1.157681	-0.763080	0.260594
C84	C	1.657681	-0.263080	0.760594
C85	C	1.157703	-0.810001	0.260607
C86	C	1.657703	-0.310001	0.760607
C87	C	1.110616	-0.833474	0.307628
C88	C	1.610616	-0.333474	0.807628
C89	C	1.110629	-0.880381	0.307618
C90	C	1.610629	-0.380381	0.807618
N91	N	1.063550	-0.903856	0.354642
N92	N	1.563550	-0.403856	0.854642
C93	C	1.016445	-0.880414	0.401657
C94	C	1.516445	-0.380414	0.901657
C95	C	1.110410	-0.453432	0.307568
C96	C	1.610410	0.046568	0.807568
C97	C	1.110384	-0.406514	0.307560
C98	C	1.610384	0.093486	0.807560
C99	C	1.016195	-0.406547	0.401602
C100	C	1.516195	0.093453	0.901602
C101	C	1.016218	-0.453465	0.401606
C102	C	1.516218	0.046535	0.901606
C103	C	1.063331	-0.476907	0.354592
C104	C	1.563331	0.023093	0.854592
C105	C	1.016494	-0.978939	0.401658
C106	C	1.516494	-0.478939	0.901658
C107	C	1.016518	-1.025859	0.401654
C108	C	1.516518	-0.525859	0.901654
C109	C	1.110709	-1.025823	0.307615
C110	C	1.610709	-0.525823	0.807615
C111	C	1.110683	-0.978907	0.307616
C112	C	1.610683	-0.478907	0.807616
C113	C	1.063573	-0.955467	0.354643
C114	C	1.563573	-0.455467	0.854643
O115	O	1.150654	-0.904670	0.267640
O116	O	1.650654	-0.404670	0.767640
O117	O	0.976415	-0.904695	0.441654
O118	O	1.476415	-0.404695	0.941654
C119	C	1.016353	-0.692749	0.401642
C120	C	1.516353	-0.192749	0.901642
C121	C	1.063436	-0.669277	0.354624
C122	C	1.563436	-0.169277	0.854624
C123	C	1.110541	-0.692720	0.307608
C124	C	1.610541	-0.192720	0.807608
C125	C	1.063410	-0.622359	0.354616
C126	C	1.563410	-0.122359	0.854616
C127	C	1.016305	-0.598916	0.401631
C128	C	1.516305	-0.098916	0.901631
C129	C	0.969226	-0.622391	0.448655
C130	C	1.469226	-0.122391	0.948655
C131	C	0.969248	-0.669307	0.448657
C132	C	1.469248	-0.169307	0.948657
C133	C	1.157620	-0.669244	0.260585
C134	C	1.657620	-0.169244	0.760585
C135	C	1.157594	-0.622329	0.260586
C136	C	1.657594	-0.122329	0.760586
C137	C	1.110489	-0.598886	0.307601
C138	C	1.610489	-0.098886	0.807601
C139	C	1.255356	-0.216423	0.354605
C140	C	1.755356	0.283577	0.854605
C141	C	1.337155	-0.216426	0.354614
C142	C	1.837155	0.283574	0.854614
C143	C	1.063448	-0.216384	0.546536
C144	C	1.563448	0.283616	1.046536
C145	C	1.063467	-0.216370	0.628335
C146	C	1.563467	0.283630	1.128335
C147	C	1.063557	-0.099236	0.354622
C148	C	1.563557	0.400764	0.854622
C149	C	1.063623	-0.049302	0.354639
C150	C	1.563623	0.450698	0.854639
C151	C	1.063400	-0.216413	0.163377
C152	C	1.563400	0.283587	0.663377
C153	C	1.063524	-0.216300	0.081579
C154	C	1.563524	0.283700	0.581579
C155	C	1.110591	-0.187612	0.816545
C156	C	1.610591	0.312388	1.316545
C157	C	1.110600	-0.187599	0.893404
C158	C	1.610600	0.312401	1.393404
C159	C	1.016395	-0.245059	0.893363
C160	C	1.516395	0.254941	1.393363
C161	C	1.016383	-0.245070	0.816506
C162	C	1.516383	0.254930	1.316506
C163	C	1.063485	-0.216347	0.778099
C164	C	1.563485	0.283653	1.278099
C165	C	1.063506	-0.216323	0.931815
C166	C	1.563506	0.283677	1.431815
C167	C	1.063515	-0.216309	1.015149
C168	C	1.563515	0.283691	1.515149
C169	C	1.063475	-0.216360	0.694760
C170	C	1.563475	0.283640	1.194760
H171	H	0.633472	-0.268610	0.439826
H172	H	1.133472	0.231390	0.939826
C173	C	0.964584	-0.276652	0.935618
C174	C	1.464584	0.223348	1.435618
N175	N	0.925558	-0.300449	0.967444
N176	N	1.425558	0.199551	1.467444
C177	C	1.209530	-0.835784	0.208883
C178	C	1.709530	-0.335784	0.708883
N179	N	1.248563	-0.855203	0.169923
N180	N	1.748563	-0.355203	0.669923
H181	H	0.494044	-0.268612	0.439842
H182	H	0.994044	0.231388	0.939842
H183	H	1.149018	-0.959795	0.269320
H184	H	1.649018	-0.459795	0.769320
C185	C	0.483097	-0.156010	0.255934
C186	C	0.983097	0.343990	0.755934
N187	N	0.451265	-0.132177	0.217007
N188	N	0.951265	0.367823	0.717007
H189	H	0.633516	-0.164220	0.269345
H190	H	1.133516	0.335780	0.769345
H191	H	1.148942	-0.164223	0.785277
H192	H	1.648942	0.335777	1.285277
C193	C	0.964717	-1.051676	0.453385
C194	C	1.464717	-0.551676	0.953385
N195	N	0.925703	-1.071120	0.492348
N196	N	1.425703	-0.571120	0.992348
H197	H	0.978134	-0.959859	0.439953
H198	H	1.478134	-0.459859	0.939953
C199	C	1.162421	-0.155989	0.935692
C200	C	1.662421	0.344011	1.435692
N201	N	1.201456	-0.132179	0.967542
N202	N	1.701456	0.367821	1.467542
H203	H	0.977879	-0.472574	0.439899
H204	H	1.477879	0.027426	0.939899
C205	C	1.162519	-1.051619	0.255898
C206	C	1.662519	-0.551619	0.755898
N207	N	1.201545	-1.071050	0.216946
N208	N	1.701545	-0.571050	0.716946
H209	H	0.978018	-0.268469	0.785202
H210	H	1.478018	0.231531	1.285202
H211	H	0.930868	-0.603296	0.486934
H212	H	1.430868	-0.103296	0.986934
C213	C	0.917518	-0.835867	0.500397
C214	C	1.417518	-0.335867	1.000397
N215	N	0.878505	-0.855307	0.539367
N216	N	1.378505	-0.355307	1.039367
H217	H	0.930933	-0.744055	0.486951
H218	H	1.430933	-0.244055	0.986951
C219	C	0.964383	-0.380751	0.453324
C220	C	1.464383	0.119249	0.953324
N221	N	0.925365	-0.361319	0.492283
N222	N	1.425365	0.138681	0.992283
H223	H	1.148776	-0.472514	0.269281
H224	H	1.648776	0.027486	0.769281
C225	C	1.162172	-0.380700	0.255821
C226	C	1.662172	0.119300	0.755821
N227	N	1.201182	-0.361258	0.216850
N228	N	1.701182	0.138742	0.716850
C229	C	1.209472	-0.737271	0.208857
C230	C	1.709472	-0.237271	0.708857
N231	N	1.248482	-0.717832	0.169882
N232	N	1.748482	-0.217832	0.669882
H233	H	0.930905	-0.688414	0.486948
H234	H	1.430905	-0.188414	0.986948
H235	H	1.195937	-0.603221	0.222289
H236	H	1.695937	-0.103221	0.722289
H237	H	1.195980	-0.688327	0.222299
H238	H	1.695980	-0.188327	0.722299
