data_functionalizedCrystal
_audit_creation_method	'MofGen! by Chris Wilmer'
_symmetry_space_group_name_H-M	'P1'
_symmetry_Int_Tables_number	1
_symmetry_cell_setting	triclinic
loop_
_symmetry_equiv_pos_as_xyz
  x,y,z
_cell_length_a	31.640172
_cell_length_b	14.395555
_cell_length_c	14.395555
_cell_angle_alpha	60.000749
_cell_angle_beta	90.004893
_cell_angle_gamma	59.999894
loop_
_atom_site_label
_atom_site_type_symbol
_atom_site_fract_x
_atom_site_fract_y
_atom_site_fract_z
Zr1	Zr	0.407196	1.016674	-0.121799
O2	O	0.339710	1.210481	-0.270145
O3	O	0.427883	0.822874	-0.076321
O4	O	0.427886	1.016661	-0.270117
O5	O	0.339706	1.016701	0.076518
O6	O	0.497443	1.016642	-0.270096
O7	O	0.339706	1.016694	-0.076349
O8	O	0.497437	0.669992	0.076569
O9	O	0.339712	1.363351	-0.270148
O10	O	0.488617	0.902569	-0.056912
O11	O	0.436707	0.902589	0.057156
O12	O	0.436711	1.130748	-0.171014
O13	O	0.384801	1.130768	-0.056946
Zr14	Zr	0.518131	1.016654	0.122039
Zr15	Zr	0.518132	1.016643	-0.121766
Zr16	Zr	0.407195	1.016685	0.122007
Zr17	Zr	0.407200	1.260483	-0.121803
Zr18	Zr	0.518128	0.772845	0.122043
O19	O	0.497444	1.210453	0.076561
O20	O	0.497446	1.210438	-0.270099
O21	O	0.339709	1.210497	0.076515
O22	O	0.585617	0.822846	0.270386
O23	O	0.585619	0.822830	-0.076275
O24	O	0.427882	0.822890	0.270339
O25	O	0.585621	1.016626	-0.076277
O26	O	0.497441	1.016666	0.270357
O27	O	0.427884	1.016686	0.270336
O28	O	0.585621	1.016633	0.076590
O29	O	0.427891	1.363327	-0.270122
O30	O	0.497436	0.670001	0.270362
O31	O	0.585615	0.669977	0.270388
O32	O	0.585616	0.669968	0.076595
O33	O	0.339711	1.363360	-0.076355
O34	O	0.427890	1.363335	-0.076329
O35	O	0.488616	0.902580	0.171254
O36	O	0.540526	0.902560	0.057186
O37	O	0.488620	1.130739	-0.056916
O38	O	0.436710	1.130758	0.057152
C39	C	0.462659	0.711696	0.000125
C40	C	0.462658	0.608192	0.000126
C41	C	0.434356	0.547610	0.062325
C42	C	0.413844	0.561868	-0.044956
C43	C	0.483157	0.409539	0.107375
C44	C	0.442118	0.623876	-0.107218
C45	C	0.511458	0.471484	0.045190
C46	C	0.490958	0.485788	-0.062155
C47	C	0.323900	1.016702	0.000079
C48	C	0.276805	1.016715	0.000066
C49	C	0.011894	0.897544	0.059703
C50	C	-0.165091	0.897522	0.059726
O51	O	-0.164934	0.796225	0.110421
N52	N	-0.214316	1.016628	0.000164
C53	C	-0.219293	1.135748	-0.059401
O54	O	-0.265222	1.237055	-0.110052
C55	C	-0.042308	1.135769	-0.059416
C56	C	0.006916	1.016655	0.000140
C57	C	0.061115	0.778440	0.119255
C58	C	0.105359	0.778447	0.119244
C59	C	0.100380	0.897558	0.059680
C60	C	0.051159	1.016662	0.000128
C61	C	-0.047286	1.254888	-0.118974
C62	C	-0.003034	1.254883	-0.118970
C63	C	0.046189	1.135769	-0.059414
C64	C	0.090424	1.135780	-0.059446
N65	N	0.139648	1.016674	0.000115
C66	C	0.144626	0.897563	0.059679
C67	C	-0.312210	1.135728	-0.059391
C68	C	-0.356456	1.135723	-0.059389
C69	C	-0.302252	0.897496	0.059740
C70	C	-0.258005	0.897503	0.059731
C71	C	-0.262986	1.016622	0.000171
C72	C	0.237539	0.897587	0.059650
C73	C	0.281783	0.897604	0.059629
C74	C	0.227575	1.135830	-0.059494
C75	C	0.183334	1.135814	-0.059479
C76	C	0.188319	1.016681	0.000101
O77	O	0.090306	1.237024	-0.110104
O78	O	0.190560	0.796272	0.110342
C79	C	-0.032350	0.897538	0.059714
C80	C	-0.081571	1.016642	0.000162
C81	C	-0.086549	1.135753	-0.059401
C82	C	-0.125817	1.016637	0.000164
C83	C	-0.120839	0.897526	0.059728
C84	C	-0.071615	0.778420	0.119289
C85	C	-0.027371	0.778426	0.119278
C86	C	-0.135773	1.254859	-0.118963
C87	C	-0.180015	1.254842	-0.118947
C88	C	-0.175036	1.135731	-0.059384
C89	C	0.601427	1.016625	0.000161
C90	C	0.648522	1.016612	0.000175
C91	C	0.462665	1.016650	-0.304843
C92	C	0.462665	1.016645	-0.408345
C93	C	0.462668	1.321632	0.000116
C94	C	0.462669	1.425135	0.000114
C95	C	0.490969	0.892232	-0.406721
C96	C	0.442160	0.954436	-0.499758
C97	C	0.511462	0.954446	-0.499737
C98	C	0.413827	1.078850	-0.500019
C99	C	0.483165	1.078842	-0.499984
C100	C	0.434326	1.141137	-0.593038
C101	C	0.462663	1.016678	0.305084
C102	C	0.462662	1.016682	0.408586
C103	C	0.601423	0.711657	0.000165
C104	C	0.648516	0.608141	0.000181
C105	C	0.462658	0.711709	0.305088
C106	C	0.462657	0.608211	0.408592
C107	C	0.601422	0.711671	0.305129
C108	C	0.648515	0.608159	0.408646
C109	C	0.323905	1.321657	-0.304889
C110	C	0.276812	1.425168	-0.408406
C111	C	0.323904	1.321670	0.000075
C112	C	0.276811	1.425187	0.000060
C113	C	0.462669	1.321618	-0.304848
C114	C	0.462671	1.425117	-0.408351
C115	C	0.643536	0.559533	-0.059380
C116	C	0.687781	0.462282	-0.059389
C117	C	0.737006	0.413633	0.000171
C118	C	0.741986	0.462251	0.059734
C119	C	0.697741	0.559507	0.059735
C120	C	0.697732	0.559539	0.397717
C121	C	0.741985	0.462292	0.494973
C122	C	0.737021	0.413661	0.603157
C123	C	0.687799	0.462291	0.614084
C124	C	0.643546	0.559542	0.516829
C125	C	0.227596	1.473801	-0.397476
C126	C	0.183342	1.571078	-0.494732
C127	C	0.188307	1.619714	-0.602917
C128	C	0.237528	1.571078	-0.613844
C129	C	0.281781	1.473809	-0.516589
C130	C	0.281791	1.473805	0.059610
C131	C	0.237546	1.571083	0.059592
C132	C	0.188321	1.619735	0.000028
C133	C	0.183342	1.571113	-0.059530
C134	C	0.227586	1.473843	-0.059517
C135	C	0.434351	0.547634	0.406970
C136	C	0.483161	0.409523	0.500004
C137	C	0.413861	0.561875	0.499989
C138	C	0.511495	0.471400	0.500263
C139	C	0.442159	0.623826	0.500233
C140	C	0.490998	0.485725	0.593285
H141	H	0.552714	0.434308	0.083343
H142	H	0.424804	0.715485	0.499241
N143	N	0.222208	1.264300	-0.123727
H144	H	0.202657	1.316383	-0.207040
H145	H	0.257724	1.246116	-0.114599
N146	N	0.590466	0.611950	0.528640
H147	H	0.570902	0.595013	0.490953
H148	H	0.570931	0.709561	0.490963
N149	N	0.703100	0.611962	0.281046
H150	H	0.722646	0.652310	0.271943
H151	H	0.667586	0.680897	0.221147
N152	N	0.334875	0.769124	0.123880
H153	H	0.362151	0.787193	0.114838
H154	H	0.338971	0.717105	0.092619
H155	H	-0.396533	1.232718	-0.107900
H156	H	0.241605	0.800578	0.108167
H157	H	0.701803	0.599071	0.108244
H158	H	0.410453	0.574721	0.327205
N159	N	0.590447	0.611985	-0.123623
H160	H	0.570879	0.709613	-0.183551
H161	H	0.570925	0.594966	-0.068929
N162	N	0.222228	1.421361	-0.280804
H163	H	0.202685	1.495568	-0.271703
H164	H	0.257743	1.352339	-0.220907
H165	H	0.782059	0.422707	0.486055
H166	H	0.241564	1.610690	-0.701940
N167	N	0.025717	0.649953	0.183508
H168	H	0.022149	0.574506	0.221236
H169	H	0.045262	0.644754	0.243380
N170	N	0.130258	1.623520	-0.482932
H171	H	0.133832	1.577934	-0.399639
H172	H	0.110714	1.606610	-0.520697
N173	N	0.784752	0.308768	0.708049
H174	H	0.816682	0.285351	0.684699
H175	H	0.784729	0.228134	0.754816
N176	N	-0.066249	0.649947	0.183522
H177	H	-0.101750	0.668031	0.174482
H178	H	-0.046680	0.597930	0.266807
H179	H	0.152269	1.698916	-0.682099
N180	N	0.566125	0.884764	-0.500933
H181	H	0.587471	0.790780	-0.431438
H182	H	0.581790	0.930885	-0.500475
H183	H	0.223524	1.434261	-0.108008
H184	H	0.424737	0.715442	-0.197964
N185	N	0.682404	0.409859	-0.123635
H186	H	0.644505	0.455431	-0.161353
H187	H	0.699583	0.312230	-0.068958
N188	N	0.522753	0.449902	0.698777
H189	H	0.522336	0.380291	0.768562
H190	H	0.507585	0.530491	0.698811
N191	N	0.402432	1.280484	-0.698692
H192	H	0.387720	1.343760	-0.676294
H193	H	0.373203	1.294703	-0.745264
H194	H	0.514864	0.787032	-0.326952
H195	H	0.372594	0.599059	0.500892
H196	H	0.773029	0.334440	0.000162
N197	N	0.158444	0.649965	0.183485
H198	H	0.162588	0.597901	0.266795
H199	H	0.185694	0.668122	0.174367
H200	H	0.500489	0.317930	0.198078
H201	H	0.143257	1.610740	-0.108025
H202	H	0.321869	1.434200	0.108122
N203	N	0.506153	1.148417	-0.498678
H204	H	0.505667	1.148630	-0.428631
H205	H	0.485148	1.241879	-0.568960
H206	H	0.321854	1.434213	-0.525502
H207	H	0.683764	0.422681	0.702181
H208	H	0.424817	0.901863	-0.500694
N209	N	0.522664	0.450071	-0.131920
H210	H	0.507124	0.530290	-0.212893
H211	H	0.522734	0.379339	-0.130915
H212	H	0.410390	0.574845	0.114845
N213	N	-0.008404	1.383361	-0.183213
H214	H	-0.027949	1.435433	-0.151977
H215	H	-0.027942	1.435327	-0.266509
H216	H	0.552783	0.434014	0.499451
H217	H	0.065178	0.681440	0.167765
H218	H	0.372579	0.599063	-0.083083
H219	H	0.143253	1.232806	-0.107989
H220	H	-0.220094	1.351847	-0.167456
H221	H	0.241611	1.610654	0.108096
H222	H	-0.217928	0.800510	0.108236
N223	N	0.140602	1.724647	0.000020
H224	H	0.151231	1.748054	0.046790
H225	H	0.119322	1.690737	0.033884
N226	N	-0.296890	0.769030	0.123980
H227	H	-0.314042	0.763739	0.183901
H228	H	-0.258986	0.693639	0.161649
H229	H	-0.316274	1.232735	-0.107899
N230	N	0.506132	0.288156	0.501242
H231	H	0.479738	0.267987	0.502267
H232	H	0.537802	0.211472	0.571286
N233	N	0.795080	0.409775	0.123970
H234	H	0.822349	0.340786	0.114928
H235	H	0.799182	0.369486	0.207255
N236	N	-0.100371	1.383361	-0.183198
H237	H	-0.104522	1.435445	-0.266511
H238	H	-0.104472	1.435311	-0.151858
N239	N	-0.141148	1.383335	-0.183219
H240	H	-0.179046	1.458777	-0.220948
H241	H	-0.123975	1.388516	-0.243094
H242	H	0.372539	1.131402	-0.499210
