data_functionalizedCrystal
_audit_creation_method	'MofGen! by Chris Wilmer'
_symmetry_space_group_name_H-M	'P1'
_symmetry_Int_Tables_number	1
_symmetry_cell_setting	triclinic
loop_
_symmetry_equiv_pos_as_xyz
  x,y,z
_cell_length_a	14.519731
_cell_length_b	14.853567
_cell_length_c	13.596369
_cell_angle_alpha	89.997808
_cell_angle_beta	89.994584
_cell_angle_gamma	83.661892
loop_
_atom_site_label
_atom_site_type_symbol
_atom_site_fract_x
_atom_site_fract_y
_atom_site_fract_z
O1	O	-1.223808	-0.118272	0.081785
O2	O	-0.955328	-0.132169	0.081785
O3	O	-1.096740	0.006006	0.081788
O4	O	-1.082397	-0.256447	0.081782
O5	O	-1.096726	0.006013	-0.081795
O6	O	-0.955314	-0.132162	-0.081797
O7	O	-1.223794	-0.118265	-0.081798
Zn8	Zn	-1.089552	-0.125212	-0.107770
Zn9	Zn	-1.089571	-0.125222	0.107758
O10	O	-1.082383	-0.256440	-0.081801
C11	C	-0.920962	-0.131514	-0.000006
C12	C	-0.818583	-0.129563	-0.000005
C13	C	-1.096083	0.039598	-0.000000
C14	C	-1.094135	0.139683	0.000008
C15	C	-1.258160	-0.118920	-0.000005
C16	C	-1.360540	-0.120871	0.000001
C17	C	-0.735439	-0.127978	-0.000001
C18	C	-0.631131	-0.125996	-0.000001
C19	C	-0.547993	-0.124424	-0.000001
C20	C	-0.443678	-0.122443	0.000001
N21	N	-1.089546	-0.125205	-0.254862
C22	C	-1.083040	-0.290032	-0.000010
C23	C	-1.084987	-0.390117	-0.000012
C24	C	-1.001901	0.552260	-0.000010
C25	C	-1.169902	0.573463	-0.000011
C26	C	-1.171733	0.479428	-0.000005
C27	C	-1.088647	0.421805	-0.000003
C28	C	-1.003730	0.458216	-0.000008
C29	C	-1.256648	0.443010	-0.000011
C30	C	-1.258483	0.348970	-0.000006
C31	C	-1.175396	0.291345	0.000003
C32	C	-1.090476	0.327761	-0.000000
C33	C	-1.007390	0.270138	0.000001
C34	C	-0.922469	0.306552	0.000005
C35	C	-0.920643	0.400591	0.000001
C36	C	-1.177221	0.197306	0.000007
C37	C	-1.009219	0.176094	0.000004
C38	C	-1.089569	-0.125223	-0.656153
C39	C	-1.089560	-0.125221	-0.544501
C40	C	-1.089558	-0.125215	-0.455511
C41	C	-1.089548	-0.125211	-0.343852
N42	N	-1.089584	-0.125222	0.254849
H43	H	-0.941559	0.129182	0.000009
H44	H	-0.932761	0.581913	-0.000003
C45	C	-1.348036	0.506400	-0.000019
N46	N	-1.416872	0.554150	-0.000025
H47	H	-1.327631	0.319330	-0.000008
C48	C	-0.831077	0.243155	0.000007
N49	N	-0.762244	0.195400	0.000009
C50	C	-1.261290	0.636851	-0.000017
N51	N	-1.330128	0.684599	-0.000021
H52	H	-0.851505	0.430248	0.000003
C53	C	-1.270629	0.157254	0.000002
N54	N	-1.340988	0.127088	0.000002
