data_functionalizedCrystal
_audit_creation_method	'MofGen! by Chris Wilmer'
_symmetry_space_group_name_H-M	'P1'
_symmetry_Int_Tables_number	1
_symmetry_cell_setting	triclinic
loop_
_symmetry_equiv_pos_as_xyz
  x,y,z
_cell_length_a	12.759401
_cell_length_b	12.645330
_cell_length_c	12.645323
_cell_angle_alpha	89.973156
_cell_angle_beta	89.981589
_cell_angle_gamma	90.017853
loop_
_atom_site_label
_atom_site_type_symbol
_atom_site_fract_x
_atom_site_fract_y
_atom_site_fract_z
Zn1	Zn	1.606233	-0.422006	-0.599351
Zn2	Zn	1.606118	-0.599300	-0.422091
Zn3	Zn	1.430535	-0.422051	-0.422105
Zn4	Zn	1.430514	-0.599228	-0.599317
O5	O	1.518350	-0.510646	-0.510716
O6	O	1.753238	-0.445535	-0.575845
O7	O	1.582787	-0.575837	-0.273745
O8	O	1.453898	-0.273698	-0.445638
O9	O	1.753154	-0.575792	-0.445613
O10	O	1.582983	-0.273665	-0.575859
O11	O	1.453787	-0.445613	-0.273756
O12	O	1.283511	-0.445543	-0.445605
O13	O	1.453863	-0.575670	-0.747668
O14	O	1.283496	-0.575714	-0.575801
O15	O	1.582962	-0.445466	-0.747693
O16	O	1.582767	-0.747638	-0.445580
O17	O	1.453752	-0.747585	-0.575787
C18	C	1.245383	-0.510627	-0.510701
C19	C	1.128606	-0.510644	-0.510720
C20	C	1.073763	-0.578533	-0.578401
C21	C	0.964039	-0.578546	-0.578413
C22	C	0.964010	-0.442779	-0.443053
C23	C	1.073732	-0.442761	-0.443048
C24	C	1.073780	-0.656920	-0.656547
C25	C	0.964055	-0.656933	-0.656559
C26	C	1.518273	-0.786076	-0.510701
C27	C	1.518337	-0.903906	-0.510730
C28	C	1.437508	-1.071481	-0.592896
C29	C	1.437094	-0.948922	-0.592632
C30	C	1.488363	-0.948504	-0.399010
C31	C	1.487870	-1.071102	-0.399509
C32	C	1.629633	-1.070994	-0.539378
C33	C	1.628951	-0.948387	-0.541821
C34	C	1.792383	-0.510667	-0.510731
C35	C	1.909160	-0.510675	-0.510737
C36	C	1.518423	-0.510555	-0.787221
C37	C	1.518454	-0.510516	-0.905051
C38	C	1.518456	-0.234141	-0.510754
C39	C	1.518501	-0.116311	-0.510770
C40	C	1.437243	-0.592411	-0.949918
C41	C	1.436957	-0.592103	-1.072478
C42	C	1.488852	-0.398618	-1.072955
C43	C	1.488230	-0.399158	-0.950357
C44	C	1.629541	-0.539403	-0.950236
C45	C	1.628977	-0.541802	-1.072842
C46	C	1.518338	-0.510661	-0.235286
C47	C	1.518510	-0.510401	-0.117457
H48	H	1.107790	-0.734867	-0.627001
N49	N	1.460151	-0.696762	-0.912959
N50	N	1.480080	-0.768747	-0.977615
H51	H	1.496257	-0.842450	-0.951509
N52	N	1.559231	-0.319983	-0.913099
N53	N	1.635305	-0.345568	-0.856338
H54	H	1.685444	-0.289648	-0.830029
H55	H	1.455472	-0.674982	-1.102566
H56	H	1.651555	-0.919234	-0.624042
N57	N	0.921414	-0.620166	-0.754469
N58	N	0.981234	-0.592623	-0.827783
H59	H	0.951118	-0.566653	-0.896930
H60	H	1.407971	-0.917894	-0.374336
H61	H	1.355398	-0.573495	-0.919110
N62	N	1.558626	-1.108312	-0.320099
N63	N	1.544237	-1.084164	-0.225359
H64	H	1.594195	-1.110443	-0.169267
H65	H	1.545484	-0.919348	-0.336148
N66	N	0.926679	-0.759904	-0.628797
N67	N	0.990326	-0.832438	-0.609219
H68	H	0.963930	-0.905159	-0.589612
N69	N	1.663494	-0.639958	-0.911443
N70	N	1.673956	-0.654478	-0.814235
H71	H	1.697928	-0.725497	-0.786834
N72	N	1.560809	-0.319943	-1.109503
N73	N	1.634929	-0.345442	-1.168899
H74	H	1.685752	-0.289880	-1.194712
N75	N	1.111183	-0.629428	-0.759579
N76	N	1.167519	-0.549452	-0.771741
H77	H	1.193934	-0.530032	-0.844505
H78	H	1.354659	-0.572923	-1.101809
N79	N	1.460622	-0.911099	-0.696556
N80	N	1.477461	-0.975247	-0.769790
H81	H	1.494074	-0.948540	-0.843193
N82	N	0.907972	-0.373447	-0.373913
N83	N	0.956955	-0.312840	-0.313485
H84	H	0.917381	-0.263872	-0.264651
N85	N	1.129751	-0.373393	-0.373934
N86	N	1.117512	-0.275585	-0.381147
H87	H	1.157075	-0.226589	-0.332333
N88	N	1.388148	-0.367372	-1.111485
N89	N	1.372897	-0.358497	-1.208723
H90	H	1.301773	-0.336434	-1.235936
H91	H	1.355634	-1.102383	-0.574185
H92	H	1.456088	-1.100890	-0.676008
N93	N	1.705321	-1.107359	-0.464331
N94	N	1.677680	-1.166393	-0.390070
H95	H	1.731126	-1.192080	-0.337062
N96	N	1.386378	-0.368490	-0.914496
N97	N	1.316248	-0.346840	-0.980011
H98	H	1.244311	-0.325180	-0.954690
H99	H	1.656975	-1.101835	-0.619460
H100	H	1.354705	-0.919688	-0.573679
N101	N	1.657032	-0.645006	-1.109333
N102	N	1.595953	-0.695305	-1.167982
H103	H	1.615763	-0.768195	-1.193760
N104	N	1.385957	-1.107088	-0.369097
N105	N	1.315689	-1.041658	-0.347655
H106	H	1.243709	-1.067067	-0.326176
N107	N	1.708917	-0.472411	-1.111249
N108	N	1.704133	-0.375580	-1.092027
H109	H	1.760586	-0.326563	-1.119154
N110	N	1.705448	-0.464573	-0.913859
N111	N	1.695383	-0.368744	-0.935903
H112	H	1.748986	-0.315891	-0.910212
H113	H	1.692473	-0.917738	-0.486361
