data_functionalizedCrystal
_audit_creation_method	'MofGen! by Chris Wilmer'
_symmetry_space_group_name_H-M	'P1'
_symmetry_Int_Tables_number	1
_symmetry_cell_setting	triclinic
loop_
_symmetry_equiv_pos_as_xyz
  x,y,z
_cell_length_a	19.288867
_cell_length_b	14.044190
_cell_length_c	17.766277
_cell_angle_alpha	90.013017
_cell_angle_beta	89.997573
_cell_angle_gamma	88.164423
loop_
_atom_site_label
_atom_site_type_symbol
_atom_site_fract_x
_atom_site_fract_y
_atom_site_fract_z
O1	O	0.928940	0.118227	0.062576
O2	O	1.428940	0.618227	0.562576
O3	O	0.727704	0.134172	0.062584
O4	O	1.227704	0.634172	0.562584
O5	O	0.825299	-0.011772	0.062566
O6	O	1.325299	0.488228	0.562566
O7	O	0.831345	0.264172	0.062595
O8	O	1.331345	0.764172	0.562595
O9	O	0.825301	-0.011787	-0.062623
O10	O	1.325301	0.488213	0.437377
O11	O	0.727706	0.134158	-0.062604
O12	O	1.227706	0.634158	0.437396
O13	O	0.928942	0.118213	-0.062612
O14	O	1.428942	0.618213	0.437388
Cu15	Cu	0.828324	0.126184	-0.074039
Cu16	Cu	1.328324	0.626184	0.425961
Cu17	Cu	0.828322	0.126201	0.074011
Cu18	Cu	1.328322	0.626201	0.574011
O19	O	0.831347	0.264157	-0.062594
O20	O	1.331347	0.764157	0.437406
C21	C	0.701796	0.133652	-0.000009
C22	C	1.201796	0.633652	0.499991
C23	C	0.624593	0.132111	-0.000006
C24	C	1.124593	0.632111	0.499994
C25	C	0.068313	0.121018	0.068224
C26	C	0.568313	0.621018	0.568224
C27	C	0.140854	0.122461	0.068227
C28	C	0.640854	0.622461	0.568227
C29	C	0.177130	0.123178	-0.000013
C30	C	0.677130	0.623178	0.499987
C31	C	0.140861	0.122429	-0.068261
C32	C	0.640861	0.622429	0.431739
C33	C	0.068322	0.120977	-0.068262
C34	C	0.568322	0.620977	0.431738
C35	C	0.290173	0.180974	-0.052288
C36	C	0.790173	0.680974	0.447712
C37	C	0.362710	0.182432	-0.052284
C38	C	0.862710	0.682432	0.447716
C39	C	0.400863	0.127652	-0.000013
C40	C	0.900863	0.627652	0.499987
C41	C	0.366470	0.071426	0.052267
C42	C	0.866470	0.571426	0.552267
C43	C	0.293931	0.069975	0.052266
C44	C	0.793931	0.569975	0.552266
C45	C	0.255786	0.124752	-0.000020
C46	C	0.755786	0.624752	0.499980
C47	C	0.515780	0.129958	0.068234
C48	C	1.015780	0.629958	0.568234
C49	C	0.588322	0.131395	0.068234
C50	C	1.088322	0.631395	0.568234
C51	C	0.588327	0.131373	-0.068256
C52	C	1.088327	0.631373	0.431744
C53	C	0.515787	0.129927	-0.068254
C54	C	1.015787	0.629927	0.431746
C55	C	0.479518	0.129224	-0.000007
C56	C	0.979518	0.629224	0.499993
C57	C	0.822655	-0.047083	-0.000031
C58	C	1.322655	0.452917	0.499969
C59	C	0.814765	-0.152275	-0.000037
C60	C	1.314765	0.347725	0.499963
C61	C	0.856297	-0.402738	-0.000009
C62	C	1.356297	0.097262	0.499991
C63	C	0.800352	-0.344871	-0.000012
C64	C	1.300352	0.155129	0.499988
C65	C	0.808373	-0.237701	-0.000026
C66	C	1.308373	0.262299	0.499974
C67	C	0.848277	-0.509918	0.000005
C68	C	1.348277	-0.009918	0.500005
C69	C	0.954850	0.118734	-0.000017
C70	C	1.454850	0.618734	0.499983
C71	C	1.032053	0.120275	-0.000015
C72	C	1.532053	0.620275	0.499985
C73	C	0.833991	0.299468	0.000004
C74	C	1.333991	0.799468	0.500004
C75	C	0.841881	0.404660	0.000016
C76	C	1.341881	0.904660	0.500016
N77	N	0.828321	0.126206	0.178141
N78	N	1.328321	0.626206	0.678141
N79	N	0.828330	0.126171	-0.178169
N80	N	1.328330	0.626171	0.321831
C81	C	0.871628	0.061708	0.217520
C82	C	1.371628	0.561708	0.717520
C83	C	0.871634	0.061706	0.296322
C84	C	1.371634	0.561706	0.796322
C85	C	0.828320	0.126194	0.335742
C86	C	1.328320	0.626194	0.835742
C87	C	0.785010	0.190705	0.296354
C88	C	1.285010	0.690705	0.796354
C89	C	0.785010	0.190711	0.217553
C90	C	1.285010	0.690711	0.717553
C91	C	0.765834	0.138670	0.460590
C92	C	1.265834	0.638670	0.960590
C93	C	0.765833	0.138658	0.539389
C94	C	1.265833	0.638658	1.039389
C95	C	0.828319	0.126181	0.578788
C96	C	1.328319	0.626181	1.078788
C97	C	0.890809	0.113696	0.539379
C98	C	1.390809	0.613696	1.039379
C99	C	0.890809	0.113702	0.460578
C100	C	1.390809	0.613702	0.960578
C101	C	0.828315	0.126195	0.421188
C102	C	1.328315	0.626195	0.921188
C103	C	0.871636	0.061677	0.703613
C104	C	1.371636	0.561677	1.203613
C105	C	0.871644	0.061682	0.782416
C106	C	1.371644	0.561682	1.282416
C107	C	0.785014	0.190675	0.782447
C108	C	1.285014	0.690675	1.282447
C109	C	0.785013	0.190675	0.703645
C110	C	1.285013	0.690675	1.203645
C111	C	0.828323	0.126171	0.664233
C112	C	1.328323	0.626171	1.164233
H113	H	0.486248	0.129383	0.123805
H114	H	0.986248	0.629383	0.623805
H115	H	0.906905	0.009156	0.671522
H116	H	1.406905	0.509156	1.171522
O117	O	0.913740	-0.000810	0.179151
O118	O	1.413740	0.499190	0.679151
C119	C	0.959662	0.049921	0.133596
C120	C	1.459662	0.549921	0.633596
H121	H	0.936498	0.124117	0.121812
H122	H	1.436498	0.624117	0.621812
H123	H	0.968252	0.010357	0.078173
H124	H	1.468252	0.510357	0.578173
H125	H	1.011370	0.056312	0.163966
H126	H	1.511370	0.556312	0.663966
H127	H	0.910212	-0.371794	-0.000019
H128	H	1.410212	0.128206	0.499981
H129	H	0.941692	0.103544	0.571456
H130	H	1.441692	0.603544	1.071456
O131	O	0.176177	0.123002	-0.134501
O132	O	0.676177	0.623002	0.365499
C133	C	0.220909	0.041778	-0.138597
C134	C	0.720909	0.541778	0.361403
H135	H	0.232700	0.014652	-0.079348
H136	H	0.732700	0.514652	0.420652
H137	H	0.271293	0.061250	-0.167477
H138	H	0.771293	0.561250	0.332523
H139	H	0.194905	-0.016246	-0.172278
H140	H	0.694905	0.483754	0.327722
O141	O	0.913722	-0.001046	0.334468
O142	O	1.413722	0.498954	0.834468
C143	C	0.951962	-0.057958	0.282784
C144	C	1.451962	0.442042	0.782784
H145	H	0.923433	-0.058996	0.226611
H146	H	1.423433	0.441004	0.726611
H147	H	0.957962	-0.133666	0.305536
H148	H	1.457962	0.366334	0.805536
H149	H	1.005411	-0.027236	0.274413
H150	H	1.505411	0.472764	0.774413
H151	H	0.746432	-0.375817	-0.000006
H152	H	1.246432	0.124183	0.499994
O153	O	0.260597	0.015414	0.103143
O154	O	0.760597	0.515414	0.603143
C155	C	0.277313	0.044877	0.176626
C156	C	0.777313	0.544877	0.676626
H157	H	0.328736	0.082670	0.175665
H158	H	0.828736	0.582670	0.675665
H159	H	0.281991	-0.019991	0.215070
H160	H	0.781991	0.480009	0.715070
H161	H	0.234732	0.095774	0.198564
H162	H	0.734732	0.595774	0.698564
H163	H	0.941691	0.103540	0.428494
H164	H	1.441691	0.603540	0.928494
O165	O	0.913736	-0.001066	0.820554
O166	O	1.413736	0.498934	1.320554
C167	C	0.951972	-0.057978	0.768866
C168	C	1.451972	0.442022	1.268866
H169	H	0.923437	-0.059019	0.712697
H170	H	1.423437	0.440981	1.212697
H171	H	0.957977	-0.133685	0.791619
H172	H	1.457977	0.366315	1.291619
H173	H	1.005419	-0.027253	0.760487
H174	H	1.505419	0.472747	1.260487
O175	O	0.033201	0.120305	-0.134620
O176	O	0.533201	0.620305	0.365380
C177	C	0.080771	0.121218	-0.194853
C178	C	0.580771	0.621218	0.305147
H179	H	0.131462	0.152246	-0.174846
H180	H	0.631462	0.652246	0.325154
H181	H	0.058255	0.166788	-0.242578
H182	H	0.558255	0.666788	0.257422
H183	H	0.091060	0.045360	-0.215841
H184	H	0.591060	0.545360	0.284159
O185	O	0.743038	0.253364	0.820811
O186	O	1.243038	0.753364	1.320811
C187	C	0.783769	0.311821	0.866385
C188	C	1.283769	0.811821	1.366385
H189	H	0.835815	0.274017	0.878181
H190	H	1.335815	0.774017	1.378181
H191	H	0.755696	0.326845	0.921801
H192	H	1.255696	0.826845	1.421801
H193	H	0.792731	0.381868	0.836026
H194	H	1.292731	0.881868	1.336026
O195	O	0.742873	0.253358	0.665505
O196	O	1.242873	0.753358	1.165505
C197	C	0.704656	0.310295	0.717192
C198	C	1.204656	0.810295	1.217192
H199	H	0.701519	0.271431	0.773356
H200	H	1.201519	0.771431	1.273356
H201	H	0.650080	0.324806	0.694430
H202	H	1.150080	0.824806	1.194430
H203	H	0.731466	0.380688	0.725587
H204	H	1.231466	0.880688	1.225587
H205	H	0.714949	0.148812	0.571470
H206	H	1.214949	0.648812	1.071470
H207	H	0.714947	0.148835	0.428518
H208	H	1.214947	0.648835	0.928518
H209	H	0.749744	0.243213	0.328454
H210	H	1.249744	0.743213	0.828454
O211	O	0.742834	0.253269	0.179331
O212	O	1.242834	0.753269	0.679331
C213	C	0.673168	0.237936	0.198603
C214	C	1.173168	0.737936	0.698603
H215	H	0.668234	0.162049	0.220253
H216	H	1.168234	0.662049	0.720253
H217	H	0.638979	0.248868	0.146786
H218	H	1.138979	0.748868	0.646786
H219	H	0.655955	0.290492	0.244354
H220	H	1.155955	0.790492	0.744354
O221	O	0.033192	0.120282	0.134584
O222	O	0.533192	0.620282	0.634584
C223	C	0.080757	0.121268	0.194815
C224	C	0.580757	0.621268	0.694815
H225	H	0.133485	0.092312	0.174804
H226	H	0.633485	0.592312	0.674804
H227	H	0.061360	0.074855	0.242539
H228	H	0.561360	0.574855	0.742539
H229	H	0.085890	0.197433	0.215807
H230	H	0.585890	0.697433	0.715807
H231	H	0.170383	0.123071	0.123797
H232	H	0.670383	0.623071	0.623797
H233	H	0.397533	0.026822	0.094833
H234	H	0.897533	0.526822	0.594833
H235	H	0.617863	0.131953	-0.123818
H236	H	1.117863	0.631953	0.376182
O237	O	0.623439	0.132154	0.134593
O238	O	1.123439	0.632154	0.634593
C239	C	0.575869	0.131198	0.194824
C240	C	1.075869	0.631198	0.694824
H241	H	0.523146	0.160158	0.174818
H242	H	1.023146	0.660158	0.674818
H243	H	0.595268	0.177625	0.242554
H244	H	1.095268	0.677625	0.742554
H245	H	0.570727	0.055043	0.215806
H246	H	1.070727	0.555043	0.715806
H247	H	0.486263	0.129325	-0.123822
H248	H	0.986263	0.629325	0.376178
H249	H	0.259114	0.225578	-0.094861
H250	H	0.759114	0.725578	0.405139
O251	O	0.396008	0.237069	-0.103137
O252	O	0.896008	0.737069	0.396863
C253	C	0.346780	0.285116	-0.149268
C254	C	0.846780	0.785116	0.350732
H255	H	0.296405	0.244826	-0.149179
H256	H	0.796405	0.744826	0.350821
H257	H	0.367622	0.289109	-0.209191
H258	H	0.867622	0.789109	0.290809
H259	H	0.336508	0.360262	-0.126737
H260	H	0.836508	0.860262	0.373263
