data_functionalizedCrystal
_audit_creation_method	'MofGen! by Chris Wilmer'
_symmetry_space_group_name_H-M	'P1'
_symmetry_Int_Tables_number	1
_symmetry_cell_setting	triclinic
loop_
_symmetry_equiv_pos_as_xyz
  x,y,z
_cell_length_a	16.625546
_cell_length_b	13.032831
_cell_length_c	13.034296
_cell_angle_alpha	105.185450
_cell_angle_beta	82.786634
_cell_angle_gamma	97.173222
loop_
_atom_site_label
_atom_site_type_symbol
_atom_site_fract_x
_atom_site_fract_y
_atom_site_fract_z
Zn1	Zn	-0.408761	-1.700150	-0.806419
Zn2	Zn	-0.075427	-1.366817	-0.473086
Zn3	Zn	0.257906	-1.033484	-0.139753
Zn4	Zn	-0.558797	-1.677445	-0.628778
Zn5	Zn	-0.225464	-1.344112	-0.295444
Zn6	Zn	0.107870	-1.010779	0.037889
Zn7	Zn	-0.408768	-1.499953	-0.606300
Zn8	Zn	-0.075435	-1.166620	-0.272967
Zn9	Zn	0.257899	-0.833286	0.060366
Zn10	Zn	-0.528334	-1.522480	-0.783834
Zn11	Zn	-0.195001	-1.189147	-0.450501
Zn12	Zn	0.138333	-0.855814	-0.117167
O13	O	-0.476165	-1.600007	-0.706333
O14	O	-0.142832	-1.266674	-0.372999
O15	O	0.190502	-0.933341	-0.039666
O16	O	-0.441409	-1.845775	-0.801714
O17	O	-0.108076	-1.512442	-0.468380
O18	O	0.225258	-1.179108	-0.135047
O19	O	-0.551647	-1.634971	-0.477154
O20	O	-0.218314	-1.301638	-0.143821
O21	O	0.115019	-0.968304	0.189513
O22	O	-0.295937	-1.526584	-0.632892
O23	O	0.037396	-1.193251	-0.299559
O24	O	0.370729	-0.859917	0.033775
O25	O	-0.551640	-1.829094	-0.671201
O26	O	-0.218307	-1.495761	-0.337868
O27	O	0.115027	-1.162427	-0.004534
O28	O	-0.295932	-1.673668	-0.779918
O29	O	0.037401	-1.340335	-0.446585
O30	O	0.370735	-1.007001	-0.113252
O31	O	-0.441422	-1.504568	-0.460640
O32	O	-0.108088	-1.171235	-0.127307
O33	O	0.225245	-0.837902	0.206027
O34	O	-0.411883	-1.354305	-0.610992
O35	O	-0.078550	-1.020972	-0.277658
O36	O	0.254784	-0.687638	0.055675
O37	O	-0.499720	-1.564978	-0.935472
O38	O	-0.166387	-1.231645	-0.602139
O39	O	0.166946	-0.898312	-0.268805
O40	O	-0.499728	-1.370855	-0.741425
O41	O	-0.166394	-1.037522	-0.408091
O42	O	0.166939	-0.704189	-0.074758
O43	O	-0.411870	-1.695512	-0.952065
O44	O	-0.078537	-1.362178	-0.618732
O45	O	0.254796	-1.028845	-0.285399
O46	O	-0.667586	-1.656815	-0.649301
O47	O	-0.334252	-1.323481	-0.315968
O48	O	-0.000919	-0.990148	0.017366
O49	O	-0.645205	-1.542963	-0.763220
O50	O	-0.311871	-1.209629	-0.429887
O51	O	0.021462	-0.876296	-0.096553
C52	C	-0.685651	-1.599901	-0.706276
C53	C	-0.352318	-1.266568	-0.372942
C54	C	-0.018984	-0.933234	-0.039609
C55	C	-0.775275	-1.599957	-0.706299
C56	C	-0.441942	-1.266624	-0.372966
C57	C	-0.108609	-0.933291	-0.039632
C58	C	-0.452501	-1.324040	-0.671319
C59	C	-0.119168	-0.990707	-0.337986
C60	C	0.214166	-0.657374	-0.004652
C61	C	-0.442395	-1.205984	-0.656365
C62	C	-0.109061	-0.872650	-0.323032
C63	C	0.224272	-0.539317	0.010302
C64	C	-0.452396	-1.635290	-0.983387
C65	C	-0.119063	-1.301957	-0.650054
C66	C	0.214270	-0.968624	-0.316721
C67	C	-0.442268	-1.650326	-1.101452
C68	C	-0.108934	-1.316993	-0.768118
C69	C	0.224399	-0.983659	-0.434785
C70	C	-1.103457	-1.600157	-0.706433
C71	C	-0.770124	-1.266823	-0.373100
C72	C	-0.436791	-0.933490	-0.039766
C73	C	-1.012146	-1.600098	-0.706398
C74	C	-0.678813	-1.266765	-0.373065
C75	C	-0.345480	-0.933432	-0.039732
C76	C	-0.939369	-1.600056	-0.706365
C77	C	-0.606036	-1.266723	-0.373032
C78	C	-0.272702	-0.933389	-0.039699
C79	C	-0.848053	-1.599999	-0.706332
C80	C	-0.514719	-1.266666	-0.372999
C81	C	-0.181386	-0.933333	-0.039665
C82	C	-0.265861	-1.600146	-0.706417
C83	C	0.067472	-1.266812	-0.373084
C84	C	0.400805	-0.933479	-0.039750
C85	C	-0.176242	-1.600205	-0.706453
C86	C	0.157091	-1.266871	-0.373120
C87	C	0.490424	-0.933538	-0.039786
C88	C	-0.499922	-1.877052	-0.741484
C89	C	-0.166588	-1.543719	-0.408151
C90	C	0.166745	-1.210385	-0.074817
C91	C	-0.510046	-1.995112	-0.756463
C92	C	-0.176712	-1.661778	-0.423130
C93	C	0.156621	-1.328445	-0.089797
C94	C	-0.481440	-1.161555	-0.714137
C95	C	-0.148106	-0.828221	-0.380804
C96	C	0.185227	-0.494888	-0.047471
C97	C	-0.470995	-1.039537	-0.698683
C98	C	-0.137662	-0.706204	-0.365350
C99	C	0.195671	-0.372870	-0.032016
C100	C	-0.481218	-1.592444	-1.145878
C101	C	-0.147885	-1.259111	-0.812545
C102	C	0.185448	-0.925777	-0.479212
C103	C	-0.470751	-1.607983	-1.267903
C104	C	-0.137418	-1.274649	-0.934570
C105	C	0.195916	-0.941316	-0.601237
C106	C	-0.499788	-1.564922	-0.430364
C107	C	-0.166455	-1.231589	-0.097030
C108	C	0.166879	-0.898256	0.236303
C109	C	-0.509707	-1.550093	-0.312326
C110	C	-0.176374	-1.216759	0.021007
C111	C	0.156960	-0.883426	0.354340
H112	H	-0.522596	-1.213851	-0.775043
H113	H	-0.189263	-0.880517	-0.441710
H114	H	0.144070	-0.547184	-0.108376
F115	F	-0.563838	-1.063457	-0.836087
F116	F	-0.230505	-0.730124	-0.502754
F117	F	0.102829	-0.396790	-0.169421
F118	F	-0.388555	-1.730141	-1.169812
F119	F	-0.055221	-1.396808	-0.836478
F120	F	0.278112	-1.063475	-0.503145
F121	F	-0.563435	-1.470286	-1.243974
F122	F	-0.230102	-1.136953	-0.910640
F123	F	0.103232	-0.803619	-0.577307
F124	F	-0.388589	-1.137635	-0.576765
F125	F	-0.055256	-0.804302	-0.243432
F126	F	0.278077	-0.470969	0.089902
H127	H	-0.429829	-0.987245	-0.637781
H128	H	-0.096495	-0.653912	-0.304448
H129	H	0.236838	-0.320579	0.028885
H130	H	-0.522318	-1.531390	-1.093575
H131	H	-0.188985	-1.198056	-0.760242
H132	H	0.144348	-0.864723	-0.426908
H133	H	-0.429654	-1.669049	-1.320204
H134	H	-0.096321	-1.335716	-0.986871
H135	H	0.237012	-1.002382	-0.653537
