data_functionalizedCrystal
_audit_creation_method	'MofGen! by Chris Wilmer'
_symmetry_space_group_name_H-M	'P1'
_symmetry_Int_Tables_number	1
_symmetry_cell_setting	triclinic
loop_
_symmetry_equiv_pos_as_xyz
  x,y,z
_cell_length_a	16.992696
_cell_length_b	16.992694
_cell_length_c	15.455301
_cell_angle_alpha	87.178730
_cell_angle_beta	87.165327
_cell_angle_gamma	90.668339
loop_
_atom_site_label
_atom_site_type_symbol
_atom_site_fract_x
_atom_site_fract_y
_atom_site_fract_z
O1	O	-0.170181	-1.054116	0.072049
O2	O	-0.168351	-0.825717	0.072074
O3	O	-0.055065	-0.938999	0.072037
O4	O	-0.283467	-0.940833	0.072085
O5	O	-0.048524	-0.932451	-0.072226
O6	O	-0.161810	-0.819169	-0.072189
O7	O	-0.163640	-1.047568	-0.072214
Cu8	Cu	-0.162128	-0.932771	-0.085374
Cu9	Cu	-0.169863	-0.940514	0.085234
O10	O	-0.276927	-0.934285	-0.072178
C11	C	-0.022434	-0.933369	-0.000098
C12	C	0.065051	-0.926340	-0.000110
C13	C	-0.162725	-0.793083	-0.000055
C14	C	-0.155697	-0.705599	-0.000046
C15	C	0.111043	-0.994157	-0.000126
C16	C	0.193243	-0.987548	-0.000129
C17	C	0.229451	-0.913120	-0.000123
C18	C	0.183454	-0.845298	-0.000105
C19	C	0.101254	-0.851909	-0.000096
C20	C	0.474767	-0.885724	-0.000145
C21	C	0.556973	-0.879119	-0.000157
C22	C	0.566757	-1.021370	-0.000180
C23	C	0.484555	-1.027973	-0.000175
C24	C	0.438564	-0.960151	-0.000153
N25	N	0.313474	-0.906363	-0.000130
N26	N	0.354543	-0.966910	-0.000140
C27	C	-0.169266	-1.080202	-0.000084
C28	C	-0.176295	-1.167686	-0.000087
C29	C	0.690445	-0.939913	-0.000078
C30	C	0.602964	-0.946936	-0.000173
N31	N	-0.156688	-0.927330	-0.205371
C32	C	-0.223515	-0.659609	-0.000033
C33	C	-0.216906	-0.577407	-0.000046
C34	C	-0.142477	-0.541198	-0.000067
C35	C	-0.074653	-0.587194	-0.000083
C36	C	-0.081263	-0.669393	-0.000076
C37	C	-0.115081	-0.295882	-0.000096
C38	C	-0.108476	-0.213677	-0.000100
C39	C	-0.250729	-0.203895	-0.000065
C40	C	-0.257333	-0.286097	-0.000053
C41	C	-0.189509	-0.332086	-0.000073
N42	N	-0.135719	-0.457175	-0.000078
N43	N	-0.196267	-0.416107	-0.000069
C44	C	-0.205396	-0.976006	-0.250756
C45	C	-0.201277	-0.971902	-0.341565
C46	C	-0.148454	-0.919116	-0.386986
C47	C	-0.099741	-0.870438	-0.341594
C48	C	-0.103856	-0.874547	-0.250787
C49	C	-0.130700	-0.901391	-0.658571
C50	C	-0.126590	-0.897284	-0.749384
C51	C	-0.228125	-0.998750	-0.749349
C52	C	-0.232239	-1.002851	-0.658540
C53	C	-0.183523	-0.954175	-0.613156
N54	N	-0.144245	-0.914918	-0.479807
N55	N	-0.187729	-0.958378	-0.520336
N56	N	-0.175297	-0.945961	0.205230
H57	H	0.081569	-1.054764	-0.000136
Cl58	Cl	0.251058	-1.072808	-0.000151
Cl59	Cl	-0.350905	-0.331612	-0.000021
Cl60	Cl	-0.289362	-1.059939	-0.806408
H61	H	-0.248414	-1.018985	-0.213781
Cl62	Cl	0.602490	-0.785546	-0.000155
Cl63	Cl	-0.029816	-0.353686	-0.000121
Cl64	Cl	-0.335988	-0.146077	-0.000042
Cl65	Cl	-0.033334	-0.804080	-0.398695
Cl66	Cl	0.228972	-0.751732	-0.000087
Cl67	Cl	-0.069485	-0.840169	-0.601528
Cl68	Cl	-0.060178	-0.830921	-0.806484
Cl69	Cl	-0.042614	-0.813358	-0.193731
Cl70	Cl	0.018915	-0.541673	-0.000114
Cl71	Cl	-0.298679	-1.069181	-0.601446
H72	H	0.063808	-0.796684	-0.000083
Cl73	Cl	-0.014901	-0.168157	-0.000146
H74	H	-0.284123	-0.689084	-0.000015
H75	H	0.604211	-1.076586	-0.000196
Cl76	Cl	0.439042	-1.121544	-0.000154
Cl77	Cl	0.416960	-0.800461	-0.000115
H78	H	-0.026038	-0.706838	-0.000086
H79	H	-0.272131	-0.539965	-0.000034
Cl80	Cl	-0.262514	-1.033097	-0.398618
