data_functionalizedCrystal
_audit_creation_method	'MofGen! by Chris Wilmer'
_symmetry_space_group_name_H-M	'P1'
_symmetry_Int_Tables_number	1
_symmetry_cell_setting	triclinic
loop_
_symmetry_equiv_pos_as_xyz
  x,y,z
_cell_length_a	19.188930
_cell_length_b	19.188930
_cell_length_c	8.140239
_cell_angle_alpha	89.991748
_cell_angle_beta	89.984657
_cell_angle_gamma	83.144779
loop_
_atom_site_label
_atom_site_type_symbol
_atom_site_fract_x
_atom_site_fract_y
_atom_site_fract_z
O1	O	-0.926142	-0.087166	0.137160
O2	O	-0.592809	0.246167	0.470493
O3	O	-0.259475	0.579500	0.803827
O4	O	-0.722831	-0.098901	0.137050
O5	O	-0.389497	0.234433	0.470383
O6	O	-0.056164	0.567766	0.803716
O7	O	-0.830353	0.008622	0.137076
O8	O	-0.497020	0.341956	0.470409
O9	O	-0.163687	0.675289	0.803743
O10	O	-0.818619	-0.194689	0.137134
O11	O	-0.485286	0.138644	0.470467
O12	O	-0.151952	0.471978	0.803800
O13	O	-0.830350	0.008623	-0.136151
O14	O	-0.497017	0.341956	0.197182
O15	O	-0.163683	0.675290	0.530515
O16	O	-0.722827	-0.098900	-0.136177
O17	O	-0.389494	0.234433	0.197156
O18	O	-0.056161	0.567767	0.530489
O19	O	-0.926138	-0.087166	-0.136067
O20	O	-0.592805	0.246168	0.197266
O21	O	-0.259472	0.579501	0.530599
Zn22	Zn	-0.824482	-0.093033	-0.179503
Zn23	Zn	-0.491149	0.240301	0.153830
Zn24	Zn	-0.157816	0.573634	0.487164
Zn25	Zn	-0.824487	-0.093034	0.180485
Zn26	Zn	-0.491153	0.240300	0.513819
Zn27	Zn	-0.157820	0.573633	0.847152
O28	O	-0.818616	-0.194688	-0.136093
O29	O	-0.485282	0.138645	0.197240
O30	O	-0.151949	0.471978	0.530573
C31	C	-0.696818	-0.098520	0.000422
C32	C	-0.363485	0.234813	0.333755
C33	C	-0.030151	0.568146	0.667088
C34	C	-0.619313	-0.097380	0.000378
C35	C	-0.285980	0.235954	0.333712
C36	C	0.047353	0.569287	0.667045
C37	C	-0.829972	0.034634	0.000457
C38	C	-0.496638	0.367967	0.333791
C39	C	-0.163305	0.701300	0.667124
C40	C	-0.828831	0.112138	0.000443
C41	C	-0.495498	0.445471	0.333776
C42	C	-0.162164	0.778805	0.667109
C43	C	-0.952151	-0.087546	0.000565
C44	C	-0.618818	0.245787	0.333898
C45	C	-0.285485	0.579121	0.667231
C46	C	-1.029656	-0.088687	0.000619
C47	C	-0.696322	0.244647	0.333952
C48	C	-0.362989	0.577980	0.667285
C49	C	-0.574389	-0.160470	0.000422
C50	C	-0.241056	0.172863	0.333755
C51	C	0.092277	0.506196	0.667089
C52	C	-0.501566	-0.159399	0.000440
C53	C	-0.168232	0.173935	0.333773
C54	C	0.165101	0.507268	0.667106
C55	C	-0.473669	-0.095233	0.000447
C56	C	-0.140336	0.238101	0.333780
C57	C	0.192998	0.571434	0.667113
C58	C	-0.518603	-0.032133	0.000394
C59	C	-0.185270	0.301200	0.333727
C60	C	0.148064	0.634533	0.667060
C61	C	-0.591425	-0.033207	0.000359
C62	C	-0.258092	0.300126	0.333693
C63	C	0.075242	0.633460	0.667026
N64	N	-0.365690	-0.046186	0.093490
N65	N	-0.032357	0.287147	0.426823
N66	N	0.300977	0.620481	0.760157
N67	N	-0.296511	-0.045170	0.093526
N68	N	0.036822	0.288163	0.426859
N69	N	0.370155	0.621496	0.760193
C70	C	-0.254260	-0.091994	0.000546
C71	C	0.079073	0.241339	0.333880
C72	C	0.412406	0.574672	0.667213
N73	N	-0.283800	-0.139883	-0.092450
N74	N	0.049533	0.193450	0.240883
N75	N	0.382867	0.526784	0.574216
N76	N	-0.352985	-0.140900	-0.092479
N77	N	-0.019651	0.192433	0.240854
N78	N	0.313682	0.525766	0.574188
C79	C	-0.394707	-0.094062	0.000483
C80	C	-0.061373	0.239272	0.333816
C81	C	0.271960	0.572605	0.667149
C82	C	-0.130372	-0.153928	0.000607
C83	C	0.202961	0.179406	0.333940
C84	C	0.536295	0.512739	0.667274
C85	C	-0.057547	-0.152853	0.000614
C86	C	0.275786	0.180480	0.333948
C87	C	0.609119	0.513813	0.667281
C88	C	-0.074586	-0.025586	0.000585
C89	C	0.258747	0.307747	0.333918
C90	C	0.592081	0.641080	0.667252
C91	C	-0.147409	-0.026662	0.000561
C92	C	0.185924	0.306671	0.333894
C93	C	0.519257	0.640004	0.667228
C94	C	-0.175298	-0.090835	0.000580
C95	C	0.158036	0.242498	0.333913
C96	C	0.491369	0.575832	0.667246
C97	C	-0.818997	-0.220700	0.000529
C98	C	-0.485664	0.112634	0.333862
C99	C	-0.152331	0.445967	0.667195
C100	C	-0.820138	-0.298204	0.000554
C101	C	-0.486805	0.035129	0.333888
C102	C	-0.153471	0.368462	0.667221
N103	N	-0.824484	-0.093032	-0.425186
N104	N	-0.491151	0.240302	-0.091852
N105	N	-0.157818	0.573635	0.241481
C106	C	-0.891922	0.157062	0.000469
C107	C	-0.558588	0.490395	0.333802
C108	C	-0.225255	0.823729	0.667136
C109	C	-0.890850	0.229886	0.000495
C110	C	-0.557517	0.563219	0.333828
C111	C	-0.224183	0.896552	0.667161
C112	C	-0.826684	0.257782	0.000461
C113	C	-0.493351	0.591116	0.333794
C114	C	-0.160017	0.924449	0.667128
C115	C	-0.763585	0.212849	0.000444
C116	C	-0.430252	0.546182	0.333777
C117	C	-0.096918	0.879515	0.667111
C118	C	-0.764658	0.140026	0.000435
C119	C	-0.431325	0.473360	0.333768
C120	C	-0.097992	0.806693	0.667101
N121	N	-0.777636	0.365788	-0.092550
N122	N	-0.444302	0.699121	0.240784
N123	N	-0.110969	1.032454	0.574117
N124	N	-0.776620	0.434966	-0.092545
N125	N	-0.443287	0.768300	0.240789
N126	N	-0.109953	1.101633	0.574122
C127	C	-0.823446	0.477191	0.000493
C128	C	-0.490113	0.810524	0.333826
C129	C	-0.156779	1.143858	0.667159
N130	N	-0.871336	0.447625	0.093504
N131	N	-0.538003	0.780959	0.426837
N132	N	-0.204670	1.114292	0.760170
N133	N	-0.872354	0.378441	0.093491
N134	N	-0.539020	0.711774	0.426824
N135	N	-0.205687	1.045107	0.760158
C136	C	-0.825513	0.336745	0.000472
C137	C	-0.492180	0.670078	0.333806
C138	C	-0.158846	1.003412	0.667139
C139	C	-0.885379	0.601079	0.000549
C140	C	-0.552046	0.934413	0.333883
C141	C	-0.218712	1.267746	0.667216
C142	C	-0.884305	0.673904	0.000585
C143	C	-0.550971	1.007238	0.333918
C144	C	-0.217638	1.340571	0.667252
C145	C	-0.757038	0.656865	0.000518
C146	C	-0.423704	0.990199	0.333851
C147	C	-0.090371	1.323532	0.667185
C148	C	-0.758114	0.584042	0.000499
C149	C	-0.424781	0.917376	0.333832
C150	C	-0.091447	1.250709	0.667165
C151	C	-0.822286	0.556154	0.000506
C152	C	-0.488953	0.889487	0.333840
C153	C	-0.155620	1.222821	0.667173
N154	N	-0.824490	-0.093029	0.426168
N155	N	-0.491157	0.240304	0.759501
N156	N	-0.157824	0.573638	1.092835
H157	H	-0.597091	-0.212725	0.000440
H158	H	-0.263758	0.120609	0.333774
H159	H	0.069576	0.453942	0.667107
H160	H	-0.942228	0.266470	0.000523
H161	H	-0.608895	0.599803	0.333856
H162	H	-0.275561	0.933137	0.667189
Br163	Br	0.003424	-0.238485	0.000659
Br164	Br	0.336757	0.094849	0.333992
Br165	Br	0.670091	0.428182	0.667326
H166	H	-0.153080	-0.206181	0.000598
H167	H	0.180254	0.127153	0.333931
H168	H	0.513587	0.460486	0.667265
Br169	Br	-0.679028	0.079054	0.000404
Br170	Br	-0.345695	0.412387	0.333737
Br171	Br	-0.012362	0.745720	0.667070
Br172	Br	-0.480745	0.054950	0.000386
Br173	Br	-0.147412	0.388283	0.333720
Br174	Br	0.185921	0.721617	0.667053
Br175	Br	-0.972468	0.563226	0.000543
Br176	Br	-0.639135	0.896560	0.333876
Br177	Br	-0.305801	1.229893	0.667210
Br178	Br	-0.440585	-0.245028	0.000489
Br179	Br	-0.107252	0.088305	0.333822
Br180	Br	0.226081	0.421639	0.667156
H181	H	-0.935683	0.710481	0.000616
H182	H	-0.602350	1.043815	0.333949
H183	H	-0.269016	1.377148	0.667282
Br184	Br	-0.676502	0.250706	0.000419
Br185	Br	-0.343168	0.584039	0.333753
Br186	Br	-0.009835	0.917373	0.667086
H187	H	-0.628003	0.018171	0.000325
H188	H	-0.294670	0.351504	0.333658
H189	H	0.038664	0.684838	0.666991
H190	H	-0.051874	0.026659	0.000693
H191	H	0.281460	0.359992	0.334026
H192	H	0.614793	0.693326	0.667359
Br193	Br	-0.208382	0.058966	0.000506
Br194	Br	0.124952	0.392299	0.333839
Br195	Br	0.458285	0.725632	0.667172
Br196	Br	-0.669953	0.694717	0.000489
Br197	Br	-0.336620	1.028050	0.333822
Br198	Br	-0.003287	1.361383	0.667156
Br199	Br	-0.979013	0.119216	0.000525
Br200	Br	-0.645679	0.452550	0.333859
Br201	Br	-0.312346	0.785883	0.667192
H202	H	-0.706738	0.547464	0.000468
H203	H	-0.373405	0.880797	0.333801
H204	H	-0.040072	1.214131	0.667134
