data_functionalizedCrystal
_audit_creation_method	'MofGen! by Chris Wilmer'
_symmetry_space_group_name_H-M	'P1'
_symmetry_Int_Tables_number	1
_symmetry_cell_setting	triclinic
loop_
_symmetry_equiv_pos_as_xyz
  x,y,z
_cell_length_a	14.853567
_cell_length_b	13.339070
_cell_length_c	13.930277
_cell_angle_alpha	89.998845
_cell_angle_beta	90.004377
_cell_angle_gamma	99.632113
loop_
_atom_site_label
_atom_site_type_symbol
_atom_site_fract_x
_atom_site_fract_y
_atom_site_fract_z
O1	O	-1.229270	-0.132119	-0.079760
O2	O	-0.970730	-0.147858	-0.079775
O3	O	-1.070328	0.007317	-0.079766
O4	O	-1.129672	-0.287294	-0.079769
O5	O	-1.070308	0.007314	0.079895
O6	O	-0.970710	-0.147861	0.079886
O7	O	-1.229250	-0.132122	0.079902
Zn8	Zn	-1.099977	-0.139992	0.105244
Zn9	Zn	-1.100003	-0.139988	-0.105117
O10	O	-1.129652	-0.287297	0.079893
C11	C	-0.936954	-0.147146	0.000053
C12	C	-0.836338	-0.145009	0.000047
N13	N	-1.099966	-0.139994	0.248810
C14	C	-1.263026	-0.132834	0.000071
C15	C	-1.363642	-0.134971	0.000071
C16	C	-0.398600	-0.043798	0.000069
C17	C	-0.423227	-0.228149	0.000067
C18	C	-0.517761	-0.230159	0.000064
C19	C	-0.552719	-0.138987	0.000062
C20	C	-0.493142	-0.045805	0.000063
C21	C	-0.577344	-0.323339	0.000053
C22	C	-0.671885	-0.325352	0.000049
C23	C	-0.706844	-0.234179	0.000054
C24	C	-0.647261	-0.140993	0.000056
C25	C	-0.682219	-0.049821	0.000054
C26	C	-0.622638	0.043366	0.000064
C27	C	-0.528102	0.045368	0.000068
C28	C	-0.801380	-0.236181	0.000049
C29	C	-0.776761	-0.051828	0.000048
C30	C	-1.060294	0.045019	0.000063
C31	C	-1.030413	0.157362	0.000057
C32	C	-1.139687	-0.324998	0.000062
C33	C	-1.169567	-0.437342	0.000062
C34	C	-1.262747	0.521829	0.000072
C35	C	-1.290824	0.416277	0.000082
C36	C	-1.225723	0.351543	0.000076
C37	C	-1.132542	0.392372	0.000059
C38	C	-1.104462	0.497934	0.000056
C39	C	-1.067439	0.327648	0.000060
C40	C	-0.974257	0.368477	0.000043
C41	C	-0.946182	0.474030	0.000039
C42	C	-1.011282	0.538763	0.000046
C43	C	-1.095518	0.222086	0.000063
C44	C	-0.937233	0.198191	0.000047
C45	C	-0.909157	0.303744	0.000036
N46	N	-1.100019	-0.139978	-0.248683
C47	C	-1.029914	-0.078504	0.299070
C48	C	-1.170029	-0.201479	0.299055
C49	C	-1.170040	-0.201478	0.399551
C50	C	-1.099988	-0.139988	0.449811
C51	C	-1.029924	-0.078499	0.399575
C52	C	-1.240108	-0.262959	0.449794
C53	C	-1.240122	-0.262960	0.550296
C54	C	-1.170065	-0.201474	0.600558
C55	C	-1.099998	-0.139983	0.550316
C56	C	-1.029945	-0.078493	0.600576
C57	C	-0.959874	-0.017007	0.550336
C58	C	-0.959867	-0.017014	0.449837
C59	C	-1.170072	-0.201468	0.701057
C60	C	-1.029955	-0.078488	0.701081
H61	H	-0.805216	0.022417	0.000051
H62	H	-1.171387	0.188854	0.000077
H63	H	-1.366692	0.383042	0.000097
H64	H	-1.248589	0.265598	0.000085
F65	F	-0.659853	0.140394	0.000055
F66	F	-0.847009	0.517479	0.000033
F67	F	-0.540135	-0.420363	0.000041
F68	F	-1.332020	0.590727	0.000094
F69	F	-0.735287	-0.424528	0.000041
H70	H	-0.849887	-0.312052	0.000043
H71	H	-1.227067	-0.251535	0.258127
H72	H	-0.988426	0.624714	0.000033
H73	H	-0.833286	0.337001	0.000023
H74	H	-0.884223	0.145485	0.000046
H75	H	-0.479583	0.121236	0.000099
F76	F	-0.335191	0.055372	0.000084
H77	H	-0.972906	-0.028420	0.741996
H78	H	-0.394758	-0.302378	0.000061
H79	H	-0.902840	0.033062	0.591271
F80	F	-0.885300	0.048420	0.396362
H81	H	-0.972861	-0.028447	0.258160
F82	F	-1.314661	-0.328390	0.396299
H83	H	-1.297178	-0.313026	0.591193
H84	H	-1.227125	-0.251525	0.741958
