data_functionalizedCrystal
_audit_creation_method	'MofGen! by Chris Wilmer'
_symmetry_space_group_name_H-M	'P1'
_symmetry_Int_Tables_number	1
_symmetry_cell_setting	triclinic
loop_
_symmetry_equiv_pos_as_xyz
  x,y,z
_cell_length_a	10.540510
_cell_length_b	15.944493
_cell_length_c	9.616153
_cell_angle_alpha	90.003613
_cell_angle_beta	89.992871
_cell_angle_gamma	83.994177
loop_
_atom_site_label
_atom_site_type_symbol
_atom_site_fract_x
_atom_site_fract_y
_atom_site_fract_z
O1	O	1.684267	0.118254	-0.115634
O2	O	1.314693	0.129433	-0.115633
O3	O	1.509611	0.001625	-0.115645
O4	O	1.489349	0.246062	-0.115622
O5	O	1.509584	0.001627	0.115646
O6	O	1.314667	0.129436	0.115658
O7	O	1.684240	0.118256	0.115657
Zn8	Zn	1.499449	0.123846	0.152380
Zn9	Zn	1.499484	0.123843	-0.152356
O10	O	1.489323	0.246064	0.115669
C11	C	1.267388	0.128601	0.000012
C12	C	1.126473	0.126109	0.000012
C13	C	0.907780	0.214897	-0.000511
C14	C	1.054339	0.217555	0.000019
C15	C	1.082350	0.079299	0.132083
C16	C	0.935617	0.077288	0.132185
C17	C	0.935868	0.075380	-0.130837
C18	C	1.082148	0.079718	-0.132574
C19	C	1.508769	-0.029674	-0.000006
C20	C	1.506286	-0.122937	-0.000023
C21	C	1.621019	-0.358021	0.000003
C22	C	1.559161	-0.408955	-0.114035
C23	C	1.501686	-0.293685	-0.000006
C24	C	1.559107	-0.408928	0.114000
C25	C	1.497251	-0.458621	0.000016
C26	C	1.439860	-0.343390	-0.114138
C27	C	1.439824	-0.343360	0.113999
C28	C	1.377878	-0.394262	-0.000066
C29	C	1.504244	-0.198670	-0.000020
C30	C	1.494684	-0.553633	0.000021
C31	C	1.731545	0.119088	0.000009
C32	C	1.872461	0.121580	-0.000000
C33	C	1.490164	0.277363	0.000026
C34	C	1.492647	0.370626	0.000035
N35	N	1.499434	0.123848	0.360355
N36	N	1.499509	0.123834	-0.360331
C37	C	1.394854	0.191988	0.580731
C38	C	1.395079	0.192243	0.419564
C39	C	1.631882	0.143778	0.418806
C40	C	1.631311	0.144260	0.580024
C41	C	1.472892	0.035556	0.580258
C42	C	1.469837	0.036128	0.419031
H43	H	1.083186	0.254176	-0.094658
H44	H	1.711610	0.095493	0.380449
H45	H	1.655893	0.207455	0.378422
Br46	Br	1.315402	0.003953	0.648102
H47	H	1.549212	-0.015171	0.618369
H48	H	1.389460	-0.314695	0.210415
H49	H	1.609517	-0.437561	0.210404
H50	H	0.892929	0.104217	-0.230941
Br51	Br	1.206423	-0.421053	-0.000160
H52	H	1.389504	-0.314868	-0.210651
Br53	Br	0.837049	0.274281	-0.158380
Br54	Br	1.422800	0.300538	0.648208
H55	H	1.296628	0.180253	0.380047
H56	H	1.296092	0.180182	0.619541
H57	H	1.112740	0.111810	0.230377
H58	H	1.412066	0.257738	0.380990
Br59	Br	1.670409	0.251605	0.642692
Br60	Br	1.764875	0.064647	0.645009
Br61	Br	1.129136	0.136454	-0.295431
H62	H	1.372408	0.021022	0.380829
H63	H	1.541105	-0.017024	0.378731
H64	H	0.913574	0.008891	0.138178
Br65	Br	0.834422	0.273944	0.156463
Br66	Br	0.900550	-0.039056	-0.132332
Br67	Br	1.100820	0.278962	0.158097
H68	H	0.894943	0.109280	0.230916
H69	H	1.130677	0.011977	0.136989
Br70	Br	1.792340	-0.330960	-0.000179
H71	H	1.609568	-0.437605	-0.210447
Br72	Br	1.165472	-0.031564	-0.145879
