data_functionalizedCrystal
_audit_creation_method	'MofGen! by Chris Wilmer'
_symmetry_space_group_name_H-M	'P1'
_symmetry_Int_Tables_number	1
_symmetry_cell_setting	triclinic
loop_
_symmetry_equiv_pos_as_xyz
  x,y,z
_cell_length_a	16.109295
_cell_length_b	10.868271
_cell_length_c	16.109301
_cell_angle_alpha	90.006364
_cell_angle_beta	83.460334
_cell_angle_gamma	90.002028
loop_
_atom_site_label
_atom_site_type_symbol
_atom_site_fract_x
_atom_site_fract_y
_atom_site_fract_z
O1	O	-1.103135	-0.102242	-0.106845
O2	O	-0.861073	-0.102264	-0.120149
O3	O	-0.988754	-0.102240	0.007534
O4	O	-0.975454	-0.102266	-0.234528
O5	O	-0.988742	0.102405	0.007538
O6	O	-0.861061	0.102381	-0.120145
O7	O	-1.103123	0.102402	-0.106841
Zn8	Zn	-0.982090	0.134883	-0.113492
Zn9	Zn	-0.982106	-0.134745	-0.113498
O10	O	-0.975442	0.102378	-0.234524
C11	C	-0.830092	0.000056	-0.119609
C12	C	-0.737796	0.000048	-0.117996
N13	N	-0.982085	0.318897	-0.113488
C14	C	-0.515523	0.000054	-0.190008
C15	C	-0.428803	0.000061	-0.188486
C16	C	-0.448677	0.000072	-0.036996
C17	C	-0.535396	0.000074	-0.038520
C18	C	-0.568816	0.000058	-0.115028
C19	C	-0.395377	0.000064	-0.111982
C20	C	-0.301351	0.000073	-0.110331
C21	C	-0.662849	0.000052	-0.116679
C22	C	-0.982096	0.569903	-0.113498
C23	C	-0.982087	0.430226	-0.113495
C24	C	-0.134104	0.000078	-0.107386
C25	C	-0.226397	0.000074	-0.109014
C26	C	-0.988209	0.000083	0.038511
C27	C	-0.986594	0.000085	0.130806
N28	N	-0.982109	0.681241	-0.113499
C29	C	-0.975987	0.000053	-0.265501
C30	C	-0.977602	0.000043	-0.357796
C31	C	-1.058602	0.000071	0.353080
C32	C	-1.057078	0.000061	0.439800
C33	C	-0.905588	0.000053	0.419923
C34	C	-0.907113	0.000054	0.333204
C35	C	-0.983622	0.000070	0.299785
C36	C	-0.980573	0.000058	0.473225
C37	C	-0.978920	0.000047	0.567251
C38	C	-0.985276	0.000079	0.205754
H39	H	-0.542731	0.000050	-0.252306
H40	H	-1.120900	0.000082	0.325874
C41	C	-0.411906	0.000078	0.047158
N42	N	-0.384211	0.000078	0.110545
C43	C	-1.139561	0.000074	0.498421
N44	N	-1.201691	0.000086	0.542575
C45	C	-0.594023	0.000079	0.043969
N46	N	-0.638180	0.000086	0.106096
C47	C	-0.821433	0.000059	0.456693
N48	N	-0.758045	0.000074	0.484386
H49	H	-0.846052	0.000049	0.289809
C50	C	-0.370183	0.000062	-0.270970
N51	N	-0.326031	0.000066	-0.333101
