data_functionalizedCrystal
_audit_creation_method	'MofGen! by Chris Wilmer'
_symmetry_space_group_name_H-M	'P1'
_symmetry_Int_Tables_number	1
_symmetry_cell_setting	triclinic
loop_
_symmetry_equiv_pos_as_xyz
  x,y,z
_cell_length_a	14.519709
_cell_length_b	23.532407
_cell_length_c	12.996460
_cell_angle_alpha	89.989202
_cell_angle_beta	90.000034
_cell_angle_gamma	83.264412
loop_
_atom_site_label
_atom_site_type_symbol
_atom_site_fract_x
_atom_site_fract_y
_atom_site_fract_z
O1	O	1.222985	0.074654	-0.085444
O2	O	0.954405	0.083445	-0.085477
O3	O	1.096794	-0.003845	-0.085440
O4	O	1.080596	0.161945	-0.085480
O5	O	1.096779	-0.003850	0.085693
O6	O	0.954390	0.083441	0.085657
O7	O	1.222971	0.074649	0.085690
Cu8	Cu	1.088679	0.079044	0.101299
Cu9	Cu	1.088696	0.079050	-0.101086
O10	O	1.080581	0.161940	0.085654
C11	C	0.920042	0.083033	0.000086
C12	C	0.817676	0.081805	0.000075
C13	C	0.442833	0.077286	0.000123
C14	C	0.547126	0.078541	0.000109
C15	C	0.630251	0.079545	0.000098
C16	C	0.734551	0.080801	0.000086
C17	C	1.096374	-0.025066	0.000129
C18	C	1.095134	-0.088288	0.000137
C19	C	1.171619	-0.487046	0.000090
C20	C	1.170467	-0.546452	0.000082
O21	O	1.241369	-0.582876	0.000052
N22	N	1.085816	-0.569460	0.000072
C23	C	1.002312	-0.533059	0.000060
O24	O	0.930205	-0.558084	0.000050
C25	C	1.003465	-0.473655	0.000061
C26	C	1.088121	-0.450650	0.000081
C27	C	1.256268	-0.464041	0.000109
C28	C	1.257420	-0.404640	0.000119
C29	C	1.173922	-0.368244	0.000110
C30	C	1.089273	-0.391249	0.000091
C31	C	0.919962	-0.437255	0.000041
C32	C	0.921123	-0.377847	0.000041
C33	C	1.005779	-0.354843	0.000061
C34	C	1.006927	-0.295451	0.000091
N35	N	1.091578	-0.272443	0.000101
C36	C	1.175075	-0.308839	0.000110
C37	C	0.999897	-0.657813	0.000057
C38	C	0.998743	-0.717216	0.000064
C39	C	1.166898	-0.730604	0.000084
C40	C	1.168051	-0.671200	0.000084
C41	C	1.084548	-0.634804	0.000067
C42	C	1.177487	-0.184092	0.000132
C43	C	1.178632	-0.124685	0.000146
C44	C	1.010477	-0.111301	0.000121
C45	C	1.009332	-0.170703	0.000112
C46	C	1.092845	-0.207098	0.000114
O47	O	0.936062	-0.258992	0.000117
O48	O	1.247171	-0.283806	0.000106
C49	C	1.257333	0.075061	0.000125
C50	C	1.359700	0.076289	0.000130
C51	C	1.081001	0.183160	0.000082
C52	C	1.082241	0.246383	0.000067
N53	N	1.088673	0.079040	0.243647
N54	N	1.088709	0.079050	-0.243433
C55	C	1.088695	0.079051	0.663461
C56	C	1.088686	0.079050	0.546656
C57	C	1.088685	0.079046	0.453557
C58	C	1.088675	0.079044	0.336745
H59	H	1.247572	-0.105958	0.000165
C60	C	1.261171	-0.645900	0.000097
H61	H	1.310730	-0.676089	0.000097
H62	H	1.265117	-0.623009	0.059772
H63	H	1.265125	-0.623002	-0.059591
H64	H	0.929808	-0.735940	0.000065
H65	H	0.942496	-0.081657	0.000117
C66	C	1.350542	-0.379342	0.000121
H67	H	1.400097	-0.409533	0.000113
H68	H	1.354497	-0.356452	0.059796
H69	H	1.354489	-0.356444	-0.059567
H70	H	1.245491	-0.213718	0.000129
H71	H	1.234886	-0.760249	0.000087
C72	C	1.348121	-0.504071	0.000116
H73	H	1.335327	-0.542748	0.000106
H74	H	1.382847	-0.497088	0.059798
H75	H	1.382855	-0.497076	-0.059565
C76	C	0.908037	-0.617782	0.000057
H77	H	0.857464	-0.639997	0.000061
H78	H	0.904986	-0.594321	-0.059618
H79	H	0.904987	-0.594339	0.059746
H80	H	0.851027	-0.455975	0.000019
C81	C	0.829266	-0.337815	0.000026
H82	H	0.778690	-0.360028	0.000021
H83	H	0.826225	-0.314354	-0.059648
H84	H	0.826211	-0.314373	0.059715
C85	C	0.916214	-0.196010	0.000088
H86	H	0.866652	-0.165823	0.000077
H87	H	0.912254	-0.218919	0.059753
H88	H	0.912282	-0.218890	-0.059610
