data_functionalizedCrystal
_audit_creation_method	'MofGen! by Chris Wilmer'
_symmetry_space_group_name_H-M	'P1'
_symmetry_Int_Tables_number	1
_symmetry_cell_setting	triclinic
loop_
_symmetry_equiv_pos_as_xyz
  x,y,z
_cell_length_a	19.121063
_cell_length_b	14.908941
_cell_length_c	14.908308
_cell_angle_alpha	83.630660
_cell_angle_beta	95.554627
_cell_angle_gamma	84.378982
loop_
_atom_site_label
_atom_site_type_symbol
_atom_site_fract_x
_atom_site_fract_y
_atom_site_fract_z
Zn1	Zn	-0.239410	-1.340277	-0.445978
Zn2	Zn	-0.350262	-1.342451	-0.301060
Zn3	Zn	-0.239439	-1.197649	-0.303354
Zn4	Zn	-0.364672	-1.181582	-0.461923
O5	O	-0.298446	-1.265490	-0.378079
O6	O	-0.248072	-1.467580	-0.419121
O7	O	-0.329543	-1.330877	-0.174354
O8	O	-0.140633	-1.222383	-0.316561
O9	O	-0.329514	-1.469177	-0.312650
O10	O	-0.140612	-1.327171	-0.421346
O11	O	-0.248122	-1.224491	-0.176040
O12	O	-0.262095	-1.068503	-0.332022
O13	O	-0.354074	-1.194999	-0.586818
O14	O	-0.354103	-1.056699	-0.448521
O15	O	-0.262045	-1.311592	-0.575103
O16	O	-0.450976	-1.315297	-0.328111
O17	O	-0.461563	-1.197107	-0.446296
C18	C	-0.309666	-1.029667	-0.392251
C19	C	-0.314484	-0.928779	-0.398337
C20	C	-0.227602	-0.751438	-0.288616
C21	C	-0.232127	-0.656645	-0.294331
C22	C	-0.328061	-0.644398	-0.415477
C23	C	-0.323536	-0.739192	-0.409762
C24	C	-0.273305	-0.792708	-0.346330
C25	C	-0.268777	-0.887503	-0.340621
C26	C	-0.364714	-0.875255	-0.461761
C27	C	-0.369239	-0.780462	-0.467476
C28	C	-0.481888	-1.254718	-0.388703
C29	C	-0.560362	-1.250191	-0.393274
C30	C	-0.591695	-1.309642	-0.333934
C31	C	-0.665430	-1.305389	-0.338237
C32	C	-0.707832	-1.241681	-0.401877
C33	C	-0.676495	-1.182228	-0.461224
C34	C	-0.602761	-1.186485	-0.456924
C35	C	-0.930739	-1.225750	-0.417940
C36	C	-1.004478	-1.221495	-0.422234
C37	C	-0.993408	-1.344658	-0.299248
C38	C	-0.919673	-1.348906	-0.294950
C39	C	-0.888342	-1.289456	-0.354300
C40	C	-0.783202	-1.237331	-0.406276
C41	C	-0.812974	-1.293811	-0.349905
C42	C	-0.114288	-1.276327	-0.367431
C43	C	-0.035810	-1.280945	-0.362894
C44	C	-0.309664	-1.251261	-0.614814
C45	C	-0.314444	-1.245198	-0.715696
C46	C	-0.287175	-0.502234	-0.363844
C47	C	-0.282354	-0.603122	-0.357760
C48	C	-0.227580	-1.355210	-0.893067
C49	C	-0.232069	-1.349516	-0.987855
C50	C	-0.327907	-1.228111	-1.000061
C51	C	-0.323418	-1.233805	-0.905273
C52	C	-0.273253	-1.297358	-0.851779
C53	C	-0.268768	-1.303056	-0.756990
C54	C	-0.364603	-1.181648	-0.769197
C55	C	-0.369091	-1.175953	-0.863985
C56	C	-0.287219	-1.279718	-0.142259
C57	C	-0.282231	-1.285969	-0.041355
H58	H	-0.410138	-0.736876	-0.519118
H59	H	-0.227923	-1.354804	-0.713437
H60	H	-0.577251	-1.138076	-0.505246
H61	H	-0.557175	-1.361516	-0.282107
C62	C	-0.896286	-1.160353	-0.483226
C63	C	-0.911055	-1.057036	-0.482536
C64	C	-0.876602	-0.991636	-0.547828
C65	C	-0.827379	-1.029553	-0.613810
C66	C	-0.812608	-1.132875	-0.614502
C67	C	-0.847062	-1.198275	-0.549210
H68	H	-0.947495	-1.028962	-0.433691
H69	H	-0.887537	-0.915149	-0.547316
H70	H	-0.801875	-0.981140	-0.662143
H71	H	-0.776168	-1.160949	-0.663347
H72	H	-0.836127	-1.274761	-0.549722
C73	C	-0.383081	-1.158221	-1.058932
C74	C	-0.439708	-1.190407	-1.124943
C75	C	-0.494883	-1.120523	-1.183824
C76	C	-0.493431	-1.018453	-1.176694
C77	C	-0.436803	-0.986262	-1.110680
C78	C	-0.381628	-1.056146	-1.051799
H79	H	-0.440784	-1.265969	-1.130224
H80	H	-0.536803	-1.144353	-1.232692
H81	H	-0.534275	-0.966721	-1.220281
H82	H	-0.435726	-0.910700	-1.105399
H83	H	-0.339708	-1.032316	-1.002931
H84	H	-0.194875	-1.396622	-1.021468
C85	C	-1.051119	-1.151418	-0.492253
C86	C	-1.103268	-1.183494	-0.564127
C87	C	-1.149906	-1.113422	-0.634143
C88	C	-1.144396	-1.011273	-0.632287
C89	C	-1.092245	-0.979192	-0.560410
C90	C	-1.045607	-1.049265	-0.490394
H91	H	-1.107348	-1.259115	-0.565504
H92	H	-1.188512	-1.137171	-0.687351
H93	H	-1.178921	-0.959402	-0.684117
H94	H	-1.088165	-0.903571	-0.559033
H95	H	-1.007001	-1.025515	-0.437186
C96	C	-0.424272	-1.106057	-0.922839
C97	C	-0.480909	-1.138230	-0.988844
C98	C	-0.536093	-1.068337	-1.047699
C99	C	-0.534639	-0.966271	-1.040549
C100	C	-0.477999	-0.934093	-0.974541
C101	C	-0.422816	-1.003986	-0.915686
H102	H	-0.481988	-1.213790	-0.994139
H103	H	-0.578021	-1.092158	-1.096562
H104	H	-0.575489	-0.914532	-1.084117
H105	H	-0.476921	-0.858534	-0.969245
H106	H	-0.380887	-0.980165	-0.866823
H107	H	-0.186737	-1.406961	-0.849512
H108	H	-0.817734	-1.185458	-0.458090
H109	H	-0.401795	-1.134542	-0.735571
H110	H	-0.227872	-0.931075	-0.288977
H111	H	-0.401925	-0.908867	-0.508761
H112	H	-0.186693	-0.795012	-0.236978
H113	H	-0.711025	-1.130359	-0.513044
C114	C	-0.699891	-1.370791	-0.272962
C115	C	-0.685253	-1.370253	-0.169627
C116	C	-0.719711	-1.435664	-0.104351
C117	C	-0.768807	-1.501612	-0.142409
C118	C	-0.783447	-1.502153	-0.245749
C119	C	-0.748989	-1.436742	-0.311025
H120	H	-0.648908	-1.321432	-0.141449
H121	H	-0.708874	-1.435263	-0.027851
H122	H	-0.794315	-1.550033	-0.094087
H123	H	-0.819792	-1.550974	-0.273927
H124	H	-0.759827	-1.437143	-0.387524
C125	C	-1.027873	-1.410056	-0.233974
C126	C	-1.108977	-1.405383	-0.238699
C127	C	-1.143441	-1.470788	-0.173425
C128	C	-1.096801	-1.540866	-0.103424
C129	C	-1.015692	-1.545543	-0.098696
C130	C	-0.981228	-1.480138	-0.163971
H131	H	-1.143507	-1.353504	-0.290520
H132	H	-1.203484	-1.467325	-0.176925
H133	H	-1.122313	-1.589283	-0.055104
H134	H	-0.981161	-1.597422	-0.046875
H135	H	-0.921185	-1.483600	-0.160470
H136	H	-0.885150	-1.400782	-0.243129
H137	H	-0.778448	-1.345685	-0.298092
H138	H	-0.194910	-0.623047	-0.247335
H139	H	-0.368963	-0.600809	-0.467112
