data_functionalizedCrystal
_audit_creation_method	'MofGen! by Chris Wilmer'
_symmetry_space_group_name_H-M	'P1'
_symmetry_Int_Tables_number	1
_symmetry_cell_setting	triclinic
loop_
_symmetry_equiv_pos_as_xyz
  x,y,z
_cell_length_a	14.908783
_cell_length_b	21.295417
_cell_length_c	14.908308
_cell_angle_alpha	93.261727
_cell_angle_beta	89.788727
_cell_angle_gamma	93.320338
loop_
_atom_site_label
_atom_site_type_symbol
_atom_site_fract_x
_atom_site_fract_y
_atom_site_fract_z
Zn1	Zn	1.345265	-0.220173	-0.587804
Zn2	Zn	1.353823	-0.319050	-0.437432
Zn3	Zn	1.203578	-0.219492	-0.428775
Zn4	Zn	1.194846	-0.331104	-0.579053
O5	O	1.274378	-0.272455	-0.508266
O6	O	1.472229	-0.228530	-0.575142
O7	O	1.341129	-0.300514	-0.310461
O8	O	1.222446	-0.131491	-0.449910
O9	O	1.478517	-0.301174	-0.464665
O10	O	1.326543	-0.131992	-0.566748
O11	O	1.230745	-0.227369	-0.304101
O12	O	1.076591	-0.239057	-0.441424
O13	O	1.207563	-0.321719	-0.706036
O14	O	1.070176	-0.321058	-0.551833
O15	O	1.318075	-0.240218	-0.712466
O16	O	1.332662	-0.408740	-0.456179
O17	O	1.215862	-0.417596	-0.560227
C18	C	1.040757	-0.281292	-0.494740
C19	C	0.940812	-0.285089	-0.488975
C20	C	0.746445	-0.216696	-0.593357
C21	C	0.652537	-0.220261	-0.587943
C22	C	0.659088	-0.295781	-0.472729
C23	C	0.752995	-0.292216	-0.478143
C24	C	0.796670	-0.252673	-0.538460
C25	C	0.890580	-0.249111	-0.543878
C26	C	0.897129	-0.324627	-0.428660
C27	C	0.803221	-0.328192	-0.423246
C28	C	1.274266	-0.436009	-0.508214
C29	C	1.274299	-0.505976	-0.508226
C30	C	1.328467	-0.539049	-0.569103
C31	C	1.328497	-0.604791	-0.569127
C32	C	1.274370	-0.637457	-0.508259
C33	C	1.220191	-0.604376	-0.447378
C34	C	1.220156	-0.538636	-0.447361
N35	N	1.272122	-0.737628	-0.429178
N36	N	1.272161	-0.800079	-0.429197
C37	C	1.274473	-0.835530	-0.508306
N38	N	1.276762	-0.806170	-0.587398
N39	N	1.276727	-0.743713	-0.587379
C40	C	1.274402	-0.708742	-0.508270
C41	C	1.328676	-0.939888	-0.569213
C42	C	1.328700	-1.005632	-0.569238
C43	C	1.220400	-1.005215	-0.447481
C44	C	1.220371	-0.939473	-0.447464
C45	C	1.274514	-0.906813	-0.508329
C46	C	1.508911	-0.263583	-0.521845
C47	C	1.608855	-0.259803	-0.527632
C48	C	1.260891	-0.282389	-0.742787
C49	C	1.255143	-0.286622	-0.842726
C50	C	1.274514	-0.108262	-0.508339
C51	C	1.274572	-0.038293	-0.508371
C52	C	1.359416	-0.209696	-1.037219
C53	C	1.354019	-0.213671	-1.131121
C54	C	1.238946	-0.298545	-1.124433
C55	C	1.244344	-0.294569	-1.030532
C56	C	1.304582	-0.250144	-0.986928
C57	C	1.309983	-0.246172	-0.893025
C58	C	1.194907	-0.331042	-0.886339
C59	C	1.189510	-0.335018	-0.980240
C60	C	1.287865	-0.262512	-0.274660
C61	C	1.293787	-0.258095	-0.174732
H62	H	0.623512	-0.327967	-0.423612
C63	C	1.387360	-1.041584	-0.635441
C64	C	1.333113	-1.083696	-0.690114
C65	C	1.387119	-1.116820	-0.751118
H66	H	1.428564	-1.064332	-0.603458
H67	H	1.419579	-1.012736	-0.671734
H68	H	1.300908	-1.112540	-0.653826
H69	H	1.291910	-1.060965	-0.722117
H70	H	1.419338	-1.087972	-0.787411
H71	H	1.428320	-1.139564	-0.719128
H72	H	1.350319	-1.145392	-0.788226
H73	H	1.176323	-1.031811	-0.397927
H74	H	1.150259	-0.363980	-0.845381
C75	C	1.161540	-0.903670	-0.381258
C76	C	1.114161	-0.946344	-0.327940
C77	C	1.059963	-0.913386	-0.266932
H78	H	1.120270	-0.880975	-0.413237
H79	H	1.198193	-0.875066	-0.344048
H80	H	1.077512	-0.974938	-0.365145
H81	H	1.155409	-0.969041	-0.295941
H82	H	1.096615	-0.884782	-0.229722
H83	H	1.018698	-0.890692	-0.298918
H84	H	1.027816	-0.942335	-0.230742
C85	C	1.161364	-0.639927	-0.381434
C86	C	1.100803	-0.682042	-0.428967
C87	C	1.046600	-0.714807	-0.368251
H88	H	1.129012	-0.610886	-0.345148
H89	H	1.198033	-0.662637	-0.344296
H90	H	1.064139	-0.659334	-0.466090
H91	H	1.133130	-0.711096	-0.465250
H92	H	1.083269	-0.737517	-0.331113
H93	H	1.014255	-0.685762	-0.331969
H94	H	1.005509	-0.743390	-0.400494
H95	H	1.398668	-0.180732	-1.172065
C96	C	0.755630	-0.371110	-0.357852
C97	C	0.662638	-0.366544	-0.364873
C98	C	0.618771	-0.406080	-0.304656
H99	H	0.774379	-0.358738	-0.298306
H100	H	0.770194	-0.413405	-0.371800
H101	H	0.648081	-0.324259	-0.350919
H102	H	0.643864	-0.378922	-0.424406
H103	H	0.633335	-0.448374	-0.318604
H104	H	0.637526	-0.393704	-0.245114
H105	H	0.555672	-0.402991	-0.309418
H106	H	1.372599	-0.631726	-0.618710
H107	H	0.938032	-0.353927	-0.383965
C108	C	1.123966	-0.383176	-1.027529
C109	C	1.036320	-0.371865	-0.999559
C110	C	0.975918	-0.416213	-1.043108
H111	H	1.137862	-0.424350	-1.012916
H112	H	1.128541	-0.379749	-1.090662
H113	H	1.031749	-0.375298	-0.936440
H114	H	1.022396	-0.330700	-1.014172
H115	H	0.980493	-0.412786	-1.106241
H116	H	0.989822	-0.457384	-1.028492
H117	H	0.916443	-0.408541	-1.024143
C118	C	1.424843	-0.161405	-0.990036
C119	C	1.471699	-0.126824	-1.054178
C120	C	1.531970	-0.082327	-1.010747
H121	H	1.466185	-0.182380	-0.955663
H122	H	1.392593	-0.133693	-0.951446
H123	H	1.503947	-0.154532	-1.092752
H124	H	1.430381	-0.105835	-1.088554
H125	H	1.499720	-0.054615	-0.972157
H126	H	1.573306	-0.103308	-0.976376
H127	H	1.563763	-0.058854	-1.054260
C128	C	1.161317	-0.502834	-0.381159
C129	C	1.113933	-0.545508	-0.327844
C130	C	1.059732	-0.512548	-0.266839
H131	H	1.120050	-0.480138	-0.413141
H132	H	1.197968	-0.474231	-0.343947
H133	H	1.077284	-0.574100	-0.365051
H134	H	1.155177	-0.568205	-0.295843
H135	H	1.096383	-0.483945	-0.229627
H136	H	1.018470	-0.489853	-0.298829
H137	H	1.027581	-0.541496	-0.230652
H138	H	0.782006	-0.184501	-0.642474
C139	C	1.173623	-0.346743	-1.171951
C140	C	1.180643	-0.341568	-1.264950
C141	C	1.120484	-0.385960	-1.308753
H142	H	1.114061	-0.339204	-1.153168
H143	H	1.187628	-0.387910	-1.157372
H144	H	1.166633	-0.300411	-1.279523
H145	H	1.240192	-0.349113	-1.283759
H146	H	1.134489	-0.427127	-1.294174
H147	H	1.060926	-0.378417	-1.289963
H148	H	1.125245	-0.382459	-1.371857
C149	C	1.387210	-0.503475	-0.635092
C150	C	1.375603	-0.438822	-0.622039
C151	C	1.429708	-0.406030	-0.682806
H152	H	1.370587	-0.517225	-0.694771
H153	H	1.448417	-0.511332	-0.625477
H154	H	1.314410	-0.430969	-0.631662
H155	H	1.392231	-0.425054	-0.562373
H156	H	1.490915	-0.413886	-0.673190
H157	H	1.413081	-0.419784	-0.742480
H158	H	1.421846	-0.362158	-0.673952
C159	C	0.937837	-0.206119	-0.609388
C160	C	0.873748	-0.175363	-0.656287
C161	C	0.917246	-0.135747	-0.716634
H162	H	0.972214	-0.230439	-0.650697
H163	H	0.976433	-0.175779	-0.577194
H164	H	0.835168	-0.205700	-0.688479
H165	H	0.839368	-0.151032	-0.615002
H166	H	0.955841	-0.105406	-0.684440
H167	H	0.951621	-0.160071	-0.757937
H168	H	0.873768	-0.114869	-0.748456
H169	H	0.611647	-0.190964	-0.632644
C170	C	1.387470	-0.904541	-0.635406
C171	C	1.434889	-0.947582	-0.688752
C172	C	1.489045	-0.915047	-0.749749
H173	H	1.428717	-0.875939	-0.603419
H174	H	1.350787	-0.881884	-0.672599
H175	H	1.471569	-0.970229	-0.651563
H176	H	1.393664	-0.976186	-0.720759
H177	H	1.452362	-0.892390	-0.786942
H178	H	1.530287	-0.886446	-0.717754
H179	H	1.521219	-0.944246	-0.785957
H180	H	1.359033	-0.210000	-0.857524
