data_functionalizedCrystal
_audit_creation_method	'MofGen! by Chris Wilmer'
_symmetry_space_group_name_H-M	'P1'
_symmetry_Int_Tables_number	1
_symmetry_cell_setting	triclinic
loop_
_symmetry_equiv_pos_as_xyz
  x,y,z
_cell_length_a	19.188930
_cell_length_b	19.188930
_cell_length_c	17.666332
_cell_angle_alpha	90.011603
_cell_angle_beta	89.976766
_cell_angle_gamma	96.855221
loop_
_atom_site_label
_atom_site_type_symbol
_atom_site_fract_x
_atom_site_fract_y
_atom_site_fract_z
O1	O	0.926150	-0.087169	-0.063200
O2	O	1.259483	0.246165	0.270133
O3	O	1.592816	0.579498	0.603467
O4	O	0.722838	-0.098903	-0.063149
O5	O	1.056172	0.234430	0.270184
O6	O	1.389505	0.567764	0.603517
O7	O	0.830361	0.008620	-0.063161
O8	O	1.163694	0.341953	0.270172
O9	O	1.497028	0.675286	0.603505
O10	O	0.818627	-0.194692	-0.063188
O11	O	1.151960	0.138642	0.270145
O12	O	1.485294	0.471975	0.603479
O13	O	0.830342	0.008625	0.062735
O14	O	1.163676	0.341959	0.396069
O15	O	1.497009	0.675292	0.729402
O16	O	0.722820	-0.098897	0.062747
O17	O	1.056153	0.234436	0.396081
O18	O	1.389486	0.567769	0.729414
O19	O	0.926131	-0.087163	0.062697
O20	O	1.259464	0.246170	0.396030
O21	O	1.592797	0.579504	0.729363
Cu22	Cu	0.824473	-0.093030	0.074217
Cu23	Cu	1.157807	0.240304	0.407551
Cu24	Cu	1.491140	0.573637	0.740884
Cu25	Cu	0.824496	-0.093036	-0.074670
Cu26	Cu	1.157829	0.240297	0.258663
Cu27	Cu	1.491162	0.573630	0.591997
O28	O	0.818608	-0.194686	0.062709
O29	O	1.151941	0.138647	0.396042
O30	O	1.485275	0.471981	0.729375
C31	C	0.696818	-0.098520	-0.000194
C32	C	1.030151	0.234813	0.333139
C33	C	1.363485	0.568146	0.666472
C34	C	0.619313	-0.097380	-0.000174
C35	C	0.952647	0.235954	0.333159
C36	C	1.285980	0.569287	0.666492
C37	C	0.574389	-0.160470	-0.000194
C38	C	0.907723	0.172863	0.333139
C39	C	1.241056	0.506196	0.666472
C40	C	0.501566	-0.159399	-0.000203
C41	C	0.834899	0.173935	0.333131
C42	C	1.168232	0.507268	0.666464
C43	C	0.473669	-0.095233	-0.000206
C44	C	0.807002	0.238101	0.333128
C45	C	1.140336	0.571434	0.666461
C46	C	0.518603	-0.032133	-0.000181
C47	C	0.851936	0.301200	0.333152
C48	C	1.185270	0.634533	0.666485
C49	C	0.591425	-0.033207	-0.000166
C50	C	0.924758	0.300126	0.333168
C51	C	1.258092	0.633460	0.666501
N52	N	0.365695	-0.046188	-0.043078
N53	N	0.699029	0.287146	0.290255
N54	N	1.032362	0.620479	0.623589
N55	N	0.296517	-0.045172	-0.043095
N56	N	0.629850	0.288161	0.290239
N57	N	0.963183	0.621495	0.623572
C58	C	0.254260	-0.091994	-0.000252
C59	C	0.587594	0.241339	0.333082
C60	C	0.920927	0.574672	0.666415
N61	N	0.283795	-0.139881	0.042599
N62	N	0.617128	0.193452	0.375932
N63	N	0.950461	0.526785	0.709266
N64	N	0.352979	-0.140899	0.042612
N65	N	0.686313	0.192435	0.375946
N66	N	1.019646	0.525768	0.709279
C67	C	0.394707	-0.094062	-0.000222
C68	C	0.728040	0.239272	0.333111
C69	C	1.061373	0.572605	0.666444
C70	C	0.130372	-0.153928	-0.000280
C71	C	0.463705	0.179406	0.333054
C72	C	0.797039	0.512739	0.666387
C73	C	0.057547	-0.152853	-0.000283
C74	C	0.390881	0.180480	0.333050
C75	C	0.724214	0.513813	0.666384
C76	C	0.074586	-0.025586	-0.000270
C77	C	0.407919	0.307747	0.333064
C78	C	0.741253	0.641080	0.666397
C79	C	0.147409	-0.026662	-0.000258
C80	C	0.480743	0.306671	0.333075
C81	C	0.814076	0.640004	0.666408
C82	C	0.175298	-0.090835	-0.000267
C83	C	0.508631	0.242498	0.333066
C84	C	0.841964	0.575832	0.666400
C85	C	0.829972	0.034634	-0.000211
C86	C	1.163305	0.367967	0.333123
C87	C	1.496638	0.701300	0.666456
C88	C	0.828831	0.112138	-0.000204
C89	C	1.162164	0.445471	0.333129
C90	C	1.495498	0.778805	0.666463
C91	C	0.952151	-0.087546	-0.000260
C92	C	1.285485	0.245787	0.333073
C93	C	1.618818	0.579121	0.666407
C94	C	1.029656	-0.088687	-0.000285
C95	C	1.362989	0.244647	0.333048
C96	C	1.696322	0.577980	0.666382
C97	C	0.818997	-0.220700	-0.000244
C98	C	1.152331	0.112634	0.333090
C99	C	1.485664	0.445967	0.666423
C100	C	0.820138	-0.298204	-0.000255
C101	C	1.153471	0.035129	0.333078
C102	C	1.486805	0.368462	0.666411
N103	N	0.824463	-0.093025	0.178937
N104	N	1.157796	0.240309	0.512270
N105	N	1.491130	0.573642	0.845603
C106	C	0.891922	0.157062	-0.000216
C107	C	1.225255	0.490395	0.333117
C108	C	1.558589	0.823729	0.666451
C109	C	0.890850	0.229886	-0.000228
C110	C	1.224184	0.563219	0.333105
C111	C	1.557517	0.896552	0.666439
C112	C	0.826684	0.257782	-0.000212
C113	C	1.160017	0.591116	0.333121
C114	C	1.493351	0.924449	0.666454
C115	C	0.763585	0.212849	-0.000205
C116	C	1.096918	0.546182	0.333129
C117	C	1.430252	0.879515	0.666462
C118	C	0.764658	0.140026	-0.000200
C119	C	1.097992	0.473360	0.333133
C120	C	1.431325	0.806693	0.666466
N121	N	0.777630	0.365789	0.042645
N122	N	1.110964	0.699123	0.375978
N123	N	1.444297	1.032456	0.709311
N124	N	0.776615	0.434968	0.042642
N125	N	1.109948	0.768301	0.375976
N126	N	1.443282	1.101635	0.709309
C127	C	0.823446	0.477191	-0.000227
C128	C	1.156779	0.810524	0.333106
C129	C	1.490113	1.143858	0.666440
N130	N	0.871341	0.447624	-0.043084
N131	N	1.204675	0.780957	0.290249
N132	N	1.538008	1.114290	0.623582
N133	N	0.872359	0.378439	-0.043079
N134	N	1.205692	0.711772	0.290255
N135	N	1.539026	1.045106	0.623588
C136	C	0.825513	0.336745	-0.000218
C137	C	1.158846	0.670078	0.333116
C138	C	1.492180	1.003412	0.666449
C139	C	0.885379	0.601079	-0.000253
C140	C	1.218712	0.934413	0.333080
C141	C	1.552046	1.267746	0.666414
C142	C	0.884305	0.673904	-0.000270
C143	C	1.217638	1.007238	0.333064
C144	C	1.550971	1.340571	0.666397
C145	C	0.757038	0.656865	-0.000239
C146	C	1.090371	0.990199	0.333095
C147	C	1.423704	1.323532	0.666428
C148	C	0.758114	0.584042	-0.000230
C149	C	1.091447	0.917376	0.333104
C150	C	1.424781	1.250709	0.666437
C151	C	0.822287	0.556154	-0.000233
C152	C	1.155620	0.889487	0.333100
C153	C	1.488953	1.222821	0.666433
N154	N	0.824512	-0.093036	-0.179390
N155	N	1.157845	0.240297	0.153944
N156	N	1.491178	0.573631	0.487277
C157	C	0.872089	-0.045437	0.218541
C158	C	1.205423	0.287897	0.551875
C159	C	1.538756	0.621230	0.885208
C160	C	0.872093	-0.045433	0.297789
C161	C	1.205427	0.287900	0.631122
C162	C	1.538760	0.621233	0.964455
C163	C	0.824478	-0.093030	0.337429
C164	C	1.157811	0.240303	0.670762
C165	C	1.491144	0.573637	1.004096
C166	C	0.776842	-0.140621	0.297815
C167	C	1.110176	0.192712	0.631148
C168	C	1.443509	0.526045	0.964482
C169	C	0.776835	-0.140619	0.218569
C170	C	1.110168	0.192715	0.551902
C171	C	1.443502	0.526048	0.885236
N172	N	0.815401	-0.154837	0.461841
N173	N	1.148735	0.178496	0.795174
N174	N	1.482068	0.511829	1.128508
N175	N	0.815413	-0.154837	0.537121
N176	N	1.148746	0.178496	0.870455
N177	N	1.482079	0.511829	1.203788
C178	C	0.824496	-0.093040	0.576193
C179	C	1.157829	0.240294	0.909526
C180	C	1.491163	0.573627	1.242860
N181	N	0.833582	-0.031239	0.537140
N182	N	1.166915	0.302094	0.870474
N183	N	1.500248	0.635427	1.203807
N184	N	0.833574	-0.031240	0.461853
N185	N	1.166907	0.302094	0.795186
N186	N	1.500241	0.635427	1.128520
C187	C	0.824480	-0.093038	0.423358
C188	C	1.157813	0.240296	0.756691
C189	C	1.491147	0.573629	1.090025
C190	C	0.872130	-0.045444	0.701727
C191	C	1.205463	0.287889	1.035060
C192	C	1.538796	0.621223	1.368393
C193	C	0.872129	-0.045440	0.780976
C194	C	1.205462	0.287894	1.114309
C195	C	1.538795	0.621227	1.447642
C196	C	0.776881	-0.140634	0.781000
C197	C	1.110214	0.192699	1.114334
C198	C	1.443548	0.526033	1.447667
C199	C	0.776878	-0.140632	0.701753
C200	C	1.110212	0.192701	1.035086
C201	C	1.443545	0.526034	1.368420
C202	C	0.824506	-0.093038	0.662121
C203	C	1.157840	0.240295	0.995454
C204	C	1.491173	0.573629	1.328787
H205	H	0.051874	0.026659	-0.000319
H206	H	0.385207	0.359992	0.333014
H207	H	0.718540	0.693326	0.666348
H208	H	0.711340	0.235567	-0.000194
H209	H	1.044674	0.568900	0.333140
H210	H	1.378007	0.902233	0.666473
Br211	Br	0.168225	-0.241017	-0.000286
Br212	Br	0.501559	0.092317	0.333047
Br213	Br	0.834892	0.425650	0.666381
H214	H	0.910878	-0.006680	0.330041
H215	H	1.244211	0.326653	0.663374
H216	H	1.577544	0.659987	0.996707
Br217	Br	0.712215	-0.205213	0.351609
Br218	Br	1.045548	0.128121	0.684943
Br219	Br	1.378882	0.461454	1.018276
Br220	Br	0.712194	-0.205206	0.164815
Br221	Br	1.045527	0.128127	0.498149
Br222	Br	1.378860	0.461460	0.831482
H223	H	0.910909	-0.006688	0.669457
H224	H	1.244242	0.326645	1.002790
H225	H	1.577576	0.659979	1.336124
H226	H	0.495885	0.020111	-0.000194
H227	H	0.829218	0.353444	0.333139
H228	H	1.162552	0.686778	0.666472
H229	H	0.937632	0.578372	-0.000259
H230	H	1.270966	0.911705	0.333074
H231	H	1.604299	1.245038	0.666407
H232	H	0.910910	-0.006684	0.813222
H233	H	1.244243	0.326649	1.146556
H234	H	1.577576	0.659982	1.479889
Br235	Br	0.612235	-0.247561	-0.000205
Br236	Br	0.945568	0.085772	0.333128
Br237	Br	1.278902	0.419106	0.666462
Br238	Br	0.672486	0.523070	-0.000212
Br239	Br	1.005819	0.856403	0.333121
Br240	Br	1.339152	1.189736	0.666454
H241	H	0.628003	0.018171	-0.000150
H242	H	0.961336	0.351504	0.333184
H243	H	1.294670	0.684838	0.666517
H244	H	0.910869	-0.006681	0.186275
H245	H	1.244202	0.326652	0.519608
H246	H	1.577536	0.659985	0.852942
H247	H	0.738099	-0.179386	0.669505
H248	H	1.071433	0.153948	1.002838
H249	H	1.404766	0.487281	1.336172
H250	H	0.183988	0.024713	-0.000246
H251	H	0.517321	0.358046	0.333087
H252	H	0.850654	0.691380	0.666420
Br253	Br	0.440585	-0.245028	-0.000225
Br254	Br	0.773919	0.088305	0.333108
Br255	Br	1.107252	0.421639	0.666441
Br256	Br	0.712252	-0.205222	0.834791
Br257	Br	1.045585	0.128111	1.168125
Br258	Br	1.378918	0.461444	1.501458
Br259	Br	0.976479	0.290866	-0.000248
Br260	Br	1.309813	0.624199	0.333086
Br261	Br	1.643146	0.957533	0.666419
Br262	Br	-0.003424	-0.238485	-0.000304
Br263	Br	0.329910	0.094849	0.333030
Br264	Br	0.663243	0.428182	0.666363
H265	H	0.944176	0.134360	-0.000222
H266	H	1.277509	0.467694	0.333112
H267	H	1.610843	0.801027	0.666445
H268	H	0.713281	0.103448	-0.000190
H269	H	1.046614	0.436782	0.333143
H270	H	1.379947	0.770115	0.666476
Br271	Br	0.669953	0.694717	-0.000225
Br272	Br	1.003287	1.028050	0.333108
Br273	Br	1.336620	1.361383	0.666441
H274	H	0.935683	0.710481	-0.000284
H275	H	1.269017	1.043815	0.333050
H276	H	1.602350	1.377148	0.666383
