data_functionalizedCrystal
_audit_creation_method	'MofGen! by Chris Wilmer'
_symmetry_space_group_name_H-M	'P1'
_symmetry_Int_Tables_number	1
_symmetry_cell_setting	triclinic
loop_
_symmetry_equiv_pos_as_xyz
  x,y,z
_cell_length_a	13.897449
_cell_length_b	12.594516
_cell_length_c	13.897441
_cell_angle_alpha	90.028053
_cell_angle_beta	90.020733
_cell_angle_gamma	90.013095
loop_
_atom_site_label
_atom_site_type_symbol
_atom_site_fract_x
_atom_site_fract_y
_atom_site_fract_z
Zn1	Zn	1.474742	-0.423672	0.545398
Zn2	Zn	1.474653	-0.601683	0.384107
Zn3	Zn	1.313431	-0.423722	0.384117
Zn4	Zn	1.313429	-0.601613	0.545359
O5	O	1.394064	-0.512672	0.464745
O6	O	1.609712	-0.447293	0.524015
O7	O	1.453229	-0.578126	0.249126
O8	O	1.334868	-0.274770	0.405531
O9	O	1.609646	-0.578077	0.405515
O10	O	1.453382	-0.274733	0.524024
O11	O	1.334781	-0.447380	0.249134
O12	O	1.178449	-0.447312	0.405494
O13	O	1.334865	-0.577958	0.680346
O14	O	1.178448	-0.578007	0.523958
O15	O	1.453380	-0.447226	0.680375
O16	O	1.453228	-0.750619	0.405477
O17	O	1.334778	-0.750568	0.523949
C18	C	1.143449	-0.512658	0.464723
C19	C	1.036236	-0.512678	0.464737
C20	C	1.394019	-0.789213	0.464729
C21	C	1.394088	-0.907519	0.464754
C22	C	0.839940	-0.512681	0.464762
C23	C	0.949173	-0.512676	0.464745
C24	C	1.458588	-0.976761	0.400386
C25	C	1.482161	-1.047457	0.488426
C26	C	1.370635	-1.047622	0.376769
C27	C	1.417707	-0.976656	0.552841
C28	C	1.306140	-0.976815	0.441124
C29	C	1.329680	-1.047479	0.529225
C30	C	1.645657	-0.512687	0.464768
C31	C	1.752871	-0.512694	0.464778
C32	C	1.394132	-0.512578	0.716338
C33	C	1.394161	-0.512538	0.823552
C34	C	1.394135	-0.235052	0.464783
C35	C	1.394165	-0.116746	0.464799
C36	C	1.394051	-0.512689	0.214131
C37	C	1.394209	-0.512430	0.106918
C38	C	1.394188	-0.512466	1.019848
C39	C	1.394170	-0.512509	0.910615
H40	H	1.513142	-0.945709	0.346001
C41	C	1.607841	-1.051943	0.606947
C42	C	1.582616	-1.089330	0.515447
H43	H	1.669863	-1.077780	0.623620
H44	H	1.562122	-1.076167	0.652739
H45	H	1.608659	-0.976525	0.606531
H46	H	1.581791	-1.164749	0.515865
H47	H	1.628346	-1.065113	0.469643
C48	C	1.343292	-1.200868	0.277612
C49	C	1.343808	-1.089701	0.276298
H50	H	1.326742	-1.226841	0.215582
H51	H	1.297432	-1.225072	0.323270
H52	H	1.405360	-1.226081	0.294860
H53	H	1.281738	-1.064488	0.259057
H54	H	1.389671	-1.065487	0.230625
H55	H	1.231752	-0.945760	0.421085
C56	C	1.444413	-0.823592	0.652395
C57	C	1.444656	-0.934764	0.653342
H58	H	1.461058	-0.797731	0.714437
H59	H	1.382111	-0.798825	0.635498
H60	H	1.489918	-0.798825	0.606615
H61	H	1.399145	-0.959531	0.699117
H62	H	1.506967	-0.959542	0.670251
H63	H	1.275168	-1.078334	0.583742
