data_functionalizedCrystal
_audit_creation_method	'MofGen! by Chris Wilmer'
_symmetry_space_group_name_H-M	'P1'
_symmetry_Int_Tables_number	1
_symmetry_cell_setting	triclinic
loop_
_symmetry_equiv_pos_as_xyz
  x,y,z
_cell_length_a	15.995280
_cell_length_b	19.188924
_cell_length_c	17.666332
_cell_angle_alpha	90.008552
_cell_angle_beta	89.989927
_cell_angle_gamma	96.697219
loop_
_atom_site_label
_atom_site_type_symbol
_atom_site_fract_x
_atom_site_fract_y
_atom_site_fract_z
O1	O	-1.110697	0.089764	0.062964
O2	O	-0.777363	0.423097	0.396298
O3	O	-0.444030	0.756430	0.729631
O4	O	-0.866872	0.100928	0.062964
O5	O	-0.533539	0.434262	0.396297
O6	O	-0.200205	0.767595	0.729630
O7	O	-0.995824	-0.006294	0.062955
O8	O	-0.662490	0.327040	0.396288
O9	O	-0.329157	0.660373	0.729622
O10	O	-0.981745	0.196985	0.062973
O11	O	-0.648412	0.530319	0.396306
O12	O	-0.315078	0.863652	0.729640
O13	O	-0.995801	-0.006299	-0.062942
O14	O	-0.662468	0.327034	0.270392
O15	O	-0.329134	0.660367	0.603725
O16	O	-0.866850	0.100923	-0.062933
O17	O	-0.533516	0.434256	0.270400
O18	O	-0.200183	0.767589	0.603733
O19	O	-1.110674	0.089758	-0.062932
O20	O	-0.777341	0.423091	0.270401
O21	O	-0.444007	0.756424	0.603734
Cu22	Cu	-0.988760	0.095340	-0.074428
Cu23	Cu	-0.655426	0.428673	0.258905
Cu24	Cu	-0.322093	0.762006	0.592239
Cu25	Cu	-0.988786	0.095346	0.074459
Cu26	Cu	-0.655453	0.428680	0.407793
Cu27	Cu	-0.322120	0.762013	0.741126
O28	O	-0.981723	0.196980	-0.062924
O29	O	-0.648389	0.530313	0.270409
O30	O	-0.315056	0.863646	0.603743
C31	C	-0.835667	0.100473	0.000015
C32	C	-0.502333	0.433806	0.333348
C33	C	-0.169000	0.767139	0.666682
C34	C	-0.742718	0.099115	0.000014
C35	C	-0.409385	0.432448	0.333348
C36	C	-0.076052	0.765781	0.666681
C37	C	-0.404996	0.094123	0.000025
C38	C	-0.071663	0.427456	0.333358
C39	C	0.261670	0.760790	0.666692
C40	C	-0.428023	0.171509	0.000313
C41	C	-0.094690	0.504842	0.333646
C42	C	0.238644	0.838175	0.666979
C43	C	-0.524694	0.172976	0.000025
C44	C	-0.191360	0.506309	0.333358
C45	C	0.141973	0.839643	0.666692
C46	C	-0.572544	0.096600	0.000020
C47	C	-0.239211	0.429933	0.333353
C48	C	0.094123	0.763267	0.666687
C49	C	-0.543572	0.057908	-0.071874
C50	C	-0.210239	0.391241	0.261460
C51	C	0.123095	0.724575	0.594793
C52	C	-0.446784	0.056980	-0.071930
C53	C	-0.113451	0.390313	0.261403
C54	C	0.219882	0.723647	0.594737
C55	C	-0.446960	0.055406	0.071238
C56	C	-0.113627	0.388740	0.404571
C57	C	0.219706	0.722073	0.737905
C58	C	-0.543443	0.058271	0.072184
C59	C	-0.210110	0.391604	0.405518
C60	C	0.123224	0.724937	0.738851
C61	C	-0.667235	0.097996	0.000015
C62	C	-0.333902	0.431329	0.333348
C63	C	-0.000569	0.764662	0.666682
C64	C	-0.310305	0.092725	0.000025
C65	C	0.023028	0.426058	0.333358
C66	C	0.356362	0.759392	0.666692
C67	C	-0.995357	-0.032309	0.000006
C68	C	-0.662024	0.301025	0.333339
C69	C	-0.328691	0.634358	0.666673
C70	C	-0.993992	-0.109817	0.000004
C71	C	-0.660658	0.223517	0.333337
C72	C	-0.327325	0.556850	0.666671
C73	C	-0.993367	-0.146214	0.068630
C74	C	-0.660033	0.187119	0.401964
C75	C	-0.326700	0.520453	0.735297
C76	C	-0.992071	-0.219040	0.068636
C77	C	-0.658738	0.114294	0.401970
C78	C	-0.325405	0.447627	0.735303
C79	C	-0.991418	-0.255467	0.000012
C80	C	-0.658085	0.077866	0.333345
C81	C	-0.324752	0.411200	0.666678
C82	C	-0.992039	-0.219061	-0.068624
C83	C	-0.658705	0.114273	0.264709
C84	C	-0.325372	0.447606	0.598043
C85	C	-0.993325	-0.146235	-0.068628
C86	C	-0.659992	0.187098	0.264706
C87	C	-0.326659	0.520431	0.598039
N88	N	-1.037039	-0.375026	-0.051064
N89	N	-0.703705	-0.041693	0.282269
N90	N	-0.370372	0.291641	0.615603
N91	N	-1.035818	-0.444207	-0.051056
N92	N	-0.702485	-0.110874	0.282278
N93	N	-0.369151	0.222459	0.615611
C94	C	-0.987540	-0.474885	0.000019
C95	C	-0.654207	-0.141552	0.333352
C96	C	-0.320873	0.191781	0.666686
N97	N	-0.940539	-0.433770	0.051096
N98	N	-0.607205	-0.100437	0.384430
N99	N	-0.273872	0.232897	0.717763
N100	N	-0.941763	-0.364583	0.051090
N101	N	-0.608430	-0.031250	0.384424
N102	N	-0.275096	0.302084	0.717757
C103	C	-0.990023	-0.334434	0.000008
C104	C	-0.656689	-0.001101	0.333341
C105	C	-0.323356	0.332233	0.666675
C106	C	-0.985509	-0.590248	0.068656
C107	C	-0.652176	-0.256915	0.401990
C108	C	-0.318843	0.076418	0.735323
C109	C	-0.984209	-0.663075	0.068659
C110	C	-0.650876	-0.329742	0.401993
C111	C	-0.317542	0.003592	0.735326
C112	C	-0.984185	-0.663095	-0.068603
C113	C	-0.650851	-0.329762	0.264730
C114	C	-0.317518	0.003571	0.598064
C115	C	-0.985477	-0.590269	-0.068604
C116	C	-0.652143	-0.256936	0.264729
C117	C	-0.318810	0.076397	0.598063
C118	C	-0.986143	-0.553851	0.000028
C119	C	-0.652809	-0.220517	0.333361
C120	C	-0.319476	0.112816	0.666695
C121	C	-0.141878	0.090223	0.000020
C122	C	0.191455	0.423556	0.333353
C123	C	0.524789	0.756889	0.666686
C124	C	-0.234822	0.091608	0.000031
C125	C	0.098511	0.424941	0.333364
C126	C	0.431845	0.758275	0.666697
C127	C	-0.982189	0.222995	0.000027
C128	C	-0.648855	0.556328	0.333360
C129	C	-0.315522	0.889661	0.666694
C130	C	-0.983554	0.300503	0.000034
C131	C	-0.650221	0.633836	0.333367
C132	C	-0.316888	0.967169	0.666701
N133	N	-0.988747	0.095334	-0.179148
N134	N	-0.655414	0.428668	0.154186
N135	N	-0.322080	0.762001	0.487519
C136	C	-1.045865	0.047880	-0.218761
C137	C	-0.712532	0.381213	0.114572
C138	C	-0.379199	0.714547	0.447906
C139	C	-1.045870	0.047876	-0.298009
C140	C	-0.712537	0.381210	0.035325
C141	C	-0.379203	0.714543	0.368658
C142	C	-0.988765	0.095340	-0.337640
C143	C	-0.655431	0.428673	-0.004306
C144	C	-0.322098	0.762006	0.329027
C145	C	-0.931636	0.142798	-0.298017
C146	C	-0.598303	0.476131	0.035317
C147	C	-0.264969	0.809465	0.368650
C148	C	-0.931627	0.142795	-0.218771
C149	C	-0.598294	0.476129	0.114563
C150	C	-0.264960	0.809462	0.447896
N151	N	-0.977878	0.157122	-0.462053
N152	N	-0.644545	0.490455	-0.128720
N153	N	-0.311211	0.823789	0.204614
N154	N	-0.977892	0.157122	-0.537333
N155	N	-0.644558	0.490455	-0.204000
N156	N	-0.311225	0.823789	0.129333
C157	C	-0.988787	0.095350	-0.576404
C158	C	-0.655454	0.428683	-0.243070
C159	C	-0.322120	0.762016	0.090263
N160	N	-0.999685	0.033575	-0.537350
N161	N	-0.666351	0.366908	-0.204016
N162	N	-0.333018	0.700241	0.129317
N163	N	-0.999675	0.033575	-0.462062
N164	N	-0.666342	0.366908	-0.128729
N165	N	-0.333009	0.700242	0.204604
C166	C	-0.988768	0.095348	-0.423569
C167	C	-0.655434	0.428681	-0.090236
C168	C	-0.322101	0.762014	0.243098
C169	C	-1.045913	0.047887	-0.701947
C170	C	-0.712580	0.381221	-0.368613
C171	C	-0.379247	0.714554	-0.035280
C172	C	-1.045912	0.047883	-0.781196
C173	C	-0.712579	0.381216	-0.447862
C174	C	-0.379246	0.714550	-0.114529
C175	C	-0.931682	0.142811	-0.781202
C176	C	-0.598349	0.476144	-0.447869
C177	C	-0.265016	0.809477	-0.114535
C178	C	-0.931679	0.142809	-0.701955
C179	C	-0.598346	0.476142	-0.368621
C180	C	-0.265013	0.809476	-0.035288
C181	C	-0.988799	0.095348	-0.662332
C182	C	-0.655466	0.428681	-0.328998
C183	C	-0.322133	0.762015	0.004335
N184	N	-0.988806	0.095346	0.179179
N185	N	-0.655472	0.428679	0.512512
N186	N	-0.322139	0.762013	0.845845
H187	H	-0.543618	0.203274	0.051563
H188	H	-0.210284	0.536607	0.384897
H189	H	0.123049	0.869940	0.718230
H190	H	-0.993831	-0.116601	-0.124513
H191	H	-0.660498	0.216733	0.208820
H192	H	-0.327164	0.550066	0.542153
H193	H	-0.419859	0.083773	-0.125669
H194	H	-0.086525	0.417107	0.207665
H195	H	0.246808	0.750440	0.540998
Br196	Br	-0.854129	0.207208	-0.351799
Br197	Br	-0.520796	0.540542	-0.018465
Br198	Br	-0.187462	0.873875	0.314868
H199	H	-0.983696	-0.692708	0.124545
H200	H	-0.650362	-0.359375	0.457879
H201	H	-0.317029	-0.026041	0.791212
Br202	Br	-0.991142	-0.268495	-0.161758
Br203	Br	-0.657808	0.064839	0.171575
Br204	Br	-0.324475	0.398172	0.504908
Br205	Br	-0.422874	-0.037584	-0.077426
Br206	Br	-0.089541	0.295749	0.255907
Br207	Br	0.243792	0.629082	0.589240
H208	H	-0.885172	0.181454	-0.669699
H209	H	-0.551838	0.514787	-0.336366
H210	H	-0.218505	0.848120	-0.003032
Br211	Br	-0.983290	-0.712524	-0.161739
Br212	Br	-0.649956	-0.379191	0.171595
Br213	Br	-0.316623	-0.045857	0.504928
H214	H	-0.985993	-0.560635	-0.124487
H215	H	-0.652659	-0.227302	0.208846
H216	H	-0.319326	0.106031	0.542180
H217	H	-0.399926	0.201340	0.051872
H218	H	-0.066593	0.534674	0.385205
H219	H	0.266741	0.868007	0.718538
Br220	Br	-0.574276	0.105200	0.160837
Br221	Br	-0.240943	0.438533	0.494170
Br222	Br	0.092390	0.771866	0.827503
H223	H	-0.885114	0.181439	-0.186517
H224	H	-0.551780	0.514773	0.146817
H225	H	-0.218447	0.848106	0.480150
H226	H	-0.576620	0.002524	0.076523
H227	H	-0.243287	0.335858	0.409856
H228	H	0.090047	0.669191	0.743190
H229	H	-0.398885	0.201170	-0.050951
H230	H	-0.065552	0.534503	0.282382
H231	H	0.267781	0.867837	0.615715
H232	H	-0.542975	0.203456	-0.051594
H233	H	-0.209642	0.536789	0.281739
H234	H	0.123691	0.870123	0.615072
Br235	Br	-0.423997	-0.039534	0.072040
Br236	Br	-0.090663	0.293799	0.405373
Br237	Br	0.242670	0.627133	0.738707
H238	H	-0.986047	-0.560594	0.124540
H239	H	-0.652713	-0.227261	0.457874
H240	H	-0.319380	0.106072	0.791207
H241	H	-1.092422	0.009240	-0.669684
H242	H	-0.759088	0.342573	-0.336351
H243	H	-0.425755	0.675906	-0.003018
Br244	Br	-0.597019	-0.035771	-0.076334
Br245	Br	-0.263686	0.297562	0.256999
Br246	Br	0.069647	0.630895	0.590333
Br247	Br	-1.123380	-0.016532	-0.164986
Br248	Br	-0.790047	0.316802	0.168347
Br249	Br	-0.456713	0.650135	0.501680
H250	H	-1.092422	0.009236	-0.813450
H251	H	-0.759089	0.342569	-0.480116
H252	H	-0.425756	0.675903	-0.146783
Br253	Br	-1.123393	-0.016533	-0.351780
Br254	Br	-0.790060	0.316801	-0.018446
Br255	Br	-0.456726	0.650134	0.314887
Br256	Br	-0.854173	0.207218	-0.834981
Br257	Br	-0.520839	0.540552	-0.501647
Br258	Br	-0.187506	0.873885	-0.168314
Br259	Br	-0.399623	0.095733	0.162062
Br260	Br	-0.066290	0.429066	0.495395
Br261	Br	0.267044	0.762400	0.828729
Br262	Br	-0.576821	0.102681	-0.161047
Br263	Br	-0.243487	0.436014	0.172286
Br264	Br	0.089846	0.769347	0.505619
Br265	Br	-0.994267	-0.096791	0.161773
Br266	Br	-0.660934	0.236542	0.495106
Br267	Br	-0.327600	0.569876	0.828440
Br268	Br	-0.991220	-0.268447	0.161779
Br269	Br	-0.657886	0.064887	0.495112
Br270	Br	-0.324553	0.398220	0.828445
