data_functionalizedCrystal
_audit_creation_method	'MofGen! by Chris Wilmer'
_symmetry_space_group_name_H-M	'P1'
_symmetry_Int_Tables_number	1
_symmetry_cell_setting	triclinic
loop_
_symmetry_equiv_pos_as_xyz
  x,y,z
_cell_length_a	10.654545
_cell_length_b	17.699092
_cell_length_c	9.730223
_cell_angle_alpha	89.997288
_cell_angle_beta	89.997167
_cell_angle_gamma	83.884723
loop_
_atom_site_label
_atom_site_type_symbol
_atom_site_fract_x
_atom_site_fract_y
_atom_site_fract_z
O1	O	1.665987	0.106286	-0.114271
O2	O	1.300331	0.116417	-0.114276
O3	O	1.493484	0.001228	-0.114270
O4	O	1.472834	0.221475	-0.114276
O5	O	1.493472	0.001225	0.114310
O6	O	1.300319	0.116414	0.114304
O7	O	1.665975	0.106283	0.114309
Zn8	Zn	1.483145	0.111348	0.150599
Zn9	Zn	1.483161	0.111352	-0.150565
O10	O	1.472821	0.221472	0.114303
C11	C	1.253540	0.115672	0.000013
C12	C	1.114135	0.113449	0.000011
C13	C	1.048642	0.112400	0.124611
C14	C	0.917659	0.110299	0.124611
C15	C	0.917673	0.110297	-0.124599
C16	C	1.048655	0.112393	-0.124598
C17	C	1.492736	-0.026975	0.000018
C18	C	1.490511	-0.111007	0.000012
C19	C	1.489476	-0.150479	-0.124589
C20	C	1.487377	-0.229435	-0.124591
C21	C	1.486323	-0.268919	0.000010
C22	C	1.487355	-0.229440	0.124620
C23	C	1.489445	-0.150485	0.124620
C24	C	1.478925	-0.547859	0.124622
C25	C	1.476839	-0.626820	0.124612
C26	C	1.476858	-0.626809	-0.124589
C27	C	1.478947	-0.547854	-0.124589
C28	C	1.479973	-0.508382	0.000020
C29	C	1.482246	-0.422769	0.000021
C30	C	1.484058	-0.354531	0.000011
C31	C	1.712766	0.107027	0.000017
C32	C	1.852171	0.109251	0.000010
C33	C	1.473569	0.249675	0.000013
C34	C	1.475794	0.333707	0.000010
N35	N	1.483143	0.111345	0.356135
N36	N	1.483173	0.111349	-0.356102
C37	C	1.568700	0.060361	0.428064
C38	C	1.568712	0.060361	0.571947
C39	C	1.397607	0.162336	0.571960
C40	C	1.397589	0.162331	0.428080
H41	H	1.101981	0.113245	-0.226068
H42	H	1.479785	-0.515733	0.226086
H43	H	1.638361	0.018843	0.369490
Cl44	Cl	1.480278	-0.498223	-0.281235
Cl45	Cl	1.290018	0.226427	0.337646
H46	H	1.490341	-0.118338	-0.226053
Cl47	Cl	1.676272	-0.003737	0.662367
Cl48	Cl	1.475564	-0.676436	-0.281244
Cl49	Cl	0.835330	0.108982	0.281258
Cl50	Cl	1.130957	0.113723	0.281262
Cl51	Cl	1.290063	0.226433	0.662410
H52	H	0.864343	0.109439	-0.226052
Cl53	Cl	1.486015	-0.279076	0.281262
H54	H	1.486539	-0.261571	-0.226053
Cl55	Cl	1.475511	-0.676455	0.281265
H56	H	1.490270	-0.118346	0.226083
