data_functionalizedCrystal
_audit_creation_method	'MofGen! by Chris Wilmer'
_symmetry_space_group_name_H-M	'P1'
_symmetry_Int_Tables_number	1
_symmetry_cell_setting	triclinic
loop_
_symmetry_equiv_pos_as_xyz
  x,y,z
_cell_length_a	10.654545
_cell_length_b	10.654550
_cell_length_c	9.130313
_cell_angle_alpha	89.996647
_cell_angle_beta	89.996934
_cell_angle_gamma	84.483991
loop_
_atom_site_label
_atom_site_type_symbol
_atom_site_fract_x
_atom_site_fract_y
_atom_site_fract_z
O1	O	1.667843	0.176372	-0.121781
O2	O	1.302364	0.193184	-0.121786
O3	O	1.493506	0.002038	-0.121778
O4	O	1.476700	0.367517	-0.121789
O5	O	1.493493	0.002033	0.121821
O6	O	1.302350	0.193178	0.121812
O7	O	1.667830	0.176366	0.121818
Cu8	Cu	1.485089	0.184772	0.144058
Cu9	Cu	1.485104	0.184778	-0.144026
O10	O	1.476687	0.367511	0.121810
C11	C	1.255559	0.191948	0.000012
C12	C	1.116115	0.188258	0.000010
C13	C	1.050604	0.186518	0.132797
C14	C	0.919584	0.183030	0.132797
C15	C	0.919599	0.183028	-0.132788
C16	C	1.050617	0.186507	-0.132787
C17	C	1.492266	-0.044762	0.000020
C18	C	1.488574	-0.184206	0.000014
C19	C	1.601115	-0.263693	0.000021
C20	C	1.597639	-0.394714	0.000010
C21	C	1.369069	-0.366747	-0.000006
C22	C	1.372547	-0.235729	-0.000006
C23	C	1.733079	-0.279841	0.000036
C24	C	1.729602	-0.410862	0.000026
C25	C	1.714634	0.177602	0.000016
C26	C	1.854078	0.181292	0.000009
C27	C	1.477927	0.414312	0.000009
C28	C	1.481619	0.553755	0.000004
N29	N	1.485087	0.184766	0.346680
N30	N	1.485116	0.184774	-0.346649
C31	C	1.569754	0.100163	0.423336
C32	C	1.569766	0.100163	0.576673
C33	C	1.400440	0.269381	0.576685
C34	C	1.400423	0.269374	0.423351
H35	H	1.103959	0.187920	-0.240924
H36	H	0.866254	0.181604	-0.240906
O37	O	1.114044	0.188145	0.261920
C38	C	1.100187	0.187838	0.525343
C39	C	1.028194	0.185970	0.379214
H40	H	1.030805	0.186107	0.620213
H41	H	1.172229	0.101707	0.532085
H42	H	1.150828	0.277184	0.531906
H43	H	0.977477	0.096682	0.372553
H44	H	0.956224	0.272161	0.372533
O45	O	1.776972	-0.465352	-0.125526
C46	C	1.736957	-0.590113	-0.337577
C47	C	1.683149	-0.528444	-0.195449
H48	H	1.661135	-0.641160	-0.394135
H49	H	1.768586	-0.514319	-0.413597
H50	H	1.821030	-0.660593	-0.310157
H51	H	1.599039	-0.457973	-0.222733
H52	H	1.651606	-0.604308	-0.119470
H53	H	1.280904	-0.171013	-0.000032
H54	H	1.274604	-0.408713	-0.000024
H55	H	1.331471	0.338268	0.360934
O56	O	1.794636	-0.245012	-0.121681
C57	C	1.903452	-0.313203	-0.343358
C58	C	1.833744	-0.352818	-0.205597
H59	H	1.935113	-0.400345	-0.411227
H60	H	1.837525	-0.245717	-0.411439
H61	H	1.989410	-0.264215	-0.309334
H62	H	1.747788	-0.401859	-0.239491
H63	H	1.899756	-0.420247	-0.137550
O64	O	1.782985	-0.237511	0.125731
C65	C	1.872893	-0.292147	0.362092
C66	C	1.816628	-0.340284	0.219698
H67	H	1.900085	-0.375211	0.438116
H68	H	1.960189	-0.242493	0.335226
H69	H	1.799967	-0.223074	0.418393
H70	H	1.889461	-0.409403	0.163328
H71	H	1.729307	-0.389864	0.246659
H72	H	1.779318	-0.452625	0.101971
H73	H	1.638708	0.031270	0.639082
H74	H	1.638690	0.031269	0.360914
O75	O	1.318084	0.351613	0.650939
C76	C	1.150179	0.519498	0.634765
C77	C	1.243361	0.426416	0.550496
H78	H	1.089759	0.580018	0.553594
H79	H	1.086898	0.464753	0.706533
H80	H	1.204969	0.582695	0.706572
H81	H	1.188675	0.363196	0.478610
H82	H	1.306643	0.481239	0.478821
H83	H	0.866250	0.181614	0.240925
