data_functionalizedCrystal
_audit_creation_method	'MofGen! by Chris Wilmer'
_symmetry_space_group_name_H-M	'P1'
_symmetry_Int_Tables_number	1
_symmetry_cell_setting	triclinic
loop_
_symmetry_equiv_pos_as_xyz
  x,y,z
_cell_length_a	29.019771
_cell_length_b	29.019011
_cell_length_c	29.015668
_cell_angle_alpha	60.004890
_cell_angle_beta	60.009825
_cell_angle_gamma	59.993818
loop_
_atom_site_label
_atom_site_type_symbol
_atom_site_fract_x
_atom_site_fract_y
_atom_site_fract_z
O1	O	0.063866	-0.673289	0.563007
O2	O	0.563866	-0.173289	1.063007
O3	O	0.024059	-0.524205	0.453633
O4	O	0.524059	-0.024205	0.953633
O5	O	0.118464	-0.618532	0.453552
O6	O	0.618464	-0.118532	0.953552
O7	O	-0.030540	-0.578962	0.563088
O8	O	0.469460	-0.078962	1.063088
O9	O	0.149785	-0.587215	0.484789
O10	O	0.649785	-0.087215	0.984789
O11	O	0.055379	-0.492888	0.484869
O12	O	0.555379	0.007112	0.984869
O13	O	0.095186	-0.641972	0.594244
O14	O	0.595186	-0.141972	1.094244
Cu15	Cu	0.078143	-0.564571	0.542409
Cu16	Cu	0.578143	-0.064571	1.042409
Cu17	Cu	0.041102	-0.601606	0.505468
Cu18	Cu	0.541102	-0.101606	1.005468
O19	O	0.000781	-0.547645	0.594325
O20	O	0.500781	-0.047645	1.094325
N21	N	0.104196	-0.538525	0.568394
N22	N	0.604196	-0.038525	1.068394
N23	N	0.015054	-0.627656	0.479483
N24	N	0.515054	-0.127656	0.979483
C25	C	0.143783	-0.499167	0.850823
C26	C	0.643783	0.000833	1.350823
C27	C	0.386758	-0.499111	0.607645
C28	C	0.886758	0.000889	1.107645
C29	C	0.143618	-0.499136	0.607763
C30	C	0.643618	0.000864	1.107763
C31	C	0.143598	-0.256029	0.607770
C32	C	0.643598	0.243971	1.107770
C33	C	0.182748	-0.373362	0.646852
C34	C	0.682748	0.126638	1.146852
C35	C	0.182758	-0.460025	0.646847
C36	C	0.682758	0.039975	1.146847
C37	C	0.204440	-0.438361	0.668500
C38	C	0.704440	0.061639	1.168500
C39	C	0.298958	-0.422064	0.618723
C40	C	0.798958	0.077936	1.118723
C41	C	0.358043	-0.441753	0.599006
C42	C	0.858043	0.058247	1.099006
C43	C	0.358069	-0.537354	0.635461
C44	C	0.858069	-0.037354	1.135461
C45	C	0.298985	-0.517664	0.655180
C46	C	0.798985	-0.017664	1.155180
C47	C	0.196983	-0.343808	0.588767
C48	C	0.696983	0.156192	1.088767
C49	C	0.177262	-0.284720	0.569090
C50	C	0.677262	0.215280	1.069090
C51	C	0.129075	-0.284743	0.665586
C52	C	0.629075	0.215257	1.165586
C53	C	0.148797	-0.343831	0.685263
C54	C	0.648797	0.156169	1.185263
C55	C	0.124666	-0.445760	0.661149
C56	C	0.624666	0.054240	1.161149
C57	C	0.104961	-0.465454	0.641458
C58	C	0.604961	0.034546	1.141458
C59	C	0.201435	-0.513678	0.593176
C60	C	0.701435	-0.013678	1.093176
C61	C	0.221143	-0.493984	0.612860
C62	C	0.721143	0.006016	1.112860
C63	C	0.124738	-0.445777	0.763064
C64	C	0.624738	0.054223	1.263064
C65	C	0.105085	-0.465488	0.822151
C66	C	0.605085	0.034512	1.322151
C67	C	0.201594	-0.513722	0.822097
C68	C	0.701594	-0.013722	1.322097
C69	C	0.221247	-0.494012	0.763009
C70	C	0.721247	0.005988	1.263009
C71	C	0.182817	-0.460038	0.733494
C72	C	0.682817	0.039962	1.233494
C73	C	0.269432	-0.460018	0.646809
C74	C	0.769432	0.039982	1.146809
C75	C	0.121399	-0.520450	0.915812
C76	C	0.621399	-0.020450	1.415812
C77	C	0.451745	-0.520012	0.585655
C78	C	0.951745	-0.020012	1.085655
C79	C	0.121177	-0.520429	0.586502
C80	C	0.621177	-0.020429	1.086502
C81	C	0.121544	-0.191035	0.586883
C82	C	0.621544	0.308965	1.086883
C83	C	-0.110592	-0.666601	0.440035
C84	C	0.389408	-0.166601	0.940035
C85	C	-0.023978	-0.666709	0.440231
C86	C	0.476022	-0.166709	0.940231
C87	C	-0.045598	-0.688342	0.418486
C88	C	0.454402	-0.188342	0.918486
C89	C	-0.061967	-0.782825	0.468184
C90	C	0.438033	-0.282825	0.968184
C91	C	-0.042323	-0.841914	0.487907
C92	C	0.457677	-0.341914	0.987907
C93	C	0.053280	-0.842025	0.451623
C94	C	0.553280	-0.342025	0.951623
C95	C	0.033634	-0.782937	0.431899
C96	C	0.533634	-0.282937	0.931899
C97	C	-0.140218	-0.680832	0.498102
C98	C	0.359782	-0.180832	0.998102
C99	C	-0.199302	-0.661065	0.517690
C100	C	0.300698	-0.161065	1.017690
C101	C	-0.199129	-0.612843	0.421140
C102	C	0.300871	-0.112843	0.921140
C103	C	-0.140045	-0.632610	0.401552
C104	C	0.359955	-0.132610	0.901552
C105	C	-0.038209	-0.608622	0.425941
C106	C	0.461791	-0.108622	0.925941
C107	C	-0.018555	-0.588961	0.445716
C108	C	0.481445	-0.088961	0.945716
C109	C	0.029562	-0.685470	0.494059
C110	C	0.529562	-0.185470	0.994059
C111	C	0.009908	-0.705133	0.474291
C112	C	0.509908	-0.205133	0.974291
C113	C	-0.038037	-0.608631	0.323917
C114	C	0.461963	-0.108631	0.823917
C115	C	-0.018247	-0.588973	0.264830
C116	C	0.481753	-0.088973	0.764830
C117	C	0.029955	-0.685489	0.264893
C118	C	0.529955	-0.185489	0.764893
C119	C	0.010165	-0.705145	0.323981
C120	C	0.510165	-0.205145	0.823981
C121	C	-0.023833	-0.666715	0.353492
C122	C	0.476167	-0.166715	0.853492
C123	C	-0.023990	-0.753339	0.440182
C124	C	0.476010	-0.253339	0.940182
N125	N	0.504925	-0.538487	0.568205
N126	N	1.004925	-0.038487	1.068205
O127	O	0.685342	-0.543679	0.433426
O128	O	1.185342	-0.043679	0.933426
O129	O	0.685533	-0.653395	0.582361
O130	O	1.185533	-0.153395	1.082361
O131	O	0.685457	-0.653145	0.487904
O132	O	1.185457	-0.153145	0.987904
O133	O	0.685418	-0.543929	0.527882
O134	O	1.185418	-0.043929	1.027882
O135	O	0.591592	-0.621921	0.519268
O136	O	1.091592	-0.121921	1.019268
O137	O	0.591667	-0.622171	0.613725
O138	O	1.091667	-0.122171	1.113725
O139	O	0.591477	-0.512455	0.464790
O140	O	1.091477	-0.012455	0.964790
Cu141	Cu	0.583001	-0.564462	0.542121
Cu142	Cu	1.083001	-0.064462	1.042121
Cu143	Cu	0.694008	-0.601388	0.505029
Cu144	Cu	1.194008	-0.101388	1.005029
O145	O	0.591553	-0.512705	0.559246
O146	O	1.091553	-0.012705	1.059246
N147	N	0.772084	-0.627363	0.478939
N148	N	1.272084	-0.127363	0.978939
N149	N	0.104168	-0.137853	0.568408
N150	N	0.604168	0.362147	1.068408
O151	O	-0.030538	0.042663	0.563097
O152	O	0.469462	0.542663	1.063097
O153	O	0.118403	0.042683	0.453379
O154	O	0.618403	0.542683	0.953379
O155	O	0.023918	0.042657	0.453664
O156	O	0.523918	0.542657	0.953664
O157	O	0.063947	0.042689	0.562813
O158	O	0.563947	0.542689	1.062813
O159	O	0.055242	-0.051215	0.484950
O160	O	0.555242	0.448785	0.984950
O161	O	0.149727	-0.051189	0.484666
O162	O	0.649727	0.448811	0.984666
O163	O	0.000787	-0.051210	0.594384
O164	O	0.500787	0.448790	1.094384
Cu165	Cu	0.078117	-0.059771	0.542381
Cu166	Cu	0.578117	0.440229	1.042381
Cu167	Cu	0.041072	0.051244	0.505382
Cu168	Cu	0.541072	0.551244	1.005382
O169	O	0.095272	-0.051184	0.594099
O170	O	0.595272	0.448816	1.094099
N171	N	0.015015	0.129326	0.479356
N172	N	0.515015	0.629326	0.979356
N173	N	0.104469	-0.538576	0.968995
N174	N	0.604469	-0.038576	1.468995
O175	O	0.099171	-0.673268	1.149499
O176	O	0.599171	-0.173268	1.649499
O177	O	-0.010519	-0.524279	1.149527
O178	O	0.489481	-0.024279	1.649527
O179	O	-0.010265	-0.618748	1.149494
O180	O	0.489735	-0.118748	1.649494
O181	O	0.098916	-0.578799	1.149533
O182	O	0.598916	-0.078799	1.649533
O183	O	0.021008	-0.587443	1.055625
O184	O	0.521008	-0.087443	1.555625
O185	O	0.020753	-0.492974	1.055659
O186	O	0.520753	0.007026	1.555659
O187	O	0.130444	-0.641963	1.055630
O188	O	0.630444	-0.141963	1.555630
Cu189	Cu	0.078454	-0.564610	1.047074
Cu190	Cu	0.578454	-0.064610	1.547074
Cu191	Cu	0.041470	-0.601632	1.158084
Cu192	Cu	0.541470	-0.101632	1.658084
O193	O	0.130189	-0.547494	1.055664
O194	O	0.630189	-0.047494	1.555664
N195	N	0.015455	-0.627672	1.236163
N196	N	0.515455	-0.127672	1.736163
C197	C	0.035988	-0.489761	0.454182
C198	C	0.535988	0.010239	0.954182
C199	C	0.152897	-0.606574	0.454082
C200	C	0.652897	-0.106574	0.954082
C201	C	0.083257	-0.676417	0.593694
C202	C	0.583257	-0.176417	1.093694
C203	C	-0.033653	-0.559604	0.593794
C204	C	0.466347	-0.059604	1.093794
C205	C	0.638623	-0.652892	0.616806
C206	C	1.138623	-0.152892	1.116806
C207	C	0.638531	-0.652583	0.499833
C208	C	1.138531	-0.152583	0.999833
C209	C	0.638384	-0.512957	0.430345
C210	C	1.138384	-0.012957	0.930345
C211	C	0.638480	-0.513267	0.547317
C212	C	1.138480	-0.013267	1.047317
C213	C	0.152789	-0.004135	0.453875
C214	C	0.652789	0.495865	0.953875
C215	C	0.035820	-0.004282	0.454266
C216	C	0.535820	0.495718	0.954266
C217	C	-0.033639	-0.004275	0.593849
C218	C	0.466361	0.495725	1.093849
C219	C	0.083370	-0.004245	0.593498
C220	C	0.583370	0.495755	1.093498
C221	C	-0.009989	-0.489856	1.102597
C222	C	0.490011	0.010144	1.602597
C223	C	-0.009667	-0.606839	1.102536
C224	C	0.490333	-0.106839	1.602536
C225	C	0.129914	-0.676386	1.102561
C226	C	0.629914	-0.176386	1.602561
C227	C	0.129599	-0.559396	1.102601
C228	C	0.629599	-0.059396	1.602601
H229	H	0.093440	-0.418108	0.739036
H230	H	0.593440	0.081892	1.239036
O231	O	-0.032443	-0.532539	0.431926
O232	O	0.467557	-0.032539	0.931926
C233	C	-0.077900	-0.454268	0.465826
C234	C	0.422100	0.045732	0.965826
C235	C	-0.062220	-0.518170	0.481525
C236	C	0.437780	-0.018170	0.981525
H237	H	-0.101967	-0.442632	0.505917
H238	H	0.398033	0.057368	1.005917
H239	H	-0.105523	-0.430159	0.438112
H240	H	0.394477	0.069841	0.938112
H241	H	-0.037777	-0.442709	0.441822
H242	H	0.462223	0.057291	0.941822
H243	H	-0.102312	-0.529780	0.505549
H244	H	0.397688	-0.029780	1.005549
H245	H	-0.034575	-0.542243	0.509213
H246	H	0.465425	-0.042243	1.009213
H247	H	0.195476	-0.003868	0.419344
H248	H	0.695476	0.496132	0.919344
O249	O	0.025888	-0.438719	0.413128
O250	O	0.525888	0.061281	0.913128
C251	C	0.020644	-0.388189	0.319119
C252	C	0.520644	0.111811	0.819119
C253	C	0.032108	-0.446029	0.365559
C254	C	0.532108	0.053971	0.865559
H255	H	0.025657	-0.394078	0.280652
H256	H	0.525657	0.105922	0.780652
H257	H	0.051928	-0.367838	0.306718
H258	H	0.551928	0.132162	0.806718
H259	H	-0.024186	-0.359822	0.335625
H260	H	0.475814	0.140178	0.835625
H261	H	0.076922	-0.474439	0.349092
H262	H	0.576922	0.025561	0.849092
H263	H	0.000789	-0.466335	0.377952
H264	H	0.500789	0.033665	0.877952
H265	H	0.163899	-0.550848	1.102605
H266	H	0.663899	-0.050848	1.602605
O267	O	0.203911	-0.616546	0.412973
O268	O	0.703911	-0.116546	0.912973
C269	C	0.261824	-0.579375	0.317832
C270	C	0.761824	-0.079375	0.817832
C271	C	0.204022	-0.568011	0.364333
C272	C	0.704022	-0.068011	0.864333
H273	H	0.261936	-0.540139	0.278499
H274	H	0.761936	-0.040139	0.778499
H275	H	0.270072	-0.616276	0.307189
H276	H	0.770072	-0.116276	0.807189
H277	H	0.296272	-0.590116	0.333401
H278	H	0.796272	-0.090116	0.833401
H279	H	0.169537	-0.557246	0.348802
H280	H	0.669537	-0.057246	0.848802
H281	H	0.195822	-0.531126	0.374969
H282	H	0.695822	-0.031126	0.874969
O283	O	0.093304	-0.727509	0.634697
O284	O	0.593304	-0.227509	1.134697
C285	C	0.066081	-0.810501	0.696324
C286	C	0.566081	-0.310501	1.196324
C287	C	0.054633	-0.752644	0.649900
C288	C	0.554633	-0.252644	1.149900
H289	H	0.034830	-0.830844	0.708622
H290	H	0.534830	-0.330844	1.208622
H291	H	0.060993	-0.804660	0.734852
H292	H	0.560993	-0.304660	1.234852
H293	H	0.110928	-0.838849	0.679836
H294	H	0.610928	-0.338849	1.179836
H295	H	0.009788	-0.724265	0.666336
H296	H	0.509788	-0.224265	1.166336
H297	H	0.059758	-0.758528	0.611381
H298	H	0.559758	-0.258528	1.111381
H299	H	0.057789	-0.453866	0.846219
H300	H	0.557789	0.046134	1.346219
H301	H	0.027247	-0.004286	0.419974
H302	H	0.527247	0.495714	0.919974
O303	O	0.638540	-0.472404	0.557561
O304	O	1.138540	0.027596	1.057561
C305	C	0.687198	-0.445428	0.582337
C306	C	1.187198	0.054572	1.082337
C307	C	0.687192	-0.491757	0.570763
C308	C	1.187192	0.008243	1.070763
H309	H	0.726534	-0.461053	0.593002
H310	H	1.226534	0.038947	1.093002
H311	H	0.647964	-0.434919	0.619329
H312	H	1.147964	0.065081	1.119329
H313	H	0.687114	-0.405993	0.543204
H314	H	1.187114	0.094007	1.043204
H315	H	0.687296	-0.531221	0.609863
H316	H	1.187296	-0.031221	1.109863
H317	H	0.726422	-0.502218	0.533749
H318	H	1.226422	-0.002218	1.033749
O319	O	-0.084709	-0.004247	0.634871
O320	O	0.415291	0.495753	1.134871
C321	C	-0.177683	-0.004279	0.661140
C322	C	0.322317	0.495721	1.161140
C323	C	-0.119875	-0.004305	0.614632
C324	C	0.380125	0.495695	1.114632
H325	H	-0.206126	-0.004339	0.644799
H326	H	0.293874	0.495661	1.144799
H327	H	-0.197982	0.035023	0.673432
H328	H	0.302018	0.535023	1.173432
H329	H	-0.171722	-0.043548	0.699641
H330	H	0.328278	0.456452	1.199641
H331	H	-0.125787	0.034937	0.576101
H332	H	0.374213	0.534937	1.076101
H333	H	-0.099596	-0.043633	0.602388
H334	H	0.400404	0.456367	1.102388
O335	O	-0.084730	-0.549445	0.634779
O336	O	0.415270	-0.049445	1.134779
C337	C	-0.177684	-0.482582	0.660868
C338	C	0.322316	0.017418	1.160868
C339	C	-0.119862	-0.494008	0.614407
C340	C	0.380138	0.005992	1.114407
H341	H	-0.206108	-0.437767	0.644411
H342	H	0.293892	0.062233	1.144411
H343	H	-0.171801	-0.487633	0.699356
H344	H	0.328199	0.012367	1.199356
H345	H	-0.197962	-0.513910	0.673222
H346	H	0.302038	-0.013910	1.173222
H347	H	-0.099552	-0.462690	0.602005
H348	H	0.400448	0.037310	1.102005
H349	H	-0.125781	-0.488977	0.575950
H350	H	0.374219	0.011023	1.075950
O351	O	0.638710	-0.693933	0.667858
O352	O	1.138710	-0.193933	1.167858
C353	C	0.638757	-0.720162	0.760832
C354	C	1.138757	-0.220162	1.260832
C355	C	0.638672	-0.673639	0.703038
C356	C	1.138672	-0.173639	1.203038
H357	H	0.638715	-0.703768	0.789295
H358	H	1.138715	-0.203768	1.289295
H359	H	0.678070	-0.758642	0.754908
H360	H	1.178070	-0.258642	1.254908
H361	H	0.599505	-0.732508	0.781092
H362	H	1.099505	-0.232508	1.281092
H363	H	0.677898	-0.661244	0.682746
H364	H	1.177898	-0.161244	1.182746
H365	H	0.599333	-0.635190	0.708999
H366	H	1.099333	-0.135190	1.208999
H367	H	0.164353	-0.719173	1.102545
H368	H	0.664353	-0.219173	1.602545
O369	O	0.638522	-0.693446	0.489546
O370	O	1.138522	-0.193446	0.989546
C371	C	0.638517	-0.719277	0.422488
C372	C	1.138517	-0.219277	0.922488
C373	C	0.638514	-0.672946	0.434066
C374	C	1.138514	-0.172946	0.934066
H375	H	0.638523	-0.702725	0.377629
H376	H	1.138523	-0.202725	0.877629
H377	H	0.599256	-0.731641	0.453719
H378	H	1.099256	-0.231641	0.953719
H379	H	0.677821	-0.757785	0.427534
H380	H	1.177821	-0.257785	0.927534
H381	H	0.599238	-0.634408	0.429012
H382	H	1.099238	-0.134408	0.929012
H383	H	0.677802	-0.660630	0.402836
H384	H	1.177802	-0.160630	0.902836
O385	O	-0.050643	-0.616928	1.102500
O386	O	0.449357	-0.116928	1.602500
C387	C	-0.145704	-0.579953	1.102386
C388	C	0.354296	-0.079953	1.602386
C389	C	-0.099354	-0.568456	1.102440
C390	C	0.400646	-0.068456	1.602440
H391	H	-0.185094	-0.540768	1.102325
H392	H	0.314906	-0.040768	1.602325
H393	H	-0.156303	-0.616879	1.141658
H394	H	0.343697	-0.116879	1.641658
H395	H	-0.130009	-0.590717	1.063091
H396	H	0.369991	-0.090717	1.563091
H397	H	-0.115010	-0.557669	1.141708
H398	H	0.384990	-0.057669	1.641708
H399	H	-0.088762	-0.531546	1.063142
H400	H	0.411238	-0.031546	1.563142
O401	O	0.638336	-0.471929	0.379280
O402	O	1.138336	0.028071	0.879280
C403	C	0.638199	-0.445670	0.286337
C404	C	1.138199	0.054330	0.786337
C405	C	0.638268	-0.492188	0.344136
C406	C	1.138268	0.007812	0.844136
H407	H	0.638132	-0.462028	0.257910
H408	H	1.138132	0.037972	0.757910
H409	H	0.677467	-0.433329	0.266003
H410	H	1.177467	0.066671	0.766003
H411	H	0.598902	-0.407195	0.292323
H412	H	1.098902	0.092805	0.792323
H413	H	0.677539	-0.530693	0.338198
H414	H	1.177539	-0.030693	0.838198
H415	H	0.598974	-0.504481	0.364450
H416	H	1.098974	-0.004481	0.864450
O417	O	0.093650	-0.004344	0.634429
O418	O	0.593650	0.495656	1.134429
C419	C	0.150987	-0.052957	0.693728
C420	C	0.650987	0.447043	1.193728
C421	C	0.139398	-0.052919	0.647379
C422	C	0.639398	0.447081	1.147379
H423	H	0.187981	-0.092220	0.704204
H424	H	0.687981	0.407780	1.204204
H425	H	0.111880	-0.053001	0.733183
H426	H	0.611880	0.446999	1.233183
H427	H	0.161702	-0.013651	0.678078
H428	H	0.661702	0.486349	1.178078
H429	H	0.128697	-0.092219	0.662975
H430	H	0.628697	0.407781	1.162975
H431	H	0.178514	-0.052846	0.607934
H432	H	0.678514	0.447154	1.107934
O433	O	0.239002	-0.546728	0.850676
O434	O	0.739002	-0.046728	1.350676
C435	C	0.336803	-0.592446	0.844379
C436	C	0.836803	-0.092446	1.344379
C437	C	0.294499	-0.555073	0.811943
C438	C	0.794499	-0.055073	1.311943
H439	H	0.381682	-0.599194	0.813077
H440	H	0.881682	-0.099194	1.313077
H441	H	0.330067	-0.634979	0.872023
H442	H	0.830067	-0.134979	1.372023
H443	H	0.329975	-0.570798	0.872056
H444	H	0.829975	-0.070798	1.372056
H445	H	0.301302	-0.576671	0.784235
H446	H	0.801302	-0.076671	1.284235
H447	H	0.301246	-0.512542	0.784334
H448	H	0.801246	-0.012542	1.284334
O449	O	0.087303	-0.412757	0.694134
O450	O	0.587303	0.087243	1.194134
C451	C	-0.010469	-0.367029	0.739973
C452	C	0.489531	0.132971	1.239973
C453	C	0.031784	-0.404398	0.702600
C454	C	0.531784	0.095602	1.202600
H455	H	-0.055365	-0.360269	0.746839
H456	H	0.444635	0.139731	1.246839
H457	H	-0.003720	-0.324501	0.718336
H458	H	0.496280	0.175499	1.218336
H459	H	-0.003596	-0.388688	0.782450
H460	H	0.496404	0.111312	1.282450
H461	H	0.024937	-0.382789	0.660117
H462	H	0.524937	0.117211	1.160117
H463	H	0.025024	-0.446923	0.724281
H464	H	0.525024	0.053077	1.224281
H465	H	-0.073247	-0.865920	0.510699
H466	H	0.426753	-0.365920	1.010699
O467	O	0.048549	-0.451633	0.655274
O468	O	0.548549	0.048367	1.155274
C469	C	-0.024564	-0.460631	0.646367
C470	C	0.475436	0.039369	1.146367
C471	C	0.039335	-0.476316	0.630668
C472	C	0.539335	0.023684	1.130668
H473	H	-0.032034	-0.480590	0.626490
H474	H	0.467966	0.019410	1.126490
H475	H	-0.044525	-0.412789	0.630058
H476	H	0.455475	0.087211	1.130058
H477	H	-0.044441	-0.476933	0.694214
H478	H	0.455559	0.023067	1.194214
H479	H	0.059261	-0.460052	0.582827
H480	H	0.559261	0.039948	1.082827
H481	H	0.059255	-0.524160	0.647017
H482	H	0.559255	-0.024160	1.147017
O483	O	0.238753	-0.546579	0.560082
O484	O	0.738753	-0.046579	1.060082
C485	C	0.315186	-0.554102	0.473111
C486	C	0.815186	-0.054102	0.973111
C487	C	0.272939	-0.516781	0.510533
C488	C	0.772939	-0.016781	1.010533
H489	H	0.342844	-0.530030	0.433047
H490	H	0.842844	-0.030030	0.933047
H491	H	0.291166	-0.565723	0.461437
H492	H	0.791166	-0.065723	0.961437
H493	H	0.342850	-0.594204	0.497169
H494	H	0.842850	-0.094204	0.997169
H495	H	0.245264	-0.476655	0.486509
H496	H	0.745264	0.023345	0.986509
H497	H	0.296993	-0.505206	0.522209
H498	H	0.796993	-0.005206	1.022209
O499	O	0.270390	-0.554607	0.682428
O500	O	0.770390	-0.054607	1.182428
C501	C	0.276653	-0.651513	0.716532
C502	C	0.776653	-0.151513	1.216532
C503	C	0.309107	-0.609735	0.685652
C504	C	0.809107	-0.109735	1.185652
H505	H	0.307942	-0.696095	0.719159
H506	H	0.807942	-0.196095	1.219159
H507	H	0.248984	-0.639695	0.692390
H508	H	0.748984	-0.139695	1.192390
H509	H	0.249000	-0.649680	0.760948
H510	H	0.749000	-0.149680	1.260948
H511	H	0.336791	-0.611547	0.641236
H512	H	0.836791	-0.111547	1.141236
H513	H	0.336740	-0.621567	0.709837
H514	H	0.836740	-0.121567	1.209837
O515	O	0.386868	-0.593331	0.643521
O516	O	0.886868	-0.093331	1.143521
C517	C	0.477904	-0.666037	0.629331
C518	C	0.977904	-0.166037	1.129331
C519	C	0.445360	-0.602629	0.620152
C520	C	0.945360	-0.102629	1.120152
H521	H	0.525200	-0.673576	0.610453
H522	H	1.025200	-0.173576	1.110453
H523	H	0.466315	-0.680731	0.607891
H524	H	0.966315	-0.180731	1.107891
H525	H	0.466282	-0.690753	0.676485
H526	H	0.966282	-0.190753	1.176485
H527	H	0.456964	-0.577868	0.573010
H528	H	0.956964	-0.077868	1.073010
H529	H	0.456952	-0.587980	0.641629
H530	H	0.956952	-0.087980	1.141629
O531	O	0.386639	-0.404805	0.571712
O532	O	0.886639	0.095195	1.071712
C533	C	0.380380	-0.307908	0.537659
C534	C	0.880380	0.192092	1.037659
C535	C	0.347923	-0.349689	0.568567
C536	C	0.847923	0.150311	1.068567
H537	H	0.349093	-0.263339	0.535117
H538	H	0.849093	0.236661	1.035117
H539	H	0.408004	-0.309668	0.493214
H540	H	0.908004	0.190332	0.993214
H541	H	0.408078	-0.319798	0.561800
H542	H	0.908078	0.180202	1.061800
H543	H	0.320195	-0.337827	0.544473
H544	H	0.820195	0.162173	1.044473
H545	H	0.320335	-0.347921	0.613014
H546	H	0.820335	0.152079	1.113014
O547	O	0.270191	-0.366090	0.610691
O548	O	0.770191	0.133910	1.110691
C549	C	0.203526	-0.294594	0.654237
C550	C	0.703526	0.205406	1.154237
C551	C	0.236061	-0.358002	0.663414
C552	C	0.736061	0.141998	1.163414
H553	H	0.175933	-0.288034	0.696856
H554	H	0.675933	0.211966	1.196856
H555	H	0.175803	-0.277939	0.628304
H556	H	0.675803	0.222061	1.128304
H557	H	0.234793	-0.270860	0.630751
H558	H	0.734793	0.229140	1.130751
H559	H	0.204834	-0.381782	0.686915
H560	H	0.704834	0.118218	1.186915
H561	H	0.263792	-0.374614	0.689323
H562	H	0.763792	0.125386	1.189323
H563	H	0.268542	-0.505632	0.738936
H564	H	0.768542	-0.005632	1.238936
H565	H	-0.044426	-0.447066	1.102605
H566	H	0.455574	0.052934	1.602605
H567	H	0.268446	-0.505593	0.601208
H568	H	0.768446	-0.005593	1.101208
H569	H	0.224626	-0.367851	0.557490
H570	H	0.724626	0.132149	1.057490
H571	H	0.188851	-0.260656	0.521790
H572	H	0.688851	0.239344	1.021790
H573	H	0.137197	-0.367895	0.732563
H574	H	0.637197	0.132105	1.232563
O575	O	0.096085	-0.256140	0.702972
O576	O	0.596085	0.243860	1.202972
C577	C	0.050416	-0.262396	0.800761
C578	C	0.550416	0.237604	1.300761
C579	C	0.087770	-0.294857	0.758483
C580	C	0.587770	0.205143	1.258483
H581	H	0.043692	-0.293684	0.845650
H582	H	0.543692	0.206316	1.345650
H583	H	0.007875	-0.234756	0.794025
H584	H	0.507875	0.265244	1.294025
H585	H	0.072062	-0.234709	0.793902
H586	H	0.572062	0.265291	1.293902
H587	H	0.066174	-0.322574	0.765317
H588	H	0.566174	0.177426	1.265317
H589	H	0.130309	-0.322461	0.765230
H590	H	0.630309	0.177539	1.265230
H591	H	-0.029822	-0.541673	0.240758
H592	H	0.470178	-0.041673	0.740758
H593	H	0.021738	-0.752445	0.348058
H594	H	0.521738	-0.252445	0.848058
O595	O	-0.071028	-0.571221	0.352496
O596	O	0.428972	-0.071221	0.852496
C597	C	-0.116757	-0.473416	0.346196
C598	C	0.383243	0.026584	0.846196
C599	C	-0.079390	-0.515717	0.313761
C600	C	0.420610	-0.015717	0.813761
H601	H	-0.123540	-0.428532	0.314894
H602	H	0.376460	0.071468	0.814894
H603	H	-0.095163	-0.480209	0.373907
H604	H	0.404837	0.019791	0.873907
H605	H	-0.159270	-0.480196	0.373807
H606	H	0.340730	0.019804	0.873807
H607	H	-0.036871	-0.508962	0.286119
H608	H	0.463129	-0.008962	0.786119
H609	H	-0.101028	-0.508913	0.286086
H610	H	0.398972	-0.008913	0.786086
H611	H	-0.065797	-0.577331	0.398207
H612	H	0.434203	-0.077331	0.898207
O613	O	0.062985	-0.722897	0.236319
O614	O	0.562985	-0.222897	0.736319
C615	C	0.108665	-0.820704	0.242626
C616	C	0.608665	-0.320704	0.742626
C617	C	0.071263	-0.778399	0.275056
C618	C	0.571263	-0.278399	0.775056
H619	H	0.115360	-0.865587	0.273931
H620	H	0.615360	-0.365587	0.773931
H621	H	0.151215	-0.814001	0.215053
H622	H	0.651215	-0.314001	0.715053
H623	H	0.087073	-0.813839	0.214877
H624	H	0.587073	-0.313839	0.714877
H625	H	0.092805	-0.785239	0.302835
H626	H	0.592805	-0.285239	0.802835
H627	H	0.028715	-0.785113	0.302593
H628	H	0.528715	-0.285113	0.802593
H629	H	0.057158	-0.716762	0.521784
H630	H	0.557158	-0.216762	1.021784
H631	H	0.021495	-0.752433	0.485928
H632	H	0.521495	-0.252433	0.985928
H633	H	0.100203	-0.866125	0.444882
H634	H	0.600203	-0.366125	0.944882
O635	O	0.070600	-0.754381	0.404731
O636	O	0.570600	-0.254381	0.904731
C637	C	0.167504	-0.760730	0.370795
C638	C	0.667504	-0.260730	0.870795
C639	C	0.125700	-0.793139	0.401585
C640	C	0.625700	-0.293139	0.901585
H641	H	0.212062	-0.792052	0.368232
H642	H	0.712062	-0.292052	0.868232
H643	H	0.155658	-0.733076	0.394963
H644	H	0.655658	-0.233076	0.894963
H645	H	0.165740	-0.733062	0.326356
H646	H	0.665740	-0.233062	0.826356
H647	H	0.127442	-0.820837	0.446025
H648	H	0.627442	-0.320837	0.946025
H649	H	0.137559	-0.820758	0.377374
H650	H	0.637559	-0.320758	0.877374
H651	H	-0.116238	-0.708516	0.529438
H652	H	0.383762	-0.208516	1.029438
O653	O	-0.117931	-0.754094	0.476138
O654	O	0.382069	-0.254094	0.976138
C655	C	-0.199354	-0.735947	0.458630
C656	C	0.300646	-0.235947	0.958630
C657	C	-0.135972	-0.768516	0.449580
C658	C	0.364028	-0.268516	0.949580
H659	H	-0.213962	-0.747604	0.437173
H660	H	0.286038	-0.247604	0.937173
H661	H	-0.206892	-0.688644	0.439693
H662	H	0.293108	-0.188644	0.939693
H663	H	-0.224143	-0.747509	0.505766
H664	H	0.275857	-0.247509	1.005766
H665	H	-0.111142	-0.757000	0.402455
H666	H	0.388858	-0.257000	0.902455
H667	H	-0.128478	-0.815810	0.468554
H668	H	0.371522	-0.315810	0.968554
O669	O	-0.227997	-0.674964	0.574119
O670	O	0.272003	-0.174964	1.074119
C671	C	-0.221937	-0.724863	0.667819
C672	C	0.278063	-0.224863	1.167819
C673	C	-0.189370	-0.709171	0.603931
C674	C	0.310630	-0.209171	1.103931
H675	H	-0.190721	-0.752511	0.691941
H676	H	0.309279	-0.252511	1.191941
H677	H	-0.249589	-0.748910	0.679410
H678	H	0.250411	-0.248910	1.179410
H679	H	-0.249616	-0.684743	0.679404
H680	H	0.250384	-0.184743	1.179404
H681	H	-0.161660	-0.749261	0.592301
H682	H	0.338340	-0.249261	1.092301
H683	H	-0.161754	-0.685101	0.592375
H684	H	0.338246	-0.185101	1.092375
H685	H	-0.115923	-0.621016	0.354266
H686	H	0.384077	-0.121016	0.854266
O687	O	-0.227657	-0.579815	0.383683
O688	O	0.272343	-0.079815	0.883683
C689	C	-0.221253	-0.534117	0.285850
C690	C	0.278747	-0.034117	0.785850
C691	C	-0.188877	-0.571515	0.328207
C692	C	0.311123	-0.071515	0.828207
H693	H	-0.189914	-0.527405	0.240989
H694	H	0.310086	-0.027405	0.740989
H695	H	-0.248885	-0.491571	0.292575
H696	H	0.251115	0.008429	0.792575
H697	H	-0.248935	-0.555726	0.292634
H698	H	0.251065	-0.055726	0.792634
H699	H	-0.161164	-0.549956	0.321449
H700	H	0.338836	-0.049956	0.821449
H701	H	-0.161280	-0.614060	0.321472
H702	H	0.338720	-0.114060	0.821472
