data_functionalizedCrystal
_audit_creation_method	'MofGen! by Chris Wilmer'
_symmetry_space_group_name_H-M	'P1'
_symmetry_Int_Tables_number	1
_symmetry_cell_setting	triclinic
loop_
_symmetry_equiv_pos_as_xyz
  x,y,z
_cell_length_a	14.519731
_cell_length_b	16.098538
_cell_length_c	14.519709
_cell_angle_alpha	92.726950
_cell_angle_beta	96.315501
_cell_angle_gamma	92.744038
loop_
_atom_site_label
_atom_site_type_symbol
_atom_site_fract_x
_atom_site_fract_y
_atom_site_fract_z
O1	O	1.227978	0.069260	-0.116870
O2	O	0.959504	0.069261	-0.131086
O3	O	1.100859	0.069253	0.010259
O4	O	1.086623	0.069268	-0.258216
O5	O	1.092602	-0.069259	0.002035
O6	O	0.951247	-0.069251	-0.139310
O7	O	1.219721	-0.069253	-0.125095
Zn8	Zn	1.084173	-0.091244	-0.133508
Zn9	Zn	1.095052	0.091252	-0.122672
O10	O	1.078366	-0.069244	-0.266440
C11	C	0.921016	0.000005	-0.134532
C12	C	0.818636	0.000006	-0.132536
N13	N	1.076755	-0.215792	-0.140903
C14	C	0.735492	0.000009	-0.130914
C15	C	0.631183	0.000009	-0.128887
C16	C	0.548044	0.000009	-0.127279
C17	C	0.443729	0.000011	-0.125253
C18	C	1.136773	-0.259381	-0.080932
C19	C	1.131592	-0.346570	-0.086113
C20	C	1.066397	-0.390168	-0.151271
C21	C	1.006372	-0.346574	-0.211245
C22	C	1.011549	-0.259386	-0.206058
C23	C	1.047630	-0.653417	-0.170058
C24	C	1.042459	-0.740610	-0.175242
C25	C	1.167679	-0.740600	-0.050108
C26	C	1.172854	-0.653412	-0.044931
C27	C	1.112826	-0.609825	-0.104901
C28	C	1.061102	-0.479289	-0.156571
C29	C	1.118117	-0.520705	-0.099596
C30	C	1.258209	0.000005	-0.121648
C31	C	1.360590	0.000010	-0.123644
C32	C	1.096067	-0.000003	0.040507
C33	C	1.094078	-0.000004	0.142888
N34	N	1.102478	0.215801	-0.115270
C35	C	1.083158	0.000014	-0.296687
C36	C	1.085147	0.000020	-0.399069
C37	C	1.086760	0.000018	0.517786
C38	C	1.088793	0.000012	0.413478
C39	C	1.090419	0.000006	0.330340
C40	C	1.092452	0.000002	0.226025
H41	H	1.180464	-0.382059	-0.037279
H42	H	1.008020	-0.514794	-0.209626
H43	H	0.998754	-0.617935	-0.218890
H44	H	0.953283	-0.382076	-0.264295
H45	H	0.989366	-0.776104	-0.228305
O46	O	1.199965	-0.216960	-0.017557
C47	C	1.153444	-0.166590	0.042462
H48	H	1.082138	-0.153517	0.006641
H49	H	1.195552	-0.105283	0.060670
H50	H	1.145026	-0.200238	0.108606
O51	O	1.236209	-0.611192	0.018449
C52	C	1.288090	-0.668361	0.070256
H53	H	1.246590	-0.730520	0.067690
H54	H	1.303537	-0.643178	0.145372
H55	H	1.356093	-0.677615	0.039601
H56	H	0.962674	-0.223897	-0.254892
O57	O	1.181352	-0.478412	-0.036165
C58	C	1.164954	-0.499769	0.053886
H59	H	1.089694	-0.523747	0.053069
H60	H	1.178894	-0.442448	0.103572
H61	H	1.213012	-0.550381	0.077835
H62	H	1.216550	-0.776097	-0.001282
