data_functionalizedCrystal
_audit_creation_method	'MofGen! by Chris Wilmer'
_symmetry_space_group_name_H-M	'P1'
_symmetry_Int_Tables_number	1
_symmetry_cell_setting	triclinic
loop_
_symmetry_equiv_pos_as_xyz
  x,y,z
_cell_length_a	29.019771
_cell_length_b	29.019011
_cell_length_c	29.015668
_cell_angle_alpha	60.004890
_cell_angle_beta	60.009825
_cell_angle_gamma	59.993818
loop_
_atom_site_label
_atom_site_type_symbol
_atom_site_fract_x
_atom_site_fract_y
_atom_site_fract_z
O1	O	0.063866	-0.673289	0.563007
O2	O	0.024059	-0.524205	0.453633
O3	O	0.118464	-0.618532	0.453552
O4	O	-0.030540	-0.578962	0.563088
O5	O	0.149785	-0.587215	0.484789
O6	O	0.055379	-0.492888	0.484869
O7	O	0.095186	-0.641972	0.594244
Cu8	Cu	0.078143	-0.564571	0.542409
Cu9	Cu	0.041102	-0.601606	0.505468
O10	O	0.000781	-0.547645	0.594325
N11	N	0.104196	-0.538525	0.568394
N12	N	0.015054	-0.627656	0.479483
C13	C	0.143783	-0.499167	0.850823
C14	C	0.386758	-0.499111	0.607645
C15	C	0.143618	-0.499136	0.607763
C16	C	0.143598	-0.256029	0.607770
C17	C	0.182748	-0.373362	0.646852
C18	C	0.182758	-0.460025	0.646847
C19	C	0.204440	-0.438361	0.668500
C20	C	0.298958	-0.422064	0.618723
C21	C	0.358043	-0.441753	0.599006
C22	C	0.358069	-0.537354	0.635461
C23	C	0.298985	-0.517664	0.655180
C24	C	0.196983	-0.343808	0.588767
C25	C	0.177262	-0.284720	0.569090
C26	C	0.129075	-0.284743	0.665586
C27	C	0.148797	-0.343831	0.685263
C28	C	0.124666	-0.445760	0.661149
C29	C	0.104961	-0.465454	0.641458
C30	C	0.201435	-0.513678	0.593176
C31	C	0.221143	-0.493984	0.612860
C32	C	0.124738	-0.445777	0.763064
C33	C	0.105085	-0.465488	0.822151
C34	C	0.201594	-0.513722	0.822097
C35	C	0.221247	-0.494012	0.763009
C36	C	0.182817	-0.460038	0.733494
C37	C	0.269432	-0.460018	0.646809
C38	C	0.121399	-0.520450	0.915812
C39	C	0.451745	-0.520012	0.585655
C40	C	0.121177	-0.520429	0.586502
C41	C	0.121544	-0.191035	0.586883
C42	C	-0.110592	-0.666601	0.440035
C43	C	-0.023978	-0.666709	0.440231
C44	C	-0.045598	-0.688342	0.418486
C45	C	-0.061967	-0.782825	0.468184
C46	C	-0.042323	-0.841914	0.487907
C47	C	0.053280	-0.842025	0.451623
C48	C	0.033634	-0.782937	0.431899
C49	C	-0.140218	-0.680832	0.498102
C50	C	-0.199302	-0.661065	0.517690
C51	C	-0.199129	-0.612843	0.421140
C52	C	-0.140045	-0.632610	0.401552
C53	C	-0.038209	-0.608622	0.425941
C54	C	-0.018555	-0.588961	0.445716
C55	C	0.029562	-0.685470	0.494059
C56	C	0.009908	-0.705133	0.474291
C57	C	-0.038037	-0.608631	0.323917
C58	C	-0.018247	-0.588973	0.264830
C59	C	0.029955	-0.685489	0.264893
C60	C	0.010165	-0.705145	0.323981
C61	C	-0.023833	-0.666715	0.353492
C62	C	-0.023990	-0.753339	0.440182
N63	N	0.504925	-0.538487	0.568205
O64	O	0.685342	-0.543679	0.433426
O65	O	0.685533	-0.653395	0.582361
O66	O	0.685457	-0.653145	0.487904
O67	O	0.685418	-0.543929	0.527882
O68	O	0.591592	-0.621921	0.519268
O69	O	0.591667	-0.622171	0.613725
O70	O	0.591477	-0.512455	0.464790
Cu71	Cu	0.583001	-0.564462	0.542121
Cu72	Cu	0.694008	-0.601388	0.505029
O73	O	0.591553	-0.512705	0.559246
N74	N	0.772084	-0.627363	0.478939
N75	N	0.104168	-0.137853	0.568408
O76	O	-0.030538	0.042663	0.563097
O77	O	0.118403	0.042683	0.453379
O78	O	0.023918	0.042657	0.453664
O79	O	0.063947	0.042689	0.562813
O80	O	0.055242	-0.051215	0.484950
O81	O	0.149727	-0.051189	0.484666
O82	O	0.000787	-0.051210	0.594384
Cu83	Cu	0.078117	-0.059771	0.542381
Cu84	Cu	0.041072	0.051244	0.505382
O85	O	0.095272	-0.051184	0.594099
N86	N	0.015015	0.129326	0.479356
N87	N	0.104469	-0.538576	0.968995
O88	O	0.099171	-0.673268	1.149499
O89	O	-0.010519	-0.524279	1.149527
O90	O	-0.010265	-0.618748	1.149494
O91	O	0.098916	-0.578799	1.149533
O92	O	0.021008	-0.587443	1.055625
O93	O	0.020753	-0.492974	1.055659
O94	O	0.130444	-0.641963	1.055630
Cu95	Cu	0.078454	-0.564610	1.047074
Cu96	Cu	0.041470	-0.601632	1.158084
O97	O	0.130189	-0.547494	1.055664
N98	N	0.015455	-0.627672	1.236163
C99	C	0.035988	-0.489761	0.454182
C100	C	0.152897	-0.606574	0.454082
C101	C	0.083257	-0.676417	0.593694
C102	C	-0.033653	-0.559604	0.593794
C103	C	0.638623	-0.652892	0.616806
C104	C	0.638531	-0.652583	0.499833
C105	C	0.638384	-0.512957	0.430345
C106	C	0.638480	-0.513267	0.547317
C107	C	0.152789	-0.004135	0.453875
C108	C	0.035820	-0.004282	0.454266
C109	C	-0.033639	-0.004275	0.593849
C110	C	0.083370	-0.004245	0.593498
C111	C	-0.009989	-0.489856	1.102597
C112	C	-0.009667	-0.606839	1.102536
C113	C	0.129914	-0.676386	1.102561
C114	C	0.129599	-0.559396	1.102601
H115	H	0.093440	-0.418108	0.739036
O116	O	-0.050552	-0.617105	1.102550
C117	C	-0.109914	-0.674336	1.151101
C118	C	-0.063602	-0.662778	1.151150
H119	H	-0.120488	-0.711255	1.190396
H120	H	-0.094257	-0.685113	1.111823
H121	H	-0.149316	-0.635162	1.151065
H122	H	-0.024184	-0.701933	1.151206
H123	H	-0.079305	-0.651978	1.190424
O124	O	0.093389	-0.727549	0.634626
C125	C	0.118173	-0.827970	0.661680
C126	C	0.106699	-0.770098	0.615281
H127	H	0.128949	-0.862388	0.646052
H128	H	0.079007	-0.828203	0.701077
H129	H	0.155099	-0.836166	0.672249
H130	H	0.069792	-0.761866	0.604663
H131	H	0.145894	-0.769894	0.575913
O132	O	0.638647	-0.693568	0.489625
C133	C	0.687313	-0.787555	0.484328
C134	C	0.687259	-0.741185	0.495889
H135	H	0.726606	-0.826069	0.489400
H136	H	0.687303	-0.771044	0.439481
H137	H	0.648043	-0.799893	0.515585
H138	H	0.726523	-0.728827	0.464668
H139	H	0.687240	-0.757721	0.540751
H140	H	0.638671	-0.687334	0.659583
O141	O	0.171019	-0.727434	1.102626
C142	C	0.232718	-0.810296	1.151265
C143	C	0.186178	-0.752489	1.151256
H144	H	0.244980	-0.830575	1.190584
H145	H	0.271235	-0.804394	1.112011
H146	H	0.216362	-0.838733	1.151223
H147	H	0.202481	-0.724022	1.151318
H148	H	0.147670	-0.758435	1.190506
O149	O	0.386787	-0.404928	0.571645
C150	C	0.453422	-0.365428	0.485765
C151	C	0.420915	-0.407166	0.516692
H152	H	0.481013	-0.367215	0.441326
H153	H	0.481144	-0.377282	0.509866
H154	H	0.422137	-0.320854	0.483199
H155	H	0.452159	-0.451754	0.519266
H156	H	0.393184	-0.395264	0.492579
H157	H	0.382132	-0.584293	0.642268
O158	O	0.025888	-0.438719	0.413128
C159	C	0.020644	-0.388189	0.319119
C160	C	0.032108	-0.446029	0.365559
H161	H	0.025657	-0.394078	0.280652
H162	H	0.051928	-0.367838	0.306718
H163	H	-0.024186	-0.359822	0.335625
H164	H	0.076922	-0.474439	0.349092
H165	H	0.000789	-0.466335	0.377952
H166	H	-0.076451	-0.551170	0.628189
O167	O	-0.084709	-0.004247	0.634871
C168	C	-0.177683	-0.004279	0.661140
C169	C	-0.119875	-0.004305	0.614632
H170	H	-0.206126	-0.004339	0.644799
H171	H	-0.197982	0.035023	0.673432
H172	H	-0.171722	-0.043548	0.699641
H173	H	-0.125787	0.034937	0.576101
H174	H	-0.099596	-0.043633	0.602388
H175	H	0.188851	-0.260656	0.521790
O176	O	-0.051022	-0.438787	1.102631
C177	C	-0.077251	-0.345795	1.102623
C178	C	-0.030737	-0.403609	1.102598
H179	H	-0.060864	-0.317334	1.102584
H180	H	-0.115741	-0.351689	1.141913
H181	H	-0.089573	-0.325548	1.063345
H182	H	-0.018367	-0.423888	1.141848
H183	H	0.007723	-0.397678	1.063281
O184	O	0.170537	-0.549143	1.102506
C185	C	0.229843	-0.491847	1.053906
C186	C	0.183488	-0.503407	1.053937
H187	H	0.240320	-0.454862	1.014649
H188	H	0.269295	-0.530972	1.053862
H189	H	0.214201	-0.481126	1.093214
H190	H	0.199077	-0.514114	1.014636
H191	H	0.144046	-0.464273	1.054011
O192	O	0.048644	-0.451551	0.850782
C193	C	-0.045004	-0.401644	0.844593
C194	C	0.018898	-0.417374	0.812097
H195	H	-0.069072	-0.374020	0.813331
H196	H	-0.056647	-0.377559	0.872242
H197	H	-0.056598	-0.441750	0.872272
H198	H	0.030538	-0.377298	0.784387
H199	H	0.030507	-0.441481	0.784484
H200	H	0.195476	-0.003868	0.419344
H201	H	0.638322	-0.478510	0.387573
H202	H	0.027247	-0.004286	0.419974
O203	O	0.638439	-0.472388	0.557620
C204	C	0.638517	-0.446581	0.624654
C205	C	0.638549	-0.492921	0.613066
H206	H	0.638617	-0.463169	0.669478
H207	H	0.599195	-0.408073	0.619681
H208	H	0.677760	-0.434204	0.593362
H209	H	0.599333	-0.505346	0.644349
H210	H	0.677897	-0.531399	0.618020
O211	O	0.093696	-0.004271	0.634358
C212	C	0.160769	-0.004235	0.660137
C213	C	0.149154	-0.004214	0.613816
H214	H	0.205602	-0.004177	0.643543
H215	H	0.155783	-0.043535	0.698658
H216	H	0.129501	0.035036	0.672493
H217	H	0.180412	-0.043459	0.601412
H218	H	0.154121	0.035112	0.575326
O219	O	0.203908	-0.616637	0.412992
C220	C	0.254336	-0.621676	0.318909
C221	C	0.196533	-0.610278	0.365399
H222	H	0.248391	-0.616527	0.280415
H223	H	0.282771	-0.666515	0.335289
H224	H	0.274639	-0.590383	0.306594
H225	H	0.176181	-0.641535	0.377734
H226	H	0.168138	-0.565424	0.348993
H227	H	0.232890	-0.541375	0.846122
H228	H	0.268542	-0.505632	0.738936
H229	H	0.093408	-0.418110	0.688821
O230	O	-0.111350	-0.618759	0.345123
C231	C	-0.117411	-0.568820	0.251423
C232	C	-0.149977	-0.584474	0.315311
H233	H	-0.148626	-0.541089	0.227301
H234	H	-0.089769	-0.608917	0.239792
H235	H	-0.089721	-0.544834	0.239879
H236	H	-0.177698	-0.608446	0.326901
H237	H	-0.177583	-0.544357	0.326908
O238	O	0.048512	-0.451573	0.655426
C239	C	-0.045102	-0.401650	0.705380
C240	C	0.018810	-0.417337	0.689613
H241	H	-0.069135	-0.373958	0.733012
H242	H	-0.056738	-0.441736	0.729467
H243	H	-0.056747	-0.377611	0.665292
H244	H	0.030500	-0.441362	0.729671
H245	H	0.030411	-0.377231	0.665504
H246	H	0.232695	-0.541333	0.565509
H247	H	0.274946	-0.548573	0.678050
O248	O	0.277592	-0.507896	0.598922
C249	C	0.371206	-0.557738	0.548888
C250	C	0.307294	-0.542046	0.564650
H251	H	0.395239	-0.585341	0.521168
H252	H	0.382920	-0.581834	0.588939
H253	H	0.382772	-0.517616	0.524857
H254	H	0.295682	-0.582139	0.588667
H255	H	0.295614	-0.517929	0.524579
H256	H	0.274901	-0.375125	0.611905
H257	H	0.101438	-0.260698	0.696864
O258	O	0.229877	-0.372472	0.551437
C259	C	0.237386	-0.390515	0.474985
C260	C	0.200070	-0.358029	0.517241
H261	H	0.213305	-0.378841	0.447318
H262	H	0.249025	-0.437830	0.498998
H263	H	0.277475	-0.378894	0.447328
H264	H	0.159957	-0.369603	0.544908
H265	H	0.188476	-0.310722	0.493192
O266	O	0.134938	-0.372456	0.741709
C267	C	0.085031	-0.366246	0.835346
C268	C	0.100696	-0.333760	0.771438
H269	H	0.057335	-0.334975	0.859401
H270	H	0.125122	-0.393891	0.846989
H271	H	0.061008	-0.393931	0.846958
H272	H	0.124705	-0.306045	0.759779
H273	H	0.060585	-0.306151	0.759829
O274	O	-0.227773	-0.579905	0.383785
C275	C	-0.294428	-0.569278	0.349883
C276	C	-0.262015	-0.606644	0.392208
H277	H	-0.322130	-0.590876	0.356687
H278	H	-0.263132	-0.562517	0.305000
H279	H	-0.322048	-0.526752	0.356655
H280	H	-0.234395	-0.649191	0.385488
H281	H	-0.293341	-0.613358	0.437076
H282	H	-0.029822	-0.541673	0.240758
O283	O	-0.032395	-0.532516	0.431750
C284	C	-0.082186	-0.438862	0.381706
C285	C	-0.066553	-0.502769	0.397476
H286	H	-0.109815	-0.414793	0.354003
H287	H	-0.042079	-0.427275	0.357692
H288	H	-0.106271	-0.427209	0.421787
H289	H	-0.042482	-0.514468	0.357424
H290	H	-0.106681	-0.514322	0.421512
H291	H	0.057627	-0.716785	0.240872
O292	O	-0.071144	-0.571315	0.352603
C293	C	-0.161133	-0.537457	0.419204
C294	C	-0.123708	-0.579738	0.386746
H295	H	-0.203634	-0.544261	0.446825
H296	H	-0.167932	-0.492555	0.387936
H297	H	-0.139519	-0.544279	0.446910
H298	H	-0.145290	-0.572968	0.359039
H299	H	-0.116907	-0.624625	0.418045
O300	O	0.023897	-0.761576	0.352685
C301	C	0.019379	-0.850037	0.370701
C302	C	0.003781	-0.786136	0.338171
H303	H	0.003133	-0.869915	0.358970
H304	H	-0.000619	-0.857520	0.418007
H305	H	0.067213	-0.869990	0.359179
H306	H	-0.044045	-0.766141	0.349645
H307	H	0.023820	-0.778693	0.290873
O308	O	0.062455	-0.722873	0.527154
C309	C	0.108137	-0.820677	0.572985
C310	C	0.070871	-0.778378	0.535509
H311	H	0.114963	-0.865562	0.579742
H312	H	0.086436	-0.813888	0.615504
H313	H	0.150637	-0.813891	0.551417
H314	H	0.028365	-0.785139	0.557028
H315	H	0.092616	-0.785178	0.492992
H316	H	0.021495	-0.752433	0.485928
O317	O	0.070591	-0.754355	0.404641
C318	C	0.152558	-0.736356	0.325102
C319	C	0.110753	-0.768770	0.355924
H320	H	0.185033	-0.747989	0.285702
H321	H	0.174957	-0.748004	0.354312
H322	H	0.128604	-0.689043	0.312455
H323	H	0.134664	-0.816091	0.368574
H324	H	0.088354	-0.757075	0.326695
O325	O	-0.079302	-0.870470	0.515185
C326	C	-0.176218	-0.864126	0.549219
C327	C	-0.134396	-0.831714	0.518286
H328	H	-0.220769	-0.832806	0.551726
H329	H	-0.174481	-0.891725	0.593678
H330	H	-0.164356	-0.891849	0.525117
H331	H	-0.146229	-0.803961	0.542341
H332	H	-0.136140	-0.804151	0.473825
O333	O	-0.117918	-0.754006	0.476122
C334	C	-0.189284	-0.687256	0.432416
C335	C	-0.125903	-0.719854	0.423352
H336	H	-0.195761	-0.659645	0.389759
H337	H	-0.205966	-0.659540	0.458364
H338	H	-0.213051	-0.718486	0.455841
H339	H	-0.102089	-0.688665	0.399912
H340	H	-0.109264	-0.747578	0.397428
O341	O	0.109239	-0.870805	0.443682
C342	C	0.180614	-0.937601	0.487366
C343	C	0.117228	-0.905035	0.496442
H344	H	0.187092	-0.965292	0.530015
H345	H	0.204408	-0.906401	0.463996
H346	H	0.197266	-0.965249	0.461360
H347	H	0.100525	-0.877386	0.522462
H348	H	0.093473	-0.936265	0.519788
H349	H	-0.065797	-0.577331	0.398207
H350	H	-0.116238	-0.708516	0.529438
H351	H	-0.223425	-0.672650	0.564976
