data_functionalizedCrystal
_audit_creation_method	'MofGen! by Chris Wilmer'
_symmetry_space_group_name_H-M	'P1'
_symmetry_Int_Tables_number	1
_symmetry_cell_setting	triclinic
loop_
_symmetry_equiv_pos_as_xyz
  x,y,z
_cell_length_a	23.532407
_cell_length_b	16.176319
_cell_length_c	17.699083
_cell_angle_alpha	90.007696
_cell_angle_beta	96.934154
_cell_angle_gamma	89.997915
loop_
_atom_site_label
_atom_site_type_symbol
_atom_site_fract_x
_atom_site_fract_y
_atom_site_fract_z
O1	O	0.755526	-0.068645	-0.091879
O2	O	0.589701	-0.068670	-0.105173
O3	O	0.677298	-0.068649	0.011687
O4	O	0.667928	-0.068665	-0.208739
O5	O	0.677286	0.068844	0.011694
O6	O	0.589689	0.068824	-0.105166
O7	O	0.755514	0.068848	-0.091872
Cu8	Cu	0.672600	0.081390	-0.098518
Cu9	Cu	0.672614	-0.081212	-0.098527
O10	O	0.667916	0.068828	-0.208732
C11	C	0.568478	0.000074	-0.104831
C12	C	0.505258	0.000065	-0.103813
N13	N	0.672594	0.195755	-0.098512
N14	N	0.672625	-0.195577	-0.098528
C15	C	0.106335	0.000098	-0.166585
C16	C	0.046932	0.000103	-0.165639
O17	O	0.010354	0.000129	-0.223829
N18	N	0.024106	0.000107	-0.096166
C19	C	0.060687	0.000113	-0.027634
O20	O	0.035817	0.000118	0.031545
C21	C	0.120089	0.000114	-0.028580
C22	C	0.142911	0.000102	-0.098058
C23	C	0.129158	0.000087	-0.236057
C24	C	0.188557	0.000080	-0.237002
C25	C	0.225133	0.000084	-0.168475
C26	C	0.202310	0.000096	-0.099003
C27	C	0.156668	0.000127	0.039951
C28	C	0.216073	0.000129	0.038999
C29	C	0.238896	0.000116	-0.030479
C30	C	0.298285	0.000093	-0.031421
N31	N	0.321110	0.000090	-0.100894
C32	C	0.284534	0.000085	-0.169421
C33	C	-0.064061	0.000113	-0.025652
C34	C	-0.123462	0.000107	-0.024705
C35	C	-0.137213	0.000097	-0.162710
C36	C	-0.077811	0.000098	-0.163657
C37	C	-0.041236	0.000110	-0.095125
C38	C	0.409277	0.000070	-0.171401
C39	C	0.468682	0.000060	-0.172340
C40	C	0.482427	0.000074	-0.034335
C41	C	0.423028	0.000080	-0.033395
C42	C	0.386453	0.000081	-0.101935
O43	O	0.334897	0.000071	0.026738
O44	O	0.309412	0.000092	-0.228591
C45	C	0.776737	0.000103	-0.092214
C46	C	0.839957	0.000106	-0.093232
C47	C	0.676956	0.000097	0.039886
C48	C	0.675949	0.000097	0.123899
C49	C	0.711394	0.239028	-0.046787
C50	C	0.711397	0.325576	-0.046786
C51	C	0.672602	0.368848	-0.098514
C52	C	0.633798	0.325569	-0.150241
C53	C	0.633793	0.239023	-0.150238
C54	C	0.633818	0.674597	-0.150255
C55	C	0.633827	0.761149	-0.150256
C56	C	0.711422	0.761149	-0.046804
C57	C	0.711416	0.674604	-0.046800
C58	C	0.672611	0.631332	-0.098524
C59	C	0.672607	0.537488	-0.098524
C60	C	0.672608	0.462690	-0.098519
C61	C	0.668258	0.000079	-0.236931
C62	C	0.669265	0.000074	-0.320944
C63	C	0.727367	0.000106	0.172781
C64	C	0.726417	0.000099	0.251719
C65	C	0.674049	0.000089	0.281774
C66	C	0.622627	0.000077	0.232886
C67	C	0.623577	0.000079	0.153949
C68	C	0.618793	0.000070	0.551230
C69	C	0.617847	0.000071	0.630173
C70	C	0.721633	0.000090	0.649000
C71	C	0.722583	0.000092	0.570063
C72	C	0.671162	0.000076	0.521181
C73	C	0.672192	0.000082	0.435587
C74	C	0.673018	0.000088	0.367366
H75	H	0.487260	0.000050	-0.228920
H76	H	0.581708	0.000071	0.114149
N77	N	0.751049	0.805363	0.006042
N78	N	0.733049	0.853664	0.052903
H79	H	0.761035	0.884889	0.090224
H80	H	0.768287	0.000108	0.291516
N81	N	0.371931	0.000076	-0.241418
N82	N	0.392326	0.000067	-0.303436
H83	H	0.365951	0.000067	-0.352887
H84	H	0.602234	0.796379	-0.192381
N85	N	0.594174	0.630416	-0.203090
N86	N	0.559540	0.669065	-0.249270
H87	H	0.531539	0.637861	-0.286587
N88	N	0.564350	0.000037	0.660873
N89	N	0.552253	-0.057925	0.702815
H90	H	0.514473	-0.057950	0.724497
N91	N	0.253425	0.000149	0.109012
N92	N	0.233035	0.000163	0.171034
H93	H	0.259414	0.000178	0.220481
H94	H	0.763503	0.000098	0.688809
H95	H	-0.059234	0.000093	-0.220231
H96	H	0.576922	0.000058	0.511439
H97	H	-0.142038	0.000103	0.031871
N98	N	-0.174579	0.000121	-0.232713
N99	N	-0.172549	0.058081	-0.279009
H100	H	-0.198939	0.058100	-0.328446
N101	N	0.569138	0.000057	0.263596
N102	N	0.568296	0.000055	0.334076
H103	H	0.530518	0.000042	0.355765
H104	H	0.207132	0.000070	-0.293578
N105	N	0.751043	0.630387	0.006027
N106	N	0.786351	0.582079	-0.017752
H107	H	0.814337	0.550849	0.019558
H108	H	-0.034284	0.000115	0.030159
H109	H	0.765227	0.000104	0.545597
H110	H	0.404445	0.000077	0.023179
H111	H	0.602208	0.360806	-0.192357
N112	N	0.091810	0.000087	-0.306069
N113	N	0.112207	0.000080	-0.368086
H114	H	0.085833	0.000076	-0.417537
H115	H	0.138097	0.000138	0.096527
N116	N	0.780866	0.000128	0.142096
N117	N	0.826771	0.000136	0.185754
H118	H	0.864557	0.000151	0.164086
N119	N	0.519796	0.000102	0.035659
N120	N	0.517770	0.058073	0.081959
H121	H	0.544164	0.058101	0.131393
N122	N	0.750996	0.194844	0.006098
N123	N	0.785612	0.233495	0.052308
H124	H	0.813569	0.202292	0.089678
H125	H	0.602198	0.203791	-0.192356
N126	N	0.751032	0.369765	0.006057
N127	N	0.785668	0.331119	0.052237
H128	H	0.813662	0.362327	0.089562
