data_functionalizedCrystal
_audit_creation_method	'MofGen! by Chris Wilmer'
_symmetry_space_group_name_H-M	'P1'
_symmetry_Int_Tables_number	1
_symmetry_cell_setting	triclinic
loop_
_symmetry_equiv_pos_as_xyz
  x,y,z
_cell_length_a	15.944480
_cell_length_b	15.021413
_cell_length_c	10.654549
_cell_angle_alpha	89.994846
_cell_angle_beta	96.021617
_cell_angle_gamma	89.993605
loop_
_atom_site_label
_atom_site_type_symbol
_atom_site_fract_x
_atom_site_fract_y
_atom_site_fract_z
O1	O	-1.115503	0.074011	0.161526
O2	O	-0.871061	0.074017	0.181587
O3	O	-0.998900	0.074010	-0.011257
O4	O	-0.987664	0.074017	0.354371
O5	O	-0.998880	-0.074054	-0.011229
O6	O	-0.871041	-0.074048	0.181615
O7	O	-1.115482	-0.074053	0.161554
Zn8	Zn	-0.993258	-0.097559	0.171589
Zn9	Zn	-0.993285	0.097522	0.171552
O10	O	-0.987644	-0.074047	0.354398
C11	C	-0.839751	-0.000015	0.180784
C12	C	-0.746488	-0.000013	0.178334
C13	C	-0.511385	-0.000008	0.291858
C14	C	-0.460461	-0.073016	0.230665
C15	C	-0.575740	-0.000013	0.173795
C16	C	-0.460486	0.072963	0.230610
C17	C	-0.410804	-0.000010	0.169419
C18	C	-0.526044	-0.073082	0.112634
C19	C	-0.526072	0.072964	0.112596
C20	C	-0.475181	-0.000062	0.051316
C21	C	-0.670755	-0.000016	0.176319
C22	C	-0.315791	-0.000014	0.166885
N23	N	-0.993246	-0.230697	0.171613
C24	C	-0.934124	-0.470377	0.260742
C25	C	-1.010168	-0.529713	0.285094
C26	C	-0.993268	-0.412303	0.171581
C27	C	-0.917244	-0.529709	0.147258
C28	C	-0.993281	-0.587728	0.171554
C29	C	-1.069350	-0.470333	0.195989
C30	C	-0.976376	-0.470324	0.058104
C31	C	-1.052475	-0.529633	0.082407
C32	C	-0.993258	-0.311246	0.171600
C33	C	-0.993299	-0.688783	0.171534
C34	C	-0.146791	-0.000018	0.162374
C35	C	-0.240050	-0.000010	0.164875
C36	C	-0.998064	-0.000021	-0.058030
C37	C	-0.995593	-0.000018	-0.197440
N38	N	-0.993304	0.230660	0.171518
C39	C	-1.143820	-0.000026	-0.489399
C40	C	-1.221417	-0.000030	-0.438895
C41	C	-1.223741	-0.000029	-0.307908
C42	C	-1.148461	-0.000026	-0.227420
C43	C	-1.070865	-0.000023	-0.277924
C44	C	-1.068549	-0.000021	-0.408915
C45	C	-0.917997	-0.000014	-0.247944
C46	C	-0.915670	-0.000009	-0.378931
C47	C	-0.842717	-0.000012	-0.167456
C48	C	-0.765119	-0.000002	-0.217959
C49	C	-0.762797	-0.000002	-0.348955
C50	C	-0.838074	-0.000005	-0.429434
C51	C	-0.988480	-0.000014	0.401171
C52	C	-0.990951	-0.000011	0.540581
H53	H	-0.459125	-0.000106	-0.050455
H54	H	-0.554738	0.134687	0.062762
N55	N	-0.845219	-0.000011	-0.026177
H56	H	-0.905797	-0.000009	-0.006393
H57	H	-0.815734	0.054882	0.011150
H58	H	-1.150361	-0.000036	-0.120765
H59	H	-0.836191	-0.000000	-0.536093
N60	N	-1.302612	-0.000025	-0.525698
H61	H	-1.336423	-0.054914	-0.509446
H62	H	-1.289304	0.000012	-0.616308
H63	H	-0.699609	-0.000009	-0.390065
N64	N	-0.832076	-0.564250	0.120005
H65	H	-0.838667	-0.601234	0.040421
H66	H	-0.807301	-0.602169	0.192952
N67	N	-0.422498	-0.154766	0.296731
H68	H	-0.359385	-0.154456	0.293843
H69	H	-0.447343	-0.209861	0.253039
H70	H	-0.884160	-0.444359	0.336203
H71	H	-1.286927	-0.000036	-0.266790
N72	N	-1.029118	-0.564268	0.412187
H73	H	-0.984407	-0.542720	0.479494
H74	H	-1.029545	-0.631495	0.410866
H75	H	-0.703832	-0.000007	-0.152417
N76	N	-1.154540	-0.435934	0.223372
H77	H	-1.147875	-0.398511	0.302540
H78	H	-1.193086	-0.487849	0.235665
H79	H	-1.141935	-0.000015	-0.596057
H80	H	-0.431845	0.134678	0.280482
N81	N	-0.563826	-0.154926	0.046646
H82	H	-0.627004	-0.154436	0.048768
H83	H	-0.539294	-0.209954	0.090931
H84	H	-0.527599	-0.000075	0.393552
N85	N	-1.118797	-0.563895	-0.017491
H86	H	-1.149110	-0.511967	-0.062153
H87	H	-1.160616	-0.601774	0.023479
N88	N	-0.957412	-0.435742	-0.068960
H89	H	-0.899936	-0.457303	-0.087247
H90	H	-0.958146	-0.368515	-0.068163
