data_functionalizedCrystal
_audit_creation_method	'MofGen! by Chris Wilmer'
_symmetry_space_group_name_H-M	'P1'
_symmetry_Int_Tables_number	1
_symmetry_cell_setting	triclinic
loop_
_symmetry_equiv_pos_as_xyz
  x,y,z
_cell_length_a	16.793024
_cell_length_b	16.793047
_cell_length_c	33.586455
_cell_angle_alpha	113.253857
_cell_angle_beta	66.219990
_cell_angle_gamma	112.758327
loop_
_atom_site_label
_atom_site_type_symbol
_atom_site_fract_x
_atom_site_fract_y
_atom_site_fract_z
O1	O	0.005016	-0.570216	-0.583573
O2	O	-0.034529	-0.474528	-0.453458
O3	O	0.114723	-0.474535	-0.528082
O4	O	-0.144235	-0.570209	-0.508949
O5	O	0.108729	-0.346329	-0.530229
O6	O	-0.040523	-0.346322	-0.455605
O7	O	-0.000977	-0.442010	-0.585721
Zn8	Zn	-0.021701	-0.373810	-0.521004
Zn9	Zn	-0.013805	-0.542728	-0.518175
O10	O	-0.150229	-0.442003	-0.511097
C11	C	0.005100	-0.790970	-0.238461
C12	C	-0.040584	-0.395375	-0.435637
C13	C	-0.044693	-0.353446	-0.386631
C14	C	-0.039275	-0.401741	-0.363054
C15	C	-0.040566	-0.125547	-0.300731
C16	C	-0.044689	-0.223451	-0.321635
C17	C	-0.039266	-0.270752	-0.297563
C18	C	0.005118	-0.521142	-0.103554
C19	C	-0.046224	-0.263935	-0.366370
C20	C	-0.036476	-0.360146	-0.318399
C21	C	-0.030850	-0.408530	-0.294565
C22	C	-0.028014	-0.367522	-0.249895
C23	C	-0.030804	-0.278128	-0.229058
C24	C	-0.036430	-0.229743	-0.252892
C25	C	-0.027971	-0.237122	-0.184383
C26	C	-0.022345	-0.285507	-0.160550
C27	C	-0.019555	-0.374900	-0.181386
C28	C	-0.022391	-0.415909	-0.226057
C29	C	-0.019601	-0.505302	-0.246894
C30	C	-0.013975	-0.553687	-0.223060
C31	C	-0.011142	-0.512684	-0.178391
C32	C	-0.013932	-0.423291	-0.157554
C33	C	-0.005516	-0.561069	-0.154557
C34	C	-0.002726	-0.650463	-0.175394
C35	C	-0.005562	-0.691471	-0.220064
C36	C	-0.011185	-0.643081	-0.243897
C37	C	-0.022434	-0.546309	-0.291568
C38	C	-0.019644	-0.635702	-0.312405
C39	C	-0.014021	-0.684089	-0.288567
C40	C	-0.022480	-0.676711	-0.357076
C41	C	-0.028106	-0.628326	-0.380910
C42	C	-0.030896	-0.538933	-0.360073
C43	C	-0.028060	-0.497924	-0.315402
C44	C	-0.036522	-0.490548	-0.383907
C45	C	0.815184	-0.521162	-0.508596
C46	C	0.415541	-0.125553	-0.528781
C47	C	0.375032	-0.223457	-0.531493
C48	C	0.423813	-0.270761	-0.529101
C49	C	0.149318	-0.395376	-0.530584
C50	C	0.246774	-0.353455	-0.532364
C51	C	0.294574	-0.401748	-0.529976
C52	C	0.548961	-0.790984	-0.510398
C53	C	0.286104	-0.263940	-0.532530
C54	C	0.383336	-0.360149	-0.528302
C55	C	0.432207	-0.407971	-0.525810
C56	C	0.392316	-0.497392	-0.524993
C57	C	0.303554	-0.538991	-0.526667
C58	C	0.254683	-0.491169	-0.529159
C59	C	0.263666	-0.628421	-0.525851
C60	C	0.312537	-0.676243	-0.523359
C61	C	0.401299	-0.634644	-0.521685
C62	C	0.441190	-0.545223	-0.522502
C63	C	0.529952	-0.503624	-0.520828
C64	C	0.578823	-0.551446	-0.518336
C65	C	0.538939	-0.640864	-0.517520
C66	C	0.450177	-0.682463	-0.519194
C67	C	0.587810	-0.688687	-0.515028
C68	C	0.676572	-0.647088	-0.513354
C69	C	0.716463	-0.557666	-0.514172
C70	C	0.667586	-0.509847	-0.516662
C71	C	0.569840	-0.414195	-0.521644
C72	C	0.658602	-0.372596	-0.519970
C73	C	0.707476	-0.420426	-0.517480
C74	C	0.698493	-0.283174	-0.520788
C75	C	0.649622	-0.235352	-0.523280
C76	C	0.560860	-0.276951	-0.524954
C77	C	0.520969	-0.366372	-0.524136
C78	C	0.511989	-0.229129	-0.527446
C79	C	-0.040530	-0.395407	-0.935652
C80	C	0.005063	-0.791004	-0.738448
C81	C	0.009186	-0.693099	-0.717543
C82	C	0.003779	-0.645796	-0.741620
C83	C	0.005077	-0.521171	-0.603544
C84	C	0.009198	-0.563096	-0.652550
C85	C	0.003786	-0.514804	-0.676131
C86	C	-0.040516	-0.125574	-0.800747
C87	C	0.010719	-0.652613	-0.672809
C88	C	0.000994	-0.556406	-0.720789
C89	C	-0.004621	-0.508585	-0.744908
C90	C	-0.007444	-0.419162	-0.724369
C91	C	-0.004651	-0.377560	-0.679711
C92	C	0.000964	-0.425381	-0.655592
C93	C	-0.007471	-0.288129	-0.659174
C94	C	-0.013086	-0.240308	-0.683293
C95	C	-0.015878	-0.281910	-0.727951
C96	C	-0.013056	-0.371333	-0.748490
C97	C	-0.015848	-0.412935	-0.793148
C98	C	-0.021463	-0.365114	-0.817267
C99	C	-0.024282	-0.275694	-0.796731
C100	C	-0.021490	-0.234092	-0.752073
C101	C	-0.029897	-0.227873	-0.820850
C102	C	-0.032690	-0.269476	-0.865508
C103	C	-0.029867	-0.358899	-0.886047
C104	C	-0.024255	-0.406717	-0.861925
C105	C	-0.013028	-0.502367	-0.813685
C106	C	-0.015821	-0.543969	-0.858343
C107	C	-0.021433	-0.496140	-0.882464
C108	C	-0.012998	-0.633392	-0.878882
C109	C	-0.007383	-0.681213	-0.854763
C110	C	-0.004591	-0.639611	-0.810105
C111	C	-0.007414	-0.550188	-0.789566
C112	C	0.001024	-0.687432	-0.785986
O113	O	-0.000965	0.173549	-0.277957
O114	O	-0.040516	-0.085616	-0.325254
O115	O	0.108737	0.059592	-0.327284
O116	O	-0.150219	0.028341	-0.275927
O117	O	0.114753	0.055151	-0.263265
O118	O	-0.034500	-0.090057	-0.261234
O119	O	0.005051	0.169108	-0.213937
Zn120	Zn	-0.013769	0.038820	-0.227421
Zn121	Zn	-0.021696	0.044672	-0.311770
O122	O	-0.144202	0.023900	-0.211907
O123	O	-0.034458	-0.474571	0.046517
O124	O	0.005076	-0.570190	-0.083599
O125	O	-0.144170	-0.570237	-0.008972
O126	O	0.114787	-0.474523	-0.028110
O127	O	-0.150200	-0.442024	-0.011093
O128	O	-0.000954	-0.441976	-0.085720
O129	O	-0.040488	-0.346357	0.044396
Zn130	Zn	-0.021679	-0.373810	-0.020999
Zn131	Zn	-0.013734	-0.542737	-0.018204
O132	O	0.108757	-0.346309	-0.030231
C133	C	-0.850734	0.086244	-0.289716
C134	C	-0.450996	0.035117	-0.097351
C135	C	-0.410501	0.028587	-0.146852
C136	C	-0.459292	0.034683	-0.169840
C137	C	-0.184802	0.024283	-0.235878
C138	C	-0.282257	0.023363	-0.213592
C139	C	-0.330068	0.029423	-0.237088
C140	C	-0.584541	0.075410	-0.428242
C141	C	-0.321573	0.024104	-0.168302
C142	C	-0.418828	0.035176	-0.215083
C143	C	-0.467711	0.041476	-0.238329
C144	C	-0.427833	0.042022	-0.283580
C145	C	-0.339073	0.036269	-0.305586
C146	C	-0.290190	0.029970	-0.282340
C147	C	-0.299198	0.036812	-0.350842
C148	C	-0.348081	0.043111	-0.374088
C149	C	-0.436841	0.048864	-0.352082
C150	C	-0.476719	0.048318	-0.306830
C151	C	-0.565480	0.054071	-0.284825
C152	C	-0.614362	0.060370	-0.308071
C153	C	-0.574491	0.060913	-0.353321
C154	C	-0.485730	0.055160	-0.375326
C155	C	-0.623374	0.067212	-0.376567
C156	C	-0.712134	0.072965	-0.354561
C157	C	-0.752012	0.072419	-0.309309
C158	C	-0.703123	0.066123	-0.286065
C159	C	-0.605355	0.053528	-0.239569
C160	C	-0.694115	0.059281	-0.217564
C161	C	-0.743001	0.065577	-0.240813
C162	C	-0.733993	0.058735	-0.172312
C163	C	-0.685110	0.052436	-0.149066
C164	C	-0.596350	0.046683	-0.171072
C165	C	-0.556472	0.047229	-0.216323
C166	C	-0.547467	0.040383	-0.147826
O167	O	0.585213	0.169090	-0.504004
O168	O	0.494056	-0.090076	-0.525516
O169	O	0.488081	0.055124	-0.449918
O170	O	0.591189	0.023889	-0.579602
O171	O	0.359978	0.059584	-0.452885
O172	O	0.365953	-0.085616	-0.528483
O173	O	0.457110	0.173550	-0.506971
Zn174	Zn	0.391193	0.044675	-0.518198
Zn175	Zn	0.559974	0.038798	-0.514289
O176	O	0.463086	0.028349	-0.582569
C177	C	0.815354	-0.521094	-0.008709
C178	C	0.415547	-0.125494	-0.028771
C179	C	0.375059	-0.223405	-0.031498
C180	C	0.423859	-0.270708	-0.029121
C181	C	0.149365	-0.395355	-0.030599
C182	C	0.246820	-0.353421	-0.032381
C183	C	0.294640	-0.401713	-0.030008
C184	C	0.549171	-0.790955	-0.010537
C185	C	0.286131	-0.263897	-0.032533
C186	C	0.383402	-0.360104	-0.028335
C187	C	0.432293	-0.407926	-0.025859
C188	C	0.392422	-0.497356	-0.025055
C189	C	0.303660	-0.538965	-0.026727
C190	C	0.254769	-0.491143	-0.029204
C191	C	0.263791	-0.628403	-0.025925
C192	C	0.312683	-0.676224	-0.023448
C193	C	0.401445	-0.634615	-0.021775
C194	C	0.441316	-0.545185	-0.022579
C195	C	0.530078	-0.503576	-0.020906
C196	C	0.578969	-0.551398	-0.018429
C197	C	0.539104	-0.640825	-0.017627
C198	C	0.450342	-0.682434	-0.019300
C199	C	0.587995	-0.688646	-0.015150
C200	C	0.676757	-0.647037	-0.013477
C201	C	0.716628	-0.557607	-0.014281
C202	C	0.667731	-0.509789	-0.016757
C203	C	0.569946	-0.414138	-0.021709
C204	C	0.658708	-0.372530	-0.020036
C205	C	0.707602	-0.420359	-0.017561
C206	C	0.698579	-0.283100	-0.020840
C207	C	0.649688	-0.235278	-0.023317
C208	C	0.560926	-0.276887	-0.024990
C209	C	0.521055	-0.366317	-0.024186
C210	C	0.512035	-0.229066	-0.027467
O211	O	-0.620614	0.089309	0.052274
O212	O	-0.529507	0.043784	-0.078544
O213	O	-0.523494	0.194833	-0.006033
O214	O	-0.626628	-0.061740	-0.020236
O215	O	-0.395386	0.185419	-0.005549
O216	O	-0.401400	0.034370	-0.078059
O217	O	-0.492507	0.079895	0.052758
Zn218	Zn	-0.426614	0.055638	-0.012574
Zn219	Zn	-0.595401	0.068041	-0.013212
O220	O	-0.498521	-0.071154	-0.019752
C221	C	-0.437537	0.048335	0.402491
C222	C	-0.837226	0.099430	0.210091
C223	C	-0.739773	0.100339	0.187806
C224	C	-0.691967	0.094287	0.211308
C225	C	-0.571027	0.088563	0.071568
C226	C	-0.611521	0.095108	0.121070
C227	C	-0.562739	0.089011	0.144061
C228	C	-0.171338	0.037467	0.263967
C229	C	-0.700452	0.099593	0.142516
C230	C	-0.603213	0.088528	0.189308
C231	C	-0.554892	0.082255	0.212848
C232	C	-0.466098	0.076466	0.191141
C233	C	-0.425624	0.076949	0.145894
C234	C	-0.473945	0.083222	0.122354
C235	C	-0.336822	0.071163	0.124188
C236	C	-0.288502	0.064890	0.147728
C237	C	-0.328975	0.064407	0.192975
C238	C	-0.417770	0.070196	0.214682
C239	C	-0.458244	0.069713	0.259929
C240	C	-0.409923	0.063441	0.283469
C241	C	-0.321132	0.057655	0.261765
C242	C	-0.280658	0.058138	0.216518
C243	C	-0.272811	0.051382	0.285305
C244	C	-0.313285	0.050899	0.330552
C245	C	-0.402079	0.056688	0.352259
C246	C	-0.450397	0.062957	0.328716
C247	C	-0.547046	0.075500	0.281635
C248	C	-0.587520	0.075016	0.326882
C249	C	-0.539191	0.068747	0.350423
C250	C	-0.676314	0.080806	0.348589
C251	C	-0.724634	0.087078	0.325049
C252	C	-0.684160	0.087561	0.279802
C253	C	-0.595366	0.081772	0.258095
C254	C	-0.732481	0.093834	0.256262
O255	O	-0.040608	-1.085661	-0.825229
O256	O	-0.001018	-0.826491	-0.777938
O257	O	-0.150287	-0.971682	-0.775894
O258	O	0.108661	-0.940470	-0.827272
O259	O	-0.144253	-0.976123	-0.711878
O260	O	0.005016	-0.830932	-0.713922
O261	O	-0.034575	-1.090102	-0.761213
Zn262	Zn	-0.013821	-0.961222	-0.727403
Zn263	Zn	-0.021771	-0.955371	-0.811747
O264	O	0.114695	-0.944911	-0.763256
C265	C	-0.049547	-0.210620	-0.392935
C266	C	0.026656	-0.136368	-0.395287
C267	C	0.023636	-0.087239	-0.419760
H268	H	-0.102650	-0.190329	-0.378152
H269	H	-0.050169	-0.247954	-0.422731
H270	H	0.027269	-0.099041	-0.365496
H271	H	0.079771	-0.156633	-0.410074
H272	H	0.023014	-0.124573	-0.449556
H273	H	-0.029470	-0.066954	-0.404974
H274	H	0.075342	-0.036858	-0.421362
C275	C	-0.015970	-0.142765	-0.660910
C276	C	0.062616	-0.091503	-0.647954
C277	C	0.059993	-0.001641	-0.627339
H278	H	-0.067330	-0.139240	-0.634879
H279	H	-0.019680	-0.120100	-0.681751
H280	H	0.066317	-0.114161	-0.627114
H281	H	0.113988	-0.095001	-0.673976
H282	H	0.056283	0.021024	-0.648180
H283	H	0.008629	0.001875	-0.601310
H284	H	0.113315	0.033153	-0.618550
C285	C	-0.304464	0.043644	-0.423426
C286	C	-0.215913	0.037210	-0.437785
C287	C	-0.175711	0.037690	-0.483234
H288	H	-0.303443	0.098060	-0.426347
H289	H	-0.338278	-0.006098	-0.441597
H290	H	-0.182108	0.086947	-0.419619
H291	H	-0.216909	-0.017203	-0.434874
H292	H	-0.209525	-0.012052	-0.501405
H293	H	-0.174696	0.092107	-0.486151
H294	H	-0.115628	0.033316	-0.492983
C295	C	-0.052687	-0.219494	-0.887991
C296	C	0.013665	-0.137391	-0.888858
C297	C	-0.004718	-0.091331	-0.909571
H298	H	-0.110271	-0.208526	-0.871315
H299	H	-0.052567	-0.254911	-0.918136
H300	H	0.013536	-0.101981	-0.858719
H301	H	0.071256	-0.148333	-0.905537
H302	H	-0.004598	-0.126747	-0.939716
H303	H	-0.062303	-0.080369	-0.892893
H304	H	0.040303	-0.035622	-0.910167
H305	H	0.417564	-0.755580	-0.518528
H306	H	0.191224	-0.662427	-0.027294
C307	C	0.269075	-0.773728	-0.022603
C308	C	0.180522	-0.800048	-0.024618
C309	C	0.140328	-0.889867	-0.023846
H310	H	0.268059	-0.779559	0.004614
H311	H	0.302891	-0.810976	-0.047937
H312	H	0.146715	-0.762812	0.000713
H313	H	0.181511	-0.794239	-0.051833
H314	H	0.174144	-0.927114	-0.049180
H315	H	0.139319	-0.895689	0.003371
H316	H	0.080244	-0.907739	-0.025217
C317	C	0.555616	-0.131634	-0.528311
C318	C	0.644168	-0.105322	-0.526295
C319	C	0.684377	-0.015511	-0.527079
H320	H	0.521832	-0.094359	-0.502989
H321	H	0.556621	-0.125839	-0.555539
H322	H	0.643157	-0.111110	-0.499070
H323	H	0.677975	-0.142573	-0.551615
H324	H	0.685382	-0.009716	-0.554307
H325	H	0.650586	0.021756	-0.501756
H326	H	0.744466	0.002350	-0.525715
H327	H	0.012418	-0.684570	-0.156900
C328	C	-0.031206	-0.673195	-0.429604
C329	C	-0.027553	-0.762205	-0.442803
C330	C	-0.030410	-0.803568	-0.487656
H331	H	0.018918	-0.641294	-0.448941
H332	H	-0.085761	-0.672789	-0.431736
H333	H	0.026995	-0.762606	-0.440675
H334	H	-0.077674	-0.794130	-0.423478
H335	H	-0.084964	-0.803162	-0.489788
H336	H	0.019715	-0.771660	-0.506989
H337	H	-0.027940	-0.863968	-0.496616
H338	H	0.013347	-0.692513	-0.652885
C339	C	-0.183845	0.051882	0.192778
C340	C	-0.158631	0.053678	0.147934
C341	C	-0.069452	0.047929	0.126056
H342	H	-0.179505	-0.002751	0.192911
H343	H	-0.144790	0.101412	0.208221
H344	H	-0.197674	0.004152	0.132495
H345	H	-0.162949	0.108306	0.147787
H346	H	-0.030398	0.097459	0.141499
H347	H	-0.065121	-0.006704	0.126193
H348	H	-0.052330	0.049155	0.095629
C349	C	-0.031201	-0.139723	-0.161662
C350	C	-0.111665	-0.131267	-0.160796
C351	C	-0.114680	-0.041557	-0.139862
H352	H	0.018867	-0.102196	-0.178196
H353	H	-0.028748	-0.122137	-0.131509
H354	H	-0.114109	-0.148842	-0.190944
H355	H	-0.161747	-0.168773	-0.144260
H356	H	-0.112227	-0.023971	-0.109709
H357	H	-0.064608	-0.004037	-0.156397
H358	H	-0.169277	-0.035809	-0.139267
C359	C	-0.010898	-0.378433	-0.108848
C360	C	-0.014583	-0.289433	-0.095644
C361	C	-0.011802	-0.248093	-0.050779
H362	H	0.043628	-0.378807	-0.106682
H363	H	-0.061053	-0.410385	-0.089536
H364	H	0.035567	-0.257490	-0.114951
H365	H	-0.069105	-0.289034	-0.097799
H366	H	-0.061956	-0.280044	-0.031466
H367	H	0.042725	-0.248473	-0.048617
H368	H	-0.014310	-0.187705	-0.041812
C369	C	0.269195	-0.773723	-0.522442
C370	C	0.331241	-0.806830	-0.519881
C371	C	0.291343	-0.896621	-0.519028
H372	H	0.252003	-0.808750	-0.549292
H373	H	0.217238	-0.777145	-0.496744
H374	H	0.383181	-0.803414	-0.545577
H375	H	0.348437	-0.771828	-0.493032
H376	H	0.239385	-0.900043	-0.493329
H377	H	0.274152	-0.931640	-0.545878
H378	H	0.333431	-0.919092	-0.517285
H379	H	-0.740818	0.102779	0.123104
H380	H	-0.023809	-0.160979	-0.735279
H381	H	-0.746339	0.088530	-0.372795
C382	C	0.722293	-0.696929	-0.503653
C383	C	0.799307	-0.711434	-0.540060
C384	C	0.841434	-0.757344	-0.531132
H385	H	0.681580	-0.753190	-0.499796
H386	H	0.739357	-0.661960	-0.476759
H387	H	0.782241	-0.746404	-0.566947
H388	H	0.840041	-0.655189	-0.543923
H389	H	0.858498	-0.722374	-0.504237
H390	H	0.800714	-0.813600	-0.527274
H391	H	0.893697	-0.767184	-0.555830
H392	H	0.780052	-0.386407	-0.516111
H393	H	-0.226632	0.032105	-0.368836
C394	C	-0.019626	-0.774228	-0.379737
C395	C	-0.093608	-0.829202	-0.355248
C396	C	-0.091011	-0.919037	-0.376113
H397	H	0.034857	-0.780266	-0.380367
H398	H	-0.022180	-0.791845	-0.409873
H399	H	-0.091046	-0.811590	-0.325119
H400	H	-0.148102	-0.823192	-0.354616
H401	H	-0.093564	-0.936654	-0.406250
H402	H	-0.036525	-0.925065	-0.376742
H403	H	-0.141210	-0.956348	-0.359503
H404	H	0.771070	-0.249160	-0.519423
C405	C	0.232322	-0.210581	-0.533851
C406	C	0.226507	-0.136413	-0.495216
C407	C	0.176974	-0.087233	-0.496415
H408	H	0.173259	-0.247885	-0.534474
H409	H	0.261743	-0.190211	-0.560248
H410	H	0.197084	-0.156784	-0.468826
H411	H	0.285555	-0.099088	-0.494585
H412	H	0.206395	-0.066864	-0.522812
H413	H	0.117915	-0.124545	-0.497039
H414	H	0.173029	-0.036901	-0.470205
H415	H	-0.038841	-0.524079	-0.420431
C416	C	-0.839725	0.072020	-0.216873
C417	C	-0.845968	0.152631	-0.217055
C418	C	-0.935052	0.158603	-0.195019
H419	H	-0.856677	0.070853	-0.186452
H420	H	-0.878969	0.022559	-0.232230
H421	H	-0.806736	0.202079	-0.201696
H422	H	-0.829034	0.153816	-0.247469
H423	H	-0.974296	0.109142	-0.210376
H424	H	-0.951996	0.157433	-0.164599
H425	H	-0.939301	0.213292	-0.195143
C426	C	-0.024473	-0.541655	-0.931146
C427	C	-0.020789	-0.630570	-0.944025
C428	C	-0.023582	-0.672519	-0.988867
H429	H	0.025662	-0.509983	-0.950581
H430	H	-0.079018	-0.541482	-0.933391
H431	H	0.033749	-0.630738	-0.941784
H432	H	-0.070921	-0.662265	-0.924602
H433	H	-0.078126	-0.672346	-0.991111
H434	H	0.026555	-0.640841	-1.008298
H435	H	-0.021091	-0.732854	-0.997609
H436	H	-0.275840	0.035205	0.347100
C437	C	0.003955	-0.379881	-0.606904
C438	C	0.000247	-0.290974	-0.594024
C439	C	0.002985	-0.249037	-0.549174
H440	H	0.058474	-0.380025	-0.604631
H441	H	-0.046207	-0.411595	-0.587488
H442	H	0.050405	-0.259269	-0.613435
H443	H	-0.054268	-0.290804	-0.596287
H444	H	-0.047177	-0.280750	-0.529758
H445	H	0.057505	-0.249187	-0.546904
H446	H	0.000462	-0.188712	-0.540427
C447	C	-0.821397	0.093548	0.348668
C448	C	-0.827354	0.174142	0.348314
C449	C	-0.916475	0.180135	0.370059
H450	H	-0.838770	0.092417	0.379125
H451	H	-0.860439	0.044075	0.333194
H452	H	-0.788325	0.223602	0.363789
H453	H	-0.809999	0.175291	0.317863
H454	H	-0.955517	0.130662	0.354585
H455	H	-0.933840	0.179001	0.400515
H456	H	-0.920530	0.234814	0.369818
H457	H	-0.038719	-0.156659	-0.235851
C458	C	0.157914	-0.536665	-0.530959
C459	C	0.133333	-0.625571	-0.529695
C460	C	0.044190	-0.667505	-0.531344
H461	H	0.153367	-0.536524	-0.558218
H462	H	0.118659	-0.504948	-0.505668
H463	H	0.172577	-0.657280	-0.554984
H464	H	0.137859	-0.625738	-0.502437
H465	H	0.004936	-0.635788	-0.506053
H466	H	0.039652	-0.667358	-0.558604
H467	H	0.027498	-0.727829	-0.530483
H468	H	0.771156	-0.249077	-0.019476
C469	C	0.722239	-0.696877	-0.003625
C470	C	0.673019	-0.712770	0.038748
C471	C	0.714887	-0.758660	0.047852
H472	H	0.782012	-0.661446	-0.003384
H473	H	0.724241	-0.752670	-0.026431
H474	H	0.671027	-0.656987	0.061548
H475	H	0.613248	-0.748210	0.038518
H476	H	0.716889	-0.814453	0.025046
H477	H	0.774659	-0.723224	0.048090
H478	H	0.681493	-0.769457	0.076600
C479	C	-0.004159	-0.778667	-0.877120
C480	C	0.076282	-0.786830	-0.877793
C481	C	0.079280	-0.876590	-0.898381
H482	H	-0.006585	-0.796766	-0.907306
H483	H	-0.054264	-0.815919	-0.860437
H484	H	0.126374	-0.749590	-0.894476
H485	H	0.078725	-0.768749	-0.847613
H486	H	0.029175	-0.913842	-0.881698
H487	H	0.076852	-0.894681	-0.928565
H488	H	0.133855	-0.882142	-0.898836
C489	C	-0.830728	0.065066	-0.148233
C490	C	-0.855279	0.063264	-0.103440
C491	C	-0.944372	0.069124	-0.081241
H492	H	-0.870067	0.015596	-0.163520
H493	H	-0.835166	0.119748	-0.148267
H494	H	-0.850849	0.008589	-0.103409
H495	H	-0.815964	0.112731	-0.088141
H496	H	-0.948810	0.123805	-0.081275
H497	H	-0.983703	0.019653	-0.096531
H498	H	-0.961039	0.067911	-0.050845
H499	H	-0.005182	-0.254109	-0.622664
C500	C	0.232327	-0.210541	-0.033837
C501	C	0.226504	-0.136391	0.004806
C502	C	0.176951	-0.087212	0.003622
H503	H	0.173267	-0.247852	-0.034462
H504	H	0.261737	-0.190153	-0.060229
H505	H	0.197091	-0.156779	0.031191
H506	H	0.285549	-0.099058	0.005438
H507	H	0.206361	-0.066824	-0.022770
H508	H	0.117895	-0.124531	0.002997
H509	H	0.173000	-0.036892	0.029838
H510	H	-0.011748	-0.757184	-0.305606
C511	C	0.693307	-0.137784	-0.024183
C512	C	0.781867	-0.111470	-0.022178
C513	C	0.822074	-0.021664	-0.022969
H514	H	0.659531	-0.100503	0.001140
H515	H	0.694299	-0.131998	-0.051411
H516	H	0.780871	-0.117248	0.005047
H517	H	0.815666	-0.148727	-0.047499
H518	H	0.823065	-0.015879	-0.050197
H519	H	0.788291	0.015609	0.002354
H520	H	0.882168	-0.003801	-0.021613
C521	C	-0.267790	0.020001	-0.142353
C522	C	-0.261965	0.097113	-0.105349
C523	C	-0.212435	0.093362	-0.081431
H524	H	-0.208729	0.017149	-0.161805
H525	H	-0.297217	-0.031997	-0.131770
H526	H	-0.232535	0.149097	-0.115932
H527	H	-0.321010	0.099980	-0.085886
H528	H	-0.241862	0.041363	-0.070848
H529	H	-0.153378	0.090507	-0.100887
H530	H	-0.208483	0.145676	-0.056319
C531	C	-0.728406	0.051876	-0.099723
C532	C	-0.666336	0.045123	-0.084007
C533	C	-0.706185	0.044617	-0.038554
H534	H	-0.780371	0.001922	-0.097259
H535	H	-0.745562	0.106082	-0.082012
H536	H	-0.649193	-0.009077	-0.101713
H537	H	-0.614369	0.095072	-0.086460
H538	H	-0.723342	0.098823	-0.020843
H539	H	-0.758150	-0.005337	-0.036094
H540	H	-0.664075	0.040043	-0.027884
C541	C	-0.292844	0.071747	0.074867
C542	C	-0.354409	0.078527	0.058833
C543	C	-0.313920	0.079082	0.013401
H544	H	-0.275617	0.017565	0.057236
H545	H	-0.240846	0.121722	0.072557
H546	H	-0.406391	0.028557	0.061139
H547	H	-0.371641	0.132707	0.076451
H548	H	-0.261922	0.129056	0.011091
H549	H	-0.296694	0.024898	-0.004226
H550	H	-0.355682	0.083690	0.002517
H551	H	-0.215904	0.060157	0.129977
C552	C	-0.720543	0.080100	0.397890
C553	C	-0.797151	0.006398	0.401146
C554	C	-0.837913	0.005707	0.446552
H555	H	-0.737851	0.134243	0.415515
H556	H	-0.678919	0.075466	0.408855
H557	H	-0.838768	0.011040	0.390186
H558	H	-0.779869	-0.047756	0.383530
H559	H	-0.796289	0.001073	0.457517
H560	H	-0.855215	0.059853	0.464173
H561	H	-0.889891	-0.044303	0.448766
H562	H	-0.020027	-0.251971	-0.124027
H563	H	0.191099	-0.662437	-0.527221
H564	H	0.682238	-0.162236	-0.523943
H565	H	-0.015274	-0.667410	-0.915397
H566	H	0.003321	-0.760550	-0.802778
H567	H	-0.217624	0.025258	-0.300336
H568	H	0.544632	-0.155941	-0.028119
H569	H	-0.453130	0.055597	-0.412328
H570	H	-0.580066	0.039960	-0.110823
H571	H	0.182201	-0.525171	-0.030575
H572	H	-0.572284	0.068372	0.387422
H573	H	0.417746	-0.755558	-0.018645
H574	H	0.780178	-0.386331	-0.016193
H575	H	-0.440845	0.083623	0.085362
H576	H	-0.805083	0.098565	0.274011
