data_functionalizedCrystal
_audit_creation_method	'MofGen! by Chris Wilmer'
_symmetry_space_group_name_H-M	'P1'
_symmetry_Int_Tables_number	1
_symmetry_cell_setting	triclinic
loop_
_symmetry_equiv_pos_as_xyz
  x,y,z
_cell_length_a	19.805405
_cell_length_b	18.215407
_cell_length_c	18.215399
_cell_angle_alpha	89.979405
_cell_angle_beta	90.030610
_cell_angle_gamma	89.973669
loop_
_atom_site_label
_atom_site_type_symbol
_atom_site_fract_x
_atom_site_fract_y
_atom_site_fract_z
Zn1	Zn	-0.269472	-1.125064	0.416117
Zn2	Zn	0.230528	-0.625064	0.916117
Zn3	Zn	-0.382663	-1.124969	0.293045
Zn4	Zn	0.117337	-0.624969	0.793045
Zn5	Zn	-0.269493	-1.001997	0.293063
Zn6	Zn	0.230507	-0.501997	0.793063
Zn7	Zn	-0.382624	-1.001959	0.416068
Zn8	Zn	0.117376	-0.501959	0.916068
O9	O	-0.326063	-1.063497	0.354573
O10	O	0.173937	-0.563497	0.854573
O11	O	-0.284494	-1.228036	0.399804
O12	O	0.215506	-0.728036	0.899804
O13	O	-0.367675	-1.108633	0.190063
O14	O	0.132325	-0.608633	0.690063
O15	O	-0.174773	-1.018377	0.309414
O16	O	0.325227	-0.518377	0.809414
O17	O	-0.367655	-1.227966	0.309384
O18	O	0.132345	-0.727966	0.809384
O19	O	-0.174758	-1.108794	0.399822
O20	O	0.325242	-0.608794	0.899822
O21	O	-0.284530	-1.018285	0.190076
O22	O	0.215470	-0.518285	0.690076
O23	O	-0.284492	-0.899008	0.309367
O24	O	0.215508	-0.399008	0.809367
O25	O	-0.367589	-1.018313	0.519059
O26	O	0.132411	-0.518313	1.019059
O27	O	-0.367609	-0.898980	0.399739
O28	O	0.132391	-0.398980	0.899739
O29	O	-0.284456	-1.108758	0.519095
O30	O	0.215544	-0.608758	1.019095
O31	O	-0.477374	-1.108596	0.309337
O32	O	0.022626	-0.608596	0.809337
O33	O	-0.477346	-1.018221	0.399721
O34	O	0.022654	-0.518221	0.899721
C35	C	-0.326049	-0.872291	0.354550
C36	C	0.173951	-0.372291	0.854550
C37	C	-0.326060	-0.790492	0.354557
C38	C	0.173940	-0.290492	0.854557
C39	C	-0.501919	-1.063415	0.354538
C40	C	-0.001919	-0.563415	0.854538
C41	C	-0.577151	-1.063446	0.354547
C42	C	-0.077151	-0.563446	0.854547
C43	C	-0.369406	-0.602303	0.401552
C44	C	0.130594	-0.102303	0.901552
C45	C	-0.369407	-0.525444	0.401560
C46	C	0.130593	-0.025444	0.901560
C47	C	-0.282724	-0.525444	0.307598
C48	C	0.217276	-0.025444	0.807598
C49	C	-0.282719	-0.602301	0.307594
C50	C	0.217281	-0.102301	0.807594
C51	C	-0.326064	-0.640729	0.354570
C52	C	0.173936	-0.140729	0.854570
C53	C	-0.326070	-0.487013	0.354582
C54	C	0.173930	0.012987	0.854582
C55	C	-0.326071	-0.403679	0.354590
C56	C	0.173929	0.096321	0.854590
C57	C	-0.326062	-0.724068	0.354563
C58	C	0.173938	-0.224068	0.854563
C59	C	-0.612487	-1.110550	0.307533
C60	C	-0.112487	-0.610550	0.807533
C61	C	-0.683176	-1.110582	0.307550
C62	C	-0.183176	-0.610582	0.807550
C63	C	-0.718526	-1.063505	0.354577
C64	C	-0.218526	-0.563505	0.854577
C65	C	-0.683185	-1.016399	0.401596
C66	C	-0.183185	-0.516399	0.901596
C67	C	-0.612498	-1.016372	0.401583
C68	C	-0.112498	-0.516372	0.901583
C69	C	-0.968258	-1.016507	0.401650
C70	C	-0.468258	-0.516507	0.901650
C71	C	-1.038950	-1.016536	0.401658
C72	C	-0.538950	-0.516536	0.901658
C73	C	-1.038936	-1.110717	0.307617
C74	C	-0.538936	-0.610717	0.807617
C75	C	-0.968249	-1.110690	0.307604
C76	C	-0.468249	-0.610690	0.807604
C77	C	-0.932914	-1.063587	0.354626
C78	C	-0.432914	-0.563587	0.854626
C79	C	-0.856265	-1.063555	0.354608
C80	C	-0.356265	-0.563555	0.854608
C81	C	-0.795173	-1.063533	0.354591
C82	C	-0.295173	-0.563533	0.854591
C83	C	-0.149520	-1.063601	0.354625
C84	C	0.350480	-0.563601	0.854625
C85	C	-0.074288	-1.063645	0.354647
C86	C	0.425712	-0.563645	0.854647
C87	C	-0.326016	-1.063542	0.546526
C88	C	0.173984	-0.563542	1.046526
C89	C	-0.325996	-1.063561	0.628325
C90	C	0.174004	-0.563561	1.128325
C91	C	-0.326074	-0.255450	0.354594
C92	C	0.173926	0.244550	0.854594
C93	C	-0.326074	-0.337249	0.354595
C94	C	0.173926	0.162751	0.854595
C95	C	-0.326060	-1.063495	0.163367
C96	C	0.173940	-0.563495	0.663367
C97	C	-0.325889	-1.063619	0.081569
C98	C	0.174111	-0.563619	0.581569
C99	C	-0.282669	-1.110673	0.816539
C100	C	0.217331	-0.610673	1.316539
C101	C	-0.282649	-1.110682	0.893398
C102	C	0.217351	-0.610682	1.393398
C103	C	-0.369219	-1.016502	0.893350
C104	C	0.130781	-0.516502	1.393350
C105	C	-0.369235	-1.016490	0.816492
C106	C	0.130765	-0.516490	1.316492
C107	C	-0.325961	-1.063580	0.778089
C108	C	0.174039	-0.563580	1.278089
C109	C	-0.325925	-1.063600	0.931805
C110	C	0.174075	-0.563600	1.431805
C111	C	-0.325904	-1.063609	1.015139
C112	C	0.174096	-0.563609	1.515139
C113	C	-0.325981	-1.063570	0.694750
C114	C	0.174019	-0.563570	1.194750
H115	H	-0.404698	-0.633589	0.439805
H116	H	0.095302	-0.133589	0.939805
H117	H	-0.247421	-0.633588	0.269335
H118	H	0.252579	-0.133588	0.769335
H119	H	-1.067714	-1.149073	0.269333
H120	H	-0.567714	-0.649073	0.769333
H121	H	-0.404488	-0.978136	0.785185
H122	H	0.095512	-0.478136	1.285185
Cl123	Cl	-0.568053	-1.169732	0.248405
Cl124	Cl	-0.068053	-0.669732	0.748405
H125	H	-0.939494	-0.978153	0.439936
H126	H	-0.439494	-0.478153	0.939936
H127	H	-0.247395	-1.149028	0.924701
H128	H	0.252605	-0.649028	1.424701
H129	H	-0.404699	-0.494162	0.439819
H130	H	0.095301	0.005838	0.939819
H131	H	-0.711973	-0.978071	0.439889
H132	H	-0.211973	-0.478071	0.939889
H133	H	-0.583727	-0.978016	0.439867
H134	H	-0.083727	-0.478016	0.939867
H135	H	-0.711943	-1.148938	0.269265
H136	H	-0.211943	-0.648938	0.769265
Cl137	Cl	-0.228238	-0.477129	0.248544
Cl138	Cl	0.271762	0.022871	0.748544
Cl139	Cl	-1.083390	-0.957351	0.460784
Cl140	Cl	-0.583390	-0.457351	0.960784
Cl141	Cl	-0.923812	-1.169875	0.248482
Cl142	Cl	-0.423812	-0.669875	0.748482
H143	H	-0.247430	-1.149014	0.785274
H144	H	0.252570	-0.649014	1.285274
H145	H	-0.404453	-0.978165	0.924627
H146	H	0.095547	-0.478165	1.424627
