data_functionalizedCrystal
_audit_creation_method	'MofGen! by Chris Wilmer'
_symmetry_space_group_name_H-M	'P1'
_symmetry_Int_Tables_number	1
_symmetry_cell_setting	triclinic
loop_
_symmetry_equiv_pos_as_xyz
  x,y,z
_cell_length_a	18.050591
_cell_length_b	18.050589
_cell_length_c	18.050583
_cell_angle_alpha	89.971909
_cell_angle_beta	89.975765
_cell_angle_gamma	90.024227
loop_
_atom_site_label
_atom_site_type_symbol
_atom_site_fract_x
_atom_site_fract_y
_atom_site_fract_z
Zn1	Zn	1.135317	-0.295713	-0.420054
Zn2	Zn	1.635317	0.204287	0.079946
Zn3	Zn	1.135220	-0.419918	-0.295873
Zn4	Zn	1.635220	0.080082	0.204127
Zn5	Zn	1.011129	-0.295738	-0.295865
Zn6	Zn	1.511129	0.204262	0.204135
Zn7	Zn	1.011084	-0.419857	-0.420009
Zn8	Zn	1.511084	0.080143	0.079991
O9	O	1.073188	-0.357807	-0.357950
O10	O	1.573188	0.142193	0.142050
O11	O	1.239229	-0.312204	-0.403604
O12	O	1.739229	0.187796	0.096396
O13	O	1.118738	-0.403481	-0.191948
O14	O	1.618738	0.096519	0.308052
O15	O	1.027662	-0.191810	-0.312354
O16	O	1.527662	0.308190	0.187646
O17	O	1.239158	-0.403457	-0.312369
O18	O	1.739158	0.096543	0.187631
O19	O	1.118902	-0.191792	-0.403595
O20	O	1.618902	0.308208	0.096405
O21	O	1.027568	-0.312246	-0.191942
O22	O	1.527568	0.187754	0.308058
O23	O	0.907198	-0.312187	-0.312311
O24	O	1.407198	0.187813	0.187689
O25	O	1.027585	-0.403354	-0.523940
O26	O	1.527585	0.096646	-0.023940
O27	O	0.907165	-0.403377	-0.403519
O28	O	1.407165	0.096623	0.096481
O29	O	1.118859	-0.312146	-0.523973
O30	O	1.618859	0.187854	-0.023973
O31	O	1.118694	-0.523835	-0.312325
O32	O	1.618694	-0.023835	0.187675
O33	O	1.027492	-0.523790	-0.403527
O34	O	1.527492	-0.023790	0.096473
C35	C	0.880235	-0.357779	-0.357909
C36	C	1.380235	0.142221	0.142091
C37	C	0.797690	-0.357785	-0.357909
C38	C	1.297690	0.142215	0.142091
C39	C	0.598235	-0.308138	-0.308425
C40	C	1.098235	0.191862	0.191575
C41	C	0.548815	-0.375877	-0.290154
C42	C	1.048815	0.124123	0.209846
C43	C	0.646559	-0.357807	-0.357943
C44	C	1.146559	0.142193	0.142057
C45	C	0.548898	-0.290092	-0.376212
C46	C	1.048898	0.209908	0.123788
C47	C	0.500574	-0.357823	-0.357974
C48	C	1.000574	0.142177	0.142026
C49	C	0.598226	-0.425582	-0.339637
C50	C	1.098226	0.074418	0.160363
C51	C	0.598314	-0.339751	-0.425726
C52	C	1.098314	0.160249	0.074274
C53	C	0.548915	-0.407537	-0.407481
C54	C	1.048915	0.092463	0.092519
C55	C	0.730658	-0.357797	-0.357923
C56	C	1.230658	0.142203	0.142077
C57	C	0.416478	-0.357841	-0.357994
C58	C	0.916478	0.142159	0.142006
C59	C	1.073098	-0.550759	-0.357938
C60	C	1.573098	-0.050759	0.142062
C61	C	1.073127	-0.633304	-0.357958
C62	C	1.573127	-0.133304	0.142042
C63	C	1.023580	-0.832758	-0.407536
C64	C	1.523580	-0.332758	0.092464
C65	C	1.005479	-0.882202	-0.339767
C66	C	1.505479	-0.382202	0.160233
C67	C	1.073200	-0.784435	-0.357967
C68	C	1.573200	-0.284435	0.142033
C69	C	1.091339	-0.882072	-0.425744
C70	C	1.591339	-0.382072	0.074256
C71	C	1.073269	-0.930420	-0.357983
C72	C	1.573269	-0.430420	0.142017
C73	C	1.055063	-0.832792	-0.290162
C74	C	1.555063	-0.332792	0.209838
C75	C	1.140955	-0.832657	-0.376186
C76	C	1.640955	-0.332657	0.123814
C77	C	1.122879	-0.882080	-0.308370
C78	C	1.622879	-0.382080	0.191630
C79	C	1.073159	-0.700337	-0.357959
C80	C	1.573159	-0.200337	0.142041
C81	C	1.073311	-1.014516	-0.357983
C82	C	1.573311	-0.514516	0.142017
C83	C	1.266893	-0.357835	-0.357992
C84	C	1.766893	0.142165	0.142008
C85	C	1.349439	-0.357847	-0.358010
C86	C	1.849439	0.142153	0.141990
C87	C	1.073228	-0.357740	-0.551656
C88	C	1.573228	0.142260	-0.051656
C89	C	1.073245	-0.357712	-0.634202
C90	C	1.573245	0.142288	-0.134202
C91	C	1.073298	-0.164101	-0.357979
C92	C	1.573298	0.335899	0.142021
C93	C	1.073345	-0.081555	-0.357991
C94	C	1.573345	0.418445	0.142009
C95	C	1.122926	-0.308063	-0.883046
C96	C	1.622926	0.191937	-0.383046
C97	C	1.141048	-0.375827	-0.833639
C98	C	1.641048	0.124173	-0.333639
C99	C	1.073293	-0.357665	-0.931322
C100	C	1.573293	0.142335	-0.431322
C101	C	1.055182	-0.289927	-0.833648
C102	C	1.555182	0.210073	-0.333648
C103	C	1.073271	-0.357684	-0.785337
C104	C	1.573271	0.142316	-0.285337
C105	C	1.091450	-0.425465	-0.883003
C106	C	1.591450	0.074535	-0.383003
C107	C	1.005553	-0.339519	-0.883016
C108	C	1.505553	0.160481	-0.383016
C109	C	1.023649	-0.407331	-0.833631
C110	C	1.523649	0.092669	-0.333631
C111	C	1.073307	-0.357652	-1.015421
C112	C	1.573307	0.142348	-0.515421
C113	C	1.073257	-0.357704	-0.701241
C114	C	1.573257	0.142296	-0.201241
C115	C	1.073190	-0.357819	-0.164998
C116	C	1.573190	0.142181	0.335002
C117	C	1.073317	-0.357638	-0.082453
C118	C	1.573317	0.142362	0.417547
H119	H	0.527396	-0.449596	-0.449370
H120	H	1.027396	0.050404	0.050630
N121	N	0.521520	-0.395058	-0.218270
N122	N	1.021520	0.104942	0.281730
N123	N	0.481889	-0.451276	-0.210091
N124	N	0.981889	0.048724	0.289909
H125	H	0.462612	-0.464819	-0.159322
H126	H	0.962612	0.035181	0.340678
H127	H	0.527191	-0.232827	-0.391625
H128	H	1.027191	0.267173	0.108375
N129	N	0.625300	-0.497448	-0.320187
N130	N	1.125300	0.002552	0.179813
N131	N	0.693492	-0.509033	-0.317011
N132	N	1.193492	-0.009033	0.182989
H133	H	0.712616	-0.559787	-0.303273
H134	H	1.212616	-0.059787	0.196727
N135	N	0.625603	-0.320547	-0.497601
N136	N	1.125603	0.179453	0.002399
N137	N	0.609844	-0.259091	-0.525363
N138	N	1.109844	0.240909	-0.025363
H139	H	0.629117	-0.245520	-0.576125
H140	H	1.129117	0.254480	-0.076125
H141	H	1.198324	-0.391187	-0.811947
H142	H	1.698324	0.108813	-0.311947
N143	N	1.175618	-0.255493	-0.910282
N144	N	1.675618	0.244507	-0.410282
N145	N	1.154615	-0.202724	-0.949905
N146	N	1.654615	0.297276	-0.449905
H147	H	1.191829	-0.165599	-0.969143
H148	H	1.691829	0.334401	-0.469143
N149	N	1.110734	-0.497357	-0.910091
N150	N	1.610734	0.002643	-0.410091
N151	N	1.113879	-0.508944	-0.978286
N152	N	1.613879	-0.008944	-0.478286
H153	H	1.127499	-0.559716	-0.997420
H154	H	1.627499	-0.059716	-0.497420
N155	N	1.035964	-0.218063	-0.806439
N156	N	1.535964	0.281937	-0.306439
N157	N	1.032344	-0.206711	-0.738228
N158	N	1.532344	0.293289	-0.238228
H159	H	1.018775	-0.155955	-0.719013
H160	H	1.518775	0.344045	-0.219013
H161	H	1.198207	-0.810881	-0.391613
H162	H	1.698207	-0.310881	0.108387
N163	N	1.035768	-0.805762	-0.218241
N164	N	1.535768	-0.305762	0.281759
N165	N	1.074866	-0.822073	-0.163477
N166	N	1.574866	-0.322073	0.336523
H167	H	1.061237	-0.802981	-0.112684
H168	H	1.561237	-0.302981	0.387316
N169	N	0.970864	-0.805568	-0.460037
N170	N	1.470864	-0.305568	0.039963
N171	N	0.962762	-0.737359	-0.468824
N172	N	1.462762	-0.237359	0.031176
H173	H	0.925529	-0.718153	-0.505899
H174	H	1.425529	-0.218153	-0.005899
H175	H	0.948213	-0.903981	-0.324371
H176	H	1.448213	-0.403981	0.175629
H177	H	1.164870	-0.903599	-0.266409
H178	H	1.664870	-0.403599	0.233591
N179	N	1.110540	-0.909231	-0.497642
N180	N	1.610540	-0.409231	0.002358
N181	N	1.071087	-0.893414	-0.552297
N182	N	1.571087	-0.393414	-0.052297
H183	H	1.084641	-0.912594	-0.603077
H184	H	1.584641	-0.412594	-0.103077
N185	N	0.970985	-0.460027	-0.806591
N186	N	1.470985	0.039973	-0.306591
N187	N	0.977749	-0.527060	-0.822554
N188	N	1.477749	-0.027060	-0.322554
H189	H	0.940558	-0.564279	-0.803456
H190	H	1.440558	-0.064279	-0.303456
N191	N	0.933727	-0.320211	-0.910255
N192	N	1.433727	0.179789	-0.410255
N193	N	0.925892	-0.264601	-0.950789
N194	N	1.425892	0.235399	-0.450789
H195	H	0.875164	-0.250957	-0.970029
H196	H	1.375164	0.249043	-0.470029
N197	N	0.625397	-0.255504	-0.255831
N198	N	1.125397	0.244496	0.244169
N199	N	0.609503	-0.262250	-0.188759
N200	N	1.109503	0.237750	0.311241
H201	H	0.628686	-0.225081	-0.151613
H202	H	1.128686	0.274919	0.348387
