data_functionalizedCrystal
_audit_creation_method	'MofGen! by Chris Wilmer'
_symmetry_space_group_name_H-M	'P1'
_symmetry_Int_Tables_number	1
_symmetry_cell_setting	triclinic
loop_
_symmetry_equiv_pos_as_xyz
  x,y,z
_cell_length_a	16.109296
_cell_length_b	15.186229
_cell_length_c	16.109301
_cell_angle_alpha	90.005167
_cell_angle_beta	83.460385
_cell_angle_gamma	90.001331
loop_
_atom_site_label
_atom_site_type_symbol
_atom_site_fract_x
_atom_site_fract_y
_atom_site_fract_z
O1	O	-1.103133	-0.073190	-0.106845
O2	O	-0.861071	-0.073201	-0.120149
O3	O	-0.988752	-0.073186	0.007534
O4	O	-0.975452	-0.073205	-0.234528
O5	O	-0.988743	0.073271	0.007536
O6	O	-0.861062	0.073256	-0.120147
O7	O	-1.103125	0.073267	-0.106843
Zn8	Zn	-0.982092	0.096515	-0.113495
Zn9	Zn	-0.982103	-0.096449	-0.113497
O10	O	-0.975444	0.073253	-0.234526
C11	C	-0.830092	0.000026	-0.119610
C12	C	-0.737796	0.000022	-0.117996
C13	C	-0.428797	0.000034	-0.188486
C14	C	-0.515517	0.000028	-0.190009
C15	C	-0.535391	0.000028	-0.038520
C16	C	-0.448672	0.000028	-0.036998
C17	C	-0.395377	0.000035	-0.111983
C18	C	-0.568816	0.000030	-0.115029
C19	C	-0.662843	0.000024	-0.116681
C20	C	-0.301345	0.000040	-0.110332
N21	N	-0.982091	0.228208	-0.113493
C22	C	-0.988209	0.000043	0.038510
C23	C	-0.986594	0.000044	0.130805
C24	C	-0.134103	0.000040	-0.107387
C25	C	-0.226397	0.000043	-0.109016
N26	N	-0.982112	-0.228141	-0.113493
C27	C	-1.038647	0.453937	-0.056974
C28	C	-1.038650	0.546127	-0.056972
C29	C	-0.925549	0.546123	-0.170014
C30	C	-0.925543	0.453935	-0.170012
C31	C	-0.982097	0.407844	-0.113492
C32	C	-0.982105	0.592222	-0.113493
C33	C	-0.982108	0.692178	-0.113491
C34	C	-0.982094	0.307882	-0.113493
C35	C	-0.975987	0.000022	-0.265502
C36	C	-0.977602	0.000015	-0.357797
C37	C	-1.058602	0.000033	0.353079
C38	C	-1.057078	0.000026	0.439800
C39	C	-0.905588	0.000023	0.419922
C40	C	-0.907113	0.000024	0.333204
C41	C	-0.983622	0.000033	0.299785
C42	C	-0.980573	0.000025	0.473224
C43	C	-0.978920	0.000017	0.567250
C44	C	-0.985276	0.000040	0.205753
H45	H	-0.421462	0.000025	0.025304
H46	H	-0.542723	0.000027	-0.252306
H47	H	-0.843297	0.000016	0.447143
H48	H	-0.879506	0.583659	-0.216032
F49	F	-0.865349	0.404875	-0.230166
H50	H	-0.846052	0.000021	0.289808
H51	H	-1.120900	0.000040	0.325873
F52	F	-1.136881	0.000024	0.496516
H53	H	-0.385406	0.000040	-0.249544
H54	H	-0.578794	0.000024	0.022530
F55	F	-1.098834	0.404888	0.003182
H56	H	-1.084697	0.583653	-0.010948
