data_functionalizedCrystal
_audit_creation_method	'MofGen! by Chris Wilmer'
_symmetry_space_group_name_H-M	'P1'
_symmetry_Int_Tables_number	1
_symmetry_cell_setting	triclinic
loop_
_symmetry_equiv_pos_as_xyz
  x,y,z
_cell_length_a	19.077212
_cell_length_b	19.077068
_cell_length_c	18.215407
_cell_angle_alpha	87.713242
_cell_angle_beta	92.314333
_cell_angle_gamma	94.708021
loop_
_atom_site_label
_atom_site_type_symbol
_atom_site_fract_x
_atom_site_fract_y
_atom_site_fract_z
Zn1	Zn	1.066377	-0.237619	0.470998
Zn2	Zn	1.316377	0.012381	0.720998
Zn3	Zn	1.566377	0.262381	0.970998
Zn4	Zn	1.816377	0.512381	1.220998
Zn5	Zn	1.061568	-0.355476	0.352673
Zn6	Zn	1.311568	-0.105476	0.602673
Zn7	Zn	1.561568	0.144524	0.852673
Zn8	Zn	1.811568	0.394524	1.102673
Zn9	Zn	0.948508	-0.242325	0.343178
Zn10	Zn	1.198508	0.007675	0.593178
Zn11	Zn	1.448508	0.257675	0.843178
Zn12	Zn	1.698508	0.507675	1.093178
Zn13	Zn	0.943713	-0.360197	0.470932
Zn14	Zn	1.193713	-0.110197	0.720932
Zn15	Zn	1.443713	0.139803	0.970932
Zn16	Zn	1.693713	0.389803	1.220932
O17	O	1.005041	-0.298904	0.409445
O18	O	1.255041	-0.048904	0.659445
O19	O	1.505041	0.201096	0.909445
O20	O	1.755041	0.451096	1.159445
O21	O	1.164390	-0.249308	0.459303
O22	O	1.414390	0.000692	0.709303
O23	O	1.664390	0.250692	0.959303
O24	O	1.914390	0.500692	1.209303
O25	O	1.046565	-0.340460	0.248429
O26	O	1.296565	-0.090460	0.498429
O27	O	1.546565	0.159540	0.748429
O28	O	1.796565	0.409540	0.998429
O29	O	0.968162	-0.143047	0.356188
O30	O	1.218162	0.106953	0.606188
O31	O	1.468162	0.356953	0.856188
O32	O	1.718162	0.606953	1.106188
O33	O	1.160858	-0.335897	0.372370
O34	O	1.410858	-0.085897	0.622370
O35	O	1.660858	0.164103	0.872370
O36	O	1.910858	0.414103	1.122370
O37	O	1.054760	-0.139590	0.450097
O38	O	1.304760	0.110410	0.700097
O39	O	1.554760	0.360410	0.950097
O40	O	1.804760	0.610410	1.200097
O41	O	0.963500	-0.257328	0.241453
O42	O	1.213500	-0.007328	0.491453
O43	O	1.463500	0.242672	0.741453
O44	O	1.713500	0.492672	0.991453
O45	O	0.849220	-0.261906	0.356124
O46	O	1.099220	-0.011906	0.606124
O47	O	1.349220	0.238094	0.856124
O48	O	1.599220	0.488094	1.106124
O49	O	0.959990	-0.343943	0.573925
O50	O	1.209990	-0.093943	0.823925
O51	O	1.459990	0.156057	1.073925
O52	O	1.709990	0.406057	1.323925
O53	O	0.845697	-0.348506	0.449984
O54	O	1.095697	-0.098506	0.699984
O55	O	1.345697	0.151494	0.949984
O56	O	1.595697	0.401494	1.199984
O57	O	1.050110	-0.253886	0.573974
O58	O	1.300110	-0.003886	0.823974
O59	O	1.550110	0.246114	1.073974
O60	O	1.800110	0.496114	1.323974
O61	O	1.041916	-0.454756	0.372306
O62	O	1.291916	-0.204756	0.622306
O63	O	1.541916	0.045244	0.872306
O64	O	1.791916	0.295244	1.122306
O65	O	0.955327	-0.458224	0.459190
O66	O	1.205327	-0.208224	0.709190
O67	O	1.455327	0.041776	0.959190
O68	O	1.705327	0.291776	1.209190
C69	C	0.821879	-0.306229	0.402017
C70	C	1.071879	-0.056229	0.652017
C71	C	1.321879	0.193771	0.902017
C72	C	1.571879	0.443771	1.152017
C73	C	0.743521	-0.309380	0.398857
C74	C	0.993521	-0.059380	0.648857
C75	C	1.243521	0.190620	0.898857
C76	C	1.493521	0.440620	1.148857
C77	C	0.302249	-0.331947	0.376226
C78	C	0.552249	-0.081947	0.626226
C79	C	0.802249	0.168053	0.876226
C80	C	1.052249	0.418053	1.126226
C81	C	0.375875	-0.328983	0.379190
C82	C	0.625875	-0.078983	0.629190
C83	C	0.875875	0.171017	0.879190
C84	C	1.125875	0.421017	1.129190
C85	C	0.414527	-0.282493	0.426012
C86	C	0.664527	-0.032493	0.676012
C87	C	0.914527	0.217507	0.926012
C88	C	1.164527	0.467507	1.176012
C89	C	0.379549	-0.238958	0.469869
C90	C	0.629549	0.011042	0.719869
C91	C	0.879549	0.261042	0.969869
C92	C	1.129549	0.511042	1.219869
C93	C	0.305924	-0.241919	0.466902
C94	C	0.555924	0.008081	0.716902
C95	C	0.805924	0.258081	0.966902
C96	C	1.055924	0.508081	1.216902
C97	C	0.634918	-0.268807	0.439746
C98	C	0.884918	-0.018807	0.689746
C99	C	1.134918	0.231193	0.939746
C100	C	1.384918	0.481193	1.189746
C101	C	0.708548	-0.265851	0.442712
C102	C	0.958548	-0.015851	0.692712
C103	C	1.208548	0.234149	0.942712
C104	C	1.458548	0.484149	1.192712
C105	C	0.704870	-0.355875	0.352031
C106	C	0.954870	-0.105875	0.602031
C107	C	1.204870	0.144125	0.852031
C108	C	1.454870	0.394125	1.102031
C109	C	0.631244	-0.358835	0.349071
C110	C	0.881244	-0.108835	0.599071
C111	C	1.131244	0.141165	0.849071
C112	C	1.381244	0.391165	1.099071
C113	C	0.596272	-0.315298	0.392925
C114	C	0.846272	-0.065298	0.642925
C115	C	1.096272	0.184702	0.892925
C116	C	1.346272	0.434702	1.142925
N117	N	0.489784	-0.279463	0.429044
N118	N	0.739784	-0.029463	0.679044
N119	N	0.989784	0.220537	0.929044
N120	N	1.239784	0.470537	1.179044
N121	N	0.521016	-0.318324	0.389889
N122	N	0.771016	-0.068324	0.639889
N123	N	1.021016	0.181676	0.889889
N124	N	1.271016	0.431676	1.139889
C125	C	0.997599	-0.482069	0.416788
C126	C	1.247599	-0.232069	0.666788
C127	C	1.497599	0.017931	0.916788
C128	C	1.747599	0.267931	1.166788
C129	C	0.994479	-0.560425	0.419956
C130	C	1.244479	-0.310425	0.669956
C131	C	1.494479	-0.060425	0.919956
C132	C	1.744479	0.189575	1.169956
C133	C	1.038130	-0.595406	0.376249
C134	C	1.288130	-0.345406	0.626249
C135	C	1.538130	-0.095406	0.876249
C136	C	1.788130	0.154594	1.126249
C137	C	1.035200	-0.669030	0.379234
C138	C	1.285200	-0.419030	0.629234
C139	C	1.535200	-0.169030	0.879234
C140	C	1.785200	0.080970	1.129234
C141	C	0.988615	-0.707671	0.425922
C142	C	1.238615	-0.457671	0.675922
C143	C	1.488615	-0.207671	0.925922
C144	C	1.738615	0.042329	1.175922
C145	C	0.944962	-0.672685	0.469634
C146	C	1.194962	-0.422685	0.719634
C147	C	1.444962	-0.172685	0.969634
C148	C	1.694962	0.077315	1.219634
C149	C	0.947896	-0.599063	0.466653
C150	C	1.197896	-0.349063	0.716653
C151	C	1.447896	-0.099063	0.966653
C152	C	1.697896	0.150937	1.216653
C153	C	0.975006	-0.928056	0.439688
C154	C	1.225006	-0.678056	0.689688
C155	C	1.475006	-0.428056	0.939688
C156	C	1.725006	-0.178056	1.189688
C157	C	0.972073	-1.001683	0.442664
C158	C	1.222073	-0.751683	0.692664
C159	C	1.472073	-0.501683	0.942664
C160	C	1.722073	-0.251683	1.192664
C161	C	1.062313	-0.998023	0.352265
C162	C	1.312313	-0.748023	0.602265
C163	C	1.562313	-0.498023	0.852265
C164	C	1.812313	-0.248023	1.102265
C165	C	1.065240	-0.924400	0.349284
C166	C	1.315240	-0.674400	0.599284
C167	C	1.565240	-0.424400	0.849284
C168	C	1.815240	-0.174400	1.099284
C169	C	1.021589	-0.889420	0.392999
C170	C	1.271589	-0.639420	0.642999
C171	C	1.521589	-0.389420	0.892999
C172	C	1.771589	-0.139420	1.142999
N173	N	0.985618	-0.782927	0.428972
N174	N	1.235618	-0.532927	0.678972
N175	N	1.485618	-0.282927	0.928972
N176	N	1.735618	-0.032927	1.178972
N177	N	1.024591	-0.814165	0.389952
N178	N	1.274591	-0.564165	0.639952
N179	N	1.524591	-0.314165	0.889952
N180	N	1.774591	-0.064165	1.139952
C181	C	1.188919	-0.291551	0.416903
C182	C	1.438919	-0.041551	0.666903
C183	C	1.688919	0.208449	0.916903
C184	C	1.938919	0.458449	1.166903
C185	C	1.267276	-0.288418	0.420082
C186	C	1.517276	-0.038418	0.670082
C187	C	1.767276	0.211582	0.920082
C188	C	2.017276	0.461582	1.170082
C189	C	1.005052	-0.298916	0.601399
C190	C	1.255052	-0.048916	0.851399
C191	C	1.505052	0.201084	1.101399
C192	C	1.755052	0.451084	1.351399
C193	C	1.005056	-0.298921	0.683198
C194	C	1.255056	-0.048921	0.933198
C195	C	1.505056	0.201079	1.183198
C196	C	1.755056	0.451079	1.433198
C197	C	1.012532	-0.115024	0.402091
C198	C	1.262532	0.134976	0.652091
C199	C	1.512532	0.384976	0.902091
C200	C	1.762532	0.634976	1.152091
C201	C	1.015725	-0.036665	0.398957
C202	C	1.265725	0.213335	0.648957
C203	C	1.515725	0.463335	0.898957
C204	C	1.765725	0.713335	1.148957
C205	C	1.048298	-0.342195	0.951892
C206	C	1.298298	-0.092195	1.201892
C207	C	1.548298	0.157805	1.451892
C208	C	1.798298	0.407805	1.701892
C209	C	1.048299	-0.342198	0.875033
C210	C	1.298299	-0.092198	1.125033
C211	C	1.548299	0.157802	1.375033
C212	C	1.798299	0.407802	1.625033
C213	C	0.961794	-0.255638	0.867752
C214	C	1.211794	-0.005638	1.117752
C215	C	1.461794	0.244362	1.367752
C216	C	1.711794	0.494362	1.617752
C217	C	0.961790	-0.255639	0.944610
C218	C	1.211790	-0.005639	1.194610
C219	C	1.461790	0.244361	1.444610
C220	C	1.711790	0.494361	1.694610
C221	C	1.005045	-0.298916	0.986677
C222	C	1.255045	-0.048916	1.236677
C223	C	1.505045	0.201084	1.486677
C224	C	1.755045	0.451084	1.736677
C225	C	1.005052	-0.298918	0.832962
C226	C	1.255052	-0.048918	1.082962
C227	C	1.505052	0.201082	1.332962
C228	C	1.755052	0.451082	1.582962
C229	C	1.005053	-0.298921	0.749628
C230	C	1.255053	-0.048921	0.999628
C231	C	1.505053	0.201079	1.249628
C232	C	1.755053	0.451079	1.499628
C233	C	1.005043	-0.298914	1.070016
C234	C	1.255043	-0.048914	1.320016
C235	C	1.505043	0.201086	1.570016
C236	C	1.755043	0.451086	1.820016
C237	C	1.005030	-0.298911	1.218239
C238	C	1.255030	-0.048911	1.468239
C239	C	1.505030	0.201089	1.718239
C240	C	1.755030	0.451089	1.968239
C241	C	1.005041	-0.298913	1.136440
C242	C	1.255041	-0.048913	1.386440
C243	C	1.505041	0.201087	1.636440
C244	C	1.755041	0.451087	1.886440
H245	H	0.404347	-0.364428	0.343477
H246	H	0.654347	-0.114428	0.593477
H247	H	0.904347	0.135572	0.843477
H248	H	1.154347	0.385572	1.093477
H249	H	0.907035	-0.704153	0.507651
H250	H	1.157035	-0.454153	0.757651
H251	H	1.407035	-0.204153	1.007651
H252	H	1.657035	0.045847	1.257651
H253	H	0.740016	-0.227987	0.480839
H254	H	0.990016	0.022013	0.730839
H255	H	1.240016	0.272013	0.980839
H256	H	1.490016	0.522013	1.230839
H257	H	1.070745	-0.697508	0.343642
H258	H	1.320745	-0.447508	0.593642
H259	H	1.570745	-0.197508	0.843642
H260	H	1.820745	0.052492	1.093642
H261	H	1.083519	-0.377435	0.986141
H262	H	1.333519	-0.127435	1.236141
H263	H	1.583519	0.122565	1.486141
H264	H	1.833519	0.372565	1.736141
H265	H	0.912352	-0.570582	0.502244
H266	H	1.162352	-0.320582	0.752244
H267	H	1.412352	-0.070582	1.002244
H268	H	1.662352	0.179418	1.252244
F269	F	0.915774	-0.209569	0.822975
F270	F	1.165774	0.040431	1.072975
F271	F	1.415774	0.290431	1.322975
F272	F	1.665774	0.540431	1.572975
F273	F	0.261120	-0.381434	0.326396
F274	F	0.511120	-0.131434	0.576396
F275	F	0.761120	0.118566	0.826396
F276	F	1.011120	0.368566	1.076396
H277	H	0.599779	-0.396692	0.310942
H278	H	0.849779	-0.146692	0.560942
H279	H	1.099779	0.103308	0.810942
H280	H	1.349779	0.353308	1.060942
F281	F	1.114830	-0.883279	0.299601
F282	F	1.364830	-0.633279	0.549601
F283	F	1.614830	-0.383279	0.799601
F284	F	1.864830	-0.133279	1.049601
H285	H	1.083520	-0.377440	0.846714
H286	H	1.333520	-0.127440	1.096714
H287	H	1.583520	0.122560	1.346714
H288	H	1.833520	0.372560	1.596714
H289	H	1.097852	-1.026512	0.316676
H290	H	1.347852	-0.776512	0.566676
H291	H	1.597852	-0.526512	0.816676
H292	H	1.847852	-0.276512	1.066676
F293	F	0.915743	-0.209582	0.981633
F294	F	1.165743	0.040418	1.231633
F295	F	1.415743	0.290418	1.481633
F296	F	1.665743	0.540418	1.731633
H297	H	0.934147	-1.033143	0.480696
H298	H	1.184147	-0.783143	0.730696
H299	H	1.434147	-0.533143	0.980696
H300	H	1.684147	-0.283143	1.230696
F301	F	0.928548	-0.890837	0.486212
F302	F	1.178548	-0.640837	0.736212
F303	F	1.428548	-0.390837	0.986212
F304	F	1.678548	-0.140837	1.236212
F305	F	1.087709	-0.554288	0.326552
F306	F	1.337709	-0.304288	0.576552
F307	F	1.587709	-0.054288	0.826552
F308	F	1.837709	0.195712	1.076552
H309	H	0.733352	-0.391320	0.316327
H310	H	0.983352	-0.141320	0.566327
H311	H	1.233352	0.108680	0.816327
H312	H	1.483352	0.358680	1.066327
F313	F	0.597708	-0.222475	0.486425
F314	F	0.847708	0.027525	0.736425
F315	F	1.097708	0.277525	0.986425
F316	F	1.347708	0.527525	1.236425
H317	H	0.277450	-0.206471	0.502611
H318	H	0.527450	0.043529	0.752611
H319	H	0.777450	0.293529	1.002611
H320	H	1.027450	0.543529	1.252611
F321	F	0.420686	-0.189477	0.519700
F322	F	0.670686	0.060523	0.769700
F323	F	0.920686	0.310523	1.019700
F324	F	1.170686	0.560523	1.269700
