data_functionalizedCrystal
_audit_creation_method	'MofGen! by Chris Wilmer'
_symmetry_space_group_name_H-M	'P1'
_symmetry_Int_Tables_number	1
_symmetry_cell_setting	triclinic
loop_
_symmetry_equiv_pos_as_xyz
  x,y,z
_cell_length_a	15.624803
_cell_length_b	14.472310
_cell_length_c	15.538191
_cell_angle_alpha	89.998969
_cell_angle_beta	113.263597
_cell_angle_gamma	108.099006
loop_
_atom_site_label
_atom_site_type_symbol
_atom_site_fract_x
_atom_site_fract_y
_atom_site_fract_z
O1	O	1.156197	0.464349	-0.122816
O2	O	0.888883	0.374755	-0.137486
O3	O	1.074574	0.436997	0.006915
O4	O	0.970505	0.402108	-0.267218
O5	O	1.074536	0.283302	0.006907
O6	O	0.888844	0.221061	-0.137495
O7	O	1.156158	0.310654	-0.122824
Cu8	Cu	1.022498	0.251824	-0.130160
Cu9	Cu	1.022543	0.433586	-0.130150
O10	O	0.970466	0.248413	-0.267226
C11	C	0.855487	0.286722	-0.136830
C12	C	0.756040	0.253391	-0.134852
C13	C	0.429185	0.562764	-0.128269
C14	C	0.335748	0.531446	-0.126391
C15	C	0.335683	0.363887	-0.126400
C16	C	0.429125	0.395191	-0.128273
C17	C	0.475868	0.494631	-0.129209
C18	C	0.475807	0.327058	-0.129213
C19	C	0.569238	0.358360	-0.131091
C20	C	0.615987	0.457795	-0.132030
C21	C	0.569299	0.525933	-0.131087
C22	C	0.429059	0.227618	-0.128284
C23	C	0.475742	0.159485	-0.129224
C24	C	0.569178	0.190787	-0.131095
C25	C	0.615926	0.290222	-0.132034
C26	C	0.615866	0.122649	-0.132038
C27	C	0.709297	0.153951	-0.133916
C28	C	0.709357	0.321524	-0.133912
N29	N	1.022473	0.123985	-0.130167
C30	C	1.022543	-0.250083	-0.130147
C31	C	0.923020	-0.244276	-0.207153
C32	C	0.923099	-0.137161	-0.207435
C33	C	1.022507	-0.064504	-0.130157
C34	C	1.109527	-0.074176	-0.151730
C35	C	1.108930	-0.181498	-0.152278
C36	C	1.035961	-0.206112	-0.031339
C37	C	1.033589	-0.099780	-0.031995
C38	C	1.022494	0.040380	-0.130160
C39	C	1.022562	-0.354965	-0.130145
C40	C	1.189554	0.398690	-0.123480
C41	C	1.289001	0.432027	-0.125459
C42	C	1.085444	0.363802	0.041993
C43	C	1.117877	0.374681	0.146528
N44	N	1.022578	0.561428	-0.130137
C45	C	0.959597	0.321610	-0.302304
C46	C	0.927164	0.310736	-0.406839
C47	C	0.795663	0.266667	0.434709
C48	C	0.826161	0.276887	0.532937
C49	C	0.997708	0.334384	0.555173
C50	C	0.967224	0.324173	0.456944
C51	C	0.866200	0.290314	0.396719
C52	C	1.037762	0.347820	0.418954
C53	C	1.007280	0.337605	0.320734
C54	C	0.906260	0.303744	0.260503
C55	C	0.835718	0.280099	0.298498
C56	C	1.138785	0.381673	0.479180
C57	C	1.209323	0.405319	0.441191
C58	C	1.178841	0.395111	0.342969
C59	C	1.077821	0.361250	0.282738
C60	C	1.249383	0.418756	0.304973
C61	C	1.218901	0.408541	0.206753
C62	C	1.047339	0.351035	0.184517
H63	H	0.297611	0.282922	-0.125641
H64	H	0.467248	0.643738	-0.129028
H65	H	0.297741	0.586936	-0.125629
H66	H	0.753454	0.252534	0.249459
H67	H	0.911184	-0.115523	-0.280756
H68	H	1.108915	-0.206985	0.025968
H69	H	1.291577	0.432884	0.490239
F70	F	0.329618	0.194305	-0.126290
F71	F	0.715424	0.491109	-0.134033
F72	F	0.907411	-0.284667	-0.302454
F73	F	1.101367	-0.041837	-0.244848
F74	F	1.171225	0.392537	0.583716
H75	H	0.975628	-0.253400	-0.010623
F76	F	0.425983	0.053656	-0.128232
H77	H	1.331637	0.446315	0.354022
F78	F	1.293974	0.433694	0.166319
H79	H	1.102017	-0.208793	-0.224341
H80	H	0.965075	0.323470	0.135478
F81	F	0.950134	-0.094575	-0.010597
H82	H	1.184019	-0.023724	-0.097139
H83	H	1.103841	-0.049458	0.028003
F84	F	0.758982	0.081436	-0.134918
F85	F	0.566101	0.016820	-0.131055
F86	F	0.873818	0.292865	0.155967
F87	F	0.688141	0.230639	0.370607
H88	H	0.747420	0.402498	-0.134671
F89	F	0.751077	0.251712	0.573364
F90	F	0.837171	-0.131639	-0.190660
F91	F	1.105222	0.370412	0.619277
H92	H	0.857005	-0.292189	-0.194493
H93	H	0.607361	0.606907	-0.131846
F94	F	1.206425	-0.182684	-0.081690
