data_functionalizedCrystal
_audit_creation_method	'MofGen! by Chris Wilmer'
_symmetry_space_group_name_H-M	'P1'
_symmetry_Int_Tables_number	1
_symmetry_cell_setting	triclinic
loop_
_symmetry_equiv_pos_as_xyz
  x,y,z
_cell_length_a	6.817900
_cell_length_b	12.200722
_cell_length_c	17.110486
_cell_angle_alpha	95.512362
_cell_angle_beta	99.060439
_cell_angle_gamma	107.140920
loop_
_atom_site_label
_atom_site_type_symbol
_atom_site_fract_x
_atom_site_fract_y
_atom_site_fract_z
V1	V	-3.995363	-0.158371	-0.246804
V2	V	-3.495363	0.341629	0.253196
O3	O	-3.964445	0.007962	-0.242019
O4	O	-3.464445	0.507962	0.257981
O5	O	-3.965397	-0.314362	-0.245199
O6	O	-3.465397	0.185638	0.254801
O7	O	-3.924919	-0.155781	-0.354406
O8	O	-3.424919	0.344219	0.145594
O9	O	-4.005203	-0.151717	-0.132057
O10	O	-3.505203	0.348283	0.367943
V11	V	-4.479459	-0.138494	-0.233069
V12	V	-3.979459	0.361506	0.266931
O13	O	-4.255365	-0.201973	-0.276932
O14	O	-3.755365	0.298027	0.223068
O15	O	-4.669655	-0.094892	-0.202941
O16	O	-4.169655	0.405108	0.297059
O17	O	-4.286219	0.017496	-0.234674
O18	O	-3.786219	0.517496	0.265326
O19	O	-4.627774	-0.304827	-0.237854
O20	O	-4.127774	0.195173	0.262146
O21	O	-4.587017	-0.145149	-0.347816
O22	O	-4.087017	0.354851	0.152184
O23	O	-4.326697	-0.141084	-0.125467
O24	O	-3.826697	0.358916	0.374533
C25	C	-3.815595	-0.352393	-0.241327
C26	C	-3.315595	0.147607	0.258673
C27	C	-3.872234	-0.479917	-0.240732
C28	C	-3.372234	0.020083	0.259268
C29	C	-3.918226	-0.583478	-0.240242
C30	C	-3.418226	-0.083478	0.259758
C31	C	-3.975944	-0.713401	-0.239630
C32	C	-3.475944	-0.213401	0.260370
C33	C	-3.763961	-0.150107	-0.380630
C34	C	-3.263961	0.349893	0.119370
C35	C	-3.787771	-0.149021	-0.468596
C36	C	-3.287771	0.350979	0.031404
C37	C	-3.980920	-0.154236	-0.513956
C38	C	-3.480920	0.345764	-0.013956
C39	C	-4.003279	-0.153215	-0.596609
C40	C	-3.503279	0.346785	-0.096609
C41	C	-3.832491	-0.146987	-0.633900
C42	C	-3.332491	0.353013	-0.133900
C43	C	-3.639325	-0.141768	-0.588533
C44	C	-3.139325	0.358232	-0.088533
C45	C	-3.616964	-0.142781	-0.505881
C46	C	-3.116964	0.357219	-0.005881
C47	C	-3.890900	-0.143636	-0.883254
C48	C	-3.390900	0.356364	-0.383254
C49	C	-3.913278	-0.142627	-0.965912
C50	C	-3.413278	0.357373	-0.465912
C51	C	-4.277231	-0.154072	-0.973982
C52	C	-3.777231	0.345928	-0.473982
C53	C	-4.254856	-0.155091	-0.891329
C54	C	-3.754856	0.344909	-0.391329
C55	C	-4.061690	-0.149866	-0.845968
C56	C	-3.561690	0.350134	-0.345968
C57	C	-3.855343	-0.145947	-0.718385
C58	C	-3.355343	0.354053	-0.218385
C59	C	-4.038836	-0.150898	-0.761484
C60	C	-3.538836	0.349102	-0.261484
C61	C	-4.099364	0.055522	-0.238544
C62	C	-3.599364	0.555522	0.261456
C63	C	-4.021963	0.183044	-0.239144
C64	C	-3.521963	0.683044	0.260856
C65	C	-4.150998	-0.146762	-0.099239
C66	C	-3.650998	0.353238	0.400761
C67	C	-4.106427	-0.147842	-0.011273
C68	C	-3.606427	0.352158	0.488727
H69	H	-4.120002	-0.159315	-0.483601
H70	H	-3.620002	0.340685	0.016399
H71	H	-3.733635	-0.139422	-0.846335
H72	H	-3.233635	0.360578	-0.346335
H73	H	-4.160556	-0.157455	-0.633538
H74	H	-3.660556	0.342545	-0.133538
H75	H	-3.500264	-0.136691	-0.618902
H76	H	-3.000264	0.363309	-0.118902
H77	H	-4.177887	-0.155965	-0.731117
H78	H	-3.677887	0.344035	-0.231117
H79	H	-3.716293	-0.140881	-0.748757
H80	H	-3.216293	0.359119	-0.248757
H81	H	-3.459670	-0.138506	-0.468946
H82	H	-2.959670	0.361494	0.031054
H83	H	-4.393933	-0.160161	-0.860972
H84	H	-3.893933	0.339839	-0.360972
H85	H	-4.434499	-0.158324	-1.010923
H86	H	-3.934499	0.341676	-0.510923
H87	H	-3.774189	-0.137552	-0.996271
H88	H	-3.274189	0.362448	-0.496271
