data_functionalizedCrystal
_audit_creation_method	'MofGen! by Chris Wilmer'
_symmetry_space_group_name_H-M	'P1'
_symmetry_Int_Tables_number	1
_symmetry_cell_setting	triclinic
loop_
_symmetry_equiv_pos_as_xyz
  x,y,z
_cell_length_a	21.295418
_cell_length_b	21.395362
_cell_length_c	21.395356
_cell_angle_alpha	89.972991
_cell_angle_beta	89.964318
_cell_angle_gamma	90.044194
loop_
_atom_site_label
_atom_site_type_symbol
_atom_site_fract_x
_atom_site_fract_y
_atom_site_fract_z
Zn1	Zn	0.962315	-0.249187	-0.354587
Zn2	Zn	1.462315	0.250813	0.145413
Zn3	Zn	0.962236	-0.353964	-0.249812
Zn4	Zn	1.462236	0.146036	0.250188
Zn5	Zn	0.857053	-0.249234	-0.249789
Zn6	Zn	1.357053	0.250766	0.250211
Zn7	Zn	0.857012	-0.353959	-0.354517
Zn8	Zn	1.357012	0.146041	0.145483
O9	O	0.909654	-0.301586	-0.302176
O10	O	1.409654	0.198414	0.197824
O11	O	1.050394	-0.263068	-0.340728
O12	O	1.550394	0.236932	0.159272
O13	O	0.948268	-0.340093	-0.162131
O14	O	1.448268	0.159907	0.337869
O15	O	0.871067	-0.161549	-0.263711
O16	O	1.371067	0.338451	0.236289
O17	O	1.050336	-0.340048	-0.263750
O18	O	1.550336	0.159952	0.236250
O19	O	0.948402	-0.161515	-0.340705
O20	O	1.448402	0.338485	0.159295
O21	O	0.870990	-0.263148	-0.162114
O22	O	1.370990	0.236852	0.337886
O23	O	0.768958	-0.263143	-0.263642
O24	O	1.268958	0.236857	0.236358
O25	O	0.870996	-0.340040	-0.442204
O26	O	1.370996	0.159960	0.057796
O27	O	0.768928	-0.340085	-0.340586
O28	O	1.268928	0.159915	0.159414
O29	O	0.948362	-0.263064	-0.442256
O30	O	1.448362	0.236936	0.057744
O31	O	0.948228	-0.441642	-0.263682
O32	O	1.448228	0.058358	0.236318
O33	O	0.870919	-0.441638	-0.340608
O34	O	1.370919	0.058362	0.159392
C35	C	0.746102	-0.301619	-0.302104
C36	C	1.246102	0.198381	0.197896
C37	C	0.676134	-0.301648	-0.302088
C38	C	1.176134	0.198352	0.197912
C39	C	0.909577	-0.464374	-0.302153
C40	C	1.409577	0.035626	0.197847
C41	C	0.909602	-0.534015	-0.302165
C42	C	1.409602	-0.034015	0.197835
C43	C	0.950001	-1.035740	-0.342348
C44	C	1.450001	-0.535740	0.157652
C45	C	0.949982	-0.970305	-0.342338
C46	C	1.449982	-0.470305	0.157662
C47	C	0.909740	-0.937653	-0.302216
C48	C	1.409740	-0.437653	0.197784
C49	C	0.869524	-0.970442	-0.262089
C50	C	1.369524	-0.470442	0.237911
C51	C	0.869548	-1.035876	-0.262095
C52	C	1.369548	-0.535876	0.237905
C53	C	0.852990	-0.834053	-0.297187
C54	C	1.352990	-0.334053	0.202813
C55	C	0.852965	-0.768620	-0.297184
C56	C	1.352965	-0.268620	0.202816
C57	C	0.909666	-0.735832	-0.302192
C58	C	1.409666	-0.235832	0.197808
C59	C	0.966393	-0.768486	-0.307215
C60	C	1.466393	-0.268486	0.192785
C61	C	0.966417	-0.833920	-0.307221
C62	C	1.466417	-0.333920	0.192779
C63	C	0.909709	-0.866701	-0.302204
C64	C	1.409709	-0.366701	0.197796
C65	C	0.949862	-0.632099	-0.342303
C66	C	1.449862	-0.132099	0.157697
C67	C	0.949845	-0.566662	-0.342288
C68	C	1.449845	-0.066662	0.157712
C69	C	0.869380	-0.566801	-0.262042
C70	C	1.369380	-0.066801	0.237958
C71	C	0.869404	-0.632236	-0.262053
C72	C	1.369404	-0.132236	0.237947
C73	C	0.909644	-0.664881	-0.302187
C74	C	1.409644	-0.164881	0.197813
C75	C	0.643268	-0.341765	-0.342093
C76	C	1.143268	0.158235	0.157907
C77	C	0.577526	-0.341749	-0.342121
C78	C	1.077526	0.158251	0.157879
C79	C	0.544652	-0.301624	-0.302133
C80	C	1.044652	0.198376	0.197867
C81	C	0.577526	-0.261500	-0.262126
C82	C	1.077526	0.238500	0.237874
C83	C	0.643267	-0.261512	-0.262104
C84	C	1.143267	0.238488	0.237896
N85	N	0.441383	-0.296729	-0.247333
N86	N	0.941383	0.203271	0.252667
N87	N	0.378932	-0.296721	-0.247356
N88	N	0.878932	0.203279	0.252644
C89	C	0.346577	-0.301584	-0.302200
C90	C	0.846577	0.198416	0.197800
N91	N	0.379033	-0.306467	-0.357021
N92	N	0.879033	0.193533	0.142979
N93	N	0.441490	-0.306478	-0.356997
N94	N	0.941490	0.193522	0.143003
C95	C	0.473366	-0.301606	-0.302154
C96	C	0.973366	0.198394	0.197846
C97	C	0.242425	-0.341686	-0.342238
C98	C	0.742425	0.158314	0.157762
C99	C	0.176682	-0.341666	-0.342267
C100	C	0.676682	0.158334	0.157733
C101	C	0.176683	-0.261420	-0.262267
C102	C	0.676683	0.238580	0.237733
C103	C	0.242425	-0.261436	-0.262243
C104	C	0.742425	0.238564	0.237757
C105	C	0.275293	-0.301573	-0.302228
C106	C	0.775293	0.198427	0.197772
C107	C	1.073844	-0.301553	-0.302249
C108	C	1.573844	0.198447	0.197751
C109	C	1.143812	-0.301539	-0.302280
C110	C	1.643812	0.198461	0.197720
C111	C	0.909683	-0.301546	-0.465600
C112	C	1.409683	0.198454	0.034400
C113	C	0.909696	-0.301529	-0.535241
C114	C	1.409696	0.198471	-0.035241
C115	C	0.909748	-0.138163	-0.302213
C116	C	1.409748	0.361837	0.197787
C117	C	0.909788	-0.068521	-0.302229
C118	C	1.409788	0.431479	0.197771
C119	C	0.950039	-0.261347	-1.037065
C120	C	1.450039	0.238653	-0.537065
C121	C	0.950034	-0.261362	-0.971630
C122	C	1.450034	0.238638	-0.471630
C123	C	0.909750	-0.301445	-0.938880
C124	C	1.409750	0.198555	-0.438880
C125	C	0.869478	-0.341527	-0.971570
C126	C	1.369478	0.158473	-0.471570
C127	C	0.869489	-0.341515	-1.037004
C128	C	1.369489	0.158485	-0.537004
C129	C	0.853016	-0.306423	-0.835185
C130	C	1.353016	0.193577	-0.335185
C131	C	0.853004	-0.306430	-0.769752
C132	C	1.353004	0.193570	-0.269752
C133	C	0.909717	-0.301485	-0.737059
C134	C	1.409717	0.198515	-0.237059
C135	C	0.966444	-0.296520	-0.769807
C136	C	1.466444	0.203480	-0.269807
C137	C	0.966454	-0.296508	-0.835241
C138	C	1.466454	0.203492	-0.335241
C139	C	0.909734	-0.301463	-0.867927
C140	C	1.409734	0.198537	-0.367927
C141	C	0.949984	-0.261425	-0.633424
C142	C	1.449984	0.238575	-0.133424
C143	C	0.949980	-0.261445	-0.567987
C144	C	1.449980	0.238555	-0.067987
C145	C	0.869418	-0.341606	-0.567928
C146	C	1.369418	0.158394	-0.067928
C147	C	0.869428	-0.341590	-0.633364
C148	C	1.369428	0.158410	-0.133364
C149	C	0.909710	-0.301496	-0.666107
C150	C	1.409710	0.198504	-0.166107
C151	C	0.909661	-0.301581	-0.139389
C152	C	1.409661	0.198419	0.360611
C153	C	0.909771	-0.301422	-0.069748
C154	C	1.409771	0.198578	0.430252
H155	H	0.982773	-1.062316	-0.375023
H156	H	1.482773	-0.562316	0.124977
H157	H	0.982826	-0.228727	-0.945015
H158	H	1.482826	0.271273	-0.445015
H159	H	0.550761	-0.374417	-0.374700
H160	H	1.050761	0.125583	0.125300
H161	H	0.836634	-0.374220	-0.659974
H162	H	1.336634	0.125780	-0.159974
H163	H	0.982624	-0.658680	-0.374986
H164	H	1.482624	-0.158680	0.125014
H165	H	0.806830	-0.310450	-0.861798
H166	H	1.306830	0.189550	-0.361798
H167	H	0.670025	-0.374446	-0.374652
H168	H	1.170025	0.125554	0.125348
C169	C	0.541363	-0.217361	-0.218140
C170	C	1.041363	0.282639	0.281860
N171	N	0.514125	-0.184114	-0.185009
N172	N	1.014125	0.315886	0.314991
C173	C	0.790604	-0.311888	-0.733735
C174	C	1.290604	0.188112	-0.233735
N175	N	0.743602	-0.315998	-0.706609
N176	N	1.243602	0.184002	-0.206609
H177	H	0.836696	-0.374150	-1.063614
H178	H	1.336696	0.125850	-0.563614
H179	H	0.670026	-0.228842	-0.229527
H180	H	1.170026	0.271158	0.270473
C181	C	0.994280	-0.217356	-0.532036
C182	C	1.494280	0.282644	-0.032036
N183	N	1.027645	-0.184146	-0.504957
N184	N	1.527645	0.315854	-0.004957
C185	C	0.994092	-0.530603	-0.386418
C186	C	1.494092	-0.030603	0.113582
N187	N	1.027422	-0.503442	-0.419656
N188	N	1.527422	-0.003442	0.080344
C189	C	0.994355	-0.217248	-1.073080
C190	C	1.494355	0.282752	-0.573080
N191	N	1.027736	-0.184033	-1.100207
N192	N	1.527736	0.315967	-0.600207
C193	C	0.825163	-0.385617	-0.935544
C194	C	1.325163	0.114383	-0.435544
N195	N	0.791784	-0.418827	-0.908408
N196	N	1.291784	0.081173	-0.408408
C197	C	0.790611	-0.870113	-0.291680
C198	C	1.290611	-0.370113	0.208320
N199	N	0.743628	-0.897272	-0.287533
N200	N	1.243628	-0.397272	0.212467
H201	H	0.982730	-0.943609	-0.375009
H202	H	1.482730	-0.443609	0.124991
H203	H	1.012643	-0.292467	-0.861902
H204	H	1.512643	0.207533	-0.361902
C205	C	1.028817	-0.869836	-0.312736
C206	C	1.528817	-0.369836	0.187264
N207	N	1.075817	-0.896888	-0.316886
N208	N	1.575817	-0.396888	0.183114
H209	H	0.982783	-0.228778	-0.660085
H210	H	1.482783	0.271222	-0.160085
H211	H	0.836620	-0.374245	-0.541264
H212	H	1.336620	0.125755	-0.041264
C213	C	1.028834	-0.291084	-0.733849
C214	C	1.528834	0.208916	-0.233849
N215	N	1.075825	-0.286989	-0.706764
N216	N	1.575825	0.213011	-0.206764
H217	H	0.269187	-0.374364	-0.374799
H218	H	0.769187	0.125636	0.125201
H219	H	0.149923	-0.374333	-0.374848
H220	H	0.649923	0.125667	0.125152
C221	C	0.825255	-0.934524	-0.217955
C222	C	1.325255	-0.434524	0.282045
N223	N	0.791912	-0.907471	-0.184711
N224	N	1.291912	-0.407471	0.315289
H225	H	0.836617	-0.540216	-0.229371
H226	H	1.336617	-0.040216	0.270629
C227	C	0.140526	-0.217280	-0.218280
C228	C	0.640526	0.282720	0.281720
N229	N	0.113288	-0.184033	-0.185149
N230	N	0.613288	0.315967	0.314851
C231	C	0.278580	-0.217310	-0.218229
C232	C	0.778580	0.282690	0.281771
N233	N	0.305810	-0.184071	-0.185076
N234	N	0.805810	0.315929	0.314924
C235	C	1.028769	-0.732424	-0.312721
C236	C	1.528769	-0.232424	0.187279
N237	N	1.075749	-0.705260	-0.316869
N238	N	1.575749	-0.205260	0.183131
H239	H	0.836800	-1.062567	-0.229424
H240	H	1.336800	-0.562567	0.270576
C241	C	0.790562	-0.732708	-0.291685
C242	C	1.290562	-0.232708	0.208315
N243	N	0.743558	-0.705660	-0.287550
N244	N	1.243558	-0.205660	0.212450
C245	C	0.825159	-0.668297	-0.217924
C246	C	1.325159	-0.168297	0.282076
N247	N	0.791832	-0.695458	-0.184684
N248	N	1.291832	-0.195458	0.315316
