data_functionalizedCrystal
_audit_creation_method	'MofGen! by Chris Wilmer'
_symmetry_space_group_name_H-M	'P1'
_symmetry_Int_Tables_number	1
_symmetry_cell_setting	triclinic
loop_
_symmetry_equiv_pos_as_xyz
  x,y,z
_cell_length_a	17.640280
_cell_length_b	12.759401
_cell_length_c	12.759393
_cell_angle_alpha	89.979062
_cell_angle_beta	101.231035
_cell_angle_gamma	101.197849
loop_
_atom_site_label
_atom_site_type_symbol
_atom_site_fract_x
_atom_site_fract_y
_atom_site_fract_z
Zn1	Zn	-0.314597	-1.690818	0.509562
Zn2	Zn	-0.446790	-1.726238	0.298393
Zn3	Zn	-0.314639	-1.515128	0.333886
Zn4	Zn	-0.446735	-1.550623	0.474045
O5	O	-0.380691	-1.620702	0.403971
O6	O	-0.332138	-1.842539	0.481560
O7	O	-0.429301	-1.698203	0.156069
O8	O	-0.204028	-1.508756	0.386908
O9	O	-0.429260	-1.868562	0.326415
O10	O	-0.203997	-1.637835	0.515976
O11	O	-0.332210	-1.543101	0.182146
O12	O	-0.332157	-1.372814	0.352468
O13	O	-0.429166	-1.569251	0.625788
O14	O	-0.429207	-1.398892	0.455443
O15	O	-0.332085	-1.672252	0.651883
O16	O	-0.557389	-1.732620	0.291976
O17	O	-0.557349	-1.603596	0.421027
C18	C	-0.380681	-1.347732	0.403953
C19	C	-0.380696	-1.230959	0.403965
C20	C	-0.586048	-1.675832	0.348819
C21	C	-0.673900	-1.699513	0.325259
C22	C	-0.380615	-1.620760	0.678025
C23	C	-0.380582	-1.620785	0.794811
C24	C	-0.962869	-1.441231	0.583333
C25	C	-1.045420	-1.463485	0.561162
C26	C	-1.045396	-1.597921	0.426917
C27	C	-0.962844	-1.575682	0.449081
C28	C	-0.921586	-1.497335	0.527289
C29	C	-0.921561	-1.631786	0.393036
C30	C	-0.839016	-1.609545	0.415195
C31	C	-0.797753	-1.531199	0.493397
C32	C	-0.839041	-1.475094	0.549447
C33	C	-0.962820	-1.710127	0.314823
C34	C	-0.921538	-1.766231	0.258779
C35	C	-0.838991	-1.743996	0.280942
C36	C	-0.797728	-1.665650	0.359145
C37	C	-0.797703	-1.800101	0.224892
C38	C	-0.715158	-1.777860	0.247051
C39	C	-0.715183	-1.643409	0.381303
C40	C	-0.174531	-1.565385	0.459363
C41	C	-0.086679	-1.541813	0.482967
C42	C	-0.380701	-1.894738	0.403990
C43	C	-0.380705	-2.011516	0.403998
C44	C	-0.431307	-1.189724	0.457458
C45	C	-0.431310	-1.080001	0.457478
C46	C	-0.330089	-1.052757	0.350505
C47	C	-0.330082	-1.162477	0.350491
C48	C	-0.459671	-0.937727	0.573724
C49	C	-0.510294	-0.896492	0.627204
C50	C	-0.587430	-0.952820	0.622444
C51	C	-0.613957	-1.050387	0.564184
C52	C	-0.563338	-1.091618	0.510695
C53	C	-0.486192	-1.035288	0.515479
C54	C	-0.301729	-1.304755	0.234241
C55	C	-0.251113	-1.345989	0.180746
C56	C	-0.173977	-1.289662	0.185495
C57	C	-0.147452	-1.192092	0.243736
C58	C	-0.198068	-1.150858	0.297231
C59	C	-0.275203	-1.207193	0.292484
C60	C	-0.380709	-1.620689	0.130999
C61	C	-0.380519	-1.620808	0.014274
C62	C	-0.330024	-1.674420	0.863264
C63	C	-0.329990	-1.674429	0.972997
C64	C	-0.431079	-1.567166	0.945813
C65	C	-0.431109	-1.567151	0.836083
C66	C	-0.236736	-1.686978	1.148011
C67	C	-0.186184	-1.740632	1.216466
C68	C	-0.174064	-1.839887	1.184128
C69	C	-0.212507	-1.885512	1.083334
C70	C	-0.263064	-1.831866	1.014883
C71	C	-0.275169	-1.732592	1.047223
C72	C	-0.524364	-1.554613	0.661067
C73	C	-0.574926	-1.500973	0.592613
C74	C	-0.587054	-1.401718	0.624946
C75	C	-0.548625	-1.356100	0.725740
C76	C	-0.498064	-1.409741	0.794194
C77	C	-0.485934	-1.508994	0.761853
H78	H	-0.681589	-1.579618	0.444996
H79	H	-0.730539	-1.513085	0.511429
Cl80	Cl	-0.164723	-1.028193	0.370444
H81	H	-0.805448	-1.411304	0.613140
H82	H	-1.079029	-1.417805	0.606818
Cl83	Cl	-0.910996	-1.342746	0.681664
H84	H	-0.246593	-1.606151	1.174346
Cl85	Cl	-0.563873	-1.231319	0.766394
H86	H	-0.514487	-1.635433	0.634727
H87	H	-0.084646	-1.146217	0.247587
Cl88	Cl	-0.663256	-1.848381	0.176585
H89	H	-0.472218	-1.523502	0.979430
Cl90	Cl	-1.097270	-1.696413	0.328605
Cl91	Cl	-0.110350	-1.341493	0.118226
H92	H	-1.030034	-1.728236	0.296788
Cl93	Cl	-0.596680	-1.214264	0.437458
H94	H	-0.364538	-1.350633	0.230377
H95	H	-0.472518	-1.245479	0.501003
H96	H	-0.955141	-1.830018	0.195099
H97	H	-0.272717	-1.425437	0.133321
H98	H	-0.288880	-1.718089	0.829665
Cl99	Cl	-0.311390	-1.889213	0.888180
H100	H	-0.831307	-1.863883	0.161208
Cl101	Cl	-0.710938	-1.121188	0.558186
H102	H	-0.488688	-0.817051	0.674642
Cl103	Cl	-0.362692	-0.866916	0.579733
Cl104	Cl	-0.651066	-0.900983	0.689684
H105	H	-0.606224	-1.538130	0.510546
H106	H	-0.202640	-1.966341	1.057017
H107	H	-0.132903	-1.883572	1.239872
H108	H	-0.288882	-0.996987	0.306966
Cl109	Cl	-0.449750	-1.352389	0.920907
Cl110	Cl	-0.650635	-1.334297	0.538896
H111	H	-0.154884	-1.703474	1.298532
