data_functionalizedCrystal
_audit_creation_method	'MofGen! by Chris Wilmer'
_symmetry_space_group_name_H-M	'P1'
_symmetry_Int_Tables_number	1
_symmetry_cell_setting	triclinic
loop_
_symmetry_equiv_pos_as_xyz
  x,y,z
_cell_length_a	10.654549
_cell_length_b	10.654555
_cell_length_c	16.053802
_cell_angle_alpha	92.593161
_cell_angle_beta	87.392791
_cell_angle_gamma	84.488236
loop_
_atom_site_label
_atom_site_type_symbol
_atom_site_fract_x
_atom_site_fract_y
_atom_site_fract_z
O1	O	1.673099	0.171185	-0.069445
O2	O	1.307622	0.187984	-0.069441
O3	O	1.498756	-0.003154	-0.069443
O4	O	1.481965	0.362323	-0.069443
O5	O	1.488235	0.007323	0.069416
O6	O	1.297101	0.198462	0.069418
O7	O	1.662578	0.181662	0.069414
Zn8	Zn	1.478169	0.191725	0.091463
Zn9	Zn	1.492031	0.177921	-0.091490
O10	O	1.471444	0.372800	0.069416
C11	C	1.255563	0.191988	-0.000012
C12	C	1.116120	0.188294	-0.000010
C13	C	1.492260	-0.044713	-0.000015
C14	C	1.488562	-0.184156	-0.000020
C15	C	0.826146	0.409914	-0.000034
C16	C	0.877688	0.525933	-0.000031
C17	C	1.008705	0.529409	-0.000020
C18	C	1.088185	0.416854	-0.000015
C19	C	1.036644	0.300836	-0.000018
C20	C	0.905622	0.297372	-0.000027
C21	C	1.064578	0.072276	-0.000014
C22	C	0.933561	0.068797	-0.000019
C23	C	1.144059	-0.040279	-0.000009
C24	C	1.092517	-0.156299	-0.000006
C25	C	0.961491	-0.159771	-0.000016
C26	C	0.882019	-0.047221	-0.000022
C27	C	1.470152	-0.434764	0.151374
C28	C	1.466148	-0.363539	0.227068
C29	C	1.469617	-0.232520	0.227068
C30	C	1.477086	-0.172724	0.151366
C31	C	1.481090	-0.243949	0.075673
C32	C	1.477625	-0.374971	0.075681
C33	C	1.492566	-0.255382	-0.075714
C34	C	1.489107	-0.386402	-0.075716
C35	C	1.500036	-0.195586	-0.151415
C36	C	1.504049	-0.266813	-0.227110
C37	C	1.500581	-0.397840	-0.227107
C38	C	1.493111	-0.457628	-0.151409
C39	C	1.714637	0.177658	-0.000017
C40	C	1.854080	0.181352	-0.000024
C41	C	1.477940	0.414359	-0.000014
C42	C	1.481638	0.553802	-0.000014
N43	N	1.468718	0.201145	0.216323
N44	N	1.501492	0.168491	-0.216350
C45	C	1.550076	0.119845	0.260016
C46	C	1.543476	0.126447	0.347423
C47	C	1.455524	0.214355	0.391135
C48	C	1.374157	0.295659	0.347436
C49	C	1.380752	0.289050	0.260031
C50	C	1.426719	0.243186	0.652545
C51	C	1.420134	0.249791	0.739956
C52	C	1.589452	0.080577	0.739938
C53	C	1.596043	0.073981	0.652531
C54	C	1.514672	0.155280	0.608839
N55	N	1.448779	0.221108	0.480479
N56	N	1.521412	0.148520	0.519497
H57	H	0.812961	0.617571	-0.000038
H58	H	0.775336	-0.050036	-0.000023
H59	H	1.157240	-0.247932	-0.000008
H60	H	0.719462	0.407096	-0.000029
H61	H	1.621701	0.048266	0.224432
C62	C	1.323315	0.346427	0.788038
H63	H	1.275770	0.393874	0.749499
H64	H	1.366308	0.401736	0.822145
H65	H	1.268102	0.303260	0.822125
C66	C	1.504888	-0.051602	-0.151421
H67	H	1.510216	-0.026233	-0.207344
H68	H	1.576954	-0.029593	-0.123466
H69	H	1.430776	-0.010188	-0.123467
C70	C	1.480892	-0.028606	0.151367
H71	H	1.477440	0.005249	0.207289
H72	H	1.410689	0.007855	0.123407
H73	H	1.556915	-0.010011	0.123416
C74	C	1.512266	-0.201037	-0.310370
H75	H	1.513760	-0.112807	-0.299528
H76	H	1.440954	-0.215927	-0.341477
H77	H	1.587179	-0.233785	-0.341466
C78	C	1.505008	-0.476181	-0.310372
H79	H	1.509967	-0.421802	-0.355451
H80	H	1.430795	-0.518610	-0.313529
H81	H	1.577021	-0.536451	-0.313509
C82	C	1.692784	-0.022726	0.604454
H83	H	1.740286	-0.070209	0.642995
H84	H	1.748027	0.020359	0.570343
H85	H	1.649712	-0.078008	0.570371
C86	C	1.489290	-0.601744	-0.151406
H87	H	1.492748	-0.635604	-0.207327
H88	H	1.413277	-0.620331	-0.123447
H89	H	1.559504	-0.638210	-0.123451
H90	H	1.314500	0.355252	0.224456
H91	H	0.919536	-0.254248	-0.000024
H92	H	1.360466	0.309386	0.616978
C93	C	1.277414	0.392359	0.395517
H94	H	1.285147	0.384661	0.453830
H95	H	1.194558	0.376860	0.381209
H96	H	1.292874	0.475225	0.381180
H97	H	1.655699	0.014385	0.775520
C98	C	1.232301	0.420679	-0.000009
H99	H	1.251613	0.505895	-0.000006
H100	H	1.270776	0.375597	-0.048428
H101	H	1.263421	0.382919	0.048425
C102	C	1.065410	0.657021	-0.000018
H103	H	1.154823	0.642963	-0.000017
H104	H	1.034523	0.707071	0.048400
H105	H	1.041883	0.699748	-0.048452
C106	C	1.288174	-0.036457	0.000006
H107	H	1.307489	0.048758	0.000016
H108	H	1.326657	-0.081534	-0.048413
H109	H	1.319284	-0.074224	0.048440
H110	H	1.609724	0.060245	0.382998
C111	C	1.466345	-0.578882	0.151378
H112	H	1.461317	-0.604292	0.207300
H113	H	1.540787	-0.619565	0.123420
H114	H	1.394560	-0.601697	0.123425
H115	H	1.466334	-0.174525	0.288704
C116	C	1.457941	-0.429317	0.310333
H117	H	1.456461	-0.517550	0.299496
H118	H	1.383046	-0.396565	0.341437
H119	H	1.529273	-0.414429	0.341429
