data_functionalizedCrystal
_audit_creation_method	'MofGen! by Chris Wilmer'
_symmetry_space_group_name_H-M	'P1'
_symmetry_Int_Tables_number	1
_symmetry_cell_setting	triclinic
loop_
_symmetry_equiv_pos_as_xyz
  x,y,z
_cell_length_a	30.700809
_cell_length_b	30.711276
_cell_length_c	30.700862
_cell_angle_alpha	59.998386
_cell_angle_beta	89.999414
_cell_angle_gamma	60.000191
loop_
_atom_site_label
_atom_site_type_symbol
_atom_site_fract_x
_atom_site_fract_y
_atom_site_fract_z
O1	O	-0.371254	-0.311651	0.012944
O2	O	-0.307913	-0.222487	-0.012907
O3	O	-0.307911	-0.311650	0.076286
O4	O	-0.371257	-0.222488	-0.076249
O5	O	-0.235466	-0.384070	0.076286
O6	O	-0.235468	-0.294907	-0.012907
O7	O	-0.298809	-0.384071	0.012944
Zn8	Zn	-0.255636	-0.350987	0.000018
Zn9	Zn	-0.351086	-0.255571	0.000019
O10	O	-0.298812	-0.294908	-0.076249
C11	C	-0.234796	-0.137097	-0.018777
C12	C	-0.261674	-0.083360	-0.015076
C13	C	-0.182374	-0.163176	-0.019143
C14	C	-0.234798	-0.215942	-0.018783
C15	C	-0.261678	-0.246507	-0.015089
C16	C	-0.182376	-0.241901	-0.019150
C17	C	-0.155920	-0.215947	-0.018777
C18	C	-0.098463	-0.246515	-0.015075
C19	C	-0.261132	-0.163172	-0.019150
C20	C	-0.574961	-0.535511	0.039265
C21	C	-0.548506	-0.588283	0.039634
C22	C	-0.496086	-0.535509	0.039262
C23	C	-0.469751	-0.588281	0.039632
C24	C	-0.496085	-0.614360	0.039265
C25	C	-0.548507	-0.509552	0.039632
C26	C	-0.765169	-0.393516	0.024987
C27	C	-0.819034	-0.364488	0.020950
C28	C	-0.846055	-0.389406	0.018925
C29	C	-0.904462	-0.357927	0.014538
C30	C	-0.819206	-0.443357	0.020941
C31	C	-0.765344	-0.472385	0.024984
C32	C	-0.738325	-0.447463	0.027007
C33	C	-0.447920	-0.790230	0.024988
C34	C	-0.423094	-0.840041	0.020951
C35	C	-0.371150	-0.865027	0.018921
C36	C	-0.344230	-0.919028	0.014536
C37	C	-0.344030	-0.840201	0.020935
C38	C	-0.368852	-0.790399	0.024981
C39	C	-0.420803	-0.765414	0.027004
C40	C	-0.447922	-0.393510	0.024977
C41	C	-0.423099	-0.364475	0.020931
C42	C	-0.371152	-0.389391	0.018903
C43	C	-0.344235	-0.357911	0.014513
C44	C	-0.344034	-0.443338	0.020916
C45	C	-0.368860	-0.472368	0.024960
C46	C	-0.420804	-0.447452	0.026995
C47	C	-0.679920	-0.478941	0.031387
C48	C	-0.633366	-0.504032	0.034880
C49	C	-0.469171	-0.504029	0.034875
C50	C	-0.447717	-0.478936	0.031380
C51	C	-0.469170	-0.668361	0.034880
C52	C	-0.447716	-0.711408	0.031386
C53	C	-0.496432	-0.071057	-0.503890
C54	C	-0.548853	-0.018285	-0.530226
C55	C	-0.496432	-0.071056	-0.425015
C56	C	-0.548854	-0.018284	-0.451470
C57	C	-0.575308	0.007793	-0.503892
C58	C	-0.470097	-0.097014	-0.451469
C59	C	-0.368666	-0.213054	-0.552051
C60	C	-0.343664	-0.242084	-0.576877
C61	C	-0.370616	-0.217167	-0.628824
C62	C	-0.343513	-0.248647	-0.655741
C63	C	-0.422570	-0.163216	-0.655945
C64	C	-0.447565	-0.134187	-0.631122
C65	C	-0.420611	-0.159108	-0.579173
C66	C	-0.765518	0.183662	-0.631659
C67	C	-0.819384	0.233473	-0.656662
C68	C	-0.846408	0.258459	-0.629712
C69	C	-0.904813	0.312461	-0.656813
C70	C	-0.819559	0.233635	-0.577758
C71	C	-0.765694	0.183833	-0.552761
C72	C	-0.738677	0.158847	-0.579717
C73	C	-0.368668	-0.213052	-0.234803
C74	C	-0.343669	-0.242086	-0.180935
C75	C	-0.370621	-0.217169	-0.153914
C76	C	-0.343519	-0.248648	-0.095506
C77	C	-0.422573	-0.163222	-0.180762
C78	C	-0.447570	-0.134193	-0.234627
C79	C	-0.420610	-0.159111	-0.261646
C80	C	-0.447720	-0.127629	-0.552258
C81	C	-0.469327	-0.102536	-0.530805
C82	C	-0.469328	-0.102535	-0.366609
C83	C	-0.447721	-0.127627	-0.320054
C84	C	-0.633714	0.061794	-0.530997
C85	C	-0.680269	0.104841	-0.552605
O86	O	0.076277	-0.384081	0.012960
O87	O	-0.076257	-0.294916	-0.012894
O88	O	0.012931	-0.384083	0.076300
O89	O	-0.012910	-0.294914	-0.076234
O90	O	0.012933	-0.311666	0.076306
O91	O	-0.076254	-0.222499	-0.012888
O92	O	0.076280	-0.311664	0.012966
Zn93	Zn	0.000013	-0.255584	0.000040
Zn94	Zn	0.000010	-0.350996	0.000032
O95	O	-0.012908	-0.222497	-0.076228
O96	O	-0.298805	0.063292	0.012964
O97	O	-0.235462	-0.063346	-0.012888
O98	O	-0.235465	-0.063353	0.076305
O99	O	-0.298803	0.063300	-0.076229
O100	O	-0.307912	-0.063350	0.076299
O101	O	-0.307909	-0.063342	-0.012895
O102	O	-0.371252	0.063295	0.012958
Zn103	Zn	-0.351083	-0.000023	0.000031
Zn104	Zn	-0.255631	-0.000027	0.000039
O105	O	-0.371250	0.063303	-0.076236
O106	O	-1.076607	0.456783	-0.692421
O107	O	-0.924074	0.330140	-0.629074
O108	O	-1.013262	0.330138	-0.629073
O109	O	-0.987418	0.456785	-0.692422
O110	O	-1.013261	0.330136	-0.701518
O111	O	-0.924072	0.330138	-0.701518
O112	O	-1.076605	0.456781	-0.764865
Zn113	Zn	-1.000338	0.393459	-0.744694
Zn114	Zn	-1.000340	0.393461	-0.649245
O115	O	-0.987417	0.456783	-0.764866
O116	O	-0.307911	-0.311650	-0.764507
O117	O	-0.371254	-0.222491	-0.701165
O118	O	-0.371252	-0.311652	-0.701162
O119	O	-0.307912	-0.222489	-0.764510
O120	O	-0.298806	-0.384074	-0.628716
O121	O	-0.298807	-0.294912	-0.628719
O122	O	-0.235464	-0.384072	-0.692061
Zn123	Zn	-0.255634	-0.350991	-0.648887
Zn124	Zn	-0.351085	-0.255572	-0.744338
O125	O	-0.235466	-0.294910	-0.692064
C126	C	-0.155920	-0.469469	0.234827
C127	C	-0.098464	-0.523208	0.261706
C128	C	-0.182375	-0.443392	0.261162
C129	C	-0.234797	-0.390619	0.155950
C130	C	-0.261676	-0.360052	0.098494
C131	C	-0.261132	-0.364662	0.182405
C132	C	-0.234797	-0.390620	0.234826
C133	C	-0.261675	-0.360052	0.261704
C134	C	-0.182375	-0.443391	0.182406
C135	C	0.018810	-0.390643	0.234846
C136	C	0.015111	-0.360079	0.261727
C137	C	0.019176	-0.443414	0.261179
C138	C	0.018812	-0.390637	0.155967
C139	C	0.015115	-0.360067	0.098511
C140	C	0.019178	-0.443408	0.182420
C141	C	0.018807	-0.469488	0.234841
C142	C	0.015106	-0.523226	0.261717
C143	C	0.019180	-0.364683	0.182425
C144	C	-0.234799	-0.215977	0.234834
C145	C	-0.261678	-0.246545	0.261708
C146	C	-0.182376	-0.241940	0.261172
C147	C	-0.234798	-0.137119	0.155964
C148	C	-0.261676	-0.083372	0.098509
C149	C	-0.182375	-0.163202	0.182421
C150	C	-0.155921	-0.215981	0.234841
C151	C	-0.098464	-0.246554	0.261721
C152	C	-0.261134	-0.163198	0.182415
C153	C	-0.039199	0.007461	-0.503869
C154	C	-0.039568	-0.018614	-0.530207
C155	C	-0.039203	-0.071390	-0.424995
C156	C	-0.039572	-0.097344	-0.451452
C157	C	-0.039201	-0.071385	-0.503874
C158	C	-0.039570	-0.018618	-0.451448
C159	C	-0.024912	0.183325	-0.552025
C160	C	-0.020873	0.233135	-0.576849
C161	C	-0.018844	0.258123	-0.628796
C162	C	-0.014454	0.312124	-0.655711
C163	C	-0.020859	0.233301	-0.655918
C164	C	-0.024906	0.183500	-0.631097
C165	C	-0.026932	0.158512	-0.579148
C166	C	-0.024920	-0.133799	-0.631644
C167	C	-0.020882	-0.162650	-0.656647
C168	C	-0.018855	-0.216605	-0.629699
C169	C	-0.014470	-0.247897	-0.656801
C170	C	-0.020872	-0.241704	-0.577746
C171	C	-0.024919	-0.212847	-0.552747
C172	C	-0.026939	-0.158893	-0.579702
C173	C	-0.024929	-0.133823	-0.234783
C174	C	-0.020887	-0.162684	-0.180915
C175	C	-0.018862	-0.216639	-0.153896
C176	C	-0.014477	-0.247936	-0.095488
C177	C	-0.020875	-0.241733	-0.180745
C178	C	-0.024915	-0.212872	-0.234610
C179	C	-0.026947	-0.158912	-0.261627
C180	C	-0.031316	0.104507	-0.552235
C181	C	-0.034811	0.061462	-0.530782
C182	C	-0.034820	-0.102682	-0.366590
C183	C	-0.031328	-0.127624	-0.320035
C184	C	-0.034816	-0.102672	-0.530980
C185	C	-0.031322	-0.127610	-0.552588
O186	O	-0.012940	-0.294936	0.371303
O187	O	0.012923	-0.384099	0.307961
O188	O	-0.076273	-0.294935	0.307950
O189	O	0.076257	-0.384100	0.371315
O190	O	-0.076265	-0.222515	0.235508
O191	O	0.012932	-0.311679	0.235520
O192	O	-0.012931	-0.222517	0.298862
Zn193	Zn	0.000002	-0.255600	0.255689
Zn194	Zn	-0.000010	-0.351016	0.351134
O195	O	0.076266	-0.311681	0.298873
C196	C	-0.574962	0.464558	-0.503864
C197	C	-0.548506	0.490518	-0.530195
C198	C	-0.496085	0.385697	-0.424987
C199	C	-0.469749	0.411776	-0.451438
C200	C	-0.496084	0.464555	-0.503857
C201	C	-0.548507	0.411779	-0.451444
C202	C	-0.765173	0.526994	-0.552039
C203	C	-0.819039	0.555852	-0.576867
C204	C	-0.846061	0.609814	-0.628812
C205	C	-0.904469	0.641114	-0.655732
C206	C	-0.819211	0.634913	-0.655928
C207	C	-0.765348	0.606050	-0.631102
C208	C	-0.738329	0.552088	-0.579155
C209	C	-0.447916	0.606561	-0.631604
C210	C	-0.423088	0.635592	-0.656601
C211	C	-0.371143	0.610674	-0.629648
C212	C	-0.344222	0.642150	-0.656742
C213	C	-0.344023	0.556716	-0.577696
C214	C	-0.368845	0.527681	-0.552704
C215	C	-0.420798	0.552613	-0.579664
C216	C	-0.447920	0.209802	-0.234786
C217	C	-0.423096	0.159988	-0.180919
C218	C	-0.371148	0.134996	-0.153895
C219	C	-0.344230	0.080987	-0.095489
C220	C	-0.344029	0.159823	-0.180737
C221	C	-0.368856	0.209637	-0.234602
C222	C	-0.420801	0.234620	-0.261624
C223	C	-0.679923	0.520797	-0.552238
C224	C	-0.633367	0.495853	-0.530781
C225	C	-0.469169	0.331687	-0.366583
C226	C	-0.447714	0.288634	-0.320030
C227	C	-0.469167	0.496035	-0.530956
C228	C	-0.447712	0.521128	-0.552558
H229	H	-0.569747	-0.610106	0.040228
H230	H	-0.346767	-0.770191	0.026621
O231	O	-0.293560	0.135459	-0.154416
C232	C	-0.220283	0.058673	-0.071349
C233	C	-0.277432	0.086193	-0.101095
H234	H	-0.207229	0.018845	-0.028231
H235	H	-0.192032	0.041176	-0.091675
H236	H	-0.219293	0.095659	-0.072112
H237	H	-0.278473	0.049240	-0.100341
H238	H	-0.305657	0.103705	-0.080760
O239	O	-0.156982	-0.137213	-0.019792
C240	C	-0.082337	-0.150663	0.025107
C241	C	-0.111013	-0.180165	0.025913
H242	H	-0.045172	-0.185372	0.062061
H243	H	-0.070328	-0.136371	-0.012203
H244	H	-0.110308	-0.108380	0.024882
H245	H	-0.083072	-0.222467	0.026157
H246	H	-0.123031	-0.194412	0.063220
H247	H	-0.161139	-0.284365	-0.019743
O248	O	-0.026795	-0.237347	-0.260617
C249	C	0.017846	-0.325049	-0.264829
C250	C	0.020034	-0.297409	-0.235319
H251	H	0.055707	-0.373608	-0.244395
H252	H	-0.018366	-0.326849	-0.263997
H253	H	0.014587	-0.295127	-0.307971
H254	H	0.023311	-0.327307	-0.192166
H255	H	0.056239	-0.295597	-0.236195
O256	O	-0.312548	-0.137051	-0.019959
C257	C	-0.403203	-0.046565	-0.066959
C258	C	-0.345001	-0.076073	-0.066113
H259	H	-0.429456	0.002745	-0.104266
H260	H	-0.417599	-0.074238	-0.067203
H261	H	-0.405634	-0.046346	-0.030009
H262	H	-0.342525	-0.076297	-0.103057
H263	H	-0.330631	-0.048390	-0.065843
O264	O	-0.418357	-0.614264	0.040372
C265	C	-0.342453	-0.609399	0.041400
C266	C	-0.400651	-0.579915	0.040567
H267	H	-0.328124	-0.581633	0.041546
H268	H	-0.316151	-0.658679	0.078745
H269	H	-0.340011	-0.609692	0.004485
H270	H	-0.403144	-0.579578	0.077456
H271	H	-0.426926	-0.530651	0.003199
O272	O	-0.293229	-0.294536	-0.550555
C273	C	-0.236068	-0.402079	-0.515805
C274	C	-0.293209	-0.342719	-0.545635
H275	H	-0.236035	-0.441054	-0.511808
H276	H	-0.208763	-0.394271	-0.539059
H277	H	-0.221108	-0.414866	-0.474428
H278	H	-0.308218	-0.329899	-0.587013
H279	H	-0.320478	-0.350558	-0.522340
O280	O	-0.573914	-0.458905	0.040356
C281	C	-0.654697	-0.384029	0.041346
C282	C	-0.625983	-0.441395	0.040543
H283	H	-0.696804	-0.369847	0.041486
H284	H	-0.631713	-0.395045	0.078681
H285	H	-0.656841	-0.344696	0.004421
H286	H	-0.623832	-0.480753	0.077442
H287	H	-0.648978	-0.430328	0.003183
O288	O	-0.156964	-0.469400	0.157073
C289	C	-0.082310	-0.499037	0.125622
C290	C	-0.111022	-0.469607	0.154346
H291	H	-0.045166	-0.499202	0.123398
H292	H	-0.070263	-0.548354	0.148619
H293	H	-0.110273	-0.471299	0.083545
H294	H	-0.083088	-0.497296	0.196424
H295	H	-0.123078	-0.420285	0.131309
H296	H	-0.301723	0.536422	-0.555753
H297	H	-0.026547	0.163294	-0.653183
H298	H	-0.569753	0.389964	-0.430206
H299	H	-0.445184	-0.320548	0.019287
O300	O	-0.018790	0.257522	-0.706340
C301	C	0.031622	0.280183	-0.763402
C302	C	0.029351	0.252725	-0.706272
H303	H	0.070535	0.276326	-0.763368
H304	H	0.029523	0.253884	-0.778536
H305	H	-0.003536	0.330713	-0.790606
H306	H	0.064502	0.202199	-0.679028
H307	H	0.031424	0.279070	-0.691182
H308	H	-0.346776	-0.516292	0.026600
H309	H	-0.161136	-0.141377	0.161182
O310	O	-0.312486	-0.137201	0.157019
C311	C	-0.373635	-0.107382	0.082288
C312	C	-0.315460	-0.136844	0.111000
H313	H	-0.376060	-0.107072	0.045070
H314	H	-0.388009	-0.135111	0.110177
H315	H	-0.399912	-0.058105	0.070342
H316	H	-0.289141	-0.186118	0.122948
H317	H	-0.301129	-0.109069	0.083093
O318	O	-0.573756	0.541167	-0.581584
C319	C	-0.567849	0.616024	-0.657471
C320	C	-0.539190	0.558659	-0.599280
H321	H	-0.539919	0.630192	-0.671792
H322	H	-0.579818	0.605014	-0.683788
H323	H	-0.605047	0.655365	-0.659898
H324	H	-0.501974	0.519293	-0.596801
H325	H	-0.527261	0.569721	-0.572989
H326	H	-0.840896	0.535415	-0.554785
O327	O	-0.293564	-0.467483	0.018971
C328	C	-0.220282	-0.457706	0.012720
C329	C	-0.277434	-0.430303	0.014927
H330	H	-0.207228	-0.427652	0.009439
H331	H	-0.192036	-0.506264	0.050556
H332	H	-0.219285	-0.459470	-0.023510
H333	H	-0.278482	-0.428497	0.051133
H334	H	-0.305655	-0.381761	-0.022934
O335	O	-0.156993	-0.469383	0.312517
C336	C	-0.082293	-0.499179	0.373687
C337	C	-0.110983	-0.469724	0.315507
H338	H	-0.045083	-0.499476	0.376126
H339	H	-0.110200	-0.471452	0.388054
H340	H	-0.070340	-0.548460	0.399963
H341	H	-0.122939	-0.420447	0.289190
H342	H	-0.083059	-0.497497	0.301184
O343	O	-0.498394	-0.369204	0.026914
C344	C	-0.574190	-0.287931	0.026517
C345	C	-0.517037	-0.315382	0.024311
H346	H	-0.589276	-0.244418	0.024424
H347	H	-0.601423	-0.276096	-0.008636
H348	H	-0.574168	-0.322988	0.065437
H349	H	-0.517009	-0.280355	-0.014587
H350	H	-0.489829	-0.327231	0.059490
O351	O	0.019962	-0.314073	0.157058
C352	C	0.066994	-0.270452	0.113603
C353	C	0.066169	-0.327804	0.142310
H354	H	0.104355	-0.281537	0.101681
H355	H	0.030093	-0.231082	0.076383
H356	H	0.067160	-0.256288	0.141532
H357	H	0.066022	-0.342023	0.114423
H358	H	0.103068	-0.367138	0.179537
O359	O	0.019978	-0.469487	0.157094
C360	C	0.066963	-0.516607	0.113572
C361	C	0.066131	-0.487098	0.142250
H362	H	0.104268	-0.530842	0.101551
H363	H	0.067198	-0.558911	0.141496
H364	H	0.030012	-0.481870	0.076400
H365	H	0.103075	-0.521788	0.179419
H366	H	0.065868	-0.444783	0.114289
O367	O	-0.845372	0.687310	-0.706395
C368	C	-0.839868	0.762699	-0.782178
C369	C	-0.810175	0.703348	-0.725030
H370	H	-0.811427	0.775692	-0.797258
H371	H	-0.855266	0.754797	-0.809422
H372	H	-0.874912	0.801576	-0.782146
H373	H	-0.775110	0.664443	-0.725011
H374	H	-0.794816	0.711302	-0.697811
H375	H	-0.743175	-0.373219	0.026636
H376	H	-0.026568	-0.089866	-0.653596
O377	O	-0.026975	-0.237142	-0.502320
C378	C	-0.077365	-0.221437	-0.445152
C379	C	-0.075112	-0.193852	-0.502289
H380	H	-0.116274	-0.186445	-0.445106
H381	H	-0.075259	-0.264939	-0.430168
H382	H	-0.042203	-0.233339	-0.417873
H383	H	-0.110268	-0.181913	-0.529608
H384	H	-0.077191	-0.150374	-0.517229
H385	H	0.019760	-0.465234	0.304248
H386	H	-0.161141	-0.284407	0.304244
H387	H	-0.304201	-0.322192	0.161160
O388	O	-0.040387	-0.147930	-0.426138
C389	C	-0.087406	-0.191555	-0.382643
C390	C	-0.086547	-0.134225	-0.411304
H391	H	-0.124717	-0.180498	-0.370632
H392	H	-0.087648	-0.205696	-0.410575
H393	H	-0.050461	-0.230930	-0.345468
H394	H	-0.123485	-0.094812	-0.448478
H395	H	-0.086278	-0.120137	-0.383336
O396	O	-0.018902	-0.138405	-0.154750
C397	C	-0.012720	-0.147811	-0.071853
C398	C	-0.014947	-0.175384	-0.101416
H399	H	-0.009533	-0.177689	-0.028730
H400	H	0.023527	-0.146079	-0.072632
H401	H	-0.050548	-0.099221	-0.092327
H402	H	0.022855	-0.223985	-0.080963
H403	H	-0.051218	-0.177069	-0.100640
O404	O	-0.845040	-0.312070	0.018968
C405	C	-0.839179	-0.236922	0.019424
C406	C	-0.809667	-0.296281	0.021663
H407	H	-0.810589	-0.224146	0.021613
H408	H	-0.874191	-0.197921	-0.019512
H409	H	-0.854599	-0.244781	0.054556
H410	H	-0.794211	-0.288483	-0.013442
H411	H	-0.774680	-0.335262	0.060621
O412	O	-0.845538	-0.467464	0.018946
C413	C	-0.928587	-0.457718	0.012750
C414	C	-0.898835	-0.430340	0.014992
H415	H	-0.971680	-0.427722	0.009564
H416	H	-0.927892	-0.459437	-0.023503
H417	H	-0.908199	-0.506297	0.050573
H418	H	-0.919202	-0.381750	-0.022804
H419	H	-0.899527	-0.428668	0.051270
O420	O	-0.448682	-0.139112	-0.706392
C421	C	-0.445131	-0.148864	-0.779688
C422	C	-0.415499	-0.176238	-0.722550
H423	H	-0.418311	-0.178861	-0.792773
H424	H	-0.483103	-0.147148	-0.780708
H425	H	-0.455907	-0.100285	-0.807898
H426	H	-0.404687	-0.224828	-0.694306
H427	H	-0.377550	-0.177908	-0.721573
O428	O	-0.449371	0.135816	-0.154760
C429	C	-0.446152	0.059121	-0.071870
C430	C	-0.416339	0.086448	-0.101426
H431	H	-0.419454	0.019194	-0.028747
H432	H	-0.484132	0.096134	-0.072648
H433	H	-0.456931	0.041780	-0.092351
H434	H	-0.405523	0.103785	-0.080968
H435	H	-0.378382	0.049415	-0.100652
O436	O	-0.026870	-0.081429	-0.260941
C437	C	-0.026485	-0.006049	-0.255436
C438	C	-0.024271	-0.065394	-0.225743
H439	H	-0.024396	0.006940	-0.226994
H440	H	0.008666	-0.013960	-0.270832
H441	H	-0.065406	0.032833	-0.290481
H442	H	0.014627	-0.104305	-0.190676
H443	H	-0.059449	-0.057433	-0.210385
O444	O	-0.739351	-0.524769	0.026913
C445	C	-0.745196	-0.599951	0.026508
C446	C	-0.774700	-0.540616	0.024309
H447	H	-0.773760	-0.612789	0.024415
H448	H	-0.729813	-0.592111	-0.008646
H449	H	-0.710158	-0.638906	0.065427
H450	H	-0.809759	-0.501633	-0.014587
H451	H	-0.790044	-0.548507	0.059490
O452	O	-0.040214	0.007462	-0.581571
C453	C	-0.041198	0.089207	-0.657460
C454	C	-0.040478	0.059751	-0.599297
H455	H	-0.041423	0.131496	-0.671813
H456	H	-0.004244	0.054473	-0.659882
H457	H	-0.078503	0.103483	-0.683758
H458	H	-0.003198	0.045476	-0.572964
H459	H	-0.077457	0.094504	-0.596917
H460	H	-0.445174	0.679524	-0.698898
O461	O	-0.739231	0.630416	-0.657360
C462	C	-0.690689	0.672725	-0.658364
C463	C	-0.720240	0.645125	-0.628567
H464	H	-0.675337	0.684637	-0.635104
H465	H	-0.655636	0.637783	-0.662314
H466	H	-0.719255	0.716232	-0.699761
H467	H	-0.691716	0.601625	-0.587156
H468	H	-0.755301	0.680107	-0.624661
O469	O	-0.040306	0.007510	-0.426193
C470	C	-0.041321	0.089271	-0.432080
C471	C	-0.040496	0.059752	-0.460746
H472	H	-0.041464	0.131506	-0.460000
H473	H	-0.078663	0.103617	-0.420126
H474	H	-0.004404	0.054510	-0.394872
H475	H	-0.077387	0.094481	-0.497973
H476	H	-0.003130	0.045393	-0.472660
O477	O	-0.342538	-0.237276	-0.501565
C478	C	-0.341828	-0.279182	-0.410805
C479	C	-0.371461	-0.251791	-0.467949
H480	H	-0.365206	-0.290913	-0.383613
H481	H	-0.300404	-0.322746	-0.395638
H482	H	-0.337953	-0.244120	-0.410871
H483	H	-0.375377	-0.286807	-0.467929
H484	H	-0.412868	-0.208215	-0.483093
H485	H	-0.026563	0.162985	-0.509727
O486	O	-0.018893	0.257150	-0.550418
C487	C	-0.019356	0.251745	-0.469383
C488	C	-0.021592	0.224482	-0.499252
H489	H	-0.021548	0.225354	-0.428014
H490	H	0.019581	0.247821	-0.465378
H491	H	-0.054486	0.302282	-0.492666
H492	H	0.013512	0.173938	-0.475994
H493	H	-0.060550	0.228455	-0.503262
H494	H	-0.490218	-0.769893	0.026639
O495	O	-0.448845	-0.138949	-0.154589
C496	C	-0.529738	-0.057647	-0.160113
C497	C	-0.500051	-0.085075	-0.189813
H498	H	-0.571140	-0.014078	-0.188582
H499	H	-0.533658	-0.092652	-0.125092
H500	H	-0.506373	-0.045885	-0.144684
H501	H	-0.523391	-0.096835	-0.205276
H502	H	-0.496125	-0.050054	-0.224808
O503	O	-0.449521	-0.864063	0.018977
C504	C	-0.530550	-0.858672	0.019449
C505	C	-0.500687	-0.831399	0.021676
H506	H	-0.571918	-0.832283	0.021642
H507	H	-0.534554	-0.854752	-0.019485
H508	H	-0.507263	-0.909207	0.054584
H509	H	-0.523947	-0.780856	-0.013431
H510	H	-0.496676	-0.835367	0.060633
H511	H	-0.019237	-0.142213	-0.698946
O512	O	-0.018976	-0.294068	-0.551649
C513	C	-0.060275	-0.343519	-0.550928
C514	C	-0.062482	-0.284179	-0.580543
H515	H	-0.095451	-0.335541	-0.574271
H516	H	-0.021371	-0.382431	-0.547065
H517	H	-0.062388	-0.356506	-0.509498
H518	H	-0.060391	-0.271136	-0.621987
H519	H	-0.101384	-0.245303	-0.584363
O520	O	-0.293581	-0.864527	0.018939
C521	C	-0.220284	-0.941351	0.012738
C522	C	-0.277422	-0.913853	0.014984
H523	H	-0.207197	-0.981244	0.009552
H524	H	-0.219262	-0.904412	-0.023518
H525	H	-0.192076	-0.958779	0.050559
H526	H	-0.305663	-0.896429	-0.022810
H527	H	-0.278401	-0.950813	0.051264
O528	O	-0.574108	0.007693	-0.426066
C529	C	-0.568222	0.002814	-0.345288
C530	C	-0.539554	-0.026659	-0.373997
H531	H	-0.540301	-0.024954	-0.303182
H532	H	-0.580181	0.052096	-0.368278
H533	H	-0.605426	0.003098	-0.343142
H534	H	-0.502332	-0.026987	-0.376150
H535	H	-0.527635	-0.075925	-0.350997
O536	O	-0.018936	-0.294128	-0.154430
C537	C	-0.012698	-0.373630	-0.071372
C538	C	-0.014896	-0.314295	-0.101109
H539	H	-0.009420	-0.389961	-0.028254
H540	H	-0.050535	-0.364037	-0.091705
H541	H	0.023531	-0.410847	-0.072138
H542	H	-0.051101	-0.277051	-0.100352
H543	H	0.022965	-0.323938	-0.080767
O544	O	-0.574109	0.007689	-0.581616
C545	C	-0.568165	0.002919	-0.657566
C546	C	-0.539514	-0.026585	-0.599358
H547	H	-0.540204	-0.024772	-0.671931
H548	H	-0.605361	0.003196	-0.660080
H549	H	-0.580132	0.052207	-0.683794
H550	H	-0.527511	-0.075885	-0.573095
H551	H	-0.502341	-0.026815	-0.596886
H552	H	-0.427024	-0.139478	-0.430231
H553	H	-0.426677	0.389946	-0.430194
O554	O	-0.293215	-0.294505	-0.154771
C555	C	-0.219723	-0.374152	-0.071875
C556	C	-0.276869	-0.314801	-0.101436
H557	H	-0.206486	-0.390571	-0.028752
H558	H	-0.218767	-0.411340	-0.072655
H559	H	-0.191592	-0.364455	-0.092351
H560	H	-0.305033	-0.324438	-0.080983
H561	H	-0.277782	-0.277631	-0.100661
O562	O	-0.498392	0.234019	-0.260948
C563	C	-0.574187	0.228909	-0.255452
C564	C	-0.517035	0.201430	-0.225755
H565	H	-0.589273	0.202565	-0.227014
H566	H	-0.601421	0.279438	-0.270842
H567	H	-0.574163	0.225044	-0.290501
H568	H	-0.517007	0.205251	-0.190684
H569	H	-0.489826	0.150913	-0.210403
O570	O	-0.739002	0.474562	-0.501588
C571	C	-0.744521	0.399209	-0.425783
C572	C	-0.774223	0.458580	-0.482920
H573	H	-0.772987	0.386276	-0.410668
H574	H	-0.709500	0.360284	-0.425781
H575	H	-0.729092	0.407139	-0.398585
H576	H	-0.789686	0.450710	-0.510150
H577	H	-0.809218	0.497484	-0.482879
O578	O	-0.498369	0.630839	-0.657878
C579	C	-0.574180	0.712152	-0.738768
C580	C	-0.517041	0.684719	-0.709083
H581	H	-0.589298	0.755726	-0.780168
H582	H	-0.574188	0.677153	-0.742694
H583	H	-0.601372	0.723907	-0.715399
H584	H	-0.489817	0.672966	-0.732427
H585	H	-0.517076	0.719735	-0.705151
H586	H	-0.346761	0.483749	-0.510407
O587	O	-0.342427	0.233659	-0.260602
C588	C	-0.261395	0.228260	-0.254732
C589	C	-0.291260	0.200988	-0.225226
H590	H	-0.220025	0.201866	-0.226140
H591	H	-0.257393	0.224349	-0.289749
H592	H	-0.284678	0.278793	-0.270145
H593	H	-0.268002	0.150447	-0.209778
H594	H	-0.295268	0.204947	-0.190234
O595	O	-0.342410	-0.237348	-0.260965
C596	C	-0.261490	-0.318596	-0.255469
C597	C	-0.291169	-0.291164	-0.225769
H598	H	-0.220052	-0.362104	-0.227029
H599	H	-0.284792	-0.330435	-0.270873
H600	H	-0.257646	-0.283526	-0.290509
H601	H	-0.295020	-0.326204	-0.190708
H602	H	-0.267855	-0.279310	-0.210404
O603	O	-0.739346	0.159488	-0.657929
C604	C	-0.744864	0.164562	-0.738818
C605	C	-0.774566	0.192011	-0.709137
H606	H	-0.773330	0.190837	-0.780220
H607	H	-0.709842	0.168474	-0.742738
H608	H	-0.729437	0.114019	-0.715448
H609	H	-0.790028	0.242562	-0.732481
H610	H	-0.809563	0.188051	-0.705211
O611	O	-0.845460	0.257669	-0.707156
C612	C	-0.894062	0.347499	-0.798020
C613	C	-0.864536	0.320175	-0.740862
H614	H	-0.909503	0.398042	-0.825284
H615	H	-0.865512	0.321129	-0.813027
H616	H	-0.929066	0.343560	-0.798053
H617	H	-0.829533	0.324109	-0.740784
H618	H	-0.893121	0.346550	-0.725878
O619	O	-0.845890	0.257963	-0.551646
C620	C	-0.928939	0.334791	-0.555201
C621	C	-0.899187	0.307290	-0.584830
H622	H	-0.972033	0.374684	-0.582022
H623	H	-0.928243	0.297854	-0.517226
H624	H	-0.908552	0.352219	-0.544430
H625	H	-0.919552	0.289865	-0.595638
H626	H	-0.899879	0.344247	-0.622783
O627	O	-0.739700	0.159780	-0.502288
C628	C	-0.745544	0.165224	-0.426679
C629	C	-0.775049	0.192513	-0.483832
H630	H	-0.774108	0.191685	-0.411744
H631	H	-0.730157	0.114701	-0.399362
H632	H	-0.710508	0.169107	-0.426635
H633	H	-0.810106	0.188674	-0.483928
H634	H	-0.790398	0.243024	-0.511125
O635	O	-0.498037	-0.081800	-0.657534
C636	C	-0.573646	-0.006613	-0.738591
C637	C	-0.516494	-0.065952	-0.708735
H638	H	-0.588582	0.006225	-0.779997
H639	H	-0.600962	-0.014446	-0.715368
H640	H	-0.573691	0.032339	-0.742521
H641	H	-0.516397	-0.104933	-0.704799
H642	H	-0.489202	-0.058068	-0.731971
H643	H	-0.489870	-0.090268	-0.256484
