data_functionalizedCrystal
_audit_creation_method	'MofGen! by Chris Wilmer'
_symmetry_space_group_name_H-M	'P1'
_symmetry_Int_Tables_number	1
_symmetry_cell_setting	triclinic
loop_
_symmetry_equiv_pos_as_xyz
  x,y,z
_cell_length_a	10.489741
_cell_length_b	15.624803
_cell_length_c	14.750779
_cell_angle_alpha	85.131014
_cell_angle_beta	77.226586
_cell_angle_gamma	84.375333
loop_
_atom_site_label
_atom_site_type_symbol
_atom_site_fract_x
_atom_site_fract_y
_atom_site_fract_z
O1	O	0.325005	1.086135	-0.458003
O2	O	0.315703	0.844226	-0.373775
O3	O	0.135350	0.970687	-0.417800
O4	O	0.505357	0.959675	-0.413978
O5	O	0.084373	1.006435	-0.270595
O6	O	0.264725	0.879975	-0.226570
O7	O	0.274028	1.121884	-0.310798
Zn8	Zn	0.261283	1.006605	-0.245312
Zn9	Zn	0.328448	0.959505	-0.439261
O10	O	0.454380	0.995424	-0.266773
C11	C	0.285584	0.831124	-0.289387
C12	C	0.271772	0.738824	-0.257250
C13	C	0.365245	0.337900	-0.552851
C14	C	0.352241	0.251172	-0.522653
C15	C	0.296665	0.290123	-0.362169
C16	C	0.309658	0.376856	-0.392354
C17	C	0.343950	0.400737	-0.487696
C18	C	0.288362	0.439693	-0.327199
C19	C	0.301361	0.526418	-0.357382
C20	C	0.335656	0.550306	-0.452720
C21	C	0.356949	0.487462	-0.517879
C22	C	0.254080	0.415810	-0.231857
C23	C	0.232784	0.478647	-0.166701
C24	C	0.245774	0.565374	-0.196884
C25	C	0.280068	0.589262	-0.292223
C26	C	0.224481	0.628219	-0.131725
C27	C	0.237480	0.714944	-0.161908
C28	C	0.293067	0.675987	-0.322406
C29	C	0.062240	0.987729	-0.343909
C30	C	-0.079658	0.985241	-0.343044
C31	C	-0.156509	0.904778	-0.315036
C32	C	-0.269650	0.960413	-0.255690
C33	C	-0.219363	0.925187	-0.400829
C34	C	-0.190951	1.040925	-0.283650
C35	C	-0.140633	1.005671	-0.428851
C36	C	-0.253747	1.061369	-0.369508
C37	C	0.527491	0.978381	-0.340666
C38	C	0.669391	0.980867	-0.341537
C39	C	0.304147	1.134986	-0.395188
C40	C	0.317961	1.227284	-0.427330
N41	N	0.215444	1.038756	-0.112949
N42	N	0.374277	0.927361	-0.571626
C43	C	0.502240	0.837567	0.308910
C44	C	0.470129	0.860103	0.401563
C45	C	0.310493	0.972107	0.362534
C46	C	0.342587	0.949578	0.269876
C47	C	0.438462	0.882308	0.243072
C48	C	0.278809	0.994319	0.204038
C49	C	0.310905	0.971794	0.111387
C50	C	0.406779	0.904529	0.084574
C51	C	0.470558	0.859784	0.150421
C52	C	0.182941	1.061592	0.230842
C53	C	0.119163	1.106333	0.165004
C54	C	0.151252	1.083805	0.072353
C55	C	0.247126	1.016540	0.045540
C56	C	0.087473	1.128551	0.006506
C57	C	0.119569	1.106026	-0.086145
C58	C	0.279222	0.994015	-0.047111
H59	H	0.384868	0.506906	-0.595517
F60	F	0.188004	0.602789	-0.030258
F61	F	-0.067462	1.030656	-0.524539
F62	F	0.572588	0.788179	0.121895
F63	F	-0.236911	0.861193	-0.465527
H64	H	0.580301	0.782783	0.287088
F65	F	-0.173648	1.104887	-0.218840
F66	F	0.538024	0.812477	0.471630
F67	F	-0.308996	1.147928	-0.399592
F68	F	0.208462	1.043701	0.391069
H69	H	0.357284	0.939232	-0.068932
H70	H	-0.114047	0.838640	-0.291929
F71	F	-0.342778	0.935393	-0.159993
F72	F	0.148792	1.085565	0.329451
F73	F	0.440943	0.880561	-0.014036
F74	F	0.017131	1.177927	0.193539
H75	H	0.009420	1.183328	0.028341
H76	H	0.067635	1.142460	-0.139753
H77	H	0.204868	0.459190	-0.089073
F78	F	0.240253	0.323507	-0.199735
F79	F	0.260176	0.264697	-0.260701
H80	H	0.320987	0.695432	-0.400043
H81	H	0.393165	0.357344	-0.630489
F82	F	0.349496	0.642607	-0.484844
F83	F	0.374915	0.184296	-0.592008
H84	H	0.220146	0.766108	-0.108852
