data_functionalizedCrystal
_audit_creation_method	'MofGen! by Chris Wilmer'
_symmetry_space_group_name_H-M	'P1'
_symmetry_Int_Tables_number	1
_symmetry_cell_setting	triclinic
loop_
_symmetry_equiv_pos_as_xyz
  x,y,z
_cell_length_a	10.723024
_cell_length_b	14.519709
_cell_length_c	9.198806
_cell_angle_alpha	89.995869
_cell_angle_beta	89.996352
_cell_angle_gamma	84.074007
loop_
_atom_site_label
_atom_site_type_symbol
_atom_site_fract_x
_atom_site_fract_y
_atom_site_fract_z
O1	O	1.655978	0.129347	-0.120886
O2	O	1.292710	0.141728	-0.120892
O3	O	1.483976	0.001349	-0.120876
O4	O	1.464713	0.269727	-0.120902
O5	O	1.483960	0.001348	0.120909
O6	O	1.292695	0.141728	0.120893
O7	O	1.655963	0.129347	0.120899
Cu8	Cu	1.474328	0.135538	0.142973
Cu9	Cu	1.474345	0.135538	-0.142966
O10	O	1.464697	0.269727	0.120883
C11	C	1.246211	0.140827	0.000000
C12	C	1.107682	0.138132	-0.000001
C13	C	1.031965	0.216681	-0.000010
C14	C	0.888788	0.213896	-0.000012
C15	C	1.483070	-0.033016	0.000017
C16	C	1.480380	-0.135411	0.000018
C17	C	1.470476	-0.510357	-0.000020
C18	C	1.473227	-0.406035	-0.000009
C19	C	1.475428	-0.322887	0.000000
C20	C	1.478179	-0.218559	0.000008
C21	C	1.702462	0.130248	0.000003
C22	C	1.840991	0.132944	-0.000005
C23	C	1.465603	0.304091	-0.000013
C24	C	1.468293	0.406486	-0.000024
N25	N	1.474324	0.135537	0.344087
N26	N	1.474359	0.135532	-0.344080
C27	C	1.554633	0.076335	0.416290
C28	C	1.554653	0.076332	0.583703
H29	H	1.073139	0.285991	-0.000009
O30	O	1.392450	0.196133	0.581931
C31	C	1.413236	0.287517	0.619037
H32	H	1.513141	0.288460	0.660952
H33	H	1.344152	0.314322	0.707287
C34	C	1.271605	0.348697	0.432258
C35	C	1.394313	0.349857	0.483727
H36	H	1.259927	0.387154	0.348796
H37	H	1.257596	0.287130	0.407262
H38	H	1.214049	0.371033	0.505812
H39	H	1.451866	0.327510	0.410180
H40	H	1.408330	0.411422	0.508708
H41	H	1.066508	0.068822	-0.000032
O42	O	0.811002	0.294037	0.000040
C43	C	0.685364	0.273416	-0.000001
H44	H	0.680330	0.200933	0.045782
H45	H	0.647742	0.276639	-0.116000
C46	C	0.611931	0.433474	0.038574
C47	C	0.605746	0.344452	0.094818
H48	H	0.562817	0.477295	0.097056
H49	H	0.696575	0.447368	0.038597
H50	H	0.580582	0.436147	-0.058091
H51	H	0.637110	0.341777	0.191473
H52	H	0.521105	0.330559	0.094814
H53	H	1.623371	0.025649	0.354170
H54	H	1.623414	0.025651	0.645795
H55	H	0.906045	0.065696	-0.000006
O56	O	1.392258	0.195876	0.418347
C57	C	1.315023	0.146082	0.506383
H58	H	1.364326	0.074155	0.529028
H59	H	1.222683	0.139424	0.447832
C60	C	1.228235	0.286189	0.623236
C61	C	1.288795	0.197849	0.651060
H62	H	1.212051	0.318122	0.712478
H63	H	1.280266	0.319737	0.563922
H64	H	1.151292	0.280627	0.574441
H65	H	1.365743	0.203411	0.699838
H66	H	1.236776	0.164302	0.710387
