data_functionalizedCrystal
_audit_creation_method	'MofGen! by Chris Wilmer'
_symmetry_space_group_name_H-M	'P1'
_symmetry_Int_Tables_number	1
_symmetry_cell_setting	triclinic
loop_
_symmetry_equiv_pos_as_xyz
  x,y,z
_cell_length_a	15.944551
_cell_length_b	15.944493
_cell_length_c	15.021413
_cell_angle_alpha	89.992728
_cell_angle_beta	89.988701
_cell_angle_gamma	83.486891
loop_
_atom_site_label
_atom_site_type_symbol
_atom_site_fract_x
_atom_site_fract_y
_atom_site_fract_z
O1	O	1.114489	0.108329	0.073927
O2	O	0.869936	0.121686	0.073948
O3	O	0.998916	-0.007271	0.073945
O4	O	0.985509	0.237285	0.073931
O5	O	0.998931	-0.007263	-0.074120
O6	O	0.869951	0.121694	-0.074116
O7	O	1.114504	0.108337	-0.074137
Zn8	Zn	0.992230	0.115017	-0.097635
Zn9	Zn	0.992210	0.115006	0.097446
O10	O	0.985524	0.237293	-0.074133
C11	C	0.838650	0.121135	-0.000081
C12	C	0.745404	0.119473	-0.000073
C13	C	0.530565	0.035566	-0.000085
C14	C	0.469529	0.074526	0.072916
C15	C	0.574679	0.116465	-0.000083
C16	C	0.469566	0.074553	-0.073064
C17	C	0.409767	0.113555	-0.000097
C18	C	0.514871	0.155447	0.072979
C19	C	0.514915	0.155463	-0.073067
C20	C	0.453897	0.194481	-0.000048
C21	C	0.669681	0.118140	-0.000074
C22	C	0.314766	0.111886	-0.000099
C23	C	0.998375	-0.038562	-0.000084
C24	C	0.996733	-0.131810	-0.000072
C25	C	1.072653	-0.367570	-0.000095
C26	C	1.031705	-0.418142	0.072911
C27	C	0.993689	-0.302531	-0.000083
C28	C	1.031701	-0.418110	-0.073069
C29	C	0.990754	-0.467441	-0.000097
C30	C	0.952761	-0.351875	0.072984
C31	C	0.952769	-0.351840	-0.073061
C32	C	0.911763	-0.402379	-0.000037
C33	C	0.995381	-0.207531	-0.000074
C34	C	0.989055	-0.562438	-0.000100
C35	C	1.145790	0.108888	-0.000106
C36	C	1.239036	0.110550	-0.000108
C37	C	0.986064	0.268584	-0.000103
C38	C	0.987707	0.361833	-0.000109
N39	N	0.992249	0.115023	-0.230772
C40	C	1.051901	0.055380	-0.470433
C41	C	0.976005	0.039062	-0.529755
C42	C	0.992230	0.115013	-0.412379
C43	C	1.068108	0.131281	-0.529800
C44	C	0.992218	0.115001	-0.587803
C45	C	0.916295	0.098657	-0.470394
C46	C	1.008448	0.190909	-0.470434
C47	C	0.932497	0.174623	-0.529728
C48	C	0.992238	0.115018	-0.311322
C49	C	0.992201	0.114996	-0.688859
N50	N	0.992197	0.114993	0.230584
H51	H	0.449420	0.040305	0.134637
O52	O	0.839714	0.082268	-0.439302
C53	C	0.717343	0.132033	-0.351946
C54	C	0.804065	0.150690	-0.387078
H55	H	0.688487	0.187347	-0.309730
H56	H	0.725378	0.072302	-0.309629
H57	H	0.673934	0.122655	-0.410532
H58	H	0.847520	0.160108	-0.328546
H59	H	0.795965	0.210401	-0.429421
O60	O	0.830573	-0.420881	-0.000144
C61	C	0.724023	-0.488610	-0.077114
C62	C	0.815981	-0.467696	-0.077121
H63	H	0.712201	-0.526479	-0.139334
H64	H	0.679276	-0.427539	-0.076549
H65	H	0.712529	-0.527348	-0.015411
H66	H	0.827556	-0.428982	-0.138814
H67	H	0.860680	-0.528799	-0.077640
H68	H	0.881974	0.225051	-0.555599
O69	O	1.153740	-0.348755	-0.000070
C70	C	1.246139	-0.239187	-0.000731
C71	C	1.154277	-0.260389	-0.000782
H72	H	1.246604	-0.167744	-0.001288
H73	H	1.280157	-0.267523	-0.062361
H74	H	1.279668	-0.266607	0.061564
H75	H	1.120677	-0.232973	-0.063035
H76	H	1.120324	-0.232067	0.060890
H77	H	1.022200	0.255078	-0.444357
O78	O	0.913021	-0.317138	-0.146620
C79	C	0.869505	-0.189711	-0.228619
C80	C	0.914515	-0.228899	-0.145257
H81	H	0.870713	-0.118366	-0.227554
H82	H	0.801265	-0.204669	-0.229256
H83	H	0.903269	-0.217104	-0.290802
H84	H	0.880820	-0.201529	-0.083029
H85	H	0.982756	-0.213947	-0.144699
O86	O	1.144738	0.147629	-0.560789
C87	C	1.294244	0.103220	-0.565805
C88	C	1.207510	0.084612	-0.530660
H89	H	1.345015	0.052273	-0.541476
H90	H	1.308597	0.167413	-0.540330
H91	H	1.293316	0.103723	-0.641690
H92	H	1.208374	0.084065	-0.454778
H93	H	1.193191	0.020433	-0.556204
H94	H	0.919426	-0.323059	0.134771
O95	O	0.445591	0.033604	-0.146599
C96	C	0.377668	-0.082697	-0.203814
C97	C	0.404788	-0.036409	-0.120468
H98	H	0.344658	-0.139301	-0.182717
H99	H	0.435721	-0.105258	-0.245347
H100	H	0.332495	-0.037754	-0.245087
H101	H	0.449942	-0.081302	-0.079126
H102	H	0.346696	-0.013834	-0.079002
O103	O	0.959653	-0.037571	-0.560700
C104	C	0.930320	-0.178329	-0.523445
C105	C	0.948842	-0.091586	-0.488285
H106	H	0.921557	-0.222019	-0.464916
H107	H	0.985371	-0.206828	-0.566246
H108	H	0.870254	-0.170333	-0.565213
H109	H	1.008882	-0.099510	-0.446479
H110	H	0.893744	-0.063117	-0.445532
O111	O	0.570292	-0.044553	0.000163
C112	C	0.592333	-0.177699	0.077392
C113	C	0.547300	-0.086987	0.077225
H114	H	0.573747	-0.212039	0.139680
H115	H	0.663581	-0.175729	0.076816
H116	H	0.572963	-0.212505	0.015758
H117	H	0.566601	-0.052128	0.138848
H118	H	0.476061	-0.089017	0.077755
H119	H	1.065072	-0.447038	-0.134786
H120	H	0.534846	0.189635	0.134763
H121	H	0.420724	0.261690	-0.000011
H122	H	0.535045	0.189655	-0.134791
O123	O	1.071613	-0.452664	0.146471
C124	C	1.201462	-0.474394	0.229668
C125	C	1.156367	-0.435276	0.146320
H126	H	1.269988	-0.460336	0.229583
H127	H	1.199329	-0.545620	0.229293
H128	H	1.168426	-0.446134	0.291872
H129	H	1.189369	-0.463470	0.084072
H130	H	1.158493	-0.364050	0.146773
H131	H	1.102311	0.004923	-0.444397
