data_functionalizedCrystal
_audit_creation_method	'MofGen! by Chris Wilmer'
_symmetry_space_group_name_H-M	'P1'
_symmetry_Int_Tables_number	1
_symmetry_cell_setting	triclinic
loop_
_symmetry_equiv_pos_as_xyz
  x,y,z
_cell_length_a	13.262533
_cell_length_b	13.262508
_cell_length_c	9.730223
_cell_angle_alpha	74.083021
_cell_angle_beta	105.916593
_cell_angle_gamma	99.904816
loop_
_atom_site_label
_atom_site_type_symbol
_atom_site_fract_x
_atom_site_fract_y
_atom_site_fract_z
O1	O	1.393259	-0.141406	0.459369
O2	O	1.087748	-0.156770	0.350910
O3	O	1.248189	0.003668	0.350917
O4	O	1.232818	-0.301845	0.459363
O5	O	1.248187	0.003664	0.579497
O6	O	1.087746	-0.156774	0.579491
O7	O	1.393257	-0.141410	0.687950
Zn8	Zn	1.240501	-0.149093	0.670013
Zn9	Zn	1.240504	-0.149088	0.368848
O10	O	1.232816	-0.301849	0.687944
C11	C	1.048640	-0.155910	0.450260
C12	C	0.932113	-0.153327	0.405736
C13	C	0.603631	-0.146071	0.778635
C14	C	0.713113	-0.148502	0.820476
C15	C	0.767868	-0.149708	0.716795
C16	C	0.713131	-0.148483	0.571265
C17	C	0.603637	-0.146060	0.529423
C18	C	0.767875	-0.149697	0.467583
C19	C	0.713137	-0.148472	0.322054
C20	C	0.603654	-0.146048	0.280218
C21	C	0.548899	-0.144842	0.383900
C22	C	0.877368	-0.152121	0.509425
C23	C	0.877375	-0.152110	0.260213
C24	C	0.767893	-0.149678	0.218372
C25	C	1.247327	0.042773	0.450265
C26	C	1.244747	0.159301	0.405737
C27	C	1.432365	-0.142271	0.588597
C28	C	1.548892	-0.144853	0.633112
C29	C	1.233679	-0.340954	0.588592
C30	C	1.236258	-0.457482	0.633111
C31	C	1.237466	0.487777	0.778631
C32	C	1.239881	0.378293	0.820466
C33	C	1.241098	0.323540	0.716788
C34	C	1.239898	0.378282	0.571267
C35	C	1.237474	0.487776	0.529425
C36	C	1.241107	0.323538	0.467581
C37	C	1.239907	0.378280	0.322060
C38	C	1.237484	0.487763	0.280226
C39	C	1.236267	0.542517	0.383905
C40	C	1.243531	0.214044	0.509423
C41	C	1.243540	0.214042	0.260217
C42	C	1.241124	0.323527	0.218382
N43	N	1.240507	-0.149096	0.875552
N44	N	1.240506	-0.149076	0.163308
C45	C	1.311569	-0.078078	0.947497
C46	C	1.311566	-0.078065	1.091374
C47	C	1.169437	-0.220098	1.091352
C48	C	1.169435	-0.220105	0.947473
C49	C	1.393629	0.003921	0.947513
C50	C	1.393627	0.003933	1.091390
H51	H	0.559038	-0.145096	0.863039
H52	H	1.244523	0.169461	0.175790
H53	H	0.559088	-0.145062	0.161723
H54	H	0.857013	-0.151688	0.750870
F55	F	1.244808	0.155796	0.664292
F56	F	0.935643	-0.153401	0.149861
F57	F	0.709626	-0.148360	0.063488
F58	F	1.241143	0.320039	0.975328
F59	F	1.498952	-0.019110	1.190423
H60	H	1.469726	-0.021315	0.940765
H61	H	1.236467	0.532367	0.863028
F62	F	0.935612	-0.153424	0.664302
H63	H	1.243063	0.234392	0.750858
H64	H	1.234306	0.631669	0.349852
H65	H	1.236498	0.532330	0.161731
F66	F	1.239850	0.381800	0.063512
H67	H	1.111563	-0.277924	0.888890
F68	F	1.093800	-0.295665	1.167905
H69	H	0.757672	-0.149498	0.938965
F70	F	0.432371	-0.142274	0.339382
H71	H	1.376059	0.084521	0.871765
F72	F	1.360720	0.103435	1.100222
