data_functionalizedCrystal
_audit_creation_method	'MofGen! by Chris Wilmer'
_symmetry_space_group_name_H-M	'P1'
_symmetry_Int_Tables_number	1
_symmetry_cell_setting	triclinic
loop_
_symmetry_equiv_pos_as_xyz
  x,y,z
_cell_length_a	10.654550
_cell_length_b	16.109304
_cell_length_c	9.730223
_cell_angle_alpha	89.998411
_cell_angle_beta	89.999957
_cell_angle_gamma	83.973784
loop_
_atom_site_label
_atom_site_type_symbol
_atom_site_fract_x
_atom_site_fract_y
_atom_site_fract_z
O1	O	1.666257	0.116774	-0.114178
O2	O	2.166257	0.616774	0.385822
O3	O	1.300627	0.127899	-0.114202
O4	O	1.800627	0.627899	0.385798
O5	O	1.493484	0.001365	-0.114190
O6	O	1.993484	0.501365	0.385810
O7	O	1.473400	0.243308	-0.114190
O8	O	1.973400	0.743308	0.385810
O9	O	1.493472	0.001362	0.114390
O10	O	1.993472	0.501362	0.614390
O11	O	1.300615	0.127896	0.114378
O12	O	1.800615	0.627896	0.614378
O13	O	1.666244	0.116770	0.114402
O14	O	2.166244	0.616770	0.614402
Zn15	Zn	1.483428	0.122332	0.150682
Zn16	Zn	1.983428	0.622332	0.650682
Zn17	Zn	1.483444	0.122337	-0.150482
Zn18	Zn	1.983444	0.622337	0.349518
O19	O	1.473387	0.243304	0.114390
O20	O	1.973387	0.743304	0.614390
C21	C	1.253834	0.127080	0.000084
C22	C	1.753834	0.627080	0.500084
C23	C	1.114424	0.124636	0.000075
C24	C	1.614424	0.624636	0.500075
C25	C	1.492664	-0.029616	0.000097
C26	C	1.992664	0.470384	0.500097
C27	C	1.490223	-0.121926	0.000087
C28	C	1.990223	0.378074	0.500087
C29	C	1.033929	0.199138	0.000079
C30	C	1.533929	0.699138	0.500079
C31	C	0.902939	0.196836	0.000103
C32	C	1.402939	0.696836	0.500103
C33	C	0.932953	0.045526	0.000113
C34	C	1.432953	0.545526	0.500113
C35	C	1.063940	0.047828	0.000099
C36	C	1.563940	0.547828	0.500099
C37	C	1.484590	-0.334295	-0.124507
C38	C	1.984590	0.165705	0.375493
C39	C	1.482285	-0.421029	-0.124506
C40	C	1.982285	0.078971	0.375494
C41	C	1.482278	-0.421029	0.124704
C42	C	1.982278	0.078971	0.624704
C43	C	1.484574	-0.334296	0.124702
C44	C	1.984574	0.165704	0.624702
C45	C	1.485736	-0.290932	0.000092
C46	C	1.985736	0.209068	0.500092
C47	C	1.481135	-0.464399	0.000096
C48	C	1.981135	0.035601	0.500096
C49	C	1.478636	-0.558439	0.000098
C50	C	1.978636	-0.058439	0.500098
C51	C	1.488234	-0.196885	0.000089
C52	C	1.988234	0.303115	0.500089
C53	C	1.713037	0.117589	0.000112
C54	C	2.213037	0.617589	0.500112
C55	C	1.852447	0.120033	0.000113
C56	C	2.352447	0.620033	0.500113
C57	C	1.474208	0.274285	0.000100
C58	C	1.974208	0.774285	0.500100
C59	C	1.476649	0.366595	0.000101
C60	C	1.976649	0.866595	0.500101
N61	N	1.483426	0.122329	0.356218
N62	N	1.983426	0.622329	0.856218
N63	N	1.483456	0.122334	-0.356019
N64	N	1.983456	0.622334	0.143981
C65	C	1.568852	0.066323	0.428149
C66	C	2.068852	0.566323	0.928149
C67	C	1.568864	0.066324	0.572032
C68	C	2.068864	0.566324	1.072032
C69	C	1.398021	0.178342	0.572040
C70	C	1.898021	0.678342	1.072040
C71	C	1.398003	0.178337	0.428160
C72	C	1.898003	0.678337	0.928160
H73	H	1.075028	0.261680	0.000070
H74	H	1.575028	0.761680	0.500070
F75	F	1.485782	-0.288143	0.257324
F76	F	1.985782	0.211857	0.757324
F77	F	1.659783	0.006714	0.648582
F78	F	2.159783	0.506714	1.148582
F79	F	1.481040	-0.467188	0.257315
F80	F	1.981040	0.032812	0.757315
F81	F	1.659763	0.006712	0.351589
F82	F	2.159763	0.506712	0.851589
F83	F	1.307116	0.237949	0.648615
F84	F	1.807116	0.737949	1.148615
H85	H	0.837404	0.257503	0.000109
H86	H	1.337404	0.757503	0.500109
H87	H	1.129483	-0.012843	0.000100
H88	H	1.629483	0.487157	0.500100
F89	F	1.307072	0.237945	0.351599
F90	F	1.807072	0.737945	0.851599
H91	H	0.891832	-0.017009	0.000141
H92	H	1.391832	0.482991	0.500141
F93	F	1.481062	-0.467175	-0.257122
F94	F	1.981062	0.032825	0.242878
F95	F	1.485823	-0.288146	-0.257128
F96	F	1.985823	0.211854	0.242872
