data_functionalizedCrystal
_audit_creation_method	'MofGen! by Chris Wilmer'
_symmetry_space_group_name_H-M	'P1'
_symmetry_Int_Tables_number	1
_symmetry_cell_setting	triclinic
loop_
_symmetry_equiv_pos_as_xyz
  x,y,z
_cell_length_a	16.992695
_cell_length_b	16.974829
_cell_length_c	16.053934
_cell_angle_alpha	88.912036
_cell_angle_beta	87.249907
_cell_angle_gamma	87.025716
loop_
_atom_site_label
_atom_site_type_symbol
_atom_site_fract_x
_atom_site_fract_y
_atom_site_fract_z
O1	O	0.106635	1.049158	-0.140315
O2	O	0.606635	1.549158	0.359685
O3	O	0.118621	0.820450	-0.124864
O4	O	0.618621	1.320450	0.375136
O5	O	-0.001517	0.933887	-0.132521
O6	O	0.498483	1.433887	0.367479
O7	O	0.226773	0.935720	-0.132658
O8	O	0.726773	1.435720	0.367342
O9	O	-0.008107	0.940096	0.005916
O10	O	0.491893	1.440096	0.505916
O11	O	0.112031	0.826659	0.013573
O12	O	0.612031	1.326659	0.513573
O13	O	0.100045	1.055367	-0.001878
O14	O	0.600045	1.555367	0.498122
Zn15	Zn	0.104992	0.941999	0.027828
Zn16	Zn	0.604992	1.441999	0.527828
Zn17	Zn	0.113674	0.933818	-0.154569
Zn18	Zn	0.613674	1.433818	0.345431
O19	O	0.220183	0.941929	0.005779
O20	O	0.720183	1.441929	0.505779
C21	C	0.114747	0.794154	-0.053659
C22	C	0.614747	1.294154	0.446341
C23	C	0.113011	0.706552	-0.047741
C24	C	0.613011	1.206552	0.452259
C25	C	0.102879	0.213803	-0.006327
C26	C	0.602879	0.713803	0.493673
C27	C	0.104510	0.296115	-0.011889
C28	C	0.604510	0.796115	0.488111
C29	C	0.108912	0.333887	-0.090134
C30	C	0.608912	0.833887	0.409866
C31	C	0.111691	0.289342	-0.162821
C32	C	0.611691	0.789342	0.337179
C33	C	0.110066	0.207031	-0.157257
C34	C	0.610066	0.707031	0.342743
C35	C	0.114164	0.579696	-0.114865
C36	C	0.614164	1.079696	0.385135
C37	C	0.115787	0.662013	-0.120422
C38	C	0.615787	1.162013	0.379578
C39	C	0.108608	0.668780	0.030510
C40	C	0.608608	1.168780	0.530510
C41	C	0.106978	0.586468	0.036066
C42	C	0.606978	1.086468	0.536066
C43	C	0.109761	0.541930	-0.036621
C44	C	0.609761	1.041930	0.463379
N45	N	0.110577	0.418023	-0.095822
N46	N	0.610577	0.918023	0.404178
N47	N	0.108102	0.457795	-0.030932
N48	N	0.608102	0.957795	0.469068
C49	C	-0.034030	0.934633	-0.063143
C50	C	0.465970	1.434633	0.436857
C51	C	-0.121089	0.927594	-0.062668
C52	C	0.378911	1.427594	0.437332
C53	C	-0.171183	0.995504	-0.067255
C54	C	0.328817	1.495504	0.432745
C55	C	-0.252983	0.988886	-0.066816
C56	C	0.247017	1.488886	0.433184
C57	C	-0.284689	0.914358	-0.061783
C58	C	0.215311	1.414358	0.438217
C59	C	-0.234588	0.846443	-0.057199
C60	C	0.265412	1.346443	0.442801
C61	C	-0.152789	0.853062	-0.057644
C62	C	0.347211	1.353062	0.442356
C63	C	-0.528345	0.886926	-0.059942
C64	C	-0.028345	1.386926	0.440058
C65	C	-0.610151	0.880312	-0.059494
C66	C	-0.110151	1.380312	0.440506
C67	C	-0.628540	1.022756	-0.069113
C68	C	-0.128540	1.522756	0.430887
C69	C	-0.546739	1.029368	-0.069553
C70	C	-0.046739	1.529368	0.430447
C71	C	-0.496645	0.961453	-0.064972
C72	C	0.003355	1.461453	0.435028
N73	N	-0.368302	0.907591	-0.061332
N74	N	0.131698	1.407591	0.438668
N75	N	-0.413034	0.968220	-0.065430
N76	N	0.086966	1.468220	0.434570
C77	C	0.252696	0.941184	-0.063601
C78	C	0.752696	1.441184	0.436399
C79	C	0.339755	0.948222	-0.064081
C80	C	0.839755	1.448222	0.435919
C81	C	0.103919	1.081662	-0.073084
C82	C	0.603919	1.581662	0.426916
C83	C	0.105656	1.169264	-0.079008
C84	C	0.605656	1.669264	0.420992
N85	N	0.099066	0.947587	0.152308
N86	N	0.599066	1.447587	0.652308
N87	N	0.119594	0.928235	-0.279050
N88	N	0.619594	1.428235	0.220950
C89	C	0.150166	0.899309	0.199281
C90	C	0.650166	1.399309	0.699281
C91	C	0.146017	0.903241	0.286421
C92	C	0.646017	1.403241	0.786421
C93	C	0.090764	0.955449	0.326586
C94	C	0.590764	1.455449	0.826586
C95	C	0.039662	1.003733	0.279606
C96	C	0.539662	1.503733	0.779606
C97	C	0.043815	0.999804	0.192468
C98	C	0.543815	1.499804	0.692468
C99	C	0.072645	0.972590	0.586831
C100	C	0.572645	1.472590	1.086831
C101	C	0.068494	0.976514	0.673976
C102	C	0.568494	1.476514	1.173976
C103	C	0.174851	0.876022	0.680785
C104	C	0.674851	1.376022	1.180785
C105	C	0.178996	0.872095	0.593645
C106	C	0.678996	1.372095	1.093645
C107	C	0.127896	0.920382	0.546673
C108	C	0.627896	1.420382	1.046673
N109	N	0.086520	0.959468	0.415657
N110	N	0.586520	1.459468	0.915657
N111	N	0.132144	0.916366	0.457603
N112	N	0.632144	1.416366	0.957603
H113	H	0.102248	0.332375	0.047296
H114	H	0.602248	0.832375	0.547296
H115	H	0.195155	0.856792	0.166585
H116	H	0.695155	1.356792	0.666585
H117	H	0.103376	0.555721	0.099781
H118	H	0.603376	1.055721	0.599781
C119	C	0.202244	0.850151	0.338087
C120	C	0.702244	1.350151	0.838087
H121	H	0.235744	0.818495	0.301686
H122	H	0.735744	1.318495	0.801686
H123	H	0.233343	0.882108	0.370004
H124	H	0.733343	1.382108	0.870004
H125	H	0.172335	0.817090	0.374437
H126	H	0.672335	1.317090	0.874437
H127	H	0.223987	0.829583	0.560944
H128	H	0.723987	1.329583	1.060944
H129	H	0.106344	0.705052	0.089687
H130	H	0.606344	1.205052	0.589687
H131	H	0.216455	0.836710	0.719037
H132	H	0.716455	1.336710	1.219037
C133	C	0.120638	0.703560	-0.206495
C134	C	0.620638	1.203560	0.293505
H135	H	0.122072	0.665246	-0.248989
H136	H	0.622072	1.165246	0.251011
H137	H	0.075733	0.738658	-0.212013
H138	H	0.575733	1.238658	0.287987
H139	H	0.167117	0.732399	-0.211586
H140	H	0.667117	1.232399	0.288414
H141	H	-0.293767	1.044185	-0.070549
H142	H	0.206233	1.544185	0.429451
C143	C	0.098109	0.172253	0.079742
C144	C	0.598109	0.672253	0.579742
H145	H	0.097553	0.116851	0.072648
H146	H	0.597553	0.616851	0.572648
H147	H	0.142615	0.184028	0.109992
H148	H	0.642615	0.684028	0.609992
H149	H	0.051225	0.190238	0.109680
H150	H	0.551225	0.690238	0.609680
C151	C	0.007717	1.033946	0.718160
C152	C	0.507717	1.533946	1.218160
H153	H	0.012558	1.029362	0.776784
H154	H	0.512558	1.529362	1.276784
H155	H	0.017062	1.086445	0.700281
H156	H	0.517062	1.586445	1.200281
H157	H	-0.043969	1.021448	0.704684
H158	H	0.456031	1.521448	1.204684
H159	H	0.116428	0.543443	-0.174051
H160	H	0.616428	1.043443	0.325949
H161	H	-0.145375	1.056193	-0.071347
H162	H	0.354625	1.556193	0.428653
H163	H	0.031036	1.011906	0.548593
H164	H	0.531036	1.511906	1.048593
C165	C	-0.645029	0.798329	-0.053959
C166	C	-0.145029	1.298329	0.446041
H167	H	-0.700921	0.804118	-0.054339
H168	H	-0.200921	1.304118	0.445661
H169	H	-0.625549	0.767984	-0.100333
H170	H	-0.125549	1.267984	0.399667
H171	H	-0.630145	0.772316	-0.003774
H172	H	-0.130145	1.272316	0.496226
H173	H	-0.112003	0.797762	-0.053909
H174	H	0.387997	1.297762	0.446091
C175	C	0.116537	0.330885	-0.248890
C176	C	0.616537	0.830885	0.251110
H177	H	0.117965	0.292567	-0.291380
H178	H	0.617965	0.792567	0.208620
H179	H	0.071632	0.365983	-0.254407
H180	H	0.571632	0.865983	0.245593
H181	H	0.163015	0.359722	-0.253988
H182	H	0.663015	0.859722	0.246012
C183	C	-0.683643	1.097454	-0.074163
C184	C	-0.183643	1.597454	0.425837
H185	H	-0.736900	1.082841	-0.073185
H186	H	-0.236900	1.582841	0.426815
H187	H	-0.676319	1.129971	-0.027939
H188	H	-0.176319	1.629971	0.472061
H189	H	-0.671711	1.125631	-0.124497
H190	H	-0.171711	1.625631	0.375503
H191	H	0.112329	0.170768	-0.216443
H192	H	0.612329	0.670768	0.283557
H193	H	-0.520931	1.090057	-0.073650
H194	H	-0.020931	1.590057	0.426350
H195	H	-0.487568	0.831624	-0.056212
H196	H	0.012432	1.331624	0.443788
C197	C	-0.269462	0.764464	-0.051661
C198	C	0.230538	1.264464	0.448339
H199	H	-0.325354	0.770247	-0.052044
H200	H	0.174646	1.270247	0.447956
H201	H	-0.249978	0.734118	-0.098032
H202	H	0.250022	1.234118	0.401968
H203	H	-0.254577	0.738454	-0.001475
H204	H	0.245423	1.238454	0.498525
C205	C	-0.021117	1.061159	0.323786
C206	C	0.478883	1.561159	0.823786
H207	H	-0.016278	1.056579	0.382411
H208	H	0.483722	1.556579	0.882411
H209	H	-0.011776	1.113658	0.305903
H210	H	0.488224	1.613658	0.805903
H211	H	-0.072800	1.048655	0.310307
H212	H	0.427200	1.548655	0.810307
H213	H	0.002205	1.039119	0.154223
H214	H	0.502205	1.539119	0.654223
