data_functionalizedCrystal
_audit_creation_method	'MofGen! by Chris Wilmer'
_symmetry_space_group_name_H-M	'P1'
_symmetry_Int_Tables_number	1
_symmetry_cell_setting	triclinic
loop_
_symmetry_equiv_pos_as_xyz
  x,y,z
_cell_length_a	14.971487
_cell_length_b	14.971486
_cell_length_c	14.048226
_cell_angle_alpha	90.006640
_cell_angle_beta	90.000286
_cell_angle_gamma	83.614266
loop_
_atom_site_label
_atom_site_type_symbol
_atom_site_fract_x
_atom_site_fract_y
_atom_site_fract_z
O1	O	-1.186947	-0.116567	-0.079025
O2	O	-0.686947	0.383433	0.420975
O3	O	-0.926547	-0.130526	-0.079057
O4	O	-0.426547	0.369474	0.420943
O5	O	-1.063726	0.006654	-0.079033
O6	O	-0.563726	0.506654	0.420967
O7	O	-1.049767	-0.253747	-0.079048
O8	O	-0.549767	0.246253	0.420952
O9	O	-1.063709	0.006662	0.079288
O10	O	-0.563709	0.506662	0.579288
O11	O	-0.926530	-0.130518	0.079265
O12	O	-0.426530	0.369482	0.579265
O13	O	-1.186930	-0.116559	0.079297
O14	O	-0.686930	0.383441	0.579297
Zn15	Zn	-1.056727	-0.123537	0.104418
Zn16	Zn	-0.556727	0.376463	0.604418
Zn17	Zn	-1.056749	-0.123548	-0.104178
Zn18	Zn	-0.556749	0.376452	0.395822
O19	O	-1.049751	-0.253738	0.079273
O20	O	-0.549751	0.246262	0.579273
C21	C	-0.893214	-0.129897	0.000100
C22	C	-0.393214	0.370103	0.500100
C23	C	-0.793917	-0.128026	0.000088
C24	C	-0.293917	0.371974	0.500088
N25	N	-1.056719	-0.123529	0.246778
N26	N	-0.556719	0.376471	0.746778
C27	C	-0.736691	-0.208615	0.000083
C28	C	-0.236691	0.291385	0.500083
C29	C	-0.643392	-0.206852	0.000096
C30	C	-0.143392	0.293148	0.500096
C31	C	-0.607320	-0.124499	0.000106
C32	C	-0.107320	0.375501	0.500106
C33	C	-0.664552	-0.043903	0.000113
C34	C	-0.164552	0.456097	0.500113
C35	C	-0.757850	-0.045668	0.000108
C36	C	-0.257850	0.454332	0.500108
C37	C	-0.470090	-0.040232	0.000122
C38	C	0.029910	0.459768	0.500122
C39	C	-0.376786	-0.038467	0.000126
C40	C	0.123214	0.461533	0.500126
C41	C	-0.355632	-0.201416	0.000110
C42	C	0.144368	0.298584	0.500110
C43	C	-0.448929	-0.203181	0.000105
C44	C	0.051071	0.296819	0.500105
C45	C	-0.506156	-0.122585	0.000110
C46	C	-0.006156	0.377415	0.500110
C47	C	-1.063094	0.039982	0.000127
C48	C	-0.563094	0.539982	0.500127
C49	C	-1.061223	0.139279	0.000126
C50	C	-0.561223	0.639279	0.500126
C51	C	-0.220263	-0.117187	0.000132
C52	C	0.279737	0.382813	0.500132
C53	C	-0.319560	-0.119056	0.000121
C54	C	0.180440	0.380944	0.500121
C55	C	-1.050383	-0.287067	0.000111
C56	C	-0.550383	0.212933	0.500111
C57	C	-1.052254	-0.386364	0.000105
C58	C	-0.552254	0.113636	0.500105
C59	C	-1.141812	0.196504	0.000137
C60	C	-0.641812	0.696504	0.500137
C61	C	-1.140049	0.289804	0.000127
C62	C	-0.640049	0.789804	0.500127
C63	C	-1.057696	0.325876	0.000113
C64	C	-0.557696	0.825876	0.500113
C65	C	-0.977100	0.268644	0.000100
C66	C	-0.477100	0.768644	0.500100
C67	C	-0.978864	0.175346	0.000103
C68	C	-0.478864	0.675346	0.500103
C69	C	-0.973429	0.463107	0.000096
C70	C	-0.473429	0.963107	0.500096
C71	C	-0.971665	0.556411	0.000095
C72	C	-0.471665	1.056411	0.500095
C73	C	-1.134614	0.577564	0.000120
C74	C	-0.634614	1.077564	0.500120
C75	C	-1.136378	0.484266	0.000123
C76	C	-0.636378	0.984266	0.500123
C77	C	-1.055782	0.427040	0.000111
C78	C	-0.555782	0.927040	0.500111
N79	N	-1.056765	-0.123549	-0.246538
N80	N	-0.556765	0.376451	0.253462
C81	C	-1.117481	-0.062812	0.296607
C82	C	-0.617481	0.437188	0.796607
C83	C	-1.117487	-0.062811	0.396264
C84	C	-0.617487	0.437189	0.896264
C85	C	-1.056735	-0.123533	0.446092
C86	C	-0.556735	0.376467	0.946092
C87	C	-0.995966	-0.184254	0.396256
C88	C	-0.495966	0.315746	0.896256
C89	C	-0.995957	-0.184250	0.296600
C90	C	-0.495957	0.315750	0.796600
C91	C	-0.995992	-0.184261	0.603970
C92	C	-0.495992	0.315739	1.103970
C93	C	-0.996002	-0.184266	0.703633
C94	C	-0.496002	0.315734	1.203633
C95	C	-1.117523	-0.062822	0.703634
C96	C	-0.617523	0.437178	1.203634
C97	C	-1.117513	-0.062818	0.603979
C98	C	-0.617513	0.437182	1.103979
C99	C	-1.056745	-0.123540	0.554150
C100	C	-0.556745	0.376460	1.054150
H101	H	-0.766053	-0.275677	0.000075
H102	H	-0.266053	0.224323	0.500075
O103	O	-0.531809	0.046699	0.000128
O104	O	-0.031809	0.546699	0.500128
H105	H	-0.574818	0.049802	0.064660
H106	H	-0.074818	0.549802	0.564660
H107	H	-0.907799	0.416515	0.000084
H108	H	-0.407799	0.916515	0.500084
O109	O	-0.819578	0.041252	0.000110
O110	O	-0.319578	0.541252	0.500110
H111	H	-0.778823	0.098815	0.000109
H112	H	-0.278823	0.598815	0.500109
O113	O	-1.183004	0.002686	0.242865
O114	O	-0.683004	0.502686	0.742865
H115	H	-1.225249	0.044913	0.294261
H116	H	-0.725249	0.544913	0.794261
O117	O	-1.183071	0.002677	0.757363
O118	O	-0.683071	0.502677	1.257363
H119	H	-1.145389	0.046226	0.802770
H120	H	-0.645389	0.546226	1.302770
H121	H	-1.205673	0.336394	0.000138
H122	H	-0.705673	0.836394	0.500138
H123	H	-1.166964	-0.013369	0.436834
H124	H	-0.666964	0.486631	0.936834
H125	H	-0.635175	0.023150	0.000135
H126	H	-0.135175	0.523150	0.500135
H127	H	-0.946531	-0.233712	0.744198
H128	H	-0.446531	0.266288	1.244198
O129	O	-0.581673	-0.293776	0.000094
O130	O	-0.081673	0.206224	0.500094
H131	H	-0.538648	-0.296870	-0.064427
H132	H	-0.038648	0.203130	0.435573
O133	O	-1.230636	0.157598	0.000142
O134	O	-0.730636	0.657598	0.500142
H135	H	-1.286378	0.213069	0.000136
H136	H	-0.786378	0.713069	0.500136
H137	H	-0.913240	0.128754	0.000094
H138	H	-0.413240	0.628754	0.500094
O139	O	-1.225198	0.445353	0.000126
O140	O	-0.725198	0.945353	0.500126
H141	H	-1.280946	0.500818	0.000120
H142	H	-0.780946	1.000818	0.500120
H143	H	-0.946505	-0.233704	0.563403
H144	H	-0.446505	0.266296	1.063403
H145	H	-1.166987	-0.013377	0.563409
H146	H	-0.666987	0.486623	1.063409
H147	H	-1.200238	0.624162	0.000127
H148	H	-0.700238	1.124162	0.500127
H149	H	-0.904606	0.585777	0.000099
H150	H	-0.404606	1.085777	0.500099
O151	O	-0.888276	0.307550	0.000096
O152	O	-0.388276	0.807550	0.500096
H153	H	-0.883581	0.349553	-0.064427
H154	H	-0.383581	0.849553	0.435573
O155	O	-0.930444	-0.249757	0.449992
O156	O	-0.430444	0.250243	0.949992
H157	H	-0.886942	-0.212042	0.495418
H158	H	-0.386942	0.287958	0.995418
O159	O	-0.930425	-0.249741	0.242849
O160	O	-0.430425	0.250259	0.742849
H161	H	-0.888187	-0.291973	0.294237
H162	H	-0.388187	0.208027	0.794237
H163	H	-0.478296	-0.270240	0.000087
H164	H	0.021704	0.229760	0.500087
H165	H	-0.309033	-0.267040	0.000110
H166	H	0.190967	0.232960	0.500110
H167	H	-0.347419	0.028592	0.000135
H168	H	0.152581	0.528592	0.500135
