data_functionalizedCrystal
_audit_creation_method	'MofGen! by Chris Wilmer'
_symmetry_space_group_name_H-M	'P1'
_symmetry_Int_Tables_number	1
_symmetry_cell_setting	triclinic
loop_
_symmetry_equiv_pos_as_xyz
  x,y,z
_cell_length_a	12.827893
_cell_length_b	13.031981
_cell_length_c	12.827885
_cell_angle_alpha	97.216746
_cell_angle_beta	90.019272
_cell_angle_gamma	97.191988
loop_
_atom_site_label
_atom_site_type_symbol
_atom_site_fract_x
_atom_site_fract_y
_atom_site_fract_z
Zn1	Zn	1.544847	-0.416061	0.537949
Zn2	Zn	2.044847	0.083939	1.037949
Zn3	Zn	1.522548	-0.590874	0.340982
Zn4	Zn	2.022548	-0.090874	0.840982
Zn5	Zn	1.370082	-0.416113	0.363216
Zn6	Zn	1.870082	0.083887	0.863216
Zn7	Zn	1.347890	-0.590797	0.515692
Zn8	Zn	1.847890	-0.090797	1.015692
O9	O	1.446342	-0.503461	0.439460
O10	O	1.946342	-0.003461	0.939460
O11	O	1.688124	-0.439262	0.511830
O12	O	2.188124	0.060738	1.011830
O13	O	1.502278	-0.567745	0.197689
O14	O	2.002278	-0.067745	0.697689
O15	O	1.411885	-0.269841	0.405013
O16	O	1.911885	0.230159	0.905013
O17	O	1.671740	-0.567695	0.367120
O18	O	2.171740	-0.067695	0.867120
O19	O	1.540284	-0.269803	0.533389
O20	O	2.040284	0.230197	1.033389
O21	O	1.390262	-0.439349	0.214023
O22	O	1.890262	0.060651	0.714023
O23	O	1.220904	-0.439274	0.383432
O24	O	1.720904	0.060726	0.883432
O25	O	1.374062	-0.567564	0.664888
O26	O	1.874062	-0.067564	1.164888
O27	O	1.204599	-0.567614	0.495456
O28	O	1.704599	-0.067614	0.995456
O29	O	1.518766	-0.439187	0.681239
O30	O	2.018766	0.060813	1.181239
O31	O	1.480759	-0.737129	0.345539
O32	O	1.980759	-0.237129	0.845539
O33	O	1.352439	-0.737072	0.473897
O34	O	1.852439	-0.237072	0.973897
C35	C	1.174834	-0.503442	0.439442
C36	C	1.674834	-0.003442	0.939442
C37	C	1.058679	-0.503459	0.439456
C38	C	1.558679	-0.003459	0.939456
C39	C	1.014987	-0.440018	0.511148
C40	C	1.514987	0.059982	1.011148
C41	C	0.894935	-0.440035	0.511165
C42	C	1.394935	0.059965	1.011165
C43	C	1.411799	-0.775026	0.404913
C44	C	1.911799	-0.275026	0.904913
C45	C	1.397117	-0.891202	0.390169
C46	C	1.897117	-0.391202	0.890169
C47	C	1.454060	-0.942895	0.447176
C48	C	1.954060	-0.442895	0.947176
C49	C	1.438887	-1.062970	0.431938
C50	C	1.938887	-0.562970	0.931938
C51	C	1.718909	-0.503481	0.439478
C52	C	2.218909	-0.003481	0.939478
C53	C	1.835061	-0.503490	0.439485
C54	C	2.335061	-0.003490	0.939485
C55	C	1.446426	-0.503361	0.712043
C56	C	1.946426	-0.003361	1.212043
C57	C	1.446461	-0.503318	0.828201
C58	C	1.946461	-0.003318	1.328201
C59	C	1.481048	-0.230836	0.474164
C60	C	1.981048	0.269164	0.974164
C61	C	1.495837	-0.114660	0.488953
C62	C	1.995837	0.385340	0.988953
C63	C	1.446328	-0.503486	0.167947
C64	C	1.946328	-0.003486	0.667947
C65	C	1.446532	-0.503234	0.051826
C66	C	1.946532	-0.003234	0.551826
C67	C	1.518074	-0.439781	0.888079
C68	C	2.018074	0.060219	1.388079
C69	C	1.518112	-0.439735	1.008135
C70	C	2.018112	0.060265	1.508135
H71	H	1.007208	-0.557782	0.378089
H72	H	1.507208	-0.057782	0.878089
Br73	Br	1.344307	-0.593924	0.890889
Br74	Br	1.844307	-0.093924	1.390889
H75	H	1.385222	-0.557638	1.000370
H76	H	1.885222	-0.057638	1.500370
Br77	Br	1.620314	-0.349073	1.093901
Br78	Br	2.120314	0.150927	1.593901
H79	H	1.378894	-1.107604	0.371853
H80	H	1.878894	-0.607604	0.871853
H81	H	1.555821	-1.070027	0.549047
H82	H	2.055821	-0.570027	1.049047
Br83	Br	1.100767	-0.349461	0.613431
Br84	Br	1.600767	0.150539	1.113431
H85	H	1.579352	-0.385414	0.850462
H86	H	2.079352	0.114586	1.350462
Br87	Br	0.832264	-0.349511	0.613480
Br88	Br	1.332264	0.150489	1.113480
H89	H	0.872659	-0.557812	0.378109
H90	H	1.372659	-0.057812	0.878109
Br91	Br	1.554026	-0.868506	0.547343
Br92	Br	2.054026	-0.368506	1.047343
H93	H	1.337129	-0.935840	0.330088
H94	H	1.837129	-0.435840	0.830088
