data_functionalizedCrystal
_audit_creation_method	'MofGen! by Chris Wilmer'
_symmetry_space_group_name_H-M	'P1'
_symmetry_Int_Tables_number	1
_symmetry_cell_setting	triclinic
loop_
_symmetry_equiv_pos_as_xyz
  x,y,z
_cell_length_a	13.033286
_cell_length_b	18.101397
_cell_length_c	13.033109
_cell_angle_alpha	97.149218
_cell_angle_beta	90.884484
_cell_angle_gamma	82.851152
loop_
_atom_site_label
_atom_site_type_symbol
_atom_site_fract_x
_atom_site_fract_y
_atom_site_fract_z
Zn1	Zn	1.645902	-0.477115	-0.381327
Zn2	Zn	2.145902	0.022885	0.118673
Zn3	Zn	1.623948	-0.583519	-0.209365
Zn4	Zn	2.123948	-0.083519	0.290635
Zn5	Zn	1.452107	-0.446216	-0.231267
Zn6	Zn	1.952107	0.053784	0.268733
Zn7	Zn	1.473901	-0.587419	-0.403155
Zn8	Zn	1.973901	-0.087419	0.096845
O9	O	1.548965	-0.523567	-0.306278
O10	O	2.048965	-0.023567	0.193722
O11	O	1.786889	-0.502528	-0.340214
O12	O	2.286889	-0.002528	0.159786
O13	O	1.582844	-0.550742	-0.068368
O14	O	2.082844	-0.050742	0.431632
O15	O	1.477882	-0.346691	-0.251204
O16	O	1.977882	0.153309	0.248796
O17	O	1.770759	-0.580703	-0.213875
O18	O	2.270759	-0.080703	0.286125
O19	O	1.620262	-0.369392	-0.361452
O20	O	2.120262	0.130608	0.138548
O21	O	1.456594	-0.449867	-0.084460
O22	O	1.956594	0.050133	0.415540
O23	O	1.311099	-0.453648	-0.272370
O24	O	1.811099	0.046352	0.227630
O25	O	1.515026	-0.587350	-0.544161
O26	O	2.015026	-0.087350	-0.044161
O27	O	1.327111	-0.557389	-0.398655
O28	O	1.827111	-0.057389	0.101345
O29	O	1.641395	-0.506310	-0.528124
O30	O	2.141395	-0.006310	-0.028124
O31	O	1.603976	-0.687660	-0.235041
O32	O	2.103976	-0.187660	0.264959
O33	O	1.493738	-0.690525	-0.377417
O34	O	1.993738	-0.190525	0.122583
C35	C	1.281794	-0.502589	-0.340259
C36	C	1.781794	-0.002589	0.159741
C37	C	1.167500	-0.493635	-0.354820
C38	C	1.667500	0.006365	0.145180
C39	C	1.108551	-0.528243	-0.298704
C40	C	1.608551	-0.028243	0.201296
C41	C	0.990423	-0.518989	-0.313753
C42	C	1.490423	-0.018989	0.186247
C43	C	1.548870	-0.715966	-0.306240
C44	C	2.048870	-0.215966	0.193760
C45	C	1.548928	-0.798286	-0.306246
C46	C	2.048928	-0.298286	0.193754
C47	C	1.549072	-1.097396	-0.306323
C48	C	2.049072	-0.597396	0.193677
C49	C	1.618182	-1.064199	-0.216559
C50	C	2.118182	-0.564199	0.283441
C51	C	1.618483	-0.978622	-0.216730
C52	C	2.118483	-0.478622	0.283270
C53	C	1.549000	-0.949004	-0.306284
C54	C	2.049000	-0.449004	0.193716
C55	C	1.592143	-0.993304	-0.410940
C56	C	2.092143	-0.493304	0.089060
C57	C	1.592701	-1.078953	-0.410428
C58	C	2.092701	-0.578953	0.089572
C59	C	1.436726	-1.054552	-0.292395
C60	C	1.936726	-0.554552	0.207605
C61	C	1.436956	-0.968699	-0.289907
C62	C	1.936956	-0.468699	0.210093
C63	C	1.548959	-0.865139	-0.306268
C64	C	2.048959	-0.365139	0.193732
C65	C	1.549116	-1.181262	-0.306345
C66	C	2.049116	-0.681262	0.193655
C67	C	1.817179	-0.544627	-0.272166
C68	C	2.317179	-0.044627	0.227834
C69	C	1.931476	-0.553602	-0.257630
C70	C	2.431476	-0.053602	0.242370
C71	C	1.583090	-0.550712	-0.574498
C72	C	2.083090	-0.050712	-0.074498
C73	C	1.597633	-0.562279	-0.688798
C74	C	2.097633	-0.062279	-0.188798
C75	C	1.549090	-0.330422	-0.306336
C76	C	2.049090	0.169578	0.193664
C77	C	1.549144	-0.248115	-0.306361
C78	C	2.049144	0.251885	0.193639
C79	C	1.541650	-0.517525	-0.747718
C80	C	2.041650	-0.017525	-0.247718
C81	C	1.556679	-0.529479	-0.865852
C82	C	2.056679	-0.029479	-0.365852
C83	C	1.515031	-0.496479	-0.039095
C84	C	2.015031	0.003521	0.460905
C85	C	1.500688	-0.484719	0.075230
C86	C	2.000688	0.015281	0.575230
H87	H	1.130514	-0.457159	-0.414006
H88	H	1.630514	0.042841	0.085994
F89	F	1.581067	-0.938685	-0.114752
F90	F	2.081067	-0.438685	0.385248
H91	H	0.968457	-0.590091	-0.198450
H92	H	1.468457	-0.090091	0.301550
H93	H	1.701423	-0.966266	-0.224849
H94	H	2.201423	-0.466266	0.275151
H95	H	1.145538	-0.564725	-0.239525
H96	H	1.645538	-0.064725	0.260475
F97	F	0.942090	-0.471309	-0.391121
F98	F	1.442090	0.028691	0.108879
F99	F	1.394756	-0.929376	-0.189330
F100	F	1.894756	-0.429376	0.310670
H101	H	1.589788	-1.075245	-0.138255
H102	H	2.089788	-0.575245	0.361745
H103	H	1.700655	-1.093798	-0.224523
H104	H	2.200655	-0.593798	0.275477
H105	H	1.675230	-1.107498	-0.423835
H106	H	2.175230	-0.607498	0.076165
F107	F	1.633869	-0.591137	-0.914224
F108	F	2.133869	-0.091137	-0.414224
H109	H	1.441626	-0.437551	-0.887762
H110	H	1.941626	0.062449	-0.387762
F111	F	1.530730	-1.108519	-0.499849
F112	F	2.030730	-0.608519	0.000151
H113	H	1.656687	-0.609445	-0.725813
H114	H	2.156687	-0.109445	-0.225813
F115	F	1.529137	-0.969042	-0.499934
F116	F	2.029137	-0.469042	0.000066
F117	F	1.698917	-0.976431	-0.429134
F118	F	2.198917	-0.476431	0.070866
H119	H	1.385064	-1.076069	-0.357943
H120	H	1.885064	-0.576069	0.142057
F121	F	1.388900	-1.069832	-0.195320
F122	F	1.888900	-0.569832	0.304680
F123	F	1.364571	-0.941495	-0.370557
F124	F	1.864571	-0.441495	0.129443
H125	H	1.482590	-0.470362	-0.710703
H126	H	1.982590	0.029638	-0.210703
