data_functionalizedCrystal
_audit_creation_method	'MofGen! by Chris Wilmer'
_symmetry_space_group_name_H-M	'P1'
_symmetry_Int_Tables_number	1
_symmetry_cell_setting	triclinic
loop_
_symmetry_equiv_pos_as_xyz
  x,y,z
_cell_length_a	12.827893
_cell_length_b	16.625546
_cell_length_c	12.827885
_cell_angle_alpha	90.035124
_cell_angle_beta	90.019272
_cell_angle_gamma	90.022439
loop_
_atom_site_label
_atom_site_type_symbol
_atom_site_fract_x
_atom_site_fract_y
_atom_site_fract_z
Zn1	Zn	1.597618	-0.320963	0.590810
Zn2	Zn	1.597491	-0.455817	0.416054
Zn3	Zn	1.422860	-0.321002	0.416084
Zn4	Zn	1.422823	-0.455757	0.590754
O5	O	1.510198	-0.388385	0.503425
O6	O	1.743837	-0.338861	0.567639
O7	O	1.574287	-0.437976	0.269822
O8	O	1.446110	-0.208165	0.439297
O9	O	1.743744	-0.437937	0.439247
O10	O	1.574505	-0.208136	0.567668
O11	O	1.445987	-0.338928	0.269843
O12	O	1.276619	-0.338869	0.439243
O13	O	1.446048	-0.437835	0.736997
O14	O	1.276592	-0.437873	0.567572
O15	O	1.574469	-0.338802	0.737039
O16	O	1.574252	-0.568642	0.439192
O17	O	1.445925	-0.568598	0.567544
C18	C	1.238688	-0.388370	0.503405
C19	C	1.122535	-0.388382	0.503422
C20	C	1.070765	-0.437449	0.566825
C21	C	0.950714	-0.437464	0.566844
C22	C	1.510099	-0.597876	0.503382
C23	C	1.510152	-0.687497	0.503398
C24	C	1.510335	-1.015673	0.503507
C25	C	1.510281	-0.924364	0.503479
C26	C	1.510243	-0.851588	0.503452
C27	C	1.510190	-0.760274	0.503425
C28	C	1.782768	-0.388401	0.503446
C29	C	1.898921	-0.388408	0.503455
C30	C	1.510269	-0.388308	0.775996
C31	C	1.510299	-0.388275	0.892149
C32	C	1.510326	-0.178076	0.503492
C33	C	1.510380	-0.088455	0.503521
C34	C	1.510187	-0.388404	0.231915
C35	C	1.510359	-0.388210	0.115763
C36	C	1.573853	-0.339261	0.943954
C37	C	1.573886	-0.339225	1.064004
H38	H	1.077981	-0.346382	0.449157
H39	H	0.906193	-0.479474	0.621123
O40	O	1.638750	-0.289048	1.117028
C41	C	1.689493	-0.151907	1.150718
C42	C	1.615984	-0.208644	1.090584
H43	H	1.671099	-0.086888	1.129377
H44	H	1.773779	-0.165994	1.129298
H45	H	1.677974	-0.160839	1.238064
H46	H	1.627411	-0.199744	1.003224
H47	H	1.531725	-0.194543	1.112090
H48	H	0.943436	-0.346401	0.449166
O49	O	1.638709	-0.289306	0.890685
C50	C	1.697740	-0.243740	0.722465
C51	C	1.624250	-0.300367	0.782658
H52	H	1.686059	-0.252650	0.635115
H53	H	1.782042	-0.257889	0.743788
H54	H	1.679471	-0.178709	0.743944
H55	H	1.642424	-0.365417	0.761212
H56	H	1.539970	-0.286148	0.761330
O57	O	1.124024	-0.487442	0.631622
C58	C	1.247400	-0.498313	0.772597
C59	C	1.187172	-0.441605	0.699263
H60	H	1.298453	-0.461276	0.827317
H61	H	1.298537	-0.540374	0.724523
H62	H	1.189732	-0.535279	0.820290
H63	H	1.244764	-0.404587	0.651554
H64	H	1.136019	-0.399597	0.747396
H65	H	1.455906	-0.430206	0.936673
O66	O	1.445589	-0.438316	1.062511
C67	C	1.431556	-0.547158	0.939165
C68	C	1.505022	-0.490452	0.999400
H69	H	1.479579	-0.589335	0.888142
H70	H	1.376988	-0.510160	0.887998
H71	H	1.383706	-0.583998	0.996829
H72	H	1.552940	-0.453599	0.941811
H73	H	1.559522	-0.527496	1.050582
