data_functionalizedCrystal
_audit_creation_method	'MofGen! by Chris Wilmer'
_symmetry_space_group_name_H-M	'P1'
_symmetry_Int_Tables_number	1
_symmetry_cell_setting	triclinic
loop_
_symmetry_equiv_pos_as_xyz
  x,y,z
_cell_length_a	19.077115
_cell_length_b	19.077068
_cell_length_c	12.759401
_cell_angle_alpha	87.717480
_cell_angle_beta	92.301210
_cell_angle_gamma	90.115280
loop_
_atom_site_label
_atom_site_type_symbol
_atom_site_fract_x
_atom_site_fract_y
_atom_site_fract_z
Zn1	Zn	1.062874	-0.323098	0.677038
Zn2	Zn	1.562874	0.176902	1.177038
Zn3	Zn	1.058089	-0.440578	0.508096
Zn4	Zn	1.558089	0.059422	1.008096
Zn5	Zn	0.945397	-0.318361	0.494050
Zn6	Zn	1.445397	0.181639	0.994050
Zn7	Zn	0.940609	-0.435839	0.676409
Zn8	Zn	1.440609	0.064161	1.176409
O9	O	1.001742	-0.379469	0.588899
O10	O	1.501742	0.120531	1.088899
O11	O	1.160569	-0.342647	0.660770
O12	O	1.660569	0.157353	1.160770
O13	O	1.043142	-0.424366	0.359212
O14	O	1.543142	0.075634	0.859212
O15	O	0.964987	-0.220658	0.512708
O16	O	1.464987	0.279342	1.012708
O17	O	1.157054	-0.428959	0.536649
O18	O	1.657054	0.071041	1.036649
O19	O	1.051296	-0.224139	0.647149
O20	O	1.551296	0.275861	1.147149
O21	O	0.960348	-0.334573	0.348892
O22	O	1.460348	0.165427	0.848892
O23	O	0.846432	-0.329979	0.512099
O24	O	1.346432	0.170021	1.012099
O25	O	0.956826	-0.420884	0.823514
O26	O	1.456826	0.079116	1.323514
O27	O	0.842914	-0.416290	0.646077
O28	O	1.342914	0.083710	1.146077
O29	O	1.046653	-0.338053	0.823976
O30	O	1.546653	0.161947	1.323976
O31	O	1.038499	-0.538280	0.536039
O32	O	1.538499	-0.038280	1.036039
O33	O	0.952187	-0.534799	0.659698
O34	O	1.452187	-0.034799	1.159698
C35	C	0.819177	-0.372107	0.577496
C36	C	1.319177	0.127893	1.077496
C37	C	0.741074	-0.368974	0.572644
C38	C	1.241074	0.131026	1.072644
C39	C	0.301633	-0.346476	0.537852
C40	C	0.801633	0.153524	1.037852
C41	C	0.375019	-0.349423	0.542417
C42	C	0.875019	0.150577	1.042417
C43	C	0.409893	-0.395909	0.614350
C44	C	0.909893	0.104091	1.114350
C45	C	0.371378	-0.439444	0.681730
C46	C	0.871378	0.060556	1.181730
C47	C	0.297994	-0.436493	0.677169
C48	C	0.797994	0.063507	1.177169
C49	C	0.629174	-0.409558	0.635463
C50	C	1.129174	0.090442	1.135463
C51	C	0.702564	-0.412508	0.640017
C52	C	1.202564	0.087492	1.140017
C53	C	0.706200	-0.322486	0.500704
C54	C	1.206200	0.177514	1.000704
C55	C	0.632813	-0.319542	0.496146
C56	C	1.132813	0.180458	0.996146
C57	C	0.594305	-0.363075	0.563529
C58	C	1.094305	0.136925	1.063529
N59	N	0.484905	-0.398924	0.619016
N60	N	0.984905	0.101076	1.119016
N61	N	0.519294	-0.360055	0.558868
N62	N	1.019294	0.139945	1.058868
C63	C	0.994323	-0.562036	0.599348
C64	C	1.494323	-0.062036	1.099348
C65	C	0.991214	-0.640142	0.603858
C66	C	1.491214	-0.140142	1.103858
C67	C	1.034726	-0.678627	0.541652
C68	C	1.534726	-0.178627	1.041652
C69	C	1.031805	-0.752015	0.545900
C70	C	1.531805	-0.252015	1.045900
C71	C	0.985368	-0.786918	0.612349
C72	C	1.485368	-0.286918	1.112349
C73	C	0.941854	-0.748428	0.674562
C74	C	1.441854	-0.248428	1.174562
C75	C	0.944779	-0.675041	0.670319
C76	C	1.444779	-0.175041	1.170319
C77	C	0.971802	-1.006210	0.631942
C78	C	1.471802	-0.506210	1.131942
C79	C	0.968879	-1.079602	0.636178
C80	C	1.468879	-0.579602	1.136178
C81	C	1.058831	-1.083184	0.507517
C82	C	1.558831	-0.583184	1.007517
C83	C	1.061749	-1.009796	0.503275
C84	C	1.561749	-0.509796	1.003275
C85	C	1.018238	-0.971312	0.565492
C86	C	1.518238	-0.471312	1.065492
N87	N	0.982380	-0.861932	0.616690
N88	N	1.482380	-0.361932	1.116690
N89	N	1.021230	-0.896299	0.561156
N90	N	1.521230	-0.396299	1.061156
C91	C	1.185021	-0.386860	0.600346
C92	C	1.685021	0.113140	1.100346
C93	C	1.263123	-0.390010	0.605225
C94	C	1.763123	0.109990	1.105225
C95	C	1.001739	-0.379468	0.862932
C96	C	1.501739	0.120532	1.362932
C97	C	1.001738	-0.379468	0.979708
C98	C	1.501738	0.120532	1.479708
C99	C	1.009209	-0.196189	0.578432
C100	C	1.509209	0.303811	1.078432
C101	C	1.012391	-0.118087	0.573972
C102	C	1.512391	0.381913	1.073972
C103	C	0.958632	-0.332719	1.029197
C104	C	1.458632	0.167281	1.529197
C105	C	0.958628	-0.332726	1.138921
C106	C	1.458628	0.167274	1.638921
C107	C	1.044840	-0.426231	1.149659
C108	C	1.544840	0.073769	1.649659
C109	C	1.044841	-0.426228	1.039936
C110	C	1.544841	0.073772	1.539936
C111	C	1.001737	-0.379483	1.315932
C112	C	1.501737	0.120517	1.815932
C113	C	1.001733	-0.379478	1.199155
C114	C	1.501733	0.120522	1.699155
H115	H	0.737561	-0.287043	0.445846
H116	H	1.237561	0.212957	0.945846
Br117	Br	0.749893	-0.475601	0.737643
Br118	Br	1.249893	0.024399	1.237643
Br119	Br	0.900135	-0.269261	0.947461
Br120	Br	1.400135	0.230739	1.447461
Br121	Br	0.576922	-0.468641	0.726909
Br122	Br	1.076922	0.031359	1.226909
Br123	Br	1.103334	-0.489688	1.231403
Br124	Br	1.603334	0.010312	1.731403
H125	H	1.079944	-0.464299	0.999643
H126	H	1.579944	0.035701	1.499643
H127	H	0.273243	-0.308624	0.479275
H128	H	0.773243	0.191376	0.979275
Br129	Br	0.418707	-0.502534	0.779352
Br130	Br	0.918707	-0.002534	1.279352
H131	H	0.604424	-0.281694	0.437563
H132	H	1.104424	0.218306	0.937563
Br133	Br	0.427280	-0.290332	0.450989
Br134	Br	0.927280	0.209668	0.950989
Br135	Br	0.245729	-0.495572	0.768614
Br136	Br	0.745729	0.004428	1.268614
Br137	Br	0.900112	-0.269290	1.206080
Br138	Br	1.400112	0.230710	1.706080
H139	H	1.072536	-0.650214	0.487537
H140	H	1.572536	-0.150214	0.987537
Br141	Br	1.124782	-0.962433	0.413105
Br142	Br	1.624782	-0.462433	0.913105
Br143	Br	1.090864	-0.804242	0.461480
Br144	Br	1.590864	-0.304242	0.961480
H145	H	0.931073	-1.108018	0.690308
H146	H	1.431073	-0.608018	1.190308
Br147	Br	1.117883	-1.135415	0.423090
Br148	Br	1.617883	-0.635415	0.923090
Br149	Br	0.878838	-0.795795	0.764754
Br150	Br	1.378838	-0.295795	1.264754
Br151	Br	0.912751	-0.953991	0.716380
Br152	Br	1.412751	-0.453991	1.216380
Br153	Br	0.885729	-0.622810	0.754752
Br154	Br	1.385729	-0.122810	1.254752
