data_functionalizedCrystal
_audit_creation_method	'MofGen! by Chris Wilmer'
_symmetry_space_group_name_H-M	'P1'
_symmetry_Int_Tables_number	1
_symmetry_cell_setting	triclinic
loop_
_symmetry_equiv_pos_as_xyz
  x,y,z
_cell_length_a	19.288864
_cell_length_b	12.837942
_cell_length_c	18.366186
_cell_angle_alpha	89.994829
_cell_angle_beta	89.977106
_cell_angle_gamma	88.982593
loop_
_atom_site_label
_atom_site_type_symbol
_atom_site_fract_x
_atom_site_fract_y
_atom_site_fract_z
O1	O	0.930180	0.129276	-0.060785
O2	O	1.263514	0.462609	0.272548
O3	O	1.596847	0.795943	0.605882
O4	O	0.729110	0.146715	-0.060736
O5	O	1.062444	0.480048	0.272598
O6	O	1.395777	0.813382	0.605931
O7	O	0.825187	-0.012886	-0.060755
O8	O	1.158520	0.320447	0.272579
O9	O	1.491854	0.653780	0.605912
O10	O	0.834104	0.288877	-0.060766
O11	O	1.167437	0.622211	0.272567
O12	O	1.500771	0.955544	0.605901
O13	O	0.825168	-0.012894	0.060345
O14	O	1.158502	0.320439	0.393678
O15	O	1.491835	0.653772	0.727011
O16	O	0.729092	0.146707	0.060364
O17	O	1.062425	0.480041	0.393697
O18	O	1.395758	0.813374	0.727031
O19	O	0.930162	0.129268	0.060314
O20	O	1.263495	0.462602	0.393648
O21	O	1.596828	0.795935	0.726981
Zn22	Zn	0.829624	0.137986	0.079566
Zn23	Zn	1.162957	0.471320	0.412900
Zn24	Zn	1.496290	0.804653	0.746233
Zn25	Zn	0.829648	0.137997	-0.079987
Zn26	Zn	1.162982	0.471330	0.253346
Zn27	Zn	1.496315	0.804663	0.586679
O28	O	0.834085	0.288870	0.060334
O29	O	1.167419	0.622203	0.393667
O30	O	1.500752	0.955536	0.727000
C31	C	0.703186	0.146150	-0.000179
C32	C	1.036520	0.479483	0.333154
C33	C	1.369853	0.812817	0.666487
C34	C	0.625968	0.144466	-0.000160
C35	C	0.959301	0.477799	0.333173
C36	C	1.292634	0.811132	0.666506
C37	C	0.587666	0.238113	-0.000175
C38	C	0.920999	0.571446	0.333158
C39	C	1.254333	0.904779	0.666491
C40	C	0.515111	0.236530	-0.000183
C41	C	0.848444	0.569863	0.333150
C42	C	1.181778	0.903197	0.666483
C43	C	0.480860	0.141295	-0.000191
C44	C	0.814194	0.474629	0.333142
C45	C	1.147527	0.807962	0.666476
C46	C	0.519171	0.047636	-0.000172
C47	C	0.852504	0.380969	0.333161
C48	C	1.185838	0.714303	0.666495
C49	C	0.591725	0.049221	-0.000157
C50	C	0.925058	0.382555	0.333177
C51	C	1.258391	0.715888	0.666510
C52	C	0.367493	0.066433	-0.042639
C53	C	0.700826	0.399766	0.290694
C54	C	1.034159	0.733100	0.624028
C55	C	0.294940	0.064852	-0.042659
C56	C	0.628274	0.398185	0.290674
C57	C	0.961607	0.731518	0.624008
C58	C	0.257081	0.136402	-0.000235
C59	C	0.590414	0.469736	0.333099
C60	C	0.923747	0.803069	0.666432
C61	C	0.291782	0.209552	0.042200
C62	C	0.625115	0.542885	0.375533
C63	C	0.958449	0.876218	0.708866
C64	C	0.364336	0.211137	0.042215
C65	C	0.697669	0.544470	0.375548
C66	C	1.031002	0.877803	0.708882
C67	C	0.402188	0.139566	-0.000207
C68	C	0.735522	0.472899	0.333126
C69	C	1.068855	0.806233	0.666460
C70	C	0.140106	0.228340	-0.000257
C71	C	0.473440	0.561673	0.333076
C72	C	0.806773	0.895006	0.666409
C73	C	0.067550	0.226753	-0.000261
C74	C	0.400883	0.560087	0.333073
C75	C	0.734217	0.893420	0.666406
C76	C	0.071611	0.037857	-0.000257
C77	C	0.404945	0.371190	0.333077
C78	C	0.738278	0.704523	0.666410
C79	C	0.144166	0.039446	-0.000246
C80	C	0.477500	0.372779	0.333087
C81	C	0.810833	0.706112	0.666421
C82	C	0.178409	0.134690	-0.000250
C83	C	0.511743	0.468023	0.333084
C84	C	0.845076	0.801357	0.666417
C85	C	0.822165	-0.051497	-0.000205
C86	C	1.155499	0.281836	0.333129
C87	C	1.488832	0.615170	0.666462
C88	C	0.813181	-0.166532	-0.000204
C89	C	1.146514	0.166801	0.333130
C90	C	1.479848	0.500135	0.666463
C91	C	0.921187	-0.407995	-0.000245
C92	C	1.254520	-0.074661	0.333088
C93	C	1.587853	0.258672	0.666421
C94	C	0.912748	-0.516081	-0.000245
C95	C	1.246082	-0.182748	0.333089
C96	C	1.579415	0.150586	0.666422
C97	C	0.787867	-0.490793	-0.000206
C98	C	1.121201	-0.157460	0.333127
C99	C	1.454534	0.175873	0.666460
C100	C	0.796305	-0.382707	-0.000207
C101	C	1.129639	-0.049374	0.333126
C102	C	1.462972	0.283960	0.666460
C103	C	0.862967	-0.341312	-0.000226
C104	C	1.196301	-0.007979	0.333108
C105	C	1.529634	0.325355	0.666441
C106	C	0.871405	-0.233223	-0.000221
C107	C	1.204738	0.100110	0.333112
C108	C	1.538071	0.433443	0.666445
C109	C	0.746524	-0.207938	-0.000188
C110	C	1.079858	0.125396	0.333145
C111	C	1.413191	0.458729	0.666478
C112	C	0.738086	-0.316024	-0.000187
C113	C	1.071419	0.017309	0.333146
C114	C	1.404753	0.350642	0.666479
C115	C	0.956086	0.129833	-0.000243
C116	C	1.289419	0.463167	0.333090
C117	C	1.622752	0.796500	0.666423
C118	C	1.033304	0.131518	-0.000267
C119	C	1.366638	0.464851	0.333066
C120	C	1.699971	0.798184	0.666399
C121	C	0.837107	0.327480	-0.000218
C122	C	1.170440	0.660813	0.333115
C123	C	1.503774	0.994147	0.666449
C124	C	0.846091	0.442515	-0.000224
C125	C	1.179424	0.775849	0.333109
C126	C	1.512758	1.109182	0.666443
N127	N	0.829612	0.137979	0.188457
N128	N	1.162945	0.471312	0.521791
N129	N	1.496279	0.804645	0.855124
N130	N	0.829665	0.137996	-0.188879
N131	N	1.162998	0.471330	0.144455
N132	N	1.496332	0.804663	0.477788
C133	C	0.872172	0.067342	0.226549
C134	C	1.205506	0.400675	0.559883
C135	C	1.538839	0.734009	0.893216
C136	C	0.872177	0.067337	0.302777
C137	C	1.205510	0.400671	0.636110
C138	C	1.538843	0.734004	0.969444
C139	C	0.829628	0.137987	0.340910
C140	C	1.162961	0.471321	0.674243
C141	C	1.496295	0.804654	1.007577
C142	C	0.787059	0.208630	0.302809
C143	C	1.120392	0.541963	0.636142
C144	C	1.453726	0.875296	0.969476
C145	C	0.787051	0.208625	0.226583
C146	C	1.120384	0.541959	0.559916
C147	C	1.453718	0.875292	0.893249
C148	C	0.826777	0.232410	0.461668
C149	C	1.160111	0.565743	0.795002
C150	C	1.493444	0.899077	1.128335
C151	C	0.826790	0.232416	0.537893
C152	C	1.160124	0.565749	0.871227
C153	C	1.493457	0.899082	1.204560
C154	C	0.829649	0.138000	0.576018
C155	C	1.162982	0.471334	0.909351
C156	C	1.496315	0.804667	1.242684
C157	C	0.832508	0.043575	0.537908
C158	C	1.165842	0.376909	0.871241
C159	C	1.499175	0.710242	1.204574
C160	C	0.832500	0.043571	0.461681
C161	C	1.165834	0.376904	0.795015
C162	C	1.499167	0.710238	1.128348
C163	C	0.829632	0.137999	0.423565
C164	C	1.162965	0.471333	0.756898
C165	C	1.496298	0.804666	1.090231
C166	C	0.872216	0.067352	0.696764
C167	C	1.205549	0.400686	1.030098
C168	C	1.538882	0.734019	1.363431
C169	C	0.872215	0.067346	0.772994
C170	C	1.205548	0.400680	1.106327
C171	C	1.538882	0.734013	1.439660
C172	C	0.787101	0.208648	0.773024
C173	C	1.120435	0.541981	1.106357
C174	C	1.453768	0.875315	1.439691
C175	C	0.787098	0.208645	0.696796
C176	C	1.120432	0.541978	1.030130
C177	C	1.453765	0.875312	1.363463
C178	C	0.829659	0.137998	0.658671
C179	C	1.162992	0.471332	0.992004
C180	C	1.496326	0.804665	1.325338
H181	H	0.615542	0.315668	-0.000180
H182	H	0.948875	0.649001	0.333154
H183	H	1.282209	0.982335	0.666487
H184	H	0.906826	0.009815	0.195510
H185	H	1.240160	0.343148	0.528843
H186	H	1.573493	0.676482	0.862177
H187	H	0.752455	0.266169	0.804071
H188	H	1.085788	0.599502	1.137405
H189	H	1.419121	0.932835	1.470738
H190	H	0.036366	0.303015	-0.000269
H191	H	0.369699	0.636348	0.333065
H192	H	0.703032	0.969682	0.666398
H193	H	0.622910	-0.027040	-0.000145
H194	H	0.956243	0.306293	0.333188
H195	H	1.289577	0.639627	0.666522
H196	H	0.925684	-0.199522	-0.000234
H197	H	1.259017	0.133812	0.333100
H198	H	1.592351	0.467145	0.666433
H199	H	0.699118	-0.153632	-0.000166
H200	H	1.032451	0.179701	0.333167
H201	H	1.365784	0.513035	0.666500
H202	H	0.975465	-0.374291	-0.000253
H203	H	1.308798	-0.040957	0.333080
H204	H	1.642132	0.292376	0.666413
H205	H	0.398312	0.008166	-0.077190
H206	H	0.731646	0.341499	0.256143
H207	H	1.064979	0.674832	0.589476
H208	H	0.752445	0.266168	0.665780
H209	H	1.085778	0.599502	0.999113
H210	H	1.419111	0.932835	1.332447
H211	H	0.960157	-0.570371	-0.000263
H212	H	1.293490	-0.237038	0.333070
H213	H	1.626824	0.096295	0.666404
H214	H	0.834827	-0.033313	0.430655
H215	H	1.168161	0.300020	0.763989
H216	H	1.501494	0.633354	1.097322
H217	H	0.906870	0.009820	0.804009
H218	H	1.240204	0.343153	1.137342
H219	H	1.573537	0.676487	1.470675
H220	H	0.392587	0.270694	0.076769
H221	H	0.725920	0.604028	0.410102
H222	H	1.059253	0.937361	0.743436
H223	H	0.906835	0.009814	0.333797
H224	H	1.240169	0.343147	0.667131
H225	H	1.573502	0.676481	1.000464
H226	H	0.824438	0.309299	0.430634
H227	H	1.157771	0.642633	0.763967
H228	H	1.491105	0.975966	1.097300
H229	H	0.824466	0.309302	0.568917
H230	H	1.157799	0.642635	0.902250
H231	H	1.491133	0.975969	1.235583
H232	H	0.733594	-0.524517	-0.000199
H233	H	1.066928	-0.191183	0.333134
H234	H	1.400261	0.142150	0.666468
H235	H	0.491280	-0.029905	-0.000188
H236	H	0.824613	0.303428	0.333145
H237	H	1.157946	0.636762	0.666479
H238	H	0.834836	-0.033307	0.568947
H239	H	1.168169	0.300026	0.902280
H240	H	1.501502	0.633360	1.235613
H241	H	0.683812	-0.349743	-0.000175
H242	H	1.017145	-0.016410	0.333158
H243	H	1.350478	0.316923	0.666492
H244	H	0.752392	0.266147	0.195568
H245	H	1.085726	0.599481	0.528901
H246	H	1.419059	0.932814	0.862234
H247	H	0.752414	0.266153	0.333861
H248	H	1.085747	0.599486	0.667194
H249	H	1.419081	0.932819	1.000527
H250	H	0.906869	0.009824	0.665722
H251	H	1.240203	0.343158	0.999055
H252	H	1.573536	0.676491	1.332388
H253	H	0.167988	0.305893	-0.000250
H254	H	0.501322	0.639227	0.333084
H255	H	0.834655	0.972560	0.666417
H256	H	0.483920	0.312791	-0.000193
H257	H	0.817253	0.646124	0.333140
H258	H	1.150586	0.979458	0.666473
H259	H	0.260958	0.267814	0.076746
H260	H	0.594291	0.601148	0.410079
H261	H	0.927625	0.934481	0.743413
H262	H	0.043725	-0.039685	-0.000308
H263	H	0.377059	0.293648	0.333025
H264	H	0.710392	0.626981	0.666358
H265	H	0.266692	0.005293	-0.077214
H266	H	0.600025	0.338627	0.256119
H267	H	0.933359	0.671960	0.589452
H268	H	0.175352	-0.036812	-0.000238
H269	H	0.508686	0.296521	0.333096
H270	H	0.842019	0.629855	0.666429
