data_functionalizedCrystal
_audit_creation_method	'MofGen! by Chris Wilmer'
_symmetry_space_group_name_H-M	'P1'
_symmetry_Int_Tables_number	1
_symmetry_cell_setting	triclinic
loop_
_symmetry_equiv_pos_as_xyz
  x,y,z
_cell_length_a	19.188940
_cell_length_b	10.723024
_cell_length_c	18.266242
_cell_angle_alpha	90.008634
_cell_angle_beta	89.994424
_cell_angle_gamma	96.191708
loop_
_atom_site_label
_atom_site_type_symbol
_atom_site_fract_x
_atom_site_fract_y
_atom_site_fract_z
O1	O	0.097923	-1.655170	-0.060877
O2	O	0.597923	-1.155170	0.439123
O3	O	0.107296	-1.291824	-0.060880
O4	O	0.607296	-0.791824	0.439120
O5	O	0.001022	-1.483976	-0.060873
O6	O	0.501022	-0.983976	0.439127
O7	O	0.204197	-1.463018	-0.060884
O8	O	0.704197	-0.963018	0.439116
O9	O	0.001019	-1.483943	0.060889
O10	O	0.501019	-0.983943	0.560889
O11	O	0.107293	-1.291791	0.060882
O12	O	0.607293	-0.791791	0.560882
O13	O	0.097920	-1.655137	0.060885
O14	O	0.597920	-1.155137	0.560885
Zn15	Zn	0.102606	-1.473459	0.080216
Zn16	Zn	0.602606	-0.973459	0.580216
Zn17	Zn	0.102610	-1.473502	-0.080211
Zn18	Zn	0.602610	-0.973502	0.419789
O19	O	0.204193	-1.462985	0.060878
O20	O	0.704193	-0.962985	0.560878
C21	C	0.106612	-1.245322	0.000001
C22	C	0.606612	-0.745322	0.500001
C23	C	0.104572	-1.106810	0.000000
C24	C	0.604572	-0.606810	0.500000
C25	C	-0.024994	-1.483279	0.000008
C26	C	0.475006	-0.983279	0.500008
C27	C	-0.102512	-1.481235	0.000008
C28	C	0.397488	-0.981235	0.500008
C29	C	0.098604	-1.701639	0.000003
C30	C	0.598604	-1.201639	0.500003
C31	C	0.100644	-1.840151	-0.000001
C32	C	0.600644	-1.340151	0.499999
C33	C	-0.655867	-1.466680	0.066363
C34	C	-0.155867	-0.966680	0.566363
C35	C	-0.583031	-1.468586	0.066367
C36	C	-0.083031	-0.968586	0.566367
C37	C	-0.546603	-1.469563	-0.000005
C38	C	-0.046603	-0.969563	0.499995
C39	C	-0.583016	-1.468601	-0.066385
C40	C	-0.083016	-0.968601	0.433615
C41	C	-0.655851	-1.466682	-0.066387
C42	C	-0.155851	-0.966682	0.433613
N43	N	-0.437097	-1.543593	-0.049406
N44	N	0.062903	-1.043593	0.450594
N45	N	-0.367907	-1.545419	-0.049399
N46	N	0.132093	-1.045419	0.450601
C47	C	-0.327156	-1.475342	-0.000002
C48	C	0.172844	-0.975342	0.499998
N49	N	-0.358210	-1.403387	0.049400
N50	N	0.141790	-0.903387	0.549400
N51	N	-0.427406	-1.401567	0.049395
N52	N	0.072594	-0.901567	0.549395
C53	C	-0.467626	-1.471643	-0.000010
C54	C	0.032374	-0.971643	0.499990
C55	C	-0.211773	-1.478362	0.066379
C56	C	0.288227	-0.978362	0.566379
C57	C	-0.138935	-1.480261	0.066380
C58	C	0.361065	-0.980261	0.566380
C59	C	-0.138922	-1.480288	-0.066374
C60	C	0.361078	-0.980288	0.433626
C61	C	-0.211759	-1.478377	-0.066373
C62	C	0.288241	-0.978377	0.433627
C63	C	-0.248180	-1.477420	0.000005
C64	C	0.251820	-0.977420	0.500005
C65	C	0.230210	-1.463682	-0.000004
C66	C	0.730210	-0.963682	0.499996
C67	C	0.307728	-1.465725	-0.000009
C68	C	0.807728	-0.965725	0.499991
N69	N	0.102603	-1.473439	0.189703
N70	N	0.602603	-0.973439	0.689703
C71	C	0.164037	-1.030596	-0.000004
C72	C	0.664037	-0.530596	0.499996
C73	C	0.161929	-0.887437	-0.000004
C74	C	0.661929	-0.387437	0.499996
N75	N	0.102608	-1.473532	-0.189698
N76	N	0.602608	-0.973532	0.310302
C77	C	0.145338	-1.548875	0.228004
C78	C	0.645338	-1.048875	0.728004
C79	C	0.145336	-1.548896	0.304649
C80	C	0.645336	-1.048896	0.804649
C81	C	0.102607	-1.473457	0.342990
C82	C	0.602607	-0.973457	0.842990
C83	C	0.059863	-1.398016	0.304680
C84	C	0.559863	-0.898016	0.804680
C85	C	0.059861	-1.398006	0.228036
C86	C	0.559861	-0.898006	0.728036
N87	N	0.100177	-1.364177	0.463342
N88	N	0.600177	-0.864177	0.963342
N89	N	0.100183	-1.364188	0.536150
N90	N	0.600183	-0.864188	1.036150
C91	C	0.102610	-1.473482	0.573912
C92	C	0.602610	-0.973482	1.073912
N93	N	0.105044	-1.582763	0.536116
N94	N	0.605044	-1.082763	1.036116
N95	N	0.105041	-1.582750	0.463301
N96	N	0.605041	-1.082750	0.963301
C97	C	0.102604	-1.473459	0.426097
C98	C	0.602604	-0.973459	0.926097
C99	C	0.145345	-1.548947	0.695320
C100	C	0.645345	-1.048947	1.195320
C101	C	0.145339	-1.548970	0.771967
C102	C	0.645339	-1.048970	1.271967
C103	C	0.059869	-1.398078	0.771996
C104	C	0.559869	-0.898078	1.271996
C105	C	0.059872	-1.398067	0.695351
C106	C	0.559872	-0.898067	1.195351
C107	C	0.102614	-1.473499	0.657018
C108	C	0.602614	-0.973499	1.157018
H109	H	-0.685517	-1.465899	0.120414
H110	H	-0.185517	-0.965899	0.620414
C111	C	-0.767494	-1.463753	-0.125333
C112	C	-0.267494	-0.963753	0.374667
C113	C	-0.695873	-1.465639	-0.139348
C114	C	-0.195873	-0.965639	0.360652
H115	H	-0.792201	-1.463103	-0.170377
H116	H	-0.292201	-0.963103	0.329623
H117	H	-0.784401	-1.536179	-0.098068
H118	H	-0.284401	-1.036179	0.401932
H119	H	-0.774452	-1.390683	-0.098058
H120	H	-0.274452	-0.890683	0.401942
H121	H	-0.688914	-1.538715	-0.166619
H122	H	-0.188914	-1.038715	0.333381
H123	H	-0.678960	-1.393207	-0.166624
H124	H	-0.178960	-0.893207	0.333376
C125	C	-0.025155	-0.857431	0.000000
C126	C	0.474845	-0.357431	0.500000
C127	C	0.031914	-0.928536	-0.000000
C128	C	0.531914	-0.428536	0.500000
H129	H	-0.067585	-0.912006	-0.000004
H130	H	0.432415	-0.412006	0.499996
H131	H	-0.023299	-0.806035	0.042460
H132	H	0.476701	-0.306035	0.542460
H133	H	-0.023288	-0.806044	-0.042463
H134	H	0.476712	-0.306044	0.457537
H135	H	0.030050	-0.979917	0.042466
H136	H	0.530050	-0.479917	0.542466
H137	H	0.030057	-0.979954	-0.042464
H138	H	0.530057	-0.479954	0.457536
C139	C	0.229818	-1.698029	0.235679
C140	C	0.729818	-1.198029	0.735679
C141	C	0.192311	-1.631805	0.185869
C142	C	0.692311	-1.131805	0.685869
H143	H	0.258812	-1.749234	0.209664
H144	H	0.758812	-1.249234	0.709664
H145	H	0.258135	-1.640453	0.265572
H146	H	0.758135	-1.140453	0.765572
H147	H	0.197942	-1.749330	0.265575
H148	H	0.697942	-1.249330	0.765575
H149	H	0.224187	-1.580497	0.155977
H150	H	0.724187	-1.080497	0.655977
H151	H	0.163992	-1.689389	0.155964
H152	H	0.663992	-1.189389	0.655964
C153	C	0.289456	-0.987730	-0.000008
C154	C	0.789456	-0.487730	0.499992
C155	C	0.234875	-1.085573	-0.000006
C156	C	0.734875	-0.585573	0.499994
H157	H	0.333190	-1.021671	-0.000005
H158	H	0.833190	-0.521671	0.499995
H159	H	0.286104	-0.937604	-0.042468
H160	H	0.786104	-0.437604	0.457532
H161	H	0.286096	-0.937573	0.042455
H162	H	0.786096	-0.437573	0.542455
H163	H	0.238232	-1.135726	-0.042472
H164	H	0.738232	-0.635726	0.457528
H165	H	0.238229	-1.135720	0.042458
H166	H	0.738229	-0.635720	0.542458
C167	C	0.215265	-0.674333	-0.000007
C168	C	0.715265	-0.174333	0.499993
C169	C	0.230656	-0.799042	-0.000008
C170	C	0.730656	-0.299042	0.499992
H171	H	0.257697	-0.619763	-0.000006
H172	H	0.757697	-0.119763	0.499994
H173	H	0.188839	-0.659339	-0.042465
H174	H	0.688839	-0.159339	0.457535
H175	H	0.188830	-0.659320	0.042457
H176	H	0.688830	-0.159320	0.542457
H177	H	0.257086	-0.814059	-0.042476
H178	H	0.757086	-0.314059	0.457524
H179	H	0.257093	-0.814043	0.042454
H180	H	0.757093	-0.314043	0.542454
C181	C	0.229822	-1.698106	0.702986
C182	C	0.729822	-1.198106	1.202986
C183	C	0.192318	-1.631873	0.653178
C184	C	0.692318	-1.131873	1.153178
H185	H	0.258818	-1.749306	0.676969
H186	H	0.758818	-1.249306	1.176969
H187	H	0.258138	-1.640536	0.732884
H188	H	0.758138	-1.140536	1.232884
H189	H	0.197944	-1.749413	0.732877
H190	H	0.697944	-1.249413	1.232877
H191	H	0.224197	-1.580559	0.623291
H192	H	0.724197	-1.080559	1.123291
H193	H	0.164001	-1.689450	0.623268
H194	H	0.664001	-1.189450	1.123268
H195	H	-0.553382	-1.469340	0.120417
H196	H	-0.053382	-0.969340	0.620417
C197	C	-0.323434	-1.475444	0.125322
C198	C	0.176566	-0.975444	0.625322
C199	C	-0.251814	-1.477309	0.139339
C200	C	0.248186	-0.977309	0.639339
H201	H	-0.348151	-1.474804	0.170365
H202	H	0.151849	-0.974804	0.670365
H203	H	-0.330393	-1.402390	0.098059
H204	H	0.169607	-0.902390	0.598059
H205	H	-0.340330	-1.547886	0.098044
H206	H	0.159670	-1.047886	0.598044
H207	H	-0.234917	-1.404861	0.166612
H208	H	0.265083	-0.904861	0.666612
H209	H	-0.244851	-1.550370	0.166613
H210	H	0.255149	-1.050370	0.666613
H211	H	-0.553352	-1.469392	-0.120425
H212	H	-0.053352	-0.969392	0.379575
C213	C	0.150571	-1.716690	0.390826
C214	C	0.650571	-1.216690	0.890826
C215	C	0.192317	-1.631816	0.346761
C216	C	0.692317	-1.131816	0.846761
H217	H	0.179577	-1.767882	0.416819
H218	H	0.679577	-1.267882	0.916819
H219	H	0.125125	-1.671764	0.424621
H220	H	0.625125	-1.171764	0.924621
H221	H	0.118708	-1.767998	0.360918
H222	H	0.618708	-1.267998	0.860918
H223	H	0.224177	-1.580501	0.376670
H224	H	0.724177	-1.080501	0.876670
H225	H	0.217775	-1.676745	0.312963
H226	H	0.717775	-1.176745	0.812963
C227	C	0.021962	-1.330944	0.422182
C228	C	0.521962	-0.830944	0.922182
C229	C	0.012896	-1.315085	0.346820
C230	C	0.512896	-0.815085	0.846820
H231	H	-0.007034	-1.279740	0.448195
H232	H	0.492966	-0.779740	0.948195
H233	H	0.009450	-1.416370	0.434759
H234	H	0.509450	-0.916370	0.934759
H235	H	0.069620	-1.307454	0.434702
H236	H	0.569620	-0.807454	0.934702
H237	H	-0.034762	-1.338584	0.334299
H238	H	0.465238	-0.838584	0.834299
H239	H	0.025404	-1.229640	0.334237
H240	H	0.525404	-0.729640	0.834237
H241	H	0.052101	-1.066073	-0.000016
H242	H	0.552101	-0.566073	0.499984
C243	C	-0.024620	-1.248857	0.235766
C244	C	0.475380	-0.748857	0.735766
C245	C	0.012888	-1.315070	0.185931
C246	C	0.512888	-0.815070	0.685931
H247	H	-0.053615	-1.197649	0.209769
H248	H	0.446385	-0.697649	0.709769
H249	H	-0.052936	-1.306440	0.265651
H250	H	0.447064	-0.806440	0.765651
H251	H	0.007256	-1.197561	0.265667
H252	H	0.507256	-0.697561	0.765667
H253	H	-0.018988	-1.366374	0.156034
H254	H	0.481012	-0.866374	0.656034
H255	H	0.041206	-1.257480	0.156034
H256	H	0.541206	-0.757480	0.656034
H257	H	-0.109295	-1.481035	0.120430
H258	H	0.390705	-0.981035	0.620430
H259	H	-0.109263	-1.481069	-0.120415
H260	H	0.390737	-0.981069	0.379585
H261	H	-0.241401	-1.477608	-0.120421
H262	H	0.258599	-0.977608	0.379579
C263	C	0.150565	-1.716789	0.858123
C264	C	0.650565	-1.216789	1.358123
C265	C	0.192315	-1.631906	0.814067
C266	C	0.692315	-1.131906	1.314067
H267	H	0.179567	-1.767995	0.884110
H268	H	0.679567	-1.267995	1.384110
H269	H	0.125120	-1.671869	0.891923
H270	H	0.625120	-1.171869	1.391923
H271	H	0.118699	-1.768082	0.828209
H272	H	0.618699	-1.268082	1.328209
H273	H	0.224177	-1.580606	0.843982
H274	H	0.724177	-1.080606	1.343982
H275	H	0.217771	-1.676829	0.780263
H276	H	0.717771	-1.176829	1.280263
H277	H	0.025077	-1.336656	0.803213
H278	H	0.525077	-0.836656	1.303213
H279	H	0.025075	-1.336633	0.664166
H280	H	0.525075	-0.836633	1.164166
