data_functionalizedCrystal
_audit_creation_method	'MofGen! by Chris Wilmer'
_symmetry_space_group_name_H-M	'P1'
_symmetry_Int_Tables_number	1
_symmetry_cell_setting	triclinic
loop_
_symmetry_equiv_pos_as_xyz
  x,y,z
_cell_length_a	14.560432
_cell_length_b	14.809436
_cell_length_c	14.809436
_cell_angle_alpha	60.797865
_cell_angle_beta	90.001258
_cell_angle_gamma	67.425309
loop_
_atom_site_label
_atom_site_type_symbol
_atom_site_fract_x
_atom_site_fract_y
_atom_site_fract_z
Zr1	Zr	-0.067431	1.151380	0.676958
O2	O	-0.179939	1.309304	0.529796
O3	O	-0.048868	0.973613	0.735035
O4	O	-0.217504	1.160155	0.716335
O5	O	0.139839	1.122758	0.548500
O6	O	-0.229020	1.189650	0.848733
O7	O	-0.011302	1.122761	0.548496
O8	O	0.072641	0.855959	0.882183
O9	O	-0.161822	1.456449	0.515049
O10	O	-0.030302	1.076091	0.842948
O11	O	0.091086	1.054078	0.744144
O12	O	-0.107462	1.273708	0.722127
O13	O	0.013926	1.251694	0.623323
Zr14	Zr	0.155256	1.198415	0.888123
Zr15	Zr	-0.085796	1.198420	0.888117
Zr16	Zr	0.173621	1.151375	0.676964
Zr17	Zr	-0.038536	1.386059	0.653438
Zr18	Zr	0.126361	0.963736	0.911643
O19	O	0.136693	1.376182	0.830046
O20	O	-0.206052	1.376189	0.830038
O21	O	0.162806	1.309297	0.529805
O22	O	0.267764	1.040491	1.035285
O23	O	-0.074981	1.040498	1.035276
O24	O	0.293877	0.973606	0.735043
O25	O	-0.052013	1.227037	1.016581
O26	O	0.305330	1.189639	0.848746
O27	O	0.316845	1.160145	0.716348
O28	O	0.099127	1.227034	1.016585
O29	O	-0.176420	1.493840	0.682893
O30	O	0.264245	0.855955	0.882188
O31	O	0.249647	0.893346	1.050031
O32	O	0.058043	0.893350	1.050027
O33	O	0.029783	1.456445	0.515054
O34	O	0.015185	1.493836	0.682898
O35	O	0.195287	1.076087	0.842954
O36	O	0.073899	1.098101	0.941758
O37	O	-0.003261	1.295717	0.820937
O38	O	0.118127	1.273703	0.722133
C39	C	0.007769	0.881349	0.811960
C40	C	-0.004497	0.781721	0.821945
C41	C	0.037576	0.623413	0.787697
C42	C	0.050256	0.726383	0.777377
C43	C	-0.257607	1.174903	0.782533
C44	C	-0.359940	1.174906	0.782530
C45	C	-0.440512	1.381217	0.656382
C46	C	-0.528871	1.484369	0.593308
C47	C	-0.625019	1.484364	0.593311
C48	C	-0.632805	1.381197	0.656398
C49	C	-0.544446	1.278045	0.719473
C50	C	-0.448300	1.278061	0.719460
C51	C	-0.463876	1.071738	0.845625
C52	C	-0.367726	1.071739	0.845617
C53	C	-0.471663	0.968571	0.908712
C54	C	-0.383302	0.865415	0.971782
C55	C	-0.287150	0.865424	0.971775
C56	C	-0.279367	0.968587	0.908692
C57	C	0.345432	1.174891	0.782548
C58	C	0.447765	1.174889	0.782550
C59	C	0.066885	1.116057	0.518412
C60	C	0.074682	1.096087	0.428769
C61	C	0.080056	1.468446	0.753121
C62	C	0.092322	1.568074	0.743136
C63	C	0.047942	1.164582	0.236213
C64	C	0.039879	1.185225	0.328862
C65	C	0.020940	1.233738	1.046669
C66	C	0.013144	1.253708	1.136311
C67	C	-0.015203	0.940189	1.076088
C68	C	-0.035266	0.860532	1.175716
C69	C	0.309289	0.881343	0.811967
C70	C	0.399355	0.781713	0.821955
C71	C	0.286317	0.940183	1.076096
C72	C	0.368586	0.860524	1.175726
C73	C	-0.198491	1.409611	0.488985
C74	C	-0.280761	1.489271	0.389355
C75	C	0.103028	1.409605	0.488993
C76	C	0.123091	1.489263	0.389365
C77	C	-0.221464	1.468452	0.753113
C78	C	-0.311530	1.568082	0.743126
C79	C	-0.099090	0.811635	1.170924
C80	C	-0.117962	0.736799	1.264525
C81	C	-0.073003	0.710855	1.362917
C82	C	-0.009176	0.759761	1.367706
C83	C	0.009689	0.834601	1.274105
C84	C	0.496053	0.746415	0.878222
C85	C	0.580691	0.652814	0.887602
C86	C	0.568628	0.594509	0.840718
C87	C	0.471920	0.629815	0.784443
C88	C	0.387286	0.723419	0.775059
C89	C	0.343857	0.834607	1.274097
C90	C	0.421150	0.759773	1.367716
C91	C	0.523170	0.710850	1.362963
C92	C	0.547900	0.736773	1.264582
C93	C	0.470608	0.811613	1.170964
C94	C	-0.256030	1.515199	0.290983
C95	C	-0.333319	1.590062	0.197360
C96	C	-0.435340	1.638990	0.202113
C97	C	-0.460070	1.613061	0.300495
C98	C	-0.382780	1.538205	0.394115
C99	C	0.186906	1.538170	0.394156
C100	C	0.205755	1.613031	0.300552
C101	C	0.160793	1.638978	0.202159
C102	C	0.096970	1.590068	0.197371
C103	C	0.078117	1.515215	0.290973
C104	C	-0.299435	1.626360	0.790022
C105	C	-0.384056	1.719964	0.780659
C106	C	-0.480769	1.755294	0.724392
C107	C	-0.492863	1.697007	0.677495
C108	C	-0.408245	1.603399	0.686866
H109	H	0.148576	0.596931	0.697340
H110	H	0.400996	0.738675	1.447814
H111	H	0.223530	1.517050	0.474264
Cl112	Cl	-0.302208	1.622637	0.073695
H113	H	-0.201083	0.968603	0.908675
H114	H	0.505895	0.793878	0.916402
Cl115	Cl	-0.198198	0.675327	1.258481
Cl116	Cl	-0.368827	1.793228	0.839614
Cl117	Cl	-0.096727	0.616764	1.480579
Cl118	Cl	-0.042077	1.395114	0.110147
H119	H	0.060366	1.611207	0.117247
Cl120	Cl	-0.753680	1.381198	0.656413
H121	H	-0.135717	0.832758	1.090816
H122	H	0.026156	1.475395	0.287058
Cl123	Cl	-0.319641	1.381227	0.656356
Cl124	Cl	-0.393101	0.735736	1.051087
Cl125	Cl	-0.592535	0.968565	0.908720
H126	H	-0.498264	1.699940	0.125874
Cl127	Cl	0.456771	0.556502	0.725513
H128	H	-0.549663	1.831518	0.716770
H129	H	-0.172966	1.475362	0.287094
H130	H	0.659426	0.624081	0.933429
H131	H	0.257727	1.652842	0.304472
Cl132	Cl	0.265724	0.767775	0.704323
H133	H	-0.571619	1.725787	0.631683
H134	H	0.083698	1.072997	0.253152
H135	H	-0.220693	1.597610	0.835839
H136	H	0.176153	1.699931	0.125951
H137	H	0.637551	0.518292	0.848368
H138	H	-0.402930	1.517096	0.474211
Cl139	Cl	-0.423465	1.530154	0.627890
H140	H	0.110434	1.004494	0.445718
Cl141	Cl	0.620326	0.616765	1.480666
H142	H	0.027424	0.738626	1.447830
Cl143	Cl	-0.049291	0.578881	0.858390
H144	H	0.106514	0.755236	0.731578
H145	H	0.630975	0.696930	1.260728
Cl146	Cl	-0.519076	1.614058	0.514006
Cl147	Cl	0.089938	0.896055	1.280149
H148	H	0.260791	0.874431	1.277987
H149	H	0.490758	0.832701	1.090870
H150	H	-0.060763	0.752877	0.867734
Cl151	Cl	-0.176076	0.735742	1.051084
Cl152	Cl	-0.736102	1.614042	0.514024
H153	H	0.004111	1.276817	0.311916
H154	H	-0.543143	1.652907	0.304352
