data_functionalizedCrystal
_audit_creation_method	'MofGen! by Chris Wilmer'
_symmetry_space_group_name_H-M	'P1'
_symmetry_Int_Tables_number	1
_symmetry_cell_setting	triclinic
loop_
_symmetry_equiv_pos_as_xyz
  x,y,z
_cell_length_a	13.032831
_cell_length_b	16.625546
_cell_length_c	13.033255
_cell_angle_alpha	97.150402
_cell_angle_beta	76.666554
_cell_angle_gamma	82.826778
loop_
_atom_site_label
_atom_site_type_symbol
_atom_site_fract_x
_atom_site_fract_y
_atom_site_fract_z
Zn1	Zn	1.700029	-0.566816	-0.806342
Zn2	Zn	1.677351	-0.682035	-0.628717
Zn3	Zn	1.499862	-0.527601	-0.606242
Zn4	Zn	1.522363	-0.681963	-0.783759
O5	O	1.599902	-0.614604	-0.706265
O6	O	1.845655	-0.598542	-0.801637
O7	O	1.634900	-0.645168	-0.477108
O8	O	1.526489	-0.419982	-0.632831
O9	O	1.828993	-0.683193	-0.671137
O10	O	1.673551	-0.448793	-0.779843
O11	O	1.504499	-0.531706	-0.460596
O12	O	1.354213	-0.531635	-0.610933
O13	O	1.564838	-0.683070	-0.935382
O14	O	1.370744	-0.645044	-0.741354
O15	O	1.695369	-0.598472	-0.951974
O16	O	1.656718	-0.794846	-0.649239
O17	O	1.542848	-0.794793	-0.763147
C18	C	1.323940	-0.584077	-0.671254
C19	C	1.205886	-0.571040	-0.656302
C20	C	1.161448	-0.621408	-0.714069
C21	C	1.039433	-0.607935	-0.698616
C22	C	1.599795	-0.824079	-0.706208
C23	C	1.599852	-0.913708	-0.706231
C24	C	1.600051	-1.241916	-0.706365
C25	C	1.599992	-1.150598	-0.706330
C26	C	1.599950	-1.077814	-0.706298
C27	C	1.599894	-0.986491	-0.706264
C28	C	1.876941	-0.645250	-0.741413
C29	C	1.994998	-0.658310	-0.756391
C30	C	1.635143	-0.645137	-0.983293
C31	C	1.650161	-0.658149	-1.101346
C32	C	1.600040	-0.404317	-0.706349
C33	C	1.600099	-0.314705	-0.706385
C34	C	1.607865	-0.621257	-1.267827
C35	C	1.592334	-0.607806	-1.145812
C36	C	1.564858	-0.584138	-0.430322
C37	C	1.550046	-0.570922	-0.312296
H38	H	1.213735	-0.674502	-0.774968
F39	F	1.729893	-0.727500	-1.169641
F40	F	1.687590	-0.690606	-1.336127
H41	H	1.153600	-0.517941	-0.595410
F42	F	1.470309	-0.501581	-1.243995
F43	F	0.971100	-0.538525	-0.619019
F44	F	1.063332	-0.727708	-0.836007
H45	H	1.531329	-0.554753	-1.093556
