data_functionalizedCrystal
_audit_creation_method	'MofGen! by Chris Wilmer'
_symmetry_space_group_name_H-M	'P1'
_symmetry_Int_Tables_number	1
_symmetry_cell_setting	triclinic
loop_
_symmetry_equiv_pos_as_xyz
  x,y,z
_cell_length_a	6.817900
_cell_length_b	12.200863
_cell_length_c	14.125465
_cell_angle_alpha	94.991681
_cell_angle_beta	100.398878
_cell_angle_gamma	107.143441
loop_
_atom_site_label
_atom_site_type_symbol
_atom_site_fract_x
_atom_site_fract_y
_atom_site_fract_z
V1	V	-4.009714	-0.157727	-0.300074
O2	O	-3.978506	0.008593	-0.294261
O3	O	-3.979665	-0.313721	-0.298118
O4	O	-3.945521	-0.154856	-0.430902
O5	O	-4.012886	-0.151372	-0.160558
V6	V	-4.493010	-0.137885	-0.283375
O7	O	-4.271469	-0.201250	-0.336704
O8	O	-4.681452	-0.094362	-0.246744
O9	O	-4.299853	0.018109	-0.285330
O10	O	-4.641615	-0.304206	-0.289187
O11	O	-4.607235	-0.144241	-0.422890
O12	O	-4.333996	-0.140757	-0.152546
C13	C	-3.829641	-0.351763	-0.293409
C14	C	-3.886254	-0.479287	-0.292682
C15	C	-3.989866	-0.712768	-0.291359
C16	C	-3.932201	-0.582843	-0.292096
C17	C	-3.786086	-0.149113	-0.462787
C18	C	-3.815006	-0.147798	-0.569740
C19	C	-3.868015	-0.145386	-0.765562
C20	C	-4.054077	-0.150224	-0.817886
C21	C	-4.083574	-0.148882	-0.926848
C22	C	-3.838511	-0.146728	-0.656590
C23	C	-4.113220	0.056144	-0.290036
C24	C	-4.035844	0.183668	-0.290769
C25	C	-4.156774	-0.146503	-0.120656
C26	C	-4.107092	-0.147812	-0.013702
H27	H	-4.191223	-0.155386	-0.780851
F28	F	-3.688779	-0.138664	-0.813970
