data_functionalizedCrystal
_audit_creation_method	'MofGen! by Chris Wilmer'
_symmetry_space_group_name_H-M	'P1'
_symmetry_Int_Tables_number	1
_symmetry_cell_setting	triclinic
loop_
_symmetry_equiv_pos_as_xyz
  x,y,z
_cell_length_a	18.050591
_cell_length_b	18.050589
_cell_length_c	19.805399
_cell_angle_alpha	89.976299
_cell_angle_beta	89.979210
_cell_angle_gamma	90.024669
loop_
_atom_site_label
_atom_site_type_symbol
_atom_site_fract_x
_atom_site_fract_y
_atom_site_fract_z
Zn1	Zn	1.135300	-0.295737	-0.382815
Zn2	Zn	1.468633	0.037597	-0.049482
Zn3	Zn	1.801967	0.370930	0.283852
Zn4	Zn	1.135209	-0.419932	-0.269637
Zn5	Zn	1.468542	-0.086599	0.063696
Zn6	Zn	1.801875	0.246735	0.397030
Zn7	Zn	1.011117	-0.295753	-0.269632
Zn8	Zn	1.344450	0.037581	0.063701
Zn9	Zn	1.677784	0.370914	0.397035
Zn10	Zn	1.011067	-0.419882	-0.382776
Zn11	Zn	1.344401	-0.086548	-0.049443
Zn12	Zn	1.677734	0.246785	0.283890
O13	O	1.073173	-0.357826	-0.326215
O14	O	1.406507	-0.024492	0.007118
O15	O	1.739840	0.308841	0.340452
O16	O	1.239213	-0.312226	-0.367820
O17	O	1.572546	0.021107	-0.034487
O18	O	1.905879	0.354441	0.298847
O19	O	1.118730	-0.403487	-0.174920
O20	O	1.452063	-0.070154	0.158413
O21	O	1.785397	0.263180	0.491747
O22	O	1.027649	-0.191826	-0.284660
O23	O	1.360983	0.141507	0.048673
O24	O	1.694316	0.474841	0.382007
O25	O	1.239145	-0.403472	-0.284669
O26	O	1.572479	-0.070138	0.048664
O27	O	1.905812	0.263195	0.381998
O28	O	1.118886	-0.191814	-0.367815
O29	O	1.452219	0.141519	-0.034482
O30	O	1.785553	0.474852	0.298852
O31	O	1.027561	-0.312253	-0.174916
O32	O	1.360894	0.021080	0.158417
O33	O	1.694227	0.354414	0.491751
O34	O	0.907186	-0.312204	-0.284622
O35	O	1.240519	0.021129	0.048711
O36	O	1.573853	0.354463	0.382044
O37	O	1.027565	-0.403386	-0.477498
O38	O	1.360898	-0.070053	-0.144165
O39	O	1.694231	0.263281	0.189169
O40	O	0.907149	-0.403401	-0.367749
O41	O	1.240483	-0.070068	-0.034416
O42	O	1.573816	0.263265	0.298918
O43	O	1.118838	-0.312177	-0.477526
O44	O	1.452171	0.021156	-0.144193
O45	O	1.785504	0.354490	0.189140
O46	O	1.118682	-0.523850	-0.284631
O47	O	1.452015	-0.190517	0.048702
O48	O	1.785348	0.142817	0.382035
O49	O	1.027476	-0.523813	-0.367754
O50	O	1.360809	-0.190480	-0.034421
O51	O	1.694142	0.142854	0.298913
C52	C	0.880221	-0.357800	-0.326181
C53	C	1.213554	-0.024466	0.007152
C54	C	1.546888	0.308867	0.340485
C55	C	0.797675	-0.357806	-0.326183
C56	C	1.131009	-0.024473	0.007151
C57	C	1.464342	0.308860	0.340484
C58	C	0.548848	-0.308162	-0.281085
C59	C	0.882181	0.025171	0.052248
C60	C	1.215515	0.358505	0.385581
C61	C	0.598281	-0.290074	-0.342855
C62	C	0.931615	0.043259	-0.009522
C63	C	1.264948	0.376592	0.323812
C64	C	0.500555	-0.357844	-0.326238
C65	C	0.833888	-0.024511	0.007095
C66	C	1.167222	0.308822	0.340429
C67	C	0.598203	-0.375878	-0.264445
C68	C	0.931537	-0.042545	0.068889
C69	C	1.264870	0.290789	0.402222
C70	C	0.646540	-0.357824	-0.326208
C71	C	0.979873	-0.024490	0.007126
C72	C	1.313207	0.308843	0.340459
C73	C	0.548901	-0.339722	-0.388041
C74	C	0.882234	-0.006388	-0.054707
C75	C	1.215568	0.326945	0.278626
C76	C	0.548819	-0.425557	-0.309589
C77	C	0.882152	-0.092224	0.023745
C78	C	1.215485	0.241110	0.357078
C79	C	0.598230	-0.407495	-0.371401
C80	C	0.931563	-0.074162	-0.038068
C81	C	1.264896	0.259172	0.295266
C82	C	0.416457	-0.357854	-0.326255
C83	C	0.749790	-0.024521	0.007079
C84	C	1.083123	0.308813	0.340412
C85	C	0.730637	-0.357814	-0.326198
C86	C	1.063970	-0.024481	0.007135
C87	C	1.397303	0.308853	0.340469
C88	C	1.073084	-0.550778	-0.326204
C89	C	1.406417	-0.217445	0.007130
C90	C	1.739750	0.115889	0.340463
C91	C	1.073113	-0.633324	-0.326222
C92	C	1.406447	-0.299990	0.007112
C93	C	1.739780	0.033343	0.340445
C94	C	1.023564	-0.832781	-0.371408
C95	C	1.356897	-0.499448	-0.038075
C96	C	1.690231	-0.166115	0.295259
C97	C	1.005465	-0.882221	-0.309644
C98	C	1.338798	-0.548887	0.023690
C99	C	1.672132	-0.215554	0.357023
C100	C	1.073186	-0.784454	-0.326230
C101	C	1.406519	-0.451121	0.007103
C102	C	1.739853	-0.117787	0.340436
C103	C	1.091322	-0.882096	-0.388002
C104	C	1.424655	-0.548763	-0.054669
C105	C	1.757988	-0.215430	0.278665
C106	C	1.073255	-0.930439	-0.326244
C107	C	1.406589	-0.597106	0.007089
C108	C	1.739922	-0.263772	0.340422
C109	C	1.055051	-0.832806	-0.264433
C110	C	1.388385	-0.499473	0.068900
C111	C	1.721718	-0.166139	0.402233
C112	C	1.140940	-0.832678	-0.342833
C113	C	1.474273	-0.499344	-0.009500
C114	C	1.807606	-0.166011	0.323833
C115	C	1.122866	-0.882095	-0.281026
C116	C	1.456200	-0.548761	0.052307
C117	C	1.789533	-0.215428	0.385640
C118	C	1.073144	-0.700356	-0.326223
C119	C	1.406478	-0.367022	0.007110
C120	C	1.739811	-0.033689	0.340443
C121	C	1.073297	-1.014536	-0.326245
C122	C	1.406630	-0.681202	0.007089
C123	C	1.739964	-0.347869	0.340422
C124	C	1.266879	-0.357853	-0.326249
C125	C	1.600212	-0.024519	0.007084
C126	C	1.933545	0.308814	0.340417
C127	C	1.349425	-0.357864	-0.326264
C128	C	1.682758	-0.024531	0.007069
C129	C	2.016091	0.308803	0.340403
C130	C	1.073206	-0.357774	-0.502758
C131	C	1.406539	-0.024441	-0.169425
C132	C	1.739872	0.308892	0.163909
C133	C	1.073220	-0.357752	-0.577990
C134	C	1.406553	-0.024419	-0.244657
C135	C	1.739886	0.308914	0.088677
C136	C	1.073283	-0.164120	-0.326241
C137	C	1.406617	0.169213	0.007092
C138	C	1.739950	0.502547	0.340426
C139	C	1.073330	-0.081574	-0.326252
C140	C	1.406664	0.251759	0.007081
C141	C	1.739997	0.585092	0.340414
C142	C	1.025761	-0.310242	-0.613331
C143	C	1.359095	0.023091	-0.279998
C144	C	1.692428	0.356424	0.053335
C145	C	1.025771	-0.310228	-0.684020
C146	C	1.359105	0.023106	-0.350687
C147	C	1.692438	0.356439	-0.017353
C148	C	1.073244	-0.357720	-0.719366
C149	C	1.406578	-0.024387	-0.386032
C150	C	1.739911	0.308947	-0.052699
C151	C	1.120705	-0.405235	-0.684019
C152	C	1.454038	-0.071902	-0.350686
C153	C	1.787372	0.261431	-0.017352
C154	C	1.120690	-0.405253	-0.613332
C155	C	1.454024	-0.071920	-0.279998
C156	C	1.787357	0.261414	0.053335
C157	C	1.120764	-0.405166	-0.969092
C158	C	1.454097	-0.071833	-0.635759
C159	C	1.787431	0.261501	-0.302426
C160	C	1.120776	-0.405143	-1.039785
C161	C	1.454110	-0.071810	-0.706451
C162	C	1.787443	0.261524	-0.373118
C163	C	1.025845	-0.310141	-1.039781
C164	C	1.359178	0.023193	-0.706447
C165	C	1.692512	0.356526	-0.373114
C166	C	1.025830	-0.310158	-0.969093
C167	C	1.359164	0.023175	-0.635760
C168	C	1.692497	0.356508	-0.302427
C169	C	1.073288	-0.357676	-0.933753
C170	C	1.406621	-0.024343	-0.600420
C171	C	1.739954	0.308991	-0.267086
C172	C	1.073275	-0.357692	-0.857105
C173	C	1.406608	-0.024359	-0.523771
C174	C	1.739942	0.308975	-0.190438
C175	C	1.073261	-0.357701	-0.796013
C176	C	1.406595	-0.024367	-0.462679
C177	C	1.739928	0.308966	-0.129346
C178	C	1.073184	-0.357823	-0.150359
C179	C	1.406517	-0.024490	0.182974
C180	C	1.739850	0.308843	0.516308
C181	C	1.073314	-0.357636	-0.075127
C182	C	1.406647	-0.024303	0.258206
C183	C	1.739980	0.309030	0.591539
H184	H	0.619862	-0.391139	-0.212200
H185	H	0.953196	-0.057806	0.121134
H186	H	1.286529	0.275527	0.454467
N187	N	0.520391	-0.319383	-0.457276
N188	N	0.853725	0.013950	-0.123942
N189	N	1.187058	0.347283	0.209391
H190	H	0.489202	-0.361276	-0.475571
H191	H	0.822535	-0.027943	-0.142238
H192	H	1.155869	0.305390	0.191095
H193	H	0.489300	-0.273018	-0.454012
H194	H	0.822633	0.060315	-0.120679
H195	H	1.155966	0.393649	0.212655
N196	N	1.171975	-0.456371	-1.077914
N197	N	1.505309	-0.123038	-0.744581
N198	N	1.838642	0.210295	-0.411248
H199	H	1.225044	-0.444857	-1.065625
H200	H	1.558377	-0.111523	-0.732291
H201	H	1.891710	0.221810	-0.398958
H202	H	1.160339	-0.509415	-1.065592
H203	H	1.493672	-0.176082	-0.732259
H204	H	1.827006	0.157252	-0.398926
N205	N	1.171914	-0.456460	-0.722133
N206	N	1.505247	-0.123127	-0.388800
N207	N	1.838580	0.210206	-0.055466
H208	H	1.160345	-0.509523	-0.709820
H209	H	1.493678	-0.176190	-0.376487
H210	H	1.827012	0.157143	-0.043154
H211	H	1.164705	-0.449179	-0.772265
H212	H	1.498038	-0.115846	-0.438932
H213	H	1.831371	0.217488	-0.105598
N214	N	0.974646	-0.258899	-1.077900
N215	N	1.307980	0.074434	-0.744567
N216	N	1.641313	0.407767	-0.411233
H217	H	0.944573	-0.228815	-1.044781
H218	H	1.277907	0.104518	-0.711448
H219	H	1.611240	0.437852	-0.378115
H220	H	1.004900	-0.224529	-1.107242
H221	H	1.338233	0.108805	-0.773908
H222	H	1.671567	0.442138	-0.440575
N223	N	1.171880	-0.456499	-0.575216
N224	N	1.505213	-0.123166	-0.241883
N225	N	1.838546	0.210167	0.091450
H226	H	1.224951	-0.444970	-0.587528
H227	H	1.558284	-0.111636	-0.254195
H228	H	1.891617	0.221697	0.079138
H229	H	1.164605	-0.449286	-0.525085
H230	H	1.497939	-0.115953	-0.191752
H231	H	1.831272	0.217381	0.141582
H232	H	0.981539	-0.811128	-0.409559
H233	H	1.314872	-0.477794	-0.076226
H234	H	1.648205	-0.144461	0.257108
H235	H	0.527167	-0.266124	-0.242961
H236	H	0.860501	0.067209	0.090372
H237	H	1.193834	0.400542	0.423705
N238	N	0.627061	-0.214215	-0.361504
N239	N	0.960394	0.119118	-0.028171
N240	N	1.293728	0.452452	0.305163
H241	H	0.609102	-0.176726	-0.327383
H242	H	0.942435	0.156607	0.005951
H243	H	1.275769	0.489940	0.339284
H244	H	0.683006	-0.214959	-0.361796
H245	H	1.016340	0.118375	-0.028463
H246	H	1.349673	0.451708	0.304871
H247	H	1.039674	-0.811244	-0.212185
H248	H	1.373007	-0.477911	0.121148
H249	H	1.706340	-0.144578	0.454481
H250	H	0.619774	-0.449501	-0.409616
H251	H	0.953108	-0.116168	-0.076283
H252	H	1.286441	0.217165	0.257050
N253	N	0.974560	-0.259010	-0.575217
N254	N	1.307894	0.074324	-0.241884
N255	N	1.641227	0.407657	0.091449
H256	H	0.921494	-0.270533	-0.587509
H257	H	1.254827	0.062801	-0.254175
H258	H	1.588161	0.396134	0.079158
H259	H	0.981813	-0.266247	-0.525086
H260	H	1.315147	0.067087	-0.191752
H261	H	1.648480	0.400420	0.141581
N262	N	0.520015	-0.501398	-0.290928
N263	N	0.853348	-0.168065	0.042406
N264	N	1.186681	0.165268	0.375739
H265	H	0.537915	-0.514986	-0.244228
H266	H	0.871248	-0.181652	0.089105
H267	H	1.204581	0.151681	0.422438
H268	H	0.464070	-0.500904	-0.291555
H269	H	0.797403	-0.167570	0.041779
H270	H	1.130737	0.165763	0.375112
N271	N	1.216777	-0.803830	-0.361451
N272	N	1.550110	-0.470496	-0.028117
N273	N	1.883444	-0.137163	0.305216
H274	H	1.230407	-0.821726	-0.408140
H275	H	1.563740	-0.488392	-0.074806
H276	H	1.897073	-0.155059	0.258527
H277	H	1.216249	-0.747885	-0.360831
H278	H	1.549582	-0.414552	-0.027497
H279	H	1.882916	-0.081219	0.305836
H280	H	1.159399	-0.443866	-0.940327
H281	H	1.492732	-0.110533	-0.606993
H282	H	1.826065	0.222801	-0.273660
H283	H	0.948200	-0.903999	-0.295614
H284	H	1.281534	-0.570665	0.037720
H285	H	1.614867	-0.237332	0.371053
H286	H	1.164860	-0.903611	-0.242783
H287	H	1.498193	-0.570278	0.090550
H288	H	1.831526	-0.236944	0.423884
N289	N	1.111606	-0.910784	-0.457187
N290	N	1.444939	-0.577451	-0.123853
N291	N	1.778273	-0.244118	0.209480
H292	H	1.074060	-0.892846	-0.491267
H293	H	1.407393	-0.559513	-0.157934
H294	H	1.740726	-0.226180	0.175400
H295	H	1.162405	-0.891984	-0.470015
H296	H	1.495739	-0.558650	-0.136682
H297	H	1.829072	-0.225317	0.196652
N298	N	0.974582	-0.258988	-0.722139
N299	N	1.307915	0.074346	-0.388806
N300	N	1.641249	0.407679	-0.055473
H301	H	0.944509	-0.228901	-0.689022
H302	H	1.277842	0.104432	-0.355689
H303	H	1.611176	0.437765	-0.022355
H304	H	1.004837	-0.224618	-0.751481
H305	H	1.338171	0.108715	-0.418148
H306	H	1.671504	0.442048	-0.084814
H307	H	0.987176	-0.271482	-0.940319
H308	H	1.320509	0.061851	-0.606985
H309	H	1.653842	0.395184	-0.273652
