data_functionalizedCrystal
_audit_creation_method	'MofGen! by Chris Wilmer'
_symmetry_space_group_name_H-M	'P1'
_symmetry_Int_Tables_number	1
_symmetry_cell_setting	triclinic
loop_
_symmetry_equiv_pos_as_xyz
  x,y,z
_cell_length_a	10.686220
_cell_length_b	16.959454
_cell_length_c	16.959447
_cell_angle_alpha	89.973264
_cell_angle_beta	94.355573
_cell_angle_gamma	94.401635
loop_
_atom_site_label
_atom_site_type_symbol
_atom_site_fract_x
_atom_site_fract_y
_atom_site_fract_z
Zn1	Zn	1.929025	-0.221847	-0.354358
Zn2	Zn	1.928901	-0.354045	-0.222194
Zn3	Zn	1.718030	-0.232031	-0.232321
Zn4	Zn	1.717974	-0.364143	-0.364455
O5	O	1.823483	-0.293017	-0.293332
O6	O	2.105584	-0.230896	-0.328363
O7	O	1.900900	-0.337896	-0.112928
O8	O	1.746095	-0.120066	-0.248523
O9	O	2.105493	-0.328021	-0.231262
O10	O	1.901111	-0.112583	-0.338183
O11	O	1.745975	-0.248253	-0.120368
O12	O	1.541447	-0.258044	-0.258312
O13	O	1.745998	-0.345230	-0.473725
O14	O	1.541406	-0.355106	-0.355390
O15	O	1.901057	-0.240686	-0.466307
O16	O	1.900846	-0.465999	-0.241052
O17	O	1.745879	-0.473418	-0.345571
C18	C	1.495642	-0.308776	-0.309046
C19	C	1.355391	-0.315537	-0.315788
C20	C	1.823377	-0.498388	-0.293324
C21	C	1.823447	-0.586241	-0.293341
C22	C	1.742908	-0.961602	-0.347744
C23	C	1.904408	-0.953811	-0.238984
C24	C	1.904364	-0.871267	-0.238979
C25	C	1.823590	-0.833887	-0.293356
C26	C	1.742859	-0.879051	-0.347739
C27	C	1.985084	-0.826098	-0.184592
C28	C	1.985042	-0.743549	-0.184584
C29	C	1.904273	-0.706167	-0.238966
C30	C	1.823540	-0.751336	-0.293351
C31	C	1.742766	-0.713956	-0.347728
C32	C	1.662038	-0.759123	-0.402118
C33	C	1.662090	-0.841669	-0.402120
C34	C	1.904222	-0.623621	-0.238964
C35	C	1.742716	-0.631405	-0.347723
C36	C	2.152603	-0.277196	-0.277557
C37	C	2.292854	-0.270454	-0.270834
C38	C	1.823535	-0.292949	-0.499498
C39	C	1.823557	-0.292920	-0.587353
C40	C	1.823623	-0.086842	-0.293356
C41	C	1.823683	0.001018	-0.293366
C42	C	1.742976	-0.347260	-0.962686
C43	C	1.904440	-0.238398	-0.954958
C44	C	1.904406	-0.238416	-0.872413
C45	C	1.823658	-0.292858	-0.835002
C46	C	1.742943	-0.347282	-0.880135
C47	C	1.985129	-0.183999	-0.827274
C48	C	1.985099	-0.184016	-0.744724
C49	C	1.904344	-0.238455	-0.707312
C50	C	1.823624	-0.292880	-0.752450
C51	C	1.742876	-0.347322	-0.715038
C52	C	1.662150	-0.401744	-0.760175
C53	C	1.662187	-0.401721	-0.842722
C54	C	1.904306	-0.238478	-0.624765
C55	C	1.742843	-0.347343	-0.632486
C56	C	1.823503	-0.293024	-0.087965
C57	C	1.823725	-0.292818	-0.000098
H58	H	1.346610	-0.226685	-0.227190
H59	H	1.596265	-0.728679	-0.446389
O60	O	1.284194	-0.373522	-0.373606
H61	H	1.181512	-0.369912	-0.370011
H62	H	1.676944	-0.600975	-0.392007
H63	H	1.677185	-0.998380	-0.392028
H64	H	1.677247	-0.391567	-0.999441
O65	O	1.575042	-0.460450	-0.719817
H66	H	1.518910	-0.498289	-0.765066
H67	H	1.970164	-0.984251	-0.194708
O68	O	2.072157	-0.125319	-0.696042
H69	H	2.128307	-0.087457	-0.735926
H70	H	1.596364	-0.878451	-0.446400
H71	H	2.050837	-0.856539	-0.140316
H72	H	2.050776	-0.706779	-0.140299
H73	H	1.969943	-0.586850	-0.194677
H74	H	1.677075	-0.391671	-0.602033
H75	H	1.970189	-0.194078	-0.985423
O76	O	1.575122	-0.460415	-0.891402
H77	H	1.588722	-0.451257	-0.955086
O78	O	2.072173	-0.125255	-0.867623
H79	H	2.058603	-0.134368	-0.932607
H80	H	1.970035	-0.194170	-0.588018
