data_functionalizedCrystal
_audit_creation_method	'MofGen! by Chris Wilmer'
_symmetry_space_group_name_H-M	'P1'
_symmetry_Int_Tables_number	1
_symmetry_cell_setting	triclinic
loop_
_symmetry_equiv_pos_as_xyz
  x,y,z
_cell_length_a	17.038275
_cell_length_b	15.500227
_cell_length_c	11.026607
_cell_angle_alpha	93.454569
_cell_angle_beta	99.848145
_cell_angle_gamma	86.950079
loop_
_atom_site_label
_atom_site_type_symbol
_atom_site_fract_x
_atom_site_fract_y
_atom_site_fract_z
O1	O	-1.077931	0.071958	-0.262048
O2	O	-0.849703	0.071956	-0.257807
O3	O	-0.944901	0.071953	-0.081322
O4	O	-0.982732	0.071960	-0.438533
O5	O	-0.939118	-0.071935	-0.091987
O6	O	-0.843919	-0.071933	-0.268471
O7	O	-1.072148	-0.071931	-0.272713
Cu8	Cu	-0.957506	-0.085070	-0.271566
Cu9	Cu	-0.964345	0.085095	-0.258954
O10	O	-0.976949	-0.071929	-0.449197
C11	C	-0.817139	0.000011	-0.259278
C12	C	-0.728722	0.000011	-0.247757
N13	N	-0.952701	-0.204755	-0.280436
C14	C	-0.228337	0.000008	-0.176983
C15	C	-0.311414	0.000003	-0.187817
C16	C	-0.359281	0.000010	-0.304435
C17	C	-0.324066	0.000012	-0.410226
C18	C	-0.240991	0.000010	-0.399391
C19	C	-0.610432	0.000010	-0.342713
C20	C	-0.693513	0.000015	-0.353540
C21	C	-0.680855	0.000005	-0.131130
C22	C	-0.597779	0.000008	-0.120305
C23	C	-0.562571	0.000006	-0.226096
C24	C	-0.444199	0.000008	-0.315512
C25	C	-0.477654	0.000001	-0.215019
C26	C	-0.993062	-0.250032	-0.205685
C27	C	-0.989437	-0.340605	-0.212406
C28	C	-0.945455	-0.385899	-0.293885
C29	C	-0.905089	-0.340615	-0.368639
C30	C	-0.908710	-0.250044	-0.361911
C31	C	-0.932409	-0.659365	-0.318101
C32	C	-0.928794	-0.749943	-0.324825
C33	C	-1.013141	-0.749927	-0.168590
C34	C	-1.016761	-0.659354	-0.161874
C35	C	-0.976392	-0.614078	-0.236624
C36	C	-0.941751	-0.478479	-0.300759
C37	C	-0.980092	-0.521500	-0.229743
C38	C	-0.104712	0.000013	-0.271243
C39	C	-0.193128	0.000012	-0.282766
C40	C	-0.935031	0.000010	-0.040723
C41	C	-0.914226	0.000013	0.096139
N42	N	-0.969155	0.204780	-0.250074
C43	C	-0.986820	0.000017	-0.489796
C44	C	-1.007625	0.000019	-0.626658
C45	C	-0.971672	0.000015	0.164015
C46	C	-0.950171	0.000018	0.305469
H47	H	-0.189370	0.000008	-0.082019
H48	H	-0.340077	-0.000004	-0.101677
H49	H	-1.036771	0.000010	0.117403
C50	C	-0.864314	-0.200235	-0.444142
C51	C	-0.815968	-0.250053	-0.533813
C52	C	-0.771566	-0.200247	-0.616042
C53	C	-0.775511	-0.100622	-0.608599
C54	C	-0.823858	-0.050799	-0.518924
C55	C	-0.868260	-0.100605	-0.436695
H56	H	-0.813047	-0.323806	-0.539326
H57	H	-0.735776	-0.237130	-0.682426
H58	H	-0.742642	-0.063752	-0.669470
H59	H	-0.826780	0.022955	-0.513411
H60	H	-0.904050	-0.063722	-0.370311
C61	C	-1.095579	0.000019	0.310399
C62	C	-1.125262	-0.074700	0.218402
C63	C	-1.213214	-0.074701	0.155460
C64	C	-1.271485	0.000017	0.184515
C65	C	-1.241803	0.074741	0.276516
C66	C	-1.153851	0.074742	0.339458
H67	H	-1.082125	-0.130016	0.196890
H68	H	-1.235186	-0.130018	0.087355
H69	H	-1.336593	0.000016	0.137922
H70	H	-1.284940	0.130057	0.298028
H71	H	-1.131879	0.130059	0.407564
H72	H	-0.558811	0.000003	-0.025343
C73	C	-0.496860	0.000026	-0.443786
C74	C	-0.487669	-0.074680	-0.539597
C75	C	-0.540335	-0.074662	-0.667869
C76	C	-0.602191	0.000062	-0.700330
C77	C	-0.611384	0.074773	-0.604517
C78	C	-0.558718	0.074756	-0.476245
H79	H	-0.441877	-0.130000	-0.515570
H80	H	-0.533529	-0.129969	-0.738796
H81	H	-0.641177	0.000075	-0.795285
H82	H	-0.657176	0.130093	-0.628544
H83	H	-0.565524	0.130063	-0.405318
H84	H	-0.892977	-0.786816	-0.391180
H85	H	-0.709530	0.000006	-0.045001
H86	H	-0.732485	0.000008	-0.448510
H87	H	-0.581777	0.000013	-0.428857
H88	H	-0.899540	-0.622509	-0.378967
H89	H	-1.015899	-0.484619	-0.163397
H90	H	-1.028881	-0.213160	-0.139342
C91	C	-0.376720	0.000021	-0.538506
C92	C	-0.367523	-0.074692	-0.634305
C93	C	-0.420176	-0.074679	-0.762587
C94	C	-0.482027	0.000046	-0.795070
C95	C	-0.491227	0.074764	-0.699269
C96	C	-0.438573	0.074751	-0.570987
H97	H	-0.321735	-0.130013	-0.610262
H98	H	-0.413365	-0.129990	-0.833505
H99	H	-0.521004	0.000056	-0.890032
H100	H	-0.537015	0.130085	-0.723312
H101	H	-0.445384	0.130063	-0.500069
H102	H	-1.022302	-0.377470	-0.151537
C103	C	-1.065137	-0.609528	-0.072243
C104	C	-1.043578	-0.621987	0.067199
C105	C	-1.091956	-0.572158	0.156826
C106	C	-1.161893	-0.509870	0.107010
C107	C	-1.183456	-0.497408	-0.032439
C108	C	-1.135078	-0.547237	-0.122066
H109	H	-0.991803	-0.668099	0.104081
H110	H	-1.075994	-0.581384	0.260055
H111	H	-1.197706	-0.472984	0.173358
H112	H	-1.235231	-0.451297	-0.069321
H113	H	-1.151040	-0.538012	-0.225295
H114	H	-0.212325	0.000010	-0.485531
C115	C	-1.057538	-0.799731	-0.086359
C116	C	-1.053559	-0.899355	-0.093746
C117	C	-1.097956	-0.949158	-0.011506
C118	C	-1.146332	-0.899336	0.078120
C119	C	-1.150314	-0.799706	0.085510
C120	C	-1.105917	-0.749903	0.003271
H121	H	-1.017746	-0.936242	-0.160096
H122	H	-1.095008	-1.022911	-0.016978
H123	H	-1.179197	-0.936203	0.138999
H124	H	-1.186126	-0.762819	0.151860
H125	H	-1.108864	-0.676150	0.008742
H126	H	-0.438678	0.000006	-0.120068
H127	H	-0.869274	-0.377498	-0.434977
H128	H	-0.905942	-0.515364	-0.367103
H129	H	-0.849126	0.000018	0.142750
H130	H	-0.885067	0.000023	0.352075
