data_functionalizedCrystal
_audit_creation_method	'MofGen! by Chris Wilmer'
_symmetry_space_group_name_H-M	'P1'
_symmetry_Int_Tables_number	1
_symmetry_cell_setting	triclinic
loop_
_symmetry_equiv_pos_as_xyz
  x,y,z
_cell_length_a	10.540539
_cell_length_b	10.540539
_cell_length_c	9.616153
_cell_angle_alpha	90.000094
_cell_angle_beta	89.995174
_cell_angle_gamma	95.474508
loop_
_atom_site_label
_atom_site_type_symbol
_atom_site_fract_x
_atom_site_fract_y
_atom_site_fract_z
O1	O	1.685892	-0.178895	-0.115573
O2	O	1.316479	-0.195751	-0.115589
O3	O	1.509614	-0.002617	-0.115579
O4	O	1.492758	-0.372030	-0.115583
O5	O	1.509587	-0.002621	0.115712
O6	O	1.316452	-0.195755	0.115702
O7	O	1.685865	-0.178899	0.115718
Zn8	Zn	1.501155	-0.187328	0.152433
Zn9	Zn	1.501190	-0.187323	-0.152304
O10	O	1.492731	-0.372034	0.115708
C11	C	1.269163	-0.194489	0.000054
C12	C	1.128215	-0.190707	0.000048
C13	C	0.944788	-0.045790	0.000589
C14	C	1.091406	-0.049624	0.000054
C15	C	1.066557	-0.258600	-0.132027
C16	C	0.920013	-0.253785	-0.132123
C17	C	0.919494	-0.256660	0.130899
C18	C	1.066476	-0.257959	0.132630
C19	C	1.508336	0.044684	0.000064
C20	C	1.504554	0.185632	0.000056
C21	C	1.733182	-0.180161	0.000072
C22	C	1.874130	-0.183943	0.000069
C23	C	1.494008	-0.419335	0.000062
C24	C	1.497790	-0.560283	0.000060
N25	N	1.501140	-0.187331	0.360407
C26	C	1.359637	0.369059	-0.000469
C27	C	1.363471	0.222441	0.000052
C28	C	1.572435	0.247288	0.132138
C29	C	1.567620	0.393832	0.132249
C30	C	1.570519	0.394355	-0.130772
C31	C	1.571819	0.247373	-0.132518
N32	N	1.501215	-0.187310	-0.360278
C33	C	1.397510	-0.290298	0.580772
C34	C	1.397739	-0.290684	0.419604
C35	C	1.633864	-0.217464	0.418862
C36	C	1.633299	-0.218193	0.580080
C37	C	1.473368	-0.053892	0.580319
C38	C	1.470321	-0.054757	0.419092
H39	H	0.872267	-0.358563	0.131790
O40	O	1.554312	0.041231	0.371112
C41	C	1.523137	0.158223	0.426333
H42	H	1.418318	0.149483	0.457509
H43	H	1.541166	0.236129	0.344518
H44	H	1.584715	0.183659	0.521621
O45	O	1.419252	-0.408670	0.373394
C46	C	1.531196	-0.400063	0.292309
H47	H	1.550811	-0.299047	0.250052
H48	H	1.518430	-0.470149	0.201967
H49	H	1.614867	-0.424033	0.359336
O50	O	1.695993	0.220455	0.137838
C51	C	1.722989	0.145396	0.022126
H52	H	1.630616	0.093925	-0.019201
H53	H	1.790332	0.072358	0.054805
H54	H	1.769848	0.209207	-0.062791
O55	O	1.515874	0.432041	-0.250075
C56	C	1.411032	0.500114	-0.217090
H57	H	1.374753	0.472019	-0.108653
H58	H	1.331731	0.476619	-0.296219
H59	H	1.441830	0.606746	-0.219726
H60	H	1.525259	0.204686	0.230425
H61	H	1.657654	-0.315531	0.617668
H62	H	1.133162	0.004177	-0.094786
H63	H	1.522152	0.206516	-0.230229
H64	H	1.088911	-0.362208	-0.136942
H65	H	1.674680	0.223152	-0.140490
H66	H	1.672423	0.441581	-0.131656
H67	H	1.712918	-0.144501	0.380514
H68	H	1.310058	0.179839	-0.094630
O69	O	1.292991	0.402994	-0.113421
C70	C	1.169695	0.338095	-0.110781
H71	H	1.170575	0.248119	-0.045149
H72	H	1.138700	0.311091	-0.221303
H73	H	1.100113	0.402596	-0.063759
O74	O	1.280163	-0.269079	0.372212
C75	C	1.280300	-0.269489	0.225591
H76	H	1.381920	-0.246782	0.186138
H77	H	1.218128	-0.194525	0.185726
H78	H	1.240961	-0.367490	0.186347
H79	H	1.712941	-0.146204	0.619073
H80	H	1.298585	-0.272445	0.619578
H81	H	1.658761	-0.313702	0.378472
H82	H	1.415178	-0.388722	0.621270
O83	O	1.360268	-0.019913	0.628943
C84	C	1.304568	-0.116251	0.717544
H85	H	1.344054	-0.210420	0.691589
H86	H	1.196807	-0.126436	0.702419
H87	H	1.327800	-0.089801	0.830268
O88	O	1.353931	-0.027286	0.373454
C89	C	1.367302	0.086703	0.295859
H90	H	1.459113	0.145575	0.327490
H91	H	1.282573	0.143506	0.317050
H92	H	1.371032	0.063206	0.180294
H93	H	1.134009	0.003797	0.094731
O94	O	0.910837	0.020874	0.113530
C95	C	0.975726	0.144174	0.110874
H96	H	1.065716	0.143287	0.045255
H97	H	1.002709	0.175198	0.221394
H98	H	0.911228	0.213740	0.063829
O99	O	1.563633	0.037414	0.625972
C100	C	1.651599	-0.018916	0.711124
H101	H	1.604984	-0.112411	0.755167
H102	H	1.682382	0.048495	0.800182
H103	H	1.738561	-0.038379	0.646883
H104	H	0.914592	0.009712	-0.093600
H105	H	0.891814	-0.203603	-0.230849
H106	H	0.872044	-0.355250	-0.138119
H107	H	1.109157	-0.211434	-0.230318
H108	H	0.887936	-0.211004	0.231010
H109	H	1.107427	-0.208361	0.230338
H110	H	1.090701	-0.360819	0.140603
O111	O	1.688724	0.450928	0.139242
C112	C	1.758635	0.414603	0.023228
H113	H	1.712659	0.320390	-0.019692
H114	H	1.860766	0.402870	0.056109
H115	H	1.759015	0.491172	-0.060543
O116	O	1.299112	0.172534	0.113043
C117	C	1.196879	0.085793	0.069083
H118	H	1.169666	0.109220	-0.042083
H119	H	1.111582	0.093309	0.140491
H120	H	1.226719	-0.015288	0.073296
O121	O	1.293278	0.405214	0.111738
C122	C	1.184370	0.461370	0.066406
H123	H	1.200348	0.498570	-0.044143
H124	H	1.166406	0.543771	0.138305
H125	H	1.098291	0.387183	0.068399
O126	O	1.507527	0.427390	0.249925
C127	C	1.382779	0.365834	0.252748
H128	H	1.351154	0.339237	0.142320
H129	H	1.315228	0.432626	0.299416
H130	H	1.381078	0.275866	0.318792
