data_functionalizedCrystal
_audit_creation_method	'MofGen! by Chris Wilmer'
_symmetry_space_group_name_H-M	'P1'
_symmetry_Int_Tables_number	1
_symmetry_cell_setting	triclinic
loop_
_symmetry_equiv_pos_as_xyz
  x,y,z
_cell_length_a	16.120530
_cell_length_b	16.120507
_cell_length_c	19.805399
_cell_angle_alpha	87.131122
_cell_angle_beta	87.084478
_cell_angle_gamma	89.824460
loop_
_atom_site_label
_atom_site_type_symbol
_atom_site_fract_x
_atom_site_fract_y
_atom_site_fract_z
Zn1	Zn	1.254404	0.395625	-0.450545
Zn2	Zn	1.754404	0.895625	0.049455
Zn3	Zn	1.247230	0.534679	-0.342780
Zn4	Zn	1.747230	1.034679	0.157220
Zn5	Zn	1.115347	0.388587	-0.331365
Zn6	Zn	1.615347	0.888587	0.168635
Zn7	Zn	1.108237	0.527577	-0.449921
Zn8	Zn	1.608237	1.027577	0.050079
O9	O	1.181304	0.461617	-0.393653
O10	O	1.681304	0.961617	0.106347
O11	O	1.369816	0.419988	-0.441288
O12	O	1.869816	0.919988	0.058712
O13	O	1.229709	0.515327	-0.246549
O14	O	1.729709	1.015327	0.253451
O15	O	1.139772	0.273157	-0.342659
O16	O	1.639772	0.773157	0.157341
O17	O	1.364546	0.522151	-0.362113
O18	O	1.864546	1.022151	0.137887
O19	O	1.241936	0.278328	-0.430220
O20	O	1.741936	0.778328	0.069780
O21	O	1.132815	0.407993	-0.238163
O22	O	1.632815	0.907993	0.261837
O23	O	0.998040	0.401106	-0.342054
O24	O	1.498040	0.901106	0.157946
O25	O	1.127652	0.510047	-0.544721
O26	O	1.627652	1.010047	-0.044721
O27	O	0.992815	0.503222	-0.429156
O28	O	1.492815	1.003222	0.070844
O29	O	1.235041	0.413102	-0.545179
O30	O	1.735041	0.913102	-0.045179
O31	O	1.222814	0.650100	-0.361508
O32	O	1.722814	1.150100	0.138492
O33	O	1.120696	0.644882	-0.440225
O34	O	1.620696	1.144882	0.059775
C35	C	0.965255	0.450631	-0.384299
C36	C	1.465255	0.950631	0.115701
C37	C	0.872828	0.445951	-0.380314
C38	C	1.372828	0.945951	0.119686
C39	C	1.170227	0.677664	-0.402053
C40	C	1.670227	1.177664	0.097947
C41	C	1.165564	0.770094	-0.405672
C42	C	1.665564	1.270094	0.094328
C43	C	1.205568	0.983065	-0.374984
C44	C	1.705568	1.483065	0.125016
C45	C	1.157067	0.939320	-0.412288
C46	C	1.657067	1.439320	0.087712
C47	C	1.161796	0.845154	-0.408606
C48	C	1.661796	1.345154	0.091394
C49	C	1.200840	1.077239	-0.378666
C50	C	1.700840	1.577239	0.121334
C51	C	0.703602	0.437387	-0.373044
C52	C	1.203602	0.937387	0.126956
C53	C	0.659844	0.485909	-0.414313
C54	C	1.159844	0.985909	0.085687
C55	C	0.565681	0.481144	-0.410268
C56	C	1.065681	0.981144	0.089732
C57	C	0.797774	0.442151	-0.377088
C58	C	1.297774	0.942151	0.122912
C59	C	1.398197	0.472647	-0.403044
C60	C	1.898197	0.972647	0.096956
C61	C	1.490623	0.477347	-0.407045
C62	C	1.990623	0.977347	0.092955
C63	C	1.181354	0.461567	-0.570196
C64	C	1.681354	0.961567	-0.070196
C65	C	1.181375	0.461546	-0.645428
C66	C	1.681375	0.961546	-0.145428
C67	C	1.192415	1.244726	-0.385224
C68	C	1.692415	1.744726	0.114776
C69	C	1.197068	1.152296	-0.381602
C70	C	1.697068	1.652296	0.118398
C71	C	1.237293	0.411064	-0.681012
C72	C	1.737293	0.911064	-0.181012
C73	C	1.237303	0.411040	-0.751700
C74	C	1.737303	0.911040	-0.251700
C75	C	1.181397	0.461503	-0.786803
C76	C	1.681397	0.961503	-0.286803
C77	C	1.125473	0.511987	-0.751213
C78	C	1.625473	1.011987	-0.251213
C79	C	1.125460	0.512006	-0.680526
C80	C	1.625460	1.012006	-0.180526
C81	C	1.125524	0.511912	-1.036286
C82	C	1.625524	1.011912	-0.536286
C83	C	1.125543	0.511891	-1.106978
C84	C	1.625543	1.011891	-0.606978
C85	C	1.237367	0.410946	-1.107459
C86	C	1.737367	0.910946	-0.607459
C87	C	1.237354	0.410965	-1.036772
C88	C	1.737354	0.910965	-0.536772
C89	C	1.181427	0.461445	-1.001189
C90	C	1.681427	0.961445	-0.501189
C91	C	1.181416	0.461469	-0.924541
C92	C	1.681416	0.961469	-0.424541
C93	C	1.181412	0.461484	-0.863449
C94	C	1.681412	0.961484	-0.363449
C95	C	1.181306	0.461609	-0.217797
C96	C	1.681306	0.961609	0.282203
C97	C	1.181458	0.461405	-0.142563
C98	C	1.681458	0.961405	0.357437
H99	H	1.111991	0.972589	-0.446991
H100	H	1.611991	1.472589	0.053009
H101	H	1.250641	0.949799	-0.340284
H102	H	1.750641	1.449799	0.159716
C103	C	1.297914	0.356248	-0.790452
C104	C	1.797914	0.856248	-0.290452
C105	C	1.285940	0.367004	-0.859868
C106	C	1.785940	0.867004	-0.359868
C107	C	1.341749	0.316526	-0.895586
C108	C	1.841749	0.816526	-0.395586
H109	H	1.353198	0.371203	-0.781849
H110	H	1.853198	0.871203	-0.281849
H111	H	1.288597	0.299746	-0.776203
H112	H	1.788597	0.799746	-0.276203
H113	H	1.295264	0.423493	-0.874112
H114	H	1.795264	0.923493	-0.374112
H115	H	1.230667	0.352043	-0.868491
H116	H	1.730667	0.852043	-0.368491
H117	H	1.332432	0.260025	-0.881337
H118	H	1.832432	0.760025	-0.381337
H119	H	1.397030	0.331486	-0.886978
H120	H	1.897030	0.831486	-0.386978
H121	H	1.333628	0.323811	-0.942688
H122	H	1.833628	0.823811	-0.442688
C123	C	1.064934	0.566656	-1.145216
C124	C	1.564934	1.066656	-0.645216
C125	C	1.076937	0.555852	-1.214738
C126	C	1.576937	1.055852	-0.714738
C127	C	1.021133	0.606295	-1.249985
C128	C	1.521133	1.106295	-0.749985
H129	H	1.009648	0.551698	-1.130825
H130	H	1.509648	1.051698	-0.630825
H131	H	1.074235	0.623167	-1.136365
H132	H	1.574235	1.123167	-0.636365
H133	H	1.067629	0.499353	-1.223584
H134	H	1.567629	0.999353	-0.723584
H135	H	1.132212	0.570816	-1.229149
H136	H	1.632212	1.070816	-0.729149
H137	H	1.030434	0.662806	-1.241134
H138	H	1.530434	1.162806	-0.741134
H139	H	0.965850	0.591332	-1.235588
H140	H	1.465850	1.091332	-0.735588
H141	H	1.029275	0.598977	-1.297159
H142	H	1.529275	1.098977	-0.797159
C143	C	0.659214	0.377368	-0.321801
C144	C	1.159214	0.877368	0.178199
C145	C	0.606928	0.421918	-0.278079
C146	C	1.106928	0.921918	0.221921
C147	C	0.566022	0.366661	-0.230859
C148	C	1.066022	0.866661	0.269141
H149	H	0.627130	0.339479	-0.344824
H150	H	1.127130	0.839479	0.155176
H151	H	0.699021	0.347562	-0.296395
H152	H	1.199021	0.847562	0.203605
H153	H	0.567126	0.451710	-0.303481
H154	H	1.067126	0.951710	0.196519
H155	H	0.638991	0.459804	-0.255040
H156	H	1.138991	0.959804	0.244960
H157	H	0.605829	0.336855	-0.205453
H158	H	1.105829	0.836855	0.294547
H159	H	0.533943	0.328775	-0.253888
H160	H	1.033943	0.828775	0.246112
H161	H	0.530548	0.396881	-0.201184
H162	H	1.030548	0.896881	0.298816
C163	C	0.704331	0.546051	-0.465406
C164	C	1.204331	1.046051	0.034594
C165	C	0.790236	0.538903	-0.459295
C166	C	1.290236	1.038903	0.040705
C167	C	0.831247	0.594300	-0.506340
C168	C	1.331247	1.094300	-0.006340
H169	H	0.690893	0.533315	-0.509868
H170	H	1.190893	1.033315	-0.009868
H171	H	0.687325	0.601222	-0.456992
H172	H	1.187325	1.101222	0.043008
H173	H	0.807236	0.483745	-0.467713
H174	H	1.307236	0.983745	0.032287
H175	H	0.803698	0.551647	-0.414843
H176	H	1.303698	1.051647	0.085157
H177	H	0.814240	0.649470	-0.497927
H178	H	1.314240	1.149470	0.002073
H179	H	0.817802	0.581558	-0.550799
H180	H	1.317802	1.081558	-0.050799
H181	H	0.889537	0.589462	-0.502196
H182	H	1.389537	1.089462	-0.002196
H183	H	1.282820	0.369973	-0.652436
H184	H	1.782820	0.869973	-0.152436
H185	H	1.282902	0.369840	-1.136439
H186	H	1.782902	0.869840	-0.636439
C187	C	1.298087	0.356085	-0.998781
C188	C	1.798087	0.856085	-0.498781
C189	C	1.347046	0.311852	-1.045073
C190	C	1.847046	0.811852	-0.545073
C191	C	1.402993	0.261277	-1.010100
C192	C	1.902993	0.761277	-0.510100
H193	H	1.332757	0.389654	-0.974007
H194	H	1.832757	0.889654	-0.474007
H195	H	1.268151	0.318201	-0.968435
H196	H	1.768151	0.818201	-0.468435
H197	H	1.376979	0.349731	-1.075406
H198	H	1.876979	0.849731	-0.575406
H199	H	1.312398	0.278267	-1.069849
H200	H	1.812398	0.778267	-0.569849
H201	H	1.373057	0.223393	-0.979755
H202	H	1.873057	0.723393	-0.479755
H203	H	1.437658	0.294851	-0.985327
H204	H	1.937658	0.794851	-0.485327
H205	H	1.436213	0.231252	-1.041503
H206	H	1.936213	0.731252	-0.541503
H207	H	1.079996	0.553029	-1.007324
H208	H	1.579996	1.053029	-0.507324
H209	H	1.079951	0.553072	-0.779800
H210	H	1.579951	1.053072	-0.279800
C211	C	1.064723	0.566918	-0.642015
C212	C	1.564723	1.066918	-0.142015
C213	C	1.015786	0.611130	-0.687886
C214	C	1.515786	1.111130	-0.187886
C215	C	0.959834	0.661735	-0.652436
C216	C	1.459834	1.161735	-0.152436
H217	H	1.030039	0.533372	-0.611629
H218	H	1.530039	1.033372	-0.111629
H219	H	1.094655	0.604815	-0.617244
H220	H	1.594655	1.104815	-0.117244
H221	H	0.985856	0.573238	-0.712645
H222	H	1.485856	1.073238	-0.212645
H223	H	1.050447	0.644693	-0.718273
H224	H	1.550447	1.144693	-0.218273
H225	H	0.989766	0.699632	-0.627665
H226	H	1.489766	1.199632	-0.127665
H227	H	0.925155	0.628182	-0.622051
H228	H	1.425155	1.128182	-0.122051
H229	H	0.926628	0.691744	-0.683554
H230	H	1.426628	1.191744	-0.183554
