data_functionalizedCrystal
_audit_creation_method	'MofGen! by Chris Wilmer'
_symmetry_space_group_name_H-M	'P1'
_symmetry_Int_Tables_number	1
_symmetry_cell_setting	triclinic
loop_
_symmetry_equiv_pos_as_xyz
  x,y,z
_cell_length_a	12.837943
_cell_length_b	11.892095
_cell_length_c	12.837942
_cell_angle_alpha	94.302569
_cell_angle_beta	85.171060
_cell_angle_gamma	94.310562
loop_
_atom_site_label
_atom_site_type_symbol
_atom_site_fract_x
_atom_site_fract_y
_atom_site_fract_z
O1	O	1.408367	0.093982	-0.266110
O2	O	1.105234	0.093989	-0.252667
O3	O	1.250078	0.093979	-0.107822
O4	O	1.263522	0.093992	-0.410955
O5	O	1.237999	-0.094028	-0.119879
O6	O	1.093155	-0.094018	-0.264723
O7	O	1.396288	-0.094025	-0.278167
Zn8	Zn	1.242803	-0.123871	-0.273359
Zn9	Zn	1.258718	0.123836	-0.257474
O10	O	1.251443	-0.094014	-0.423011
C11	C	1.060125	-0.000014	-0.254153
C12	C	0.943710	-0.000011	-0.240609
C13	C	0.718835	-0.000020	-0.403439
C14	C	0.609453	-0.000019	-0.390717
C15	C	0.615561	-0.000015	-0.202446
C16	C	0.724943	-0.000017	-0.215167
C17	C	0.776577	-0.000017	-0.315667
C18	C	0.885961	-0.000011	-0.328387
C19	C	0.892066	-0.000015	-0.140117
C20	C	0.782684	-0.000014	-0.127395
N21	N	1.231950	-0.292925	-0.284200
C22	C	1.345098	-0.529580	-0.171130
C23	C	1.337519	-0.647922	-0.178716
C24	C	1.209210	-0.647951	-0.306952
C25	C	1.216788	-0.529610	-0.299366
C26	C	1.284736	-0.470428	-0.231454
C27	C	1.292319	-0.352085	-0.223874
C28	C	1.164005	-0.352116	-0.352104
C29	C	1.156426	-0.470458	-0.359690
C30	C	1.441397	-0.000020	-0.276680
C31	C	1.557812	-0.000015	-0.290224
C32	C	1.239497	-0.000024	-0.074781
C33	C	1.225953	-0.000022	0.041634
N34	N	1.269579	0.292889	-0.246626
C35	C	1.262024	-0.000009	-0.456052
C36	C	1.275569	-0.000004	-0.572467
C37	C	1.388784	-0.000002	0.266509
C38	C	1.376062	0.000000	0.375892
C39	C	1.187791	-0.000007	0.369784
C40	C	1.200512	-0.000009	0.260402
C41	C	1.301011	-0.000008	0.208768
C42	C	1.313731	-0.000019	0.099383
C43	C	1.125461	-0.000018	0.093278
C44	C	1.112740	-0.000016	0.202660
H45	H	0.928000	-0.000013	-0.410219
C46	C	1.484315	0.096649	0.077100
C47	C	1.424196	-0.000008	0.042621
H48	H	1.552511	0.096661	0.042053
H49	H	1.489299	0.096642	0.150498
H50	H	1.451913	0.162198	0.062114
H51	H	1.456595	-0.065556	0.057614
H52	H	1.419217	-0.000011	-0.030795
C53	C	0.502284	0.096620	-0.072731
C54	C	0.558789	-0.000022	-0.091986
H55	H	0.467240	0.096615	-0.004535
H56	H	0.452251	0.096609	-0.123186
H57	H	0.549046	0.162178	-0.077398
H58	H	0.512026	-0.065581	-0.087326
H59	H	0.608827	-0.000022	-0.041517
H60	H	0.740628	-0.000026	-0.045572
H61	H	1.400430	-0.481394	-0.115841
C62	C	0.476697	-0.096664	-0.491830
C63	C	0.545984	-0.000017	-0.487199
H64	H	0.437520	-0.096664	-0.551401
H65	H	0.430293	-0.096653	-0.430167
H66	H	0.515295	-0.162219	-0.497080
H67	H	0.507386	0.065539	-0.481940
H68	H	0.592394	-0.000017	-0.548877
H69	H	1.470613	-0.000012	0.224468
H70	H	1.153882	-0.696151	-0.362237
C71	C	1.087841	-0.651881	-0.428264
C72	C	1.081747	-0.535516	-0.434341
H73	H	1.041743	-0.692040	-0.474359
H74	H	1.068321	-0.671272	-0.358521
H75	H	1.157595	-0.671247	-0.447808
H76	H	1.011995	-0.516148	-0.414789
H77	H	1.101262	-0.516117	-0.504099
C78	C	1.163891	-0.219046	-0.483797
C79	C	1.097653	-0.287096	-0.418425
H80	H	1.122931	-0.178903	-0.524739
H81	H	1.208222	-0.265210	-0.528727
H82	H	1.205431	-0.166862	-0.442257
H83	H	1.056118	-0.339286	-0.459966
H84	H	1.053304	-0.240929	-0.373490
C85	C	1.062452	-0.000008	-0.076013
C86	C	0.955538	-0.000011	-0.043629
H87	H	1.101634	-0.000008	-0.016446
H88	H	1.083324	0.065548	-0.112570
H89	H	1.074905	-0.065577	-0.120973
H90	H	0.943084	0.065563	0.001326
H91	H	0.934659	-0.065573	-0.007055
H92	H	1.447536	0.000009	0.422901
H93	H	1.030916	-0.000012	0.244716
C94	C	0.701817	-0.000013	-0.588259
C95	C	0.775599	-0.000016	-0.513903
H96	H	0.736861	-0.000017	-0.656456
H97	H	0.663496	0.065545	-0.575179
H98	H	0.655066	-0.065579	-0.583580
H99	H	0.822345	0.065555	-0.518576
H100	H	0.813938	-0.065581	-0.526988
H101	H	1.347647	-0.303901	-0.168579
C102	C	1.378758	-0.684341	-0.005931
C103	C	1.403872	-0.712943	-0.112407
H104	H	1.419727	-0.724479	0.035006
H105	H	1.306535	-0.703757	0.011121
H106	H	1.392998	-0.605389	0.008292
H107	H	1.389624	-0.791894	-0.126631
H108	H	1.476112	-0.693535	-0.129465
C109	C	1.084706	-0.000003	0.534754
C110	C	1.077329	-0.000009	0.426553
H111	H	1.016509	-0.000012	0.569798
H112	H	1.125502	0.065559	0.558123
H113	H	1.117095	-0.065566	0.549723
H114	H	1.044946	0.065558	0.411583
H115	H	1.036517	-0.065578	0.403176
C116	C	0.938079	-0.000037	0.098231
C117	C	1.028971	-0.000031	0.029807
H118	H	0.878513	-0.000056	0.059044
H119	H	0.941238	0.065527	0.145214
H120	H	0.932836	-0.065598	0.136829
H121	H	1.034218	0.065535	-0.008785
H122	H	1.025812	-0.065601	-0.017194
