data_functionalizedCrystal
_audit_creation_method	'MofGen! by Chris Wilmer'
_symmetry_space_group_name_H-M	'P1'
_symmetry_Int_Tables_number	1
_symmetry_cell_setting	triclinic
loop_
_symmetry_equiv_pos_as_xyz
  x,y,z
_cell_length_a	21.295420
_cell_length_b	21.295417
_cell_length_c	21.295411
_cell_angle_alpha	89.978356
_cell_angle_beta	90.024592
_cell_angle_gamma	89.973711
loop_
_atom_site_label
_atom_site_type_symbol
_atom_site_fract_x
_atom_site_fract_y
_atom_site_fract_z
Zn1	Zn	0.962355	0.250752	0.355912
Zn2	Zn	1.462355	0.750752	0.855912
Zn3	Zn	0.962258	0.356004	0.250637
Zn4	Zn	1.462258	0.856004	0.750637
Zn5	Zn	0.857079	0.250744	0.250657
Zn6	Zn	1.357079	0.750744	0.750657
Zn7	Zn	0.857048	0.355979	0.355869
Zn8	Zn	1.357048	0.855979	0.855869
O9	O	0.909685	0.303370	0.303269
O10	O	1.409685	0.803370	0.803269
O11	O	1.050432	0.264727	0.341957
O12	O	1.550432	0.764727	0.841957
O13	O	0.948277	0.342048	0.162550
O14	O	1.448277	0.842048	0.662550
O15	O	0.871097	0.162656	0.264645
O16	O	1.371097	0.662656	0.764645
O17	O	1.050360	0.342055	0.264612
O18	O	1.550360	0.842055	0.764612
O19	O	0.948444	0.162661	0.341976
O20	O	1.448444	0.662661	0.841976
O21	O	0.871003	0.264714	0.162565
O22	O	1.371003	0.764714	0.662565
O23	O	0.768985	0.264691	0.264604
O24	O	1.268985	0.764691	0.764604
O25	O	0.871045	0.342014	0.443964
O26	O	1.371045	0.842014	0.943964
O27	O	0.768963	0.342006	0.341903
O28	O	1.268963	0.842006	0.841903
O29	O	0.948414	0.264703	0.443996
O30	O	1.448414	0.764703	0.943996
O31	O	0.948248	0.444090	0.264570
O32	O	1.448248	0.944090	0.764570
O33	O	0.870951	0.444072	0.341884
O34	O	1.370951	0.944072	0.841884
C35	C	0.746133	0.303346	0.303251
C36	C	1.246133	0.803346	0.803251
C37	C	0.676165	0.303351	0.303258
C38	C	1.176165	0.803351	0.803258
C39	C	0.176744	0.263200	0.343617
C40	C	0.676744	0.763200	0.843617
C41	C	0.242486	0.263195	0.343617
C42	C	0.742486	0.763195	0.843617
C43	C	0.275326	0.303389	0.303283
C44	C	0.775326	0.803389	0.803283
C45	C	0.242417	0.343602	0.262958
C46	C	0.742417	0.843602	0.762958
C47	C	0.176676	0.343610	0.262964
C48	C	0.676676	0.843610	0.762964
N49	N	0.378516	0.308125	0.248164
N50	N	0.878516	0.808125	0.748164
N51	N	0.440967	0.308113	0.248160
N52	N	0.940967	0.808113	0.748160
C53	C	0.473400	0.303368	0.303265
C54	C	0.973400	0.803368	0.803265
N55	N	0.441023	0.298623	0.358375
N56	N	0.941023	0.798623	0.858375
N57	N	0.378566	0.298631	0.358377
N58	N	0.878566	0.798631	0.858377
C59	C	0.346611	0.303385	0.303273
C60	C	0.846611	0.803385	0.803273
C61	C	0.577587	0.263156	0.343591
C62	C	1.077587	0.763156	0.843591
C63	C	0.643330	0.263156	0.343592
C64	C	1.143330	0.763156	0.843592
C65	C	0.643260	0.343559	0.262927
C66	C	1.143260	0.843559	0.762927
C67	C	0.577517	0.343562	0.262932
C68	C	1.077517	0.843562	0.762932
C69	C	0.544685	0.303358	0.303263
C70	C	1.044685	0.803358	0.803263
C71	C	0.909602	0.466921	0.303234
C72	C	1.409602	0.966921	0.803234
C73	C	0.909625	0.536890	0.303240
C74	C	1.409625	1.036890	0.803240
C75	C	0.909737	0.303357	0.467459
C76	C	1.409737	0.803357	0.967459
C77	C	0.909759	0.303351	0.537427
C78	C	1.409759	0.803351	1.037427
C79	C	1.073875	0.303394	0.303287
C80	C	1.573875	0.803394	0.803287
C81	C	1.143843	0.303405	0.303295
C82	C	1.643843	0.803405	0.803295
C83	C	0.909785	0.139180	0.303318
C84	C	1.409785	0.639180	0.803318
C85	C	0.909827	0.069211	0.303338
C86	C	1.409827	0.569211	0.803338
C87	C	0.949909	0.569745	0.263024
C88	C	1.449909	1.069745	0.763024
C89	C	0.949939	0.635487	0.263038
C90	C	1.449939	1.135487	0.763038
C91	C	0.909672	0.668372	0.303262
C92	C	1.409672	1.168372	0.803262
C93	C	0.869385	0.635509	0.343485
C94	C	1.369385	1.135509	0.843485
C95	C	0.869361	0.569768	0.343474
C96	C	1.369361	1.069768	0.843474
N97	N	0.854605	0.771635	0.308055
N98	N	1.354605	1.271635	0.808055
N99	N	0.854630	0.834086	0.308061
N100	N	1.354630	1.334086	0.808061
C101	C	0.909743	0.866447	0.303298
C102	C	1.409743	1.366447	0.803298
N103	N	0.964832	0.833997	0.298515
N104	N	1.464832	1.333997	0.798515
N105	N	0.964807	0.771540	0.298505
N106	N	1.464807	1.271540	0.798505
C107	C	0.909694	0.739657	0.303278
C108	C	1.409694	1.239657	0.803278
C109	C	0.950063	0.970587	0.263095
C110	C	1.450063	1.470587	0.763095
C111	C	0.950093	1.036331	0.263114
C112	C	1.450093	1.536331	0.763114
C113	C	0.869534	1.036352	0.343557
C114	C	1.369534	1.536352	0.843557
C115	C	0.869509	0.970609	0.343542
C116	C	1.369509	1.470609	0.843542
C117	C	0.909773	0.937731	0.303308
C118	C	1.409773	1.437731	0.803308
C119	C	0.909669	0.303338	0.139717
C120	C	1.409669	0.803338	0.639717
C121	C	0.909769	0.303166	0.069749
C122	C	1.409769	0.803166	0.569749
C123	C	0.950044	0.263094	0.570311
C124	C	1.450044	0.763094	1.070311
C125	C	0.950043	0.263066	0.636054
C126	C	1.450043	0.763066	1.136054
C127	C	0.909764	0.303308	0.668910
C128	C	1.409764	0.803308	1.168910
C129	C	0.869472	0.343568	0.636018
C130	C	1.369472	0.843568	1.136018
C131	C	0.869470	0.343589	0.570276
C132	C	1.369470	0.843589	1.070276
N133	N	0.904908	0.358375	0.772125
N134	N	1.404908	0.858375	1.272125
N135	N	0.904914	0.358353	0.834577
N136	N	1.404914	0.858353	1.334577
C137	C	0.909768	0.303244	0.866985
C138	C	1.409768	0.803244	1.366985
N139	N	0.914629	0.248157	0.834582
N140	N	1.414629	0.748157	1.334582
N141	N	0.914626	0.248180	0.772125
N142	N	1.414626	0.748180	1.272125
C143	C	0.909762	0.303288	0.740195
C144	C	1.409762	0.803288	1.240195
C145	C	0.950054	0.262953	0.971154
C146	C	1.450054	0.762953	1.471154
C147	C	0.950048	0.262925	1.036898
C148	C	1.450048	0.762925	1.536898
C149	C	0.869481	0.343432	1.036861
C150	C	1.369481	0.843432	1.536861
C151	C	0.869483	0.343455	0.971118
C152	C	1.369483	0.843455	1.471118
C153	C	0.909773	0.303216	0.938269
C154	C	1.409773	0.803216	1.438269
H155	H	0.269159	0.376329	0.230120
H156	H	0.769159	0.876329	0.730120
C157	C	0.838828	1.056554	0.450124
C158	C	1.338828	1.556554	0.950124
C159	C	0.825274	1.072491	0.387775
C160	C	1.325274	1.572491	0.887775
H161	H	0.811506	1.078870	0.477424
H162	H	1.311506	1.578870	0.977424
H163	H	0.833045	1.012704	0.455867
H164	H	1.333045	1.512704	0.955867
H165	H	0.881124	1.067291	0.459369
H166	H	1.381124	1.567291	0.959369
H167	H	0.782979	1.061750	0.378529
H168	H	1.282979	1.561750	0.878529
H169	H	0.831052	1.116351	0.382030
H170	H	1.331052	1.616351	0.882030
H171	H	0.836703	0.943857	0.376287
H172	H	1.336703	1.443857	0.876287
H173	H	0.982695	0.542977	0.230265
H174	H	1.482695	1.042977	0.730265
H175	H	0.550853	0.230419	0.376430
H176	H	1.050853	0.730419	0.876430
C177	C	1.029679	0.183514	0.576957
C178	C	1.529679	0.683514	1.076957
C179	C	0.994323	0.218857	0.534204
C180	C	1.494323	0.718857	1.034204
H181	H	1.057011	0.156201	0.554663
H182	H	1.557011	0.656201	1.054663
H183	H	1.053742	0.210937	0.602603
H184	H	1.553742	0.710937	1.102603
H185	H	1.002261	0.159426	0.602592
H186	H	1.502261	0.659426	1.102592
H187	H	1.021740	0.242949	0.508572
H188	H	1.521740	0.742949	1.008572
H189	H	0.970258	0.191431	0.508548
H190	H	1.470258	0.691431	1.008548
H191	H	0.982856	0.230185	0.944407
H192	H	1.482856	0.730185	1.444407
H193	H	0.670117	0.230418	0.376431
H194	H	1.170117	0.730418	0.876431
C195	C	1.029552	0.628870	0.183509
C196	C	1.529552	1.128870	0.683509
C197	C	0.994218	0.671612	0.218826
C198	C	1.494218	1.171612	0.718826
H199	H	1.056883	0.651172	0.156211
H200	H	1.556883	1.151172	0.656211
H201	H	1.053613	0.603198	0.210949
H202	H	1.553613	1.103198	0.710949
H203	H	1.002119	0.603260	0.159406
H204	H	1.502119	1.103260	0.659406
H205	H	1.021650	0.697218	0.242932
H206	H	1.521650	1.197218	0.742932
H207	H	0.970154	0.697295	0.191382
H208	H	1.470154	1.197295	0.691382
C209	C	0.833646	0.736296	0.379212
C210	C	1.333646	1.236296	0.879212
C211	C	0.825122	0.671654	0.387698
C212	C	1.325122	1.171654	0.887698
H213	H	0.806317	0.758608	0.406508
H214	H	1.306317	1.258608	0.906508
H215	H	0.875936	0.747028	0.388467
H216	H	1.375936	1.247028	0.888467
H217	H	0.824457	0.747092	0.336908
H218	H	1.324457	1.247092	0.836908
H219	H	0.834316	0.660857	0.430001
H220	H	1.334316	1.160857	0.930001
H221	H	0.782823	0.660917	0.378448
H222	H	1.282823	1.160917	0.878448
H223	H	0.550729	0.376299	0.230094
H224	H	1.050729	0.876299	0.730094
C225	C	0.958856	0.178372	0.710000
C226	C	1.458856	0.678372	1.210000
C227	C	0.994329	0.218816	0.672211
C228	C	1.494329	0.718816	1.172211
H229	H	0.986198	0.151053	0.732317
H230	H	1.486198	0.651053	1.232317
H231	H	0.934869	0.202334	0.738969
H232	H	1.434869	0.702334	1.238969
H233	H	0.931449	0.154293	0.684339
H234	H	1.431449	0.654293	1.184339
H235	H	1.021733	0.242899	0.697872
H236	H	1.521733	0.742899	1.197872
H237	H	1.018327	0.194852	0.643238
H238	H	1.518327	0.694852	1.143238
C239	C	0.833713	0.379289	0.736779
C240	C	1.333713	0.879289	1.236779
C241	C	0.825201	0.387805	0.672131
C242	C	1.325201	0.887805	1.172131
H243	H	0.806382	0.406603	0.759072
H244	H	1.306382	0.906603	1.259072
H245	H	0.824524	0.336995	0.747550
H246	H	1.324524	0.836995	1.247550
H247	H	0.876006	0.388505	0.747560
H248	H	1.376006	0.888505	1.247560
H249	H	0.782909	0.378585	0.661349
H250	H	1.282909	0.878585	1.161349
H251	H	0.834385	0.430109	0.661355
H252	H	1.334385	0.930109	1.161355
H253	H	0.836683	0.376240	0.944344
H254	H	1.336683	0.876240	1.444344
H255	H	0.982902	1.063080	0.230367
H256	H	1.482902	1.563080	0.730367
H257	H	0.836663	0.376371	0.543503
H258	H	1.336663	0.876371	1.043503
C259	C	0.789736	0.576393	0.422990
C260	C	1.289736	1.076393	0.922990
C261	C	0.825074	0.533650	0.387679
C262	C	1.325074	1.033650	0.887679
H263	H	0.762392	0.554093	0.450277
H264	H	1.262392	1.054093	0.950277
H265	H	0.817161	0.601995	0.447099
H266	H	1.317161	1.101995	0.947099
H267	H	0.765682	0.602073	0.395541
H268	H	1.265682	1.102073	0.895541
H269	H	0.849131	0.507973	0.415129
H270	H	1.349131	1.007973	0.915129
H271	H	0.797645	0.508037	0.363569
H272	H	1.297645	1.008037	0.863569
C273	C	0.183211	0.423083	0.183231
C274	C	0.683211	0.923083	0.683231
C275	C	0.140507	0.387802	0.218634
C276	C	0.640507	0.887802	0.718634
H277	H	0.160880	0.450361	0.155860
H278	H	0.660880	0.950361	0.655860
H279	H	0.208854	0.447198	0.210612
H280	H	0.708854	0.947198	0.710612
H281	H	0.208853	0.395613	0.159202
H282	H	0.708853	0.895613	0.659202
H283	H	0.114868	0.415271	0.242667
H284	H	0.614868	0.915271	0.742667
H285	H	0.114853	0.363684	0.191249
H286	H	0.614853	0.863684	0.691249
C287	C	0.744001	0.379247	0.227102
C288	C	1.244001	0.879247	0.727102
C289	C	0.679349	0.387742	0.218592
C290	C	1.179349	0.887742	0.718592
H291	H	0.766282	0.406524	0.199729
H292	H	1.266282	0.906524	0.699729
H293	H	0.754789	0.388519	0.269375
H294	H	1.254789	0.888519	0.769375
H295	H	0.754780	0.336936	0.217963
H296	H	1.254780	0.836936	0.717963
H297	H	0.668570	0.430052	0.227736
H298	H	1.168570	0.930052	0.727736
H299	H	0.668558	0.378474	0.176309
H300	H	1.168558	0.878474	0.676309
H301	H	0.982850	0.943817	0.230336
H302	H	1.482850	1.443817	0.730336
H303	H	0.982852	0.230139	1.063671
H304	H	1.482852	0.730139	1.563671
H305	H	0.836679	0.376191	1.063611
H306	H	1.336679	0.876191	1.563611
C307	C	0.235959	0.183712	0.423342
C308	C	0.735959	0.683712	0.923342
C309	C	0.278661	0.218998	0.387941
C310	C	0.778661	0.718998	0.887941
H311	H	0.258292	0.156425	0.450702
H312	H	0.758292	0.656425	0.950702
H313	H	0.210323	0.211173	0.447376
H314	H	0.710323	0.711173	0.947376
H315	H	0.210310	0.159600	0.395954
H316	H	0.710310	0.659600	0.895954
H317	H	0.304308	0.243114	0.415329
H318	H	0.804308	0.743114	0.915329
H319	H	0.304308	0.191533	0.363905
H320	H	0.804308	0.691533	0.863905
H321	H	0.150016	0.230465	0.376460
H322	H	0.650016	0.730465	0.876460
