data_functionalizedCrystal
_audit_creation_method	'MofGen! by Chris Wilmer'
_symmetry_space_group_name_H-M	'P1'
_symmetry_Int_Tables_number	1
_symmetry_cell_setting	triclinic
loop_
_symmetry_equiv_pos_as_xyz
  x,y,z
_cell_length_a	12.759401
_cell_length_b	12.759400
_cell_length_c	12.759393
_cell_angle_alpha	89.968436
_cell_angle_beta	89.981504
_cell_angle_gamma	90.014845
loop_
_atom_site_label
_atom_site_type_symbol
_atom_site_fract_x
_atom_site_fract_y
_atom_site_fract_z
Zn1	Zn	1.606255	-0.418200	-0.593981
Zn2	Zn	1.606150	-0.593919	-0.418301
Zn3	Zn	1.430557	-0.418255	-0.418321
Zn4	Zn	1.430546	-0.593838	-0.593943
O5	O	1.518377	-0.506053	-0.506137
O6	O	1.753262	-0.441520	-0.570685
O7	O	1.582818	-0.570673	-0.271283
O8	O	1.453913	-0.271226	-0.441647
O9	O	1.753185	-0.570620	-0.441614
O10	O	1.582998	-0.271186	-0.570704
O11	O	1.453811	-0.441614	-0.271297
O12	O	1.283535	-0.441535	-0.441609
O13	O	1.453894	-0.570482	-0.740969
O14	O	1.283527	-0.570536	-0.570638
O15	O	1.582987	-0.441442	-0.740997
O16	O	1.582807	-0.740929	-0.441577
O17	O	1.453791	-0.740870	-0.570620
C18	C	1.245410	-0.506033	-0.506122
C19	C	1.128633	-0.506050	-0.506141
C20	C	1.073794	-0.573328	-0.573215
C21	C	0.964070	-0.573342	-0.573227
C22	C	0.964034	-0.438796	-0.439081
C23	C	1.073756	-0.438778	-0.439075
C24	C	1.073815	-0.651010	-0.650660
C25	C	0.964091	-0.651024	-0.650672
C26	C	1.518315	-0.779020	-0.506115
C27	C	1.518384	-0.895797	-0.506140
C28	C	1.585637	-0.950655	-0.439022
C29	C	1.585702	-1.060379	-0.439054
C30	C	1.451252	-1.060377	-0.573327
C31	C	1.451193	-0.950655	-0.573299
C32	C	1.652828	-0.895797	-0.371864
C33	C	1.720086	-0.950655	-0.304739
C34	C	1.720150	-1.060379	-0.304771
C35	C	1.652957	-1.115245	-0.371929
C36	C	1.792410	-0.506073	-0.506152
C37	C	1.909187	-0.506082	-0.506158
C38	C	1.518451	-0.505947	-0.780170
C39	C	1.518482	-0.505902	-0.896947
C40	C	1.518468	-0.232019	-0.506182
C41	C	1.518507	-0.115243	-0.506201
C42	C	1.585710	-0.438704	-0.951825
C43	C	1.585735	-0.438666	-1.061549
C44	C	1.451301	-0.573033	-1.061507
C45	C	1.451272	-0.573064	-0.951785
C46	C	1.663328	-0.361131	-0.951851
C47	C	1.663353	-0.361093	-1.061575
C48	C	1.518364	-0.506083	-0.233169
C49	C	1.518537	-0.505832	-0.116393
H50	H	0.919339	-0.384025	-0.384479
C51	C	1.766458	-0.399990	-0.906658
C52	C	1.834806	-0.425712	-0.988564
C53	C	1.929823	-0.461500	-0.946972
H54	H	1.754086	-0.460294	-0.864752
H55	H	1.796932	-0.346501	-0.864802
H56	H	1.804338	-0.479197	-1.030403
H57	H	1.847208	-0.365424	-1.030478
H58	H	1.960297	-0.408010	-0.905116
H59	H	1.917440	-0.521801	-0.905066
H60	H	1.976212	-0.478947	-1.002538
C61	C	1.113422	-0.622218	-0.759294
C62	C	1.076701	-0.695599	-0.832108
C63	C	1.113153	-0.669103	-0.932191
H64	H	1.187868	-0.622224	-0.759447
H65	H	1.088592	-0.554461	-0.777648
H66	H	1.101537	-0.763339	-0.813760
H67	H	1.002259	-0.695604	-0.831989
H68	H	1.088323	-0.601346	-0.950544
H69	H	1.187599	-0.669109	-0.932332
H70	H	1.088236	-0.718882	-0.981609
C71	C	1.118978	-0.754112	-0.611639
C72	C	1.037053	-0.822429	-0.585783
C73	C	1.078618	-0.917418	-0.549843
H74	H	1.160846	-0.741690	-0.551365
H75	H	1.160869	-0.784637	-0.665086
H76	H	0.995180	-0.791909	-0.532341
H77	H	0.995179	-0.834880	-0.646041
H78	H	1.120508	-0.947943	-0.603290
H79	H	1.120485	-0.904986	-0.489572
H80	H	1.023039	-0.963786	-0.532305
H81	H	1.396545	-1.105058	-0.628002
C82	C	0.918607	-0.612475	-0.753811
C83	C	0.856890	-0.691560	-0.798250
C84	C	0.814963	-0.656080	-0.893250
H85	H	0.973971	-0.595009	-0.800450
H86	H	0.876648	-0.552231	-0.741467
H87	H	0.898848	-0.751786	-0.810599
H88	H	0.801510	-0.709035	-0.751641
H89	H	0.773003	-0.595835	-0.880905
H90	H	0.870333	-0.638615	-0.939880
H91	H	0.773076	-0.709729	-0.923409
C92	C	1.634507	-0.252614	-0.912103
C93	C	1.716752	-0.213033	-0.851224
C94	C	1.690245	-0.113068	-0.814602
H95	H	1.572790	-0.256916	-0.870670
H96	H	1.622471	-0.207341	-0.969998
H97	H	1.728775	-0.258294	-0.793337
H98	H	1.778478	-0.208705	-0.892634
H99	H	1.678208	-0.067796	-0.872498
H100	H	1.628526	-0.117381	-0.773174
H101	H	1.746047	-0.086196	-0.773300
H102	H	1.396525	-0.627780	-0.907107
C103	C	1.652953	-0.776668	-0.371712
C104	C	1.726206	-0.740364	-0.298553
C105	C	1.726356	-0.630630	-0.298394
H106	H	1.585210	-0.751788	-0.353447
H107	H	1.671128	-0.751736	-0.439500
H108	H	1.708025	-0.765285	-0.230780
H109	H	1.793959	-0.765214	-0.316801
H110	H	1.744531	-0.605698	-0.366182
H111	H	1.658610	-0.605761	-0.280131
H112	H	1.776064	-0.605984	-0.248764
H113	H	1.118401	-0.383987	-0.384464
C114	C	1.792975	-0.891225	-0.231660
C115	C	1.770183	-0.918044	-0.127701
C116	C	1.837317	-0.863331	-0.060352
H117	H	1.783371	-0.818005	-0.241108
H118	H	1.863587	-0.909156	-0.247037
H119	H	1.699589	-0.900106	-0.112330
H120	H	1.779793	-0.991254	-0.118220
H121	H	1.907929	-0.881261	-0.075728
H122	H	1.827708	-0.790114	-0.069809
H123	H	1.821869	-0.881527	0.010191
H124	H	0.934295	-0.732373	-0.628740
C125	C	1.793375	-1.119768	-0.231963
C126	C	1.897278	-1.092906	-0.254933
C127	C	1.964774	-1.147565	-0.187869
H128	H	1.783969	-1.192996	-0.241508
H129	H	1.778094	-1.101822	-0.161339
H130	H	1.912553	-1.110860	-0.325540
H131	H	1.906717	-1.019689	-0.245382
H132	H	1.949493	-1.129619	-0.117245
H133	H	1.955359	-1.220789	-0.197419
H134	H	2.035278	-1.129340	-0.203438
H135	H	1.653024	-1.204589	-0.371958
C136	C	1.378069	-0.891276	-0.646217
C137	C	1.319217	-0.962800	-0.705016
C138	C	1.251841	-0.908139	-0.772198
H139	H	1.418107	-0.848406	-0.692104
H140	H	1.332232	-0.848559	-0.606009
H141	H	1.365048	-1.005500	-0.745220
H142	H	1.279157	-1.005672	-0.659156
H143	H	1.206004	-0.865421	-0.731990
H144	H	1.291888	-0.865271	-0.818078
H145	H	1.211895	-0.956659	-0.812093
C146	C	1.624372	-0.258011	-1.106834
C147	C	1.521666	-0.239774	-1.072763
C148	C	1.485724	-0.144822	-1.114422
H149	H	1.625623	-0.261420	-1.181191
H150	H	1.668404	-0.202555	-1.083830
H151	H	1.477646	-0.295216	-1.095773
H152	H	1.520387	-0.236344	-0.998412
H153	H	1.529756	-0.089366	-1.091418
H154	H	1.486981	-0.148240	-1.188777
H155	H	1.416039	-0.132431	-1.091303
H156	H	1.396579	-0.627712	-1.106169
H157	H	1.744723	-0.382886	-1.091353
