data_functionalizedCrystal
_audit_creation_method	'MofGen! by Chris Wilmer'
_symmetry_space_group_name_H-M	'P1'
_symmetry_Int_Tables_number	1
_symmetry_cell_setting	triclinic
loop_
_symmetry_equiv_pos_as_xyz
  x,y,z
_cell_length_a	12.759401
_cell_length_b	16.120444
_cell_length_c	12.759393
_cell_angle_alpha	87.136376
_cell_angle_beta	90.018496
_cell_angle_gamma	92.926596
loop_
_atom_site_label
_atom_site_type_symbol
_atom_site_fract_x
_atom_site_fract_y
_atom_site_fract_z
Zn1	Zn	1.584964	-0.331854	0.615151
Zn2	Zn	1.575912	-0.471293	0.448366
Zn3	Zn	1.409263	-0.331898	0.439493
Zn4	Zn	1.400313	-0.471228	0.624004
O5	O	1.492613	-0.401568	0.531754
O6	O	1.730784	-0.350360	0.593035
O7	O	1.553764	-0.452847	0.300171
O8	O	1.440104	-0.215227	0.455376
O9	O	1.724134	-0.452804	0.470499
O10	O	1.569191	-0.215194	0.584432
O11	O	1.431327	-0.350434	0.293652
O12	O	1.261056	-0.350372	0.463960
O13	O	1.424850	-0.452695	0.769848
O14	O	1.254480	-0.452737	0.599519
O15	O	1.560512	-0.350298	0.763344
O16	O	1.545085	-0.587950	0.479083
O17	O	1.416072	-0.587903	0.608123
C18	C	1.219647	-0.401553	0.531738
C19	C	1.102869	-0.401567	0.531758
C20	C	1.478654	-0.618176	0.545550
C21	C	1.472778	-0.710842	0.551487
C22	C	1.044605	-0.454954	0.602238
C23	C	0.934880	-0.454964	0.602250
C24	C	0.941694	-0.348198	0.461293
C25	C	1.051417	-0.348184	0.461287
C26	C	1.096058	-0.508336	0.672709
C27	C	1.037793	-0.561728	0.743194
C28	C	0.928069	-0.561739	0.743206
C29	C	0.876608	-0.508357	0.672733
C30	C	1.523352	-0.921787	0.501181
C31	C	1.462069	-0.880498	0.562338
C32	C	1.468029	-0.786093	0.556298
C33	C	1.517393	-1.016201	0.507218
C34	C	1.766645	-0.401584	0.531770
C35	C	1.883422	-0.401591	0.531776
C36	C	1.492692	-0.401484	0.805782
C37	C	1.492726	-0.401448	0.922556
C38	C	1.506656	-0.184115	0.517927
C39	C	1.512640	-0.091449	0.512035
C40	C	1.492599	-0.401592	0.258788
C41	C	1.492784	-0.401393	0.141999
C42	C	1.563375	-0.348125	0.974033
C43	C	1.563402	-0.348095	1.083755
C44	C	1.422127	-0.454719	1.090515
C45	C	1.422096	-0.454744	0.980794
C46	C	1.634005	-0.294829	0.915795
C47	C	1.704660	-0.241502	0.967272
C48	C	1.704687	-0.241472	1.076994
C49	C	1.634058	-0.294769	1.135240
H50	H	1.185401	-0.508335	0.672705
H51	H	1.079700	-0.605184	0.800576
H52	H	1.762157	-0.198104	0.919841
H53	H	1.580289	-0.886239	0.444290
H54	H	1.098857	-0.304705	0.403903
H55	H	1.762211	-0.198044	1.118903
Cl56	Cl	0.854825	-0.628852	0.831821
Cl57	Cl	1.633979	-0.294866	0.777859
Cl58	Cl	0.738667	-0.508366	0.672759
H59	H	1.405127	-0.916050	0.619231
Cl60	Cl	1.634081	-0.294717	1.273177
H61	H	0.899786	-0.304738	0.403917
Cl62	Cl	1.333348	-0.521719	1.163738
Cl63	Cl	1.333277	-0.521780	0.916075
