data_functionalizedCrystal
_audit_creation_method	'MofGen! by Chris Wilmer'
_symmetry_space_group_name_H-M	'P1'
_symmetry_Int_Tables_number	1
_symmetry_cell_setting	triclinic
loop_
_symmetry_equiv_pos_as_xyz
  x,y,z
_cell_length_a	27.731994
_cell_length_b	14.519731
_cell_length_c	12.996460
_cell_angle_alpha	89.992872
_cell_angle_beta	90.000496
_cell_angle_gamma	83.154694
loop_
_atom_site_label
_atom_site_type_symbol
_atom_site_fract_x
_atom_site_fract_y
_atom_site_fract_z
O1	O	0.641473	0.109494	-0.085423
O2	O	1.141473	0.609494	0.414577
O3	O	0.500756	0.126230	-0.085457
O4	O	1.000756	0.626230	0.414543
O5	O	0.574840	-0.016441	-0.085430
O6	O	1.074840	0.483559	0.414570
O7	O	0.567389	0.252165	-0.085450
O8	O	1.067389	0.752165	0.414550
O9	O	0.574832	-0.016449	0.085704
O10	O	1.074832	0.483551	0.585704
O11	O	0.500748	0.126223	0.085677
O12	O	1.000748	0.626223	0.585677
O13	O	0.641465	0.109486	0.085711
O14	O	1.141465	0.609486	0.585711
Cu15	Cu	0.571106	0.117854	0.101320
Cu16	Cu	1.071106	0.617854	0.601320
Cu17	Cu	0.571115	0.117863	-0.101066
Cu18	Cu	1.071115	0.617863	0.398934
O19	O	0.567381	0.252158	0.085684
O20	O	1.067381	0.752158	0.585684
C21	C	0.482743	0.125883	0.000106
C22	C	0.982743	0.625883	0.500106
C23	C	0.429082	0.124848	0.000093
C24	C	0.929082	0.624848	0.500093
C25	C	0.574487	-0.050798	0.000137
C26	C	1.074487	0.449202	0.500137
C27	C	0.573441	-0.153160	0.000138
C28	C	1.073441	0.346840	0.500138
C29	C	0.572591	-0.236289	0.000135
C30	C	1.072591	0.263711	0.500135
C31	C	0.571529	-0.340579	0.000127
C32	C	1.071529	0.159421	0.500127
C33	C	0.570686	-0.423703	0.000120
C34	C	1.070686	0.076297	0.500120
C35	C	0.569623	-0.528000	0.000114
C36	C	1.069623	-0.028000	0.500114
C37	C	0.096328	0.118328	0.093418
C38	C	0.596328	0.618328	0.593418
C39	C	-0.105349	0.114394	0.093430
C40	C	0.394651	0.614394	0.593430
O41	O	-0.131428	0.113843	0.172765
O42	O	0.368572	0.613843	0.672765
N43	N	-0.130562	0.113910	0.000145
N44	N	0.369438	0.613910	0.500145
C45	C	-0.105352	0.114403	-0.093150
C46	C	0.394648	0.614403	0.406850
O47	O	-0.131424	0.113892	-0.172494
O48	O	0.368576	0.613892	0.327506
C49	C	0.096324	0.118330	-0.093161
C50	C	0.596324	0.618330	0.406839
C51	C	0.121534	0.118823	0.000131
C52	C	0.621534	0.618823	0.500131
C53	C	0.121538	0.118820	0.186701
C54	C	0.621538	0.618820	0.686701
C55	C	0.171954	0.119808	0.186697
C56	C	0.671954	0.619808	0.686697
C57	C	0.197160	0.120304	0.093410
C58	C	0.697160	0.620304	0.593410
C59	C	0.171950	0.119812	0.000127
C60	C	0.671950	0.619812	0.500127
C61	C	0.121534	0.118816	-0.186454
C62	C	0.621534	0.618816	0.313546
C63	C	0.171956	0.119795	-0.186448
C64	C	0.671956	0.619795	0.313552
C65	C	0.197166	0.120289	-0.093157
C66	C	0.697166	0.620289	0.406843
C67	C	0.247572	0.121296	-0.093165
C68	C	0.747572	0.621296	0.406835
N69	N	0.272785	0.121780	0.000120
N70	N	0.772785	0.621780	0.500120
C71	C	0.247579	0.121284	0.093408
C72	C	0.747579	0.621284	0.593408
C73	C	-0.211236	0.112344	-0.093137
C74	C	0.288764	0.612344	0.406863
C75	C	-0.261655	0.111364	-0.093135
C76	C	0.238345	0.611364	0.406865
C77	C	-0.261648	0.111353	0.093445
C78	C	0.238352	0.611353	0.593445
C79	C	-0.211228	0.112340	0.093441
C80	C	0.288772	0.612340	0.593441
C81	C	-0.186023	0.112828	0.000148
C82	C	0.313977	0.612828	0.500148
C83	C	0.353456	0.123360	0.093392
C84	C	0.853456	0.623360	0.593392
C85	C	0.403876	0.124353	0.093380
C86	C	0.903876	0.624353	0.593380
C87	C	0.403865	0.124358	-0.093199
C88	C	0.903865	0.624358	0.406801
C89	C	0.353449	0.123371	-0.093188
C90	C	0.853449	0.623371	0.406812
C91	C	0.328246	0.122869	0.000116
C92	C	0.828246	0.622869	0.500116
O93	O	0.273682	0.121838	-0.172458
O94	O	0.773682	0.621838	0.327542
O95	O	0.273661	0.121775	0.172740
O96	O	0.773661	0.621775	0.672740
C97	C	0.045912	0.117339	0.093422
C98	C	0.545912	0.617339	0.593422
C99	C	0.020702	0.116847	0.000138
C100	C	0.520702	0.616847	0.500138
C101	C	0.045908	0.117342	-0.093149
C102	C	0.545908	0.617342	0.406851
C103	C	-0.029717	0.115867	0.000141
C104	C	0.470283	0.615867	0.500141
C105	C	-0.054923	0.115371	0.093428
C106	C	0.445077	0.615371	0.593428
C107	C	-0.029710	0.115855	0.186713
C108	C	0.470290	0.615855	0.686713
C109	C	0.020706	0.116844	0.186709
C110	C	0.520706	0.616844	0.686709
C111	C	0.020695	0.116858	-0.186434
C112	C	0.520695	0.616858	0.313566
C113	C	-0.029721	0.115871	-0.186422
C114	C	0.470279	0.615871	0.313578
C115	C	-0.054927	0.115375	-0.093135
C116	C	0.445073	0.615375	0.406865
C117	C	0.659478	0.109833	0.000146
C118	C	1.159478	0.609833	0.500146
C119	C	0.713139	0.110868	0.000153
C120	C	1.213139	0.610868	0.500153
C121	C	0.567734	0.286515	0.000114
C122	C	1.067734	0.786515	0.500114
C123	C	0.568780	0.388876	0.000107
C124	C	1.068780	0.888876	0.500107
N125	N	0.571103	0.117847	0.243667
N126	N	1.071103	0.617847	0.743667
N127	N	0.571122	0.117862	-0.243413
N128	N	1.071122	0.617862	0.256587
C129	C	0.571114	0.117864	0.663481
C130	C	1.071114	0.617864	1.163481
C131	C	0.571110	0.117862	0.546676
C132	C	1.071110	0.617862	1.046676
C133	C	0.571109	0.117856	0.453578
C134	C	1.071109	0.617856	0.953578
C135	C	0.571104	0.117853	0.336765
C136	C	1.071104	0.617853	0.836765
H137	H	0.424399	0.124758	0.169352
H138	H	0.924399	0.624758	0.669352
C139	C	0.199679	0.120335	-0.289082
C140	C	0.699679	0.620335	0.210918
N141	N	0.220559	0.120745	-0.366385
N142	N	0.720559	0.620745	0.133615
H143	H	0.332921	0.122984	-0.169153
H144	H	0.832921	0.622984	0.330847
C145	C	-0.057446	0.115308	0.289330
C146	C	0.442554	0.615308	0.789330
N147	N	-0.078339	0.114889	0.366616
N148	N	0.421661	0.614889	0.866616
C149	C	0.199679	0.120338	0.289326
C150	C	0.699679	0.620338	0.789326
N151	N	0.220558	0.120731	0.366631
N152	N	0.720558	0.620731	0.866631
C153	C	0.431602	0.124897	-0.195810
C154	C	0.931602	0.624897	0.304190
N155	N	0.452495	0.125295	-0.273098
N156	N	0.952495	0.625295	0.226902
C157	C	-0.057445	0.115324	-0.289057
C158	C	0.442555	0.615324	0.210943
N159	N	-0.078325	0.114902	-0.366360
N160	N	0.421675	0.614902	0.133640
C161	C	0.325739	0.122818	0.196031
C162	C	0.825739	0.622818	0.696031
N163	N	0.304862	0.122417	0.273339
N164	N	0.804862	0.622417	0.773339
H165	H	-0.282177	0.110977	-0.169102
H166	H	0.217823	0.610977	0.330898
H167	H	-0.190718	0.112740	-0.169113
H168	H	0.309282	0.612740	0.330887
C169	C	0.048431	0.117378	0.289338
C170	C	0.548431	0.617378	0.789338
N171	N	0.069310	0.117778	0.366643
N172	N	0.569310	0.617778	0.866643
H173	H	0.041213	0.117259	-0.262401
H174	H	0.541213	0.617259	0.237599
H175	H	0.101020	0.118415	0.262671
H176	H	0.601020	0.618415	0.762671
H177	H	-0.190706	0.112743	0.169407
H178	H	0.309294	0.612743	0.669407
H179	H	-0.282179	0.110952	0.169403
H180	H	0.217821	0.610952	0.669403
C181	C	0.093815	0.118258	-0.289084
C182	C	0.593815	0.618258	0.210916
N183	N	0.072939	0.117831	-0.366390
N184	N	0.572939	0.617831	0.133610
