data_functionalizedCrystal
_audit_creation_method	'MofGen! by Chris Wilmer'
_symmetry_space_group_name_H-M	'P1'
_symmetry_Int_Tables_number	1
_symmetry_cell_setting	triclinic
loop_
_symmetry_equiv_pos_as_xyz
  x,y,z
_cell_length_a	19.805407
_cell_length_b	29.839131
_cell_length_c	19.805399
_cell_angle_alpha	89.969027
_cell_angle_beta	89.983114
_cell_angle_gamma	90.041420
loop_
_atom_site_label
_atom_site_type_symbol
_atom_site_fract_x
_atom_site_fract_y
_atom_site_fract_z
Zn1	Zn	1.034647	-0.178858	-0.382710
Zn2	Zn	1.367980	0.154476	-0.049377
Zn3	Zn	1.701314	0.487809	0.283956
Zn4	Zn	1.034538	-0.253987	-0.269518
Zn5	Zn	1.367871	0.079346	0.063815
Zn6	Zn	1.701204	0.412680	0.397149
Zn7	Zn	0.921467	-0.178872	-0.269535
Zn8	Zn	1.254800	0.154462	0.063798
Zn9	Zn	1.588134	0.487795	0.397132
Zn10	Zn	0.921396	-0.253961	-0.382665
Zn11	Zn	1.254729	0.079372	-0.049332
Zn12	Zn	1.588062	0.412705	0.284002
O13	O	0.978012	-0.216419	-0.326107
O14	O	1.311345	0.116914	0.007226
O15	O	1.644679	0.450247	0.340560
O16	O	1.129349	-0.188828	-0.367707
O17	O	1.462682	0.144505	-0.034374
O18	O	1.796016	0.477838	0.298960
O19	O	1.019523	-0.244039	-0.174804
O20	O	1.352856	0.089294	0.158530
O21	O	1.686189	0.422627	0.491863
O22	O	0.936556	-0.116003	-0.284574
O23	O	1.269890	0.217331	0.048759
O24	O	1.603223	0.550664	0.382093
O25	O	1.129269	-0.244026	-0.284545
O26	O	1.462602	0.089308	0.048788
O27	O	1.795935	0.422641	0.382121
O28	O	1.019709	-0.115992	-0.367723
O29	O	1.353043	0.217341	-0.034390
O30	O	1.686376	0.550674	0.298943
O31	O	0.936450	-0.188853	-0.174816
O32	O	1.269784	0.144481	0.158517
O33	O	1.603117	0.477814	0.491851
O34	O	0.826741	-0.188828	-0.284530
O35	O	1.160074	0.144506	0.048804
O36	O	1.493408	0.477839	0.382137
O37	O	0.936435	-0.243982	-0.477388
O38	O	1.269768	0.089352	-0.144054
O39	O	1.603101	0.422685	0.189279
O40	O	0.826689	-0.243996	-0.367646
O41	O	1.160022	0.089338	-0.034313
O42	O	1.493355	0.422671	0.299021
O43	O	1.019640	-0.188803	-0.477421
O44	O	1.352973	0.144530	-0.144088
O45	O	1.686307	0.477863	0.189246
O46	O	1.019453	-0.316851	-0.284501
O47	O	1.352787	0.016483	0.048832
O48	O	1.686120	0.349816	0.382165
O49	O	0.936328	-0.316832	-0.367630
O50	O	1.269662	0.016502	-0.034296
O51	O	1.602995	0.349835	0.299037
C52	C	0.802156	-0.216411	-0.326085
C53	C	1.135489	0.116923	0.007248
C54	C	1.468823	0.450256	0.340582
C55	C	0.726924	-0.216418	-0.326092
C56	C	1.060257	0.116915	0.007241
C57	C	1.393591	0.450249	0.340575
C58	C	0.691570	-0.245187	-0.369300
C59	C	1.024903	0.088146	-0.035967
C60	C	1.358237	0.421480	0.297366
C61	C	0.620882	-0.245188	-0.369310
C62	C	0.954215	0.088145	-0.035977
C63	C	1.287548	0.421479	0.297357
C64	C	0.585548	-0.216421	-0.326107
C65	C	0.918882	0.116912	0.007226
C66	C	1.252215	0.450245	0.340560
C67	C	0.620907	-0.187649	-0.282897
C68	C	0.954240	0.145684	0.050437
C69	C	1.287574	0.479018	0.383770
C70	C	0.691594	-0.187646	-0.282891
C71	C	1.024928	0.145687	0.050442
C72	C	1.358261	0.479020	0.383776
C73	C	0.335834	-0.187659	-0.282919
C74	C	0.669167	0.145674	0.050414
C75	C	1.002500	0.479008	0.383748
C76	C	0.265142	-0.187665	-0.282927
C77	C	0.598475	0.145668	0.050407
C78	C	0.931808	0.479002	0.383740
C79	C	0.265121	-0.245201	-0.369338
C80	C	0.598455	0.088133	-0.036005
C81	C	0.931788	0.421466	0.297329
C82	C	0.335808	-0.245198	-0.369332
C83	C	0.669142	0.088136	-0.035999
C84	C	1.002475	0.421469	0.297334
C85	C	0.371161	-0.216424	-0.326125
C86	C	0.704494	0.116909	0.007209
C87	C	1.037828	0.450243	0.340542
C88	C	0.447809	-0.216423	-0.326116
C89	C	0.781143	0.116910	0.007218
C90	C	1.114476	0.450244	0.340551
C91	C	0.508901	-0.216424	-0.326112
C92	C	0.842234	0.116909	0.007221
C93	C	1.175568	0.450242	0.340555
C94	C	0.977890	-0.333142	-0.326073
C95	C	1.311223	0.000191	0.007260
C96	C	1.644556	0.333525	0.340593
C97	C	0.977899	-0.383076	-0.326082
C98	C	1.311233	-0.049743	0.007252
C99	C	1.644566	0.283590	0.340585
C100	C	1.021374	-0.692717	-0.282885
C101	C	1.354707	-0.359384	0.050448
C102	C	1.688040	-0.026050	0.383781
C103	C	1.021457	-0.880390	-0.282912
C104	C	1.354791	-0.547057	0.050422
C105	C	1.688124	-0.213723	0.383755
O106	O	1.058324	-0.904652	-0.246159
O107	O	1.391657	-0.571319	0.087175
O108	O	1.724990	-0.237986	0.420508
N109	N	0.978152	-0.903861	-0.326158
N110	N	1.311486	-0.570528	0.007175
N111	N	1.644819	-0.237195	0.340509
C112	C	0.934826	-0.880412	-0.369404
C113	C	1.268160	-0.547078	-0.036071
C114	C	1.601493	-0.213745	0.297262
O115	O	0.898000	-0.904682	-0.406194
O116	O	1.231333	-0.571348	-0.072860
O117	O	1.564666	-0.238015	0.260473
C118	C	0.934747	-0.692740	-0.369381
C119	C	1.268080	-0.359406	-0.036048
C120	C	1.601413	-0.026073	0.297286
C121	C	0.978050	-0.669271	-0.326127
C122	C	1.311383	-0.335937	0.007207
C123	C	1.644716	-0.002604	0.340540
C124	C	1.064674	-0.669248	-0.239635
C125	C	1.398007	-0.335915	0.093698
C126	C	1.731340	-0.002581	0.427031
C127	C	1.064650	-0.622332	-0.239626
C128	C	1.397983	-0.288999	0.093707
C129	C	1.731316	0.044334	0.427040
C130	C	1.021326	-0.598886	-0.282868
C131	C	1.354659	-0.265553	0.050465
C132	C	1.687993	0.067781	0.383799
C133	C	0.978026	-0.622355	-0.326118
C134	C	1.311359	-0.289022	0.007215
C135	C	1.644692	0.044312	0.340549
C136	C	0.891425	-0.669291	-0.412630
C137	C	1.224758	-0.335957	-0.079297
C138	C	1.558091	-0.002624	0.254037
C139	C	0.891410	-0.622370	-0.412621
C140	C	1.224743	-0.289036	-0.079288
C141	C	1.558077	0.044297	0.254045
C142	C	0.934713	-0.598901	-0.369367
C143	C	1.268046	-0.265567	-0.036034
C144	C	1.601380	0.067766	0.297299
C145	C	0.934678	-0.551993	-0.369351
C146	C	1.268011	-0.218660	-0.036017
C147	C	1.601345	0.114673	0.297316
N148	N	0.977983	-0.528522	-0.326104
N149	N	1.311316	-0.195188	0.007229
N150	N	1.644650	0.138145	0.340563
C151	C	1.021307	-0.551968	-0.282863
C152	C	1.354640	-0.218635	0.050471
C153	C	1.687974	0.114698	0.383804
C154	C	0.934870	-0.978942	-0.369412
C155	C	1.268204	-0.645609	-0.036079
C156	C	1.601537	-0.312276	0.297254
C157	C	0.934889	-1.025860	-0.369418
C158	C	1.268223	-0.692527	-0.036084
C159	C	1.601556	-0.359193	0.297249
C160	C	1.021521	-1.025835	-0.282926
C161	C	1.354855	-0.692502	0.050408
C162	C	1.688188	-0.359168	0.383741
C163	C	1.021498	-0.978916	-0.282918
C164	C	1.354832	-0.645583	0.050416
C165	C	1.688165	-0.312250	0.383749
C166	C	0.978175	-0.955471	-0.326166
C167	C	1.311509	-0.622138	0.007167
C168	C	1.644842	-0.288804	0.340501
C169	C	1.021253	-0.453442	-0.282847
C170	C	1.354586	-0.120109	0.050486
C171	C	1.687920	0.213224	0.383819
C172	C	1.021223	-0.406523	-0.282840
C173	C	1.354557	-0.073189	0.050493
C174	C	1.687890	0.260144	0.383826
C175	C	0.934594	-0.406552	-0.369334
C176	C	1.267927	-0.073219	-0.036001
C177	C	1.601261	0.260115	0.297332
C178	C	0.934621	-0.453467	-0.369339
C179	C	1.267954	-0.120134	-0.036006
C180	C	1.601288	0.213199	0.297328
C181	C	0.977956	-0.476911	-0.326093
C182	C	1.311289	-0.143578	0.007240
C183	C	1.644623	0.189755	0.340573
O184	O	0.897836	-0.527702	-0.406090
O185	O	1.231169	-0.194369	-0.072756
O186	O	1.564503	0.138965	0.260577
O187	O	1.058139	-0.527690	-0.246090
O188	O	1.391472	-0.194357	0.087244
O189	O	1.724805	0.138977	0.420577
C190	C	1.021398	-0.739632	-0.282894
C191	C	1.354731	-0.406299	0.050439
C192	C	1.688064	-0.072966	0.383773
C193	C	0.978098	-0.763101	-0.326144
C194	C	1.311431	-0.429768	0.007189
C195	C	1.644764	-0.096435	0.340522
C196	C	0.934774	-0.739655	-0.369386
C197	C	1.268107	-0.406322	-0.036052
C198	C	1.601440	-0.072988	0.297281
C199	C	0.978117	-0.810019	-0.326149
C200	C	1.311450	-0.476686	0.007184
C201	C	1.644783	-0.143353	0.340517
C202	C	1.021440	-0.833466	-0.282908
C203	C	1.354774	-0.500132	0.050425
C204	C	1.688107	-0.166799	0.383759
C205	C	1.064746	-0.809994	-0.239661
C206	C	1.398079	-0.476661	0.093672
C207	C	1.731412	-0.143328	0.427005
C208	C	1.064722	-0.763079	-0.239653
C209	C	1.398055	-0.429745	0.093681
C210	C	1.731388	-0.096412	0.427014
C211	C	0.891469	-0.763126	-0.412632
C212	C	1.224802	-0.429793	-0.079299
C213	C	1.558135	-0.096460	0.254035
C214	C	0.891496	-0.810042	-0.412637
C215	C	1.224829	-0.476709	-0.079303
C216	C	1.558162	-0.143375	0.254030
C217	C	0.934819	-0.833488	-0.369395
C218	C	1.268153	-0.500155	-0.036062
C219	C	1.601486	-0.166822	0.297271
C220	C	1.154555	-0.216428	-0.326129
C221	C	1.487888	0.116905	0.007204
C222	C	1.821221	0.450238	0.340537
C223	C	1.229787	-0.216432	-0.326139
C224	C	1.563120	0.116901	0.007194
C225	C	1.896453	0.450235	0.340528
C226	C	0.978042	-0.216388	-0.502650
C227	C	1.311375	0.116945	-0.169317
C228	C	1.644708	0.450278	0.164017
C229	C	0.978054	-0.216375	-0.577882
C230	C	1.311388	0.116958	-0.244549
C231	C	1.644721	0.450292	0.088785
C232	C	0.978153	-0.099241	-0.326156
C233	C	1.311486	0.234092	0.007178
C234	C	1.644820	0.567426	0.340511
C235	C	0.978213	-0.049307	-0.326176
C236	C	1.311546	0.284027	0.007157
C237	C	1.644880	0.617360	0.340490
C238	C	0.934811	-0.187636	-0.613232
C239	C	1.268144	0.145697	-0.279899
C240	C	1.601477	0.479030	0.053435
C241	C	0.934820	-0.187628	-0.683920
C242	C	1.268153	0.145706	-0.350587
C243	C	1.601487	0.479039	-0.017254
C244	C	0.978077	-0.216355	-0.719258
C245	C	1.311410	0.116978	-0.385924
C246	C	1.644743	0.450311	-0.052591
C247	C	1.021322	-0.245097	-0.683903
C248	C	1.354656	0.088236	-0.350569
C249	C	1.687989	0.421570	-0.017236
C250	C	1.021309	-0.245108	-0.613215
C251	C	1.354642	0.088226	-0.279882
C252	C	1.687976	0.421559	0.053451
C253	C	1.021376	-0.245055	-0.968976
C254	C	1.354709	0.088278	-0.635643
C255	C	1.688043	0.421612	-0.302309
C256	C	1.021387	-0.245041	-1.039668
C257	C	1.354721	0.088292	-0.706335
C258	C	1.688054	0.421625	-0.373001
C259	C	0.934887	-0.187575	-1.039681
C260	C	1.268220	0.145758	-0.706348
C261	C	1.601554	0.479092	-0.373014
C262	C	0.934874	-0.187586	-0.968994
C263	C	1.268207	0.145748	-0.635661
C264	C	1.601540	0.479081	-0.302327
C265	C	0.978116	-0.216329	-0.933645
C266	C	1.311450	0.117005	-0.600312
C267	C	1.644783	0.450338	-0.266978
C268	C	0.978105	-0.216339	-0.856997
C269	C	1.311438	0.116995	-0.523663
C270	C	1.644771	0.450328	-0.190330
C271	C	0.978092	-0.216344	-0.795905
C272	C	1.311426	0.116990	-0.462571
C273	C	1.644759	0.450323	-0.129238
C274	C	0.978021	-0.216418	-0.150251
C275	C	1.311355	0.116915	0.183082
C276	C	1.644688	0.450249	0.516416
C277	C	0.978140	-0.216305	-0.075019
C278	C	1.311473	0.117029	0.258314
C279	C	1.644806	0.450362	0.591647
H280	H	0.720333	-0.268614	-0.404479
H281	H	1.053667	0.064720	-0.071146
H282	H	1.387000	0.398053	0.262188
C283	C	1.068951	-0.276664	-0.930101
C284	C	1.402284	0.056669	-0.596768
C285	C	1.735618	0.390002	-0.263434
H286	H	1.094721	-0.293766	-0.961272
H287	H	1.428054	0.039567	-0.627939
H288	H	1.761387	0.372901	-0.294606
H289	H	1.043038	-0.296244	-0.902511
H290	H	1.376372	0.037089	-0.569178
H291	H	1.709705	0.370422	-0.235845
H292	H	1.098459	-0.259479	-0.902541
H293	H	1.431792	0.073854	-0.569207
H294	H	1.765126	0.407188	-0.235874
H295	H	0.592133	-0.164225	-0.247723
H296	H	0.925466	0.169108	0.085610
H297	H	1.258800	0.502442	0.418944
C298	C	0.374716	-0.156012	-0.235391
C299	C	0.708049	0.177321	0.097942
C300	C	1.041383	0.510655	0.431275
H301	H	0.421875	-0.160124	-0.241578
H302	H	0.755209	0.173209	0.091756
H303	H	1.088542	0.506542	0.425089
H304	H	0.363108	-0.162548	-0.189897
H305	H	0.696441	0.170786	0.143436
H306	H	1.029775	0.504119	0.476770
H307	H	0.363161	-0.125835	-0.245387
H308	H	0.696494	0.207498	0.087946
H309	H	1.029828	0.540831	0.421279
C310	C	1.068905	-0.276696	-0.722771
C311	C	1.402238	0.056637	-0.389438
C312	C	1.735571	0.389970	-0.056105
H313	H	1.062725	-0.272571	-0.769933
H314	H	1.396059	0.060762	-0.436600
H315	H	1.729392	0.394096	-0.103267
H316	H	1.058962	-0.306883	-0.711173
H317	H	1.392296	0.026450	-0.377840
H318	H	1.725629	0.359784	-0.044507
H319	H	1.114389	-0.270122	-0.711193
H320	H	1.447723	0.063211	-0.377859
H321	H	1.781056	0.396545	-0.044526
C322	C	0.374672	-0.276839	-0.416857
C323	C	0.708005	0.056494	-0.083524
C324	C	1.041338	0.389827	0.249809
H325	H	0.343491	-0.293971	-0.442598
H326	H	0.676825	0.039363	-0.109264
H327	H	1.010158	0.372696	0.224069
H328	H	0.402220	-0.296391	-0.390913
H329	H	0.735553	0.036943	-0.057579
H330	H	1.068886	0.370276	0.275754
H331	H	0.402272	-0.259673	-0.446395
H332	H	0.735605	0.073660	-0.113061
H333	H	1.068939	0.406994	0.220272
C334	C	0.887289	-0.155987	-0.930127
C335	C	1.220622	0.177346	-0.596793
C336	C	1.553956	0.510680	-0.263460
H337	H	0.861530	-0.138873	-0.961304
H338	H	1.194864	0.194461	-0.627971
H339	H	1.528197	0.527794	-0.294638
H340	H	0.913196	-0.136418	-0.902561
H341	H	1.246529	0.196915	-0.569228
H342	H	1.579863	0.530249	-0.235894
H343	H	0.857771	-0.173180	-0.902543
H344	H	1.191104	0.160153	-0.569210
H345	H	1.524438	0.493486	-0.235876
H346	H	1.099913	-0.603227	-0.204407
H347	H	1.433246	-0.269893	0.128926
H348	H	1.766579	0.063440	0.462259
H349	H	0.236375	-0.164237	-0.247745
H350	H	0.569708	0.169096	0.085588
H351	H	0.903042	0.502430	0.418921
H352	H	0.899621	-1.044965	-0.404633
H353	H	1.232955	-0.711631	-0.071300
H354	H	1.566288	-0.378298	0.262033
H355	H	0.720378	-0.164217	-0.247710
H356	H	1.053712	0.169116	0.085624
H357	H	1.387045	0.502450	0.418957
C358	C	1.112330	-0.695032	-0.192061
C359	C	1.445664	-0.361699	0.141272
C360	C	1.778997	-0.028365	0.474605
H361	H	1.138107	-0.674329	-0.166303
H362	H	1.471441	-0.340995	0.167030
H363	H	1.804774	-0.007662	0.500363
H364	H	1.141818	-0.713307	-0.217972
H365	H	1.475152	-0.379973	0.115361
H366	H	1.808485	-0.046640	0.448694
H367	H	1.086460	-0.713360	-0.162543
H368	H	1.419793	-0.380027	0.170791
H369	H	1.753127	-0.046694	0.504124
C370	C	1.068876	-0.276720	-0.574330
C371	C	1.402210	0.056613	-0.240997
C372	C	1.735543	0.389946	0.092336
H373	H	1.094645	-0.293826	-0.605498
H374	H	1.427978	0.039508	-0.272165
H375	H	1.761311	0.372841	0.061168
H376	H	1.042954	-0.296297	-0.546744
H377	H	1.376287	0.037037	-0.213411
H378	H	1.709621	0.370370	0.119923
H379	H	1.098387	-0.259539	-0.546766
H380	H	1.431720	0.073794	-0.213433
H381	H	1.765053	0.407127	0.119901
C382	C	0.226232	-0.276847	-0.416873
C383	C	0.559565	0.056486	-0.083540
C384	C	0.892898	0.389820	0.249794
H385	H	0.179072	-0.272727	-0.410697
H386	H	0.512406	0.060607	-0.077364
H387	H	0.845739	0.393940	0.255970
H388	H	0.237782	-0.307023	-0.406883
H389	H	0.571115	0.026310	-0.073550
H390	H	0.904448	0.359644	0.259784
H391	H	0.237843	-0.270308	-0.462369
H392	H	0.571177	0.063025	-0.129036
H393	H	0.904510	0.396359	0.204298
H394	H	0.899362	-0.472577	-0.404562
H395	H	1.232696	-0.139243	-0.071229
H396	H	1.566029	0.194090	0.262104
C397	C	0.581995	-0.276861	-0.416798
C398	C	0.915329	0.056472	-0.083464
C399	C	1.248662	0.389805	0.249869
H400	H	0.613162	-0.294005	-0.442508
H401	H	0.946496	0.039328	-0.109175
H402	H	1.279829	0.372662	0.224158
H403	H	0.554429	-0.259729	-0.446354
H404	H	0.887762	0.073604	-0.113021
H405	H	1.221095	0.406938	0.220312
H406	H	0.554411	-0.296406	-0.390812
H407	H	0.887745	0.036927	-0.057479
H408	H	1.221078	0.370260	0.275855
H409	H	1.056486	-0.387416	-0.247615
H410	H	1.389819	-0.054082	0.085718
H411	H	1.723152	0.279251	0.419051
H412	H	0.899590	-0.959856	-0.404631
H413	H	1.232923	-0.626523	-0.071298
H414	H	1.566256	-0.293189	0.262035
C415	C	0.887256	-0.156013	-0.722803
C416	C	1.220590	0.177321	-0.389469
C417	C	1.553923	0.510654	-0.056136
H418	H	0.861499	-0.138901	-0.691633
H419	H	1.194833	0.194433	-0.358300
H420	H	1.528166	0.527766	-0.024967
H421	H	0.857746	-0.173189	-0.750367
H422	H	1.191079	0.160144	-0.417033
H423	H	1.524413	0.493477	-0.083700
H424	H	0.913184	-0.136435	-0.750389
H425	H	1.246517	0.196898	-0.417056
H426	H	1.579851	0.530231	-0.083722
H427	H	0.856132	-0.603282	-0.447842
H428	H	1.189465	-0.269949	-0.114508
H429	H	1.522798	0.063384	0.218825
C430	C	1.069136	-0.953105	-0.235344
C431	C	1.402470	-0.619771	0.097989
C432	C	1.735803	-0.286438	0.431323
H433	H	1.094942	-0.973792	-0.209597
H434	H	1.428275	-0.640459	0.123736
H435	H	1.761608	-0.307126	0.457070
H436	H	1.043261	-0.934829	-0.205825
H437	H	1.376595	-0.601496	0.127508
H438	H	1.709928	-0.268163	0.460842
H439	H	1.098609	-0.934775	-0.261266
H440	H	1.431942	-0.601441	0.072068
H441	H	1.765276	-0.268108	0.405401
C442	C	1.068915	-0.479224	-0.235273
C443	C	1.402248	-0.145891	0.098060
C444	C	1.735582	0.187442	0.431394
H445	H	1.094691	-0.458522	-0.209512
H446	H	1.428025	-0.125189	0.123821
H447	H	1.761358	0.208145	0.457154
H448	H	1.098404	-0.497497	-0.261187
H449	H	1.431737	-0.164163	0.072147
H450	H	1.765070	0.169170	0.405480
H451	H	1.043046	-0.497555	-0.205756
H452	H	1.376379	-0.164222	0.127577
H453	H	1.709713	0.169111	0.460910
C454	C	0.887314	-0.155960	-1.078563
C455	C	1.220647	0.177373	-0.745230
C456	C	1.553981	0.510707	-0.411897
H457	H	0.861557	-0.138849	-1.047393
H458	H	1.194890	0.194484	-0.714059
H459	H	1.528223	0.527817	-0.380726
H460	H	0.857804	-0.173137	-1.106127
H461	H	1.191138	0.160196	-0.772794
H462	H	1.524471	0.493529	-0.439460
H463	H	0.913239	-0.136382	-1.106150
H464	H	1.246573	0.196952	-0.772817
H465	H	1.579906	0.530285	-0.439483
H466	H	0.899318	-0.387454	-0.404539
H467	H	1.232651	-0.054121	-0.071206
H468	H	1.565985	0.279212	0.262127
H469	H	0.856159	-0.688391	-0.447849
H470	H	1.189493	-0.355058	-0.114516
H471	H	1.522826	-0.021724	0.218818
C472	C	1.069175	-1.051632	-0.235359
C473	C	1.402508	-0.718298	0.097974
C474	C	1.735841	-0.384965	0.431307
H475	H	1.062982	-1.082935	-0.241563
H476	H	1.396315	-0.749602	0.091770
H477	H	1.729649	-0.416268	0.425103
H478	H	1.059299	-1.043970	-0.189871
H479	H	1.392633	-0.710636	0.143463
H480	H	1.725966	-0.377303	0.476796
H481	H	1.114646	-1.043912	-0.245312
H482	H	1.447979	-0.710579	0.088021
H483	H	1.781312	-0.377245	0.421354
C484	C	1.112400	-0.835791	-0.192096
C485	C	1.445733	-0.502458	0.141237
C486	C	1.779066	-0.169125	0.474570
H487	H	1.106210	-0.867094	-0.198304
H488	H	1.439543	-0.533761	0.135029
H489	H	1.772877	-0.200428	0.468363
H490	H	1.102523	-0.828131	-0.146607
H491	H	1.435857	-0.494798	0.186726
H492	H	1.769190	-0.161465	0.520060
H493	H	1.157871	-0.828069	-0.202048
H494	H	1.491204	-0.494736	0.131285
H495	H	1.824537	-0.161403	0.464619
H496	H	1.099983	-0.743974	-0.204431
H497	H	1.433316	-0.410640	0.128902
H498	H	1.766650	-0.077307	0.462235
C499	C	0.843860	-0.835853	-0.460221
C500	C	1.177194	-0.502519	-0.126888
C501	C	1.510527	-0.169186	0.206446
H502	H	0.818062	-0.815165	-0.485975
H503	H	1.151395	-0.481832	-0.152642
H504	H	1.484729	-0.148498	0.180691
H505	H	0.814391	-0.854190	-0.434314
H506	H	1.147724	-0.520857	-0.100981
H507	H	1.481057	-0.187523	0.232352
H508	H	0.869750	-0.854121	-0.489743
H509	H	1.203083	-0.520788	-0.156410
H510	H	1.536417	-0.187454	0.176923
C511	C	0.843804	-0.737342	-0.460195
C512	C	1.177137	-0.404008	-0.126861
C513	C	1.510471	-0.070675	0.206472
H514	H	0.818016	-0.758043	-0.485944
H515	H	1.151349	-0.424710	-0.152611
H516	H	1.484682	-0.091377	0.180722
H517	H	0.869658	-0.719006	-0.489712
H518	H	1.202991	-0.385672	-0.156378
H519	H	1.536324	-0.052339	0.176955
H520	H	0.814317	-0.719074	-0.434265
H521	H	1.147650	-0.385741	-0.100931
H522	H	1.480983	-0.052407	0.232402
H523	H	0.899590	-0.164240	-0.584465
H524	H	1.232923	0.169093	-0.251132
H525	H	1.566256	0.502426	0.082201
H526	H	1.056614	-0.268437	-1.068438
H527	H	1.389947	0.064897	-0.735104
H528	H	1.723280	0.398230	-0.401771
