data_functionalizedCrystal
_audit_creation_method	'MofGen! by Chris Wilmer'
_symmetry_space_group_name_H-M	'P1'
_symmetry_Int_Tables_number	1
_symmetry_cell_setting	triclinic
loop_
_symmetry_equiv_pos_as_xyz
  x,y,z
_cell_length_a	17.699083
_cell_length_b	10.654550
_cell_length_c	16.176319
_cell_angle_alpha	89.994395
_cell_angle_beta	89.998611
_cell_angle_gamma	83.883959
loop_
_atom_site_label
_atom_site_type_symbol
_atom_site_fract_x
_atom_site_fract_y
_atom_site_fract_z
O1	O	1.005088	0.158809	-0.068628
O2	O	0.784841	0.179470	-0.068655
O3	O	0.900029	-0.013688	-0.068638
O4	O	0.889901	0.351967	-0.068646
O5	O	0.900013	-0.013701	0.068855
O6	O	0.784825	0.179458	0.068838
O7	O	1.005072	0.158797	0.068865
Cu8	Cu	0.894947	0.169126	0.081406
Cu9	Cu	0.894966	0.169141	-0.081196
O10	O	0.889885	0.351955	0.068848
C11	C	0.756632	0.178724	0.000088
C12	C	0.672599	0.176503	0.000078
C13	C	0.624699	0.289883	0.000076
C14	C	0.545743	0.287788	0.000086
C15	C	0.514688	0.172313	0.000093
C16	C	0.562594	0.058924	0.000098
C17	C	0.641549	0.061020	0.000093
C18	C	0.244177	0.050470	0.000118
C19	C	0.165216	0.048383	0.000121
C20	C	0.148371	0.277239	0.000112
C21	C	0.227326	0.279334	0.000107
C22	C	0.275225	0.165946	0.000116
C23	C	0.360839	0.168219	0.000106
C24	C	0.429076	0.170039	0.000097
C25	C	0.899277	-0.060479	0.000107
C26	C	0.897052	-0.199884	0.000104
C27	C	0.964873	-0.280557	0.000115
C28	C	0.962778	-0.411541	0.000109
C29	C	0.825036	-0.381166	0.000085
C30	C	0.827132	-0.250185	0.000085
C31	C	1.034794	-0.230256	0.000134
C32	C	1.102620	-0.310930	0.000146
C33	C	1.100525	-0.441914	0.000140
C34	C	1.030603	-0.492224	0.000122
C35	C	1.033282	0.159543	0.000120
C36	C	1.117314	0.161764	0.000125
C37	C	0.890637	0.398746	0.000100
C38	C	0.892861	0.538151	0.000098
N39	N	0.894940	0.169115	0.195771
N40	N	0.894980	0.169142	-0.195561
C41	C	0.945960	0.083619	0.239042
C42	C	0.945964	0.083618	0.325590
C43	C	0.894950	0.169120	0.368863
C44	C	0.843924	0.254619	0.325586
C45	C	0.843917	0.254614	0.239040
C46	C	0.843950	0.254643	0.674614
C47	C	0.843962	0.254644	0.761165
C48	C	0.945997	0.083647	0.761163
C49	C	0.945990	0.083642	0.674618
C50	C	0.894962	0.169136	0.631348
C51	C	0.894957	0.169135	0.537503
C52	C	0.894958	0.169128	0.462706
H53	H	0.680549	-0.031306	0.000094
H54	H	0.987508	0.014000	0.360821
H55	H	0.987505	0.014000	0.203815
H56	H	1.036507	-0.123604	0.000142
N57	N	1.178032	-0.256678	0.000167
H58	H	1.181982	-0.202994	-0.050796
H59	H	1.181913	-0.203088	0.051175
H60	H	0.802402	0.324258	0.639390
N61	N	0.749625	-0.435423	0.000068
H62	H	0.758589	-0.530641	0.000072
H63	H	0.719911	-0.405902	0.051034
H64	H	1.155752	-0.507596	0.000141
H65	H	1.028903	-0.598881	0.000108
H66	H	0.771906	-0.184498	0.000077
N67	N	0.788895	0.346832	0.372255
H68	H	0.796642	0.333866	0.433647
H69	H	0.798099	0.435903	0.357116
H70	H	0.987533	0.014023	0.639387
N71	N	1.001036	-0.008571	0.807833
H72	H	0.993301	0.004398	0.869226
H73	H	0.991832	-0.097644	0.792712
H74	H	0.802418	0.324272	0.796397
N75	N	0.788884	0.346820	0.192364
H76	H	0.756568	0.400987	0.232909
H77	H	0.818141	0.402278	0.156443
N78	N	0.096718	0.399552	0.000115
H79	H	0.063578	0.403799	-0.050849
H80	H	0.063638	0.403719	0.051122
H81	H	0.649978	0.383916	0.000069
H82	H	0.506745	0.380114	0.000084
N83	N	0.131715	-0.076168	0.000143
H84	H	0.099331	-0.082141	-0.050824
H85	H	0.174079	-0.147612	0.000183
N86	N	0.260813	0.403889	0.000092
H87	H	0.243391	0.453548	0.051060
H88	H	0.318093	0.387914	0.000055
N89	N	0.295834	-0.071821	0.000133
H90	H	0.264178	-0.145288	0.000137
H91	H	0.328963	-0.075944	-0.050835
H92	H	0.537303	-0.035099	0.000115
