data_functionalizedCrystal
_audit_creation_method	'MofGen! by Chris Wilmer'
_symmetry_space_group_name_H-M	'P1'
_symmetry_Int_Tables_number	1
_symmetry_cell_setting	triclinic
loop_
_symmetry_equiv_pos_as_xyz
  x,y,z
_cell_length_a	11.792254
_cell_length_b	10.723024
_cell_length_c	9.198806
_cell_angle_alpha	90.003648
_cell_angle_beta	89.996642
_cell_angle_gamma	95.666766
loop_
_atom_site_label
_atom_site_type_symbol
_atom_site_fract_x
_atom_site_fract_y
_atom_site_fract_z
O1	O	0.159191	-1.656774	-0.120884
O2	O	0.659191	-1.156774	0.379116
O3	O	0.174429	-1.293583	-0.120889
O4	O	0.674429	-0.793583	0.379111
O5	O	0.001660	-1.483984	-0.120876
O6	O	0.501660	-0.983984	0.379124
O7	O	0.331960	-1.466373	-0.120897
O8	O	0.831960	-0.966373	0.379103
O9	O	0.001659	-1.483969	0.120909
O10	O	0.501659	-0.983969	0.620909
O11	O	0.174429	-1.293567	0.120896
O12	O	0.674429	-0.793567	0.620896
O13	O	0.159191	-1.656759	0.120901
O14	O	0.659191	-1.156759	0.620901
Cu15	Cu	0.166810	-1.475162	0.142976
Cu16	Cu	0.666810	-0.975162	0.642976
Cu17	Cu	0.166810	-1.475180	-0.142963
Cu18	Cu	0.666810	-0.975180	0.357037
O19	O	0.331960	-1.466358	0.120888
O20	O	0.831960	-0.966358	0.620888
C21	C	0.173320	-1.247078	0.000003
C22	C	0.673320	-0.747078	0.500003
C23	C	0.170002	-1.108533	0.000001
C24	C	0.670002	-0.608533	0.500001
C25	C	-0.040634	-1.482867	0.000016
C26	C	0.459366	-0.982867	0.500016
C27	C	-0.166654	-1.479546	0.000015
C28	C	0.333346	-0.979546	0.500015
C29	C	0.160300	-1.703264	0.000006
C30	C	0.660300	-1.203264	0.500006
C31	C	0.163618	-1.841809	-0.000002
C32	C	0.663618	-1.341809	0.499998
C33	C	-0.268996	-1.476849	0.000010
C34	C	0.231004	-0.976849	0.500010
C35	C	-0.397390	-1.473475	-0.000004
C36	C	0.102610	-0.973475	0.499996
C37	C	0.374253	-1.467475	-0.000007
C38	C	0.874253	-0.967475	0.499993
C39	C	0.500274	-1.470795	-0.000015
C40	C	1.000274	-0.970795	0.499985
N41	N	0.166809	-1.475158	0.344090
N42	N	0.666809	-0.975158	0.844090
C43	C	0.266675	-1.033299	-0.000006
C44	C	0.766675	-0.533299	0.499994
C45	C	0.263248	-0.890105	-0.000007
C46	C	0.763248	-0.390105	0.499993
N47	N	0.166802	-1.475193	-0.344077
N48	N	0.666802	-0.975193	0.155923
C49	C	0.093948	-1.555103	0.416292
C50	C	0.593948	-1.055103	0.916292
C51	C	0.093944	-1.555123	0.583704
C52	C	0.593944	-1.055123	1.083704
H53	H	0.351977	-1.074900	-0.000003
H54	H	0.851977	-0.574900	0.499997
H55	H	0.229189	-1.406750	0.593841
H56	H	0.729189	-0.906750	1.093841
H57	H	0.346007	-0.825457	-0.000019
H58	H	0.846007	-0.325457	0.499981
H59	H	0.031569	-1.623572	0.645795
H60	H	0.531569	-1.123572	1.145795
O61	O	0.249455	-1.384517	0.426350
O62	O	0.749455	-0.884517	0.926350
H63	H	0.201303	-1.323441	0.495727
H64	H	0.701303	-0.823441	0.995727
O65	O	0.053981	-0.927425	0.000021
O66	O	0.553981	-0.427425	0.500021
H67	H	0.050527	-0.987424	-0.098517
H68	H	0.550527	-0.487424	0.401483
O69	O	0.057006	-1.053437	0.000020
O70	O	0.557006	-0.553437	0.500020
H71	H	-0.013289	-1.130329	0.000039
H72	H	0.486711	-0.630329	0.500039
O73	O	0.011284	-1.645718	0.334022
O74	O	0.511284	-1.145718	0.834022
H75	H	0.024247	-1.631469	0.215440
H76	H	0.524247	-1.131469	0.715440
