data_functionalizedCrystal
_audit_creation_method	'MofGen! by Chris Wilmer'
_symmetry_space_group_name_H-M	'P1'
_symmetry_Int_Tables_number	1
_symmetry_cell_setting	triclinic
loop_
_symmetry_equiv_pos_as_xyz
  x,y,z
_cell_length_a	19.805407
_cell_length_b	10.686285
_cell_length_c	19.805399
_cell_angle_alpha	85.610534
_cell_angle_beta	89.980427
_cell_angle_gamma	85.631507
loop_
_atom_site_label
_atom_site_type_symbol
_atom_site_fract_x
_atom_site_fract_y
_atom_site_fract_z
Zn1	Zn	1.055500	-0.502374	-0.362110
Zn2	Zn	1.064136	-0.713385	-0.240266
Zn3	Zn	0.942316	-0.502409	-0.248934
Zn4	Zn	0.950997	-0.713318	-0.353415
O5	O	1.003237	-0.607872	-0.301181
O6	O	1.151363	-0.530379	-0.345959
O7	O	1.047958	-0.685441	-0.146697
O8	O	0.950083	-0.325830	-0.271213
O9	O	1.157708	-0.685408	-0.256440
O10	O	1.033239	-0.325804	-0.354364
O11	O	0.958457	-0.530438	-0.153065
O12	O	0.848750	-0.530373	-0.262782
O13	O	0.964878	-0.685293	-0.449287
O14	O	0.855128	-0.685327	-0.339544
O15	O	1.041656	-0.530314	-0.455675
O16	O	1.056375	-0.889951	-0.248009
O17	O	0.973252	-0.889902	-0.331139
C18	C	0.827380	-0.607847	-0.301160
C19	C	0.752149	-0.607868	-0.301166
C20	C	0.720149	-0.688673	-0.341061
C21	C	0.649460	-0.688676	-0.341071
C22	C	0.610774	-0.607877	-0.301181
C23	C	0.642779	-0.527063	-0.261284
C24	C	0.713466	-0.527055	-0.261279
C25	C	0.357707	-0.527090	-0.261306
C26	C	0.287015	-0.527107	-0.261312
C27	C	0.293701	-0.688711	-0.341097
C28	C	0.364388	-0.688704	-0.341092
C29	C	0.396387	-0.607885	-0.301198
C30	C	0.473035	-0.607882	-0.301190
C31	C	0.534127	-0.607886	-0.301186
C32	C	1.016711	-0.935710	-0.287705
C33	C	1.022538	-1.075961	-0.281962
C34	C	1.179781	-0.607897	-0.301203
C35	C	1.255013	-0.607907	-0.301212
C36	C	1.003272	-0.607792	-0.477727
C37	C	1.003287	-0.607758	-0.552961
C38	C	0.989729	-0.278753	-0.314725
C39	C	0.983973	-0.138502	-0.320497
C40	C	1.043266	-0.527056	-0.591633
C41	C	1.043271	-0.527020	-0.662323
C42	C	1.003301	-0.607692	-0.694339
C43	C	0.963317	-0.688398	-0.655662
C44	C	0.963308	-0.688427	-0.584974
C45	C	0.963350	-0.688280	-0.940740
C46	C	0.963364	-0.688247	-1.011434
C47	C	1.043313	-0.526873	-1.018089
C48	C	1.043305	-0.526902	-0.947401
C49	C	1.003318	-0.607602	-0.908730
C50	C	1.003312	-0.607639	-0.832080
C51	C	1.003310	-0.607663	-0.770988
C52	C	1.003238	-0.607860	-0.125326
C53	C	1.003340	-0.607538	-0.050107
H54	H	0.395884	-0.754502	-0.373572
C55	C	1.086598	-0.439433	-0.704430
C56	C	1.078032	-0.456633	-0.773190
C57	C	1.117922	-0.375946	-0.812000
H58	H	1.132859	-0.457820	-0.692186
H59	H	1.073197	-0.354634	-0.696365
H60	H	1.091437	-0.541413	-0.781251
H61	H	1.031780	-0.438237	-0.785455
H62	H	1.104521	-0.291147	-0.803935
H63	H	1.164181	-0.394339	-0.799750
H64	H	1.112111	-0.387596	-0.858657
C65	C	0.748309	-0.439531	-0.217914
C66	C	0.791819	-0.510865	-0.171547
C67	C	0.823934	-0.430276	-0.131596
H68	H	0.715224	-0.391382	-0.194093
H69	H	0.773676	-0.384634	-0.246092
H70	H	0.766454	-0.565740	-0.143372
H71	H	0.824917	-0.559012	-0.195350
H72	H	0.849302	-0.375379	-0.159774
H73	H	0.790845	-0.382131	-0.107779
H74	H	0.853464	-0.478664	-0.100135
C75	C	0.762226	-0.776195	-0.384420
C76	C	0.799905	-0.704850	-0.430782
C77	C	0.838679	-0.785431	-0.470732
H78	H	0.733120	-0.824347	-0.408246
H79	H	0.792086	-0.831090	-0.356241
H80	H	0.770048	-0.649978	-0.458958
H81	H	0.829024	-0.656701	-0.406975
H82	H	0.868540	-0.840326	-0.442553
H83	H	0.809568	-0.833579	-0.494554
H84	H	0.864254	-0.737036	-0.502190
C85	C	1.086753	-0.439673	-0.556829
C86	C	1.133077	-0.511136	-0.513327
C87	C	1.173152	-0.430676	-0.481263
H88	H	1.058676	-0.384680	-0.531458
H89	H	1.110603	-0.391623	-0.589965
H90	H	1.109229	-0.559165	-0.480196
H91	H	1.161168	-0.566126	-0.538681
H92	H	1.197002	-0.382626	-0.514399
H93	H	1.145070	-0.375687	-0.455896
H94	H	1.204591	-0.479152	-0.451748
H95	H	0.946499	-1.084751	-0.357883
C96	C	1.072514	-1.147856	-0.232193
C97	C	1.068581	-1.277338	-0.236225
C98	C	1.114625	-1.343606	-0.190406
H99	H	1.061829	-1.126556	-0.187533
H100	H	1.117106	-1.126290	-0.243046
H101	H	1.023999	-1.298896	-0.225367
H102	H	1.079273	-1.298676	-0.280874
H103	H	1.159218	-1.322040	-0.201259
H104	H	1.103936	-1.322295	-0.145749
H105	H	1.111968	-1.431466	-0.193140
C106	C	1.086721	-0.439174	-0.912768
C107	C	1.121721	-0.368464	-0.961768
C108	C	1.161713	-0.287619	-0.929892
H109	H	1.118244	-0.487316	-0.883214
H110	H	1.058579	-0.384137	-0.887469
H111	H	1.149860	-0.423494	-0.987056
H112	H	1.090214	-0.320297	-0.991324
H113	H	1.133571	-0.232582	-0.904592
H114	H	1.193232	-0.335771	-0.900338
H115	H	1.185461	-0.239624	-0.963133
H116	H	0.267639	-0.754513	-0.373583
C117	C	0.919888	-0.775881	-1.046073
C118	C	0.884853	-0.846536	-0.997079
C119	C	0.844794	-0.927261	-1.028963
H120	H	0.947968	-0.830967	-1.071387
H121	H	0.888389	-0.727616	-1.075615
H122	H	0.916349	-0.894798	-0.967548
H123	H	0.856761	-0.791483	-0.971762
H124	H	0.813294	-0.878996	-1.058506
H125	H	0.872879	-0.982339	-1.054277
H126	H	0.821013	-0.975202	-0.995727
C127	C	0.392318	-0.439298	-0.217922
C128	C	0.343308	-0.368568	-0.182978
C129	C	0.375170	-0.287685	-0.143000
H130	H	0.417641	-0.384266	-0.246050
H131	H	0.421850	-0.487452	-0.186368
H132	H	0.313788	-0.320417	-0.214528
H133	H	0.317983	-0.423566	-0.154838
H134	H	0.404701	-0.335840	-0.111446
H135	H	0.400491	-0.232662	-0.171132
H136	H	0.341921	-0.239694	-0.119281
H137	H	0.255518	-0.461303	-0.228830
C138	C	0.600662	-0.439467	-0.217999
C139	C	0.531909	-0.456789	-0.226528
C140	C	0.493093	-0.376128	-0.186656
H141	H	0.608683	-0.354660	-0.231425
H142	H	0.612943	-0.457827	-0.171734
H143	H	0.519632	-0.438420	-0.272783
H144	H	0.523867	-0.541580	-0.213097
H145	H	0.505374	-0.394489	-0.140391
H146	H	0.501120	-0.291326	-0.200086
H147	H	0.446440	-0.387879	-0.192433
H148	H	1.075869	-0.461159	-1.049584
H149	H	0.930802	-0.754010	-0.909262
C150	C	0.919990	-0.775937	-0.690545
C151	C	0.928568	-0.758666	-0.760727
C152	C	0.888673	-0.839300	-0.792881
H153	H	0.873729	-0.757546	-0.679790
H154	H	0.933381	-0.860751	-0.675509
H155	H	0.915173	-0.673870	-0.775757
H156	H	0.974820	-0.777065	-0.771501
H157	H	0.902064	-0.924114	-0.777845
H158	H	0.842414	-0.820902	-0.782121
H159	H	0.894492	-0.827601	-0.840502
H160	H	0.623409	-0.754477	-0.373557
C161	C	0.920005	-0.776269	-0.543006
C162	C	0.939887	-0.901109	-0.555051
C163	C	0.900018	-0.982066	-0.516395
H164	H	0.873751	-0.757970	-0.555300
H165	H	0.925737	-0.764814	-0.496313
H166	H	0.934149	-0.912559	-0.601734
H167	H	0.986135	-0.919447	-0.542754
H168	H	0.905750	-0.970610	-0.469701
H169	H	0.853766	-0.963756	-0.528692
H170	H	0.913507	-1.066778	-0.524557
