data_functionalizedCrystal
_audit_creation_method	'MofGen! by Chris Wilmer'
_symmetry_space_group_name_H-M	'P1'
_symmetry_Int_Tables_number	1
_symmetry_cell_setting	triclinic
loop_
_symmetry_equiv_pos_as_xyz
  x,y,z
_cell_length_a	11.026607
_cell_length_b	27.732048
_cell_length_c	9.482900
_cell_angle_alpha	99.251554
_cell_angle_beta	78.636152
_cell_angle_gamma	95.614336
loop_
_atom_site_label
_atom_site_type_symbol
_atom_site_fract_x
_atom_site_fract_y
_atom_site_fract_z
O1	O	1.625408	0.196163	-0.120955
O2	O	1.272533	0.173153	-0.120950
O3	O	1.459925	0.115249	-0.120925
O4	O	1.438015	0.254067	-0.120980
O5	O	1.421861	0.127071	0.120862
O6	O	1.234468	0.184975	0.120837
O7	O	1.587343	0.207985	0.120832
Cu8	Cu	1.407430	0.197559	0.142912
Cu9	Cu	1.452446	0.183578	-0.143030
O10	O	1.399950	0.265889	0.120807
C11	C	1.208369	0.174819	-0.000055
C12	C	1.073891	0.162164	-0.000052
C13	C	0.999433	0.197105	-0.000067
C14	C	0.860443	0.184027	-0.000064
C15	C	1.440432	0.103112	-0.000028
C16	C	1.439045	0.049333	-0.000016
C17	C	1.541074	-0.280305	-0.000092
C18	C	1.535937	-0.482429	-0.000112
O19	O	1.629234	-0.505292	-0.000177
N20	N	1.424818	-0.511552	-0.000109
C21	C	1.314976	-0.490142	-0.000110
O22	O	1.220347	-0.519552	-0.000123
C23	C	1.320117	-0.288020	-0.000101
C24	C	1.431241	-0.258899	-0.000089
C25	C	1.652189	-0.251184	-0.000082
C26	C	1.653471	-0.200656	-0.000069
C27	C	1.543638	-0.179249	-0.000066
C28	C	1.432523	-0.208371	-0.000076
C29	C	1.210279	-0.266612	-0.000113
C30	C	1.211574	-0.216078	-0.000114
C31	C	1.322698	-0.186957	-0.000102
C32	C	1.323971	-0.136436	-0.000060
N33	N	1.435090	-0.107312	-0.000063
C34	C	1.544923	-0.128719	-0.000066
C35	C	1.312285	-0.596259	-0.000113
C36	C	1.310999	-0.646789	-0.000113
C37	C	1.531960	-0.639072	-0.000117
C38	C	1.533243	-0.588540	-0.000106
C39	C	1.423404	-0.567135	-0.000116
C40	C	1.547607	-0.022606	-0.000037
C41	C	1.548878	0.027926	-0.000018
C42	C	1.327919	0.020204	-0.000022
C43	C	1.326646	-0.030324	-0.000033
C44	C	1.436501	-0.051728	-0.000046
O45	O	1.230726	-0.113540	-0.000011
O46	O	1.639544	-0.099302	-0.000085
C47	C	1.539792	-0.330833	-0.000105
C48	C	1.428677	-0.359955	-0.000115
C49	C	1.318844	-0.338548	-0.000112
C50	C	1.427391	-0.410485	-0.000115
C51	C	1.537224	-0.431892	-0.000117
C52	C	1.648343	-0.402768	-0.000120
C53	C	1.649625	-0.352240	-0.000107
C54	C	1.207725	-0.367672	-0.000109
C55	C	1.206451	-0.418199	-0.000120
C56	C	1.316285	-0.439606	-0.000123
C57	C	1.651507	0.206319	-0.000066
C58	C	1.785986	0.218973	-0.000079
C59	C	1.419444	0.278026	-0.000094
C60	C	1.420833	0.331805	-0.000115
N61	N	1.375777	0.207393	0.344028
N62	N	1.484109	0.173742	-0.344146
C63	C	1.443101	0.186476	0.416236
C64	C	1.416774	0.194662	0.583650
H65	H	1.639372	0.051636	-0.000005
H66	H	1.561239	0.149769	0.593740
O67	O	1.102438	-0.294953	-0.000333
C68	C	1.114791	-0.330517	-0.125587
H69	H	1.217090	-0.336785	-0.167316
H70	H	1.062671	-0.366305	-0.097446
H71	H	1.074600	-0.317220	-0.213279
O72	O	1.098506	-0.446477	-0.000388
C73	C	1.051326	-0.442574	-0.125597
H74	H	1.130111	-0.430700	-0.213107
H75	H	1.006981	-0.479604	-0.167652
H76	H	0.978735	-0.414262	-0.097282
H77	H	0.821304	0.144426	-0.000085
O78	O	1.324824	0.223321	0.657579
C79	C	1.349778	0.271001	0.620500
H80	H	1.413792	0.269588	0.509939
H81	H	1.259191	0.286682	0.615461
H82	H	1.396526	0.295289	0.706115
O83	O	1.654418	-0.043312	0.000020
C84	C	1.752759	-0.006767	-0.000004
H85	H	1.714061	0.030355	0.045775
H86	H	1.818607	-0.015235	0.070197
H87	H	1.805130	-0.005868	-0.115998
H88	H	1.298642	0.231360	0.406147
O89	O	1.218605	-0.058547	-0.000104
C90	C	1.121934	-0.028813	-0.000056
H91	H	1.162446	0.006106	-0.045805
H92	H	1.055353	-0.049534	-0.070271
H93	H	1.069831	-0.018966	0.115942
O94	O	1.046338	0.244317	-0.000143
C95	C	1.174666	0.246866	-0.000099
H96	H	1.212130	0.209531	-0.045864
H97	H	1.224092	0.275212	-0.070301
H98	H	1.191545	0.257917	0.115900
O99	O	0.832766	0.266196	-0.000373
C100	C	0.924691	0.269464	-0.125589
H101	H	0.908970	0.237373	-0.213086
H102	H	0.919356	0.305320	-0.167659
H103	H	1.020078	0.268342	-0.097278
H104	H	1.743960	-0.176949	-0.000065
O105	O	1.027389	0.114903	0.000028
C106	C	1.123613	0.084952	-0.000000
H107	H	1.202060	0.108143	0.045768
H108	H	1.086624	0.055089	0.070207
H109	H	1.159963	0.067404	-0.115995
O110	O	1.759000	-0.271926	-0.000273
C111	C	1.846230	-0.263355	-0.125509
H112	H	1.822304	-0.229808	-0.167267
H113	H	1.942903	-0.256711	-0.097334
H114	H	1.844020	-0.296614	-0.213193
O115	O	1.641261	-0.560287	-0.000367
C116	C	1.727875	-0.576418	-0.125572
H117	H	1.676652	-0.596841	-0.213092
H118	H	1.785459	-0.543495	-0.167613
H119	H	1.791550	-0.601963	-0.097258
O120	O	1.638556	-0.659953	-0.000196
C121	C	1.613572	-0.710794	-0.000165
H122	H	1.525643	-0.723239	-0.045919
H123	H	1.694676	-0.730969	-0.070383
H124	H	1.600197	-0.719287	0.115829
O125	O	1.202954	-0.675006	-0.000172
C126	C	1.106292	-0.645268	-0.000137
H127	H	1.146814	-0.610355	-0.045908
H128	H	1.039702	-0.665991	-0.070337
H129	H	1.054196	-0.635413	0.115861
O130	O	1.205628	-0.575403	0.000081
C131	C	1.180022	-0.540297	0.125323
H132	H	1.269562	-0.527334	0.167067
H133	H	1.138587	-0.507776	0.097162
H134	H	1.111213	-0.557394	0.213012
H135	H	1.122128	-0.198654	-0.000123
O136	O	1.101075	-0.346815	0.000092
C137	C	1.075471	-0.311713	0.125344
H138	H	1.165012	-0.298751	0.167088
H139	H	1.034034	-0.279190	0.097195
H140	H	1.006662	-0.328813	0.213028
H141	H	1.238495	0.037643	-0.000014
O142	O	1.535277	0.157926	0.342332
C143	C	1.649333	0.177928	0.379398
H144	H	1.631628	0.201905	0.489931
H145	H	1.708662	0.147037	0.384492
H146	H	1.699936	0.201015	0.293746
H147	H	1.740114	-0.328533	-0.000098
O148	O	1.755046	-0.423603	-0.000385
C149	C	1.780593	-0.458724	-0.125599
H150	H	1.732066	-0.449954	-0.213113
H151	H	1.884906	-0.457945	-0.167641
H152	H	1.745468	-0.496673	-0.097295
