data_functionalizedCrystal
_audit_creation_method	'MofGen! by Chris Wilmer'
_symmetry_space_group_name_H-M	'P1'
_symmetry_Int_Tables_number	1
_symmetry_cell_setting	triclinic
loop_
_symmetry_equiv_pos_as_xyz
  x,y,z
_cell_length_a	18.050591
_cell_length_b	18.101395
_cell_length_c	18.101389
_cell_angle_alpha	89.983159
_cell_angle_beta	90.025013
_cell_angle_gamma	89.972890
loop_
_atom_site_label
_atom_site_type_symbol
_atom_site_fract_x
_atom_site_fract_y
_atom_site_fract_z
Zn1	Zn	1.135308	0.294986	0.418860
Zn2	Zn	1.635308	0.794986	0.918860
Zn3	Zn	1.135203	0.418812	0.295022
Zn4	Zn	1.635203	0.918812	0.795022
Zn5	Zn	1.011118	0.294980	0.295020
Zn6	Zn	1.511118	0.794980	0.795020
Zn7	Zn	1.011069	0.418782	0.418809
Zn8	Zn	1.511069	0.918782	0.918809
O9	O	1.073174	0.356890	0.356928
O10	O	1.573174	0.856890	0.856928
O11	O	1.239218	0.311427	0.402455
O12	O	1.739218	0.811427	0.902455
O13	O	1.118720	0.402395	0.191389
O14	O	1.618720	0.902395	0.691389
O15	O	1.027656	0.191348	0.311468
O16	O	1.527656	0.691348	0.811468
O17	O	1.239142	0.402401	0.311472
O18	O	1.739142	0.902401	0.811472
O19	O	1.118898	0.191352	0.402453
O20	O	1.618898	0.691352	0.902453
O21	O	1.027555	0.311417	0.191387
O22	O	1.527555	0.811417	0.691387
O23	O	0.907187	0.311387	0.311419
O24	O	1.407187	0.811387	0.811419
O25	O	1.027572	0.402350	0.522449
O26	O	1.527572	0.902350	1.022449
O27	O	0.907151	0.402344	0.402366
O28	O	1.407151	0.902344	0.902366
O29	O	1.118850	0.311398	0.522487
O30	O	1.618850	0.811398	1.022487
O31	O	1.118672	0.522441	0.311422
O32	O	1.618672	1.022441	0.811422
O33	O	1.027471	0.522419	0.402368
O34	O	1.527471	1.022419	0.902368
C35	C	0.880222	0.356862	0.356887
C36	C	1.380222	0.856862	0.856887
C37	C	0.797676	0.356868	0.356887
C38	C	1.297676	0.856868	0.856887
C39	C	1.073075	0.549301	0.356906
C40	C	1.573075	1.049301	0.856906
C41	C	1.073100	0.631615	0.356922
C42	C	1.573100	1.131615	0.856922
C43	C	1.073217	0.356871	0.550090
C44	C	1.573217	0.856871	1.050090
C45	C	1.073236	0.356863	0.632404
C46	C	1.573236	0.856863	1.132404
C47	C	0.598224	0.307349	0.307544
C48	C	1.098224	0.807349	0.807544
C49	C	0.548800	0.374893	0.289321
C50	C	1.048800	0.874893	0.789321
C51	C	0.646546	0.356891	0.356921
C52	C	1.146546	0.856891	0.856921
C53	C	0.548889	0.289370	0.375142
C54	C	1.048889	0.789370	0.875142
C55	C	0.500561	0.356907	0.356952
C56	C	1.000561	0.856907	0.856952
C57	C	0.598209	0.424471	0.338662
C58	C	1.098209	0.924471	0.838662
C59	C	0.598302	0.338902	0.424515
C60	C	1.098302	0.838902	0.924515
C61	C	0.548900	0.406493	0.406317
C62	C	1.048900	0.906493	0.906317
C63	C	0.730644	0.356881	0.356901
C64	C	1.230644	0.856881	0.856901
C65	C	0.416464	0.356924	0.356971
C66	C	0.916464	0.856924	0.856971
C67	C	1.266880	0.356918	0.356970
C68	C	1.766880	0.856918	0.856970
C69	C	1.349426	0.356930	0.356987
C70	C	1.849426	0.856930	0.856987
C71	C	1.073294	0.163728	0.356966
C72	C	1.573294	0.663728	0.856966
C73	C	1.073345	0.081414	0.356982
C74	C	1.573345	0.581414	0.856982
C75	C	1.073263	0.930706	0.356962
C76	C	1.573263	1.430706	0.856962
C77	C	1.016015	0.899397	0.414324
C78	C	1.516015	1.399397	0.914324
C79	C	1.015743	0.813779	0.414145
C80	C	1.515743	1.313779	0.914145
C81	C	1.073182	0.782323	0.356942
C82	C	1.573182	1.282323	0.856942
C83	C	1.051994	0.813459	0.278891
C84	C	1.551994	1.313459	0.778891
C85	C	1.051625	0.899104	0.279234
C86	C	1.551625	1.399104	0.779234
C87	C	1.151826	0.899058	0.376964
C88	C	1.651826	1.399058	0.876964
C89	C	1.151364	0.813408	0.378675
C90	C	1.651364	1.313408	0.878675
C91	C	1.073138	0.698464	0.356927
C92	C	1.573138	1.198464	0.856927
C93	C	1.073306	1.014565	0.356972
C94	C	1.573306	1.514565	0.856972
C95	C	1.073174	0.356855	0.164518
C96	C	1.573174	0.856855	0.664518
C97	C	1.073300	0.356655	0.082204
C98	C	1.573300	0.856655	0.582204
C99	C	1.073279	0.356724	0.931495
C100	C	1.573279	0.856724	1.431495
C101	C	1.015652	0.413767	0.900146
C102	C	1.515652	0.913767	1.400146
C103	C	1.015807	0.414032	0.814528
C104	C	1.515807	0.914032	1.314528
C105	C	1.073257	0.356793	0.783113
C106	C	1.573257	0.856793	1.283113
C107	C	1.151502	0.377983	0.814220
C108	C	1.651502	0.877983	1.314220
C109	C	1.151181	0.378357	0.899865
C110	C	1.651181	0.878357	1.399865
C111	C	1.053341	0.278365	0.899917
C112	C	1.553341	0.778365	1.399917
C113	C	1.051600	0.278818	0.814266
C114	C	1.551600	0.778818	1.314266
C115	C	1.073249	0.356831	0.699253
C116	C	1.573249	0.856831	1.199253
C117	C	1.073292	0.356689	1.015355
C118	C	1.573292	0.856689	1.515355
H119	H	0.619881	0.265498	0.265742
H120	H	1.119881	0.765498	0.765742
C121	C	1.209448	0.926413	0.320525
C122	C	1.709448	1.426413	0.820525
N123	N	1.252843	0.947022	0.278015
N124	N	1.752843	1.447022	0.778015
H125	H	0.527057	0.390120	0.232171
H126	H	1.027057	0.890120	0.732171
C127	C	0.519623	0.212219	0.395948
C128	C	1.019623	0.712219	0.895948
N129	N	0.497584	0.154107	0.411614
N130	N	0.997584	0.654107	0.911614
C131	C	0.937027	0.396033	0.927948
C132	C	1.437027	0.896033	1.427948
N133	N	0.877805	0.382675	0.948894
N134	N	1.377805	0.882675	1.448894
C135	C	0.519818	0.463166	0.462742
C136	C	1.019818	0.963166	0.962742
N137	N	0.497910	0.505855	0.505238
N138	N	0.997910	1.005855	1.005238
C139	C	1.105503	0.927087	0.219519
C140	C	1.605503	1.427087	0.719519
N141	N	1.146079	0.948161	0.174538
N142	N	1.646079	1.448161	0.674538
C143	C	0.627352	0.501643	0.317765
C144	C	1.127352	1.001643	0.817765
N145	N	0.649305	0.559767	0.302021
N146	N	1.149305	1.059767	0.802021
C147	C	1.177921	0.928179	0.452547
C148	C	1.677921	1.428179	0.952547
N149	N	1.197568	0.950113	0.509480
N150	N	1.697568	1.450113	1.009480
C151	C	1.172969	0.785882	0.456261
C152	C	1.672969	1.285882	0.956261
N153	N	1.189245	0.765136	0.514694
N154	N	1.689245	1.265136	1.014694
C155	C	1.211068	0.323623	0.786729
C156	C	1.711068	0.823623	1.286729
N157	N	1.255933	0.282678	0.766021
N158	N	1.755933	0.782678	1.266021
H159	H	1.095315	0.235866	0.920192
H160	H	1.595315	0.735866	1.420192
H161	H	0.620063	0.323654	0.481647
H162	H	1.120063	0.823654	0.981647
C163	C	0.973826	0.257212	0.786767
C164	C	1.473826	0.757212	1.286767
N165	N	0.915251	0.240935	0.766040
N166	N	1.415251	0.740935	1.266040
C167	C	0.975228	0.784567	0.255594
C168	C	1.475228	1.284567	0.755594
N169	N	0.917406	0.762808	0.238051
N170	N	1.417406	1.262808	0.738051
H171	H	1.028970	0.472114	0.794048
H172	H	1.528970	0.972114	1.294048
H173	H	1.196273	0.791991	0.339941
H174	H	1.696273	1.291991	0.839941
H175	H	0.994196	0.919140	0.262291
H176	H	1.494196	1.419140	0.762291
C177	C	1.033740	0.927178	0.492764
C178	C	1.533740	1.427178	0.992764
N179	N	1.047091	0.948109	0.551847
N180	N	1.547091	1.448109	1.051847
H181	H	1.195573	0.338614	0.920605
H182	H	1.695573	0.838614	1.420605
C183	C	1.174008	0.455744	0.926866
C184	C	1.674008	0.955744	1.426866
N185	N	1.191199	0.514034	0.947199
N186	N	1.691199	1.014034	1.447199
H187	H	1.029000	0.792727	0.472019
H188	H	1.529000	1.292727	0.972019
H189	H	0.957785	0.400771	0.793495
H190	H	1.457785	0.900771	1.293495
H191	H	1.028684	0.471495	0.921674
H192	H	1.528684	0.971495	1.421674
C193	C	1.174729	0.454548	0.785261
C194	C	1.674729	0.954548	1.285261
N195	N	1.192220	0.512219	0.763451
N196	N	1.692220	1.012219	1.263451
H197	H	1.090511	0.234062	0.792881
H198	H	1.590511	0.734062	1.292881
H199	H	0.958137	0.920977	0.401241
H200	H	1.458137	1.420977	0.901241
H201	H	0.997277	0.259061	0.921502
H202	H	1.497277	0.759061	1.421502
H203	H	0.957511	0.793350	0.400895
H204	H	1.457511	1.293350	0.900895
H205	H	1.092379	0.793083	0.234985
H206	H	1.592379	1.293083	0.734985
