data_functionalizedCrystal
_audit_creation_method	'MofGen! by Chris Wilmer'
_symmetry_space_group_name_H-M	'P1'
_symmetry_Int_Tables_number	1
_symmetry_cell_setting	triclinic
loop_
_symmetry_equiv_pos_as_xyz
  x,y,z
_cell_length_a	10.654545
_cell_length_b	11.792241
_cell_length_c	9.730223
_cell_angle_alpha	90.003969
_cell_angle_beta	90.002141
_cell_angle_gamma	84.338247
loop_
_atom_site_label
_atom_site_type_symbol
_atom_site_fract_x
_atom_site_fract_y
_atom_site_fract_z
O1	O	1.667390	0.159394	0.114277
O2	O	2.167390	0.659394	0.614277
O3	O	1.301868	0.174588	0.114283
O4	O	1.801868	0.674588	0.614283
O5	O	1.493499	0.001841	0.114270
O6	O	1.993499	0.501841	0.614270
O7	O	1.475759	0.332141	0.114290
O8	O	1.975759	0.832141	0.614290
O9	O	1.493489	0.001838	-0.114310
O10	O	1.993489	0.501838	0.385690
O11	O	1.301858	0.174585	-0.114297
O12	O	1.801858	0.674585	0.385703
O13	O	1.667380	0.159391	-0.114303
O14	O	2.167380	0.659391	0.385697
Zn15	Zn	1.484618	0.166988	-0.150592
Zn16	Zn	1.984618	0.666988	0.349408
Zn17	Zn	1.484631	0.166992	0.150572
Zn18	Zn	1.984631	0.666992	0.650572
O19	O	1.475749	0.332138	-0.114290
O20	O	1.975749	0.832138	0.385710
C21	C	1.255068	0.173472	-0.000007
C22	C	1.755068	0.673472	0.499993
C23	C	1.115634	0.170138	-0.000005
C24	C	1.615634	0.670138	0.499995
C25	C	1.050129	0.168566	-0.124604
C26	C	1.550129	0.668566	0.375396
C27	C	0.919118	0.165414	-0.124605
C28	C	1.419118	0.665414	0.375395
C29	C	0.919130	0.165410	0.124606
C30	C	1.419130	0.665410	0.624606
C31	C	1.050139	0.168554	0.124604
C32	C	1.550139	0.668554	0.624604
C33	C	1.492380	-0.040454	-0.000020
C34	C	1.992380	0.459546	0.499980
C35	C	1.489045	-0.166475	-0.000018
C36	C	1.989045	0.333525	0.499982
C37	C	1.482911	-0.397202	0.000005
C38	C	1.982911	0.102798	0.500005
C39	C	1.486319	-0.268809	-0.000008
C40	C	1.986319	0.231191	0.499992
C41	C	1.714180	0.160507	-0.000011
C42	C	2.214180	0.660507	0.499989
C43	C	1.853614	0.163842	-0.000004
C44	C	2.353614	0.663842	0.499996
C45	C	1.476868	0.374433	0.000002
C46	C	1.976868	0.874433	0.500002
C47	C	1.480204	0.500455	0.000010
C48	C	1.980204	1.000455	0.500010
N49	N	1.484618	0.166984	-0.356129
N50	N	1.984618	0.666984	0.143871
C51	C	1.569507	0.090521	-0.571952
C52	C	2.069507	0.590521	-0.071952
C53	C	1.569499	0.090522	-0.428069
C54	C	2.069499	0.590522	0.071931
C55	C	1.399747	0.243458	-0.428078
C56	C	1.899747	0.743458	0.071922
C57	C	1.399762	0.243461	-0.571958
C58	C	1.899762	0.743461	-0.071958
N59	N	1.484641	0.166986	0.356108
N60	N	1.984641	0.666986	0.856108
H61	H	1.103475	0.169830	0.226075
H62	H	1.603475	0.669830	0.726075
H63	H	0.865789	0.164135	-0.226066
H64	H	1.365789	0.664135	0.273934
H65	H	1.638622	0.028252	-0.630517
H66	H	2.138622	0.528252	-0.130517
H67	H	1.330639	0.305721	-0.369496
H68	H	1.830639	0.805721	0.130504
H69	H	1.638607	0.028259	-0.369500
H70	H	2.138607	0.528259	0.130500
H71	H	0.865787	0.164122	0.226058
H72	H	1.365787	0.664122	0.726058
O73	O	1.308256	0.325967	-0.649567
O74	O	1.808256	0.825967	-0.149567
H75	H	1.249231	0.379144	-0.575378
H76	H	1.749231	0.879144	-0.075378
H77	H	1.103451	0.169856	-0.226069
H78	H	1.603451	0.669856	0.273931
