data_functionalizedCrystal
_audit_creation_method	'MofGen! by Chris Wilmer'
_symmetry_space_group_name_H-M	'P1'
_symmetry_Int_Tables_number	1
_symmetry_cell_setting	triclinic
loop_
_symmetry_equiv_pos_as_xyz
  x,y,z
_cell_length_a	23.532355
_cell_length_b	22.010155
_cell_length_c	15.944551
_cell_angle_alpha	89.990023
_cell_angle_beta	83.163118
_cell_angle_gamma	89.995928
loop_
_atom_site_label
_atom_site_type_symbol
_atom_site_fract_x
_atom_site_fract_y
_atom_site_fract_z
O1	O	0.755672	0.050444	0.101738
O2	O	1.089005	0.383777	0.435071
O3	O	1.422339	0.717111	0.768405
O4	O	0.589862	0.050463	0.116537
O5	O	0.923195	0.383797	0.449870
O6	O	1.256529	0.717130	0.783204
O7	O	0.677295	0.050448	-0.013177
O8	O	1.010628	0.383781	0.320156
O9	O	1.343962	0.717114	0.653490
O10	O	0.668239	0.050460	0.231452
O11	O	1.001572	0.383793	0.564785
O12	O	1.334906	0.717126	0.898118
O13	O	0.677289	-0.050603	-0.013143
O14	O	1.010622	0.282731	0.320190
O15	O	1.343956	0.616064	0.653524
O16	O	0.589856	-0.050587	0.116571
O17	O	0.923189	0.282746	0.449904
O18	O	1.256522	0.616080	0.783237
O19	O	0.755666	-0.050606	0.101772
O20	O	1.088999	0.282727	0.435105
O21	O	1.422333	0.616060	0.768439
Cu22	Cu	0.672760	-0.059823	0.109174
Cu23	Cu	1.006094	0.273510	0.442508
Cu24	Cu	1.339427	0.606843	0.775841
Cu25	Cu	0.672768	0.059680	0.109134
Cu26	Cu	1.006101	0.393014	0.442468
Cu27	Cu	1.339434	0.726347	0.775801
O28	O	0.668233	-0.050591	0.231486
O29	O	1.001566	0.282743	0.564819
O30	O	1.334900	0.616076	0.898152
C31	C	0.568641	-0.000059	0.116184
C32	C	0.901974	0.333274	0.449517
C33	C	1.235308	0.666607	0.782851
C34	C	0.505418	-0.000052	0.115072
C35	C	0.838751	0.333281	0.448405
C36	C	1.172085	0.666615	0.781738
C37	C	0.113374	-0.055160	0.108102
C38	C	0.446707	0.278173	0.441436
C39	C	0.780040	0.611506	0.774769
C40	C	0.053970	-0.055163	0.107044
C41	C	0.387304	0.278171	0.440377
C42	C	0.720637	0.611504	0.773711
O43	O	0.023247	-0.102008	0.106484
O44	O	0.356580	0.231325	0.439817
O45	O	0.689913	0.564659	0.773151
N46	N	0.024263	-0.000081	0.106501
N47	N	0.357596	0.333253	0.439834
N48	N	0.690930	0.666586	0.773168
C49	C	0.053963	0.055008	0.107007
C50	C	0.387296	0.388341	0.440341
C51	C	0.720630	0.721674	0.773674
O52	O	0.023240	0.101859	0.106447
O53	O	0.356574	0.435193	0.439781
O54	O	0.689907	0.768526	0.773114
C55	C	0.113366	0.055010	0.108059
C56	C	0.446699	0.388343	0.441393
C57	C	0.780033	0.721676	0.774726
C58	C	0.143069	-0.000076	0.108611
C59	C	0.476403	0.333257	0.441944
C60	C	0.809736	0.666590	0.775278
C61	C	0.143077	-0.110242	0.108653
C62	C	0.476411	0.223091	0.441986
C63	C	0.809744	0.556425	0.775320
C64	C	0.202476	-0.110239	0.109713
C65	C	0.535810	0.223094	0.443046
C66	C	0.869143	0.556427	0.776379
C67	C	0.232172	-0.055155	0.110222
C68	C	0.565506	0.278178	0.443555
C69	C	0.898839	0.611512	0.776888
C70	C	0.202469	-0.000074	0.109671
C71	C	0.535802	0.333260	0.443004
C72	C	0.869135	0.666593	0.776337
C73	C	0.143066	0.110097	0.108560
C74	C	0.476399	0.443431	0.441893
C75	C	0.809732	0.776764	0.775226
C76	C	0.202473	0.110094	0.109611
C77	C	0.535806	0.443428	0.442945
C78	C	0.869139	0.776761	0.776278
C79	C	0.232176	0.055008	0.110163
C80	C	0.565509	0.388342	0.443496
C81	C	0.898843	0.721675	0.776830
C82	C	0.291564	0.055013	0.111239
C83	C	0.624897	0.388346	0.444573
C84	C	0.958230	0.721680	0.777906
N85	N	0.321271	-0.000069	0.111782
N86	N	0.654604	0.333264	0.445116
N87	N	0.987938	0.666597	0.778449
C88	C	0.291575	-0.055153	0.111274
C89	C	0.624909	0.278180	0.444607
C90	C	0.958242	0.611513	0.777940
C91	C	-0.070787	0.055000	0.104796
C92	C	0.262546	0.388333	0.438130
C93	C	0.595880	0.721667	0.771463
C94	C	-0.130189	0.054999	0.103750
C95	C	0.203144	0.388332	0.437084
C96	C	0.536477	0.721665	0.770417
C97	C	-0.130178	-0.055172	0.103786
C98	C	0.203155	0.278161	0.437119
C99	C	0.536489	0.611495	0.770452
C100	C	-0.070775	-0.055170	0.104838
C101	C	0.262558	0.278163	0.438171
C102	C	0.595892	0.611496	0.771504
C103	C	-0.041080	-0.000082	0.105340
C104	C	0.292254	0.333251	0.438673
C105	C	0.625587	0.666584	0.772006
C106	C	0.416318	-0.055144	0.113500
C107	C	0.749651	0.278190	0.446833
C108	C	1.082985	0.611523	0.780166
C109	C	0.475722	-0.055136	0.114563
C110	C	0.809055	0.278197	0.447896
C111	C	1.142389	0.611530	0.781230
C112	C	0.475706	0.055034	0.114523
C113	C	0.809039	0.388368	0.447856
C114	C	1.142373	0.721701	0.781190
C115	C	0.416307	0.055027	0.113464
C116	C	0.749640	0.388360	0.446798
C117	C	1.082973	0.721694	0.780131
C118	C	0.386614	-0.000067	0.112950
C119	C	0.719948	0.333267	0.446283
C120	C	1.053281	0.666600	0.779617
O121	O	0.322325	0.101834	0.111796
O122	O	0.655659	0.435167	0.445130
O123	O	0.988992	0.768501	0.778463
O124	O	0.322306	-0.101997	0.111823
O125	O	0.655640	0.231336	0.445156
O126	O	0.988973	0.564670	0.778489
N127	N	0.672759	-0.143876	0.109202
N128	N	1.006093	0.189457	0.442536
N129	N	1.339426	0.522791	0.775869
C130	C	0.634031	-0.436481	0.166573
C131	C	0.967364	-0.103148	0.499906
C132	C	1.300697	0.230186	0.833239
C133	C	0.634029	-0.372873	0.166580
C134	C	0.967363	-0.039540	0.499914
C135	C	1.300696	0.293793	0.833247
O136	O	0.601084	-0.339976	0.215393
O137	O	0.934417	-0.006643	0.548727
O138	O	1.267751	0.326691	0.882060
N139	N	0.672755	-0.341060	0.109170
N140	N	1.006088	-0.007727	0.442504
N141	N	1.339422	0.325607	0.775837
C142	C	0.711481	-0.372858	0.051743
C143	C	1.044814	-0.039524	0.385077
C144	C	1.378147	0.293809	0.718410
O145	O	0.744419	-0.339958	0.002912
O146	O	1.077753	-0.006624	0.336245
O147	O	1.411086	0.326709	0.669579
C148	C	0.711479	-0.436464	0.051732
C149	C	1.044812	-0.103131	0.385066
C150	C	1.378146	0.230202	0.718399
C151	C	0.672755	-0.468274	0.109152
C152	C	1.006088	-0.134941	0.442485
C153	C	1.339421	0.198393	0.775819
C154	C	0.595309	-0.468291	0.223987
C155	C	0.928643	-0.134958	0.557320
C156	C	1.261976	0.198376	0.890653
C157	C	0.595311	-0.531894	0.223980
C158	C	0.928645	-0.198561	0.557313
C159	C	1.261978	0.134773	0.890647
C160	C	0.634035	-0.563687	0.166559
C161	C	0.967369	-0.230354	0.499892
C162	C	1.300702	0.102979	0.833226
C163	C	0.672757	-0.531877	0.109145
C164	C	1.006090	-0.198544	0.442478
C165	C	1.339424	0.134789	0.775812
C166	C	0.750202	-0.468261	-0.005698
C167	C	1.083535	-0.134927	0.327636
C168	C	1.416868	0.198406	0.660969
C169	C	0.750196	-0.531872	-0.005704
C170	C	1.083530	-0.198538	0.327629
C171	C	1.416863	0.134795	0.660963
C172	C	0.711472	-0.563681	0.051715
C173	C	1.044805	-0.230348	0.385049
C174	C	1.378139	0.102985	0.718382
C175	C	0.711483	-0.627274	0.051718
C176	C	1.044817	-0.293941	0.385051
C177	C	1.378150	0.039393	0.718384
N178	N	0.672758	-0.659087	0.109127
N179	N	1.006091	-0.325754	0.442461
N180	N	1.339424	0.007580	0.775794
C181	C	0.634034	-0.627294	0.166548
C182	C	0.967367	-0.293960	0.499882
C183	C	1.300700	0.039373	0.833215
C184	C	0.711481	-0.239280	0.051770
C185	C	1.044814	0.094053	0.385103
C186	C	1.378147	0.427387	0.718436
C187	C	0.711486	-0.175675	0.051784
C188	C	1.044819	0.157659	0.385117
C189	C	1.378152	0.490992	0.718451
C190	C	0.634033	-0.175695	0.166620
C191	C	0.967367	0.157639	0.499953
C192	C	1.300700	0.490972	0.833287
C193	C	0.634032	-0.239301	0.166609
C194	C	0.967365	0.094032	0.499942
C195	C	1.300698	0.427366	0.833276
C196	C	0.672755	-0.271093	0.109180
C197	C	1.006088	0.062240	0.442513
C198	C	1.339422	0.395573	0.775846
C199	C	0.634042	-0.760865	0.166530
C200	C	0.967375	-0.427532	0.499864
C201	C	1.300708	-0.094198	0.833197
C202	C	0.634049	-0.824474	0.166521
C203	C	0.967382	-0.491141	0.499854
C204	C	1.300716	-0.157807	0.833187
C205	C	0.711499	-0.824449	0.051682
C206	C	1.044832	-0.491115	0.385015
C207	C	1.378166	-0.157782	0.718349
C208	C	0.711494	-0.760845	0.051694
C209	C	1.044827	-0.427512	0.385028
C210	C	1.378161	-0.094179	0.718361
C211	C	0.672761	-0.729055	0.109121
C212	C	1.006094	-0.395722	0.442455
C213	C	1.339427	-0.062388	0.775788
O214	O	0.744410	-0.660212	0.002927
O215	O	1.077743	-0.326878	0.336261
O216	O	1.411077	0.006455	0.669594
O217	O	0.601095	-0.660202	0.215364
O218	O	0.934429	-0.326868	0.548697
O219	O	1.267762	0.006465	0.882031
C220	C	0.776887	-0.000082	0.102125
C221	C	1.110220	0.333251	0.435458
C222	C	1.443554	0.666584	0.768791
C223	C	0.840110	-0.000086	0.103237
C224	C	1.173443	0.333248	0.436570
C225	C	1.506777	0.666581	0.769904
C226	C	0.676916	-0.000078	-0.044451
C227	C	1.010249	0.333256	0.288883
C228	C	1.343583	0.666589	0.622216
C229	C	0.675789	-0.000078	-0.137687
C230	C	1.009122	0.333255	0.195647
C231	C	1.342456	0.666589	0.528980
N232	N	0.672773	0.143733	0.109100
N233	N	1.006106	0.477066	0.442433
N234	N	1.339440	0.810399	0.775767
C235	C	0.618900	-0.000063	-0.352049
C236	C	0.952233	0.333271	-0.018715
C237	C	1.285566	0.666604	0.314618
C238	C	0.645314	-0.049890	-0.413279
C239	C	0.978648	0.283444	-0.079946
C240	C	1.311981	0.616777	0.253388
C241	C	0.673750	-0.000073	-0.308395
C242	C	1.007083	0.333260	0.024938
C243	C	1.340417	0.666594	0.358272
C244	C	0.645333	0.049738	-0.413296
C245	C	0.978666	0.383071	-0.079963
C246	C	1.312000	0.716405	0.253371
C247	C	0.671776	-0.000066	-0.473290
C248	C	1.005110	0.333268	-0.139957
C249	C	1.338443	0.666601	0.193376
C250	C	0.700179	-0.049941	-0.368397
C251	C	1.033513	0.283392	-0.035064
C252	C	1.366846	0.616726	0.298269
C253	C	0.700191	0.049731	-0.368408
C254	C	1.033524	0.383065	-0.035075
C255	C	1.366857	0.716398	0.298259
C256	C	0.726645	-0.000108	-0.429621
C257	C	1.059978	0.333225	-0.096288
C258	C	1.393312	0.666559	0.237046
C259	C	0.674885	-0.000078	-0.213402
C260	C	1.008219	0.333256	0.119931
C261	C	1.341552	0.666589	0.453264
C262	C	0.670645	-0.000065	-0.568282
C263	C	1.003979	0.333268	-0.234948
C264	C	1.337312	0.666602	0.098385
C265	C	0.668612	-0.000064	0.262759
C266	C	1.001945	0.333269	0.596093
C267	C	1.335279	0.666603	0.929426
C268	C	0.669739	-0.000060	0.355995
C269	C	1.003072	0.333273	0.689329
C270	C	1.336406	0.666607	1.022662
H271	H	0.226656	-0.155096	0.110157
H272	H	0.559989	0.178237	0.443490
H273	H	0.893323	0.511571	0.776823
Cl274	Cl	0.548609	-0.000127	-0.300012
Cl275	Cl	0.881942	0.333206	0.033321
Cl276	Cl	1.215275	0.666539	0.366655
H277	H	-0.046595	-0.100026	0.105288
H278	H	0.286739	0.233307	0.438621
H279	H	0.620072	0.566640	0.771954
Cl280	Cl	0.513049	0.124279	0.115158
Cl281	Cl	0.846383	0.457612	0.448491
Cl282	Cl	1.179716	0.790946	0.781824
Cl283	Cl	0.735965	-0.115050	-0.337829
Cl284	Cl	1.069298	0.218283	-0.004495
Cl285	Cl	1.402632	0.551617	0.328838
H286	H	-0.046613	0.099862	0.105213
H287	H	0.286720	0.433195	0.438546
H288	H	0.620053	0.766529	0.771880
H289	H	0.772213	-0.000141	-0.463176
H290	H	1.105546	0.333192	-0.129843
H291	H	1.438880	0.666525	0.203491
Cl292	Cl	0.609494	-0.114919	-0.443992
Cl293	Cl	0.942827	0.218414	-0.110659
Cl294	Cl	1.276161	0.551747	0.222674
H295	H	0.118891	0.154954	0.108110
H296	H	0.452225	0.488288	0.441443
H297	H	0.785558	0.821621	0.774776
H298	H	0.723373	0.091853	-0.348493
H299	H	1.056706	0.425186	-0.015160
H300	H	1.390039	0.758520	0.318173
H301	H	0.499904	-0.099996	0.115015
H302	H	0.833237	0.233338	0.448348
H303	H	1.166570	0.566671	0.781682
H304	H	0.602501	-0.734989	0.213292
H305	H	0.935834	-0.401655	0.546625
H306	H	1.269167	-0.068322	0.879958
H307	H	0.563777	-0.557790	0.270733
H308	H	0.897111	-0.224457	0.604067
H309	H	1.230444	0.108877	0.937400
Cl310	Cl	0.379000	-0.124406	0.112853
Cl311	Cl	0.712333	0.208928	0.446186
Cl312	Cl	1.045666	0.542261	0.779519
Cl313	Cl	0.105756	-0.179500	0.108018
Cl314	Cl	0.439089	0.153833	0.441352
Cl315	Cl	0.772422	0.487167	0.774685
H316	H	0.743025	-0.149779	0.005037
H317	H	1.076358	0.183554	0.338370
H318	H	1.409691	0.516887	0.671703
H319	H	0.602515	-0.850372	0.213281
H320	H	0.935848	-0.517038	0.546615
H321	H	1.269182	-0.183705	0.879948
Cl322	Cl	0.546621	-0.428333	0.296183
Cl323	Cl	0.879955	-0.094999	0.629516
Cl324	Cl	1.213288	0.238334	0.962849
Cl325	Cl	0.585347	-0.279284	0.238794
Cl326	Cl	0.918680	0.054050	0.572127
Cl327	Cl	1.252013	0.387383	0.905461
Cl328	Cl	0.585351	-0.135713	0.238804
Cl329	Cl	0.918684	0.197621	0.572138
Cl330	Cl	1.252017	0.530954	0.905471
H331	H	-0.154367	-0.100025	0.103370
H332	H	0.178966	0.233309	0.436703
H333	H	0.512300	0.566642	0.770036
H334	H	0.743019	-0.265162	0.005006
H335	H	1.076352	0.068171	0.338339
H336	H	1.409685	0.401505	0.671672
Cl337	Cl	-0.167525	0.124253	0.103074
Cl338	Cl	0.165808	0.457586	0.436407
Cl339	Cl	0.499142	0.790919	0.769740
H340	H	0.622129	0.091866	-0.433185
H341	H	0.955462	0.425199	-0.099852
H342	H	1.288796	0.758532	0.233482
H343	H	0.226648	0.154955	0.110020
H344	H	0.559981	0.488288	0.443354
H345	H	0.893314	0.821621	0.776687
H346	H	0.392120	0.099883	0.113029
H347	H	0.725453	0.433216	0.446362
H348	H	1.058786	0.766549	0.779695
Cl349	Cl	0.798880	-0.571834	-0.077908
Cl350	Cl	1.132213	-0.238501	0.255426
Cl351	Cl	1.465546	0.094833	0.588759
Cl352	Cl	0.798884	-0.428284	-0.077887
Cl353	Cl	1.132218	-0.094951	0.255446
Cl354	Cl	1.465551	0.238383	0.588779
H355	H	0.743032	-0.734945	0.004946
H356	H	1.076366	-0.401612	0.338280
H357	H	1.409699	-0.068278	0.671613
Cl358	Cl	0.760179	-0.864427	-0.020501
Cl359	Cl	1.093512	-0.531094	0.312833
Cl360	Cl	1.426846	-0.197761	0.646166
