data_functionalizedCrystal
_audit_creation_method	'MofGen! by Chris Wilmer'
_symmetry_space_group_name_H-M	'P1'
_symmetry_Int_Tables_number	1
_symmetry_cell_setting	triclinic
loop_
_symmetry_equiv_pos_as_xyz
  x,y,z
_cell_length_a	12.759401
_cell_length_b	29.839131
_cell_length_c	12.759393
_cell_angle_alpha	90.032646
_cell_angle_beta	90.020938
_cell_angle_gamma	90.043227
loop_
_atom_site_label
_atom_site_type_symbol
_atom_site_fract_x
_atom_site_fract_y
_atom_site_fract_z
Zn1	Zn	1.606069	-0.178813	0.594004
Zn2	Zn	1.605878	-0.253950	0.418318
Zn3	Zn	1.430368	-0.178837	0.418340
Zn4	Zn	1.430277	-0.253919	0.593955
O5	O	1.518148	-0.216380	0.506154
O6	O	1.753065	-0.188784	0.570711
O7	O	1.582554	-0.244010	0.271300
O8	O	1.453793	-0.115967	0.441672
O9	O	1.752924	-0.243986	0.441635
O10	O	1.582880	-0.115949	0.570732
O11	O	1.453608	-0.188824	0.271316
O12	O	1.283335	-0.188794	0.441624
O13	O	1.453639	-0.243933	0.740983
O14	O	1.283268	-0.243956	0.570648
O15	O	1.582792	-0.188753	0.741019
O16	O	1.582466	-0.316813	0.441587
O17	O	1.453453	-0.316790	0.570627
C18	C	1.245181	-0.216375	0.506133
C19	C	1.128404	-0.216383	0.506149
C20	C	1.073535	-0.245150	0.573226
C21	C	0.963811	-0.245151	0.573247
C22	C	0.963835	-0.187618	0.439105
C23	C	1.073557	-0.187615	0.439090
C24	C	0.813897	-0.261271	0.697106
C25	C	0.759024	-0.290045	0.764174
C26	C	0.794573	-0.333888	0.780118
C27	C	0.884994	-0.348966	0.728979
C28	C	0.939861	-0.320195	0.661903
C29	C	0.904313	-0.276346	0.645979
C30	C	1.223473	-0.171499	0.315230
C31	C	1.278342	-0.142730	0.248148
C32	C	1.242795	-0.098886	0.232193
C33	C	1.152371	-0.083810	0.283314
C34	C	1.097501	-0.112579	0.350396
C35	C	1.133056	-0.156422	0.366352
C36	C	1.517957	-0.333103	0.506122
C37	C	1.517971	-0.383037	0.506143
C38	C	1.451014	-0.739628	0.573341
C39	C	1.450875	-0.551955	0.573308
O40	O	1.393717	-0.527693	0.630422
N41	N	1.518082	-0.528482	0.506175
C42	C	1.585334	-0.551931	0.439050
O43	O	1.642502	-0.527659	0.381956
C44	C	1.585477	-0.739603	0.439089
C45	C	1.518258	-0.763073	0.506219
C46	C	1.383802	-0.763098	0.640466
C47	C	1.383833	-0.810013	0.640470
C48	C	1.451077	-0.833459	0.573348
C49	C	1.518290	-0.809988	0.506222
C50	C	1.652733	-0.763050	0.371970
C51	C	1.652765	-0.809971	0.371988
C52	C	1.585546	-0.833442	0.439118
C53	C	1.585565	-0.880349	0.439104
N54	N	1.518358	-0.903822	0.506237
C55	C	1.451114	-0.880377	0.573359
C56	C	1.585252	-0.453400	0.439033
C57	C	1.585215	-0.406482	0.439021
C58	C	1.450758	-0.406510	0.573281
C59	C	1.450790	-0.453428	0.573286
C60	C	1.518045	-0.476873	0.506166
C61	C	1.451184	-0.978902	0.573361
C62	C	1.451218	-1.025822	0.573355
C63	C	1.585679	-1.025790	0.439100
C64	C	1.585641	-0.978875	0.439101
C65	C	1.518390	-0.955432	0.506240
O66	O	1.642701	-0.904640	0.382028
O67	O	1.393971	-0.904656	0.630461
C68	C	1.450983	-0.692712	0.573337
C69	C	1.518195	-0.669242	0.506212
C70	C	1.585439	-0.692687	0.439090
C71	C	1.518158	-0.622324	0.506201
C72	C	1.450915	-0.598879	0.573323
C73	C	1.383708	-0.622352	0.640456
C74	C	1.383739	-0.669267	0.640459
C75	C	1.652646	-0.669215	0.371957
C76	C	1.652609	-0.622299	0.371958
C77	C	1.585365	-0.598854	0.439080
C78	C	1.792181	-0.216386	0.506176
C79	C	1.908958	-0.216388	0.506185
C80	C	1.518227	-0.216337	0.780188
C81	C	1.518260	-0.216318	0.896964
C82	C	1.518368	-0.099202	0.506210
C83	C	1.518462	-0.049267	0.506233
C84	C	1.518130	-0.216391	0.233187
C85	C	1.518300	-0.216282	0.116411
C86	C	1.585516	-0.187582	0.951847
C87	C	1.585533	-0.187562	1.061571
C88	C	1.451037	-0.245020	1.061521
C89	C	1.451015	-0.245037	0.951798
C90	C	1.623204	-0.134558	1.211554
C91	C	1.690476	-0.105825	1.266440
C92	C	1.792996	-0.098936	1.230849
C93	C	1.828265	-0.120786	1.140374
C94	C	1.760999	-0.149522	1.085493
C95	C	1.658464	-0.156403	1.121083
C96	C	1.413356	-0.298042	0.801814
C97	C	1.346094	-0.326781	0.746931
C98	C	1.243572	-0.333675	0.782520
C99	C	1.208306	-0.311832	0.872998
C100	C	1.275568	-0.283093	0.927881
C101	C	1.378089	-0.276199	0.892285
H102	H	0.784951	-0.225570	0.684142
H103	H	1.328951	-0.603255	0.695106
H104	H	0.685404	-0.277764	0.805813
F105	F	1.656747	-0.381509	0.367561
H106	H	1.252431	-0.207199	0.328224
H107	H	1.287474	-0.075464	0.177560
H108	H	1.539721	-0.140161	1.240535
H109	H	1.911752	-0.115178	1.111409
F110	F	1.522463	-0.290696	0.763911
F111	F	1.379671	-1.050798	0.644807
F112	F	1.312227	-0.738153	0.711915
F113	F	1.379608	-0.953959	0.644817
H114	H	0.913925	-0.384669	0.741957
F115	F	1.131904	-0.275766	0.644599
F116	F	1.036086	-0.336240	0.607477
H117	H	1.374820	-0.344570	0.673265
H118	H	1.640268	-0.164196	0.907204
H119	H	1.351970	-0.155009	0.206522
F120	F	1.379248	-0.478403	0.644735
H121	H	1.640424	-1.044888	0.384447
F122	F	1.724287	-0.738082	0.300529
F123	F	0.736173	-0.364510	0.851502
H124	H	1.640366	-0.959765	0.384427
F125	F	1.001259	-0.096533	0.404798
F126	F	1.312301	-0.834986	0.711932
F127	F	1.379189	-0.381550	0.644715
H128	H	0.919165	-0.164197	0.384506
H129	H	1.640021	-0.472484	0.384371
F130	F	1.114529	-0.037147	0.266328
F131	F	1.724351	-0.834920	0.300549
H132	H	1.329004	-0.688372	0.695125
H133	H	1.707344	-0.603193	0.317283
H134	H	1.707407	-0.688299	0.317298
H135	H	1.789717	-0.167314	1.011833
H136	H	1.847769	-0.075541	1.275545
H137	H	1.661749	-0.088034	1.340105
F138	F	1.379479	-0.275585	1.119888
F139	F	1.238031	-0.259846	1.024177
H140	H	1.124825	-0.317447	0.901979
F141	F	1.171995	-0.364270	0.724116
