data_functionalizedCrystal
_audit_creation_method	'MofGen! by Chris Wilmer'
_symmetry_space_group_name_H-M	'P1'
_symmetry_Int_Tables_number	1
_symmetry_cell_setting	triclinic
loop_
_symmetry_equiv_pos_as_xyz
  x,y,z
_cell_length_a	8.559649
_cell_length_b	16.992695
_cell_length_c	15.455341
_cell_angle_alpha	92.817188
_cell_angle_beta	86.706057
_cell_angle_gamma	99.776556
loop_
_atom_site_label
_atom_site_type_symbol
_atom_site_fract_x
_atom_site_fract_y
_atom_site_fract_z
O1	O	2.110162	0.029063	0.072126
O2	O	1.650089	-0.011122	0.072129
O3	O	1.878282	0.123002	0.072121
O4	O	1.881970	-0.105061	0.072134
O5	O	1.891452	0.117672	-0.072140
O6	O	1.663259	-0.016452	-0.072132
O7	O	2.123332	0.023733	-0.072135
Cu8	Cu	1.894498	0.003154	-0.085306
Cu9	Cu	1.878923	0.009457	0.085300
O10	O	1.895139	-0.110390	-0.072126
C11	C	1.597533	-0.016832	-0.000001
C12	C	1.421310	-0.025897	-0.000000
C13	C	1.880122	0.149264	-0.000010
C14	C	1.865963	0.235455	-0.000009
C15	C	2.175888	0.029444	-0.000003
C16	C	2.352110	0.038509	0.000002
C17	C	1.893299	-0.136652	0.000006
C18	C	1.907457	-0.222844	0.000011
C19	C	2.002571	0.293922	-0.000011
C20	C	1.989258	0.374907	-0.000003
C21	C	1.839336	0.397424	0.000001
C22	C	1.702718	0.338951	0.000006
C23	C	1.716032	0.257967	0.000003
C24	C	1.784153	0.637699	0.000013
C25	C	1.770849	0.718690	0.000013
C26	C	2.057391	0.754641	0.000006
C27	C	2.070692	0.673654	-0.000001
C28	C	1.934074	0.615188	0.000008
N29	N	1.825724	0.480204	0.000007
N30	N	1.947686	0.532411	0.000008
N31	N	1.905463	-0.001278	-0.205300
C32	C	1.966015	-0.025856	-0.749303
C33	C	1.957730	-0.022498	-0.658496
C34	C	1.851407	0.020617	-0.613093
C35	C	1.753350	0.060370	-0.658502
C36	C	1.761628	0.057007	-0.749308
C37	C	1.815685	0.035113	-0.341515
C38	C	1.807418	0.038475	-0.250703
C39	C	2.011797	-0.044395	-0.250703
C40	C	2.020072	-0.047750	-0.341510
C41	C	1.922010	-0.008001	-0.386911
N42	N	1.842939	0.024052	-0.520274
N43	N	1.930470	-0.011441	-0.479729
N44	N	1.867969	0.013896	0.205294
H45	H	2.124654	0.275597	-0.000020
H46	H	1.735840	0.067483	-0.378470
O47	O	2.122124	0.431598	-0.000049
C48	C	2.407734	0.458711	-0.000017
C49	C	2.257389	0.394427	0.000015
H50	H	2.517132	0.428684	0.000053
H51	H	2.414278	0.495290	-0.060403
H52	H	2.403079	0.499762	0.060343
H53	H	2.261941	0.353323	-0.060304
H54	H	2.250899	0.357907	0.060441
O55	O	1.650208	0.102247	-0.614266
C56	C	1.546825	0.144125	-0.474379
C57	C	1.663726	0.096681	-0.524365
H58	H	1.557691	0.139628	-0.401685
H59	H	1.575664	0.209496	-0.492183
H60	H	1.420483	0.118327	-0.492274
H61	H	1.790109	0.122410	-0.506497
H62	H	1.634750	0.031315	-0.506556
O63	O	2.069341	-0.067802	-0.793269
C64	C	2.271244	-0.149605	-0.783674
C65	C	2.154274	-0.102142	-0.733778
H66	H	2.339968	-0.177368	-0.735597
H67	H	2.202689	-0.198872	-0.826154
H68	H	2.357753	-0.107657	-0.826219
H69	H	2.067738	-0.144027	-0.691186
H70	H	2.222933	-0.052866	-0.691353
H71	H	2.192774	0.655329	-0.000004
H72	H	1.681785	0.089375	-0.786274
O73	O	1.442180	0.112593	0.000146
C74	C	1.503102	0.241080	0.074847
C75	C	1.401021	0.157204	0.074801
H76	H	1.469840	0.277177	0.135190
H77	H	1.633953	0.235494	0.074894
H78	H	1.481010	0.272683	0.014447
H79	H	1.422976	0.125553	0.135191
H80	H	1.270205	0.162845	0.074708
O81	O	2.190257	0.811331	-0.000031
C82	C	2.475865	0.838444	0.000029
C83	C	2.325519	0.774160	0.000045
H84	H	2.585260	0.808417	0.000109
H85	H	2.482429	0.875026	-0.060355
H86	H	2.471190	0.879491	0.060391
H87	H	2.330091	0.733059	-0.060275
H88	H	2.319009	0.737637	0.060470
H89	H	1.345739	-0.087972	0.000012
O90	O	2.052741	-0.061221	-0.614358
C91	C	2.065937	-0.161929	-0.511801
C92	C	1.958154	-0.118144	-0.561744
H93	H	1.989508	-0.207948	-0.469237
H94	H	2.143317	-0.193376	-0.559816
H95	H	2.144798	-0.116828	-0.469330
H96	H	1.879196	-0.163192	-0.604216
H97	H	1.880881	-0.086682	-0.513682
H98	H	1.648760	0.737017	0.000002
O99	O	2.123385	-0.089703	-0.385477
C100	C	2.325281	-0.171511	-0.375891
C101	C	2.208322	-0.124046	-0.325990
H102	H	2.394007	-0.199277	-0.327818
H103	H	2.256716	-0.220778	-0.418369
H104	H	2.411788	-0.129565	-0.418438
H105	H	2.121787	-0.165929	-0.283396
H106	H	2.276990	-0.074771	-0.283567
O107	O	1.703909	0.080251	-0.206630
C108	C	1.430651	0.095713	-0.178844
C109	C	1.547678	0.048324	-0.228799
H110	H	1.304316	0.069929	-0.196763
H111	H	1.441465	0.091272	-0.106136
H112	H	1.459560	0.161068	-0.196696
H113	H	1.518845	-0.017049	-0.211020
H114	H	1.536841	0.052832	-0.301495
H115	H	1.672908	0.590105	0.000020
H116	H	1.580647	0.357290	0.000014
H117	H	1.604791	0.210363	0.000005
H118	H	2.091631	-0.076758	-0.213727
