data_functionalizedCrystal
_audit_creation_method	'MofGen! by Chris Wilmer'
_symmetry_space_group_name_H-M	'P1'
_symmetry_Int_Tables_number	1
_symmetry_cell_setting	triclinic
loop_
_symmetry_equiv_pos_as_xyz
  x,y,z
_cell_length_a	12.594517
_cell_length_b	12.594516
_cell_length_c	12.594509
_cell_angle_alpha	90.034152
_cell_angle_beta	90.025818
_cell_angle_gamma	90.012532
loop_
_atom_site_label
_atom_site_type_symbol
_atom_site_fract_x
_atom_site_fract_y
_atom_site_fract_z
Zn1	Zn	-1.627256	0.423854	-0.601944
Zn2	Zn	-1.127256	0.923854	-0.101944
Zn3	Zn	-1.627142	0.601864	-0.423947
Zn4	Zn	-1.127142	1.101864	0.076053
Zn5	Zn	-1.449259	0.423884	-0.423959
Zn6	Zn	-0.949259	0.923884	0.076041
Zn7	Zn	-1.449237	0.601775	-0.601863
Zn8	Zn	-0.949237	1.101775	-0.101863
O9	O	-1.538223	0.512844	-0.512928
O10	O	-1.038223	1.012844	-0.012928
O11	O	-1.776186	0.447492	-0.578361
O12	O	-1.276186	0.947492	-0.078361
O13	O	-1.603507	0.578305	-0.275002
O14	O	-1.103507	1.078305	0.224998
O15	O	-1.472928	0.274934	-0.447608
O16	O	-0.972928	0.774934	0.052392
O17	O	-1.776103	0.578275	-0.447587
O18	O	-1.276103	1.078275	0.052413
O19	O	-1.603701	0.274912	-0.578372
O20	O	-1.103701	0.774912	-0.078372
O21	O	-1.472818	0.447544	-0.275011
O22	O	-0.972818	0.947544	0.224989
O23	O	-1.300311	0.447457	-0.447529
O24	O	-0.800311	0.947457	0.052471
O25	O	-1.472890	0.578123	-0.750820
O26	O	-0.972890	1.078123	-0.250820
O27	O	-1.300294	0.578153	-0.578235
O28	O	-0.800294	1.078153	-0.078235
O29	O	-1.603679	0.447405	-0.750879
O30	O	-1.103679	0.947405	-0.250879
O31	O	-1.603485	0.750798	-0.447509
O32	O	-1.103485	1.250798	0.052491
O33	O	-1.472779	0.750733	-0.578223
O34	O	-0.972779	1.250733	-0.078223
C35	C	-1.261682	0.512799	-0.512875
C36	C	-0.761682	1.012799	-0.012875
C37	C	-1.143377	0.512806	-0.512878
C38	C	-0.643377	1.012806	-0.012878
C39	C	-1.074102	0.441618	-0.441917
C40	C	-0.574102	0.941618	0.058083
C41	C	-1.003288	0.538700	-0.415722
C42	C	-0.503288	1.038700	0.084278
C43	C	-1.003392	0.415753	-0.539075
C44	C	-0.503392	0.915753	-0.039075
C45	C	-1.074122	0.609940	-0.486631
C46	C	-0.574122	1.109940	0.013369
C47	C	-1.074231	0.486927	-0.610030
C48	C	-0.574231	0.986927	-0.110030
C49	C	-1.003449	0.584077	-0.583871
C50	C	-0.503449	1.084077	-0.083871
C51	C	-1.538146	0.789385	-0.512879
C52	C	-1.038146	1.289385	-0.012879
C53	C	-1.538211	0.907691	-0.512894
C54	C	-1.038211	1.407691	-0.012894
C55	C	-0.815844	0.512869	-0.512962
C56	C	-0.315844	1.012869	-0.012962
C57	C	-0.934150	0.512825	-0.512926
C58	C	-0.434150	1.012825	-0.012926
C59	C	-1.609377	0.976941	-0.441867
C60	C	-1.109377	1.476941	0.058133
C61	C	-1.635380	1.047639	-0.539010
C62	C	-1.135380	1.547639	-0.039010
C63	C	-1.512319	1.047791	-0.415789
C64	C	-1.012319	1.547791	0.084211
C65	C	-1.564264	0.976831	-0.610089
C66	C	-1.064264	1.476831	-0.110089
C67	C	-1.441157	0.976976	-0.486802
C68	C	-0.941157	1.476976	0.013198
C69	C	-1.467124	1.047643	-0.584012
C70	C	-0.967124	1.547643	-0.084012
C71	C	-1.538305	1.235223	-0.512973
C72	C	-1.038305	1.735223	-0.012973
C73	C	-1.538274	1.116918	-0.512922
C74	C	-1.038274	1.616918	-0.012922
C75	C	-1.538295	0.512751	-0.790549
C76	C	-1.038295	1.012751	-0.290549
C77	C	-1.538325	0.512711	-0.908855
C78	C	-1.038325	1.012711	-0.408855
C79	C	-1.467211	0.583768	-0.978076
C80	C	-0.967211	1.083768	-0.478076
C81	C	-1.564331	0.609783	-1.048871
C82	C	-1.064331	1.109783	-0.548871
C83	C	-1.441281	0.486632	-1.048858
C84	C	-0.941281	0.986632	-0.548858
C85	C	-1.635496	0.538777	-0.978092
C86	C	-1.135496	1.038777	-0.478092
C87	C	-1.512380	0.415581	-0.978073
C88	C	-1.012380	0.915581	-0.478073
C89	C	-1.609567	0.441559	-1.048836
C90	C	-1.109567	0.941559	-0.548836
C91	C	-1.538214	0.512860	-0.236387
C92	C	-1.038214	1.012860	0.263613
C93	C	-1.538389	0.512600	-0.118082
C94	C	-1.038389	1.012600	0.381918
H95	H	-0.972267	0.333679	-0.561175
H96	H	-0.472267	0.833679	-0.061175
H97	H	-1.717615	0.560881	-0.947137
H98	H	-1.217615	1.060881	-0.447137
H99	H	-1.105124	0.381483	-0.381841
H100	H	-0.605124	0.881483	0.118159
Cl101	Cl	-1.314427	0.929018	-0.452660
Cl102	Cl	-0.814427	1.429018	0.047340
Cl103	Cl	-1.122378	0.453065	-0.736812
Cl104	Cl	-0.622378	0.953065	-0.236812
H105	H	-1.105061	0.692048	-0.464403
H106	H	-0.605061	1.192048	0.035597
H107	H	-1.669579	0.945895	-0.381865
H108	H	-1.169579	1.445895	0.118135
H109	H	-0.972622	0.644356	-0.643901
H110	H	-0.472622	1.144356	-0.143901
H111	H	-1.490393	1.078959	-0.333657
H112	H	-0.990393	1.578959	0.166343
Cl113	Cl	-1.314533	0.452646	-1.096853
Cl114	Cl	-0.814533	0.952646	-0.596853
Cl115	Cl	-1.762145	1.095542	-0.573132
Cl116	Cl	-1.262145	1.595542	-0.073132
H117	H	-1.407119	0.643952	-0.947007
H118	H	-0.907119	1.143952	-0.447007
Cl119	Cl	-1.598267	0.736527	-1.096887
Cl120	Cl	-1.098267	1.236527	-0.596887
Cl121	Cl	-1.702562	0.348711	-1.096512
Cl122	Cl	-1.202562	0.848711	-0.596512
H123	H	-1.586108	0.945795	-0.692291
H124	H	-1.086108	1.445795	-0.192291
Cl125	Cl	-0.955177	0.572520	-0.288908
Cl126	Cl	-0.455177	1.072520	0.211092
H127	H	-1.406968	1.078492	-0.644159
H128	H	-0.906968	1.578492	-0.144159
Cl129	Cl	-1.478402	0.288871	-0.930018
Cl130	Cl	-0.978402	0.788871	-0.430018
