data_functionalizedCrystal
_audit_creation_method	'MofGen! by Chris Wilmer'
_symmetry_space_group_name_H-M	'P1'
_symmetry_Int_Tables_number	1
_symmetry_cell_setting	triclinic
loop_
_symmetry_equiv_pos_as_xyz
  x,y,z
_cell_length_a	16.625548
_cell_length_b	19.805404
_cell_length_c	19.805399
_cell_angle_alpha	90.027110
_cell_angle_beta	90.018609
_cell_angle_gamma	90.030661
loop_
_atom_site_label
_atom_site_type_symbol
_atom_site_fract_x
_atom_site_fract_y
_atom_site_fract_z
Zn1	Zn	1.232625	-0.269460	0.382704
Zn2	Zn	1.732625	0.230540	0.882704
Zn3	Zn	1.232516	-0.382648	0.269517
Zn4	Zn	1.732516	0.117352	0.769517
Zn5	Zn	1.097791	-0.269480	0.269531
Zn6	Zn	1.597791	0.230520	0.769531
Zn7	Zn	1.097740	-0.382614	0.382666
Zn8	Zn	1.597740	0.117386	0.882666
O9	O	1.165168	-0.326051	0.326105
O10	O	1.665168	0.173949	0.826105
O11	O	1.345443	-0.284480	0.367700
O12	O	1.845443	0.215520	0.867700
O13	O	1.214620	-0.367659	0.174802
O14	O	1.714620	0.132341	0.674802
O15	O	1.115744	-0.174761	0.284566
O16	O	1.615744	0.325239	0.784566
O17	O	1.345363	-0.367639	0.284542
O18	O	1.845363	0.132361	0.784542
O19	O	1.214806	-0.174746	0.367714
O20	O	1.714806	0.325254	0.867714
O21	O	1.115639	-0.284515	0.174812
O22	O	1.615639	0.215485	0.674812
O23	O	0.984952	-0.284482	0.284528
O24	O	1.484952	0.215518	0.784528
O25	O	1.115657	-0.367581	0.477388
O26	O	1.615657	0.132419	0.977388
O27	O	0.984915	-0.367601	0.367648
O28	O	1.484915	0.132399	0.867648
O29	O	1.214756	-0.284447	0.477416
O30	O	1.714756	0.215553	0.977416
O31	O	1.214571	-0.477360	0.284505
O32	O	1.714571	0.022640	0.784505
O33	O	1.115552	-0.477335	0.367634
O34	O	1.615552	0.022665	0.867634
C35	C	1.165066	-0.501907	0.326079
C36	C	1.665066	-0.001907	0.826079
C37	C	1.165096	-0.577139	0.326090
C38	C	1.665096	-0.077139	0.826090
C39	C	0.955677	-0.326041	0.326086
C40	C	1.455677	0.173959	0.826086
C41	C	0.866056	-0.326053	0.326094
C42	C	1.366056	0.173947	0.826094
C43	C	1.216925	-1.038920	0.282914
C44	C	1.716925	-0.538920	0.782914
C45	C	1.216888	-0.968231	0.282900
C46	C	1.716888	-0.468231	0.782900
C47	C	1.165274	-0.932900	0.326140
C48	C	1.665274	-0.432900	0.826140
C49	C	1.113689	-0.968261	0.369392
C50	C	1.613689	-0.468261	0.869392
C51	C	1.113723	-1.038948	0.369401
C52	C	1.613723	-0.538948	0.869401
C53	C	1.113548	-0.683188	0.369354
C54	C	1.613548	-0.183188	0.869354
C55	C	1.113520	-0.612496	0.369343
C56	C	1.613520	-0.112496	0.869343
C57	C	1.216713	-0.612471	0.282854
C58	C	1.716713	-0.112471	0.782854
C59	C	1.216747	-0.683158	0.282863
C60	C	1.716747	-0.183158	0.782863
C61	C	1.165160	-0.718513	0.326112
C62	C	1.665160	-0.218513	0.826112
C63	C	1.165200	-0.795161	0.326125
C64	C	1.665200	-0.295161	0.826125
C65	C	1.165237	-0.856253	0.326131
C66	C	1.665237	-0.356253	0.826131
C67	C	0.537881	-0.326057	0.326123
C68	C	1.037881	0.173943	0.826123
C69	C	0.629189	-0.326054	0.326112
C70	C	1.129189	0.173946	0.826112
C71	C	0.701965	-0.326056	0.326108
C72	C	1.201965	0.173944	0.826108
C73	C	0.793280	-0.326052	0.326098
C74	C	1.293280	0.173948	0.826098
C75	C	1.375477	-0.326061	0.326124
C76	C	1.875477	0.173939	0.826124
C77	C	1.465098	-0.326065	0.326132
C78	C	1.965098	0.173935	0.826132
C79	C	1.165213	-0.326008	0.502647
C80	C	1.665213	0.173992	1.002647
C81	C	1.165233	-0.325990	0.577879
C82	C	1.665233	0.174010	1.077879
C83	C	1.165293	-0.149508	0.326146
C84	C	1.665293	0.350492	0.826146
C85	C	1.165346	-0.074276	0.326163
C86	C	1.665346	0.425724	0.826163
C87	C	1.165170	-0.326044	0.150249
C88	C	1.665170	0.173956	0.650249
C89	C	1.165307	-0.325872	0.075017
C90	C	1.665307	0.174128	0.575017
C91	C	1.216835	-0.282700	0.613239
C92	C	1.716835	0.217300	1.113239
C93	C	1.216843	-0.282680	0.683928
C94	C	1.716843	0.217320	1.183928
C95	C	1.165253	-0.325954	0.719255
C96	C	1.665253	0.174046	1.219255
C97	C	1.113645	-0.369246	0.683890
C98	C	1.613645	0.130754	1.183890
C99	C	1.113633	-0.369262	0.613203
C100	C	1.613633	0.130738	1.113203
C101	C	1.113690	-0.369183	0.968964
C102	C	1.613690	0.130817	1.468964
C103	C	1.113708	-0.369166	1.039656
C104	C	1.613708	0.130834	1.539656
C105	C	1.216900	-0.282601	1.039689
C106	C	1.716900	0.217399	1.539689
C107	C	1.216889	-0.282617	0.969001
C108	C	1.716889	0.217383	1.469001
C109	C	1.165278	-0.325906	0.933643
C110	C	1.665278	0.174094	1.433643
C111	C	1.165269	-0.325926	0.856994
C112	C	1.665269	0.174074	1.356994
C113	C	1.165266	-0.325938	0.795902
C114	C	1.665266	0.174062	1.295902
H115	H	1.258960	-1.067682	0.247706
H116	H	1.758960	-0.567682	0.747706
H117	H	1.071693	-0.404406	1.068417
H118	H	1.571693	0.095594	1.568417
H119	H	1.258921	-0.247351	1.068486
H120	H	1.758921	0.252649	1.568486
H121	H	1.071678	-0.404442	0.940183
H122	H	1.571678	0.095558	1.440183
H123	H	1.071537	-0.711965	0.404565
H124	H	1.571537	-0.211965	0.904565
C125	C	1.056983	-1.077839	0.416980
C126	C	1.556983	-0.577839	0.916980
N127	N	1.014244	-1.107131	0.452817
N128	N	1.514244	-0.607131	0.952817
C129	C	1.056868	-0.416886	0.574307
C130	C	1.556868	0.083114	1.074307
N131	N	1.014110	-0.452756	0.545012
N132	N	1.514110	0.047244	1.045012
H133	H	1.071636	-0.404479	0.712659
H134	H	1.571636	0.095521	1.212659
H135	H	1.258779	-0.711922	0.247655
H136	H	1.758779	-0.211922	0.747655
H137	H	1.258848	-0.247463	0.584481
H138	H	1.758848	0.252537	1.084481
C139	C	1.273612	-0.929343	0.235309
C140	C	1.773612	-0.429343	0.735309
N141	N	1.316334	-0.900053	0.199455
N142	N	1.816334	-0.400053	0.699455
H143	H	1.258901	-0.247381	0.940241
H144	H	1.758901	0.252619	1.440241
C145	C	1.056744	-0.573633	0.416918
C146	C	1.556744	-0.073633	0.916918
N147	N	1.013986	-0.544361	0.452752
N148	N	1.513986	-0.044361	0.952752
C149	C	1.056914	-0.929394	0.416957
C150	C	1.556914	-0.429394	0.916957
N151	N	1.014152	-0.900120	0.452786
N152	N	1.514152	-0.400120	0.952786
C153	C	1.273611	-0.235059	0.722821
C154	C	1.773611	0.264941	1.222821
N155	N	1.316371	-0.199188	0.752114
N156	N	1.816371	0.300812	1.252114
C157	C	1.273454	-0.573575	0.235273
C158	C	1.773454	-0.073575	0.735273
N159	N	1.316190	-0.544279	0.199437
N160	N	1.816190	-0.044279	0.699437
