data_functionalizedCrystal
_audit_creation_method	'MofGen! by Chris Wilmer'
_symmetry_space_group_name_H-M	'P1'
_symmetry_Int_Tables_number	1
_symmetry_cell_setting	triclinic
loop_
_symmetry_equiv_pos_as_xyz
  x,y,z
_cell_length_a	14.908571
_cell_length_b	16.625546
_cell_length_c	14.908308
_cell_angle_alpha	93.264070
_cell_angle_beta	90.175053
_cell_angle_gamma	86.718495
loop_
_atom_site_label
_atom_site_type_symbol
_atom_site_fract_x
_atom_site_fract_y
_atom_site_fract_z
Zn1	Zn	1.345280	-0.420778	-0.587557
Zn2	Zn	1.353856	-0.548312	-0.437189
Zn3	Zn	1.203596	-0.405291	-0.428555
Zn4	Zn	1.194884	-0.547354	-0.578841
O5	O	1.274404	-0.480434	-0.508036
O6	O	1.472243	-0.444578	-0.574871
O7	O	1.341159	-0.523260	-0.310220
O8	O	1.222448	-0.294517	-0.449681
O9	O	1.478544	-0.538277	-0.464397
O10	O	1.326543	-0.305896	-0.566499
O11	O	1.230763	-0.418182	-0.303876
O12	O	1.076615	-0.417254	-0.441230
O13	O	1.207599	-0.536644	-0.705821
O14	O	1.070214	-0.521627	-0.551644
O15	O	1.318095	-0.443649	-0.712225
O16	O	1.332711	-0.661013	-0.455945
O17	O	1.215914	-0.660309	-0.560016
C18	C	1.040789	-0.467656	-0.494555
C19	C	0.940846	-0.462211	-0.488810
C20	C	0.746435	-0.560814	-0.592833
C21	C	0.652530	-0.555700	-0.587437
C22	C	0.659128	-0.446865	-0.472629
C23	C	0.753033	-0.451979	-0.478024
C24	C	0.796683	-0.508956	-0.538127
C25	C	0.890591	-0.514074	-0.543517
C26	C	0.897187	-0.405236	-0.428714
C27	C	0.803282	-0.400121	-0.423318
C28	C	1.274321	-0.689918	-0.507993
C29	C	1.274366	-0.779542	-0.508010
C30	C	1.274517	-1.107731	-0.508112
C31	C	1.274472	-1.016419	-0.508086
C32	C	1.274441	-0.943640	-0.508060
C33	C	1.274397	-0.852322	-0.508035
C34	C	1.508931	-0.493262	-0.521569
C35	C	1.608873	-0.498728	-0.527336
C36	C	1.260918	-0.491767	-0.742560
C37	C	1.255172	-0.496597	-0.842501
C38	C	1.274511	-0.270134	-0.508099
C39	C	1.274556	-0.180516	-0.508127
C40	C	1.359429	-0.408817	-1.036969
C41	C	1.354033	-0.413353	-1.130872
C42	C	1.238977	-0.510198	-1.124211
C43	C	1.244374	-0.505662	-1.030308
C44	C	1.304603	-0.454971	-0.986690
C45	C	1.310004	-0.450441	-0.892786
C46	C	1.194945	-0.547281	-0.886127
C47	C	1.189548	-0.551817	-0.980030
C48	C	1.287889	-0.469089	-0.274426
C49	C	1.293810	-0.464042	-0.174497
H50	H	0.926129	-0.560469	-0.592455
C51	C	0.598078	-0.611970	-0.646984
C52	C	0.615847	-0.600090	-0.737294
C53	C	0.565711	-0.651918	-0.792177
H54	H	0.535879	-0.600821	-0.635286
H55	H	0.614229	-0.666342	-0.634660
H56	H	0.599690	-0.545730	-0.749613
H57	H	0.678037	-0.611244	-0.749020
H58	H	0.581862	-0.706290	-0.779854
H59	H	0.503515	-0.640765	-0.780472
H60	H	0.577767	-0.643870	-0.853458
H61	H	0.623571	-0.400472	-0.423701
C62	C	0.755930	-0.338137	-0.358179
C63	C	0.777648	-0.260584	-0.379236
C64	C	0.734039	-0.203464	-0.319253
H65	H	0.774740	-0.347666	-0.298592
H66	H	0.692797	-0.342460	-0.362805
H67	H	0.840768	-0.256264	-0.374601
H68	H	0.758836	-0.251030	-0.438812
H69	H	0.670906	-0.207786	-0.323880
H70	H	0.752853	-0.213000	-0.259671
H71	H	0.748762	-0.150837	-0.333538
C72	C	0.951703	-0.349015	-0.369162
C73	C	0.933964	-0.360922	-0.278852
C74	C	0.984175	-0.309158	-0.223966
H75	H	0.935614	-0.294629	-0.381426
H76	H	1.013895	-0.360223	-0.380918
H77	H	0.871786	-0.349708	-0.267101
H78	H	0.950057	-0.415298	-0.266560
H79	H	1.046367	-0.320366	-0.235723
H80	H	0.968082	-0.254774	-0.236238
H81	H	0.972153	-0.317235	-0.162686
C82	C	1.135363	-0.597483	-0.831697
C83	C	1.081478	-0.642856	-0.890000
C84	C	1.026591	-0.689117	-0.839893
H85	H	1.098227	-0.562813	-0.792807
H86	H	1.171823	-0.632770	-0.797058
H87	H	1.045021	-0.607573	-0.924624
H88	H	1.118590	-0.677542	-0.928891
H89	H	1.063052	-0.724404	-0.805253
H90	H	0.989461	-0.654441	-0.801004
H91	H	0.990030	-0.719914	-0.879444
C92	C	1.375276	-0.395265	-0.845469
C93	C	1.354397	-0.315524	-0.867187
C94	C	1.414498	-0.264669	-0.823610
H95	H	1.434836	-0.410999	-0.864304
H96	H	1.370635	-0.399117	-0.782333
H97	H	1.359047	-0.311676	-0.930310
H98	H	1.294849	-0.299766	-0.848350
H99	H	1.409857	-0.268520	-0.760474
H100	H	1.474054	-0.280409	-0.842449
H101	H	1.400335	-0.210558	-0.838333
H102	H	1.408475	-0.367547	-1.001455
C103	C	1.413669	-0.363211	-1.185304
C104	C	1.467582	-0.317865	-1.127003
C105	C	1.522539	-0.271670	-1.177114
H106	H	1.377284	-0.327905	-1.219971
H107	H	1.450778	-0.397948	-1.224170
H108	H	1.430477	-0.283131	-1.088153
H109	H	1.503985	-0.353151	-1.092335
H110	H	1.559648	-0.306407	-1.215980
H111	H	1.486147	-0.236369	-1.211779
H112	H	1.559131	-0.240903	-1.137565
C113	C	0.793946	-0.622553	-0.658138
C114	C	0.844583	-0.582707	-0.718944
C115	C	0.888370	-0.639555	-0.779109
H116	H	0.750669	-0.652738	-0.690037
H117	H	0.832594	-0.657954	-0.625801
H118	H	0.805938	-0.547319	-0.751278
H119	H	0.887875	-0.552525	-0.687071
H120	H	0.927018	-0.674957	-0.746772
H121	H	0.845087	-0.669737	-0.811001
H122	H	0.922739	-0.612528	-0.820368
C123	C	1.173664	-0.565197	-1.171745
C124	C	1.180683	-0.559292	-1.264742
C125	C	1.120533	-0.609949	-1.308559
H126	H	1.114102	-0.549397	-1.152973
H127	H	1.187676	-0.619372	-1.157165
H128	H	1.166665	-0.505129	-1.279315
H129	H	1.240232	-0.575099	-1.283540
H130	H	1.134545	-0.664124	-1.293979
H131	H	1.060974	-0.594144	-1.289780
H132	H	1.125293	-0.605955	-1.371662
H133	H	1.140510	-0.593086	-1.015557
