data_functionalizedCrystal
_audit_creation_method	'MofGen! by Chris Wilmer'
_symmetry_space_group_name_H-M	'P1'
_symmetry_Int_Tables_number	1
_symmetry_cell_setting	triclinic
loop_
_symmetry_equiv_pos_as_xyz
  x,y,z
_cell_length_a	27.731994
_cell_length_b	27.732048
_cell_length_c	26.210047
_cell_angle_alpha	90.011237
_cell_angle_beta	90.018354
_cell_angle_gamma	82.631595
loop_
_atom_site_label
_atom_site_type_symbol
_atom_site_fract_x
_atom_site_fract_y
_atom_site_fract_z
O1	O	0.640958	0.057392	0.042362
O2	O	0.890958	0.307392	0.292362
O3	O	1.140958	0.557392	0.542362
O4	O	1.390958	0.807392	0.792362
O5	O	0.500161	0.066164	0.042379
O6	O	0.750161	0.316164	0.292379
O7	O	1.000161	0.566164	0.542379
O8	O	1.250161	0.816164	0.792379
O9	O	0.574933	-0.008620	0.042360
O10	O	0.824933	0.241380	0.292360
O11	O	1.074933	0.491380	0.542360
O12	O	1.324933	0.741380	0.792360
O13	O	0.566187	0.132176	0.042381
O14	O	0.816187	0.382176	0.292381
O15	O	1.066187	0.632176	0.542381
O16	O	1.316187	0.882176	0.792381
O17	O	0.574898	-0.008620	-0.042498
O18	O	0.824898	0.241380	0.207502
O19	O	1.074898	0.491380	0.457502
O20	O	1.324898	0.741380	0.707502
O21	O	0.500127	0.066164	-0.042479
O22	O	0.750127	0.316164	0.207521
O23	O	1.000127	0.566164	0.457521
O24	O	1.250127	0.816164	0.707521
O25	O	0.640924	0.057391	-0.042496
O26	O	0.890924	0.307391	0.207504
O27	O	1.140924	0.557391	0.457504
O28	O	1.390924	0.807391	0.707504
Cu29	Cu	0.570522	0.061777	-0.050236
Cu30	Cu	0.820522	0.311777	0.199764
Cu31	Cu	1.070522	0.561777	0.449764
Cu32	Cu	1.320522	0.811777	0.699764
Cu33	Cu	0.570563	0.061778	0.050119
Cu34	Cu	0.820563	0.311778	0.300119
Cu35	Cu	1.070563	0.561778	0.550119
Cu36	Cu	1.320563	0.811778	0.800119
O37	O	0.566152	0.132175	-0.042477
O38	O	0.816152	0.382175	0.207523
O39	O	1.066152	0.632175	0.457523
O40	O	1.316152	0.882175	0.707523
C41	C	0.482137	0.065984	-0.000047
C42	C	0.732137	0.315984	0.249953
C43	C	0.982137	0.565984	0.499953
C44	C	1.232137	0.815984	0.749953
C45	C	0.428480	0.065442	-0.000041
C46	C	0.678480	0.315442	0.249959
C47	C	0.928480	0.565442	0.499959
C48	C	1.178480	0.815442	0.749959
C49	C	0.095743	0.062025	-0.046317
C50	C	0.345743	0.312025	0.203683
C51	C	0.595743	0.562025	0.453683
C52	C	0.845743	0.812025	0.703683
C53	C	-0.105915	0.059964	-0.046324
C54	C	0.144085	0.309964	0.203676
C55	C	0.394085	0.559964	0.453676
C56	C	0.644085	0.809964	0.703676
O57	O	-0.132004	0.059676	-0.085663
O58	O	0.117996	0.309676	0.164337
O59	O	0.367996	0.559676	0.414337
O60	O	0.617996	0.809676	0.664337
N61	N	-0.131111	0.059708	-0.000067
N62	N	0.118889	0.309708	0.249933
N63	N	0.368889	0.559708	0.499933
N64	N	0.618889	0.809708	0.749933
C65	C	-0.105889	0.059965	0.046193
C66	C	0.144111	0.309965	0.296193
C67	C	0.394111	0.559965	0.546193
C68	C	0.644111	0.809965	0.796193
O69	O	-0.131946	0.059695	0.085537
O70	O	0.118054	0.309695	0.335537
O71	O	0.368054	0.559695	0.585537
O72	O	0.618054	0.809695	0.835537
C73	C	0.095769	0.062023	0.046199
C74	C	0.345769	0.312023	0.296199
C75	C	0.595769	0.562023	0.546199
C76	C	0.845769	0.812023	0.796199
C77	C	0.120961	0.062283	-0.000060
C78	C	0.370961	0.312283	0.249940
C79	C	0.620961	0.562283	0.499940
C80	C	0.870961	0.812283	0.749940
C81	C	0.120936	0.062285	-0.092573
C82	C	0.370936	0.312285	0.157427
C83	C	0.620936	0.562285	0.407427
C84	C	0.870936	0.812285	0.657427
C85	C	0.171347	0.062803	-0.092571
C86	C	0.421347	0.312803	0.157429
C87	C	0.671347	0.562803	0.407429
C88	C	0.921347	0.812803	0.657429
C89	C	0.196565	0.063061	-0.046313
C90	C	0.446565	0.313061	0.203687
C91	C	0.696565	0.563061	0.453687
C92	C	0.946565	0.813061	0.703687
C93	C	0.171372	0.062801	-0.000058
C94	C	0.421372	0.312801	0.249942
C95	C	0.671372	0.562801	0.499942
C96	C	0.921372	0.812801	0.749942
C97	C	0.120990	0.062276	0.092459
C98	C	0.370990	0.312276	0.342459
C99	C	0.620990	0.562276	0.592459
C100	C	0.870990	0.812276	0.842459
C101	C	0.171408	0.062789	0.092457
C102	C	0.421408	0.312789	0.342457
C103	C	0.671408	0.562789	0.592457
C104	C	0.921408	0.812789	0.842457
C105	C	0.196601	0.063050	0.046197
C106	C	0.446601	0.313050	0.296197
C107	C	0.696601	0.563050	0.546197
C108	C	0.946601	0.813050	0.796197
C109	C	0.247002	0.063578	0.046201
C110	C	0.497002	0.313578	0.296201
C111	C	0.747002	0.563578	0.546201
C112	C	0.997002	0.813578	0.796201
N113	N	0.272198	0.063833	-0.000055
N114	N	0.522198	0.313833	0.249945
N115	N	0.772198	0.563833	0.499945
N116	N	1.022198	0.813833	0.749945
C117	C	0.246980	0.063575	-0.046312
C118	C	0.496980	0.313575	0.203688
C119	C	0.746980	0.563575	0.453688
C120	C	0.996980	0.813575	0.703688
C121	C	-0.211763	0.058885	0.046187
C122	C	0.038237	0.308885	0.296187
C123	C	0.288237	0.558885	0.546187
C124	C	0.538237	0.808885	0.796187
C125	C	-0.262177	0.058372	0.046186
C126	C	-0.012177	0.308372	0.296186
C127	C	0.237823	0.558372	0.546186
C128	C	0.487823	0.808372	0.796186
C129	C	-0.262199	0.058370	-0.046331
C130	C	-0.012199	0.308370	0.203669
C131	C	0.237801	0.558370	0.453669
C132	C	0.487801	0.808370	0.703669
C133	C	-0.211784	0.058887	-0.046329
C134	C	0.038216	0.308887	0.203671
C135	C	0.288216	0.558887	0.453671
C136	C	0.538216	0.808887	0.703671
C137	C	-0.186567	0.059141	-0.000069
C138	C	0.063433	0.309141	0.249931
C139	C	0.313433	0.559141	0.499931
C140	C	0.563433	0.809141	0.749931
C141	C	0.352847	0.064663	-0.046305
C142	C	0.602847	0.314663	0.203695
C143	C	0.852847	0.564663	0.453695
C144	C	1.102847	0.814663	0.703695
C145	C	0.403262	0.065184	-0.046298
C146	C	0.653262	0.315184	0.203702
C147	C	0.903262	0.565184	0.453702
C148	C	1.153262	0.815184	0.703702
C149	C	0.403280	0.065183	0.046218
C150	C	0.653280	0.315183	0.296218
C151	C	0.903280	0.565183	0.546218
C152	C	1.153280	0.815183	0.796218
C153	C	0.352869	0.064665	0.046213
C154	C	0.602869	0.314665	0.296213
C155	C	0.852869	0.564665	0.546213
C156	C	1.102869	0.814665	0.796213
C157	C	0.327654	0.064404	-0.000053
C158	C	0.577654	0.314404	0.249947
C159	C	0.827654	0.564404	0.499947
C160	C	1.077654	0.814404	0.749947
O161	O	0.273122	0.063860	0.085520
O162	O	0.523122	0.313860	0.335520
O163	O	0.773122	0.563860	0.585520
O164	O	1.023122	0.813860	0.835520
O165	O	0.273047	0.063834	-0.085650
O166	O	0.523047	0.313834	0.164350
O167	O	0.773047	0.563834	0.414350
O168	O	1.023047	0.813834	0.664350
C169	C	0.045332	0.061507	-0.046319
C170	C	0.295332	0.311507	0.203681
C171	C	0.545332	0.561507	0.453681
C172	C	0.795332	0.811507	0.703681
C173	C	0.020139	0.061247	-0.000064
C174	C	0.270139	0.311247	0.249936
C175	C	0.520139	0.561247	0.499936
C176	C	0.770139	0.811247	0.749936
C177	C	0.045357	0.061505	0.046193
C178	C	0.295357	0.311505	0.296193
C179	C	0.545357	0.561505	0.546193
C180	C	0.795357	0.811505	0.796193
C181	C	-0.030275	0.060734	-0.000065
C182	C	0.219725	0.310734	0.249935
C183	C	0.469725	0.560734	0.499935
C184	C	0.719725	0.810734	0.749935
C185	C	-0.055494	0.060476	-0.046323
C186	C	0.194506	0.310476	0.203677
C187	C	0.444506	0.560476	0.453677
C188	C	0.694506	0.810476	0.703677
C189	C	-0.030298	0.060731	-0.092579
C190	C	0.219702	0.310731	0.157421
C191	C	0.469702	0.560731	0.407421
C192	C	0.719702	0.810731	0.657421
C193	C	0.020114	0.061249	-0.092577
C194	C	0.270114	0.311249	0.157423
C195	C	0.520114	0.561249	0.407423
C196	C	0.770114	0.811249	0.657423
C197	C	0.020161	0.061250	0.092449
C198	C	0.270161	0.311250	0.342449
C199	C	0.520161	0.561250	0.592449
C200	C	0.770161	0.811250	0.842449
C201	C	-0.030250	0.060732	0.092443
C202	C	0.219750	0.310732	0.342443
C203	C	0.469750	0.560732	0.592443
C204	C	0.719750	0.810732	0.842443
C205	C	-0.055468	0.060474	0.046186
C206	C	0.194532	0.310474	0.296186
C207	C	0.444532	0.560474	0.546186
C208	C	0.694532	0.810474	0.796186
C209	C	0.574732	-0.026627	-0.000070
C210	C	0.824732	0.223373	0.249930
C211	C	1.074732	0.473373	0.499930
C212	C	1.324732	0.723373	0.749930
C213	C	0.574179	-0.080282	-0.000074
C214	C	0.824179	0.169718	0.249926
C215	C	1.074179	0.419718	0.499926
C216	C	1.324179	0.669718	0.749926
C217	C	0.614884	-0.419105	-0.000053
C218	C	0.864884	-0.169105	0.249947
C219	C	1.114884	0.080895	0.499947
C220	C	1.364884	0.330895	0.749947
C221	C	0.612833	-0.620764	-0.000046
C222	C	0.862833	-0.370764	0.249954
C223	C	1.112833	-0.120764	0.499954
C224	C	1.362833	0.129236	0.749954
O225	O	0.650055	-0.652027	-0.000028
O226	O	0.900055	-0.402027	0.249972
O227	O	1.150055	-0.152027	0.499972
O228	O	1.400055	0.097973	0.749972
N229	N	0.568496	-0.639879	-0.000041
N230	N	0.818496	-0.389879	0.249959
N231	N	1.068496	-0.139879	0.499959
N232	N	1.318496	0.110121	0.749959
C233	C	0.524670	-0.608576	-0.000034
C234	C	0.774670	-0.358576	0.249966
C235	C	1.024670	-0.108576	0.499966
C236	C	1.274670	0.141424	0.749966
O237	O	0.486912	-0.629462	-0.000024
O238	O	0.736912	-0.379462	0.249976
O239	O	0.986912	-0.129462	0.499976
O240	O	1.236912	0.120538	0.749976
C241	C	0.526721	-0.406918	-0.000038
C242	C	0.776721	-0.156918	0.249962
C243	C	1.026721	0.093082	0.499962
C244	C	1.276721	0.343082	0.749962
C245	C	0.571060	-0.387805	-0.000048
C246	C	0.821060	-0.137805	0.249952
C247	C	1.071060	0.112195	0.499952
C248	C	1.321060	0.362195	0.749952
C249	C	0.659220	-0.399992	-0.000063
C250	C	0.909220	-0.149992	0.249937
C251	C	1.159220	0.100008	0.499937
C252	C	1.409220	0.350008	0.749937
C253	C	0.659732	-0.349580	-0.000068
C254	C	0.909732	-0.099580	0.249932
C255	C	1.159732	0.150420	0.499932
C256	C	1.409732	0.400420	0.749932
C257	C	0.615908	-0.318281	-0.000062
C258	C	0.865908	-0.068281	0.249938
C259	C	1.115908	0.181719	0.499938
C260	C	1.365908	0.431719	0.749938
C261	C	0.571573	-0.337394	-0.000053
C262	C	0.821573	-0.087394	0.249947
C263	C	1.071573	0.162606	0.499947
C264	C	1.321573	0.412606	0.749947
C265	C	0.482895	-0.375615	-0.000028
C266	C	0.732895	-0.125615	0.249972
C267	C	0.982895	0.124385	0.499972
C268	C	1.232895	0.374385	0.749972
C269	C	0.483412	-0.325198	-0.000027
C270	C	0.733412	-0.075198	0.249973
C271	C	0.983412	0.174802	0.499973
C272	C	1.233412	0.424802	0.749973
C273	C	0.527751	-0.306086	-0.000037
C274	C	0.777751	-0.056086	0.249963
C275	C	1.027751	0.193914	0.499963
C276	C	1.277751	0.443914	0.749963
C277	C	0.528262	-0.255683	-0.000052
C278	C	0.778262	-0.005683	0.249948
C279	C	1.028262	0.244317	0.499948
C280	C	1.278262	0.494317	0.749948
N281	N	0.572598	-0.236567	-0.000057
N282	N	0.822598	0.013433	0.249943
N283	N	1.072598	0.263433	0.499943
N284	N	1.322598	0.513433	0.749943
C285	C	0.616421	-0.267867	-0.000062
C286	C	0.866421	-0.017867	0.249938
C287	C	1.116421	0.232133	0.499938
C288	C	1.366421	0.482133	0.749938
C289	C	0.523596	-0.714450	-0.000033
C290	C	0.773596	-0.464450	0.249967
C291	C	1.023596	-0.214450	0.499967
C292	C	1.273596	0.035550	0.749967
C293	C	0.523083	-0.764864	-0.000033
C294	C	0.773083	-0.514864	0.249967
C295	C	1.023083	-0.264864	0.499967
C296	C	1.273083	-0.014864	0.749967
C297	C	0.611246	-0.777049	-0.000044
C298	C	0.861246	-0.527049	0.249956
C299	C	1.111246	-0.277049	0.499956
C300	C	1.361246	-0.027049	0.749956
C301	C	0.611759	-0.726633	-0.000048
C302	C	0.861759	-0.476633	0.249952
C303	C	1.111759	-0.226633	0.499952
C304	C	1.361759	0.023367	0.749952
C305	C	0.567932	-0.695335	-0.000038
C306	C	0.817932	-0.445335	0.249962
C307	C	1.067932	-0.195335	0.499962
C308	C	1.317932	0.054665	0.749962
C309	C	0.617494	-0.161998	-0.000073
C310	C	0.867494	0.088002	0.249927
C311	C	1.117494	0.338002	0.499927
C312	C	1.367494	0.588002	0.749927
C313	C	0.618002	-0.111581	-0.000079
C314	C	0.868002	0.138419	0.249921
C315	C	1.118002	0.388419	0.499921
C316	C	1.368002	0.638419	0.749921
C317	C	0.529839	-0.099401	-0.000066
C318	C	0.779839	0.150599	0.249934
C319	C	1.029839	0.400599	0.499934
C320	C	1.279839	0.650599	0.749934
C321	C	0.529331	-0.149813	-0.000062
C322	C	0.779331	0.100187	0.249938
C323	C	1.029331	0.350187	0.499938
C324	C	1.279331	0.600187	0.749938
C325	C	0.573162	-0.181111	-0.000063
C326	C	0.823162	0.068889	0.249937
C327	C	1.073162	0.318889	0.499937
C328	C	1.323162	0.568889	0.749937
O329	O	0.491060	-0.224391	-0.000064
O330	O	0.741060	0.025609	0.249936
O331	O	0.991060	0.275609	0.499936
O332	O	1.241060	0.525609	0.749936
O333	O	0.654174	-0.246971	-0.000061
O334	O	0.904174	0.003029	0.249939
O335	O	1.154174	0.253029	0.499939
O336	O	1.404174	0.503029	0.749939
C337	C	0.614372	-0.469517	-0.000049
C338	C	0.864372	-0.219517	0.249951
C339	C	1.114372	0.030483	0.499951
C340	C	1.364372	0.280483	0.749951
C341	C	0.570036	-0.488629	-0.000039
C342	C	0.820036	-0.238629	0.249961
C343	C	1.070036	0.011371	0.499961
C344	C	1.320036	0.261371	0.749961
C345	C	0.526213	-0.457330	-0.000034
C346	C	0.776213	-0.207330	0.249966
C347	C	1.026213	0.042670	0.499966
C348	C	1.276213	0.292670	0.749966
C349	C	0.569523	-0.539043	-0.000039
C350	C	0.819523	-0.289043	0.249961
C351	C	1.069523	-0.039043	0.499961
C352	C	1.319523	0.210957	0.749961
C353	C	0.613346	-0.570343	-0.000044
C354	C	0.863346	-0.320343	0.249956
C355	C	1.113346	-0.070343	0.499956
C356	C	1.363346	0.179657	0.749956
C357	C	0.657683	-0.551228	-0.000049
C358	C	0.907683	-0.301228	0.249951
C359	C	1.157683	-0.051228	0.499951
C360	C	1.407683	0.198772	0.749951
C361	C	0.658195	-0.500816	-0.000054
C362	C	0.908195	-0.250816	0.249946
C363	C	1.158195	-0.000816	0.499946
C364	C	1.408195	0.249184	0.749946
C365	C	0.481876	-0.476445	-0.000029
C366	C	0.731876	-0.226445	0.249971
C367	C	0.981876	0.023555	0.499971
C368	C	1.231876	0.273555	0.749971
C369	C	0.481367	-0.526857	-0.000025
C370	C	0.731367	-0.276857	0.249975
C371	C	0.981367	-0.026857	0.499975
C372	C	1.231367	0.223143	0.749975
C373	C	0.525191	-0.558157	-0.000030
C374	C	0.775191	-0.308157	0.249970
C375	C	1.025191	-0.058157	0.499970
C376	C	1.275191	0.191843	0.749970
C377	C	0.658949	0.057571	-0.000068
C378	C	0.908949	0.307571	0.249932
C379	C	1.158949	0.557571	0.499932
C380	C	1.408949	0.807571	0.749932
C381	C	0.712605	0.058114	-0.000071
C382	C	0.962605	0.308114	0.249929
C383	C	1.212605	0.558114	0.499929
C384	C	1.462605	0.808114	0.749929
C385	C	0.566353	0.150182	-0.000046
C386	C	0.816353	0.400182	0.249954
C387	C	1.066353	0.650182	0.499954
C388	C	1.316353	0.900182	0.749954
C389	C	0.566906	0.203837	-0.000038
C390	C	0.816906	0.453837	0.249962
C391	C	1.066906	0.703837	0.499962
C392	C	1.316906	0.953837	0.749962
N393	N	0.570497	0.061776	-0.120820
N394	N	0.820497	0.311776	0.129180
N395	N	1.070497	0.561776	0.379180
N396	N	1.320497	0.811776	0.629180
C397	C	0.537423	0.094877	-0.526779
C398	C	0.787423	0.344877	-0.276779
C399	C	1.037423	0.594877	-0.026779
C400	C	1.287423	0.844877	0.223221
C401	C	0.537399	0.094877	-0.313120
C402	C	0.787399	0.344877	-0.063120
C403	C	1.037399	0.594877	0.186880
C404	C	1.287399	0.844877	0.436880
O405	O	0.509221	0.123016	-0.285494
O406	O	0.759221	0.373016	-0.035494
O407	O	1.009221	0.623016	0.214506
O408	O	1.259221	0.873016	0.464506
N409	N	0.570512	0.061774	-0.286403
N410	N	0.820512	0.311774	-0.036403
N411	N	1.070512	0.561774	0.213597
N412	N	1.320512	0.811774	0.463597
C413	C	0.603632	0.028667	-0.313105
C414	C	0.853632	0.278667	-0.063105
C415	C	1.103632	0.528667	0.186895
C416	C	1.353632	0.778667	0.436895
O417	O	0.631792	0.000508	-0.285478
O418	O	0.881792	0.250508	-0.035478
O419	O	1.131792	0.500508	0.214522
O420	O	1.381792	0.750508	0.464522
C421	C	0.603652	0.028665	-0.526762
C422	C	0.853652	0.278665	-0.276762
C423	C	1.103652	0.528665	-0.026762
C424	C	1.353652	0.778665	0.223238
C425	C	0.570540	0.061773	-0.553476
C426	C	0.820540	0.311773	-0.303476
C427	C	1.070540	0.561773	-0.053476
C428	C	1.320540	0.811773	0.196524
C429	C	0.504313	0.127982	-0.553493
C430	C	0.754313	0.377982	-0.303493
C431	C	1.004313	0.627982	-0.053493
C432	C	1.254313	0.877982	0.196507
C433	C	0.504321	0.127983	-0.606904
C434	C	0.754321	0.377983	-0.356904
C435	C	1.004321	0.627983	-0.106904
C436	C	1.254321	0.877983	0.143096
C437	C	0.537438	0.094880	-0.633602
C438	C	0.787438	0.344880	-0.383602
C439	C	1.037438	0.594880	-0.133602
C440	C	1.287438	0.844880	0.116398
C441	C	0.570548	0.061774	-0.606888
C442	C	0.820548	0.311774	-0.356888
C443	C	1.070548	0.561774	-0.106888
C444	C	1.320548	0.811774	0.143112
C445	C	0.636769	-0.004444	-0.553463
C446	C	0.886769	0.245556	-0.303463
C447	C	1.136769	0.495556	-0.053463
C448	C	1.386769	0.745556	0.196537
C449	C	0.636770	-0.004442	-0.606880
C450	C	0.886770	0.245558	-0.356880
C451	C	1.136770	0.495558	-0.106880
C452	C	1.386770	0.745558	0.143120
C453	C	0.603658	0.028666	-0.633594
C454	C	0.853658	0.278666	-0.383594
C455	C	1.103658	0.528666	-0.133594
C456	C	1.353658	0.778666	0.116406
C457	C	0.603674	0.028672	-0.686997
C458	C	0.853674	0.278672	-0.436997
C459	C	1.103674	0.528672	-0.186997
C460	C	1.353674	0.778672	0.063003
N461	N	0.570560	0.061775	-0.713713
N462	N	0.820560	0.311775	-0.463713
N463	N	1.070560	0.561775	-0.213713
N464	N	1.320560	0.811775	0.036287
C465	C	0.537443	0.094878	-0.687016
C466	C	0.787443	0.344878	-0.437016
C467	C	1.037443	0.594878	-0.187016
C468	C	1.287443	0.844878	0.062984
C469	C	0.603619	0.028671	-0.200931
C470	C	0.853619	0.278671	0.049069
C471	C	1.103619	0.528671	0.299069
C472	C	1.353619	0.778671	0.549069
C473	C	0.603615	0.028672	-0.147517
C474	C	0.853615	0.278672	0.102483
C475	C	1.103615	0.528672	0.352483
C476	C	1.353615	0.778672	0.602483
C477	C	0.537382	0.094882	-0.147536
C478	C	0.787382	0.344882	0.102464
C479	C	1.037382	0.594882	0.352464
C480	C	1.287382	0.844882	0.602464
C481	C	0.537389	0.094883	-0.200951
C482	C	0.787389	0.344883	0.049049
C483	C	1.037389	0.594883	0.299049
C484	C	1.287389	0.844883	0.549049
C485	C	0.570506	0.061774	-0.227648
C486	C	0.820506	0.311774	0.022352
C487	C	1.070506	0.561774	0.272352
C488	C	1.320506	0.811774	0.522352
C489	C	0.537462	0.094879	-0.799184
C490	C	0.787462	0.344879	-0.549184
C491	C	1.037462	0.594879	-0.299184
C492	C	1.287462	0.844879	-0.049184
C493	C	0.537474	0.094879	-0.852600
C494	C	0.787474	0.344879	-0.602600
C495	C	1.037474	0.594879	-0.352600
C496	C	1.287474	0.844879	-0.102600
C497	C	0.603705	0.028668	-0.852576
C498	C	0.853705	0.278668	-0.602576
C499	C	1.103705	0.528668	-0.352576
C500	C	1.353705	0.778668	-0.102576
C501	C	0.603695	0.028670	-0.799165
C502	C	0.853695	0.278670	-0.549165
C503	C	1.103695	0.528670	-0.299165
C504	C	1.353695	0.778670	-0.049165
C505	C	0.570570	0.061777	-0.772470
C506	C	0.820570	0.311777	-0.522470
C507	C	1.070570	0.561777	-0.272470
C508	C	1.320570	0.811777	-0.022470
O509	O	0.631834	0.000544	-0.714655
O510	O	0.881834	0.250544	-0.464655
O511	O	1.131834	0.500544	-0.214655
O512	O	1.381834	0.750544	0.035345
O513	O	0.509279	0.123026	-0.714652
O514	O	0.759279	0.373026	-0.464652
O515	O	1.009279	0.623026	-0.214652
O516	O	1.259279	0.873026	0.035348
C517	C	0.537415	0.094875	-0.473367
C518	C	0.787415	0.344875	-0.223367
C519	C	1.037415	0.594875	0.026633
C520	C	1.287415	0.844875	0.276633
C521	C	0.570524	0.061770	-0.446653
C522	C	0.820524	0.311770	-0.196653
C523	C	1.070524	0.561770	0.053347
C524	C	1.320524	0.811770	0.303347
C525	C	0.603642	0.028667	-0.473351
C526	C	0.853642	0.278667	-0.223351
C527	C	1.103642	0.528667	0.026649
C528	C	1.353642	0.778667	0.276649
C529	C	0.570520	0.061771	-0.393239
C530	C	0.820520	0.311771	-0.143239
C531	C	1.070520	0.561771	0.106761
C532	C	1.320520	0.811771	0.356761
C533	C	0.537402	0.094875	-0.366542
C534	C	0.787402	0.344875	-0.116542
C535	C	1.037402	0.594875	0.133458
C536	C	1.287402	0.844875	0.383458
C537	C	0.504289	0.127978	-0.393258
C538	C	0.754289	0.377978	-0.143258
C539	C	1.004289	0.627978	0.106742
C540	C	1.254289	0.877978	0.356742
C541	C	0.504297	0.127979	-0.446670
C542	C	0.754297	0.377979	-0.196670
C543	C	1.004297	0.627979	0.053330
C544	C	1.254297	0.877979	0.303330
C545	C	0.636755	-0.004436	-0.446634
C546	C	0.886755	0.245564	-0.196634
C547	C	1.136755	0.495564	0.053366
C548	C	1.386755	0.745564	0.303366
C549	C	0.636745	-0.004434	-0.393223
C550	C	0.886745	0.245566	-0.143223
C551	C	1.136745	0.495566	0.106777
C552	C	1.386745	0.745566	0.356777
C553	C	0.603627	0.028670	-0.366525
C554	C	0.853627	0.278670	-0.116525
C555	C	1.103627	0.528670	0.133475
C556	C	1.353627	0.778670	0.383475
N557	N	0.570592	0.061775	0.120703
N558	N	0.820592	0.311775	0.370703
N559	N	1.070592	0.561775	0.620703
N560	N	1.320592	0.811775	0.870703
H561	H	-0.050758	0.060524	0.130116
H562	H	0.199242	0.310524	0.380116
H563	H	0.449242	0.560524	0.630116
H564	H	0.699242	0.810524	0.880116
H565	H	0.446789	-0.391167	-0.000016
H566	H	0.696789	-0.141167	0.249984
H567	H	0.946789	0.108833	0.499984
H568	H	1.196789	0.358833	0.749984
H569	H	0.486977	-0.780420	-0.000034
H570	H	0.736977	-0.530420	0.249966
H571	H	0.986977	-0.280420	0.499966
H572	H	1.236977	-0.030420	0.749966
H573	H	0.040689	0.061459	0.130118
H574	H	0.290689	0.311459	0.380118
H575	H	0.540689	0.561459	0.630118
H576	H	0.790689	0.811459	0.880118
H577	H	0.510426	0.121842	-0.222699
H578	H	0.760426	0.371842	0.027301
H579	H	1.010426	0.621842	0.277301
H580	H	1.260426	0.871842	0.527301
H581	H	-0.191276	0.059099	-0.083998
H582	H	0.058724	0.309099	0.166002
H583	H	0.308724	0.559099	0.416002
H584	H	0.558724	0.809099	0.666002
H585	H	0.630588	0.001710	-0.222664
H586	H	0.880588	0.251710	0.027336
H587	H	1.130588	0.501710	0.277336
H588	H	1.380588	0.751710	0.527336
F589	F	-0.288985	0.058103	0.095421
F590	F	-0.038985	0.308103	0.345421
F591	F	0.211015	0.558103	0.595421
F592	F	0.461015	0.808103	0.845421
H593	H	0.510416	0.121837	-0.125790
H594	H	0.760416	0.371837	0.124210
H595	H	1.010416	0.621837	0.374210
H596	H	1.260416	0.871837	0.624210
F597	F	0.658950	-0.706298	-0.000058
F598	F	0.908950	-0.456298	0.249942
F599	F	1.158950	-0.206298	0.499942
F600	F	1.408950	0.043702	0.749942
H601	H	0.423771	0.065397	-0.083970
H602	H	0.673771	0.315397	0.166030
H603	H	0.923771	0.565397	0.416030
H604	H	1.173771	0.815397	0.666030
F605	F	0.046919	0.061526	-0.141812
F606	F	0.296919	0.311526	0.108188
F607	F	0.546919	0.561526	0.358188
F608	F	0.796919	0.811526	0.608188
H609	H	0.663731	-0.031404	-0.531720
H610	H	0.913731	0.218596	-0.281720
H611	H	1.163731	0.468596	-0.031720
H612	H	1.413731	0.718596	0.218280
H613	H	0.510488	0.121838	-0.777455
H614	H	0.760488	0.371838	-0.527455
H615	H	1.010488	0.621838	-0.277455
H616	H	1.260488	0.871838	-0.027455
H617	H	0.487905	-0.688970	-0.000026
H618	H	0.737905	-0.438970	0.249974
H619	H	0.987905	-0.188970	0.499974
H620	H	1.237905	0.061030	0.749974
F621	F	0.436764	-0.291890	-0.000016
F622	F	0.686764	-0.041890	0.249984
F623	F	0.936764	0.208110	0.499984
F624	F	1.186764	0.458110	0.749984
F625	F	0.469054	0.163217	-0.475094
F626	F	0.719054	0.413217	-0.225094
F627	F	0.969054	0.663217	0.024906
F628	F	1.219054	0.913217	0.274906
H629	H	-0.282741	0.058161	-0.083996
H630	H	-0.032741	0.308161	0.166004
H631	H	0.217259	0.558161	0.416004
H632	H	0.467259	0.808161	0.666004
H633	H	0.493226	-0.165375	-0.000068
H634	H	0.743226	0.084625	0.249932
H635	H	0.993226	0.334625	0.499932
H636	H	1.243226	0.584625	0.749932
F637	F	0.704323	-0.584547	-0.000057
F638	F	0.954323	-0.334547	0.249943
F639	F	1.204323	-0.084547	0.499943
F640	F	1.454323	0.165453	0.749943
F641	F	0.638863	-0.006560	-0.119092
F642	F	0.888863	0.243440	0.130908
F643	F	1.138863	0.493440	0.380908
F644	F	1.388863	0.743440	0.630908
F645	F	0.198244	0.063058	0.141695
F646	F	0.448244	0.313058	0.391695
F647	F	0.698244	0.563058	0.641695
F648	F	0.948244	0.813058	0.891695
F649	F	-0.184930	0.059156	0.095427
F650	F	0.065070	0.309156	0.345427
F651	F	0.315070	0.559156	0.595427
F652	F	0.565070	0.809156	0.845427
F653	F	0.483202	-0.066081	-0.000061
F654	F	0.733202	0.183919	0.249939
F655	F	0.983202	0.433919	0.499939
F656	F	1.233202	0.683919	0.749939
F657	F	0.326018	0.064384	-0.095546
F658	F	0.576018	0.314384	0.154454
F659	F	0.826018	0.564384	0.404454
F660	F	1.076018	0.814384	0.654454
H661	H	0.694301	-0.485260	-0.000062
H662	H	0.944301	-0.235260	0.249938
H663	H	1.194301	0.014740	0.499938
H664	H	1.444301	0.264740	0.749938
F665	F	0.094189	0.061998	0.141695
F666	F	0.344189	0.311998	0.391695
F667	F	0.594189	0.561998	0.641695
F668	F	0.844189	0.811998	0.891695
H669	H	0.663738	-0.031405	-0.628614
H670	H	0.913738	0.218595	-0.378614
H671	H	1.163738	0.468595	-0.128614
H672	H	1.413738	0.718595	0.121386
H673	H	0.445258	-0.542413	-0.000021
H674	H	0.695258	-0.292413	0.249979
H675	H	0.945258	-0.042413	0.499979
H676	H	1.195258	0.207587	0.749979
H677	H	0.477357	0.154941	-0.628651
H678	H	0.727357	0.404941	-0.378651
H679	H	0.977357	0.654941	-0.128651
H680	H	1.227357	0.904941	0.121349
F681	F	0.435231	-0.443140	-0.000022
F682	F	0.685231	-0.193140	0.249978
F683	F	0.935231	0.056860	0.499978
F684	F	1.185231	0.306860	0.749978
F685	F	0.664144	-0.195300	-0.000074
F686	F	0.914144	0.054700	0.249926
F687	F	1.164144	0.304700	0.499926
F688	F	1.414144	0.554700	0.749926
F689	F	0.502232	0.130119	-0.881028
F690	F	0.752232	0.380119	-0.631028
F691	F	1.002232	0.630119	-0.381028
F692	F	1.252232	0.880119	-0.131028
H693	H	-0.050840	0.060524	-0.130243
H694	H	0.199160	0.310524	0.119757
H695	H	0.449160	0.560524	0.369757
H696	H	0.699160	0.810524	0.619757
H697	H	0.477342	0.154939	-0.531760
H698	H	0.727342	0.404939	-0.281760
H699	H	0.977342	0.654939	-0.031760
H700	H	1.227342	0.904939	0.218240
H701	H	0.646929	-0.802541	-0.000048
H702	H	0.896929	-0.552541	0.249952
H703	H	1.146929	-0.302541	0.499952
H704	H	1.396929	-0.052541	0.749952
H705	H	0.630663	0.001715	-0.777414
H706	H	0.880663	0.251715	-0.527414
H707	H	1.130663	0.501715	-0.277414
H708	H	1.380663	0.751715	-0.027414
H709	H	0.630671	0.001717	-0.874322
H710	H	0.880671	0.251717	-0.624322
H711	H	1.130671	0.501717	-0.374322
H712	H	1.380671	0.751717	-0.124322
F713	F	0.665196	-0.091244	-0.000090
F714	F	0.915196	0.158756	0.249910
F715	F	1.165196	0.408756	0.499910
F716	F	1.415196	0.658756	0.749910
F717	F	0.469044	0.163211	-0.364835
F718	F	0.719044	0.413211	-0.114835
F719	F	0.969044	0.663211	0.135165
F720	F	1.219044	0.913211	0.385165
F721	F	0.671992	-0.039672	-0.364797
F722	F	0.921992	0.210328	-0.114797
F723	F	1.171992	0.460328	0.135203
F724	F	1.421992	0.710328	0.385203
H725	H	0.663723	-0.031394	-0.468367
H726	H	0.913723	0.218606	-0.218367
H727	H	1.163723	0.468606	0.031633
H728	H	1.413723	0.718606	0.281633
H729	H	0.191855	0.063013	-0.130240
H730	H	0.441855	0.313013	0.119760
H731	H	0.691855	0.563013	0.369760
H732	H	0.941855	0.813013	0.619760
H733	H	0.100409	0.062074	-0.130243
H734	H	0.350409	0.312074	0.119757
H735	H	0.600409	0.562074	0.369757
H736	H	0.850409	0.812074	0.619757
F737	F	0.430128	0.065456	0.095446
F738	F	0.680128	0.315456	0.345446
F739	F	0.930128	0.565456	0.595446
F740	F	1.180128	0.815456	0.845446
F741	F	0.706924	-0.329246	-0.000067
F742	F	0.956924	-0.079246	0.249933
F743	F	1.206924	0.170754	0.499933
F744	F	1.456924	0.420754	0.749933
F745	F	0.705867	-0.433296	-0.000068
F746	F	0.955867	-0.183296	0.249932
F747	F	1.205867	0.066704	0.499932
F748	F	1.455867	0.316704	0.749932
F749	F	0.326055	0.064396	0.095446
F750	F	0.576055	0.314396	0.345446
F751	F	0.826055	0.564396	0.595446
F752	F	1.076055	0.814396	0.845446
