data_functionalizedCrystal
_audit_creation_method	'MofGen! by Chris Wilmer'
_symmetry_space_group_name_H-M	'P1'
_symmetry_Int_Tables_number	1
_symmetry_cell_setting	triclinic
loop_
_symmetry_equiv_pos_as_xyz
  x,y,z
_cell_length_a	17.699083
_cell_length_b	15.500227
_cell_length_c	17.699083
_cell_angle_alpha	87.178547
_cell_angle_beta	83.283015
_cell_angle_gamma	92.832683
loop_
_atom_site_label
_atom_site_type_symbol
_atom_site_fract_x
_atom_site_fract_y
_atom_site_fract_z
O1	O	1.007597	0.071824	0.092197
O2	O	1.507597	0.571824	0.592197
O3	O	0.787220	0.071853	0.104648
O4	O	1.287220	0.571853	0.604648
O5	O	0.903634	0.071830	-0.011766
O6	O	1.403634	0.571830	0.488234
O7	O	0.891183	0.071847	0.208611
O8	O	1.391183	0.571847	0.708611
O9	O	0.896570	-0.072057	-0.004730
O10	O	1.396570	0.427943	0.495270
O11	O	0.780156	-0.072035	0.111685
O12	O	1.280156	0.427965	0.611685
O13	O	1.000533	-0.072063	0.099234
O14	O	1.500533	0.427937	0.599234
Cu15	Cu	0.889699	-0.085187	0.106102
Cu16	Cu	1.389699	0.414813	0.606102
Cu17	Cu	0.898054	0.084976	0.097780
Cu18	Cu	1.398054	0.584976	0.597780
O19	O	0.884118	-0.072041	0.215648
O20	O	1.384118	0.427959	0.715648
C21	C	0.755491	-0.000087	0.107720
C22	C	1.255491	0.499913	0.607720
C23	C	0.671474	-0.000077	0.106381
C24	C	1.171474	0.499923	0.606381
N25	N	0.883829	-0.204871	0.111954
N26	N	1.383829	0.295129	0.611954
C27	C	0.622853	-0.000072	0.174714
C28	C	1.122853	0.499928	0.674714
C29	C	0.543909	-0.000083	0.173452
C30	C	1.043909	0.499917	0.673452
C31	C	0.513588	-0.000093	0.103856
C32	C	1.013588	0.499907	0.603856
C33	C	0.562214	-0.000101	0.035518
C34	C	1.062214	0.499899	0.535518
C35	C	0.641157	-0.000096	0.036781
C36	C	1.141157	0.499904	0.536781
C37	C	0.243850	-0.000123	0.030424
C38	C	0.743850	0.499877	0.530424
C39	C	0.164902	-0.000125	0.029166
C40	C	0.664902	0.499875	0.529166
C41	C	0.146603	-0.000110	0.167095
C42	C	0.646603	0.499890	0.667095
C43	C	0.225545	-0.000105	0.168358
C44	C	0.725545	0.499895	0.668358
C45	C	0.274164	-0.000117	0.100020
C46	C	0.774164	0.499883	0.600020
C47	C	0.359764	-0.000106	0.101389
C48	C	0.859764	0.499894	0.601389
C49	C	0.427990	-0.000098	0.102486
C50	C	0.927990	0.499902	0.602486
C51	C	0.933175	-0.250157	0.062643
C52	C	1.433175	0.249843	0.562643
C53	C	0.928742	-0.340729	0.067077
C54	C	1.428742	0.159271	0.567077
C55	C	0.874966	-0.386013	0.120825
C56	C	1.374966	0.113987	0.620825
C57	C	0.825615	-0.340721	0.170137
C58	C	1.325615	0.159279	0.670137
C59	C	0.830045	-0.250150	0.165700
C60	C	1.330045	0.249850	0.665700
C61	C	0.859009	-0.659477	0.136797
C62	C	1.359009	-0.159477	0.636797
C63	C	0.854584	-0.750054	0.141232
C64	C	1.354584	-0.250054	0.641232
C65	C	0.957710	-0.750056	0.038170
C66	C	1.457710	-0.250056	0.538170
C67	C	0.962138	-0.659484	0.033740
C68	C	1.462138	-0.159484	0.533740
C69	C	0.912785	-0.614199	0.083050
C70	C	1.412785	-0.114199	0.583050
C71	C	0.870436	-0.478592	0.125359
C72	C	1.370436	0.021408	0.625359
C73	C	0.917312	-0.521622	0.078512
C74	C	1.417312	-0.021622	0.578512
C75	C	1.032262	-0.000121	0.096162
C76	C	1.532262	0.499879	0.596162
C77	C	1.116280	-0.000126	0.097500
C78	C	1.616280	0.499874	0.597500
C79	C	0.899656	-0.000114	-0.036445
C80	C	1.399656	0.499886	0.463555
C81	C	0.898317	-0.000114	-0.120463
C82	C	1.398317	0.499886	0.379537
N83	N	0.903930	0.204660	0.091921
N84	N	1.403930	0.704660	0.591921
C85	C	0.966650	-0.000124	-0.169084
C86	C	1.466650	0.499876	0.330916
C87	C	0.965388	-0.000116	-0.248027
C88	C	1.465388	0.499884	0.251973
C89	C	0.895793	-0.000105	-0.278349
C90	C	1.395793	0.499895	0.221651
C91	C	0.827455	-0.000092	-0.229722
C92	C	1.327455	0.499908	0.270278
C93	C	0.828718	-0.000094	-0.150780
C94	C	1.328718	0.499906	0.349220
C95	C	0.822360	-0.000084	-0.548085
C96	C	1.322360	0.499916	-0.048085
C97	C	0.821102	-0.000085	-0.627033
C98	C	1.321102	0.499915	-0.127033
C99	C	0.959031	-0.000107	-0.645332
C100	C	1.459031	0.499893	-0.145332
C101	C	0.960294	-0.000109	-0.566391
C102	C	1.460294	0.499891	-0.066391
C103	C	0.891956	-0.000091	-0.517771
C104	C	1.391956	0.499909	-0.017771
C105	C	0.893325	-0.000098	-0.432172
C106	C	1.393325	0.499902	0.067828
C107	C	0.894422	-0.000104	-0.363946
C108	C	1.394422	0.499896	0.136054
C109	C	0.888097	-0.000095	0.240326
C110	C	1.388097	0.499905	0.740326
C111	C	0.889436	-0.000089	0.324344
C112	C	1.389436	0.499911	0.824344
H113	H	0.647534	-0.000063	0.231387
H114	H	1.147534	0.499937	0.731387
F115	F	0.813205	-0.526792	0.182562
F116	F	1.313205	-0.026792	0.682562
H117	H	0.140218	-0.000134	-0.027511
H118	H	0.640218	0.499866	0.472489
H119	H	0.107007	-0.000105	0.222739
H120	H	0.607007	0.499895	0.722739
H121	H	0.968923	-0.377601	0.026923
H122	H	1.468923	0.122399	0.526923
H123	H	0.250228	-0.000093	0.225030
H124	H	0.750228	0.499907	0.725030
H125	H	0.976968	-0.213293	0.018879
H126	H	1.476968	0.286707	0.518879
H127	H	0.283428	-0.000133	-0.025221
H128	H	0.783428	0.499867	0.474779
F129	F	0.749629	-0.000064	-0.496351
F130	F	1.249629	0.499936	0.003649
H131	H	0.504325	-0.000078	0.229096
H132	H	1.004325	0.499922	0.729096
F133	F	0.529942	-0.000117	-0.038551
F134	F	1.029942	0.499883	0.461449
F135	F	1.040725	-0.000145	-0.136821
F136	F	1.540725	0.499855	0.363179
H137	H	0.680743	-0.000099	-0.018863
H138	H	1.180743	0.499901	0.481137
F139	F	0.753385	-0.000070	-0.261995
F140	F	1.253385	0.499930	0.238005
H141	H	0.789861	-0.213279	0.205853
H142	H	1.289861	0.286721	0.705853
H143	H	1.005927	-0.622615	-0.010026
H144	H	1.505927	-0.122615	0.489974
H145	H	1.021032	-0.000126	-0.287611
H146	H	1.521032	0.499874	0.212389
F147	F	0.755988	-0.000080	-0.099035
F148	F	1.255988	0.499920	0.400965
H149	H	0.997891	-0.786935	-0.001977
H150	H	1.497891	-0.286935	0.498023
H151	H	0.810791	-0.786920	0.185003
H152	H	1.310791	-0.286920	0.685003
F153	F	1.034367	-0.000120	-0.534125
F154	F	1.534367	0.499880	-0.034125
H155	H	0.764425	-0.000077	-0.651717
H156	H	1.264425	0.499923	-0.151717
H157	H	0.818824	-0.622613	0.176949
H158	H	1.318824	-0.122613	0.676949
H159	H	0.781826	-0.377596	0.213898
H160	H	1.281826	0.122404	0.713898
F161	F	1.031762	-0.000122	-0.697083
F162	F	1.531762	0.499878	-0.197083
F163	F	0.974540	-0.473426	0.021308
F164	F	1.474540	0.026574	0.521308
