data_functionalizedCrystal
_audit_creation_method	'MofGen! by Chris Wilmer'
_symmetry_space_group_name_H-M	'P1'
_symmetry_Int_Tables_number	1
_symmetry_cell_setting	triclinic
loop_
_symmetry_equiv_pos_as_xyz
  x,y,z
_cell_length_a	12.827893
_cell_length_b	13.897448
_cell_length_c	12.827885
_cell_angle_alpha	89.967724
_cell_angle_beta	89.980728
_cell_angle_gamma	90.017663
loop_
_atom_site_label
_atom_site_type_symbol
_atom_site_fract_x
_atom_site_fract_y
_atom_site_fract_z
Zn1	Zn	1.597653	-0.383969	-0.590831
Zn2	Zn	2.097653	0.116031	-0.090831
Zn3	Zn	1.597540	-0.545295	-0.416083
Zn4	Zn	2.097540	-0.045295	0.083917
Zn5	Zn	1.422894	-0.384016	-0.416104
Zn6	Zn	1.922894	0.115984	0.083896
Zn7	Zn	1.422873	-0.545224	-0.590783
Zn8	Zn	1.922873	-0.045224	-0.090783
O9	O	1.510240	-0.464626	-0.503450
O10	O	2.010240	0.035374	-0.003450
O11	O	1.743874	-0.405380	-0.567661
O12	O	2.243874	0.094620	-0.067661
O13	O	1.574335	-0.523951	-0.269850
O14	O	2.074335	-0.023951	0.230150
O15	O	1.446133	-0.249028	-0.439311
O16	O	1.946133	0.250972	0.060689
O17	O	1.743791	-0.523905	-0.439275
O18	O	2.243791	-0.023905	0.060725
O19	O	1.574527	-0.248994	-0.567681
O20	O	2.074527	0.251006	-0.067681
O21	O	1.446023	-0.405460	-0.269865
O22	O	1.946023	0.094540	0.230135
O23	O	1.276655	-0.405390	-0.439265
O24	O	1.776655	0.094610	0.060735
O25	O	1.446096	-0.523783	-0.737026
O26	O	1.946096	-0.023783	-0.237026
O27	O	1.276639	-0.523829	-0.567601
O28	O	1.776639	-0.023829	-0.067601
O29	O	1.574506	-0.405310	-0.737060
O30	O	2.074506	0.094690	-0.237060
O31	O	1.574314	-0.680267	-0.439229
O32	O	2.074314	-0.180267	0.060771
O33	O	1.445986	-0.680215	-0.567580
O34	O	1.945986	-0.180215	-0.067580
C35	C	1.238730	-0.464607	-0.503430
C36	C	1.738730	0.035393	-0.003430
C37	C	1.122577	-0.464623	-0.503447
C38	C	1.622577	0.035377	-0.003447
C39	C	1.070812	-0.523321	-0.566853
C40	C	1.570812	-0.023321	-0.066853
C41	C	0.950762	-0.523338	-0.566872
C42	C	1.450762	-0.023338	-0.066872
C43	C	1.510164	-0.715240	-0.503420
C44	C	2.010164	-0.215240	-0.003420
C45	C	1.510227	-0.822454	-0.503442
C46	C	2.010227	-0.322454	-0.003442
C47	C	1.510336	-1.018749	-0.503508
C48	C	2.010336	-0.518749	-0.003508
C49	C	1.510272	-0.909517	-0.503474
C50	C	2.010272	-0.409517	-0.003474
C51	C	1.782810	-0.464645	-0.503471
C52	C	2.282810	0.035355	-0.003471
C53	C	1.898963	-0.464654	-0.503480
C54	C	2.398963	0.035346	-0.003480
C55	C	1.510311	-0.464533	-0.776021
C56	C	2.010311	0.035467	-0.276021
C57	C	1.510341	-0.464494	-0.892174
C58	C	2.010341	0.035506	-0.392174
C59	C	1.510345	-0.213033	-0.503504
C60	C	2.010345	0.286967	-0.003504
C61	C	1.510390	-0.105819	-0.503526
C62	C	2.010390	0.394181	-0.003526
C63	C	1.573890	-0.405858	-0.943976
C64	C	2.073890	0.094142	-0.443976
C65	C	1.573923	-0.405816	-1.064026
C66	C	2.073923	0.094184	-0.564026
C67	C	1.510229	-0.464649	-0.231940
C68	C	2.010229	0.035351	0.268060
C69	C	1.510401	-0.464416	-0.115788
C70	C	2.010401	0.035584	0.384212
H71	H	0.943473	-0.414400	-0.449188
H72	H	1.443473	0.085600	0.050812
N73	N	1.442097	-0.527427	-0.948009
N74	N	1.942097	-0.027427	-0.448009
N75	N	1.345659	-0.521029	-0.935891
N76	N	1.845659	-0.021029	-0.435891
H77	H	1.297456	-0.565475	-0.975323
H78	H	1.797456	-0.065475	-0.475323
H79	H	1.628268	-0.355686	-0.899449
H80	H	2.128268	0.144314	-0.399449
N81	N	1.126718	-0.586351	-0.634927
N82	N	1.626718	-0.086351	-0.134927
N83	N	1.187620	-0.647713	-0.597977
N84	N	1.687620	-0.147713	-0.097977
H85	H	1.227104	-0.692230	-0.646055
H86	H	1.727104	-0.192230	-0.146055
N87	N	0.894909	-0.586389	-0.634959
N88	N	1.394909	-0.086389	-0.134959
N89	N	0.797467	-0.586318	-0.634873
N90	N	1.297467	-0.086318	-0.134873
H91	H	0.758017	-0.630851	-0.682960
H92	H	1.258017	-0.130851	-0.182960
N93	N	1.066690	-0.401576	-0.435376
N94	N	1.566690	0.098424	0.064624
N95	N	1.005798	-0.340207	-0.472329
N96	N	1.505798	0.159793	0.027671
H97	H	0.966330	-0.295676	-0.424253
H98	H	1.466330	0.204324	0.075747
H99	H	1.628332	-0.355619	-1.108575
H100	H	2.128332	0.144381	-0.608575
N101	N	1.442127	-0.527397	-1.059935
N102	N	1.942127	-0.027397	-0.559935
N103	N	1.382404	-0.582486	-1.108546
N104	N	1.882404	-0.082486	-0.608546
H105	H	1.334183	-0.626966	-1.069095
H106	H	1.834183	-0.126966	-0.569095
