data_functionalizedCrystal
_audit_creation_method	'MofGen! by Chris Wilmer'
_symmetry_space_group_name_H-M	'P1'
_symmetry_Int_Tables_number	1
_symmetry_cell_setting	triclinic
loop_
_symmetry_equiv_pos_as_xyz
  x,y,z
_cell_length_a	15.995350
_cell_length_b	15.995300
_cell_length_c	14.048226
_cell_angle_alpha	89.991953
_cell_angle_beta	90.002312
_cell_angle_gamma	96.517909
loop_
_atom_site_label
_atom_site_type_symbol
_atom_site_fract_x
_atom_site_fract_y
_atom_site_fract_z
O1	O	-0.107728	1.111014	-0.079187
O2	O	-0.121099	0.867233	-0.079180
O3	O	0.007475	0.995787	-0.079187
O4	O	-0.236302	0.982460	-0.079179
O5	O	0.007483	0.995772	0.079134
O6	O	-0.121092	0.867217	0.079141
O7	O	-0.107720	1.110999	0.079135
Zn8	Zn	-0.114405	0.989106	0.104275
Zn9	Zn	-0.114415	0.989126	-0.104320
O10	O	-0.236295	0.982444	0.079142
C11	C	-0.120550	0.836030	-0.000018
C12	C	-0.118915	0.743077	-0.000016
C13	C	-0.115896	0.572894	-0.000024
C14	C	-0.207443	0.525428	-0.000019
C15	C	-0.205773	0.428740	-0.000380
C16	C	-0.112924	0.405337	-0.000030
C17	C	-0.067508	0.446479	-0.090262
C18	C	-0.069825	0.543112	-0.090335
C19	C	-0.068461	0.543374	0.089712
C20	C	-0.068469	0.446429	0.090895
C21	C	-0.111239	0.310642	-0.000037
C22	C	-0.117577	0.667590	-0.000023
C23	C	-0.267493	0.983003	-0.000018
C24	C	-0.360443	0.984655	-0.000015
C25	C	-0.698190	0.990587	-0.000030
C26	C	-0.650739	1.082141	-0.000386
C27	C	-0.554049	1.080489	-0.000024
C28	C	-0.530630	0.987644	-0.000023
C29	C	-0.571716	0.942478	0.090384
C30	C	-0.668352	0.944778	0.090454
C31	C	-0.668708	0.942904	-0.089587
C32	C	-0.571763	0.942926	-0.090776
C33	C	-0.435933	0.985977	-0.000016
C34	C	-0.792887	0.992252	-0.000031
C35	C	0.038674	0.995229	-0.000029
C36	C	0.131624	0.993577	-0.000038
C37	C	-0.108269	1.142202	-0.000029
C38	C	-0.109904	1.235154	-0.000037
N39	N	-0.114397	0.989098	0.246636
N40	N	-0.114415	0.989140	-0.246681
C41	C	-0.057488	1.046040	0.296450
C42	C	-0.057488	1.046045	0.396108
C43	C	-0.114401	0.989112	0.445949
C44	C	-0.171313	0.932165	0.396127
C45	C	-0.171309	0.932156	0.296472
C46	C	-0.171319	0.932189	0.603842
C47	C	-0.171325	0.932199	0.703504
C48	C	-0.057498	1.046078	0.703478
C49	C	-0.057494	1.046069	0.603822
C50	C	-0.114407	0.989122	0.554007
H51	H	-0.241459	0.400271	0.064287
H52	H	-0.000964	0.575155	0.090577
C53	C	0.005137	1.108666	0.450900
N54	N	0.052317	1.155827	0.492168
H55	H	0.000716	0.432380	-0.093366
H56	H	-0.217649	0.885787	0.255913
H57	H	-0.670404	1.118599	0.064021
H58	H	-0.011157	1.092446	0.744043
C59	C	-0.675833	1.131619	-0.087922
N60	N	-0.694764	1.168896	-0.153838
H61	H	-0.217650	0.885805	0.436714
C62	C	-0.233928	0.869565	0.758328
N63	N	-0.281080	0.822387	0.799620
C64	C	-0.233919	0.869535	0.549048
N65	N	-0.281067	0.822345	0.507777
C66	C	-0.515638	1.128475	-0.087560
N67	N	-0.486709	1.164631	-0.153488
H68	H	-0.000775	0.431091	0.096608
H69	H	-0.243689	0.545043	-0.064626
H70	H	-0.241312	0.400899	-0.065438
H71	H	-0.686648	0.977702	0.158035
C72	C	-0.257144	0.550396	0.087386
N73	N	-0.294578	0.569206	0.153223
H74	H	-0.700468	0.875397	-0.090186
C75	C	-0.114044	0.567873	-0.181804
N76	N	-0.147350	0.586518	-0.250701
H77	H	-0.098650	0.418100	-0.157664
C78	C	0.020990	0.586714	-0.095550
N79	N	0.089391	0.619552	-0.099486
H80	H	-0.011146	1.092404	0.255876
C81	C	-0.109178	0.571054	0.182135
N82	N	-0.139856	0.591901	0.251744
C83	C	-0.113266	0.409480	0.181081
N84	N	-0.147008	0.381642	0.249007
C85	C	-0.516395	1.128746	0.087687
N86	N	-0.488036	1.165090	0.153759
H87	H	-0.700612	0.877560	0.094565
H88	H	-0.011155	1.092432	0.563242
H89	H	-0.689246	0.972841	-0.158112
C90	C	-0.552666	0.850322	0.094919
N91	N	-0.538322	0.780909	0.098329
H92	H	-0.543338	0.973843	0.157665
H93	H	-0.544457	0.975906	-0.157659
H94	H	-0.556409	0.875222	-0.096238
