data_functionalizedCrystal
_audit_creation_method	'MofGen! by Chris Wilmer'
_symmetry_space_group_name_H-M	'P1'
_symmetry_Int_Tables_number	1
_symmetry_cell_setting	triclinic
loop_
_symmetry_equiv_pos_as_xyz
  x,y,z
_cell_length_a	12.759401
_cell_length_b	16.120444
_cell_length_c	12.759393
_cell_angle_alpha	92.863624
_cell_angle_beta	89.981433
_cell_angle_gamma	92.925484
loop_
_atom_site_label
_atom_site_type_symbol
_atom_site_fract_x
_atom_site_fract_y
_atom_site_fract_z
Zn1	Zn	1.584963	-0.331879	-0.615155
Zn2	Zn	1.575911	-0.471317	-0.448370
Zn3	Zn	1.409262	-0.331920	-0.439496
Zn4	Zn	1.400311	-0.471250	-0.624007
O5	O	1.492612	-0.401591	-0.531757
O6	O	1.730782	-0.350387	-0.593039
O7	O	1.553762	-0.452871	-0.300175
O8	O	1.440103	-0.215249	-0.455380
O9	O	1.724132	-0.452831	-0.470503
O10	O	1.569190	-0.215219	-0.584435
O11	O	1.431326	-0.350456	-0.293655
O12	O	1.261054	-0.350391	-0.463963
O13	O	1.424848	-0.452717	-0.769851
O14	O	1.254478	-0.452757	-0.599522
O15	O	1.560511	-0.350322	-0.763347
O16	O	1.545083	-0.587974	-0.479087
O17	O	1.416071	-0.587925	-0.608126
C18	C	1.219646	-0.401572	-0.531741
C19	C	1.102868	-0.401584	-0.531761
C20	C	1.051456	-0.348341	-0.595676
C21	C	0.941731	-0.348357	-0.595683
C22	C	0.934840	-0.454865	-0.467858
C23	C	1.044563	-0.454844	-0.467846
C24	C	1.055433	-0.286852	-0.669478
C25	C	0.945708	-0.286868	-0.669485
C26	C	1.478652	-0.618199	-0.545553
C27	C	1.472776	-0.710865	-0.551490
C28	C	1.523350	-0.921811	-0.501184
C29	C	1.462068	-0.880521	-0.562341
C30	C	1.468028	-0.786116	-0.556302
C31	C	1.517392	-1.016225	-0.507222
C32	C	1.766644	-0.401612	-0.531774
C33	C	1.883420	-0.401620	-0.531781
C34	C	1.492691	-0.401507	-0.805785
C35	C	1.492724	-0.401472	-0.922560
C36	C	1.506654	-0.184138	-0.517930
C37	C	1.512639	-0.091472	-0.512038
C38	C	1.563373	-0.348149	-0.974036
C39	C	1.563400	-0.348119	-1.083759
C40	C	1.422126	-0.454741	-1.090518
C41	C	1.422095	-0.454766	-0.980797
C42	C	1.644940	-0.286594	-0.970135
C43	C	1.644967	-0.286564	-1.079857
C44	C	1.492597	-0.401615	-0.258791
C45	C	1.492782	-0.401416	-0.142002
H46	H	1.086420	-0.498191	-0.415790
H47	H	1.580287	-0.886263	-0.444293
H48	H	1.725228	-0.303858	-1.110739
H49	H	0.915603	-0.225507	-0.636572
H50	H	1.088010	-0.310049	-0.748196
H51	H	0.887355	-0.498228	-0.415821
H52	H	0.914848	-0.304243	-0.751930
H53	H	1.720727	-0.309742	-0.937576
H54	H	1.364562	-0.498183	-0.938889
H55	H	1.364619	-0.498130	-1.137948
H56	H	1.619789	-0.225217	-1.109992
H57	H	1.627314	-0.222029	-0.936260
H58	H	1.089344	-0.222257	-0.643703
H59	H	1.405126	-0.916072	-0.619234
