data_functionalizedCrystal
_audit_creation_method	'MofGen! by Chris Wilmer'
_symmetry_space_group_name_H-M	'P1'
_symmetry_Int_Tables_number	1
_symmetry_cell_setting	triclinic
loop_
_symmetry_equiv_pos_as_xyz
  x,y,z
_cell_length_a	12.759401
_cell_length_b	12.759400
_cell_length_c	12.759393
_cell_angle_alpha	90.030447
_cell_angle_beta	90.019097
_cell_angle_gamma	90.013149
loop_
_atom_site_label
_atom_site_type_symbol
_atom_site_fract_x
_atom_site_fract_y
_atom_site_fract_z
Zn1	Zn	1.606267	-0.418205	0.594006
Zn2	Zn	1.606166	-0.593924	0.418330
Zn3	Zn	1.430569	-0.418259	0.418344
Zn4	Zn	1.430562	-0.593842	0.593970
O5	O	1.518391	-0.506057	0.506162
O6	O	1.753274	-0.441526	0.570712
O7	O	1.582833	-0.570678	0.271311
O8	O	1.453920	-0.271231	0.441667
O9	O	1.753200	-0.570625	0.441643
O10	O	1.583005	-0.271191	0.570726
O11	O	1.453822	-0.441618	0.271321
O12	O	1.283547	-0.441539	0.441631
O13	O	1.453909	-0.570487	0.740996
O14	O	1.283542	-0.570539	0.570663
O15	O	1.582998	-0.441447	0.741023
O16	O	1.582826	-0.740934	0.441608
O17	O	1.453811	-0.740874	0.570649
C18	C	1.245423	-0.506037	0.506145
C19	C	1.128647	-0.506054	0.506163
C20	C	0.964094	-0.438966	0.573482
C21	C	1.073818	-0.438952	0.573472
C22	C	1.073746	-0.573182	0.438866
C23	C	0.964024	-0.573201	0.438881
C24	C	0.909270	-0.371853	0.640788
C25	C	0.964163	-0.304725	0.708087
C26	C	1.073887	-0.304711	0.708077
C27	C	1.128718	-0.371824	0.640769
C28	C	1.518336	-0.779025	0.506146
C29	C	1.518408	-0.895801	0.506174
C30	C	1.585589	-0.950563	0.573430
C31	C	1.585638	-1.060287	0.573455
C32	C	1.451322	-1.060478	0.438960
C33	C	1.451269	-0.950756	0.438941
C34	C	1.652728	-0.895608	0.640663
C35	C	1.719915	-0.950370	0.707923
C36	C	1.719964	-1.060094	0.707949
C37	C	1.652826	-1.115056	0.640714
C38	C	1.792424	-0.506079	0.506180
C39	C	1.909201	-0.506087	0.506188
C40	C	1.518464	-0.505951	0.780196
C41	C	1.518496	-0.505906	0.896973
C42	C	1.518475	-0.232024	0.506202
C43	C	1.518510	-0.115248	0.506219
C44	C	1.518378	-0.506087	0.233195
C45	C	1.518550	-0.505836	0.116419
C46	C	1.585722	-0.438709	0.951850
C47	C	1.585747	-0.438671	1.061575
C48	C	1.451316	-0.573037	1.061533
C49	C	1.451287	-0.573069	0.951811
C50	C	1.652930	-0.371546	0.897012
C51	C	1.720163	-0.304344	0.951890
C52	C	1.720188	-0.304306	1.061614
C53	C	1.652980	-0.371470	1.116460
H54	H	0.919513	-0.250090	0.762892
C55	C	1.652878	-1.235757	0.640752
N56	N	1.652921	-1.326667	0.640779
H57	H	1.396563	-0.906169	0.384176
H58	H	0.819927	-0.371852	0.640799
H59	H	1.118578	-0.250060	0.762882
H60	H	0.919329	-0.627859	0.384087
H61	H	1.396662	-1.105238	0.384220
H62	H	1.652920	-0.371572	0.807669
C63	C	1.652677	-0.774910	0.640644
N64	N	1.652637	-0.683999	0.640630
H65	H	1.218063	-0.371799	0.640760
H66	H	1.774571	-0.905614	0.762670
H67	H	1.396529	-0.627771	0.907129
C68	C	1.794082	-0.230463	0.891557
N69	N	1.849759	-0.174813	0.846115
C70	C	1.794140	-0.230380	1.121976
N71	N	1.849848	-0.174700	1.167439
C72	C	1.134065	-0.646991	0.364822
N73	N	1.179496	-0.702579	0.309046
H74	H	1.396599	-0.627718	1.106198
C75	C	1.653007	-0.371419	1.237161
N76	N	1.653031	-0.371383	1.328071
H77	H	1.774662	-1.104678	0.762724
