data_functionalizedCrystal
_audit_creation_method	'MofGen! by Chris Wilmer'
_symmetry_space_group_name_H-M	'P1'
_symmetry_Int_Tables_number	1
_symmetry_cell_setting	triclinic
loop_
_symmetry_equiv_pos_as_xyz
  x,y,z
_cell_length_a	19.188905
_cell_length_b	11.026607
_cell_length_c	9.482900
_cell_angle_alpha	78.599815
_cell_angle_beta	99.263604
_cell_angle_gamma	95.860286
loop_
_atom_site_label
_atom_site_type_symbol
_atom_site_fract_x
_atom_site_fract_y
_atom_site_fract_z
O1	O	-0.953938	-0.132168	-0.121138
O2	O	-0.753222	-0.152588	-0.121089
O3	O	-0.836944	0.034183	-0.121104
O4	O	-0.870215	-0.318939	-0.121123
O5	O	-0.819958	-0.003906	0.120691
O6	O	-0.736235	-0.190677	0.120707
O7	O	-0.936951	-0.170257	0.120657
Cu8	Cu	-0.835042	-0.183945	0.142760
Cu9	Cu	-0.855131	-0.138900	-0.143191
O10	O	-0.853229	-0.357028	0.120673
C11	C	-0.718633	-0.170978	-0.000185
C12	C	-0.640875	-0.169012	-0.000165
C13	C	-0.971540	-0.151867	-0.000250
C14	C	-1.049298	-0.153831	-0.000279
C15	C	-0.613623	-0.147303	-0.131972
C16	C	-0.540563	-0.145436	-0.131990
C17	C	-0.494757	-0.165255	-0.000194
C18	C	-0.522017	-0.186974	0.131630
C19	C	-0.595077	-0.188852	0.131644
N20	N	-0.369675	-0.108751	0.097893
N21	N	-0.300272	-0.106963	0.097871
C22	C	-0.274633	-0.159600	-0.000229
N23	N	-0.321018	-0.214075	-0.098327
N24	N	-0.390428	-0.215857	-0.098309
C25	C	-0.415535	-0.163222	-0.000195
C26	C	-0.168161	-0.135868	-0.132064
C27	C	-0.095100	-0.134010	-0.132076
C28	C	-0.076554	-0.175536	0.131548
C29	C	-0.149615	-0.177406	0.131556
C30	C	-0.195414	-0.157565	-0.000254
C31	C	-0.822313	0.060316	-0.000207
C32	C	-0.804017	0.194930	-0.000207
C33	C	-0.867860	-0.383160	-0.000228
C34	C	-0.886157	-0.517773	-0.000237
N35	N	-0.820918	-0.215626	0.343883
C36	C	-0.854538	0.269014	-0.000222
C37	C	-0.835629	0.408145	-0.000223
N38	N	-0.869260	-0.107209	-0.344314
C39	C	-0.850959	-0.148238	0.416076
C40	C	-0.839214	-0.174607	0.583496
H41	H	-0.650909	-0.131147	-0.239302
C42	C	-1.006549	0.523931	-0.000270
C43	C	-0.963453	0.428824	-0.000255
H44	H	-1.054267	0.490960	-0.000290
H45	H	-0.991387	0.559379	0.084046
H46	H	-1.003229	0.585944	-0.084594
H47	H	-0.966768	0.366815	0.084075
H48	H	-0.978620	0.393357	-0.084579
H49	H	-0.804793	-0.251823	0.645627
C50	C	-0.733803	0.441676	-0.124503
C51	C	-0.758335	0.461555	-0.000212
H52	H	-0.686088	0.474658	-0.124498
H53	H	-0.736368	0.355193	-0.124486
H54	H	-0.762310	0.481715	-0.208818
H55	H	-0.729830	0.421508	0.084104
H56	H	-0.755764	0.548054	-0.000216
H57	H	-0.786499	-0.292837	0.406019
C58	C	-0.684724	0.189310	0.124109
C59	C	-0.726725	0.248340	-0.000195
H60	H	-0.637007	0.222277	0.124108
H61	H	-0.701375	0.202800	0.208406
H62	H	-0.687299	0.102819	0.124099
H63	H	-0.724155	0.334830	-0.000179
H64	H	-0.710070	0.234860	-0.084514
C65	C	-0.288392	-0.120290	-0.249098
C66	C	-0.218510	-0.114073	-0.276943
H67	H	-0.319472	-0.106827	-0.338542
H68	H	-0.300108	-0.199822	-0.194951
H69	H	-0.292990	-0.058421	-0.194935
H70	H	-0.213911	-0.175949	-0.331097
H71	H	-0.206790	-0.034530	-0.331113
H72	H	-0.039260	-0.191681	0.238859
H73	H	-0.484717	-0.203114	0.238939
H74	H	-0.885372	-0.071018	0.353942
C75	C	-0.120772	-0.093116	-0.392652
C76	C	-0.065141	-0.110141	-0.276971
H77	H	-0.102274	-0.078372	-0.482102
H78	H	-0.152436	-0.165406	-0.387179
H79	H	-0.145326	-0.024010	-0.387137
H80	H	-0.040590	-0.179254	-0.282479
H81	H	-0.033465	-0.037843	-0.282445
H82	H	-0.518370	-0.127760	-0.239326
H83	H	-0.171803	-0.195075	0.238888
C84	C	-0.935599	0.088109	-0.000226
C85	C	-0.931828	0.215599	-0.000233
H86	H	-0.983316	0.055137	-0.000224
H87	H	-0.918953	0.074640	-0.084537
H88	H	-0.907095	0.048085	0.084103
H89	H	-0.960329	0.255624	-0.084569
H90	H	-0.948484	0.229078	0.084086
C91	C	-0.875111	0.084952	0.484723
C92	C	-0.915599	-0.002728	0.572003
H93	H	-0.903684	0.149517	0.433109
H94	H	-0.836325	0.118682	0.544253
H95	H	-0.857876	0.046118	0.417596
H96	H	-0.932829	0.036105	0.639138
H97	H	-0.954398	-0.036461	0.512468
C98	C	-0.569405	-0.229706	0.392221
C99	C	-0.625036	-0.212702	0.276537
H100	H	-0.587903	-0.244420	0.481670
H101	H	-0.544854	-0.298812	0.386734
H102	H	-0.537737	-0.157407	0.386724
H103	H	-0.656702	-0.285006	0.282027
H104	H	-0.649598	-0.143591	0.282027
