data_functionalizedCrystal
_audit_creation_method	'MofGen! by Chris Wilmer'
_symmetry_space_group_name_H-M	'P1'
_symmetry_Int_Tables_number	1
_symmetry_cell_setting	triclinic
loop_
_symmetry_equiv_pos_as_xyz
  x,y,z
_cell_length_a	14.853554
_cell_length_b	10.654562
_cell_length_c	9.730223
_cell_angle_alpha	89.997860
_cell_angle_beta	89.997189
_cell_angle_gamma	95.940223
loop_
_atom_site_label
_atom_site_type_symbol
_atom_site_fract_x
_atom_site_fract_y
_atom_site_fract_z
O1	O	-0.126673	1.666499	-0.114378
O2	O	-0.138725	1.300897	-0.114361
O3	O	-0.001521	1.493473	-0.114363
O4	O	-0.263877	1.473923	-0.114376
O5	O	-0.001534	1.493472	0.114217
O6	O	-0.138738	1.300896	0.114219
O7	O	-0.126685	1.666499	0.114202
Zn8	Zn	-0.132713	1.483698	0.150502
Zn9	Zn	-0.132697	1.483698	-0.150662
O10	O	-0.263889	1.473923	0.114204
C11	C	-0.137844	1.254108	-0.000069
C12	C	-0.135189	1.114693	-0.000062
C13	C	-0.133958	1.049176	0.124526
C14	C	-0.131470	0.918179	0.124503
C15	C	-0.131450	0.918230	-0.124707
C16	C	-0.133931	1.049225	-0.124683
C17	C	-0.133973	1.049145	0.268406
C18	C	-0.131486	0.918148	0.268383
C19	C	-0.297477	1.474806	-0.000088
C20	C	-0.397575	1.477451	-0.000094
C21	C	-0.820808	1.488696	-0.124683
C22	C	-0.820807	1.488696	0.124523
C23	C	-0.726760	1.486195	0.124522
C24	C	-0.679733	1.484946	-0.000083
C25	C	-0.726752	1.486199	-0.124688
C26	C	-0.679733	1.484955	0.249125
C27	C	-0.585680	1.482456	0.249129
C28	C	-0.538652	1.481198	0.124522
C29	C	-0.585677	1.482449	-0.000088
C30	C	-0.538650	1.481201	-0.124694
C31	C	-0.585674	1.482443	-0.249305
C32	C	-0.679724	1.484941	-0.249295
C33	C	-0.444603	1.478700	0.124512
C34	C	-0.444595	1.478704	-0.124699
C35	C	0.032066	1.492590	-0.000074
C36	C	0.132165	1.489944	-0.000078
C37	C	-0.127566	1.713287	-0.000094
C38	C	-0.130221	1.852702	-0.000109
N39	N	-0.132724	1.483707	0.356039
C40	C	-0.193436	1.398413	0.571885
C41	C	-0.193449	1.398413	0.428002
C42	C	-0.071977	1.568997	0.427966
C43	C	-0.071960	1.568990	0.571846
C44	C	-0.263569	1.299931	0.571905
C45	C	-0.263582	1.299931	0.428022
N46	N	-0.132695	1.483700	0.643802
H47	H	-0.134919	1.102567	-0.226135
C48	C	-0.005167	1.662805	0.348801
N49	N	0.045157	1.733460	0.289175
C50	C	-0.130070	0.846201	-0.261783
N51	N	-0.129032	0.791950	-0.365031
C52	C	-0.049806	1.112526	0.343046
N53	N	0.013589	1.160264	0.399260
H54	H	-0.199727	1.078032	0.313046
H55	H	-0.547372	1.481434	-0.350759
C56	C	-0.357200	1.327942	0.375294
N57	N	-0.427709	1.349043	0.335580
H58	H	-0.065738	0.889248	0.313032
C59	C	-0.215793	0.854709	0.342651
N60	N	-0.279337	0.806919	0.398462
H61	H	-0.248123	1.203576	0.610941
C62	C	-0.731455	1.486331	-0.386355
N63	N	-0.770422	1.487387	-0.489588
C64	C	-0.392870	1.477355	-0.261778
N65	N	-0.353911	1.476350	-0.365027
H66	H	-0.329040	1.329769	0.616556
H67	H	-0.859099	1.489702	-0.226139
H68	H	-0.241631	1.208972	0.383387
C69	C	-0.872540	1.490064	0.261582
N70	N	-0.911511	1.491087	0.364820
H71	H	-0.718028	1.485981	0.350572
H72	H	-0.406319	1.477693	0.225968
C73	C	-0.005116	1.662778	0.650950
N74	N	0.045240	1.733414	0.710531
C75	C	-0.533964	1.481073	0.386203
N76	N	-0.495011	1.480024	0.489448
