data_functionalizedCrystal
_audit_creation_method	'MofGen! by Chris Wilmer'
_symmetry_space_group_name_H-M	'P1'
_symmetry_Int_Tables_number	1
_symmetry_cell_setting	triclinic
loop_
_symmetry_equiv_pos_as_xyz
  x,y,z
_cell_length_a	14.519709
_cell_length_b	17.699077
_cell_length_c	16.176319
_cell_angle_alpha	89.996839
_cell_angle_beta	90.005477
_cell_angle_gamma	83.480361
loop_
_atom_site_label
_atom_site_type_symbol
_atom_site_fract_x
_atom_site_fract_y
_atom_site_fract_z
O1	O	0.116581	1.004413	-0.068737
O2	O	0.616581	1.504413	0.431263
O3	O	0.131760	0.784077	-0.068742
O4	O	0.631760	1.284077	0.431258
O5	O	-0.010093	0.900087	-0.068732
O6	O	0.489907	1.400087	0.431268
O7	O	0.258434	0.888403	-0.068747
O8	O	0.758434	1.388403	0.431253
O9	O	-0.010067	0.900076	0.068761
O10	O	0.489933	1.400076	0.568761
O11	O	0.131785	0.784066	0.068752
O12	O	0.631785	1.284066	0.568752
O13	O	0.116607	1.004402	0.068756
O14	O	0.616607	1.504402	0.568756
Cu15	Cu	0.124198	0.894233	0.081308
Cu16	Cu	0.624198	1.394233	0.581308
Cu17	Cu	0.124168	0.894246	-0.081294
Cu18	Cu	0.624168	1.394246	0.418706
O19	O	0.258459	0.888392	0.068746
O20	O	0.758459	1.388392	0.568746
C21	C	0.131230	0.755873	0.000005
C22	C	0.631230	1.255873	0.500005
C23	C	0.129601	0.671850	0.000003
C24	C	0.629601	1.171850	0.500003
C25	C	0.128847	0.632375	0.074952
C26	C	0.628847	1.132375	0.574952
C27	C	0.127302	0.553428	0.074953
C28	C	0.627302	1.053428	0.574953
C29	C	0.126517	0.513957	0.000004
C30	C	0.626517	1.013957	0.500004
C31	C	0.127268	0.553439	-0.074950
C32	C	0.627268	1.053439	0.425050
C33	C	0.128806	0.632385	-0.074950
C34	C	0.628806	1.132385	0.425050
C35	C	0.121062	0.235057	-0.074951
C36	C	0.621062	0.735057	0.425049
C37	C	0.119526	0.156105	-0.074945
C38	C	0.619526	0.656105	0.425055
C39	C	0.119557	0.156100	0.074951
C40	C	0.619557	0.656100	0.574951
C41	C	0.121096	0.235047	0.074951
C42	C	0.621096	0.735047	0.574951
C43	C	0.121842	0.274522	-0.000002
C44	C	0.621842	0.774522	0.499998
C45	C	0.123515	0.360125	-0.000003
C46	C	0.623515	0.860125	0.499997
C47	C	0.124850	0.428354	0.000003
C48	C	0.624850	0.928354	0.500003
C49	C	-0.044438	0.899537	0.000015
C50	C	0.455562	1.399537	0.500015
C51	C	-0.146812	0.897905	0.000015
C52	C	0.353188	1.397905	0.500015
C53	C	-0.521682	0.891898	-0.000006
C54	C	-0.021682	1.391898	0.499994
C55	C	-0.417381	0.893566	-0.000000
C56	C	0.082619	1.393566	0.500000
C57	C	-0.334250	0.894902	0.000005
C58	C	0.165750	1.394902	0.500005
C59	C	-0.229943	0.896570	0.000010
C60	C	0.270057	1.396570	0.500010
C61	C	0.292804	0.888942	-0.000002
C62	C	0.792804	1.388942	0.499998
C63	C	0.395178	0.890574	-0.000008
C64	C	0.895178	1.390574	0.499992
C65	C	0.117137	1.032606	0.000008
C66	C	0.617137	1.532606	0.500008
C67	C	0.118766	1.116629	0.000004
C68	C	0.618766	1.616629	0.500004
N69	N	0.124219	0.894229	0.195673
N70	N	0.624219	1.394229	0.695673
N71	N	0.124140	0.894256	-0.195659
N72	N	0.624140	1.394256	0.304341
C73	C	0.068285	0.848278	0.761065
C74	C	0.568285	1.348278	1.261065
C75	C	0.068292	0.848277	0.674518
C76	C	0.568292	1.348277	1.174518
C77	C	0.124160	0.894249	0.631249
C78	C	0.624160	1.394249	1.131249
C79	C	0.180017	0.940232	0.674530
C80	C	0.680017	1.440232	1.174530
C81	C	0.180004	0.940237	0.761076
C82	C	0.680004	1.440237	1.261076
C83	C	0.180069	0.940214	0.325502
C84	C	0.680069	1.440214	0.825502
C85	C	0.180080	0.940204	0.238950
C86	C	0.680080	1.440204	0.738950
C87	C	0.068357	0.848253	0.238945
C88	C	0.568357	1.348253	0.738945
C89	C	0.068344	0.848258	0.325490
C90	C	0.568344	1.348258	0.825490
C91	C	0.124197	0.894244	0.368764
C92	C	0.624197	1.394244	0.868764
C93	C	0.124187	0.894246	0.462608
C94	C	0.624187	1.394246	0.962608
C95	C	0.124175	0.894244	0.537406
C96	C	0.624175	1.394244	1.037406
H97	H	0.129422	0.664525	-0.135981
H98	H	0.629422	1.164525	0.364019
C99	C	0.121959	0.278464	0.157392
C100	C	0.621959	0.778464	0.657392
H101	H	0.122990	0.331134	0.146657
H102	H	0.622990	0.831134	0.646657
H103	H	0.067954	0.271226	0.188191
H104	H	0.567954	0.771226	0.688191
H105	H	0.175478	0.259822	0.188184
H106	H	0.675478	0.759822	0.688184
C107	C	0.118806	0.112669	0.157400
C108	C	0.618806	0.612669	0.657400
H109	H	0.117791	0.059996	0.146671
H110	H	0.617791	0.559996	0.646671
H111	H	0.172848	0.119924	0.188145
H112	H	0.672848	0.619924	0.688145
H113	H	0.065324	0.131284	0.188245
H114	H	0.565324	0.631284	0.688245
H115	H	0.022876	0.810812	0.203700
H116	H	0.522876	1.310812	0.703700
H117	H	0.225487	0.977678	0.796310
H118	H	0.725487	1.477678	1.296310
H119	H	0.118886	0.123971	-0.135981
H120	H	0.618886	0.623971	0.364019
C121	C	0.006837	0.797701	0.808655
C122	C	0.506837	1.297701	1.308655
H123	H	-0.026431	0.770322	0.770483
H124	H	0.473569	1.270322	1.270483
H125	H	0.044683	0.762923	0.842425
H126	H	0.544683	1.262923	1.342425
H127	H	-0.035666	0.828661	0.842406
H128	H	0.464334	1.328661	1.342406
H129	H	0.022806	0.810839	0.639287
H130	H	0.522806	1.310839	1.139287
C131	C	0.126480	0.510007	0.157396
C132	C	0.626480	1.010007	0.657396
H133	H	0.127181	0.544819	0.202032
H134	H	0.627181	1.044819	0.702032
H135	H	0.072123	0.484912	0.160522
H136	H	0.572123	0.984912	0.660522
H137	H	0.179646	0.473507	0.160503
H138	H	0.679646	0.973507	0.660503
H139	H	0.022854	0.810820	0.360716
H140	H	0.522854	1.310820	0.860716
C141	C	0.129694	0.675787	0.157396
C142	C	0.629694	1.175787	0.657396
H143	H	0.129010	0.640968	0.202032
H144	H	0.629010	1.140968	0.702032
H145	H	0.184047	0.700888	0.160521
H146	H	0.684047	1.200888	0.660521
H147	H	0.076524	0.712281	0.160504
H148	H	0.576524	1.212281	0.660504
H149	H	0.225549	0.977658	0.360725
H150	H	0.725549	1.477658	0.860725
H151	H	0.121666	0.267189	-0.135983
H152	H	0.621666	0.767189	0.364017
C153	C	0.241473	0.990800	0.626936
C154	C	0.741473	1.490800	1.126936
H155	H	0.233489	0.984206	0.569194
H156	H	0.733489	1.484206	1.069194
H157	H	0.224258	1.042562	0.641107
H158	H	0.724258	1.542562	1.141107
H159	H	0.304596	0.976814	0.641136
H160	H	0.804596	1.476814	1.141136
H161	H	0.225577	0.977642	0.203722
H162	H	0.725577	1.477642	0.703722
C163	C	0.126406	0.510023	-0.157392
C164	C	0.626406	1.010023	0.342608
H165	H	0.125392	0.457350	-0.146659
H166	H	0.625392	0.957350	0.353341
H167	H	0.072895	0.528663	-0.188187
H168	H	0.572895	1.028663	0.311813
H169	H	0.180419	0.517262	-0.188187
H170	H	0.680419	1.017262	0.311813
