data_functionalizedCrystal
_audit_creation_method	'MofGen! by Chris Wilmer'
_symmetry_space_group_name_H-M	'P1'
_symmetry_Int_Tables_number	1
_symmetry_cell_setting	triclinic
loop_
_symmetry_equiv_pos_as_xyz
  x,y,z
_cell_length_a	18.101398
_cell_length_b	18.101395
_cell_length_c	18.101389
_cell_angle_alpha	89.983159
_cell_angle_beta	89.975673
_cell_angle_gamma	90.026371
loop_
_atom_site_label
_atom_site_type_symbol
_atom_site_fract_x
_atom_site_fract_y
_atom_site_fract_z
Zn1	Zn	1.132121	-0.295001	-0.418847
Zn2	Zn	1.632121	0.204999	0.081153
Zn3	Zn	1.132017	-0.418826	-0.295009
Zn4	Zn	1.632017	0.081174	0.204991
Zn5	Zn	1.008280	-0.294993	-0.295008
Zn6	Zn	1.508280	0.205007	0.204992
Zn7	Zn	1.008231	-0.418795	-0.418797
Zn8	Zn	1.508231	0.081205	0.081203
O9	O	1.070162	-0.356904	-0.356915
O10	O	1.570162	0.143096	0.143085
O11	O	1.235740	-0.311443	-0.402440
O12	O	1.735740	0.188557	0.097560
O13	O	1.115580	-0.402410	-0.191376
O14	O	1.615580	0.097590	0.308624
O15	O	1.024772	-0.191361	-0.311456
O16	O	1.524772	0.308639	0.188544
O17	O	1.235664	-0.402417	-0.311457
O18	O	1.735664	0.097583	0.188543
O19	O	1.115757	-0.191367	-0.402440
O20	O	1.615757	0.308633	0.097560
O21	O	1.024671	-0.311430	-0.191375
O22	O	1.524671	0.188570	0.308625
O23	O	0.904641	-0.311399	-0.311408
O24	O	1.404641	0.188601	0.188592
O25	O	1.024688	-0.402363	-0.522437
O26	O	1.524688	0.097637	-0.022437
O27	O	0.904604	-0.402356	-0.402355
O28	O	1.404604	0.097644	0.097645
O29	O	1.115710	-0.311412	-0.522473
O30	O	1.615710	0.188588	-0.022473
O31	O	1.115532	-0.522455	-0.311409
O32	O	1.615532	-0.022455	0.188591
O33	O	1.024587	-0.522432	-0.402356
O34	O	1.524587	-0.022432	0.097644
C35	C	0.877752	-0.356874	-0.356877
C36	C	1.377752	0.143126	0.143123
C37	C	0.795437	-0.356879	-0.356878
C38	C	1.295437	0.143121	0.143122
C39	C	0.496347	-0.356925	-0.356940
C40	C	0.996347	0.143075	0.143060
C41	C	0.527670	-0.299412	-0.299997
C42	C	1.027670	0.200588	0.200003
C43	C	0.613288	-0.299566	-0.299754
C44	C	1.113288	0.200434	0.200246
C45	C	0.644729	-0.356901	-0.356909
C46	C	1.144729	0.143099	0.143091
C47	C	0.613611	-0.434909	-0.335587
C48	C	1.113611	0.065091	0.164413
C49	C	0.527966	-0.434590	-0.335191
C50	C	1.027966	0.065410	0.164809
C51	C	0.527961	-0.337109	-0.435339
C52	C	1.027961	0.162891	0.064661
C53	C	0.613612	-0.335371	-0.434911
C54	C	1.113612	0.164629	0.065089
C55	C	0.728589	-0.356893	-0.356893
C56	C	1.228589	0.143107	0.143107
C57	C	0.412487	-0.356939	-0.356954
C58	C	0.912487	0.143061	0.143046
C59	C	1.070063	-0.549314	-0.356893
C60	C	1.570063	-0.049314	0.143107
C61	C	1.070088	-0.631628	-0.356909
C62	C	1.570088	-0.131628	0.143091
C63	C	1.070251	-0.930719	-0.356949
C64	C	1.570251	-0.430719	0.143051
C65	C	1.013163	-0.899410	-0.414312
C66	C	1.513163	-0.399410	0.085688
C67	C	1.012892	-0.813792	-0.414133
C68	C	1.512892	-0.313792	0.085867
C69	C	1.070170	-0.782337	-0.356930
C70	C	1.570170	-0.282337	0.143070
C71	C	1.049041	-0.813472	-0.278878
C72	C	1.549041	-0.313472	0.221122
C73	C	1.048673	-0.899117	-0.279221
C74	C	1.548673	-0.399117	0.220779
C75	C	1.148593	-0.899073	-0.376950
C76	C	1.648593	-0.399073	0.123050
C77	C	1.148132	-0.813422	-0.378661
C78	C	1.648132	-0.313422	0.121339
C79	C	1.070126	-0.698477	-0.356914
C80	C	1.570126	-0.198477	0.143086
C81	C	1.070293	-1.014579	-0.356959
C82	C	1.570293	-0.514579	0.143041
C83	C	1.263324	-0.356934	-0.356954
C84	C	1.763324	0.143066	0.143046
C85	C	1.345638	-0.356948	-0.356971
C86	C	1.845638	0.143052	0.143029
C87	C	1.070205	-0.356885	-0.550077
C88	C	1.570205	0.143115	-0.050077
C89	C	1.070223	-0.356877	-0.632391
C90	C	1.570223	0.143123	-0.132391
C91	C	1.070282	-0.163742	-0.356953
C92	C	1.570282	0.336258	0.143047
C93	C	1.070333	-0.081428	-0.356970
C94	C	1.570333	0.418572	0.143030
C95	C	1.070266	-0.356738	-0.931482
C96	C	1.570266	0.143262	-0.431482
C97	C	1.012801	-0.413780	-0.900134
C98	C	1.512801	0.086220	-0.400134
C99	C	1.012956	-0.414045	-0.814516
C100	C	1.512956	0.085955	-0.314516
C101	C	1.070244	-0.356807	-0.783100
C102	C	1.570244	0.143193	-0.283100
C103	C	1.148270	-0.377998	-0.814206
C104	C	1.648270	0.122002	-0.314206
C105	C	1.147949	-0.378372	-0.899851
C106	C	1.647949	0.121628	-0.399851
C107	C	1.050385	-0.278379	-0.899905
C108	C	1.550385	0.221621	-0.399905
C109	C	1.048649	-0.278832	-0.814254
C110	C	1.548649	0.221168	-0.314254
C111	C	1.070237	-0.356845	-0.699240
C112	C	1.570237	0.143155	-0.199240
C113	C	1.070279	-0.356702	-1.015342
C114	C	1.570279	0.143298	-0.515342
C115	C	1.070162	-0.356869	-0.164505
C116	C	1.570162	0.143131	0.335495
C117	C	1.070287	-0.356668	-0.082191
C118	C	1.570287	0.143332	0.417809
H119	H	0.635026	-0.452008	-0.278892
H120	H	1.135026	0.047992	0.221108
H121	H	1.167856	-0.920633	-0.432895
H122	H	1.667856	-0.420633	0.067105
C123	C	0.499862	-0.221029	-0.317833
C124	C	0.999862	0.278971	0.182167
H125	H	0.468897	-0.222674	-0.360164
H126	H	0.968897	0.277326	0.139836
H127	H	0.540844	-0.189636	-0.327351
H128	H	1.040844	0.310364	0.172649
H129	H	0.472665	-0.202425	-0.276984
H130	H	0.972665	0.297575	0.223016
C131	C	0.498564	-0.316904	-0.221974
C132	C	0.998564	0.183096	0.278026
H133	H	0.467408	-0.359107	-0.223950
H134	H	0.967408	0.140893	0.276050
H135	H	0.471316	-0.275887	-0.203861
H136	H	0.971316	0.224113	0.296139
H137	H	0.539020	-0.326529	-0.189977
H138	H	1.039020	0.173471	0.310023
H139	H	1.192217	-0.338629	-0.920590
H140	H	1.692217	0.161371	-0.420590
C141	C	0.500595	-0.393693	-0.492657
C142	C	1.000595	0.106307	0.007343
H143	H	0.470050	-0.429224	-0.468965
H144	H	0.970050	0.070776	0.031035
H145	H	0.541778	-0.417786	-0.514497
H146	H	1.041778	0.082214	-0.014497
H147	H	0.473055	-0.368978	-0.529861
H148	H	0.973055	0.131022	-0.029861
H149	H	1.026082	-0.472127	-0.794035
H150	H	1.526082	0.027873	-0.294035
H151	H	1.164065	-0.793071	-0.436103
H152	H	1.664065	-0.293071	0.063897
C153	C	0.935193	-0.928560	-0.396649
C154	C	1.435193	-0.428560	0.103351
H155	H	0.901044	-0.909384	-0.431570
H156	H	1.401044	-0.409384	0.068430
H157	H	0.921307	-0.913303	-0.348396
H158	H	1.421307	-0.413303	0.151604
H159	H	0.935126	-0.980984	-0.399098
H160	H	1.435126	-0.480984	0.100902
H161	H	1.025796	-0.471508	-0.921661
H162	H	1.525796	0.028492	-0.421661
C163	C	0.971081	-0.257237	-0.786792
C164	C	1.471081	0.242763	-0.286792
H165	H	0.958330	-0.210020	-0.805828
H166	H	1.458330	0.289980	-0.305828
H167	H	0.970902	-0.255596	-0.734340
H168	H	1.470902	0.244404	-0.234340
H169	H	0.936151	-0.292772	-0.803279
H170	H	1.436151	0.207228	-0.303279
C171	C	1.170710	-0.455754	-0.926853
C172	C	1.670710	0.044246	-0.426853
H173	H	1.180061	-0.486666	-0.885480
H174	H	1.680061	0.013334	-0.385480
H175	H	1.214139	-0.451997	-0.956095
H176	H	1.714139	0.048003	-0.456095
H177	H	1.131960	-0.476345	-0.955632
H178	H	1.631960	0.023655	-0.455632
C179	C	0.974858	-0.252297	-0.929055
C180	C	1.474858	0.247703	-0.429055
H181	H	0.963915	-0.204913	-0.909339
H182	H	1.463915	0.295087	-0.409339
H183	H	0.937718	-0.286369	-0.914374
H184	H	1.437718	0.213631	-0.414374
H185	H	0.976353	-0.249510	-0.981444
H186	H	1.476353	0.250490	-0.481444
H187	H	0.991406	-0.919153	-0.262279
H188	H	1.491406	-0.419153	0.237721
H189	H	0.633741	-0.312665	-0.241661
H190	H	1.133741	0.187335	0.258339
C191	C	0.500927	-0.457286	-0.257766
C192	C	1.000927	0.042714	0.242234
H193	H	0.542286	-0.466611	-0.226849
H194	H	1.042286	0.033389	0.273151
H195	H	0.471686	-0.500718	-0.261445
H196	H	0.971686	-0.000718	0.238555
H197	H	0.472140	-0.418518	-0.237229
H198	H	0.972140	0.081482	0.262771
C199	C	0.642521	-0.387835	-0.495302
C200	C	1.142521	0.112165	0.004698
H201	H	0.622848	-0.373527	-0.541801
H202	H	1.122848	0.126473	-0.041801
H203	H	0.627637	-0.436966	-0.484362
H204	H	1.127637	0.063034	0.015638
H205	H	0.694920	-0.385371	-0.497006
H206	H	1.194920	0.114629	0.002994
C207	C	1.207668	-0.323644	-0.786716
C208	C	1.707668	0.176356	-0.286716
H209	H	1.185357	-0.287460	-0.755948
H210	H	1.685357	0.212540	-0.255948
H211	H	1.230277	-0.300119	-0.827841
H212	H	1.730277	0.199881	-0.327841
H213	H	1.244011	-0.349822	-0.759385
H214	H	1.744011	0.150178	-0.259385
C215	C	1.208631	-0.784507	-0.326327
C216	C	1.708631	-0.284507	0.173673
H217	H	1.187038	-0.752961	-0.290376
H218	H	1.687038	-0.252961	0.209624
H219	H	1.244345	-0.757714	-0.353945
H220	H	1.744345	-0.257714	0.146055
H221	H	1.231823	-0.825018	-0.302355
H222	H	1.731823	-0.325018	0.197645
H223	H	0.506389	-0.281216	-0.454725
H224	H	1.006389	0.218784	0.045275
C225	C	1.171433	-0.454560	-0.785252
C226	C	1.671433	0.045440	-0.285252
H227	H	1.133664	-0.473713	-0.754216
H228	H	1.633664	0.026287	-0.254216
H229	H	1.215997	-0.450160	-0.757908
H230	H	1.715997	0.049840	-0.257908
H231	H	1.178911	-0.487048	-0.825777
H232	H	1.678911	0.012952	-0.325777
H233	H	0.634329	-0.241719	-0.313119
H234	H	1.134329	0.258281	0.186881
C235	C	1.103437	-0.785945	-0.219561
C236	C	1.603437	-0.285945	0.280439
H237	H	1.139601	-0.755143	-0.241923
H238	H	1.639601	-0.255143	0.258077
H239	H	1.126982	-0.827054	-0.197002
H240	H	1.626982	-0.327054	0.302998
H241	H	1.077284	-0.758641	-0.183168
H242	H	1.577284	-0.258641	0.316832
H243	H	1.191125	-0.919319	-0.335170
H244	H	1.691125	-0.419319	0.164830
C245	C	1.102392	-0.927103	-0.219505
C246	C	1.602392	-0.427103	0.280495
H247	H	1.124339	-0.886127	-0.195140
H248	H	1.624339	-0.386127	0.304860
H249	H	1.139844	-0.956221	-0.241929
H250	H	1.639844	-0.456221	0.258071
H251	H	1.076122	-0.956215	-0.184593
H252	H	1.576122	-0.456215	0.315407
H253	H	0.992380	-0.792080	-0.261633
H254	H	1.492380	-0.292080	0.238367
C255	C	0.934451	-0.786187	-0.396224
C256	C	1.434451	-0.286187	0.103776
H257	H	0.902628	-0.827316	-0.389024
H258	H	1.402628	-0.327316	0.110976
H259	H	0.916660	-0.757044	-0.436071
H260	H	1.416660	-0.257044	0.063929
H261	H	0.935670	-0.757179	-0.352513
H262	H	1.435670	-0.257179	0.147487
C263	C	0.934798	-0.396121	-0.786098
C264	C	1.434798	0.103879	-0.286098
H265	H	0.902664	-0.388617	-0.826897
H266	H	1.402664	0.111383	-0.326897
H267	H	0.936386	-0.352592	-0.756841
H268	H	1.436386	0.147408	-0.256841
H269	H	0.917117	-0.436108	-0.757035
H270	H	1.417117	0.063892	-0.257035
C271	C	0.934400	-0.396049	-0.927935
C272	C	1.434400	0.103951	-0.427935
H273	H	0.936008	-0.353703	-0.958914
H274	H	1.436008	0.146297	-0.458914
H275	H	0.903014	-0.386591	-0.886947
H276	H	1.403014	0.113409	-0.386947
H277	H	0.915814	-0.436913	-0.955113
H278	H	1.415814	0.063087	-0.455113
H279	H	1.087450	-0.234076	-0.792868
H280	H	1.587450	0.265924	-0.292868
H281	H	0.507244	-0.478892	-0.374857
H282	H	1.007244	0.021108	0.125143
H283	H	1.092240	-0.235880	-0.920179
H284	H	1.592240	0.264120	-0.420179
C285	C	0.641125	-0.494353	-0.389853
C286	C	1.141125	0.005647	0.110147
H287	H	0.671911	-0.472072	-0.426079
H288	H	1.171911	0.027928	0.073921
H289	H	0.600010	-0.516982	-0.413331
H290	H	1.100010	-0.016982	0.086669
H291	H	0.668443	-0.530673	-0.363623
H292	H	1.168443	-0.030673	0.136377
H293	H	0.633956	-0.277966	-0.450989
H294	H	1.133956	0.222034	0.049011
H295	H	1.026111	-0.792740	-0.472007
H296	H	1.526111	-0.292740	0.027993
H297	H	1.026252	-0.919970	-0.472374
H298	H	1.526252	-0.419970	0.027626
