data_functionalizedCrystal
_audit_creation_method	'MofGen! by Chris Wilmer'
_symmetry_space_group_name_H-M	'P1'
_symmetry_Int_Tables_number	1
_symmetry_cell_setting	triclinic
loop_
_symmetry_equiv_pos_as_xyz
  x,y,z
_cell_length_a	16.992694
_cell_length_b	15.500258
_cell_length_c	16.992695
_cell_angle_alpha	92.989501
_cell_angle_beta	89.331777
_cell_angle_gamma	86.999165
loop_
_atom_site_label
_atom_site_type_symbol
_atom_site_fract_x
_atom_site_fract_y
_atom_site_fract_z
O1	O	1.047381	0.071836	-0.163453
O2	O	1.547381	0.571836	0.336547
O3	O	0.818980	0.071862	-0.161621
O4	O	1.318980	0.571862	0.338379
O5	O	0.932265	0.071842	-0.048337
O6	O	1.432265	0.571842	0.451663
O7	O	0.934096	0.071856	-0.276736
O8	O	1.434096	0.571856	0.223264
O9	O	0.939204	-0.072046	-0.055270
O10	O	1.439204	0.427954	0.444730
O11	O	0.825918	-0.072026	-0.168554
O12	O	1.325918	0.427974	0.331446
O13	O	1.054320	-0.072052	-0.170386
O14	O	1.554320	0.427948	0.329614
Cu15	Cu	0.940753	-0.085177	-0.170103
Cu16	Cu	1.440753	0.414823	0.329897
Cu17	Cu	0.932547	0.084987	-0.161904
Cu18	Cu	1.432547	0.584987	0.338096
O19	O	0.941034	-0.072032	-0.283670
O20	O	1.441034	0.427968	0.216330
C21	C	0.793089	-0.000079	-0.162731
C22	C	1.293089	0.499921	0.337269
C23	C	0.705604	-0.000069	-0.155702
C24	C	1.205604	0.499931	0.344298
N25	N	0.946530	-0.204862	-0.175870
N26	N	1.446530	0.295138	0.324130
C27	C	0.659613	-0.000066	-0.223520
C28	C	1.159613	0.499934	0.276480
C29	C	0.577413	-0.000078	-0.216911
C30	C	1.077413	0.499922	0.283089
C31	C	0.541205	-0.000088	-0.142484
C32	C	1.041205	0.499912	0.357516
C33	C	0.587202	-0.000094	-0.074662
C34	C	1.087202	0.499906	0.425338
C35	C	0.669401	-0.000088	-0.081271
C36	C	1.169401	0.499912	0.418729
C37	C	0.295892	-0.000113	-0.115091
C38	C	0.795892	0.499887	0.384909
C39	C	0.213687	-0.000116	-0.108487
C40	C	0.713687	0.499884	0.391513
C41	C	0.203903	-0.000102	-0.250737
C42	C	0.703903	0.499898	0.249263
C43	C	0.286103	-0.000091	-0.257340
C44	C	0.786103	0.499909	0.242660
C45	C	0.332094	-0.000102	-0.189517
C46	C	0.832094	0.499898	0.310483
N47	N	0.457183	-0.000098	-0.135728
N48	N	0.957183	0.499902	0.364272
N49	N	0.416114	-0.000098	-0.196275
N50	N	0.916114	0.499902	0.303725
C51	C	0.975324	-0.750048	-0.204711
C52	C	1.475324	-0.250048	0.295289
C53	C	0.970959	-0.659475	-0.200345
C54	C	1.470959	-0.159475	0.299655
C55	C	0.918049	-0.614185	-0.147393
C56	C	1.418049	-0.114185	0.352607
C57	C	0.869495	-0.659472	-0.098811
C58	C	1.369495	-0.159472	0.401189
C59	C	0.873857	-0.750043	-0.103182
C60	C	1.373857	-0.250043	0.396818
C61	C	0.902338	-0.340719	-0.131659
C62	C	1.402338	0.159281	0.368341
C63	C	0.897981	-0.250142	-0.127290
C64	C	1.397981	0.249858	0.372710
C65	C	0.999445	-0.250152	-0.228825
C66	C	1.499445	0.249848	0.271175
C67	C	1.003805	-0.340724	-0.233188
C68	C	1.503805	0.159276	0.266812
C69	C	0.955248	-0.386003	-0.184609
C70	C	1.455248	0.113997	0.315391
C71	C	0.913588	-0.521605	-0.142927
C72	C	1.413588	-0.021605	0.357073
C73	C	0.959706	-0.478581	-0.189080
C74	C	1.459706	0.021419	0.310920
C75	C	1.080211	-0.000109	-0.169275
C76	C	1.580211	0.499891	0.330725
C77	C	1.167695	-0.000113	-0.176304
C78	C	1.667695	0.499887	0.323696
C79	C	0.933379	-0.000101	-0.022443
C80	C	1.433379	0.499899	0.477557
C81	C	0.926350	-0.000100	0.065041
C82	C	1.426350	0.499900	0.565041
N83	N	0.926776	0.204672	-0.156131
N84	N	1.426776	0.704672	0.343869
C85	C	0.939921	-0.000087	-0.309563
C86	C	1.439921	0.499913	0.190437
C87	C	0.946949	-0.000082	-0.397048
C88	C	1.446949	0.499918	0.102952
C89	C	0.994168	-0.000109	0.111032
C90	C	1.494168	0.499891	0.611032
C91	C	0.987559	-0.000100	0.193233
C92	C	1.487559	0.499900	0.693233
C93	C	0.913131	-0.000089	0.229442
C94	C	1.413131	0.499911	0.729442
C95	C	0.845307	-0.000078	0.183445
C96	C	1.345307	0.499922	0.683445
C97	C	0.851917	-0.000080	0.101246
C98	C	1.351917	0.499920	0.601246
C99	C	0.885736	-0.000074	0.474757
C100	C	1.385736	0.499926	0.974757
C101	C	0.879131	-0.000074	0.556962
C102	C	1.379131	0.499926	1.056962
C103	C	1.021383	-0.000094	0.566744
C104	C	1.521383	0.499906	1.066744
C105	C	1.027987	-0.000102	0.484542
C106	C	1.527987	0.499898	0.984542
C107	C	0.960163	-0.000087	0.438553
C108	C	1.460163	0.499913	0.938553
N109	N	0.906373	-0.000082	0.313464
N110	N	1.406373	0.499918	0.813464
N111	N	0.966921	-0.000087	0.354533
N112	N	1.466921	0.499913	0.854533
H113	H	0.689087	-0.000058	-0.284126
H114	H	1.189087	0.499942	0.215874
H115	H	0.870510	-0.484720	-0.099811
H116	H	1.370510	0.015280	0.400189
H117	H	1.088594	-0.000111	0.455067
H118	H	1.588594	0.499889	0.955067
F119	F	1.031643	-0.798241	-0.261066
F120	F	1.531643	-0.298241	0.238934
H121	H	0.826412	-0.622589	-0.055700
H122	H	1.326412	-0.122589	0.444300
H123	H	0.333327	-0.000122	-0.059865
H124	H	0.833327	0.499878	0.440135
H125	H	0.830508	-0.000061	0.437322
H126	H	1.330508	0.499939	0.937322
F127	F	0.324632	-0.000076	-0.336555
F128	F	0.824632	0.499924	0.163445
H129	H	0.784706	-0.000063	0.212933
H130	H	1.284706	0.499937	0.712933
H131	H	0.557716	-0.000114	-0.014062
H132	H	1.057716	0.499886	0.485938
H133	H	0.539970	-0.000075	-0.272136
H134	H	1.039970	0.499925	0.227864
F135	F	1.093561	-0.000110	0.615694
F136	F	1.593561	0.499890	1.115694
F137	F	0.154951	-0.000093	-0.322914
F138	F	0.654951	0.499907	0.177086
H139	H	0.706846	-0.000090	-0.026046
H140	H	1.206846	0.499910	0.473954
H141	H	0.818520	-0.000078	0.586439
H142	H	1.318520	0.499922	1.086439
F143	F	0.175154	-0.000141	-0.029268
F144	F	0.675154	0.499859	0.470732
F145	F	0.822183	-0.798233	-0.051478
F146	F	1.322183	-0.298233	0.448522
H147	H	1.010493	-0.622612	-0.239903
H148	H	1.510493	-0.122612	0.260097
H149	H	1.046891	-0.377594	-0.276305
H150	H	1.546891	0.122406	0.223695
F151	F	1.073386	-0.000129	0.072503
F152	F	1.573386	0.499871	0.572503
H153	H	1.038975	-0.213276	-0.268376
H154	H	1.538975	0.286724	0.231624
H155	H	1.042784	-0.000109	0.230675
H156	H	1.542784	0.499891	0.730675
F157	F	0.779735	-0.000069	0.052300
F158	F	1.279735	0.499931	0.552300
H159	H	0.854891	-0.213269	-0.084171
H160	H	1.354891	0.286731	0.415829
F161	F	0.850659	-0.388897	-0.079956
F162	F	1.350659	0.111103	0.420044
H163	H	1.002782	-0.515461	-0.232196
H164	H	1.502782	-0.015461	0.267804
