data_functionalizedCrystal
_audit_creation_method	'MofGen! by Chris Wilmer'
_symmetry_space_group_name_H-M	'P1'
_symmetry_Int_Tables_number	1
_symmetry_cell_setting	triclinic
loop_
_symmetry_equiv_pos_as_xyz
  x,y,z
_cell_length_a	13.033293
_cell_length_b	13.032868
_cell_length_c	13.032328
_cell_angle_alpha	76.715225
_cell_angle_beta	89.079697
_cell_angle_gamma	74.808508
loop_
_atom_site_label
_atom_site_type_symbol
_atom_site_fract_x
_atom_site_fract_y
_atom_site_fract_z
Zn1	Zn	1.451096	0.335763	-0.818059
Zn2	Zn	1.450962	0.490864	-0.662986
Zn3	Zn	1.301761	0.330067	-0.623616
Zn4	Zn	1.250866	0.535853	-0.817927
O5	O	1.363672	0.423137	-0.730647
O6	O	1.597317	0.339893	-0.814021
O7	O	1.452414	0.448323	-0.511545
O8	O	1.342926	0.179790	-0.632988
O9	O	1.597218	0.453846	-0.700089
O10	O	1.452642	0.183975	-0.775845
O11	O	1.342797	0.330186	-0.482620
O12	O	1.148772	0.373809	-0.632859
O13	O	1.256184	0.530522	-0.964163
O14	O	1.111380	0.524999	-0.775619
O15	O	1.403292	0.383517	-0.964260
O16	O	1.403064	0.647865	-0.699961
O17	O	1.256054	0.680918	-0.813795
C18	C	1.092158	0.453669	-0.699953
C19	C	0.975995	0.466760	-0.686850
C20	C	0.924226	0.416332	-0.737489
C21	C	0.804167	0.429861	-0.723947
C22	C	1.324047	0.703552	-0.761162
C23	C	1.307185	0.823510	-0.774262
C24	C	1.372455	0.860603	-0.723833
C25	C	1.355030	0.984584	-0.737371
C26	C	1.636246	0.392486	-0.761461
C27	C	1.752400	0.379425	-0.774593
C28	C	1.324075	0.462673	-1.003184
C29	C	1.307202	0.479521	-1.119324
C30	C	1.403444	1.141629	-0.700024
C31	C	1.420308	1.021672	-0.686935
C32	C	1.355040	0.431714	-1.291189
C33	C	1.372475	0.414293	-1.171151
C34	C	1.403185	0.383670	-0.459168
C35	C	1.420304	0.366495	-0.343019
H36	H	0.968790	0.363137	-0.790863
H37	H	0.759609	0.483052	-0.670562
H38	H	1.286254	0.500446	-1.335682
H39	H	1.286248	1.044612	-0.790576
H40	H	1.441258	0.345550	-1.126661
C41	C	1.465375	0.779521	-0.651968
H42	H	1.504070	0.818870	-0.622090
H43	H	1.438187	0.733492	-0.597133
H44	H	1.511211	0.736190	-0.692354
H45	H	1.238405	0.548251	-1.163809
H46	H	1.489082	0.297757	-1.298525
C47	C	0.812579	0.307560	-0.846707
H48	H	0.764531	0.277671	-0.876714
H49	H	0.842731	0.350744	-0.901440
H50	H	0.867596	0.249914	-0.806445
C51	C	0.915811	0.538617	-0.614736
H52	H	0.963861	0.568496	-0.584717
H53	H	0.860789	0.596256	-0.654987
H54	H	0.885669	0.495420	-0.559998
C55	C	1.513235	0.940595	-0.615066
H56	H	1.551928	0.979947	-0.585191
H57	H	1.486048	0.894566	-0.560231
H58	H	1.559071	0.897265	-0.655453
C59	C	1.214268	0.904592	-0.846131
H60	H	1.175583	0.865243	-0.876020
H61	H	1.168436	0.947932	-0.805758
H62	H	1.241469	0.950612	-0.900972
