data_functionalizedCrystal
_audit_creation_method	'MofGen! by Chris Wilmer'
_symmetry_space_group_name_H-M	'P1'
_symmetry_Int_Tables_number	1
_symmetry_cell_setting	triclinic
loop_
_symmetry_equiv_pos_as_xyz
  x,y,z
_cell_length_a	15.538191
_cell_length_b	14.853567
_cell_length_c	13.930277
_cell_angle_alpha	90.008437
_cell_angle_beta	90.005011
_cell_angle_gamma	114.546488
loop_
_atom_site_label
_atom_site_type_symbol
_atom_site_fract_x
_atom_site_fract_y
_atom_site_fract_z
O1	O	1.249533	0.292697	0.079862
O2	O	1.749533	0.792697	0.579862
O3	O	0.975411	0.188644	0.079854
O4	O	1.475411	0.688644	0.579854
O5	O	1.119794	0.374305	0.079861
O6	O	1.619794	0.874305	0.579861
O7	O	1.105150	0.107036	0.079855
O8	O	1.605150	0.607036	0.579855
O9	O	1.119773	0.374277	-0.079801
O10	O	1.619773	0.874277	0.420199
O11	O	0.975389	0.188616	-0.079808
O12	O	1.475389	0.688616	0.420192
O13	O	1.249512	0.292669	-0.079800
O14	O	1.749512	0.792669	0.420200
Zn15	Zn	1.112447	0.240638	-0.105154
Zn16	Zn	1.612447	0.740638	0.394846
Zn17	Zn	1.112475	0.240675	0.105208
Zn18	Zn	1.612475	0.740675	0.605208
O19	O	1.105129	0.107008	-0.079807
O20	O	1.605129	0.607008	0.420193
C21	C	0.940319	0.177744	0.000022
C22	C	1.440319	0.677744	0.500022
C23	C	0.835787	0.145316	0.000020
C24	C	1.335787	0.645316	0.500020
N25	N	1.112435	0.240615	-0.248720
N26	N	1.612435	0.740615	0.251280
C27	C	1.119120	0.407662	0.000033
C28	C	1.619120	0.907662	0.500033
C29	C	1.117132	0.507093	0.000041
C30	C	1.617132	1.007093	0.500041
C31	C	0.547575	0.467476	0.000042
C32	C	1.047575	0.967476	0.500042
C33	C	0.449350	0.436983	0.000042
C34	C	0.949350	0.936983	0.500042
C35	C	0.427131	0.265464	0.000038
C36	C	0.927131	0.765464	0.500038
C37	C	0.525357	0.295943	0.000033
C38	C	1.025357	0.795943	0.500033
C39	C	0.585572	0.396951	0.000037
C40	C	1.085572	0.896951	0.500037
C41	C	0.563354	0.225418	0.000028
C42	C	1.063354	0.725418	0.500028
C43	C	0.661571	0.255895	0.000028
C44	C	1.161571	0.755895	0.500028
C45	C	0.721792	0.356897	0.000034
C46	C	1.221792	0.856897	0.500034
C47	C	0.683789	0.427428	0.000037
C48	C	1.183789	0.927428	0.500037
C49	C	0.503137	0.124411	0.000031
C50	C	1.003137	0.624411	0.500031
C51	C	0.541133	0.053885	0.000026
C52	C	1.041133	0.553885	0.500026
C53	C	0.639353	0.084362	0.000019
C54	C	1.139353	0.584362	0.500019
C55	C	0.699574	0.185365	0.000025
C56	C	1.199574	0.685365	0.500025
C57	C	0.677355	0.013832	0.000016
C58	C	1.177355	0.513832	0.500016
C59	C	0.775573	0.044309	0.000017
C60	C	1.275573	0.544309	0.500017
C61	C	0.797791	0.215842	0.000026
C62	C	1.297791	0.715842	0.500026
C63	C	1.284604	0.303569	0.000034
C64	C	1.784604	0.803569	0.500034
C65	C	1.389135	0.335997	0.000043
C66	C	1.889135	0.835997	0.500043
C67	C	1.105803	0.073651	0.000023
C68	C	1.605803	0.573651	0.500023
C69	C	1.107791	-0.025780	0.000021
C70	C	1.607791	0.474220	0.500021
C71	C	1.022959	0.888697	0.000020
C72	C	1.522959	1.388697	0.500020
C73	C	1.194490	0.966314	0.000025
C74	C	1.694490	1.466314	0.500025
C75	C	1.196360	0.872895	0.000031
C76	C	1.696360	1.372895	0.500031
C77	C	1.111528	0.787371	0.000030
C78	C	1.611528	1.287371	0.500030
C79	C	1.024826	0.795267	0.000023
C80	C	1.524826	1.295267	0.500023
C81	C	1.283060	0.864991	0.000028
C82	C	1.783060	1.364991	0.500028
C83	C	1.284933	0.771567	0.000032
C84	C	1.784933	1.271567	0.500032
C85	C	1.200100	0.686041	0.000038
C86	C	1.700100	1.186041	0.500038
C87	C	1.113395	0.693942	0.000033
C88	C	1.613395	1.193942	0.500033
C89	C	1.028563	0.608418	0.000032
C90	C	1.528563	1.108418	0.500032
C91	C	0.941857	0.616316	0.000033
C92	C	1.441857	1.116316	0.500033
C93	C	0.939993	0.709742	0.000029
C94	C	1.439993	1.209742	0.500029
C95	C	1.201964	0.592616	0.000042
C96	C	1.701964	1.092616	0.500042
C97	C	1.030430	0.514989	0.000034
C98	C	1.530430	1.014989	0.500034
C99	C	1.169664	0.204695	-0.700979
C100	C	1.669664	0.704695	-0.200979
C101	C	1.055315	0.276702	-0.700969
C102	C	1.555315	0.776702	-0.200969
C103	C	1.055301	0.276682	-0.600473
C104	C	1.555301	0.776682	-0.100473
C105	C	1.112470	0.240670	-0.550226
C106	C	1.612470	0.740670	-0.050226
C107	C	1.169654	0.204677	-0.600474
C108	C	1.669654	0.704677	-0.100474
C109	C	0.998126	0.312684	-0.550218
C110	C	1.498126	0.812684	-0.050218
C111	C	0.998110	0.312667	-0.449716
C112	C	1.498110	0.812667	0.050284
C113	C	1.055275	0.276648	-0.399466
C114	C	1.555275	0.776648	0.100534
C115	C	1.112460	0.240652	-0.449720
C116	C	1.612460	0.740652	0.050280
C117	C	1.169629	0.204640	-0.399473
C118	C	1.669629	0.704640	0.100527
C119	C	1.226810	0.168638	-0.449725
C120	C	1.726810	0.668638	0.050275
C121	C	1.226819	0.168658	-0.550224
C122	C	1.726819	0.668658	-0.050224
C123	C	1.055266	0.276628	-0.298967
C124	C	1.555266	0.776628	0.201033
C125	C	1.169619	0.204623	-0.298968
C126	C	1.669619	0.704623	0.201032
N127	N	1.112495	0.240707	0.248774
N128	N	1.612495	0.740707	0.748774
H129	H	0.846822	0.298092	0.000022
H130	H	1.346822	0.798092	0.500022
F131	F	0.930685	0.897104	0.000030
F132	F	1.430685	1.397104	0.500030
F133	F	0.408916	0.512054	0.000036
F134	F	0.908916	1.012054	0.500036
F135	F	0.940138	0.423972	0.000040
F136	F	1.440138	0.923972	0.500040
H137	H	0.872787	0.546671	0.000025
H138	H	1.372787	1.046671	0.500025
F139	F	0.747880	0.534932	0.000029
F140	F	1.247880	1.034932	0.500029
H141	H	0.596607	0.549726	0.000039
H142	H	1.096607	1.049726	0.500039
H143	H	0.951590	0.342013	-0.591136
H144	H	1.451590	0.842013	-0.091136
H145	H	0.869402	0.716183	0.000029
H146	H	1.369402	1.216183	0.500029
F147	F	0.826325	0.389334	0.000040
F148	F	1.326325	0.889334	0.500040
H149	H	0.628314	-0.068408	0.000023
H150	H	1.128314	0.431592	0.500023
H151	H	1.272558	0.586189	0.000035
H152	H	1.772558	1.086189	0.500035
F153	F	1.230462	0.166286	-0.245498
F154	F	1.730462	0.666286	0.254502
F155	F	0.816014	-0.030752	0.000012
F156	F	1.316014	0.469248	0.500012
H157	H	1.263556	1.035951	0.000018
H158	H	1.763556	1.535951	0.500018
H159	H	0.378091	0.183224	0.000039
H160	H	0.878091	0.683224	0.500039
F161	F	0.937241	0.350967	-0.396242
F162	F	1.437241	0.850967	0.103758
F163	F	1.373337	0.956012	0.000011
F164	F	1.873337	1.456012	0.500011
H165	H	1.273361	0.139322	-0.408801
H166	H	1.773361	0.639322	0.091199
H167	H	0.423163	0.099600	0.000034
H168	H	0.923163	0.599600	0.500034
H169	H	1.355534	0.765147	0.000033
H170	H	1.855534	1.265147	0.500033
F171	F	1.287667	0.130343	-0.603713
F172	F	1.787667	0.630343	-0.103713
H173	H	1.216217	0.175379	-0.741899
H174	H	1.716217	0.675379	-0.241899
F175	F	0.477039	-0.053610	0.000028
F176	F	0.977039	0.446390	0.500028
F177	F	0.994429	0.314960	-0.245490
F178	F	1.494429	0.814960	0.254510
F179	F	0.994478	0.315029	-0.754448
F180	F	1.494478	0.815029	-0.254448
