data_functionalizedCrystal
_audit_creation_method	'MofGen! by Chris Wilmer'
_symmetry_space_group_name_H-M	'P1'
_symmetry_Int_Tables_number	1
_symmetry_cell_setting	triclinic
loop_
_symmetry_equiv_pos_as_xyz
  x,y,z
_cell_length_a	15.944493
_cell_length_b	15.944493
_cell_length_c	11.295483
_cell_angle_alpha	94.100278
_cell_angle_beta	85.895877
_cell_angle_gamma	83.475044
loop_
_atom_site_label
_atom_site_type_symbol
_atom_site_fract_x
_atom_site_fract_y
_atom_site_fract_z
O1	O	1.120189	0.102447	-0.098994
O2	O	0.875630	0.115854	-0.098998
O3	O	1.004614	-0.013129	-0.099006
O4	O	0.991205	0.231431	-0.098986
O5	O	0.993285	-0.001818	0.099046
O6	O	0.864301	0.127166	0.099053
O7	O	1.108860	0.113759	0.099057
Cu8	Cu	0.985546	0.121495	0.117139
Cu9	Cu	0.998944	0.108118	-0.117080
O10	O	0.979876	0.242742	0.099065
C11	C	0.838671	0.120962	0.000027
C12	C	0.745423	0.119319	0.000025
C13	C	0.998402	-0.038769	0.000015
C14	C	0.996760	-0.132018	-0.000000
C15	C	0.509647	0.195242	0.000030
C16	C	0.453511	0.159877	0.097681
C17	C	0.574702	0.116275	0.000027
C18	C	0.464685	0.148706	-0.097582
C19	C	0.409794	0.113340	0.000023
C20	C	0.519790	0.080936	0.097759
C21	C	0.530973	0.069772	-0.097592
C22	C	0.474869	0.034350	0.000083
C23	C	0.669702	0.117968	0.000030
C24	C	0.314797	0.111642	0.000029
C25	C	1.072681	-0.367792	0.000023
C26	C	1.037324	-0.423929	-0.097626
C27	C	0.993715	-0.302737	0.000014
C28	C	1.026137	-0.412753	0.097637
C29	C	0.990779	-0.467645	0.000033
C30	C	0.958384	-0.357650	-0.097716
C31	C	0.947203	-0.346466	0.097635
C32	C	0.911790	-0.402571	-0.000039
C33	C	0.995408	-0.207738	0.000002
C34	C	0.989080	-0.562642	0.000037
C35	C	1.145819	0.108651	0.000030
C36	C	1.239068	0.110293	0.000024
C37	C	0.986089	0.268381	0.000042
C38	C	0.987731	0.361630	0.000049
N39	N	0.976129	0.130903	0.281876
N40	N	1.008368	0.098703	-0.281817
C41	C	1.076158	0.030930	0.531159
C42	C	1.069047	0.038046	0.655823
C43	C	0.954794	0.152246	0.655870
C44	C	0.961904	0.145130	0.531206
C45	C	1.022589	0.084471	0.468855
C46	C	1.029703	0.077360	0.344189
C47	C	0.915447	0.191556	0.344238
C48	C	0.908336	0.198671	0.468902
H49	H	0.525251	0.263269	0.000127
H50	H	1.079118	0.027971	0.293424
H51	H	0.440462	0.177357	-0.180127
C52	C	1.088758	-0.469420	-0.209149
N53	N	1.127503	-0.503685	-0.293143
H54	H	1.125575	-0.018455	0.480392
C55	C	0.841580	0.265387	0.537503
N56	N	0.791298	0.315638	0.589171
C57	C	0.888026	0.218946	0.724478
N58	N	0.837730	0.269180	0.776155
C59	C	0.856517	0.250454	0.275693
N60	N	0.812134	0.294817	0.224064
H61	H	0.929782	-0.333544	-0.180360
C62	C	1.164578	-0.346701	-0.000106
N63	N	1.233794	-0.330814	-0.000210
H64	H	0.543898	0.052327	0.180398
C65	C	0.408020	0.211301	0.209211
N66	N	0.373755	0.250040	0.293209
C67	C	1.127974	-0.020856	0.724354
N68	N	1.172359	-0.065225	0.775970
H69	H	0.459414	-0.033719	0.000134
C70	C	0.819832	-0.423454	-0.000111
N71	N	0.750571	-0.439185	-0.000171
C72	C	0.576469	0.018381	-0.209136
N73	N	0.610734	-0.020324	-0.293160
H74	H	1.054780	-0.436976	0.180187
C75	C	0.895805	-0.300966	0.209171
N76	N	0.857096	-0.266697	0.293190
