data_functionalizedCrystal
_audit_creation_method	'MofGen! by Chris Wilmer'
_symmetry_space_group_name_H-M	'P1'
_symmetry_Int_Tables_number	1
_symmetry_cell_setting	triclinic
loop_
_symmetry_equiv_pos_as_xyz
  x,y,z
_cell_length_a	16.974800
_cell_length_b	19.188930
_cell_length_c	15.455313
_cell_angle_alpha	92.650876
_cell_angle_beta	90.973911
_cell_angle_gamma	83.267966
loop_
_atom_site_label
_atom_site_type_symbol
_atom_site_fract_x
_atom_site_fract_y
_atom_site_fract_z
O1	O	1.048768	0.089002	0.001507
O2	O	0.819299	0.099665	-0.014610
O3	O	0.940655	-0.007291	-0.006069
O4	O	0.927412	0.195957	-0.007033
O5	O	0.933715	-0.001200	0.137705
O6	O	0.812359	0.105756	0.129164
O7	O	1.041829	0.095093	0.145281
Cu8	Cu	0.926460	0.100980	0.150350
Cu9	Cu	0.934667	0.093777	-0.019679
O10	O	0.920473	0.202048	0.136741
C11	C	0.786472	0.102193	0.055215
C12	C	0.698995	0.100644	0.049072
C13	C	0.654121	0.103234	0.124559
C14	C	0.571929	0.101768	0.118789
C15	C	0.534613	0.097715	0.037532
C16	C	0.579494	0.095122	-0.037961
C17	C	0.661685	0.096584	-0.032190
C18	C	0.289205	0.092983	0.011870
C19	C	0.207007	0.091523	0.006105
C20	C	0.199448	0.098167	0.162856
C21	C	0.281641	0.099633	0.168619
C22	C	0.326515	0.097036	0.093126
N23	N	0.450599	0.096218	0.031632
N24	N	0.410528	0.098528	0.099027
C25	C	0.936756	-0.030258	0.065790
C26	C	0.935468	-0.107768	0.065707
C27	C	1.006676	-0.152359	0.070713
C28	C	1.005467	-0.225189	0.070614
C29	C	0.933045	-0.253424	0.065527
C30	C	0.861828	-0.208824	0.060515
C31	C	0.863040	-0.135996	0.060606
N32	N	0.875326	-0.359615	0.110567
N33	N	0.874180	-0.428799	0.110484
C34	C	0.929392	-0.472851	0.065252
N35	N	0.985804	-0.445106	0.020119
N36	N	0.986952	-0.375915	0.020207
C37	C	0.931724	-0.332393	0.065428
C38	C	0.999294	-0.596413	0.070150
C39	C	0.998082	-0.669244	0.070045
C40	C	0.854441	-0.652877	0.059956
C41	C	0.855655	-0.580047	0.060052
C42	C	0.928083	-0.551820	0.065153
C43	C	1.074656	0.092565	0.075454
C44	C	1.162133	0.094114	0.081592
C45	C	0.924372	0.225016	0.064879
C46	C	0.925660	0.302526	0.064957
N47	N	0.920694	0.106046	0.269940
N48	N	0.940440	0.088706	-0.139268
C49	C	0.972268	0.060625	0.318964
C50	C	0.967914	0.064462	0.409465
C51	C	0.911990	0.113725	0.450941
C52	C	0.860410	0.159149	0.401911
C53	C	0.864761	0.155308	0.311411
C54	C	0.893211	0.130288	0.721201
C55	C	0.888866	0.134127	0.811708
C56	C	0.996370	0.039439	0.819256
C57	C	1.000718	0.035605	0.728754
C58	C	0.949136	0.081026	0.679731
N59	N	0.907540	0.117651	0.543449
N60	N	0.953583	0.077097	0.587226
H61	H	0.325732	0.090866	-0.049602
H62	H	0.805052	-0.099689	0.056530
H63	H	0.698221	0.094476	-0.093660
N64	N	0.539251	0.090743	-0.125604
H65	H	0.480374	0.090211	-0.117807
H66	H	0.548729	0.132788	-0.159290
N67	N	1.084792	-0.121914	0.076213
H68	H	1.129719	-0.161218	0.079368
H69	H	1.090999	-0.094304	0.023171
N70	N	0.776323	-0.683313	0.054478
H71	H	0.747706	-0.669310	-0.001007
H72	H	0.786418	-0.736210	0.055218
N73	N	0.694364	0.107601	0.212204
H74	H	0.753241	0.108136	0.204408
H75	H	0.671803	0.152037	0.244953
H76	H	1.058269	-0.573430	0.074300
N77	N	1.074889	-0.717344	0.075441
H78	H	1.120952	-0.688407	0.078689
H79	H	1.074935	-0.745668	0.128920
H80	H	1.038364	0.002459	0.859178
N81	N	0.828542	0.187256	0.856454
H82	H	0.856744	0.219838	0.896089
H83	H	0.796536	0.215400	0.811619
H84	H	0.162903	0.100280	0.224317
N85	N	0.837573	0.179279	0.668344
H86	H	0.845718	0.229523	0.684703
H87	H	0.848830	0.169315	0.604734
H88	H	0.814871	0.199258	0.435686
N89	N	0.783712	-0.239267	0.055030
H90	H	0.782580	-0.271370	0.001472
H91	H	0.777479	-0.266829	0.108105
N92	N	0.166751	0.087142	-0.081538
H93	H	0.126280	0.129629	-0.087893
H94	H	0.207697	0.085692	-0.128438
H95	H	1.009909	0.027476	0.449380
N96	N	0.809133	0.204302	0.258539
H97	H	0.840939	0.233697	0.223077
H98	H	0.776152	0.175892	0.218617
N99	N	0.523526	0.104559	0.200205
H100	H	0.559707	0.106857	0.252562
H101	H	0.483083	0.147602	0.201047
N102	N	0.778851	-0.531947	0.054658
H103	H	0.732788	-0.560882	0.051420
H104	H	0.773653	-0.499124	0.107774
N105	N	1.032592	0.007495	0.274232
H106	H	1.064601	-0.020697	0.319024
H107	H	1.004338	-0.025040	0.234588
H108	H	1.063455	-0.261503	0.074687
N109	N	1.061038	-0.017528	0.684020
H110	H	1.093050	-0.045721	0.728810
H111	H	1.032783	-0.050062	0.644377
H112	H	0.312018	0.102930	0.234787
