data_functionalizedCrystal
_audit_creation_method	'MofGen! by Chris Wilmer'
_symmetry_space_group_name_H-M	'P1'
_symmetry_Int_Tables_number	1
_symmetry_cell_setting	triclinic
loop_
_symmetry_equiv_pos_as_xyz
  x,y,z
_cell_length_a	16.959453
_cell_length_b	25.639242
_cell_length_c	16.959447
_cell_angle_alpha	90.025646
_cell_angle_beta	89.968904
_cell_angle_gamma	89.980153
loop_
_atom_site_label
_atom_site_type_symbol
_atom_site_fract_x
_atom_site_fract_y
_atom_site_fract_z
Zn1	Zn	-0.314771	-0.799286	-0.447143
Zn2	Zn	0.018563	-0.465953	-0.113810
Zn3	Zn	0.351896	-0.132619	0.219523
Zn4	Zn	-0.446963	-0.799228	-0.314963
Zn5	Zn	-0.113630	-0.465894	0.018370
Zn6	Zn	0.219703	-0.132561	0.351704
Zn7	Zn	-0.314791	-0.711859	-0.314955
Zn8	Zn	0.018542	-0.378526	0.018379
Zn9	Zn	0.351876	-0.045193	0.351712
Zn10	Zn	-0.446900	-0.711829	-0.447075
Zn11	Zn	-0.113566	-0.378495	-0.113742
Zn12	Zn	0.219767	-0.045162	0.219591
O13	O	-0.380856	-0.755550	-0.381034
O14	O	-0.047523	-0.422217	-0.047701
O15	O	0.285810	-0.088884	0.285633
O16	O	-0.332324	-0.872443	-0.429641
O17	O	0.001009	-0.539110	-0.096308
O18	O	0.334342	-0.205777	0.237026
O19	O	-0.429465	-0.787626	-0.204351
O20	O	-0.096132	-0.454293	0.128983
O21	O	0.237201	-0.120960	0.462316
O22	O	-0.204178	-0.723494	-0.332515
O23	O	0.129156	-0.390161	0.000819
O24	O	0.462489	-0.056827	0.334152
O25	O	-0.429446	-0.872401	-0.332529
O26	O	-0.096112	-0.539067	0.000805
O27	O	0.237221	-0.205734	0.334138
O28	O	-0.204163	-0.787726	-0.429633
O29	O	0.129171	-0.454393	-0.096300
O30	O	0.462504	-0.121059	0.237034
O31	O	-0.332359	-0.723437	-0.204345
O32	O	0.000974	-0.390104	0.128989
O33	O	0.334308	-0.056770	0.462322
O34	O	-0.332298	-0.638690	-0.332449
O35	O	0.001036	-0.305357	0.000885
O36	O	0.334369	0.027977	0.334218
O37	O	-0.429337	-0.723442	-0.557695
O38	O	-0.096004	-0.390108	-0.224362
O39	O	0.237329	-0.056775	0.108971
O40	O	-0.429357	-0.638667	-0.429517
O41	O	-0.096024	-0.305334	-0.096184
O42	O	0.237309	0.027999	0.237149
O43	O	-0.332263	-0.787696	-0.557745
O44	O	0.001070	-0.454363	-0.224412
O45	O	0.334404	-0.121030	0.108922
O46	O	-0.557566	-0.787597	-0.332463
O47	O	-0.224232	-0.454263	0.000870
O48	O	0.109101	-0.120930	0.334204
O49	O	-0.557519	-0.723385	-0.429525
O50	O	-0.224186	-0.390052	-0.096192
O51	O	0.109148	-0.056718	0.237141
C52	C	-0.380823	-0.619708	-0.380975
C53	C	-0.047490	-0.286374	-0.047642
C54	C	0.285843	0.046959	0.285691
C55	C	-0.380828	-0.561594	-0.380969
C56	C	-0.047495	-0.228260	-0.047636
C57	C	0.285838	0.105073	0.285698
C58	C	-0.586223	-0.755495	-0.381005
C59	C	-0.252889	-0.422162	-0.047672
C60	C	0.080444	-0.088829	0.285662
C61	C	-0.674079	-0.755520	-0.381019
C62	C	-0.340746	-0.422186	-0.047686
C63	C	-0.007412	-0.088853	0.285648
C64	C	-0.715358	-0.722071	-0.431519
C65	C	-0.382024	-0.388738	-0.098186
C66	C	-0.048691	-0.055404	0.235148
C67	C	-0.715354	-0.788994	-0.330536
C68	C	-0.382021	-0.455661	0.002797
C69	C	-0.048687	-0.122327	0.336130
C70	C	-0.797900	-0.789020	-0.330551
C71	C	-0.464566	-0.455687	0.002783
C72	C	-0.131233	-0.122353	0.336116
C73	C	-0.839178	-0.755572	-0.381051
C74	C	-0.505845	-0.422238	-0.047717
C75	C	-0.172512	-0.088905	0.285616
C76	C	-0.797911	-0.722097	-0.431537
C77	C	-0.464578	-0.388764	-0.098203
C78	C	-0.131245	-0.055430	0.235130
C79	C	-0.839173	-0.822498	-0.280071
C80	C	-0.505840	-0.489164	0.053262
C81	C	-0.172506	-0.155831	0.386595
C82	C	-0.921724	-0.822525	-0.280084
C83	C	-0.588391	-0.489192	0.053249
C84	C	-0.255057	-0.155859	0.386582
C85	C	-0.963004	-0.789074	-0.330581
C86	C	-0.629671	-0.455740	0.002752
C87	C	-0.296338	-0.122407	0.336086
C88	C	-0.921732	-0.755598	-0.381068
C89	C	-0.588399	-0.422264	-0.047735
C90	C	-0.255065	-0.088931	0.285598
C91	C	-0.963011	-0.722149	-0.431569
C92	C	-0.629677	-0.388816	-0.098235
C93	C	-0.296344	-0.055482	0.235098
C94	C	-0.921740	-0.688670	-0.482052
C95	C	-0.588407	-0.355337	-0.148719
C96	C	-0.255073	-0.022003	0.184614
C97	C	-0.839192	-0.688646	-0.482034
C98	C	-0.505858	-0.355312	-0.148700
C99	C	-0.172525	-0.021979	0.184633
C100	C	-1.045553	-0.789098	-0.330600
C101	C	-0.712219	-0.455765	0.002733
C102	C	-0.378886	-0.122431	0.336067
C103	C	-1.045564	-0.722175	-0.431586
C104	C	-0.712231	-0.388842	-0.098253
C105	C	-0.378898	-0.055508	0.235080
C106	C	-0.431472	-0.201228	-0.431509
C107	C	-0.098139	0.132105	-0.098175
C108	C	0.235194	0.465439	0.235158
C109	C	-0.431476	-0.146624	-0.431519
C110	C	-0.098143	0.186710	-0.098186
C111	C	0.235190	0.520043	0.235148
O112	O	-0.474501	-0.118384	-0.474455
O113	O	-0.141167	0.214949	-0.141122
O114	O	0.192166	0.548282	0.192212
N115	N	-0.380870	-0.119311	-0.381062
N116	N	-0.047536	0.214022	-0.047728
N117	N	0.285797	0.547355	0.285605
C118	C	-0.330250	-0.146606	-0.330596
C119	C	0.003084	0.186727	0.002737
C120	C	0.336417	0.520061	0.336071
O121	O	-0.287204	-0.118361	-0.287679
O122	O	0.046129	0.214972	0.045654
O123	O	0.379462	0.548306	0.378987
C124	C	-0.330242	-0.201209	-0.330590
C125	C	0.003091	0.132124	0.002743
C126	C	0.336425	0.465457	0.336077
C127	C	-0.380858	-0.228519	-0.381045
C128	C	-0.047525	0.104814	-0.047712
C129	C	0.285809	0.438148	0.285621
C130	C	-0.482083	-0.228537	-0.481961
C131	C	-0.148750	0.104796	-0.148627
C132	C	0.184583	0.438129	0.184706
C133	C	-0.482080	-0.283138	-0.481949
C134	C	-0.148747	0.050195	-0.148616
C135	C	0.184587	0.383529	0.184718
C136	C	-0.431466	-0.310429	-0.431485
C137	C	-0.098132	0.022904	-0.098152
C138	C	0.235201	0.356238	0.235181
C139	C	-0.380855	-0.283119	-0.381034
C140	C	-0.047521	0.050214	-0.047700
C141	C	0.285812	0.383547	0.285633
C142	C	-0.279619	-0.228503	-0.280129
C143	C	0.053715	0.104830	0.053204
C144	C	0.387048	0.438163	0.386538
C145	C	-0.279615	-0.283110	-0.280128
C146	C	0.053718	0.050223	0.053205
C147	C	0.387051	0.383556	0.386539
C148	C	-0.330231	-0.310420	-0.330583
C149	C	0.003102	0.022914	0.002750
C150	C	0.336436	0.356247	0.336083
C151	C	-0.330237	-0.365011	-0.330559
C152	C	0.003096	-0.031678	0.002775
C153	C	0.336430	0.301656	0.336108
N154	N	-0.380844	-0.392323	-0.381016
N155	N	-0.047511	-0.058990	-0.047683
N156	N	0.285823	0.274343	0.285650
C157	C	-0.431458	-0.365032	-0.431480
C158	C	-0.098125	-0.031699	-0.098146
C159	C	0.235208	0.301634	0.235187
C160	C	-0.330268	-0.031936	-0.330613
C161	C	0.003065	0.301398	0.002720
C162	C	0.336398	0.634731	0.336054
C163	C	-0.330279	0.022667	-0.330614
C164	C	0.003054	0.356000	0.002719
C165	C	0.336387	0.689333	0.336052
C166	C	-0.431505	0.022646	-0.431539
C167	C	-0.098172	0.355979	-0.098205
C168	C	0.235162	0.689312	0.235128
C169	C	-0.431498	-0.031958	-0.431533
C170	C	-0.098164	0.301376	-0.098200
C171	C	0.235169	0.634709	0.235134
C172	C	-0.380875	-0.059248	-0.381071
C173	C	-0.047542	0.274086	-0.047737
C174	C	0.285792	0.607419	0.285596
C175	C	-0.431448	-0.479697	-0.431451
C176	C	-0.098115	-0.146364	-0.098117
C177	C	0.235219	0.186969	0.235216
C178	C	-0.431443	-0.534303	-0.431432
C179	C	-0.098109	-0.200969	-0.098099
C180	C	0.235224	0.132364	0.235234
C181	C	-0.330214	-0.534277	-0.330511
C182	C	0.003119	-0.200943	0.002822
C183	C	0.336453	0.132390	0.336156
C184	C	-0.330222	-0.479676	-0.330526
C185	C	0.003111	-0.146343	0.002807
C186	C	0.336445	0.186990	0.336140
C187	C	-0.380842	-0.452388	-0.381003
C188	C	-0.047508	-0.119054	-0.047669
C189	C	0.285825	0.214279	0.285664
O190	O	-0.287232	-0.393285	-0.287647
O191	O	0.046101	-0.059952	0.045686
O192	O	0.379434	0.273382	0.379020
O193	O	-0.474489	-0.393284	-0.474396
O194	O	-0.141156	-0.059951	-0.141063
O195	O	0.192178	0.273383	0.192270
C196	C	-0.174688	-0.755620	-0.381081
C197	C	0.158645	-0.422287	-0.047747
C198	C	0.491979	-0.088953	0.285586
C199	C	-0.086831	-0.755650	-0.381100
C200	C	0.246502	-0.422316	-0.047767
C201	C	0.579835	-0.088983	0.285566
C202	C	-0.380791	-0.755572	-0.587202
C203	C	-0.047457	-0.422239	-0.253869
C204	C	0.285876	-0.088905	0.079464
C205	C	-0.380763	-0.755581	-0.675059
C206	C	-0.047430	-0.422248	-0.341726
C207	C	0.285904	-0.088915	-0.008392
C208	C	-0.380887	0.108077	-0.381084
C209	C	-0.047553	0.441410	-0.047751
C210	C	0.285780	0.774743	0.285583
C211	C	-0.380891	0.049963	-0.381081
C212	C	-0.047558	0.383296	-0.047748
C213	C	0.285776	0.716629	0.285586
C214	C	-0.431222	-0.722189	-1.046511
C215	C	-0.097888	-0.388856	-0.713178
C216	C	0.235445	-0.055523	-0.379845
C217	C	-0.330137	-0.789098	-1.046558
C218	C	0.003196	-0.455765	-0.713225
C219	C	0.336529	-0.122432	-0.379892
C220	C	-0.330154	-0.789084	-0.964012
C221	C	0.003179	-0.455751	-0.630679
C222	C	0.336513	-0.122418	-0.297346
C223	C	-0.380706	-0.755623	-0.922712
C224	C	-0.047373	-0.422290	-0.589379
C225	C	0.285960	-0.088956	-0.256045
C226	C	-0.431242	-0.722176	-0.963958
C227	C	-0.097908	-0.388842	-0.630624
C228	C	0.235425	-0.055509	-0.297291
C229	C	-0.279625	-0.822535	-0.922761
C230	C	0.053708	-0.489202	-0.589427
C231	C	0.387041	-0.155868	-0.256094
C232	C	-0.279641	-0.822523	-0.840210
C233	C	0.053693	-0.489190	-0.506876
C234	C	0.387026	-0.155856	-0.173543
C235	C	-0.330189	-0.789058	-0.798908
C236	C	0.003144	-0.455725	-0.465574
C237	C	0.336477	-0.122392	-0.132241
C238	C	-0.380726	-0.755609	-0.840158
C239	C	-0.047393	-0.422276	-0.506825
C240	C	0.285940	-0.088943	-0.173492
C241	C	-0.431278	-0.722148	-0.798858
C242	C	-0.097945	-0.388814	-0.465525
C243	C	0.235388	-0.055481	-0.132192
C244	C	-0.481812	-0.688696	-0.840107
C245	C	-0.148479	-0.355362	-0.506774
C246	C	0.184855	-0.022029	-0.173441
C247	C	-0.481791	-0.688711	-0.922656
C248	C	-0.148457	-0.355378	-0.589323
C249	C	0.184876	-0.022044	-0.255989
C250	C	-0.330211	-0.789043	-0.716359
C251	C	0.003123	-0.455709	-0.383026
C252	C	0.336456	-0.122376	-0.049693
C253	C	-0.431298	-0.722134	-0.716305
C254	C	-0.097965	-0.388801	-0.382971
C255	C	0.235368	-0.055467	-0.049638
C256	C	-0.380864	-0.755559	-0.175668
C257	C	-0.047531	-0.422225	0.157666
C258	C	0.285802	-0.088892	0.490999
C259	C	-0.380670	-0.755651	-0.087812
C260	C	-0.047336	-0.422317	0.245522
C261	C	0.285997	-0.088984	0.578855
H262	H	-0.955360	-0.661439	-0.523173
H263	H	-0.622026	-0.328105	-0.189840
H264	H	-0.288693	0.005228	0.143493
H265	H	-0.522935	-0.661478	-0.956248
H266	H	-0.189601	-0.328144	-0.622915
H267	H	0.143732	0.005189	-0.289582
O268	O	-0.225110	-0.858625	-0.967308
O269	O	0.108224	-0.525292	-0.633975
O270	O	0.441557	-0.191958	-0.300641
H271	H	-0.189982	-0.881888	-0.924759
H272	H	0.143352	-0.548554	-0.591426
H273	H	0.476685	-0.215221	-0.258092
H274	H	-0.472663	-0.556536	-0.472520
H275	H	-0.139330	-0.223202	-0.139186
H276	H	0.194004	0.110131	0.194147
O277	O	-0.275718	-0.825124	-0.671873
O278	O	0.057615	-0.491790	-0.338539
O279	O	0.390949	-0.158457	-0.005206
H280	H	-0.284227	-0.819496	-0.607533
H281	H	0.049106	-0.486163	-0.274199
H282	H	0.382439	-0.152829	0.059134
O283	O	-0.966227	-0.858633	-0.225631
O284	O	-0.632894	-0.525300	0.107703
O285	O	-0.299560	-0.191966	0.441036
H286	H	-1.003772	-0.885232	-0.261062
H287	H	-0.670439	-0.551899	0.072271
H288	H	-0.337106	-0.218565	0.405605
H289	H	-0.805561	-0.849733	-0.238959
H290	H	-0.472228	-0.516400	0.094374
H291	H	-0.138895	-0.183066	0.427707
H292	H	-0.681742	-0.816230	-0.289424
H293	H	-0.348409	-0.482896	0.043909
H294	H	-0.015075	-0.149563	0.377242
H295	H	-0.289071	0.044898	-0.289521
H296	H	0.044263	0.378231	0.043813
H297	H	0.377596	0.711564	0.377146
H298	H	-0.472363	-0.694952	-1.080100
H299	H	-0.139029	-0.361619	-0.746767
H300	H	0.194304	-0.028285	-0.413433
H301	H	-0.805584	-0.661389	-0.523136
H302	H	-0.472250	-0.328055	-0.189803
H303	H	-0.138917	0.005278	0.143530
O304	O	-0.536325	-0.652597	-0.795561
O305	O	-0.202991	-0.319264	-0.462227
O306	O	0.130342	0.014070	-0.128894
H307	H	-0.598364	-0.661539	-0.811380
H308	H	-0.265031	-0.328206	-0.478047
H309	H	0.068303	0.005128	-0.144713
H310	H	-0.238404	-0.206277	-0.239041
H311	H	0.094929	0.127056	0.094293
H312	H	0.428263	0.460389	0.427626
H313	H	-0.523300	-0.206323	-0.523058
H314	H	-0.189967	0.127011	-0.189725
H315	H	0.143367	0.460344	0.143608
O316	O	-0.275623	-0.563715	-0.276083
O317	O	0.057710	-0.230382	0.057251
O318	O	0.391044	0.102951	0.390584
H319	H	-0.235450	-0.588609	-0.311535
H320	H	0.097883	-0.255276	0.021798
H321	H	0.431217	0.078058	0.355132
O322	O	-0.225139	-0.858602	-0.795725
O323	O	0.108195	-0.525269	-0.462391
O324	O	0.441528	-0.191935	-0.129058
H325	H	-0.184928	-0.835209	-0.758118
H326	H	0.148405	-0.501875	-0.424785
H327	H	0.481738	-0.168542	-0.091451
H328	H	-0.681753	-0.694811	-0.472620
H329	H	-0.348420	-0.361478	-0.139287
H330	H	-0.015086	-0.028145	0.194046
O331	O	-0.486081	-0.061412	-0.485959
O332	O	-0.152748	0.271921	-0.152626
O333	O	0.180586	0.605254	0.180707
H334	H	-0.521271	-0.033256	-0.521051
H335	H	-0.187937	0.300077	-0.187718
H336	H	0.145396	0.633410	0.145615
O337	O	-1.090069	-0.825201	-0.276156
O338	O	-0.756736	-0.491868	0.057177
O339	O	-0.423402	-0.158534	0.390511
H340	H	-1.047497	-0.848454	-0.241036
H341	H	-0.714164	-0.515121	0.092297
H342	H	-0.380830	-0.181788	0.425631
O343	O	-0.275685	-0.061370	-0.276163
O344	O	0.057648	0.271964	0.057171
O345	O	0.390982	0.605297	0.390504
H346	H	-0.240509	-0.033200	-0.241073
H347	H	0.092824	0.300133	0.092261
H348	H	0.426157	0.633467	0.425594
H349	H	-0.472666	-0.457486	-0.472555
H350	H	-0.139332	-0.124152	-0.139222
H351	H	0.194001	0.209181	0.194111
H352	H	-0.523295	-0.305368	-0.523036
H353	H	-0.189962	0.027965	-0.189703
H354	H	0.143372	0.361298	0.143630
H355	H	-0.472716	0.044876	-0.472631
H356	H	-0.139382	0.378209	-0.139298
H357	H	0.193951	0.711543	0.194035
O358	O	-0.225012	-0.312542	-0.225696
O359	O	0.108321	0.020792	0.107637
O360	O	0.441655	0.354125	0.440970
H361	H	-0.233503	-0.355100	-0.234166
H362	H	0.099830	-0.021766	0.099168
H363	H	0.433164	0.311567	0.432501
H364	H	-0.472458	-0.694881	-0.682684
H365	H	-0.139124	-0.361547	-0.349350
H366	H	0.194209	-0.028214	-0.016017
O367	O	-0.275634	-0.450216	-0.276107
O368	O	0.057700	-0.116882	0.057226
O369	O	0.391033	0.216451	0.390559
H370	H	-0.240436	-0.478369	-0.241018
H371	H	0.092898	-0.145035	0.092315
H372	H	0.426231	0.188298	0.425649
H373	H	-0.288984	-0.816344	-1.080190
H374	H	0.044349	-0.483011	-0.746857
H375	H	0.377682	-0.149677	-0.413523
H376	H	-1.079168	-0.694937	-0.472710
H377	H	-0.745834	-0.361604	-0.139377
H378	H	-0.412501	-0.028270	0.193956
