data_functionalizedCrystal
_audit_creation_method	'MofGen! by Chris Wilmer'
_symmetry_space_group_name_H-M	'P1'
_symmetry_Int_Tables_number	1
_symmetry_cell_setting	triclinic
loop_
_symmetry_equiv_pos_as_xyz
  x,y,z
_cell_length_a	16.992694
_cell_length_b	16.992695
_cell_length_c	15.455313
_cell_angle_alpha	92.847427
_cell_angle_beta	87.142206
_cell_angle_gamma	90.668223
loop_
_atom_site_label
_atom_site_type_symbol
_atom_site_fract_x
_atom_site_fract_y
_atom_site_fract_z
O1	O	1.054080	0.163694	-0.072023
O2	O	0.825681	0.161862	-0.072048
O3	O	0.938965	0.048579	-0.072029
O4	O	0.940797	0.276978	-0.072042
O5	O	0.932485	0.055028	0.072232
O6	O	0.819202	0.168312	0.072213
O7	O	1.047601	0.170144	0.072238
Cu8	Cu	0.932809	0.169817	0.085398
Cu9	Cu	0.940473	0.162189	-0.085207
O10	O	0.934317	0.283428	0.072219
C11	C	0.793081	0.162731	0.000079
C12	C	0.705597	0.155702	0.000070
C13	C	0.933369	0.022443	0.000102
C14	C	0.926341	-0.065041	0.000101
C15	C	0.659607	0.223520	0.000066
C16	C	0.577405	0.216911	0.000079
C17	C	0.541197	0.142484	0.000088
C18	C	0.587193	0.074661	0.000094
C19	C	0.669393	0.081271	0.000088
C20	C	0.295881	0.115091	0.000113
C21	C	0.213676	0.108486	0.000116
C22	C	0.203893	0.250737	0.000103
C23	C	0.286095	0.257340	0.000091
C24	C	0.332084	0.189517	0.000102
N25	N	0.457174	0.135727	0.000098
N26	N	0.416105	0.196275	0.000098
C27	C	0.994158	-0.111032	0.000109
C28	C	0.987550	-0.193233	0.000100
C29	C	0.913123	-0.229442	0.000089
C30	C	0.845300	-0.183445	0.000078
C31	C	0.851910	-0.101246	0.000081
C32	C	0.885729	-0.474757	0.000074
C33	C	0.879124	-0.556962	0.000074
C34	C	1.021375	-0.566744	0.000094
C35	C	1.027977	-0.484543	0.000102
C36	C	0.960155	-0.438554	0.000087
N37	N	0.906366	-0.313464	0.000082
N38	N	0.966913	-0.354533	0.000087
C39	C	1.080201	0.169275	0.000109
C40	C	1.167685	0.176304	0.000113
C41	C	0.939913	0.309563	0.000087
C42	C	0.946942	0.397047	0.000082
N43	N	0.927425	0.175181	0.205392
N44	N	0.945863	0.156819	-0.205202
C45	C	0.975571	0.127074	0.250795
C46	C	0.971507	0.131139	0.341602
C47	C	0.919301	0.183315	0.387005
C48	C	0.871149	0.231424	0.341596
C49	C	0.875210	0.227355	0.250791
C50	C	0.901772	0.200858	0.658584
C51	C	0.897717	0.204926	0.749395
C52	C	0.998074	0.104639	0.749395
C53	C	1.002133	0.100578	0.658588
C54	C	0.953979	0.148684	0.613187
N55	N	0.915147	0.187473	0.479825
N56	N	0.958129	0.144522	0.520369
H57	H	0.539963	0.272136	0.000075
C58	C	1.121267	-0.401092	-0.074046
C59	C	1.109792	-0.444747	0.000109
H60	H	1.171775	-0.376521	-0.074035
H61	H	1.117994	-0.435201	-0.124345
H62	H	1.081820	-0.361936	-0.074040
H63	H	1.149235	-0.483906	0.000100
H64	H	1.113072	-0.410635	0.050421
C65	C	0.865337	0.332960	0.630628
C66	C	0.848849	0.253746	0.608691
H67	H	0.832666	0.365613	0.599820
H68	H	0.855451	0.342840	0.691200
H69	H	0.919075	0.344152	0.615727
H70	H	0.795112	0.242553	0.623598
H71	H	0.858728	0.243863	0.548105
H72	H	0.784700	-0.212933	0.000063
C73	C	0.820370	0.282198	0.480793
C74	C	0.813764	0.288779	0.391502
H75	H	0.784947	0.317613	0.511599
H76	H	0.807864	0.229794	0.495684
H77	H	0.872780	0.294737	0.495654
H78	H	0.761356	0.276235	0.376640
H79	H	0.826266	0.341195	0.376605
C80	C	0.268165	0.397286	0.000093
C81	C	0.325893	0.339153	0.000089
H82	H	0.292736	0.447793	0.000095
H83	H	0.238562	0.389502	-0.050209
H84	H	0.234053	0.393992	0.050406
H85	H	0.360001	0.342442	-0.050227
H86	H	0.355508	0.346939	0.050396
H87	H	0.166440	0.305954	0.000096
C88	C	0.123584	0.021851	0.074291
C89	C	0.173874	0.026669	0.000133
H90	H	0.099010	-0.028655	0.074296
H91	H	0.153194	0.029634	0.124588
H92	H	0.084433	0.061300	0.074275
H93	H	0.213029	-0.012776	0.000152
H94	H	0.144262	0.018878	-0.050177
C95	C	0.785826	-0.640407	0.074220
C96	C	0.797306	-0.596760	0.000059
H97	H	0.735315	-0.664971	0.074214
H98	H	0.825265	-0.679559	0.074223
H99	H	0.789099	-0.606286	0.124520
H100	H	0.794038	-0.630882	-0.050241
H101	H	0.757855	-0.557604	0.000048
H102	H	0.333316	0.059864	0.000122
C103	C	0.465533	0.001366	0.000101
C104	C	0.547395	-0.007152	0.000103
H105	H	0.440967	-0.049144	0.000099
H106	H	0.447802	0.031750	0.050404
H107	H	0.452313	0.027259	-0.050211
H108	H	0.560615	-0.033039	0.050418
H109	H	0.565132	-0.037548	-0.050205
C110	C	0.977332	0.029653	0.443723
C111	C	1.024436	0.078259	0.391502
H112	H	1.010013	-0.002998	0.474522
H113	H	0.945667	0.061303	0.483760
H114	H	0.944381	-0.002320	0.408299
H115	H	1.057384	0.110237	0.426927
H116	H	1.056115	0.046605	0.351460
H117	H	1.054764	-0.081557	0.000124
H118	H	0.706838	0.026046	0.000090
C119	C	0.710638	-0.099828	0.000066
C120	C	0.777362	-0.050690	0.000074
H121	H	0.664616	-0.068615	0.000064
H122	H	0.713280	-0.134337	-0.050237
H123	H	0.708763	-0.129847	0.050378
H124	H	0.779241	-0.020675	-0.050241
H125	H	0.774720	-0.016167	0.050382
H126	H	1.042774	-0.230675	0.000109
C127	C	1.100916	0.001849	0.667712
C128	C	1.059516	0.043220	0.608683
H129	H	1.136339	-0.033563	0.636901
H130	H	1.129699	0.037993	0.703116
H131	H	1.064784	-0.026950	0.703142
H132	H	1.095647	0.072024	0.573257
H133	H	1.030730	0.007070	0.573264
C134	C	1.099798	-0.668165	-0.074063
C135	C	1.095923	-0.617296	0.000099
H136	H	1.145826	-0.699369	-0.074064
H137	H	1.054532	-0.701490	-0.074061
H138	H	1.101675	-0.638130	-0.124362
H139	H	1.094039	-0.647332	0.050399
H140	H	1.141200	-0.583967	0.000105
H141	H	0.830503	-0.437322	0.000061
C142	C	0.775612	0.326899	0.259906
C143	C	0.822291	0.280239	0.200881
H144	H	0.742944	0.359550	0.229093
H145	H	0.743663	0.293928	0.295332
H146	H	0.808577	0.358873	0.295315
H147	H	0.789326	0.248261	0.165476
H148	H	0.854243	0.313214	0.165440
H149	H	1.018087	0.084591	0.213834
H150	H	0.689081	0.284126	0.000058
C151	C	0.763077	0.243764	0.777387
C152	C	0.840320	0.262270	0.799312
H153	H	0.727646	0.279161	0.808211
H154	H	0.758602	0.248235	0.716819
H155	H	0.750595	0.191347	0.792279
H156	H	0.852804	0.314685	0.784414
H157	H	0.844798	0.257806	0.859894
H158	H	1.037278	0.065473	0.786369
