data_functionalizedCrystal
_audit_creation_method	'MofGen! by Chris Wilmer'
_symmetry_space_group_name_H-M	'P1'
_symmetry_Int_Tables_number	1
_symmetry_cell_setting	triclinic
loop_
_symmetry_equiv_pos_as_xyz
  x,y,z
_cell_length_a	12.827893
_cell_length_b	16.625546
_cell_length_c	12.827885
_cell_angle_alpha	89.964876
_cell_angle_beta	89.980728
_cell_angle_gamma	90.022439
loop_
_atom_site_label
_atom_site_type_symbol
_atom_site_fract_x
_atom_site_fract_y
_atom_site_fract_z
Zn1	Zn	1.597618	-0.320963	-0.590810
Zn2	Zn	2.097618	0.179037	-0.090810
Zn3	Zn	1.597491	-0.455817	-0.416054
Zn4	Zn	2.097491	0.044183	0.083946
Zn5	Zn	1.422860	-0.321002	-0.416084
Zn6	Zn	1.922860	0.178998	0.083916
Zn7	Zn	1.422823	-0.455757	-0.590754
Zn8	Zn	1.922823	0.044243	-0.090754
O9	O	1.510198	-0.388385	-0.503425
O10	O	2.010198	0.111615	-0.003425
O11	O	1.743837	-0.338861	-0.567639
O12	O	2.243837	0.161139	-0.067639
O13	O	1.574287	-0.437976	-0.269822
O14	O	2.074287	0.062024	0.230178
O15	O	1.446110	-0.208165	-0.439297
O16	O	1.946110	0.291835	0.060703
O17	O	1.743744	-0.437937	-0.439247
O18	O	2.243744	0.062063	0.060753
O19	O	1.574505	-0.208136	-0.567668
O20	O	2.074505	0.291864	-0.067668
O21	O	1.445987	-0.338928	-0.269843
O22	O	1.945987	0.161072	0.230157
O23	O	1.276619	-0.338869	-0.439243
O24	O	1.776619	0.161131	0.060757
O25	O	1.446048	-0.437835	-0.736997
O26	O	1.946048	0.062165	-0.236997
O27	O	1.276592	-0.437873	-0.567572
O28	O	1.776592	0.062127	-0.067572
O29	O	1.574469	-0.338802	-0.737039
O30	O	2.074469	0.161198	-0.237039
O31	O	1.574252	-0.568642	-0.439192
O32	O	2.074252	-0.068642	0.060808
O33	O	1.445925	-0.568598	-0.567544
O34	O	1.945925	-0.068598	-0.067544
C35	C	1.238688	-0.388370	-0.503405
C36	C	1.738688	0.111630	-0.003405
C37	C	1.122535	-0.388382	-0.503422
C38	C	1.622535	0.111618	-0.003422
C39	C	1.510099	-0.597876	-0.503382
C40	C	2.010099	-0.097876	-0.003382
C41	C	1.510152	-0.687497	-0.503398
C42	C	2.010152	-0.187497	-0.003398
C43	C	1.070765	-0.437449	-0.566825
C44	C	1.570765	0.062551	-0.066825
C45	C	0.950714	-0.437464	-0.566844
C46	C	1.450714	0.062536	-0.066844
C47	C	1.510335	-1.015673	-0.503507
C48	C	2.010335	-0.515673	-0.003507
C49	C	1.510281	-0.924364	-0.503479
C50	C	2.010281	-0.424364	-0.003479
C51	C	1.510243	-0.851588	-0.503452
C52	C	2.010243	-0.351588	-0.003452
C53	C	1.510190	-0.760274	-0.503425
C54	C	2.010190	-0.260274	-0.003425
C55	C	1.782768	-0.388401	-0.503446
C56	C	2.282768	0.111599	-0.003446
C57	C	1.898921	-0.388408	-0.503455
C58	C	2.398921	0.111592	-0.003455
C59	C	1.510269	-0.388308	-0.775996
C60	C	2.010269	0.111692	-0.275996
C61	C	1.510299	-0.388275	-0.892149
C62	C	2.010299	0.111725	-0.392149
C63	C	1.510326	-0.178076	-0.503492
C64	C	2.010326	0.321924	-0.003492
C65	C	1.510380	-0.088455	-0.503521
C66	C	2.010380	0.411545	-0.003521
C67	C	1.573853	-0.339261	-0.943954
C68	C	2.073853	0.160739	-0.443954
C69	C	1.573886	-0.339225	-1.064004
C70	C	2.073886	0.160775	-0.564004
C71	C	1.510187	-0.388404	-0.231915
C72	C	2.010187	0.111596	0.268085
C73	C	1.510359	-0.388210	-0.115763
C74	C	2.010359	0.111790	0.384237
H75	H	1.115319	-0.479444	-0.621098
H76	H	1.615319	0.020556	-0.121098
N77	N	1.645970	-0.283642	-1.123005
N78	N	2.145970	0.216358	-0.623005
H79	H	1.635778	-0.291496	-1.200401
H80	H	2.135778	0.208504	-0.700401
H81	H	1.629753	-0.226047	-1.104000
H82	H	2.129753	0.273953	-0.604000
H83	H	0.906193	-0.479474	-0.621123
H84	H	1.406193	0.020526	-0.121123
H85	H	0.943436	-0.346401	-0.449166
H86	H	1.443436	0.153599	0.050834
N87	N	1.063531	-0.332755	-0.431524
N88	N	1.563531	0.167245	0.068476
H89	H	1.018272	-0.295464	-0.474120
H90	H	1.518272	0.204536	0.025880
H91	H	1.018276	-0.365581	-0.383087
H92	H	1.518276	0.134419	0.116913
N93	N	1.645923	-0.283725	-0.884990
N94	N	2.145923	0.216275	-0.384990
H95	H	1.635696	-0.291632	-0.807588
H96	H	2.135696	0.208368	-0.307588
H97	H	1.720561	-0.296284	-0.904030
H98	H	2.220561	0.203716	-0.404030
N99	N	1.438273	-0.443804	-1.056780
N100	N	1.938273	0.056196	-0.556780
H101	H	1.480742	-0.481157	-1.011485
H102	H	1.980742	0.018843	-0.511485
H103	H	1.389904	-0.410960	-1.011562
H104	H	1.889904	0.089040	-0.511562
N105	N	1.438259	-0.443824	-0.951127
N106	N	1.938259	0.056176	-0.451127
H107	H	1.454429	-0.501455	-0.932176
H108	H	1.954429	-0.001455	-0.432176
H109	H	1.363606	-0.431247	-0.932166
H110	H	1.863606	0.068753	-0.432166
