data_functionalizedCrystal
_audit_creation_method	'MofGen! by Chris Wilmer'
_symmetry_space_group_name_H-M	'P1'
_symmetry_Int_Tables_number	1
_symmetry_cell_setting	triclinic
loop_
_symmetry_equiv_pos_as_xyz
  x,y,z
_cell_length_a	17.699083
_cell_length_b	19.188930
_cell_length_c	16.176319
_cell_angle_alpha	89.988074
_cell_angle_beta	89.998611
_cell_angle_gamma	83.213899
loop_
_atom_site_label
_atom_site_type_symbol
_atom_site_fract_x
_atom_site_fract_y
_atom_site_fract_z
O1	O	1.003963	0.088294	-0.068640
O2	O	1.503963	0.588294	0.431360
O3	O	0.783569	0.099782	-0.068668
O4	O	1.283569	0.599782	0.431332
O5	O	0.900126	-0.007610	-0.068637
O6	O	1.400126	0.492390	0.431363
O7	O	0.887406	0.195687	-0.068671
O8	O	1.387406	0.695687	0.431329
O9	O	0.900110	-0.007617	0.068856
O10	O	1.400110	0.492383	0.568856
O11	O	0.783553	0.099775	0.068825
O12	O	1.283553	0.599775	0.568825
O13	O	1.003947	0.088288	0.068853
O14	O	1.503947	0.588288	0.568853
Cu15	Cu	0.893748	0.094031	0.081393
Cu16	Cu	1.393748	0.594031	0.581393
Cu17	Cu	0.893767	0.094039	-0.081208
Cu18	Cu	1.393767	0.594039	0.418792
O19	O	0.887390	0.195680	0.068822
O20	O	1.387390	0.695680	0.568822
C21	C	0.755365	0.099367	0.000075
C22	C	1.255365	0.599367	0.500075
C23	C	0.671348	0.098132	0.000065
C24	C	1.171348	0.598132	0.500065
C25	C	0.622644	0.161169	0.000055
C26	C	1.122644	0.661169	0.500055
C27	C	0.543702	0.160004	0.000065
C28	C	1.043702	0.660004	0.500065
C29	C	0.513466	0.095802	0.000081
C30	C	1.013466	0.595802	0.500081
C31	C	0.562176	0.032761	0.000093
C32	C	1.062176	0.532761	0.500093
C33	C	0.641117	0.033926	0.000088
C34	C	1.141117	0.533926	0.500088
C35	C	0.243819	0.028060	0.000115
C36	C	0.743819	0.528060	0.500115
C37	C	0.164873	0.026900	0.000117
C38	C	0.664873	0.526900	0.500117
C39	C	0.146405	0.154139	0.000092
C40	C	0.646405	0.654139	0.500092
C41	C	0.225345	0.155304	0.000087
C42	C	0.725345	0.655304	0.500087
C43	C	0.274049	0.092263	0.000104
C44	C	0.774049	0.592263	0.500104
C45	C	0.359646	0.093526	0.000094
C46	C	0.859646	0.593526	0.500094
C47	C	0.427870	0.094538	0.000085
C48	C	0.927870	0.594538	0.500085
C49	C	0.899706	-0.033625	0.000112
C50	C	1.399706	0.466375	0.500112
C51	C	0.898469	-0.111131	0.000119
C52	C	1.398469	0.388869	0.500119
C53	C	0.966861	-0.155978	0.000131
C54	C	1.466861	0.344022	0.500131
C55	C	0.965699	-0.228804	0.000118
C56	C	1.465699	0.271196	0.500118
C57	C	0.896142	-0.256778	0.000108
C58	C	1.396142	0.243222	0.500108
C59	C	0.827741	-0.211921	0.000091
C60	C	1.327741	0.288079	0.500091
C61	C	0.828905	-0.139098	0.000096
C62	C	1.328905	0.360902	0.500096
N63	N	0.842968	-0.364845	0.046893
N64	N	1.342968	0.135155	0.546893
N65	N	0.841868	-0.434025	0.046890
N66	N	1.341868	0.065975	0.546890
C67	C	0.892632	-0.476191	0.000091
C68	C	1.392632	0.023809	0.500091
N69	N	0.944550	-0.446565	-0.046694
N70	N	1.444550	0.053435	0.453306
N71	N	0.945653	-0.377379	-0.046687
N72	N	1.445653	0.122621	0.453313
C73	C	0.894873	-0.335742	0.000102
C74	C	1.394873	0.164258	0.500102
C75	C	0.959769	-0.600004	0.000088
C76	C	1.459769	-0.100004	0.500088
C77	C	0.958604	-0.672830	0.000070
C78	C	1.458604	-0.172830	0.500070
C79	C	0.820644	-0.655946	0.000051
C80	C	1.320644	-0.155946	0.500051
C81	C	0.821811	-0.583121	0.000061
C82	C	1.321811	-0.083121	0.500061
C83	C	0.891375	-0.555155	0.000084
C84	C	1.391375	-0.055155	0.500084
C85	C	1.032151	0.088703	0.000108
C86	C	1.532151	0.588703	0.500108
C87	C	1.116167	0.089938	0.000113
C88	C	1.616167	0.589938	0.500113
C89	C	0.887810	0.221695	0.000071
C90	C	1.387810	0.721695	0.500071
C91	C	0.889046	0.299201	0.000059
C92	C	1.389046	0.799201	0.500059
N93	N	0.893741	0.094025	0.195758
N94	N	1.393741	0.594025	0.695758
N95	N	0.893781	0.094039	-0.195574
N96	N	1.393781	0.594039	0.304426
C97	C	0.945367	0.046491	0.239036
C98	C	1.445367	0.546491	0.739036
C99	C	0.945371	0.046490	0.325584
C100	C	1.445371	0.546490	0.825584
C101	C	0.893751	0.094027	0.368851
C102	C	1.393751	0.594027	0.868851
C103	C	0.842119	0.141563	0.325567
C104	C	1.342119	0.641563	0.825567
C105	C	0.842112	0.141560	0.239022
C106	C	1.342112	0.641560	0.739022
C107	C	0.842145	0.141576	0.674595
C108	C	1.342145	0.641576	1.174595
C109	C	0.842157	0.141577	0.761147
C110	C	1.342157	0.641577	1.261147
C111	C	0.945404	0.046506	0.761157
C112	C	1.445404	0.546506	1.261157
C113	C	0.945397	0.046503	0.674612
C114	C	1.445397	0.546503	1.174612
C115	C	0.893763	0.094036	0.631335
C116	C	1.393763	0.594036	1.131335
C117	C	0.893758	0.094036	0.537491
C118	C	1.393758	0.594036	1.037491
C119	C	0.893759	0.094031	0.462694
C120	C	1.393759	0.594031	0.962694
H121	H	0.504050	0.211335	0.000056
H122	H	1.004050	0.711335	0.500056
O123	O	0.786486	0.192864	0.807810
O124	O	1.286486	0.692864	1.307810
H125	H	0.727511	0.184038	0.791224
H126	H	1.227511	0.684038	1.291224
O127	O	1.001054	-0.004776	0.372269
O128	O	1.501054	0.495224	0.872269
H129	H	1.037730	0.024580	0.411692
H130	H	1.537730	0.524580	0.911692
O131	O	1.041887	-0.125812	0.000132
O132	O	1.541887	0.374188	0.500132
H133	H	1.089250	-0.169237	0.000127
H134	H	1.589250	0.330763	0.500127
O135	O	0.529566	-0.036487	0.000118
O136	O	1.029566	0.463513	0.500118
H137	H	0.549150	-0.066774	-0.055912
H138	H	1.049150	0.433226	0.444088
O139	O	0.257960	0.224550	0.000082
O140	O	0.757960	0.724550	0.500082
H141	H	0.210830	0.268189	0.000089
H142	H	0.710830	0.768189	0.500089
O143	O	0.693647	-0.034067	0.000099
O144	O	1.193647	0.465933	0.500099
H145	H	0.730047	-0.036583	0.056144
H146	H	1.230047	0.463417	0.556144
O147	O	1.039469	-0.277185	0.000147
O148	O	1.539469	0.222815	0.500147
H149	H	1.042258	-0.310757	-0.055894
H150	H	1.542258	0.189243	0.444106
O151	O	0.786463	0.192848	0.627922
O152	O	1.286463	0.692848	1.127922
H153	H	0.750579	0.225908	0.672552
H154	H	1.250579	0.725908	1.172552
O155	O	0.093872	0.222136	0.000092
O156	O	0.593872	0.722136	0.500092
H157	H	0.057454	0.224651	-0.055939
H158	H	0.557454	0.724651	0.444061
O159	O	0.132263	-0.042353	0.000141
O160	O	0.632263	0.457647	0.500141
H161	H	0.069189	-0.032569	0.000133
H162	H	0.569189	0.467431	0.500133
H163	H	0.283465	-0.023272	0.000129
H164	H	0.783465	0.476728	0.500129
H165	H	0.800085	0.180266	0.360800
H166	H	1.300085	0.680266	0.860800
O167	O	0.752716	-0.242087	0.000090
O168	O	1.252716	0.257913	0.500090
H169	H	0.763396	-0.300261	0.000100
H170	H	1.263396	0.199739	0.500100
H171	H	0.773210	-0.102582	0.000086
H172	H	1.273210	0.397418	0.500086
H173	H	0.800071	0.180266	0.203785
H174	H	1.300071	0.680266	0.703785
H175	H	1.016412	-0.577233	0.000103
H176	H	1.516412	-0.077233	0.500103
O177	O	1.032373	-0.721207	0.000090
O178	O	1.532373	-0.221207	0.500090
H179	H	1.080937	-0.689522	0.000117
H180	H	1.580937	-0.189522	0.500117
H181	H	0.647256	0.213450	0.000042
H182	H	1.147256	0.713450	0.500042
H183	H	0.764009	-0.678722	0.000039
H184	H	1.264009	-0.178722	0.500039
H185	H	0.987446	0.007800	0.796402
H186	H	1.487446	0.507800	1.296402
O187	O	0.748042	-0.534747	0.000069
O188	O	1.248042	-0.034747	0.500069
H189	H	0.714742	-0.544667	-0.055971
H190	H	1.214742	-0.044667	0.444029
O191	O	1.001041	-0.004784	0.192370
O192	O	1.501041	0.495216	0.692370
H193	H	1.036934	-0.037843	0.237008
H194	H	1.536934	0.462157	0.737008
O195	O	1.001068	-0.004772	0.627942
O196	O	1.501068	0.495228	1.127942
H197	H	1.036963	-0.037832	0.672577
H198	H	1.536963	0.462168	1.172577
