data_functionalizedCrystal
_audit_creation_method	'MofGen! by Chris Wilmer'
_symmetry_space_group_name_H-M	'P1'
_symmetry_Int_Tables_number	1
_symmetry_cell_setting	triclinic
loop_
_symmetry_equiv_pos_as_xyz
  x,y,z
_cell_length_a	14.971486
_cell_length_b	19.188924
_cell_length_c	13.448316
_cell_angle_alpha	89.991325
_cell_angle_beta	89.998199
_cell_angle_gamma	83.378047
loop_
_atom_site_label
_atom_site_type_symbol
_atom_site_fract_x
_atom_site_fract_y
_atom_site_fract_z
O1	O	1.186464	0.090988	-0.082582
O2	O	1.686464	0.590988	0.417418
O3	O	0.926006	0.101884	-0.082610
O4	O	1.426006	0.601884	0.417390
O5	O	1.063754	-0.005195	-0.082583
O6	O	1.563754	0.494805	0.417417
O7	O	1.048715	0.198068	-0.082609
O8	O	1.548715	0.698068	0.417391
O9	O	1.063737	-0.005202	0.082800
O10	O	1.563737	0.494798	0.582800
O11	O	0.925989	0.101878	0.082774
O12	O	1.425989	0.601878	0.582774
O13	O	1.186447	0.090982	0.082802
O14	O	1.686447	0.590982	0.582802
Cu15	Cu	1.056216	0.096429	0.097889
Cu16	Cu	1.556216	0.596429	0.597889
Cu17	Cu	1.056236	0.096437	-0.097697
Cu18	Cu	1.556236	0.596437	0.402303
O19	O	1.048698	0.198061	0.082775
O20	O	1.548698	0.698061	0.582775
C21	C	0.892675	0.101394	0.000079
C22	C	1.392675	0.601394	0.500079
C23	C	0.793386	0.099933	0.000069
C24	C	1.293386	0.599933	0.500069
C25	C	0.735826	0.162840	0.000062
C26	C	1.235826	0.662840	0.500062
C27	C	0.642534	0.161464	0.000077
C28	C	1.142534	0.661464	0.500077
C29	C	0.606803	0.097180	0.000091
C30	C	1.106803	0.597180	0.500091
C31	C	0.664370	0.034269	0.000101
C32	C	1.164370	0.534269	0.500101
C33	C	0.757661	0.035646	0.000093
C34	C	1.257661	0.535646	0.500093
C35	C	0.469923	0.031403	0.000115
C36	C	0.969923	0.531403	0.500115
C37	C	0.376626	0.030026	0.000121
C38	C	0.876626	0.530026	0.500121
C39	C	0.354796	0.157221	0.000099
C40	C	0.854796	0.657221	0.500099
C41	C	0.448087	0.158598	0.000091
C42	C	0.948087	0.658598	0.500091
C43	C	0.505647	0.095686	0.000099
C44	C	1.005647	0.595686	0.500099
C45	C	1.063260	-0.031211	0.000109
C46	C	1.563260	0.468789	0.500109
C47	C	1.061801	-0.108721	0.000112
C48	C	1.561801	0.391279	0.500112
C49	C	1.061129	-0.145118	-0.090039
C50	C	1.561129	0.354882	0.409961
C51	C	1.059746	-0.217946	-0.090047
C52	C	1.559746	0.282054	0.409953
C53	C	1.059052	-0.254374	0.000101
C54	C	1.559052	0.245626	0.500101
C55	C	1.059719	-0.217967	0.090264
C56	C	1.559719	0.282033	0.590264
C57	C	1.061093	-0.145141	0.090270
C58	C	1.561093	0.354859	0.590270
N59	N	1.107787	-0.373883	0.067202
N60	N	1.607787	0.126117	0.567202
N61	N	1.106483	-0.443066	0.067191
N62	N	1.606483	0.056934	0.567191
C63	C	1.054909	-0.473797	0.000091
C64	C	1.554909	0.026203	0.500091
N65	N	1.004699	-0.432733	-0.067012
N66	N	1.504699	0.067267	0.432988
N67	N	1.006006	-0.363544	-0.067004
N68	N	1.506006	0.136456	0.432996
C69	C	1.057561	-0.333343	0.000106
C70	C	1.557561	0.166657	0.500106
C71	C	1.052736	-0.589162	-0.090074
C72	C	1.552736	-0.089162	0.409926
C73	C	1.051347	-0.661990	-0.090078
C74	C	1.551347	-0.161990	0.409922
C75	C	1.051329	-0.662011	0.090236
C76	C	1.551329	-0.162011	0.590236
C77	C	1.052709	-0.589184	0.090237
C78	C	1.552709	-0.089184	0.590237
C79	C	1.053417	-0.552764	0.000079
C80	C	1.553417	-0.052764	0.500079
C81	C	1.219777	0.091472	0.000111
C82	C	1.719777	0.591472	0.500111
C83	C	1.319067	0.092933	0.000115
C84	C	1.819067	0.592933	0.500115
C85	C	1.049193	0.224077	0.000080
C86	C	1.549193	0.724077	0.500080
C87	C	1.050652	0.301587	0.000071
C88	C	1.550652	0.801587	0.500071
N89	N	1.056208	0.096423	0.235453
N90	N	1.556208	0.596423	0.735453
N91	N	1.056251	0.096437	-0.235261
N92	N	1.556251	0.596437	0.264739
C93	C	1.117222	0.049028	0.287505
C94	C	1.617222	0.549028	0.787505
C95	C	1.117228	0.049027	0.391608
C96	C	1.617228	0.549027	0.891608
C97	C	1.056223	0.096426	0.443658
C98	C	1.556223	0.596426	0.943658
C99	C	0.995203	0.143824	0.391598
C100	C	1.495203	0.643824	0.891598
C101	C	0.995194	0.143820	0.287497
C102	C	1.495194	0.643820	0.787497
C103	C	0.995228	0.143828	0.608578
C104	C	1.495228	0.643828	1.108578
C105	C	0.995238	0.143833	0.712687
C106	C	1.495238	0.643833	1.212687
C107	C	1.117262	0.049035	0.712690
C108	C	1.617262	0.549035	1.212690
C109	C	1.117252	0.049032	0.608588
C110	C	1.617252	0.549032	1.108588
C111	C	1.056233	0.096431	0.556536
C112	C	1.556233	0.596431	1.056536
H113	H	0.804526	-0.015579	0.000097
H114	H	1.304526	0.484421	0.500097
H115	H	1.053307	-0.559506	-0.163486
H116	H	1.553307	-0.059506	0.336514
H117	H	1.166909	0.010434	0.433989
H118	H	1.666909	0.510434	0.933989
C119	C	1.184361	-0.003109	0.551336
C120	C	1.684361	0.496891	1.051336
N121	N	1.234905	-0.042384	0.508214
N122	N	1.734905	0.457616	1.008214
H123	H	1.059194	-0.247586	-0.163461
H124	H	1.559194	0.252414	0.336539
H125	H	1.061703	-0.115470	-0.163453
H126	H	1.561703	0.384530	0.336547
H127	H	1.059151	-0.247632	0.163664
H128	H	1.559151	0.252368	0.663664
C129	C	1.184380	-0.003107	0.769949
C130	C	1.684380	0.496893	1.269949
N131	N	1.234934	-0.042377	0.813081
N132	N	1.734934	0.457623	1.313081
H133	H	1.061636	-0.115506	0.163684
H134	H	1.561636	0.384494	0.663684
C135	C	1.050653	-0.702031	-0.189257
C136	C	1.550653	-0.202031	0.310743
N137	N	1.050149	-0.732193	-0.263960
N138	N	1.550149	-0.232193	0.236040
C139	C	0.579222	0.230666	0.000088
C140	C	1.079222	0.730666	0.500088
N141	N	0.531535	0.282792	0.000103
N142	N	1.031535	0.782792	0.500103
C143	C	0.928124	0.195970	0.769939
C144	C	1.428124	0.695970	1.269939
N145	N	0.877572	0.235239	0.813061
N146	N	1.377572	0.735239	1.313061
C147	C	0.337325	-0.040689	0.000138
C148	C	0.837325	0.459311	0.500138
N149	N	0.307723	-0.093952	0.000151
N150	N	0.807723	0.406048	0.500151
H151	H	0.945527	0.182414	0.433983
H152	H	1.445527	0.682414	0.933983
H153	H	0.945536	0.182423	0.566201
H154	H	1.445536	0.682423	1.066201
C155	C	1.050565	-0.702078	0.189401
C156	C	1.550565	-0.202078	0.689401
N157	N	1.049989	-0.732261	0.264095
N158	N	1.549989	-0.232261	0.764095
C159	C	0.928081	0.195964	0.230240
C160	C	1.428081	0.695964	0.730240
N161	N	0.877530	0.235242	0.187116
N162	N	1.377530	0.735242	0.687116
H163	H	0.516787	-0.019826	0.000122
H164	H	1.016787	0.480174	0.500122
H165	H	1.053263	-0.559549	0.163648
H166	H	1.553263	-0.059549	0.663648
H167	H	1.166903	0.010433	0.245133
H168	H	1.666903	0.510433	0.745133
C169	C	0.775120	0.233558	0.000048
C170	C	1.275120	0.733558	0.500048
N171	N	0.804714	0.286825	0.000042
N172	N	1.304714	0.786825	0.500042
C173	C	0.291478	0.226425	0.000096
C174	C	0.791478	0.726425	0.500096
N175	N	0.243783	0.278547	0.000091
N176	N	0.743783	0.778547	0.500091
H177	H	0.477175	0.210943	0.000070
H178	H	0.977175	0.710943	0.500070
C179	C	0.625063	-0.036444	0.000118
C180	C	1.125063	0.463556	0.500118
N181	N	0.595458	-0.089706	0.000128
N182	N	1.095458	0.410294	0.500128
