data_functionalizedCrystal
_audit_creation_method	'MofGen! by Chris Wilmer'
_symmetry_space_group_name_H-M	'P1'
_symmetry_Int_Tables_number	1
_symmetry_cell_setting	triclinic
loop_
_symmetry_equiv_pos_as_xyz
  x,y,z
_cell_length_a	10.654553
_cell_length_b	8.559649
_cell_length_c	7.088929
_cell_angle_alpha	95.324505
_cell_angle_beta	96.280907
_cell_angle_gamma	102.866419
loop_
_atom_site_label
_atom_site_type_symbol
_atom_site_fract_x
_atom_site_fract_y
_atom_site_fract_z
O1	O	0.028082	2.103413	-0.158982
O2	O	-0.036704	1.638930	-0.158982
O3	O	0.179530	1.881844	-0.158986
O4	O	-0.188152	1.860500	-0.158978
O5	O	0.208485	1.914306	0.158989
O6	O	-0.007748	1.671392	0.158993
O7	O	0.057038	2.135876	0.158993
Cu8	Cu	0.027288	1.906598	0.188026
Cu9	Cu	-0.006955	1.868208	-0.188016
O10	O	-0.159196	1.892962	0.158996
C11	C	-0.027136	1.595686	0.000005
C12	C	-0.041750	1.418468	0.000004
C13	C	-0.220310	1.878301	0.000010
C14	C	-0.359267	1.882999	0.000012
C15	C	-0.327717	1.918411	0.346678
C16	C	-0.377223	1.938328	0.520005
C17	C	-0.507786	1.942740	0.519997
C18	C	-0.588849	1.927227	0.346643
C19	C	-0.539344	1.907310	0.173316
C20	C	-0.408775	1.902905	0.173343
C21	C	-0.570895	1.871888	-0.173345
C22	C	-0.440330	1.867487	-0.173341
C23	C	-0.651959	1.856376	-0.346699
C24	C	-0.602451	1.836470	-0.520030
C25	C	-0.471879	1.832060	-0.520015
C26	C	-0.390824	1.847570	-0.346668
C27	C	0.240643	1.896504	-0.000003
C28	C	0.379599	1.891805	-0.000018
C29	C	0.047469	2.179119	0.000001
C30	C	0.062082	2.356336	-0.000011
N31	N	0.051375	1.933612	0.452514
N32	N	-0.031031	1.841207	-0.452503
H33	H	-0.141829	1.336083	-0.000012
H34	H	0.136771	2.029396	0.534168
H35	H	0.162166	1.438728	-0.000013
H36	H	-0.221400	1.914838	0.346702
H37	H	-0.311208	1.950953	0.661146
Cl38	Cl	-0.570026	1.967773	0.737895
H39	H	-0.116428	1.745440	0.465852
H40	H	-0.695163	1.930802	0.346652
H41	H	-0.758271	1.859961	-0.346693
Cl42	Cl	-0.704359	1.816986	-0.737935
H43	H	-0.284509	1.843989	-0.346639
Cl44	Cl	-0.409658	1.807007	-0.737925
