data_functionalizedCrystal
_audit_creation_method	'MofGen! by Chris Wilmer'
_symmetry_space_group_name_H-M	'P1'
_symmetry_Int_Tables_number	1
_symmetry_cell_setting	triclinic
loop_
_symmetry_equiv_pos_as_xyz
  x,y,z
_cell_length_a	14.044220
_cell_length_b	14.044220
_cell_length_c	12.503572
_cell_angle_alpha	93.843168
_cell_angle_beta	86.164750
_cell_angle_gamma	93.188878
loop_
_atom_site_label
_atom_site_type_symbol
_atom_site_fract_x
_atom_site_fract_y
_atom_site_fract_z
O1	O	1.282200	0.225116	-0.089210
O2	O	1.005530	0.216809	-0.089237
O3	O	1.139712	0.082627	-0.089213
O4	O	1.148019	0.359298	-0.089234
O5	O	1.129622	0.092737	0.089427
O6	O	0.995440	0.226918	0.089403
O7	O	1.272110	0.235226	0.089430
Cu8	Cu	1.132854	0.231995	0.105728
Cu9	Cu	1.144786	0.220040	-0.105535
O10	O	1.137929	0.369407	0.089406
C11	C	0.964864	0.218228	0.000080
C12	C	0.858721	0.207383	0.000070
C13	C	0.664382	0.187558	0.000092
C14	C	0.613253	0.264472	0.000091
C15	C	0.505116	0.253441	0.000104
C16	C	0.772529	0.198587	0.000080
C17	C	1.131031	0.052060	0.000107
C18	C	1.120187	-0.054082	0.000107
C19	C	1.100361	-0.248421	0.000090
C20	C	1.177275	-0.299551	0.000094
C21	C	1.166244	-0.407687	0.000084
C22	C	1.111391	-0.140274	0.000099
C23	C	1.312777	0.233807	0.000111
C24	C	1.418920	0.244651	0.000114
C25	C	1.146609	0.399974	0.000084
C26	C	1.157454	0.506117	0.000077
N27	N	1.124469	0.240404	0.254319
N28	N	1.153179	0.211624	-0.254126
C29	C	1.112134	0.252782	0.473432
C30	C	1.165511	0.199249	0.526768
C31	C	1.158648	0.206136	0.648690
C32	C	1.118996	0.245896	0.351499
H33	H	0.626945	0.113431	0.000104
C34	C	1.269056	-0.150119	0.000133
C35	C	1.277354	-0.249015	0.000120
H36	H	1.330838	-0.118919	0.000158
H37	H	1.238887	-0.135697	-0.062165
H38	H	1.231827	-0.128669	0.062427
H39	H	1.314578	-0.270466	-0.062178
H40	H	1.307537	-0.263444	0.062425
C41	C	0.642471	0.409002	-0.091779
C42	C	0.663778	0.364556	0.000061
H43	H	0.673660	0.470790	-0.091796
H44	H	0.663929	0.371769	-0.154056
H45	H	0.575374	0.414604	-0.091757
H46	H	0.730875	0.358947	0.000035
H47	H	0.642325	0.401798	0.062354
C48	C	1.008595	-0.397850	0.000090
C49	C	1.000288	-0.298955	0.000089
H50	H	0.946813	-0.429053	0.000100
H51	H	1.045802	-0.419305	-0.062205
H52	H	1.038789	-0.412260	0.062387
H53	H	0.970100	-0.284544	-0.062212
H54	H	0.963066	-0.277492	0.062390
C55	C	1.227440	0.136488	0.354271
C56	C	1.233939	0.130172	0.464809
H57	H	1.269622	0.093782	0.316019
H58	H	1.163777	0.119991	0.336044
H59	H	1.244532	0.199972	0.335782
H60	H	1.216841	0.066688	0.483299
H61	H	1.297616	0.146662	0.483042
H62	H	1.061285	0.303783	0.519330
