data_functionalizedCrystal
_audit_creation_method	'MofGen! by Chris Wilmer'
_symmetry_space_group_name_H-M	'P1'
_symmetry_Int_Tables_number	1
_symmetry_cell_setting	triclinic
loop_
_symmetry_equiv_pos_as_xyz
  x,y,z
_cell_length_a	14.560432
_cell_length_b	14.560438
_cell_length_c	14.560438
_cell_angle_alpha	90.000443
_cell_angle_beta	60.000086
_cell_angle_gamma	60.000826
loop_
_atom_site_label
_atom_site_type_symbol
_atom_site_fract_x
_atom_site_fract_y
_atom_site_fract_z
Zr1	Zr	1.005292	-0.120509	0.884748
O2	O	1.196893	-0.267152	0.738100
O3	O	0.813691	-0.075558	0.929705
O4	O	1.005295	-0.267158	0.929701
O5	O	1.005286	0.075589	0.738105
O6	O	1.005298	-0.267159	1.080839
O7	O	1.005289	-0.075552	0.738103
O8	O	0.662553	0.075578	1.080846
O9	O	1.348031	-0.267149	0.738099
O10	O	0.892501	-0.056384	1.061670
O11	O	0.892497	0.056411	0.948879
O12	O	1.118087	-0.169173	0.948875
O13	O	1.118083	-0.056377	0.836084
Zr14	Zr	1.005292	0.120542	1.125800
Zr15	Zr	1.005296	-0.120511	1.125797
Zr16	Zr	1.005288	0.120543	0.884752
Zr17	Zr	1.246340	-0.120503	0.884748
Zr18	Zr	0.764244	0.120536	1.125801
O19	O	1.196892	0.075591	1.080844
O20	O	1.196899	-0.267155	1.080839
O21	O	1.196887	0.075593	0.738105
O22	O	0.813691	0.267185	1.272449
O23	O	0.813697	-0.075561	1.272444
O24	O	0.813685	0.267187	0.929710
O25	O	1.005298	-0.075556	1.272443
O26	O	1.005288	0.267191	1.080848
O27	O	1.005286	0.267192	0.929709
O28	O	1.005295	0.075585	1.272446
O29	O	1.348034	-0.267150	0.929700
O30	O	0.662550	0.267183	1.080849
O31	O	0.662553	0.267181	1.272450
O32	O	0.662556	0.075577	1.272447
O33	O	1.348027	-0.075544	0.738102
O34	O	1.348031	-0.075546	0.929703
O35	O	0.892497	0.169205	1.061674
O36	O	0.892501	0.056410	1.174465
O37	O	1.118086	-0.056379	1.061670
O38	O	1.118082	0.056417	0.948879
C39	C	0.703778	0.000009	1.005275
C40	C	0.601447	0.000007	1.005275
C41	C	0.601445	-0.117764	1.123019
C42	C	0.553372	-0.176651	1.181886
C43	C	0.457223	-0.176649	1.181883
C44	C	0.409141	-0.117750	1.123009
C45	C	0.457214	-0.058863	1.064143
C46	C	0.553368	-0.058875	1.064150
C47	C	0.457209	0.058913	0.946407
C48	C	0.553365	0.058905	0.946402
C49	C	0.409127	0.117811	0.887534
C50	C	0.457206	0.176693	0.828659
C51	C	0.553362	0.176687	0.828664
C52	C	0.601437	0.117792	0.887536
C53	C	1.005287	0.000019	0.703760
C54	C	1.005285	0.000019	0.601429
C55	C	1.005297	-0.301503	1.005270
C56	C	1.005299	-0.403836	1.005268
C57	C	1.306806	0.000023	1.005274
C58	C	1.409137	0.000026	1.005273
C59	C	1.123043	-0.606941	0.946400
C60	C	1.123051	-0.510794	0.946390
C61	C	0.887532	-0.393028	1.064151
C62	C	0.887525	-0.489175	1.064154
C63	C	1.005286	0.301536	1.005279
C64	C	1.005285	0.403869	1.005281
C65	C	0.887534	0.058890	0.612228
C66	C	0.887540	0.058890	0.516073
C67	C	1.123059	-0.058859	0.398323
C68	C	1.123051	-0.058852	0.494477
C69	C	1.005297	0.000014	1.306789
C70	C	1.005299	0.000013	1.409120
C71	C	0.703783	0.000007	1.306789
C72	C	0.601454	0.000004	1.409121
C73	C	0.703773	0.301529	1.005280
C74	C	0.601440	0.403859	1.005282
C75	C	0.703778	0.301527	1.306794
C76	C	0.601446	0.403856	1.409127
C77	C	1.306806	-0.301494	0.703755
C78	C	1.409137	-0.403824	0.601421
C79	C	1.306801	0.000026	0.703759
C80	C	1.409130	0.000029	0.601428
C81	C	1.306811	-0.301496	1.005269
C82	C	1.409144	-0.403827	1.005267
C83	C	0.553377	-0.058872	1.398322
C84	C	0.457235	-0.058879	1.494477
C85	C	0.457253	0.058875	1.612227
C86	C	0.553399	0.058875	1.516073
C87	C	0.553361	0.510812	1.064159
C88	C	0.457218	0.606958	1.064148
C89	C	0.457235	0.489187	0.946381
C90	C	0.553384	0.393042	0.946386
C91	C	0.553371	0.393056	1.516079
C92	C	0.457228	0.489210	1.612228
C93	C	0.457241	0.606961	1.494459
C94	C	0.553389	0.510808	1.398313
H95	H	0.418078	-0.224594	1.229821
Cl96	Cl	0.613793	-0.132889	1.263871
H97	H	0.418089	0.480408	1.699311
H98	H	0.791627	-0.480364	1.112102
H99	H	0.679733	0.117776	0.887540
H100	H	0.791655	0.106830	0.524876
Cl101	Cl	0.396784	0.741413	1.138165
Cl102	Cl	1.271094	-0.132860	0.480899
Cl103	Cl	1.271099	-0.132868	0.263866
H104	H	0.592499	0.305975	1.524890
Cl105	Cl	0.396812	0.475599	0.872348
H106	H	0.592547	0.106819	1.524875
H107	H	0.418097	-0.106824	1.485674
H108	H	0.592533	0.305951	0.898435
Cl109	Cl	0.396816	0.741417	1.480875
H110	H	0.418113	0.106808	1.699317
H111	H	0.592490	0.519626	1.112111
H112	H	0.679747	-0.117784	1.123016
Cl113	Cl	0.613821	-0.250690	1.255894
H114	H	1.218930	-0.694026	0.898459
Cl115	Cl	0.613838	0.524388	1.263848
H116	H	0.330831	0.117815	0.887542
Cl117	Cl	0.396742	0.250742	0.754671
Cl118	Cl	0.613781	0.250728	0.754662
Cl119	Cl	1.271097	-0.524391	0.872351
Cl120	Cl	0.288249	-0.117730	1.123023
H121	H	0.791657	-0.305935	1.112085
Cl122	Cl	0.739486	0.132904	0.746679
