data_functionalizedCrystal
_audit_creation_method	'MofGen! by Chris Wilmer'
_symmetry_space_group_name_H-M	'P1'
_symmetry_Int_Tables_number	1
_symmetry_cell_setting	triclinic
loop_
_symmetry_equiv_pos_as_xyz
  x,y,z
_cell_length_a	17.038275
_cell_length_b	17.666332
_cell_length_c	17.038272
_cell_angle_alpha	90.006380
_cell_angle_beta	88.889085
_cell_angle_gamma	89.990175
loop_
_atom_site_label
_atom_site_type_symbol
_atom_site_fract_x
_atom_site_fract_y
_atom_site_fract_z
O1	O	-1.048760	0.062965	0.170527
O2	O	-0.715426	0.396298	0.503860
O3	O	-0.382093	0.729631	0.837193
O4	O	-0.820948	0.062963	0.167821
O5	O	-0.487615	0.396296	0.501155
O6	O	-0.154281	0.729630	0.834488
O7	O	-0.933500	0.062958	0.055268
O8	O	-0.600167	0.396291	0.388602
O9	O	-0.266833	0.729625	0.721935
O10	O	-0.936208	0.062970	0.283080
O11	O	-0.602874	0.396303	0.616413
O12	O	-0.269541	0.729637	0.949747
O13	O	-0.933478	-0.062939	0.055260
O14	O	-0.600145	0.270394	0.388594
O15	O	-0.266812	0.603728	0.721927
O16	O	-0.820927	-0.062934	0.167814
O17	O	-0.487593	0.270400	0.501147
O18	O	-0.154260	0.603733	0.834480
O19	O	-1.048738	-0.062932	0.170519
O20	O	-0.715405	0.270401	0.503852
O21	O	-0.382071	0.603735	0.837186
Cu22	Cu	-0.934830	-0.074428	0.169166
Cu23	Cu	-0.601497	0.258905	0.502499
Cu24	Cu	-0.268164	0.592238	0.835832
Cu25	Cu	-0.934856	0.074459	0.169175
Cu26	Cu	-0.601522	0.407793	0.502508
Cu27	Cu	-0.268189	0.741126	0.835841
O28	O	-0.936186	-0.062927	0.283072
O29	O	-0.602853	0.270406	0.616405
O30	O	-0.269520	0.603740	0.949739
C31	C	-0.791645	0.000014	0.165355
C32	C	-0.458311	0.333348	0.498688
C33	C	-0.124978	0.666681	0.832022
C34	C	-0.704361	0.000014	0.158008
C35	C	-0.371028	0.333347	0.491341
C36	C	-0.037694	0.666680	0.824674
N37	N	-0.934818	-0.179148	0.169159
N38	N	-0.601485	0.154186	0.502492
N39	N	-0.268151	0.487519	0.835826
C40	C	-0.210935	0.000010	0.112871
C41	C	0.122398	0.333343	0.446204
C42	C	0.455731	0.666676	0.779538
C43	C	-0.292947	0.000006	0.119781
C44	C	0.040386	0.333340	0.453114
C45	C	0.373720	0.666673	0.786447
C46	C	-0.329347	0.000014	0.194154
C47	C	0.003986	0.333347	0.527487
C48	C	0.337320	0.666681	0.860821
C49	C	-0.283730	0.000017	0.261622
C50	C	0.049603	0.333351	0.594956
C51	C	0.382936	0.666684	0.928289
C52	C	-0.201720	0.000015	0.254712
C53	C	0.131613	0.333349	0.588046
C54	C	0.464946	0.666682	0.921379
C55	C	-0.576734	0.000015	0.218566
C56	C	-0.243401	0.333348	0.551899
C57	C	0.089932	0.666682	0.885233
C58	C	-0.658751	0.000019	0.225471
C59	C	-0.325417	0.333353	0.558805
C60	C	0.007916	0.666686	0.892138
C61	C	-0.667962	0.000007	0.083629
C62	C	-0.334628	0.333340	0.416962
C63	C	-0.001295	0.666673	0.750295
C64	C	-0.585949	0.000009	0.076725
C65	C	-0.252616	0.333343	0.410058
C66	C	0.080717	0.666676	0.743392
C67	C	-0.540340	0.000009	0.144193
C68	C	-0.207007	0.333342	0.477527
C69	C	0.126326	0.666676	0.810860
C70	C	-0.413176	0.000013	0.201218
C71	C	-0.079843	0.333346	0.534552
C72	C	0.253491	0.666679	0.867885
C73	C	-0.456513	0.000005	0.137128
C74	C	-0.123179	0.333338	0.470462
C75	C	0.210154	0.666671	0.803795
C76	C	-0.984675	-0.218760	0.119348
C77	C	-0.651342	0.114574	0.452681
C78	C	-0.318008	0.447907	0.786014
C79	C	-0.984679	-0.298007	0.119344
C80	C	-0.651346	0.035326	0.452678
C81	C	-0.318013	0.368659	0.786011
C82	C	-0.934835	-0.337640	0.169166
C83	C	-0.601502	-0.004307	0.502499
C84	C	-0.268168	0.329027	0.835833
C85	C	-0.884968	-0.298018	0.218981
C86	C	-0.551635	0.035315	0.552314
C87	C	-0.218302	0.368648	0.885647
C88	C	-0.884960	-0.218772	0.218977
C89	C	-0.551626	0.114561	0.552310
C90	C	-0.218293	0.447894	0.885644
N91	N	-0.929461	-0.462055	0.237990
N92	N	-0.596127	-0.128722	0.571324
N93	N	-0.262794	0.204612	0.904657
N94	N	-0.929473	-0.537335	0.237992
N95	N	-0.596140	-0.204002	0.571325
N96	N	-0.262807	0.129331	0.904658
C97	C	-0.934857	-0.576404	0.169178
C98	C	-0.601523	-0.243071	0.502512
C99	C	-0.268190	0.090263	0.835845
N100	N	-0.940242	-0.537348	0.100363
N101	N	-0.606909	-0.204015	0.433696
N102	N	-0.273575	0.129319	0.767029
N103	N	-0.940233	-0.462061	0.100362
N104	N	-0.606900	-0.128727	0.433696
N105	N	-0.273567	0.204606	0.767029
C106	C	-0.934838	-0.423569	0.169175
C107	C	-0.601505	-0.090236	0.502508
C108	C	-0.268172	0.243098	0.835842
C109	C	-0.984721	-0.701945	0.119359
C110	C	-0.651387	-0.368612	0.452693
C111	C	-0.318054	-0.035278	0.786026
C112	C	-0.984720	-0.781194	0.119354
C113	C	-0.651386	-0.447861	0.452688
C114	C	-0.318053	-0.114528	0.786021
C115	C	-0.885013	-0.781204	0.218998
C116	C	-0.551679	-0.447870	0.552331
C117	C	-0.218346	-0.114537	0.885664
C118	C	-0.885010	-0.701956	0.218996
C119	C	-0.551676	-0.368623	0.552329
C120	C	-0.218343	-0.035289	0.885662
C121	C	-0.934868	-0.662332	0.169177
C122	C	-0.601535	-0.328998	0.502511
C123	C	-0.268201	0.004335	0.835844
C124	C	-0.078041	0.000016	0.172986
C125	C	0.255292	0.333350	0.506319
C126	C	0.588625	0.666683	0.839653
C127	C	-0.165325	0.000016	0.180334
C128	C	0.168008	0.333349	0.513668
C129	C	0.501342	0.666682	0.847001
C130	C	-0.931026	0.000010	0.025972
C131	C	-0.597693	0.333343	0.359305
C132	C	-0.264360	0.666676	0.692638
C133	C	-0.923678	0.000010	-0.061312
C134	C	-0.590345	0.333343	0.272022
C135	C	-0.257011	0.666676	0.605355
N136	N	-0.934874	0.179179	0.169176
N137	N	-0.601541	0.512512	0.502509
N138	N	-0.268207	0.845845	0.835842
C139	C	-0.991142	0.000009	-0.106922
C140	C	-0.657808	0.333343	0.226412
C141	C	-0.324475	0.666676	0.559745
C142	C	-0.984233	0.000017	-0.188934
C143	C	-0.650900	0.333350	0.144400
C144	C	-0.317566	0.666683	0.477733
C145	C	-0.909860	0.000019	-0.225334
C146	C	-0.576526	0.333352	0.107999
C147	C	-0.243193	0.666685	0.441333
C148	C	-0.842391	0.000021	-0.179718
C149	C	-0.509058	0.333354	0.153616
C150	C	-0.175724	0.666688	0.486949
C151	C	-0.849301	0.000019	-0.097708
C152	C	-0.515967	0.333353	0.235626
C153	C	-0.182634	0.666686	0.568959
C154	C	-0.885449	0.000029	-0.472722
C155	C	-0.552116	0.333362	-0.139388
C156	C	-0.218782	0.666695	0.193945
C157	C	-0.878544	0.000028	-0.554738
C158	C	-0.545211	0.333362	-0.221405
C159	C	-0.211878	0.666695	0.111929
C160	C	-1.020387	0.000025	-0.563948
C161	C	-0.687054	0.333358	-0.230615
C162	C	-0.353720	0.666692	0.102719
C163	C	-1.027290	0.000019	-0.481936
C164	C	-0.693957	0.333352	-0.148602
C165	C	-0.360624	0.666685	0.184731
C166	C	-0.959821	0.000025	-0.436327
C167	C	-0.626488	0.333359	-0.102994
C168	C	-0.293155	0.666692	0.230340
C169	C	-0.902796	0.000023	-0.309163
C170	C	-0.569462	0.333357	0.024170
C171	C	-0.236129	0.666690	0.357504
C172	C	-0.966886	0.000026	-0.352499
C173	C	-0.633553	0.333359	-0.019166
C174	C	-0.300219	0.666693	0.314167
C175	C	-0.938660	0.000023	0.312369
C176	C	-0.605327	0.333356	0.645702
C177	C	-0.271993	0.666690	0.979035
C178	C	-0.946008	0.000028	0.399652
C179	C	-0.612675	0.333361	0.732985
C180	C	-0.279341	0.666695	1.066319
H181	H	-0.181305	0.000008	0.052308
H182	H	0.152028	0.333342	0.385642
H183	H	0.485362	0.666675	0.718975
H184	H	-0.842241	0.000023	-0.338809
H185	H	-0.508907	0.333357	-0.005476
H186	H	-0.175574	0.666690	0.327857
H187	H	-0.330080	-0.000002	0.064844
H188	H	0.003253	0.333332	0.398178
H189	H	0.336587	0.666665	0.731511
Br190	Br	-0.536555	0.000032	-0.024214
Br191	Br	-0.203222	0.333365	0.309119
Br192	Br	0.130111	0.666699	0.642453
H193	H	-0.844383	-0.330291	0.259545
H194	H	-0.511050	0.003042	0.592878
H195	H	-0.177716	0.336376	0.926212
H196	H	-0.705105	0.000006	0.028700
H197	H	-0.371772	0.333340	0.362033
H198	H	-0.038439	0.666673	0.695367
Br199	Br	-0.757739	0.000026	-0.035807
Br200	Br	-0.424406	0.333359	0.297527
Br201	Br	-0.091072	0.666693	0.630860
H202	H	-1.039169	0.000015	-0.226066
H203	H	-0.705836	0.333348	0.107267
H204	H	-0.372502	0.666681	0.440601
Br205	Br	-0.708150	0.000031	0.326413
Br206	Br	-0.374817	0.333365	0.659747
Br207	Br	-0.041484	0.666698	0.993080
Br208	Br	-0.793883	0.000042	-0.410834
Br209	Br	-0.460550	0.333376	-0.077501
Br210	Br	-0.127217	0.666709	0.255833
H211	H	-1.075316	0.000021	-0.601091
H212	H	-0.741983	0.333355	-0.267758
H213	H	-0.408649	0.666688	0.065575
Br214	Br	-1.092082	-0.000004	-0.057530
Br215	Br	-0.758748	0.333329	0.275804
Br216	Br	-0.425415	0.666662	0.609137
Br217	Br	-0.777603	0.000023	-0.604138
Br218	Br	-0.444269	0.333356	-0.270805
Br219	Br	-0.110936	0.666690	0.062529
H220	H	-0.781834	0.000028	-0.209361
H221	H	-0.448501	0.333361	0.123972
H222	H	-0.115168	0.666694	0.457305
H223	H	-0.539609	0.000018	0.273504
H224	H	-0.206276	0.333352	0.606837
H225	H	0.127058	0.666685	0.940171
Br226	Br	-0.139819	0.000015	0.346273
Br227	Br	0.193514	0.333348	0.679607
Br228	Br	0.526848	0.666681	1.012940
H229	H	-0.313374	0.000019	0.322179
H230	H	0.019960	0.333352	0.655512
H231	H	0.353293	0.666686	0.988846
H232	H	-1.025280	-0.330265	0.078780
H233	H	-0.691947	0.003068	0.412114
H234	H	-0.358613	0.336401	0.745447
Br235	Br	-0.407112	-0.000012	0.036196
Br236	Br	-0.073778	0.333321	0.369529
Br237	Br	0.259555	0.666655	0.702863
H238	H	-0.442822	0.000021	0.261774
H239	H	-0.109489	0.333354	0.595107
H240	H	0.223845	0.666688	0.928440
Br241	Br	-1.067818	0.000030	-0.303098
Br242	Br	-0.734485	0.333363	0.030236
Br243	Br	-0.401151	0.666697	0.363569
Br244	Br	-1.128229	0.000040	-0.432541
Br245	Br	-0.794896	0.333374	-0.099208
Br246	Br	-0.461562	0.666707	0.234126
Br247	Br	-1.052381	-0.834958	0.051741
Br248	Br	-0.719047	-0.501625	0.385074
Br249	Br	-0.385714	-0.168291	0.718407
H250	H	-1.025271	-0.186500	0.078781
H251	H	-0.691937	0.146834	0.412114
H252	H	-0.358604	0.480167	0.745448
Br253	Br	-0.817291	-0.165008	0.286582
Br254	Br	-0.483958	0.168325	0.619916
Br255	Br	-0.150624	0.501658	0.953249
H256	H	-1.025316	-0.669682	0.078792
H257	H	-0.691983	-0.336348	0.412125
H258	H	-0.358649	-0.003015	0.745458
H259	H	-0.844425	-0.813472	0.259560
H260	H	-0.511092	-0.480139	0.592894
H261	H	-0.177759	-0.146805	0.926227
H262	H	-0.844415	-0.669702	0.259560
H263	H	-0.511082	-0.336369	0.592893
H264	H	-0.177748	-0.003035	0.926227
