data_functionalizedCrystal
_audit_creation_method	'MofGen! by Chris Wilmer'
_symmetry_space_group_name_H-M	'P1'
_symmetry_Int_Tables_number	1
_symmetry_cell_setting	triclinic
loop_
_symmetry_equiv_pos_as_xyz
  x,y,z
_cell_length_a	19.077105
_cell_length_b	19.076808
_cell_length_c	11.169409
_cell_angle_alpha	92.337422
_cell_angle_beta	92.320653
_cell_angle_gamma	89.927608
loop_
_atom_site_label
_atom_site_type_symbol
_atom_site_fract_x
_atom_site_fract_y
_atom_site_fract_z
Zn1	Zn	1.063033	-0.322934	0.729201
Zn2	Zn	1.058214	-0.440468	0.520111
Zn3	Zn	0.945516	-0.318247	0.520804
Zn4	Zn	0.940771	-0.435684	0.713036
O5	O	1.001883	-0.379333	0.620788
O6	O	1.160725	-0.342489	0.707940
O7	O	1.043234	-0.424296	0.352248
O8	O	0.965107	-0.220533	0.555504
O9	O	1.157185	-0.428841	0.554322
O10	O	1.051446	-0.223976	0.708612
O11	O	0.960435	-0.334501	0.352758
O12	O	0.846554	-0.329861	0.539829
O13	O	0.957020	-0.420686	0.883135
O14	O	0.843068	-0.416141	0.681061
O15	O	1.046845	-0.337850	0.895012
O16	O	1.038633	-0.538170	0.538648
O17	O	0.952348	-0.534654	0.680389
C18	C	0.819315	-0.371974	0.608767
C19	C	0.741211	-0.368842	0.603652
C20	C	0.702718	-0.412361	0.674655
C21	C	0.629331	-0.409409	0.669855
C22	C	0.594438	-0.362942	0.594044
C23	C	0.632936	-0.319419	0.523038
C24	C	0.706322	-0.322368	0.527846
C25	C	0.375152	-0.349296	0.571801
C26	C	0.301761	-0.346352	0.566997
C27	C	0.298161	-0.436341	0.713815
C28	C	0.371548	-0.439289	0.718611
C29	C	0.410040	-0.395763	0.647609
N30	N	0.519425	-0.359926	0.589133
N31	N	0.485052	-0.398777	0.652528
C32	C	0.994472	-0.561910	0.607717
C33	C	0.991365	-0.640020	0.602169
C34	C	1.034825	-0.678447	0.679338
C35	C	1.031903	-0.751840	0.674127
C36	C	0.985525	-0.786803	0.591741
C37	C	0.942061	-0.748371	0.514568
C38	C	0.944980	-0.674980	0.519786
C39	C	0.971976	-1.006114	0.567587
C40	C	0.969063	-1.079510	0.562373
C41	C	1.058904	-1.082974	0.721934
C42	C	1.061821	-1.009581	0.727139
C43	C	1.018355	-0.971155	0.649971
N44	N	0.982539	-0.861822	0.586410
N45	N	1.021338	-0.896137	0.655309
C46	C	1.185165	-0.386722	0.632857
C47	C	1.263268	-0.389870	0.638000
C48	C	1.001940	-0.379257	0.933840
C49	C	1.001965	-0.379225	1.067244
C50	C	1.009343	-0.196044	0.633938
C51	C	1.012522	-0.117937	0.639542
C52	C	1.001869	-0.379360	0.308961
C53	C	1.001989	-0.379200	0.175580
H54	H	0.273354	-0.308505	0.505271
O55	O	0.412429	-0.306990	0.502716
C56	C	0.365893	-0.265335	0.434798
H57	H	0.312416	-0.292020	0.425068
H58	H	0.360257	-0.211684	0.482215
C59	C	0.460592	-0.223485	0.321650
C60	C	0.394912	-0.256263	0.309691
H61	H	0.478493	-0.217886	0.244480
H62	H	0.491945	-0.251547	0.367410
H63	H	0.455887	-0.178780	0.361168
H64	H	0.399619	-0.300971	0.270187
H65	H	0.363560	-0.228209	0.263921
H66	H	0.904297	-0.776844	0.447492
H67	H	0.737662	-0.286927	0.470034
H68	H	0.936586	-0.974833	0.504752
H69	H	0.399952	-0.477128	0.780341
O70	O	1.074024	-0.789190	0.749205
C71	C	1.032318	-0.830044	0.821010
H72	H	0.977848	-0.805750	0.826280
H73	H	1.027699	-0.885590	0.779796
C74	C	1.133480	-0.862292	0.941530
C75	C	1.066581	-0.832450	0.948011
H76	H	1.154616	-0.863780	1.019868
H77	H	1.161580	-0.834770	0.893151
H78	H	1.129622	-0.908578	0.907180
H79	H	1.070440	-0.786162	0.982346
H80	H	1.038483	-0.859964	0.996399
O81	O	0.592021	-0.451660	0.738992
C82	C	0.610598	-0.437103	0.860928
H83	H	0.664974	-0.412226	0.868920
H84	H	0.570769	-0.399352	0.901348
C85	C	0.544453	-0.536358	0.918911
C86	C	0.611241	-0.505809	0.928727
H87	H	0.544847	-0.578738	0.960736
H88	H	0.531935	-0.546164	0.836761
H89	H	0.511269	-0.504892	0.952594
H90	H	0.644422	-0.537272	0.895032
H91	H	0.623765	-0.496010	1.010873
H92	H	0.604521	-0.281582	0.461317
O93	O	1.106945	-0.975587	0.807008
C94	C	1.154025	-0.934940	0.744745
H95	H	1.157515	-0.957276	0.648941
H96	H	1.134506	-0.878466	0.743094
C97	C	1.222818	-0.909218	0.926046
C98	C	1.227109	-0.936656	0.808381
H99	H	1.267899	-0.910274	0.965301
H100	H	1.191098	-0.936601	0.967996
H101	H	1.206549	-0.862160	0.924654
H102	H	1.243369	-0.983716	0.809775
H103	H	1.258833	-0.909281	0.766433
O104	O	1.079893	-0.644596	0.759479
C105	C	1.117634	-0.694255	0.826454
H106	H	1.086770	-0.745436	0.824947
H107	H	1.170708	-0.704181	0.785547
C108	C	1.166768	-0.603093	0.958763
C109	C	1.128856	-0.665953	0.956920
H110	H	1.173693	-0.585635	1.039239
H111	H	1.141343	-0.569637	0.913638
H112	H	1.210992	-0.611374	0.924667
H113	H	1.084630	-0.657670	0.991001
H114	H	1.154274	-0.699408	1.002054
H115	H	0.931293	-1.107975	0.495283
H116	H	1.094291	-1.114268	0.784761
O117	O	0.736638	-0.457575	0.748124
C118	C	0.777242	-0.504613	0.679209
H119	H	0.754927	-0.508004	0.582913
H120	H	0.833740	-0.485118	0.680335
C121	C	0.802827	-0.573583	0.850759
C122	C	0.775416	-0.577753	0.732489
H123	H	0.801704	-0.618699	0.883626
H124	H	0.775474	-0.541892	0.897190
H125	H	0.849907	-0.557335	0.851682
H126	H	0.728335	-0.593992	0.731569
H127	H	0.802761	-0.609449	0.686058
O128	O	0.902736	-0.637757	0.444704
C129	C	0.861162	-0.684352	0.370889
H130	H	0.887867	-0.737802	0.364942
H131	H	0.807472	-0.690039	0.410702
C132	C	0.819400	-0.589717	0.251816
C133	C	0.852203	-0.655364	0.244503
H134	H	0.813871	-0.571836	0.173856
H135	H	0.847407	-0.558325	0.301548
H136	H	0.774662	-0.594465	0.284998
H137	H	0.896944	-0.650614	0.211336
H138	H	0.824204	-0.686756	0.194762
H139	H	0.266813	-0.471776	0.771622
