data_functionalizedCrystal
_audit_creation_method	'MofGen! by Chris Wilmer'
_symmetry_space_group_name_H-M	'P1'
_symmetry_Int_Tables_number	1
_symmetry_cell_setting	triclinic
loop_
_symmetry_equiv_pos_as_xyz
  x,y,z
_cell_length_a	19.076808
_cell_length_b	29.839134
_cell_length_c	19.078702
_cell_angle_alpha	92.213352
_cell_angle_beta	89.826046
_cell_angle_gamma	92.304013
loop_
_atom_site_label
_atom_site_type_symbol
_atom_site_fract_x
_atom_site_fract_y
_atom_site_fract_z
Zn1	Zn	-0.295726	0.669602	-0.385987
Zn2	Zn	-0.408638	0.669695	-0.263773
Zn3	Zn	-0.291100	0.597521	-0.268513
Zn4	Zn	-0.413166	0.591561	-0.381225
O5	O	-0.352157	0.632095	-0.324875
O6	O	-0.310745	0.732480	-0.369784
O7	O	-0.389216	0.662654	-0.166084
O8	O	-0.193375	0.609538	-0.288072
O9	O	-0.393702	0.732548	-0.279994
O10	O	-0.196773	0.662496	-0.374380
O11	O	-0.302861	0.609628	-0.169567
O12	O	-0.307251	0.533864	-0.283455
O13	O	-0.401418	0.599380	-0.480175
O14	O	-0.396932	0.529485	-0.366265
O15	O	-0.315135	0.656717	-0.483673
O16	O	-0.507578	0.656875	-0.275377
O17	O	-0.510904	0.599470	-0.361669
C18	C	-0.352081	0.515374	-0.324858
C19	C	-0.352066	0.465440	-0.324867
C20	C	-0.309059	0.108806	-0.371713
C21	C	-0.309002	0.296481	-0.371699
O22	O	-0.272346	0.320708	-0.411529
N23	N	-0.352113	0.319993	-0.324882
C24	C	-0.395245	0.296584	-0.278068
O25	O	-0.431917	0.320889	-0.238252
C26	C	-0.395305	0.108910	-0.278086
C27	C	-0.352186	0.085400	-0.324901
C28	C	-0.265944	0.085297	-0.418525
C29	C	-0.265956	0.038381	-0.418525
C30	C	-0.309083	0.014975	-0.371714
C31	C	-0.352198	0.038484	-0.324902
C32	C	-0.438440	0.085501	-0.231276
C33	C	-0.438453	0.038579	-0.231286
C34	C	-0.395334	0.015070	-0.278101
C35	C	-0.395337	-0.031837	-0.278090
N36	N	-0.352226	-0.055350	-0.324907
C37	C	-0.309099	-0.031944	-0.371719
C38	C	-0.395209	0.395116	-0.278061
C39	C	-0.395193	0.442034	-0.278055
C40	C	-0.308951	0.441928	-0.371687
C41	C	-0.308964	0.395009	-0.371689
C42	C	-0.352098	0.371603	-0.324878
C43	C	-0.309127	-0.130470	-0.371716
C44	C	-0.309140	-0.177390	-0.371710
C45	C	-0.395385	-0.177280	-0.278081
C46	C	-0.395369	-0.130364	-0.278084
C47	C	-0.352238	-0.106960	-0.324907
O48	O	-0.431979	-0.056094	-0.238286
O49	O	-0.272443	-0.056257	-0.411540
C50	C	-0.309047	0.155722	-0.371712
C51	C	-0.352162	0.179232	-0.324900
C52	C	-0.395289	0.155826	-0.278089
C53	C	-0.352146	0.226150	-0.324895
C54	C	-0.309020	0.249556	-0.371706
C55	C	-0.265909	0.226044	-0.418523
C56	C	-0.265921	0.179128	-0.418524
C57	C	-0.438400	0.179338	-0.231272
C58	C	-0.438384	0.226254	-0.231274
C59	C	-0.395257	0.249660	-0.278086
C60	C	-0.534740	0.627547	-0.317508
C61	C	-0.612851	0.625643	-0.314379
C62	C	-0.651257	0.652298	-0.357882
C63	C	-0.724651	0.650506	-0.354944
C64	C	-0.759635	0.622062	-0.308500
C65	C	-0.721223	0.595404	-0.264995
C66	C	-0.647832	0.597193	-0.267937
C67	C	-0.978950	0.613753	-0.294881
C68	C	-1.052346	0.611967	-0.291941
C69	C	-1.055769	0.667069	-0.381891
C70	C	-0.982375	0.668858	-0.384826
C71	C	-0.943970	0.642198	-0.341325
N72	N	-0.834655	0.620231	-0.305494
N73	N	-0.868952	0.644027	-0.344334
C74	C	-0.168863	0.636671	-0.332286
C75	C	-0.090753	0.638622	-0.335444
C76	C	-0.359297	0.627373	-0.508129
C77	C	-0.362340	0.625361	-0.586221
C78	C	-0.352234	0.749271	-0.324891
C79	C	-0.352267	0.799204	-0.324899
C80	C	-0.344995	0.636825	-0.142335
C81	C	-0.341754	0.638929	-0.064251
C82	C	-0.318625	0.654012	0.375057
C83	C	-0.321674	0.652023	0.301690
C84	C	-0.368441	0.621385	0.267045
C85	C	-0.412158	0.592732	0.305772
C86	C	-0.409105	0.594719	0.379138
C87	C	-0.382418	0.612262	0.047842
C88	C	-0.385469	0.610278	-0.025530
C89	C	-0.294984	0.669569	-0.029607
C90	C	-0.291938	0.671555	0.043761
C91	C	-0.335652	0.642900	0.082481
N92	N	-0.371560	0.619353	0.192051
N93	N	-0.332530	0.644931	0.157473
H94	H	-0.273852	0.375870	-0.409809
H95	H	-0.450234	0.567784	0.277558
O96	O	-0.451650	0.566875	0.416649
C97	C	-0.493576	0.539402	0.370340
H98	H	-0.497980	0.556338	0.318077
H99	H	-0.548109	0.534070	0.393937
H100	H	-0.468542	0.505582	0.361562
O101	O	-0.617242	0.679980	-0.402901
C102	C	-0.573209	0.711077	-0.364650
H103	H	-0.593185	0.714768	-0.308431
H104	H	-0.573335	0.745002	-0.390148
H105	H	-0.517503	0.698608	-0.364441
H106	H	-0.253857	0.696505	0.071964
O107	O	-0.224155	0.015563	-0.464106
C108	C	-0.242339	0.024868	-0.533475
H109	H	-0.298618	0.036293	-0.534657
H110	H	-0.237698	-0.006726	-0.568449
H111	H	-0.205407	0.052560	-0.553412
O112	O	-0.279184	0.679902	0.264183
C113	C	-0.237244	0.707364	0.310493
H114	H	-0.263833	0.709752	0.364024
H115	H	-0.230257	0.742343	0.288842
H116	H	-0.183728	0.692203	0.316061
H117	H	-0.755918	0.672215	-0.390363
O118	O	-0.224117	0.156310	-0.464102
C119	C	-0.242298	0.165613	-0.533473
H120	H	-0.298577	0.177037	-0.534659
H121	H	-0.237655	0.134018	-0.568445
H122	H	-0.205365	0.193304	-0.553410
O123	O	-0.224008	0.108082	-0.463904
C124	C	-0.176978	0.137352	-0.425808
H125	H	-0.199606	0.145147	-0.371530
H126	H	-0.168696	0.169838	-0.454821
H127	H	-0.124602	0.120740	-0.420267
O128	O	-1.093114	0.692892	-0.424224
C129	C	-1.137349	0.665085	-0.467848
H130	H	-1.115422	0.630128	-0.473018
H131	H	-1.140260	0.679889	-0.521910
H132	H	-1.192133	0.662751	-0.443892
H133	H	-0.947685	0.592047	-0.259459
O134	O	-0.755287	0.567746	-0.219973
C135	C	-0.799296	0.536638	-0.258229
H136	H	-0.812335	0.550815	-0.311056
H137	H	-0.849804	0.530112	-0.227532
H138	H	-0.771336	0.503832	-0.267033
O139	O	-0.224120	0.248801	-0.464069
C140	C	-0.265964	0.273799	-0.507745
H141	H	-0.321485	0.258185	-0.509762
H142	H	-0.242741	0.273572	-0.562879
H143	H	-0.267502	0.309855	-0.485914
H144	H	-0.953892	0.692020	-0.422645
H145	H	-0.423555	0.585328	-0.053735
O146	O	-0.437009	0.464939	-0.232600
C147	C	-0.427768	0.511370	-0.242639
H148	H	-0.374468	0.518523	-0.267918
H149	H	-0.430405	0.530434	-0.189812
H150	H	-0.470959	0.522700	-0.278302
O151	O	-0.424943	0.584403	0.085342
C152	C	-0.466857	0.556927	0.039028
H153	H	-0.471284	0.573872	-0.013226
H154	H	-0.521382	0.551574	0.062632
H155	H	-0.441798	0.523117	0.030228
O156	O	-0.610443	0.571366	-0.225646
C157	C	-0.566230	0.599168	-0.181993
H158	H	-0.556164	0.632831	-0.207261
H159	H	-0.514272	0.582373	-0.174621
H160	H	-0.592499	0.604782	-0.128799
H161	H	-0.473495	0.245392	-0.193145
O162	O	-0.437010	0.372336	-0.232553
C163	C	-0.395178	0.347352	-0.188844
H164	H	-0.342933	0.340988	-0.215857
H165	H	-0.423436	0.313901	-0.178226
H166	H	-0.385340	0.366963	-0.137106
H167	H	-0.274024	-0.196529	-0.409833
O168	O	-0.267126	0.464737	-0.417139
C169	C	-0.276351	0.511189	-0.407078
H170	H	-0.329644	0.516852	-0.381783
H171	H	-0.273722	0.527789	-0.459897
H172	H	-0.233148	0.526489	-0.371418
H173	H	-0.259393	0.692898	-0.061141
O174	O	-1.086223	0.584292	-0.246807
C175	C	-1.036588	0.561153	-0.209031
H176	H	-0.985383	0.560115	-0.239902
H177	H	-1.057536	0.525438	-0.200640
H178	H	-1.026709	0.579193	-0.156005
H179	H	-0.280544	0.678962	0.403260
H180	H	-0.473552	0.104635	-0.193154
H181	H	-0.274005	-0.111420	-0.409844
H182	H	-0.430473	-0.111221	-0.239957
O183	O	-0.480374	0.015915	-0.185744
C184	C	-0.518438	0.046729	-0.144441
H185	H	-0.489545	0.080943	-0.143215
H186	H	-0.523702	0.034414	-0.088774
H187	H	-0.572844	0.049748	-0.167934
O188	O	-0.437356	-0.200046	-0.232709
C189	C	-0.484349	-0.229336	-0.270816
H190	H	-0.490920	-0.216720	-0.325963
H191	H	-0.537401	-0.230548	-0.243145
H192	H	-0.462725	-0.264421	-0.274155
H193	H	-0.473521	0.160285	-0.193152
