data_functionalizedCrystal
_audit_creation_method	'MofGen! by Chris Wilmer'
_symmetry_space_group_name_H-M	'P1'
_symmetry_Int_Tables_number	1
_symmetry_cell_setting	triclinic
loop_
_symmetry_equiv_pos_as_xyz
  x,y,z
_cell_length_a	10.489716
_cell_length_b	11.792241
_cell_length_c	10.868271
_cell_angle_alpha	90.005281
_cell_angle_beta	89.996064
_cell_angle_gamma	95.638724
loop_
_atom_site_label
_atom_site_type_symbol
_atom_site_fract_x
_atom_site_fract_y
_atom_site_fract_z
O1	O	1.693526	-0.160005	-0.102313
O2	O	1.322275	-0.175065	-0.102318
O3	O	1.516910	-0.002388	-0.102307
O4	O	1.498892	-0.332682	-0.102324
O5	O	1.516894	-0.002381	0.102338
O6	O	1.322259	-0.175058	0.102327
O7	O	1.693510	-0.159998	0.102332
Zn8	Zn	1.507882	-0.167527	0.134821
Zn9	Zn	1.507903	-0.167536	-0.134807
O10	O	1.498875	-0.332675	0.102321
C11	C	1.274739	-0.173930	0.000004
C12	C	1.133119	-0.170545	0.000003
C13	C	1.035085	-0.276436	-0.000006
C14	C	0.957921	-0.220477	0.100903
C15	C	0.957944	-0.220459	-0.100860
C16	C	1.057822	-0.114631	0.100995
C17	C	1.057849	-0.114628	-0.100859
C18	C	0.980735	-0.058592	0.000074
C19	C	1.515770	0.039909	0.000015
C20	C	1.512382	0.165932	0.000014
C21	C	1.741047	-0.161133	0.000007
C22	C	1.882666	-0.164518	0.000001
C23	C	1.500015	-0.374972	-0.000004
C24	C	1.503403	-0.500995	-0.000011
N25	N	1.507877	-0.167520	0.318835
C26	C	1.506153	0.396660	-0.000006
C27	C	1.509614	0.268266	0.000005
N28	N	1.507919	-0.167534	-0.318821
C29	C	1.507897	-0.167534	0.569841
C30	C	1.507882	-0.167529	0.430164
H31	H	0.914315	-0.265185	-0.186159
H32	H	0.956619	0.033585	0.000138
O33	O	0.900106	-0.279683	0.213896
H34	H	0.941691	-0.236571	0.297563
H35	H	1.059440	-0.368545	0.000083
O36	O	1.115371	-0.055465	0.214126
H37	H	1.220787	-0.058519	0.213265
H38	H	1.101504	-0.069964	-0.186168
