data_functionalizedCrystal
_audit_creation_method	'MofGen! by Chris Wilmer'
_symmetry_space_group_name_H-M	'P1'
_symmetry_Int_Tables_number	1
_symmetry_cell_setting	triclinic
loop_
_symmetry_equiv_pos_as_xyz
  x,y,z
_cell_length_a	12.759395
_cell_length_b	16.959453
_cell_length_c	16.959447
_cell_angle_alpha	89.968936
_cell_angle_beta	89.988018
_cell_angle_gamma	90.019833
loop_
_atom_site_label
_atom_site_type_symbol
_atom_site_fract_x
_atom_site_fract_y
_atom_site_fract_z
Zn1	Zn	1.606153	-0.314669	-0.446855
Zn2	Zn	1.606050	-0.446862	-0.314675
Zn3	Zn	1.430474	-0.314701	-0.314698
Zn4	Zn	1.430427	-0.446809	-0.446819
O5	O	1.518276	-0.380760	-0.380762
O6	O	1.753160	-0.332214	-0.429327
O7	O	1.582736	-0.429365	-0.204067
O8	O	1.453841	-0.204086	-0.332254
O9	O	1.753085	-0.429335	-0.332214
O10	O	1.582911	-0.204063	-0.429349
O11	O	1.453741	-0.332267	-0.204084
O12	O	1.283447	-0.332216	-0.332219
O13	O	1.453761	-0.429246	-0.557435
O14	O	1.283412	-0.429276	-0.429287
O15	O	1.582866	-0.332163	-0.557461
O16	O	1.582691	-0.557466	-0.332179
O17	O	1.453661	-0.557427	-0.429265
C18	C	1.245308	-0.380745	-0.380752
C19	C	1.128532	-0.380757	-0.380767
C20	C	1.128591	-0.279788	-0.482053
C21	C	1.073760	-0.229313	-0.532703
C22	C	0.964038	-0.229327	-0.532712
C23	C	0.909145	-0.279820	-0.482066
C24	C	0.963976	-0.330295	-0.431416
C25	C	1.073701	-0.330277	-0.431413
C26	C	0.963917	-0.431258	-0.330127
C27	C	1.073639	-0.431250	-0.330120
C28	C	0.909024	-0.481751	-0.279480
C29	C	0.963855	-0.532231	-0.228833
C30	C	1.073584	-0.532216	-0.228826
C31	C	1.128470	-0.481724	-0.279470
C32	C	1.518188	-0.586127	-0.380733
C33	C	1.518247	-0.673983	-0.380747
C34	C	1.585569	-1.045388	-0.431415
C35	C	1.451276	-1.045529	-0.330226
C36	C	1.451237	-0.962983	-0.330208
C37	C	1.518364	-0.921636	-0.380795
C38	C	1.585530	-0.962835	-0.431400
C39	C	1.384065	-0.921779	-0.279610
C40	C	1.384023	-0.839228	-0.279590
C41	C	1.451156	-0.797879	-0.330174
C42	C	1.518325	-0.839082	-0.380780
C43	C	1.585452	-0.797735	-0.431367
C44	C	1.652627	-0.838937	-0.481970
C45	C	1.652663	-0.921486	-0.481983
C46	C	1.451120	-0.715330	-0.330160
C47	C	1.585413	-0.715182	-0.431352
C48	C	1.792309	-0.380777	-0.380772
C49	C	1.909086	-0.380784	-0.380776
C50	C	1.518320	-0.380695	-0.586930
C51	C	1.518338	-0.380667	-0.674787
C52	C	1.518393	-0.174592	-0.380808
C53	C	1.518442	-0.086735	-0.380828
C54	C	1.451245	-0.431130	-1.046251
C55	C	1.585683	-0.330037	-1.046274
C56	C	1.585655	-0.330054	-0.963728
C57	C	1.518422	-0.380610	-0.922440
C58	C	1.451217	-0.431150	-0.963698
C59	C	1.652866	-0.279521	-0.922464
C60	C	1.652842	-0.279536	-0.839913
C61	C	1.585603	-0.330089	-0.798624
C62	C	1.518394	-0.380630	-0.839886
C63	C	1.451161	-0.431187	-0.798598
C64	C	1.383946	-0.481724	-0.839859
C65	C	1.383978	-0.481703	-0.922408
C66	C	1.585571	-0.330110	-0.716075
C67	C	1.451133	-0.431207	-0.716045
C68	C	1.518293	-0.380768	-0.175396
C69	C	1.518478	-0.380574	-0.087539
H70	H	0.819804	-0.279820	-0.482072
H71	H	1.118466	-0.188202	-0.573937
Cl72	Cl	1.366601	-0.494763	-0.664146
Cl73	Cl	1.670069	-0.266588	-0.664207
Cl74	Cl	0.771088	-0.481766	-0.279489
Cl75	Cl	1.266528	-0.279776	-0.482055
Cl76	Cl	1.737002	-0.786948	-0.545569
Cl77	Cl	1.299434	-0.545283	-0.787945
Cl78	Cl	1.299494	-0.545234	-0.974284
H79	H	1.217811	-0.481703	-0.279466
Cl80	Cl	0.895105	-0.165868	-0.596381
H81	H	1.329411	-0.955450	-0.238427
Cl82	Cl	0.894843	-0.595695	-0.165165
H83	H	1.707610	-0.238365	-0.956087
Cl84	Cl	1.366878	-1.097509	-0.266646
H85	H	1.640427	-0.288881	-1.079896
Cl86	Cl	1.142505	-0.595671	-0.165145
Cl87	Cl	1.366677	-0.663537	-0.266552
H88	H	1.396517	-0.472274	-1.079850
Cl89	Cl	1.737334	-0.216001	-0.788049
Cl90	Cl	1.669812	-0.663209	-0.494946
Cl91	Cl	1.670017	-1.097182	-0.495024
H92	H	1.329327	-0.805686	-0.238386
H93	H	1.707353	-0.955040	-0.523182
