data_functionalizedCrystal
_audit_creation_method	'MofGen! by Chris Wilmer'
_symmetry_space_group_name_H-M	'P1'
_symmetry_Int_Tables_number	1
_symmetry_cell_setting	triclinic
loop_
_symmetry_equiv_pos_as_xyz
  x,y,z
_cell_length_a	17.699083
_cell_length_b	11.792241
_cell_length_c	16.176319
_cell_angle_alpha	89.993071
_cell_angle_beta	89.998611
_cell_angle_gamma	83.738215
loop_
_atom_site_label
_atom_site_type_symbol
_atom_site_fract_x
_atom_site_fract_y
_atom_site_fract_z
O1	O	1.004844	0.143527	-0.068631
O2	O	0.784565	0.162200	-0.068658
O3	O	0.900050	-0.012371	-0.068638
O4	O	0.889359	0.318098	-0.068651
O5	O	0.900034	-0.012382	0.068855
O6	O	0.784549	0.162189	0.068835
O7	O	1.004828	0.143516	0.068862
Cu8	Cu	0.894687	0.152851	0.081403
Cu9	Cu	0.894706	0.152865	-0.081199
O10	O	0.889343	0.318087	0.068842
C11	C	0.756356	0.161525	0.000085
C12	C	0.672328	0.159518	0.000075
C13	C	0.624253	0.261988	0.000071
C14	C	0.545299	0.260095	0.000082
C15	C	0.514422	0.155731	0.000091
C16	C	0.562503	0.053254	0.000097
C17	C	0.641455	0.055148	0.000092
C18	C	0.244099	0.045613	0.000118
C19	C	0.165141	0.043727	0.000120
C20	C	0.147944	0.250560	0.000108
C21	C	0.226896	0.252454	0.000103
C22	C	0.274970	0.149977	0.000113
C23	C	0.360580	0.152031	0.000103
C24	C	0.428814	0.153676	0.000095
C25	C	0.899370	-0.054660	0.000108
C26	C	0.897360	-0.180649	0.000107
C27	C	0.893664	-0.411317	0.000093
C28	C	0.895718	-0.282956	0.000101
C29	C	1.033036	0.144190	0.000117
C30	C	1.117065	0.146198	0.000122
C31	C	0.890022	0.360375	0.000094
C32	C	0.892032	0.486365	0.000090
N33	N	0.894679	0.152841	0.195768
N34	N	0.894720	0.152865	-0.195564
C35	C	0.945831	0.075573	0.239041
C36	C	0.945835	0.075572	0.325588
C37	C	0.894690	0.152845	0.368861
C38	C	0.843532	0.230118	0.325582
C39	C	0.843525	0.230113	0.239036
C40	C	0.843558	0.230139	0.674610
C41	C	0.843570	0.230140	0.761161
C42	C	0.945868	0.075598	0.761162
C43	C	0.945861	0.075593	0.674617
C44	C	0.894701	0.152861	0.631345
C45	C	0.894697	0.152860	0.537501
C46	C	0.894697	0.152853	0.462703
H47	H	0.283232	-0.037830	0.000127
H48	H	0.987511	0.012673	0.639387
O49	O	0.256920	0.353808	-0.000060
C50	C	0.336100	0.475963	-0.071291
C51	C	0.302138	0.361148	-0.071219
H52	H	0.372679	0.481925	-0.128808
H53	H	0.288203	0.548918	-0.071347
H54	H	0.372605	0.482011	-0.013729
H55	H	0.265641	0.354989	-0.128770
H56	H	0.350072	0.288248	-0.071120
H57	H	0.987483	0.012653	0.203814
H58	H	0.649386	0.346973	0.000064
H59	H	0.537357	-0.031721	0.000116
O60	O	0.498708	0.359739	0.000040
C61	C	0.489981	0.565096	0.000074
C62	C	0.542832	0.452330	0.000099
H63	H	0.525635	0.639985	0.000139
H64	H	0.452597	0.569463	-0.057476
H65	H	0.452578	0.569318	0.057606
H66	H	0.580284	0.448033	-0.057394
H67	H	0.580165	0.448010	0.057687
H68	H	0.801884	0.293032	0.360819
O69	O	0.101166	0.350035	-0.000004
C70	C	0.002075	0.467977	-0.071263
C71	C	0.054991	0.355273	-0.071225
H72	H	-0.035260	0.472259	-0.128848
H73	H	-0.035368	0.472280	-0.013758
H74	H	0.037722	0.542872	-0.071234
H75	H	0.019403	0.280314	-0.071283
H76	H	0.092437	0.351070	-0.128725
O77	O	0.995526	0.000371	0.803108
C78	C	1.039039	-0.197065	0.829640
C79	C	0.982773	-0.112001	0.782072
H80	H	1.028738	-0.287937	0.812663
H81	H	1.099732	-0.182486	0.812602
H82	H	1.030268	-0.183737	0.898925
H83	H	0.991476	-0.125279	0.712776
H84	H	0.922101	-0.126602	0.799179
H85	H	0.801919	0.293068	0.796392
O86	O	0.995606	0.000483	0.367495
C87	C	1.097064	-0.152824	0.358363
C88	C	1.040745	-0.067831	0.310801
H89	H	1.133563	-0.208094	0.312546
H90	H	1.135120	-0.103933	0.398844
H91	H	1.064160	-0.209421	0.398918
H92	H	1.073588	-0.011213	0.270201
H93	H	1.002690	-0.116793	0.270372
H94	H	0.801903	0.293055	0.639385
H95	H	0.801871	0.293031	0.203804
O96	O	0.135057	-0.057587	0.000243
C97	C	0.055930	-0.179781	0.071514
C98	C	0.089937	-0.065002	0.071469
H99	H	0.019456	-0.185824	0.129102
H100	H	0.019348	-0.185855	0.014013
H101	H	0.103864	-0.252681	0.071482
H102	H	0.042052	0.007964	0.071530
H103	H	0.126539	-0.059028	0.128965
H104	H	0.680598	-0.028294	0.000095
