data_functionalizedCrystal
_audit_creation_method	'MofGen! by Chris Wilmer'
_symmetry_space_group_name_H-M	'P1'
_symmetry_Int_Tables_number	1
_symmetry_cell_setting	triclinic
loop_
_symmetry_equiv_pos_as_xyz
  x,y,z
_cell_length_a	13.339070
_cell_length_b	15.944551
_cell_length_c	11.804365
_cell_angle_alpha	101.830656
_cell_angle_beta	74.875130
_cell_angle_gamma	99.564016
loop_
_atom_site_label
_atom_site_type_symbol
_atom_site_fract_x
_atom_site_fract_y
_atom_site_fract_z
O1	O	1.362759	0.408901	-0.099080
O2	O	1.068226	0.353629	-0.099072
O3	O	1.223533	0.260866	-0.099066
O4	O	1.207452	0.501664	-0.099087
O5	O	1.182647	0.285253	0.098989
O6	O	1.027340	0.378016	0.098982
O7	O	1.321872	0.433288	0.098974
Cu8	Cu	1.170873	0.407879	0.117062
Cu9	Cu	1.219226	0.379038	-0.117160
O10	O	1.166565	0.526051	0.098968
C11	C	1.010093	0.356486	-0.000044
C12	C	0.897788	0.328657	-0.000040
C13	C	0.533018	0.545045	-0.000078
C14	C	0.638534	0.571194	-0.000085
C15	C	0.703352	0.510562	-0.000073
C16	C	0.662645	0.423776	-0.000055
C17	C	0.557121	0.397622	-0.000058
C18	C	0.727455	0.363140	-0.000053
C19	C	0.686748	0.276354	-0.000035
C20	C	0.581234	0.250205	-0.000037
C21	C	0.516415	0.310837	-0.000048
C22	C	0.832980	0.389293	-0.000051
C23	C	0.857083	0.241871	-0.000031
C24	C	0.751567	0.215721	-0.000024
C25	C	1.202422	0.241610	-0.000038
C26	C	1.200420	0.147897	-0.000038
C27	C	1.099370	-0.090508	-0.000051
C28	C	1.126136	-0.128567	0.097600
C29	C	1.196800	-0.023674	-0.000047
C30	C	1.166470	-0.152588	-0.097666
C31	C	1.193297	-0.189405	-0.000060
C32	C	1.223576	-0.060489	0.097685
C33	C	1.263915	-0.084518	-0.097668
C34	C	1.290747	-0.122540	0.000007
C35	C	1.198815	0.071799	-0.000038
C36	C	1.191288	-0.284874	-0.000061
C37	C	1.380006	0.430430	-0.000057
C38	C	1.492312	0.458259	-0.000068
C39	C	1.187677	0.545307	-0.000062
C40	C	1.189681	0.639019	-0.000071
N41	N	1.136871	0.428165	0.281801
N42	N	1.253235	0.358748	-0.281899
C43	C	1.334885	0.310017	0.655758
C44	C	1.360606	0.294667	0.531097
C45	C	1.304674	0.328040	0.468767
C46	C	1.223018	0.376766	0.531110
C47	C	1.197300	0.392123	0.655783
C48	C	1.167089	0.410146	0.468792
C49	C	1.085432	0.458872	0.531135
C50	C	1.059718	0.474226	0.655795
C51	C	1.115650	0.440854	0.718126
C52	C	1.192807	0.394789	0.344119
C53	C	1.055221	0.476895	0.344144
C54	C	1.029500	0.492245	0.468805
H55	H	0.866112	0.459956	-0.000061
H56	H	1.018477	-0.076032	0.000049
H57	H	0.430494	0.289550	-0.000042
C58	C	0.683301	0.666658	-0.000089
N59	N	0.717018	0.738567	-0.000084
H60	H	1.247689	-0.020727	0.180333
C61	C	0.461713	0.611729	-0.000093
N62	N	0.408003	0.661960	-0.000103
C63	C	0.536459	0.154738	-0.000016
N64	N	0.502735	0.082832	0.000006
C65	C	1.087340	0.457716	0.855261
N66	N	1.066013	0.470407	0.958553
H67	H	1.067883	-0.148112	0.180159
C68	C	1.396402	0.273315	0.724329
N69	N	1.442740	0.245668	0.775979
C70	C	1.450420	0.241065	0.462530
N71	N	1.518070	0.200686	0.410884
H72	H	1.325620	0.315540	0.367263
H73	H	1.259292	0.355116	0.293371
H74	H	0.993236	0.513910	0.706555
C75	C	0.706776	0.120257	-0.000012
N76	N	0.673038	0.048353	-0.000004
H77	H	1.142292	-0.192437	-0.180228
C78	C	0.939678	0.545841	0.537398
N79	N	0.872022	0.586208	0.589064
H80	H	0.789268	0.531858	-0.000082
H81	H	1.009678	0.504072	0.293396
H82	H	1.371679	-0.136831	0.000060
C83	C	0.928378	0.175171	-0.000014
N84	N	0.982085	0.124937	-0.000002
C85	C	1.342565	-0.058092	-0.209209
N86	N	1.401798	-0.038189	-0.293230
