data_functionalizedCrystal
_audit_creation_method	'MofGen! by Chris Wilmer'
_symmetry_space_group_name_H-M	'P1'
_symmetry_Int_Tables_number	1
_symmetry_cell_setting	triclinic
loop_
_symmetry_equiv_pos_as_xyz
  x,y,z
_cell_length_a	17.640280
_cell_length_b	16.959455
_cell_length_c	16.959455
_cell_angle_alpha	90.005595
_cell_angle_beta	101.209402
_cell_angle_gamma	78.797529
loop_
_atom_site_label
_atom_site_type_symbol
_atom_site_fract_x
_atom_site_fract_y
_atom_site_fract_z
Zn1	Zn	-0.314825	1.272021	0.383336
Zn2	Zn	-0.446968	1.298704	0.224475
Zn3	Zn	-0.314813	1.139868	0.251176
Zn4	Zn	-0.446946	1.166550	0.356618
O5	O	-0.380888	1.219286	0.303901
O6	O	-0.332368	1.386175	0.362270
O7	O	-0.429442	1.277634	0.117405
O8	O	-0.204214	1.135065	0.291065
O9	O	-0.429453	1.405778	0.245555
O10	O	-0.204223	1.232158	0.388162
O11	O	-0.332348	1.160938	0.137023
O12	O	-0.332326	1.032793	0.265156
O13	O	-0.429415	1.180541	0.470774
O14	O	-0.429404	1.052396	0.342623
O15	O	-0.332347	1.258030	0.490404
O16	O	-0.557565	1.303506	0.219647
O17	O	-0.557549	1.206413	0.316732
C18	C	-0.380862	1.013914	0.303888
C19	C	-0.380870	0.926059	0.303898
C20	C	-0.586235	1.260772	0.262410
C21	C	-0.674083	1.278592	0.244686
C22	C	-0.330298	0.544347	0.263678
C23	C	-0.431542	0.564840	0.344157
C24	C	-0.431531	0.647384	0.344154
C25	C	-0.380903	0.678413	0.303912
C26	C	-0.330287	0.626898	0.263672
C27	C	-0.482152	0.698906	0.384386
C28	C	-0.482144	0.781455	0.384384
C29	C	-0.431511	0.812485	0.344147
C30	C	-0.380892	0.760964	0.303906
C31	C	-0.330264	0.791993	0.263664
C32	C	-0.279641	0.740473	0.223428
C33	C	-0.279655	0.657928	0.223434
C34	C	-0.431497	0.895030	0.344140
C35	C	-0.330253	0.874544	0.263658
C36	C	-0.963099	1.084231	0.438835
C37	C	-1.045646	1.100977	0.422155
C38	C	-1.045598	1.202143	0.321163
C39	C	-0.963049	1.185407	0.337837
C40	C	-0.921807	1.126450	0.396673
C41	C	-0.921757	1.227627	0.295675
C42	C	-0.839215	1.210890	0.312344
C43	C	-0.797967	1.151933	0.371176
C44	C	-0.839265	1.109713	0.413342
C45	C	-0.963001	1.286580	0.236835
C46	C	-0.921708	1.328799	0.194673
C47	C	-0.839165	1.312067	0.211346
C48	C	-0.797917	1.253110	0.270178
C49	C	-0.797867	1.354287	0.169180
C50	C	-0.715326	1.337550	0.185850
C51	C	-0.715376	1.236373	0.286848
C52	C	-0.174739	1.177659	0.345572
C53	C	-0.086891	1.159920	0.363330
C54	C	-0.380880	1.219285	0.510071
C55	C	-0.380876	1.219285	0.597928
C56	C	-0.380915	1.425459	0.303914
C57	C	-0.380926	1.513318	0.303920
C58	C	-0.330344	1.158527	0.979620
C59	C	-0.431449	1.280044	0.959179
C60	C	-0.431445	1.280046	0.876635
C61	C	-0.380890	1.219287	0.845579
C62	C	-0.330340	1.158526	0.897067
C63	C	-0.481999	1.340801	0.825138
C64	C	-0.481997	1.340804	0.742588
C65	C	-0.431438	1.280048	0.711531
C66	C	-0.380885	1.219285	0.763026
C67	C	-0.330331	1.158526	0.731970
C68	C	-0.279774	1.097766	0.783464
C69	C	-0.279781	1.097769	0.866011
C70	C	-0.431431	1.280044	0.628984
C71	C	-0.330326	1.158525	0.649417
C72	C	-0.380909	1.219284	1.098531
C73	C	-0.380899	1.219286	1.010676
H74	H	-0.289021	0.899800	0.230893
H75	H	-0.472588	1.329519	0.587063
H76	H	-0.523364	0.823396	0.417148
C77	C	-0.486483	0.950828	0.387901
C78	C	-0.530812	0.905984	0.423156
C79	C	-0.581467	0.957355	0.463489
H80	H	-0.520937	0.989997	0.350731
H81	H	-0.456314	0.976917	0.428528
H82	H	-0.560979	0.879908	0.382534
H83	H	-0.496379	0.866818	0.460338
H84	H	-0.551298	0.983445	0.504116
H85	H	-0.615915	0.996522	0.426314
H86	H	-0.611545	0.926936	0.487420
C87	C	-0.842696	1.418391	0.105418
C88	C	-0.890033	1.478627	0.140652
C89	C	-0.931333	1.537695	0.081939
H90	H	-0.874982	1.394811	0.064417
H91	H	-0.806309	1.441192	0.082699
H92	H	-0.926415	1.455828	0.163358
H93	H	-0.857766	1.502228	0.181647
H94	H	-0.894946	1.560496	0.059220
H95	H	-0.963615	1.514107	0.040941
H96	H	-0.963450	1.578575	0.105838
C97	C	-0.918409	1.020296	0.502832
C98	C	-0.938469	1.041509	0.577000
C99	C	-0.897322	0.982633	0.635969
H100	H	-0.863326	1.016329	0.506826
H101	H	-0.931986	0.969931	0.488532
H102	H	-0.924887	1.091859	0.591297
H103	H	-0.993545	1.045469	0.573032
H104	H	-0.910899	0.932269	0.621668
H105	H	-0.842241	0.978671	0.639955
H106	H	-0.910933	0.997014	0.686297
H107	H	-0.238621	1.048301	0.907944
H108	H	-0.289080	0.502396	0.230921
H109	H	-0.289154	1.109049	0.624139
H110	H	-1.079264	1.066602	0.456503
C111	C	-0.275325	1.092631	1.035506
C112	C	-0.197128	1.094066	1.031251
C113	C	-0.146422	1.033381	1.082730
H114	H	-0.286780	1.041807	1.019690
H115	H	-0.282510	1.101327	1.089137
H116	H	-0.189947	1.085364	0.977632
H117	H	-0.185648	1.144876	1.047074
H118	H	-0.153607	1.042076	1.136361
H119	H	-0.157884	0.982561	1.066910
H120	H	-0.093359	1.034351	1.079856
C121	C	-0.708350	1.133754	0.389110
C122	C	-0.681067	1.108138	0.319344
C123	C	-0.598518	1.091394	0.335831
H124	H	-0.689600	1.092578	0.430148
H125	H	-0.689608	1.180958	0.406569
H126	H	-0.699801	1.060939	0.301895
H127	H	-0.699795	1.149302	0.278297
H128	H	-0.579776	1.138598	0.353290
H129	H	-0.579776	1.050219	0.376870
H130	H	-0.579996	1.074019	0.288496
H131	H	-1.079189	1.250144	0.273257
H132	H	-0.681705	1.371929	0.151516
C133	C	-0.536809	1.406707	0.859013
C134	C	-0.525978	1.393712	0.942329
C135	C	-0.576454	1.454413	0.973566
H136	H	-0.589940	1.405906	0.834833
H137	H	-0.525254	1.457504	0.847877
H138	H	-0.537539	1.342929	0.953459
H139	H	-0.472858	1.394521	0.966530
H140	H	-0.564898	1.505210	0.962430
H141	H	-0.629582	1.453608	0.949380
H142	H	-0.569107	1.445609	1.030099
H143	H	-0.472614	1.329506	0.984469
C144	C	-0.537057	0.665299	0.428222
C145	C	-0.519968	0.681957	0.509904
C146	C	-0.570532	0.651011	0.550315
H147	H	-0.529851	0.608756	0.422561
H148	H	-0.590161	0.689564	0.405893
H149	H	-0.466877	0.657689	0.532226
H150	H	-0.527179	0.738493	0.515588
H151	H	-0.623636	0.675277	0.527986
H152	H	-0.563321	0.594470	0.544649
H153	H	-0.558948	0.662316	0.605739
H154	H	-1.030211	1.300207	0.223267
C155	C	-0.486422	0.530995	0.387832
C156	C	-0.475587	0.447675	0.379238
C157	C	-0.526122	0.416465	0.419473
H158	H	-0.539539	0.555167	0.365496
H159	H	-0.474924	0.542160	0.443299
H160	H	-0.487091	0.436517	0.323782
H161	H	-0.422481	0.423482	0.401578
H162	H	-0.514624	0.427630	0.474940
H163	H	-0.579236	0.440643	0.397133
H164	H	-0.518772	0.359929	0.413654
H165	H	-0.523165	1.390278	0.700668
C166	C	-0.224706	0.774316	0.179816
C167	C	-0.235526	0.857631	0.188439
C168	C	-0.184929	0.888835	0.148285
H169	H	-0.236140	0.763184	0.124346
H170	H	-0.171603	0.750106	0.202211
H171	H	-0.288618	0.881833	0.166040
H172	H	-0.224086	0.868785	0.243899
H173	H	-0.131826	0.864625	0.170680
H174	H	-0.196368	0.877698	0.092817
H175	H	-0.192259	0.945366	0.154136
C176	C	-0.224828	0.601972	0.179633
C177	C	-0.269508	0.563618	0.119861
C178	C	-0.219030	0.512068	0.079492
H179	H	-0.190432	0.562756	0.216795
H180	H	-0.194680	0.632243	0.155617
H181	H	-0.299642	0.533348	0.143877
H182	H	-0.303902	0.602813	0.082682
H183	H	-0.188883	0.542339	0.055476
H184	H	-0.184637	0.472858	0.116660
H185	H	-0.249339	0.486044	0.038927
C186	C	-0.794575	1.045778	0.477339
C187	C	-0.814635	1.066991	0.551508
C188	C	-0.773488	1.008115	0.610476
H189	H	-0.739492	1.041811	0.481334
H190	H	-0.808152	0.995414	0.463039
H191	H	-0.801053	1.117341	0.565805
H192	H	-0.869711	1.070952	0.547540
H193	H	-0.787065	0.957751	0.596176
H194	H	-0.718407	1.004153	0.614463
H195	H	-0.787099	1.022496	0.660804
C196	C	-0.966538	1.392905	0.130913
C197	C	-1.013873	1.453139	0.166150
C198	C	-1.055174	1.512209	0.107439
H199	H	-0.998826	1.369326	0.089912
H200	H	-0.930152	1.415707	0.108193
H201	H	-1.050255	1.430340	0.188857
H202	H	-0.981605	1.476740	0.207145
H203	H	-1.018788	1.535011	0.084719
H204	H	-1.087458	1.488623	0.066442
H205	H	-1.087290	1.553089	0.131340
C206	C	-0.224918	1.031891	0.749592
C207	C	-0.235730	1.044909	0.666281
C208	C	-0.185206	0.984250	0.635050
H209	H	-0.236425	0.981073	0.760693
H210	H	-0.171797	1.032742	0.773811
H211	H	-0.288838	1.044050	0.642070
H212	H	-0.224218	1.095715	0.655158
H213	H	-0.132085	0.985101	0.659269
H214	H	-0.196717	0.933436	0.646157
H215	H	-0.192530	0.993078	0.578522
H216	H	-0.681794	1.188370	0.334764
