data_functionalizedCrystal
_audit_creation_method	'MofGen! by Chris Wilmer'
_symmetry_space_group_name_H-M	'P1'
_symmetry_Int_Tables_number	1
_symmetry_cell_setting	triclinic
loop_
_symmetry_equiv_pos_as_xyz
  x,y,z
_cell_length_a	17.000383
_cell_length_b	9.065218
_cell_length_c	8.140239
_cell_angle_alpha	90.001686
_cell_angle_beta	89.999843
_cell_angle_gamma	99.691906
loop_
_atom_site_label
_atom_site_type_symbol
_atom_site_fract_x
_atom_site_fract_y
_atom_site_fract_z
O1	O	1.056481	-0.053127	-0.136504
O2	O	1.556481	0.446873	0.363496
O3	O	0.825135	-0.106617	-0.136529
O4	O	1.325135	0.393383	0.363471
O5	O	0.945590	0.135509	-0.136513
O6	O	1.445590	0.635509	0.363487
O7	O	0.936026	-0.295253	-0.136521
O8	O	1.436026	0.204747	0.363479
O9	O	0.945583	0.135511	0.136714
O10	O	1.445583	0.635511	0.636714
O11	O	0.825128	-0.106615	0.136698
O12	O	1.325128	0.393385	0.636698
O13	O	1.056474	-0.053125	0.136723
O14	O	1.556474	0.446875	0.636723
Zn15	Zn	0.940800	-0.079870	0.180091
Zn16	Zn	1.440800	0.420130	0.680091
Zn17	Zn	0.940809	-0.079872	-0.179897
Zn18	Zn	1.440809	0.420128	0.320103
O19	O	0.936019	-0.295252	0.136706
O20	O	1.436019	0.204748	0.636706
C21	C	0.795498	-0.109489	0.000081
C22	C	1.295498	0.390511	0.500081
C23	C	0.707201	-0.118031	0.000071
C24	C	1.207201	0.381969	0.500071
C25	C	0.944667	0.190355	0.000098
C26	C	1.444667	0.690355	0.500098
C27	C	0.941919	0.353773	0.000090
C28	C	1.441919	0.853773	0.500090
C29	C	1.086111	-0.050253	0.000109
C30	C	1.586111	0.449747	0.500109
C31	C	1.174408	-0.041711	0.000108
C32	C	1.674408	0.458289	0.500108
C33	C	1.674227	0.013448	0.000072
C34	C	2.174227	0.513448	0.500072
C35	C	1.591262	0.005410	0.000069
C36	C	2.091262	0.505410	0.500069
C37	C	1.541273	-0.134108	0.000077
C38	C	2.041273	0.365892	0.500077
C39	C	1.574253	-0.265597	0.000071
C40	C	2.074253	0.234403	0.500071
C41	C	1.657216	-0.257558	0.000063
C42	C	2.157216	0.242442	0.500063
C43	C	1.290351	-0.165161	0.000093
C44	C	1.790351	0.334839	0.500093
C45	C	1.207382	-0.173190	0.000107
C46	C	1.707382	0.326810	0.500107
C47	C	1.224397	0.097818	0.000102
C48	C	1.724397	0.597818	0.500102
C49	C	1.307361	0.105845	0.000103
C50	C	1.807361	0.605845	0.500103
C51	C	1.340334	-0.025644	0.000088
C52	C	1.840334	0.474356	0.500088
C53	C	1.456469	-0.142328	0.000079
C54	C	1.956469	0.357672	0.500079
C55	C	1.425136	-0.017423	0.000074
C56	C	1.925136	0.482577	0.500074
C57	C	0.936942	-0.350097	0.000092
C58	C	1.436942	0.149903	0.500092
C59	C	0.939690	-0.513515	0.000089
C60	C	1.439690	-0.013515	0.500089
N61	N	0.940800	-0.079867	0.425774
N62	N	1.440800	0.420133	0.925774
N63	N	0.940815	-0.079863	-0.425580
N64	N	1.440815	0.420137	0.074420
H65	H	1.714923	0.127059	0.000073
H66	H	2.214923	0.627059	0.500073
F67	F	1.360558	0.254340	0.000104
F68	F	1.860558	0.754340	0.500104
F69	F	1.556172	0.145349	0.000032
F70	F	2.056172	0.645349	0.500032
F71	F	1.189299	0.237748	0.000111
F72	F	1.689299	0.737748	0.500111
F73	F	1.478339	0.131058	0.000059
F74	F	1.978339	0.631058	0.500059
F75	F	1.154181	-0.321692	0.000128
F76	F	1.654181	0.178308	0.500128
H77	H	1.684062	-0.364622	0.000069
H78	H	2.184062	0.135378	0.500069
H79	H	1.533545	-0.379196	0.000067
H80	H	2.033545	0.120804	0.500067
F81	F	1.325432	-0.305104	0.000079
F82	F	1.825432	0.194896	0.500079
F83	F	1.403260	-0.290810	0.000086
F84	F	1.903260	0.209190	0.500086
