data_functionalizedCrystal
_audit_creation_method	'MofGen! by Chris Wilmer'
_symmetry_space_group_name_H-M	'P1'
_symmetry_Int_Tables_number	1
_symmetry_cell_setting	triclinic
loop_
_symmetry_equiv_pos_as_xyz
  x,y,z
_cell_length_a	18.050590
_cell_length_b	19.121063
_cell_length_c	18.050582
_cell_angle_alpha	87.584968
_cell_angle_beta	89.999233
_cell_angle_gamma	92.457501
loop_
_atom_site_label
_atom_site_type_symbol
_atom_site_fract_x
_atom_site_fract_y
_atom_site_fract_z
Zn1	Zn	1.122670	-0.279861	0.432210
Zn2	Zn	1.117284	-0.397304	0.313312
Zn3	Zn	0.998490	-0.279849	0.308068
Zn4	Zn	0.993143	-0.397253	0.437492
O5	O	1.057897	-0.338567	0.372771
O6	O	1.225879	-0.295466	0.416422
O7	O	1.101510	-0.381740	0.208692
O8	O	1.019455	-0.181567	0.320131
O9	O	1.221922	-0.381751	0.329068
O10	O	1.110690	-0.181575	0.411338
O11	O	1.014232	-0.295447	0.204840
O12	O	0.893857	-0.295397	0.325252
O13	O	1.010342	-0.381664	0.540715
O14	O	0.889929	-0.381653	0.420339
O15	O	1.105505	-0.295416	0.536835
O16	O	1.096325	-0.495582	0.334189
O17	O	1.005119	-0.495544	0.425424
C18	C	0.864947	-0.338519	0.372800
C19	C	0.782401	-0.338515	0.372831
C20	C	0.580830	-0.385555	0.424428
C21	C	0.534325	-0.321516	0.439818
C22	C	0.631269	-0.338554	0.372797
C23	C	0.530691	-0.402631	0.357408
C24	C	0.485282	-0.338598	0.372765
C25	C	0.585853	-0.274481	0.388221
C26	C	0.582221	-0.355639	0.305781
C27	C	0.535741	-0.291555	0.321143
C28	C	0.715369	-0.338530	0.372817
C29	C	0.401185	-0.338615	0.372745
C30	C	1.049577	-0.521047	0.380965
C31	C	1.046086	-0.599112	0.384495
C32	C	1.091969	-0.635784	0.338692
C33	C	1.088690	-0.709135	0.342017
C34	C	1.039524	-0.745813	0.391142
C35	C	0.993639	-0.709136	0.436950
C36	C	0.996922	-0.635787	0.433628
C37	C	1.027236	-0.967282	0.403548
C38	C	1.023954	-1.040637	0.406865
C39	C	1.119007	-1.040631	0.311933
C40	C	1.122282	-0.967280	0.308612
C41	C	1.076401	-0.930609	0.354423
C42	C	1.036169	-0.820790	0.394539
C43	C	1.079759	-0.855634	0.351028
C44	C	1.251600	-0.338615	0.372741
C45	C	1.334145	-0.338636	0.372728
C46	C	1.057928	-0.338536	0.566475
C47	C	1.057941	-0.338522	0.649020
C48	C	1.066269	-0.155374	0.364560
C49	C	1.069837	-0.077309	0.361062
C50	C	1.057912	-0.338547	0.179818
C51	C	1.058052	-0.338363	0.097264
C52	C	1.006232	-0.385360	0.850578
C53	C	1.073212	-0.402540	0.900725
C54	C	1.057980	-0.338469	0.800148
C55	C	0.991037	-0.321269	0.897082
C56	C	1.058011	-0.338418	0.946131
C57	C	1.124994	-0.355683	0.849209
C58	C	1.042775	-0.274382	0.845561
C59	C	1.109803	-0.291538	0.895684
C60	C	1.057960	-0.338500	0.716051
C61	C	1.058038	-0.338387	1.030226
H62	H	1.126052	-0.738990	0.304719
O63	O	0.501772	-0.467218	0.341927
C64	C	0.423718	-0.466174	0.341442
H65	H	0.405159	-0.421496	0.375957
H66	H	0.403476	-0.458100	0.281994
C67	C	0.413664	-0.591166	0.332202
C68	C	0.390870	-0.536295	0.374599
H69	H	0.393401	-0.634421	0.352651
H70	H	0.466251	-0.591870	0.332525
H71	H	0.396794	-0.584428	0.282665
H72	H	0.407748	-0.543029	0.424132
H73	H	0.338285	-0.535594	0.374284
O74	O	0.509162	-0.304174	0.507358
C75	C	0.468971	-0.242679	0.499559
H76	H	0.487225	-0.212012	0.446686
H77	H	0.407184	-0.257254	0.496312
C78	C	0.461454	-0.234911	0.631791
C79	C	0.483879	-0.197241	0.566854
H80	H	0.470647	-0.206883	0.673302
H81	H	0.488529	-0.276342	0.637046
H82	H	0.409966	-0.247054	0.629074
H83	H	0.535367	-0.185106	0.569567
H84	H	0.456813	-0.155806	0.561601
O85	O	1.027257	-0.209792	0.816775
C86	C	0.956584	-0.191879	0.841121
H87	H	0.922274	-0.241637	0.857242
H88	H	0.962839	-0.157787	0.891244
C89	C	0.959425	-0.090039	0.758427
C90	C	0.917282	-0.151152	0.778221
H91	H	0.935182	-0.064913	0.719629
H92	H	1.007040	-0.102105	0.742026
H93	H	0.964634	-0.061636	0.800202
H94	H	0.912081	-0.179556	0.736449
H95	H	0.869666	-0.139089	0.794613
O96	O	0.988488	-0.856390	0.442359
C97	C	1.005456	-0.838405	0.515574
H98	H	1.065683	-0.818196	0.518452
H99	H	0.967524	-0.795848	0.533036
C100	C	0.919900	-0.928366	0.564541
C101	C	0.993874	-0.903551	0.568077
H102	H	0.912753	-0.968550	0.596929
H103	H	0.908466	-0.940482	0.515215
H104	H	0.888299	-0.892896	0.579091
H105	H	1.025473	-0.939018	0.553518
H106	H	1.005314	-0.891443	0.617402
H107	H	0.953610	-0.739005	0.476951
O108	O	1.170010	-0.931733	0.260797
C109	C	1.153016	-0.949696	0.187580
H110	H	1.122080	-1.002969	0.188434
H111	H	1.116701	-0.908449	0.160671
C112	C	1.263292	-0.887642	0.141752
C113	C	1.225302	-0.953076	0.142799
H114	H	1.307881	-0.889724	0.114127
H115	H	1.274740	-0.875538	0.191078
H116	H	1.233022	-0.853277	0.119329
H117	H	1.255568	-0.987438	0.165230
H118	H	1.213860	-0.965186	0.093475
H119	H	0.934412	-0.306742	0.918137
H120	H	0.600702	-0.425233	0.468135
O121	O	1.088473	-0.467162	0.929614
C122	C	1.028943	-0.493149	0.974837
H123	H	0.996467	-0.447533	0.994445
H124	H	0.990830	-0.529186	0.941711
C125	C	1.099155	-0.590504	1.018413
C126	C	1.059272	-0.534476	1.042501
H127	H	1.117862	-0.615999	1.060149
H128	H	1.139261	-0.572998	0.987943
H129	H	1.067388	-0.620527	0.990807
H130	H	1.091041	-0.504450	1.070097
H131	H	1.019172	-0.551978	1.072976
O132	O	0.614654	-0.209886	0.403838
C133	C	0.692725	-0.210646	0.403679
H134	H	0.710644	-0.266619	0.414360
H135	H	0.714828	-0.189707	0.347505
C136	C	0.701935	-0.095402	0.451840
C137	C	0.723943	-0.164149	0.464965
H138	H	0.721193	-0.066719	0.489641
H139	H	0.649337	-0.094889	0.451945
H140	H	0.720356	-0.077963	0.405026
H141	H	0.705514	-0.181590	0.511773
H142	H	0.776539	-0.164664	0.464869
O143	O	0.512279	-0.244154	0.268946
C144	C	0.537772	-0.261682	0.198548
H145	H	0.588555	-0.294797	0.205356
H146	H	0.492118	-0.292704	0.169024
C147	C	0.496315	-0.153515	0.143972
C148	C	0.558692	-0.194183	0.152334
H149	H	0.509217	-0.111880	0.115463
H150	H	0.479138	-0.141707	0.191400
H151	H	0.458276	-0.179375	0.119372
H152	H	0.596726	-0.168327	0.176942
H153	H	0.575877	-0.205986	0.104909
O154	O	0.954148	-0.432820	0.826903
C155	C	0.970471	-0.500290	0.855127
H156	H	1.032014	-0.501626	0.869026
H157	H	0.936358	-0.513432	0.907410
C158	C	0.875661	-0.552791	0.779483
C159	C	0.951251	-0.554434	0.796548
H160	H	0.863802	-0.586191	0.743351
H161	H	0.864662	-0.507335	0.760470
H162	H	0.847243	-0.563741	0.823057
H163	H	0.979668	-0.543476	0.752977
H164	H	0.962255	-0.599890	0.815553
O165	O	1.139793	-0.600267	0.290951
C166	C	1.179573	-0.648367	0.251225
H167	H	1.179786	-0.700633	0.284014
H168	H	1.152062	-0.656219	0.195161
C169	C	1.259642	-0.555506	0.198999
C170	C	1.259909	-0.619699	0.239274
H171	H	1.309196	-0.537822	0.191624
H172	H	1.232840	-0.523099	0.225761
H173	H	1.236713	-0.562058	0.152283
H174	H	1.282830	-0.613145	0.285992
H175	H	1.286717	-0.652104	0.212520
O176	O	1.192511	-0.373112	0.824087
C177	C	1.191674	-0.372941	0.745973
H178	H	1.132133	-0.380743	0.725893
H179	H	1.216117	-0.320679	0.722469
C180	C	1.311303	-0.423228	0.744185
C181	C	1.238174	-0.432816	0.719522
H182	H	1.339989	-0.460159	0.727868
H183	H	1.311869	-0.423341	0.796811
H184	H	1.331662	-0.379675	0.724596
H185	H	1.217813	-0.476364	0.739118
H186	H	1.237606	-0.432712	0.666898
H187	H	1.156362	-1.070496	0.274637
H188	H	0.983926	-1.070498	0.446881
H189	H	0.603300	-0.370095	0.249138
H190	H	0.989876	-0.937431	0.440848
O191	O	0.952387	-0.600237	0.478228
C192	C	0.967786	-0.618097	0.553064
H193	H	0.993946	-0.671338	0.557030
H194	H	1.007806	-0.576781	0.576229
C195	C	0.863078	-0.556106	0.593292
C196	C	0.895202	-0.621500	0.598164
H197	H	0.818306	-0.558202	0.621113
H198	H	0.852704	-0.544071	0.542874
H199	H	0.896435	-0.521683	0.612595
H200	H	0.861849	-0.655920	0.578853
H201	H	0.905569	-0.633541	0.648580
O202	O	1.127476	-0.820085	0.303209
C203	C	1.110472	-0.838043	0.229993
H204	H	1.079545	-0.891320	0.230846
H205	H	1.074146	-0.796799	0.203096
C206	C	1.220731	-0.775968	0.184151
C207	C	1.182751	-0.841407	0.185198
H208	H	1.265315	-0.778040	0.156517
H209	H	1.232186	-0.763867	0.233477
H210	H	1.190451	-0.741605	0.161738
H211	H	1.213027	-0.875766	0.207619
H212	H	1.171303	-0.853514	0.135874
O213	O	1.162177	-0.244284	0.919207
C214	C	1.232638	-0.262642	0.894698
H215	H	1.231384	-0.320918	0.883532
H216	H	1.247867	-0.231004	0.841521
C217	C	1.292269	-0.175137	0.968556
C218	C	1.290730	-0.246714	0.954848
H219	H	1.328105	-0.165309	1.005658
H220	H	1.244799	-0.162766	0.985067
H221	H	1.304958	-0.148780	0.924237
H222	H	1.278033	-0.273069	0.999164
H223	H	1.338201	-0.259088	0.938347
