data_functionalizedCrystal
_audit_creation_method	'MofGen! by Chris Wilmer'
_symmetry_space_group_name_H-M	'P1'
_symmetry_Int_Tables_number	1
_symmetry_cell_setting	triclinic
loop_
_symmetry_equiv_pos_as_xyz
  x,y,z
_cell_length_a	18.215407
_cell_length_b	16.959454
_cell_length_c	18.215399
_cell_angle_alpha	90.023696
_cell_angle_beta	90.019833
_cell_angle_gamma	90.020523
loop_
_atom_site_label
_atom_site_type_symbol
_atom_site_fract_x
_atom_site_fract_y
_atom_site_fract_z
Zn1	Zn	1.125097	-0.314680	0.416138
Zn2	Zn	1.125015	-0.446866	0.293080
Zn3	Zn	1.002029	-0.314706	0.293085
Zn4	Zn	1.002005	-0.446822	0.416105
O5	O	1.063537	-0.380768	0.354602
O6	O	1.228070	-0.332222	0.399825
O7	O	1.108677	-0.429364	0.190097
O8	O	1.018398	-0.204092	0.309424
O9	O	1.228010	-0.429339	0.309416
O10	O	1.108815	-0.204073	0.399830
O11	O	1.018319	-0.332267	0.190100
O12	O	0.899042	-0.332224	0.309392
O13	O	1.018358	-0.429264	0.519094
O14	O	0.899024	-0.429289	0.399775
O15	O	1.108792	-0.332180	0.519118
O16	O	1.108654	-0.557471	0.309385
O17	O	1.018279	-0.557438	0.399770
C18	C	0.872330	-0.380755	0.354581
C19	C	0.790531	-0.380768	0.354589
C20	C	0.602348	-0.431389	0.401593
C21	C	0.525489	-0.431392	0.401602
C22	C	0.525478	-0.330162	0.307628
C23	C	0.602335	-0.330156	0.307623
C24	C	0.640768	-0.380774	0.354604
C25	C	0.487052	-0.380782	0.354618
C26	C	0.403718	-0.380785	0.354628
C27	C	0.724107	-0.380771	0.354596
C28	C	1.063475	-0.586135	0.354590
C29	C	1.063516	-0.673991	0.354609
C30	C	1.016547	-1.045480	0.401661
C31	C	1.110731	-1.045454	0.307618
C32	C	1.110706	-0.962908	0.307611
C33	C	1.063599	-0.921644	0.354629
C34	C	1.016518	-0.962926	0.401654
C35	C	1.157781	-0.921619	0.260582
C36	C	1.157756	-0.839068	0.260573
C37	C	1.110653	-0.797803	0.307595
C38	C	1.063570	-0.839091	0.354622
C39	C	1.016464	-0.797827	0.401640
C40	C	0.969384	-0.839113	0.448672
C41	C	0.969414	-0.921661	0.448676
C42	C	1.110623	-0.715255	0.307591
C43	C	1.016435	-0.715273	0.401634
C44	C	1.255489	-0.380783	0.354624
C45	C	1.337288	-0.380789	0.354633
C46	C	1.063581	-0.380714	0.546555
C47	C	1.063601	-0.380691	0.628354
C48	C	1.063619	-0.174600	0.354631
C49	C	1.063653	-0.086744	0.354643
C50	C	1.063534	-0.380766	0.163396
C51	C	1.063658	-0.380566	0.081597
C52	C	1.110707	-0.330092	0.816562
C53	C	1.110716	-0.330069	0.893420
C54	C	1.016546	-0.431167	0.893384
C55	C	1.016534	-0.431186	0.816527
C56	C	1.063619	-0.380649	0.778118
C57	C	1.063639	-0.380608	0.931834
C58	C	1.063649	-0.380583	1.015168
C59	C	1.063609	-0.380672	0.694779
H60	H	0.978077	-0.681682	0.439924
O61	O	0.923761	-0.961732	0.494460
C62	C	0.939781	-0.941501	0.567823
H63	H	0.998562	-0.918759	0.571595
H64	H	0.933440	-0.995779	0.604174
H65	H	0.900295	-0.893609	0.587023
O66	O	0.488107	-0.281110	0.261913
C67	C	0.443604	-0.326050	0.214325
H68	H	0.466748	-0.388295	0.209678
H69	H	0.442713	-0.297383	0.157735
H70	H	0.385365	-0.328810	0.237081
O71	O	0.488249	-0.480522	0.447347
C72	C	0.507054	-0.463335	0.520721
H73	H	0.562867	-0.432948	0.522288
H74	H	0.509683	-0.520427	0.553629
H75	H	0.463821	-0.422734	0.545577
H76	H	0.633617	-0.288934	0.269359
H77	H	0.633638	-0.472604	0.439850
H78	H	0.931026	-0.805506	0.486951
H79	H	1.149058	-0.288899	0.924718
H80	H	0.978218	-1.079098	0.439955
O81	O	1.156437	-1.085656	0.261989
C82	C	1.146335	-1.167368	0.272048
H83	H	1.122239	-1.178641	0.328834
H84	H	1.201460	-1.198720	0.267064
H85	H	1.107141	-1.190820	0.228381
O86	O	0.970884	-0.480234	0.930811
C87	C	0.980978	-0.469365	1.006891
H88	H	1.037784	-0.443478	1.017404
H89	H	0.975969	-0.528565	1.036089
H90	H	0.937345	-0.427265	1.028702
O91	O	0.970768	-0.480376	0.779291
C92	C	0.929205	-0.524968	0.829672
H93	H	0.959354	-0.527696	0.884465
H94	H	0.921329	-0.587250	0.807449
H95	H	0.873324	-0.496019	0.837839
O96	O	1.203608	-0.961650	0.214945
C97	C	1.276962	-0.941478	0.231065
H98	H	1.278506	-0.881512	0.259323
H99	H	1.309970	-0.938713	0.177966
H100	H	1.301728	-0.987898	0.268939
O101	O	1.203386	-0.798933	0.214814
C102	C	1.161504	-0.751222	0.167251
H103	H	1.103551	-0.776142	0.162651
H104	H	1.188155	-0.750296	0.110641
H105	H	1.158938	-0.688650	0.189999
O106	O	1.156242	-0.675114	0.261832
C107	C	1.114351	-0.627405	0.214275
H108	H	1.056400	-0.652329	0.209681
H109	H	1.140996	-0.626475	0.157661
H110	H	1.111783	-0.564833	0.237025
H111	H	1.149044	-0.288940	0.785291
