data_functionalizedCrystal
_audit_creation_method	'MofGen! by Chris Wilmer'
_symmetry_space_group_name_H-M	'P1'
_symmetry_Int_Tables_number	1
_symmetry_cell_setting	triclinic
loop_
_symmetry_equiv_pos_as_xyz
  x,y,z
_cell_length_a	18.215407
_cell_length_b	25.639239
_cell_length_c	18.215399
_cell_angle_alpha	89.967555
_cell_angle_beta	89.983176
_cell_angle_gamma	90.039134
loop_
_atom_site_label
_atom_site_type_symbol
_atom_site_fract_x
_atom_site_fract_y
_atom_site_fract_z
Zn1	Zn	1.124980	-0.208137	-0.416105
Zn2	Zn	1.624980	0.291863	0.083895
Zn3	Zn	1.124865	-0.295577	-0.293034
Zn4	Zn	1.624865	0.204423	0.206966
Zn5	Zn	1.001919	-0.208158	-0.293053
Zn6	Zn	1.501919	0.291842	0.206947
Zn7	Zn	1.001848	-0.295544	-0.416059
Zn8	Zn	1.501848	0.204456	0.083941
O9	O	1.063403	-0.251854	-0.354563
O10	O	1.563403	0.248146	0.145437
O11	O	1.227949	-0.219742	-0.399791
O12	O	1.727949	0.280258	0.100209
O13	O	1.108537	-0.284003	-0.190052
O14	O	1.608537	0.215997	0.309948
O15	O	1.018320	-0.134990	-0.309403
O16	O	1.518320	0.365010	0.190597
O17	O	1.227864	-0.283983	-0.309372
O18	O	1.727864	0.216017	0.190628
O19	O	1.108733	-0.134975	-0.399809
O20	O	1.608733	0.365025	0.100191
O21	O	1.018209	-0.219777	-0.190066
O22	O	1.518209	0.280223	0.309934
O23	O	0.898925	-0.219745	-0.309358
O24	O	1.398925	0.280255	0.190642
O25	O	1.018201	-0.283927	-0.519050
O26	O	1.518201	0.216073	-0.019050
O27	O	0.898873	-0.283947	-0.399731
O28	O	1.398873	0.216053	0.100269
O29	O	1.108665	-0.219710	-0.519083
O30	O	1.608665	0.280290	-0.019083
O31	O	1.108469	-0.368738	-0.309327
O32	O	1.608469	0.131262	0.190673
O33	O	1.018089	-0.368714	-0.399713
O34	O	1.518089	0.131286	0.100287
C35	C	0.872197	-0.251845	-0.354542
C36	C	1.372197	0.248155	0.145458
C37	C	0.790398	-0.251854	-0.354550
C38	C	1.290398	0.248146	0.145450
C39	C	0.602196	-0.285337	-0.401548
C40	C	1.102196	0.214663	0.098452
C41	C	0.525337	-0.285338	-0.401557
C42	C	1.025337	0.214662	0.098443
C43	C	0.525362	-0.218381	-0.307594
C44	C	1.025362	0.281619	0.192406
C45	C	0.602219	-0.218377	-0.307589
C46	C	1.102219	0.281623	0.192411
C47	C	0.640634	-0.251858	-0.354565
C48	C	1.140634	0.248142	0.145435
C49	C	0.486918	-0.251864	-0.354579
C50	C	0.986918	0.248136	0.145421
C51	C	0.403584	-0.251865	-0.354589
C52	C	0.903584	0.248135	0.145411
C53	C	0.723973	-0.251856	-0.354556
C54	C	1.223973	0.248144	0.145444
C55	C	1.063279	-0.387697	-0.354529
C56	C	1.563279	0.112303	0.145471
C57	C	1.063293	-0.445811	-0.354539
C58	C	1.563293	0.054189	0.145461
C59	C	1.110586	-0.806174	-0.307579
C60	C	1.610586	-0.306174	0.192421
C61	C	1.110615	-0.860778	-0.307589
C62	C	1.610615	-0.360778	0.192411
O63	O	1.150696	-0.889015	-0.267625
O64	O	1.650696	-0.389015	0.232375
N65	N	1.063532	-0.888093	-0.354612
N66	N	1.563532	-0.388093	0.145388
C67	C	1.016423	-0.860801	-0.401633
C68	C	1.516423	-0.360801	0.098367
O69	O	0.976379	-0.889049	-0.441631
O70	O	1.476379	-0.389049	0.058369
C71	C	1.016399	-0.806198	-0.401626
C72	C	1.516399	-0.306198	0.098374
C73	C	1.063479	-0.778886	-0.354595
C74	C	1.563479	-0.278886	0.145405
C75	C	1.157663	-0.778862	-0.260553
C76	C	1.657663	-0.278862	0.239447
C77	C	1.157634	-0.724261	-0.260542
C78	C	1.657634	-0.224261	0.239458
C79	C	1.110527	-0.696973	-0.307558
C80	C	1.610527	-0.196973	0.192442
C81	C	1.063450	-0.724285	-0.354584
C82	C	1.563450	-0.224285	0.145416
C83	C	0.969294	-0.778907	-0.448650
C84	C	1.469294	-0.278907	0.051350
C85	C	0.969274	-0.724300	-0.448640
C86	C	1.469274	-0.224300	0.051360
C87	C	1.016355	-0.696988	-0.401609
C88	C	1.516355	-0.196988	0.098391
C89	C	1.016313	-0.642396	-0.401590
C90	C	1.516313	-0.142396	0.098410
N91	N	1.063396	-0.615081	-0.354567
N92	N	1.563396	-0.115081	0.145433
C93	C	1.110503	-0.642370	-0.307551
C94	C	1.610503	-0.142370	0.192449
C95	C	1.016479	-0.975472	-0.401644
C96	C	1.516479	-0.475472	0.098356
C97	C	1.016499	-1.030074	-0.401648
C98	C	1.516499	-0.530074	0.098352
C99	C	1.110691	-1.030047	-0.307605
C100	C	1.610691	-0.530047	0.192395
C101	C	1.110667	-0.975444	-0.307598
C102	C	1.610667	-0.475444	0.192402
C103	C	1.063561	-0.948157	-0.354621
C104	C	1.563561	-0.448157	0.145379
C105	C	1.110436	-0.527704	-0.307532
C106	C	1.610436	-0.027704	0.192468
C107	C	1.110400	-0.473099	-0.307523
C108	C	1.610400	0.026901	0.192477
C109	C	1.016211	-0.473131	-0.401569
C110	C	1.516211	0.026869	0.098431
C111	C	1.016244	-0.527731	-0.401575
C112	C	1.516244	-0.027731	0.098425
C113	C	1.063362	-0.555017	-0.354554
C114	C	1.563362	-0.055017	0.145446
O115	O	0.976254	-0.614125	-0.441536
O116	O	1.476254	-0.114125	0.058464
O117	O	1.150547	-0.614115	-0.267567
O118	O	1.650547	-0.114115	0.232433
C119	C	1.255356	-0.251864	-0.354584
C120	C	1.755356	0.248136	0.145416
C121	C	1.337155	-0.251868	-0.354594
C122	C	1.837155	0.248132	0.145406
C123	C	1.063438	-0.251813	-0.546516
C124	C	1.563438	0.248187	-0.046516
C125	C	1.063452	-0.251795	-0.628315
C126	C	1.563452	0.248205	-0.128315
C127	C	1.063547	-0.115481	-0.354613
C128	C	1.563547	0.384519	0.145387
C129	C	1.063609	-0.057367	-0.354634
C130	C	1.563609	0.442633	0.145366
C131	C	1.016458	-0.218330	-0.816517
C132	C	1.516458	0.281670	-0.316517
C133	C	1.016471	-0.218319	-0.893375
C134	C	1.516471	0.281681	-0.393375
C135	C	1.110534	-0.285198	-0.893351
C136	C	1.610534	0.214802	-0.393351
C137	C	1.110517	-0.285210	-0.816493
C138	C	1.610517	0.214790	-0.316493
C139	C	1.063480	-0.251773	-0.778078
C140	C	1.563480	0.248227	-0.278078
C141	C	1.063510	-0.251750	-0.931795
C142	C	1.563510	0.248250	-0.431795
C143	C	1.063525	-0.251739	-1.015128
C144	C	1.563525	0.248261	-0.515128
C145	C	1.063465	-0.251785	-0.694739
C146	C	1.563465	0.248215	-0.194739
C147	C	1.063411	-0.251858	-0.163357
C148	C	1.563411	0.248142	0.336643
C149	C	1.063538	-0.251729	-0.081558
C150	C	1.563538	0.248271	0.418442
H151	H	1.148739	-0.450863	-0.269223
H152	H	1.648739	0.049137	0.230777
O153	O	1.156311	-0.554143	-0.261890
O154	O	1.656311	-0.054143	0.238110
C155	C	1.281533	-0.570770	-0.226308
C156	C	1.781533	-0.070770	0.273692
C157	C	1.229665	-0.540791	-0.278035
C158	C	1.729665	-0.040791	0.221965
H159	H	1.340851	-0.559994	-0.239353
H160	H	1.840851	-0.059994	0.260647
H161	H	1.268698	-0.560055	-0.166945
H162	H	1.768698	-0.060055	0.333055
H163	H	1.273445	-0.614488	-0.234367
H164	H	1.773445	-0.114488	0.265633
H165	H	1.237724	-0.497066	-0.270043
H166	H	1.737724	0.002934	0.229957
H167	H	1.242513	-0.551549	-0.337380
H168	H	1.742513	-0.051549	0.162620
O169	O	0.488122	-0.185889	-0.261858
O170	O	0.988122	0.314111	0.238142
C171	C	0.464546	-0.160425	-0.136738
C172	C	0.964546	0.339575	0.363262
C173	C	0.506776	-0.197246	-0.188453
C174	C	1.006776	0.302754	0.311547
H175	H	0.479600	-0.169601	-0.077378
H176	H	0.979600	0.330399	0.422622
H177	H	0.479710	-0.118267	-0.149705
H178	H	0.979710	0.381733	0.350295
H179	H	0.403015	-0.166171	-0.144850
H180	H	0.903015	0.333829	0.355150
H181	H	0.568317	-0.191546	-0.180370
H182	H	1.068317	0.308454	0.319630
H183	H	0.491551	-0.239390	-0.175473
H184	H	0.991551	0.260610	0.324527
O185	O	1.203449	-0.805283	-0.214806
O186	O	1.703449	-0.305283	0.285194
C187	C	1.296892	-0.799475	-0.121550
C188	C	1.796892	-0.299475	0.378450
C189	C	1.245067	-0.769493	-0.173318
C190	C	1.745067	-0.269493	0.326682
H191	H	1.330565	-0.770552	-0.088004
H192	H	1.830565	-0.270552	0.411996
H193	H	1.263176	-0.825064	-0.082988
H194	H	1.763176	-0.325064	0.417012
H195	H	1.335339	-0.825012	-0.155378
H196	H	1.835339	-0.325012	0.344622
H197	H	1.206610	-0.743929	-0.139550
H198	H	1.706610	-0.243929	0.360450
H199	H	1.278829	-0.743937	-0.211882
H200	H	1.778829	-0.243937	0.288118
H201	H	1.148831	-0.312420	-0.924638
H202	H	1.648831	0.187580	-0.424638
H203	H	0.633516	-0.191112	-0.269329
H204	H	1.133516	0.308888	0.230671
O205	O	0.970713	-0.185907	-0.930744
O206	O	1.470713	0.314093	-0.430744
C207	C	0.871397	-0.178858	-1.017535
C208	C	1.371397	0.321142	-0.517535
C209	C	0.923167	-0.215624	-0.975250
C210	C	1.423167	0.284376	-0.475250
H211	H	0.832954	-0.202870	-1.053540
H212	H	1.332954	0.297130	-0.553540
H213	H	0.837725	-0.154976	-0.976904
H214	H	1.337725	0.345024	-0.476904
H215	H	0.905230	-0.151503	-1.053505
H216	H	1.405230	0.348497	-0.553505
H217	H	0.889392	-0.243011	-0.939280
H218	H	1.389392	0.256989	-0.439280
H219	H	0.956843	-0.239470	-1.015921
H220	H	1.456843	0.260530	-0.515921
O221	O	1.203269	-0.697712	-0.214782
O222	O	1.703269	-0.197712	0.285218
C223	C	1.213230	-0.636090	-0.115442
C224	C	1.713230	-0.136090	0.384558
C225	C	1.161458	-0.666128	-0.167208
C226	C	1.661458	-0.166128	0.332792
H227	H	1.179446	-0.610538	-0.076975
H228	H	1.679446	-0.110538	0.423025
H229	H	1.246886	-0.664958	-0.081794
H230	H	1.746886	-0.164958	0.418206
H231	H	1.251695	-0.610507	-0.149276
H232	H	1.751695	-0.110507	0.350724
H233	H	1.122948	-0.691711	-0.133431
H234	H	1.622948	-0.191711	0.366569
H235	H	1.127853	-0.637231	-0.200858
H236	H	1.627853	-0.137231	0.299142
H237	H	0.633472	-0.312598	-0.439801
H238	H	1.133472	0.187402	0.060199
O239	O	1.156162	-0.317772	-0.779231
O240	O	1.656162	0.182228	-0.279231
C241	C	1.191757	-0.406715	-0.755636
C242	C	1.691757	0.093285	-0.255636
C243	C	1.140037	-0.369898	-0.797895
C244	C	1.640037	0.130102	-0.297895
H245	H	1.178729	-0.448867	-0.770699
H246	H	1.678729	0.051133	-0.270699
H247	H	1.251125	-0.397576	-0.770767
H248	H	1.751125	0.102424	-0.270767
H249	H	1.183674	-0.400954	-0.694110
H250	H	1.683674	0.099046	-0.194110
H251	H	1.148055	-0.375638	-0.859431
H252	H	1.648055	0.124362	-0.359431
H253	H	1.080689	-0.379046	-0.782703
H254	H	1.580689	0.120954	-0.282703
O255	O	0.488113	-0.317910	-0.447219
O256	O	0.988113	0.182090	0.052781
C257	C	0.496205	-0.384301	-0.540446
C258	C	0.996205	0.115699	-0.040446
C259	C	0.538452	-0.347448	-0.488757
C260	C	1.038452	0.152552	0.011243
H261	H	0.536886	-0.408185	-0.574054
H262	H	1.036886	0.091815	-0.074054
H263	H	0.460204	-0.411647	-0.506629
H264	H	0.960204	0.088353	-0.006629
H265	H	0.460239	-0.360323	-0.578960
H266	H	0.960239	0.139677	-0.078960
H267	H	0.574458	-0.371384	-0.450232
H268	H	1.074458	0.128616	0.049768
H269	H	0.574407	-0.320102	-0.522620
H270	H	1.074407	0.179898	-0.022620
H271	H	1.149004	-0.953210	-0.269302
H272	H	1.649004	-0.453210	0.230698
O273	O	1.156482	-1.056641	-0.262054
O274	O	1.656482	-0.556641	0.237946
C275	C	1.198345	-1.140756	-0.220488
C276	C	1.698345	-0.640756	0.279512
C277	C	1.146434	-1.110702	-0.272086
C278	C	1.646434	-0.610702	0.227914
H279	H	1.190228	-1.184469	-0.228569
H280	H	1.690228	-0.684469	0.271431
H281	H	1.257665	-1.129985	-0.233535
H282	H	1.757665	-0.629985	0.266465
H283	H	1.185535	-1.130057	-0.161114
H284	H	1.685535	-0.630057	0.338886
H285	H	1.159178	-1.121384	-0.331477
H286	H	1.659178	-0.621384	0.168523
H287	H	1.087130	-1.121476	-0.258975
H288	H	1.587130	-0.621476	0.241025
O289	O	0.970735	-1.056521	-0.447397
O290	O	1.470735	-0.556521	0.052603
C291	C	0.877277	-1.050770	-0.540642
C292	C	1.377277	-0.550770	-0.040642
C293	C	0.929075	-1.020757	-0.488875
C294	C	1.429075	-0.520757	0.011125
H295	H	0.843570	-1.021867	-0.574180
H296	H	1.343570	-0.521867	-0.074180
H297	H	0.911014	-1.076274	-0.579212
H298	H	1.411014	-0.576274	-0.079212
H299	H	0.838860	-1.076394	-0.506815
H300	H	1.338860	-0.576394	-0.006815
H301	H	0.967503	-0.995104	-0.522643
H302	H	1.467503	-0.495104	-0.022643
H303	H	0.895292	-0.995285	-0.450303
H304	H	1.395292	-0.495285	0.049697
H305	H	0.930953	-0.801135	-0.486945
H306	H	1.430953	-0.301135	0.013055
O307	O	0.970814	-0.948943	-0.447397
O308	O	1.470814	-0.448943	0.052603
C309	C	0.960804	-0.887238	-0.546716
C310	C	1.460804	-0.387238	-0.046716
C311	C	1.012601	-0.917254	-0.494960
C312	C	1.512601	-0.417254	0.005040
H313	H	0.994567	-0.861602	-0.585173
H314	H	1.494567	-0.361602	-0.085173
H315	H	0.927173	-0.916121	-0.580375
H316	H	1.427173	-0.416121	-0.080375
H317	H	0.922317	-0.861742	-0.512875
H318	H	1.422317	-0.361742	-0.012875
H319	H	1.051133	-0.942751	-0.528744
H320	H	1.551133	-0.442751	-0.028744
H321	H	1.046180	-0.888344	-0.461298
H322	H	1.546180	-0.388344	0.038702
H323	H	0.930916	-0.702085	-0.486935
H324	H	1.430916	-0.202085	0.013065
H325	H	0.977909	-0.549970	-0.439874
H326	H	1.477909	-0.049970	0.060126
H327	H	0.978158	-0.191103	-0.785241
H328	H	1.478158	0.308897	-0.285241
H329	H	0.977854	-0.450904	-0.439847
H330	H	1.477854	0.049096	0.060153
