data_functionalizedCrystal
_audit_creation_method	'MofGen! by Chris Wilmer'
_symmetry_space_group_name_H-M	'P1'
_symmetry_Int_Tables_number	1
_symmetry_cell_setting	triclinic
loop_
_symmetry_equiv_pos_as_xyz
  x,y,z
_cell_length_a	14.908571
_cell_length_b	16.625546
_cell_length_c	14.908308
_cell_angle_alpha	93.264070
_cell_angle_beta	90.175053
_cell_angle_gamma	86.718495
loop_
_atom_site_label
_atom_site_type_symbol
_atom_site_fract_x
_atom_site_fract_y
_atom_site_fract_z
Zn1	Zn	1.345280	-0.420778	-0.587557
Zn2	Zn	1.678613	-0.087444	-0.254223
Zn3	Zn	2.011947	0.245889	0.079110
Zn4	Zn	1.353856	-0.548312	-0.437189
Zn5	Zn	1.687189	-0.214979	-0.103856
Zn6	Zn	2.020523	0.118354	0.229477
Zn7	Zn	1.203596	-0.405291	-0.428555
Zn8	Zn	1.536929	-0.071957	-0.095222
Zn9	Zn	1.870263	0.261376	0.238111
Zn10	Zn	1.194884	-0.547354	-0.578841
Zn11	Zn	1.528217	-0.214021	-0.245508
Zn12	Zn	1.861550	0.119312	0.087826
O13	O	1.274404	-0.480434	-0.508036
O14	O	1.607737	-0.147100	-0.174702
O15	O	1.941071	0.186233	0.158631
O16	O	1.472243	-0.444578	-0.574871
O17	O	1.805577	-0.111244	-0.241538
O18	O	2.138910	0.222089	0.091796
O19	O	1.341159	-0.523260	-0.310220
O20	O	1.674492	-0.189926	0.023114
O21	O	2.007825	0.143407	0.356447
O22	O	1.222448	-0.294517	-0.449681
O23	O	1.555781	0.038816	-0.116348
O24	O	1.889115	0.372149	0.216985
O25	O	1.478544	-0.538277	-0.464397
O26	O	1.811877	-0.204943	-0.131063
O27	O	2.145211	0.128390	0.202270
O28	O	1.326543	-0.305896	-0.566499
O29	O	1.659876	0.027438	-0.233166
O30	O	1.993209	0.360771	0.100168
O31	O	1.230763	-0.418182	-0.303876
O32	O	1.564097	-0.084849	0.029457
O33	O	1.897430	0.248484	0.362790
O34	O	1.076615	-0.417254	-0.441230
O35	O	1.409948	-0.083920	-0.107897
O36	O	1.743281	0.249413	0.225436
O37	O	1.207599	-0.536644	-0.705821
O38	O	1.540932	-0.203311	-0.372488
O39	O	1.874266	0.130023	-0.039155
O40	O	1.070214	-0.521627	-0.551644
O41	O	1.403547	-0.188294	-0.218311
O42	O	1.736880	0.145040	0.115022
O43	O	1.318095	-0.443649	-0.712225
O44	O	1.651428	-0.110316	-0.378891
O45	O	1.984761	0.223018	-0.045558
O46	O	1.332711	-0.661013	-0.455945
O47	O	1.666044	-0.327680	-0.122612
O48	O	1.999377	0.005654	0.210721
O49	O	1.215914	-0.660309	-0.560016
O50	O	1.549248	-0.326976	-0.226683
O51	O	1.882581	0.006358	0.106650
C52	C	1.040789	-0.467656	-0.494555
C53	C	1.374122	-0.134323	-0.161222
C54	C	1.707455	0.199010	0.172111
C55	C	0.940846	-0.462211	-0.488810
C56	C	1.274179	-0.128877	-0.155476
C57	C	1.607513	0.204456	0.177857
C58	C	0.746435	-0.560814	-0.592833
C59	C	1.079768	-0.227481	-0.259499
C60	C	1.413102	0.105853	0.073834
C61	C	0.652530	-0.555700	-0.587437
C62	C	0.985863	-0.222367	-0.254104
C63	C	1.319196	0.110967	0.079229
C64	C	0.659128	-0.446865	-0.472629
C65	C	0.992461	-0.113532	-0.139295
C66	C	1.325795	0.219802	0.194038
C67	C	0.753033	-0.451979	-0.478024
C68	C	1.086367	-0.118646	-0.144691
C69	C	1.419700	0.214688	0.188643
C70	C	0.796683	-0.508956	-0.538127
C71	C	1.130017	-0.175623	-0.204794
C72	C	1.463350	0.157710	0.128540
C73	C	0.890591	-0.514074	-0.543517
C74	C	1.223924	-0.180740	-0.210184
C75	C	1.557257	0.152593	0.123149
C76	C	0.897187	-0.405236	-0.428714
C77	C	1.230521	-0.071902	-0.095380
C78	C	1.563854	0.261431	0.237953
C79	C	0.803282	-0.400121	-0.423318
C80	C	1.136615	-0.066788	-0.089985
C81	C	1.469949	0.266545	0.243348
C82	C	1.274321	-0.689918	-0.507993
C83	C	1.607654	-0.356585	-0.174660
C84	C	1.940988	-0.023252	0.158674
C85	C	1.274366	-0.779542	-0.508010
C86	C	1.607699	-0.446209	-0.174676
C87	C	1.941033	-0.112876	0.158657
C88	C	1.274517	-1.107731	-0.508112
C89	C	1.607851	-0.774398	-0.174779
C90	C	1.941184	-0.441064	0.158554
C91	C	1.274472	-1.016419	-0.508086
C92	C	1.607806	-0.683086	-0.174753
C93	C	1.941139	-0.349752	0.158581
C94	C	1.274441	-0.943640	-0.508060
C95	C	1.607774	-0.610306	-0.174727
C96	C	1.941108	-0.276973	0.158606
C97	C	1.274397	-0.852322	-0.508035
C98	C	1.607731	-0.518988	-0.174702
C99	C	1.941064	-0.185655	0.158631
C100	C	1.508931	-0.493262	-0.521569
C101	C	1.842265	-0.159928	-0.188236
C102	C	2.175598	0.173405	0.145098
C103	C	1.608873	-0.498728	-0.527336
C104	C	1.942206	-0.165395	-0.194003
C105	C	2.275539	0.167939	0.139330
C106	C	1.260918	-0.491767	-0.742560
C107	C	1.594252	-0.158434	-0.409227
C108	C	1.927585	0.174899	-0.075893
C109	C	1.255172	-0.496597	-0.842501
C110	C	1.588505	-0.163263	-0.509167
C111	C	1.921838	0.170070	-0.175834
C112	C	1.274511	-0.270134	-0.508099
C113	C	1.607844	0.063200	-0.174766
C114	C	1.941177	0.396533	0.158567
C115	C	1.274556	-0.180516	-0.508127
C116	C	1.607889	0.152817	-0.174793
C117	C	1.941223	0.486150	0.158540
C118	C	1.359429	-0.408817	-1.036969
C119	C	1.692763	-0.075484	-0.703635
C120	C	2.026096	0.257849	-0.370302
C121	C	1.354033	-0.413353	-1.130872
C122	C	1.687366	-0.080019	-0.797538
C123	C	2.020699	0.253314	-0.464205
C124	C	1.238977	-0.510198	-1.124211
C125	C	1.572311	-0.176864	-0.790878
C126	C	1.905644	0.156469	-0.457545
C127	C	1.244374	-0.505662	-1.030308
C128	C	1.577708	-0.172329	-0.696975
C129	C	1.911041	0.161004	-0.363642
C130	C	1.304603	-0.454971	-0.986690
C131	C	1.637936	-0.121638	-0.653357
C132	C	1.971270	0.211695	-0.320024
C133	C	1.310004	-0.450441	-0.892786
C134	C	1.643337	-0.117108	-0.559452
C135	C	1.976671	0.216226	-0.226119
C136	C	1.194945	-0.547281	-0.886127
C137	C	1.528278	-0.213948	-0.552794
C138	C	1.861611	0.119385	-0.219460
C139	C	1.189548	-0.551817	-0.980030
C140	C	1.522881	-0.218483	-0.646697
C141	C	1.856215	0.114850	-0.313363
C142	C	1.287889	-0.469089	-0.274426
C143	C	1.621222	-0.135756	0.058907
C144	C	1.954555	0.197578	0.392240
C145	C	1.293810	-0.464042	-0.174497
C146	C	1.627143	-0.130709	0.158837
C147	C	1.960476	0.202625	0.492170
H148	H	0.623571	-0.400472	-0.423701
H149	H	0.956905	-0.067139	-0.090368
H150	H	1.290238	0.266194	0.242965
Br151	Br	1.157236	-0.578978	-1.183422
Br152	Br	1.490569	-0.245645	-0.850089
Br153	Br	1.823903	0.087689	-0.516756
Br154	Br	1.107810	-0.620605	-1.039234
Br155	Br	1.441143	-0.287272	-0.705900
Br156	Br	1.774477	0.046062	-0.372567
H157	H	0.611620	-0.597926	-0.631986
H158	H	0.944954	-0.264593	-0.298653
H159	H	1.278287	0.068740	0.034681
Br160	Br	1.428439	-0.350709	-1.199105
Br161	Br	1.761773	-0.017376	-0.865771
Br162	Br	2.095106	0.315958	-0.532438
H163	H	1.150303	-0.584866	-0.845180
H164	H	1.483637	-0.251532	-0.511847
H165	H	1.816970	0.081801	-0.178514
H166	H	0.938110	-0.363011	-0.384166
H167	H	1.271443	-0.029677	-0.050833
H168	H	1.604777	0.303656	0.282500
Br169	Br	0.949830	-0.591402	-0.625080
Br170	Br	1.283164	-0.258069	-0.291747
Br171	Br	1.616497	0.075265	0.041587
H172	H	0.781976	-0.607211	-0.641766
H173	H	1.115309	-0.273878	-0.308433
H174	H	1.448642	0.059455	0.024901
H175	H	0.767729	-0.353730	-0.374387
H176	H	1.101062	-0.020397	-0.041053
H177	H	1.434396	0.312936	0.292280
H178	H	1.359047	-0.409167	-0.857274
H179	H	1.692380	-0.075834	-0.523940
H180	H	2.025713	0.257500	-0.190607
Br181	Br	1.441179	-0.340037	-0.977769
Br182	Br	1.774512	-0.006704	-0.644436
Br183	Br	2.107845	0.326629	-0.311102
