data_functionalizedCrystal
_audit_creation_method	'MofGen! by Chris Wilmer'
_symmetry_space_group_name_H-M	'P1'
_symmetry_Int_Tables_number	1
_symmetry_cell_setting	triclinic
loop_
_symmetry_equiv_pos_as_xyz
  x,y,z
_cell_length_a	13.033615
_cell_length_b	18.215407
_cell_length_c	18.215399
_cell_angle_alpha	89.983176
_cell_angle_beta	97.202130
_cell_angle_gamma	82.814791
loop_
_atom_site_label
_atom_site_type_symbol
_atom_site_fract_x
_atom_site_fract_y
_atom_site_fract_z
Zn1	Zn	0.416018	1.087937	-0.378941
Zn2	Zn	0.590789	1.072260	-0.240257
Zn3	Zn	0.416059	0.964872	-0.255885
Zn4	Zn	0.590723	0.949250	-0.363288
O5	O	0.503397	1.018580	-0.309593
O6	O	0.439211	1.188841	-0.360555
O7	O	0.567655	1.057992	-0.139342
O8	O	0.269814	0.994296	-0.285299
O9	O	0.567615	1.177323	-0.258665
O10	O	0.269783	1.084711	-0.375708
O11	O	0.439282	0.979095	-0.150823
O12	O	0.439219	0.859816	-0.270121
O13	O	0.567503	0.967669	-0.468353
O14	O	0.567544	0.848339	-0.349030
O15	O	0.439148	1.069562	-0.479853
O16	O	0.737020	1.042844	-0.243487
O17	O	0.736972	0.952468	-0.333877
C18	C	0.503379	0.827375	-0.309573
C19	C	0.503397	0.745575	-0.309580
C20	C	0.230820	1.042995	-0.333993
C21	C	0.114663	1.053399	-0.344391
C22	C	0.570321	0.551414	-0.350600
C23	C	0.570324	0.474555	-0.350608
C24	C	0.436493	0.486496	-0.268600
C25	C	0.436485	0.563354	-0.268596
C26	C	0.503405	0.595810	-0.309594
C27	C	0.503416	0.442093	-0.309607
C28	C	0.503419	0.358759	-0.309617
C29	C	0.503401	0.679150	-0.309586
C30	C	0.062892	1.013302	-0.304294
C31	C	-0.057161	1.024054	-0.315040
C32	C	0.774914	0.994280	-0.285304
C33	C	0.891071	0.983951	-0.274937
C34	C	0.503314	1.018622	-0.501553
C35	C	0.503278	1.018640	-0.583355
C36	C	0.503416	1.210531	-0.309613
C37	C	0.503424	1.292329	-0.309621
C38	C	0.436389	0.977602	-0.777533
C39	C	0.436368	0.977616	-0.854393
C40	C	0.570043	1.059777	-0.842427
C41	C	0.570068	1.059758	-0.765568
C42	C	0.503235	1.018672	-0.733123
C43	C	0.503189	1.018706	-0.886843
C44	C	0.503166	1.018722	-0.970179
C45	C	0.503259	1.018654	-0.649782
C46	C	0.503405	1.018587	-0.118386
C47	C	0.503146	1.018738	-0.036611
H48	H	0.624812	0.438410	-0.384000
C49	C	0.643094	0.586681	-0.394983
C50	C	0.710023	0.624788	-0.347252
C51	C	0.777084	0.657275	-0.388114
H52	H	0.603290	0.620296	-0.430666
H53	H	0.683006	0.549248	-0.419388
H54	H	0.670116	0.662217	-0.322859
H55	H	0.749851	0.591189	-0.311569
H56	H	0.816996	0.619841	-0.412519
H57	H	0.737271	0.690886	-0.423795
H58	H	0.822509	0.683128	-0.355733
H59	H	0.107449	0.971010	-0.262013
H60	H	0.382010	0.460060	-0.235220
C61	C	-0.116502	1.080349	-0.371545
C62	C	-0.090080	1.061975	-0.442009
C63	C	-0.144736	1.113809	-0.494081
H64	H	-0.098705	1.128239	-0.359297
H65	H	-0.189307	1.080075	-0.371324
H66	H	-0.017292	1.062257	-0.442228
H67	H	-0.107880	1.014094	-0.454280
H68	H	-0.217541	1.113534	-0.493860
H69	H	-0.126935	1.161695	-0.481826
H70	H	-0.126824	1.101346	-0.541897
H71	H	0.381987	0.599503	-0.235205
H72	H	-0.064379	0.941655	-0.232655
C73	C	0.363710	0.933122	-0.742279
C74	C	0.296721	0.980776	-0.704172
C75	C	0.229747	0.939826	-0.671698
H76	H	0.403574	0.897466	-0.708664
H77	H	0.323837	0.908682	-0.779721
H78	H	0.336589	1.005204	-0.666734
H79	H	0.256834	1.016432	-0.737771
H80	H	0.189874	0.915386	-0.709141
H81	H	0.269620	0.904172	-0.638087
H82	H	0.184281	0.972154	-0.645845
C83	C	0.055399	1.109895	-0.400721
C84	C	0.081904	1.180349	-0.382363
C85	C	0.027345	1.232410	-0.434245
H86	H	-0.017412	1.109728	-0.400500
H87	H	0.073238	1.097590	-0.448593
H88	H	0.064058	1.192651	-0.334504
H89	H	0.154706	1.180539	-0.382590
H90	H	0.045184	1.220105	-0.482117
H91	H	-0.045464	1.232237	-0.434020
H92	H	0.045328	1.280218	-0.421800
C93	C	0.363674	0.933010	-0.902488
C94	C	0.305137	0.897041	-0.857621
C95	C	0.238149	0.855949	-0.901900
H96	H	0.403520	0.897315	-0.928900
H97	H	0.318077	0.965235	-0.936541
H98	H	0.350727	0.864819	-0.823581
H99	H	0.265269	0.932718	-0.831210
H100	H	0.192552	0.888174	-0.935954
H101	H	0.278003	0.820258	-0.928310
H102	H	0.198416	0.831544	-0.871466
H103	H	0.624454	1.093229	-0.868853
H104	H	0.624506	1.093203	-0.729407
