data_functionalizedCrystal
_audit_creation_method	'MofGen! by Chris Wilmer'
_symmetry_space_group_name_H-M	'P1'
_symmetry_Int_Tables_number	1
_symmetry_cell_setting	triclinic
loop_
_symmetry_equiv_pos_as_xyz
  x,y,z
_cell_length_a	18.215407
_cell_length_b	12.759400
_cell_length_c	18.215399
_cell_angle_alpha	90.024546
_cell_angle_beta	90.019833
_cell_angle_gamma	90.015132
loop_
_atom_site_label
_atom_site_type_symbol
_atom_site_fract_x
_atom_site_fract_y
_atom_site_fract_z
Zn1	Zn	1.125124	-0.418265	0.416133
Zn2	Zn	1.125054	-0.593962	0.293074
Zn3	Zn	1.002057	-0.418299	0.293081
Zn4	Zn	1.002044	-0.593903	0.416099
O5	O	1.063570	-0.506107	0.354597
O6	O	1.228099	-0.441581	0.399821
O7	O	1.108714	-0.570699	0.190091
O8	O	1.018416	-0.271273	0.309421
O9	O	1.228048	-0.570665	0.309410
O10	O	1.108833	-0.271248	0.399827
O11	O	1.018349	-0.441640	0.190096
O12	O	0.899071	-0.441583	0.309388
O13	O	1.018395	-0.570566	0.519088
O14	O	0.899062	-0.570599	0.399769
O15	O	1.108821	-0.441525	0.519113
O16	O	1.108703	-0.740975	0.309377
O17	O	1.018328	-0.740932	0.399763
C18	C	0.872364	-0.506089	0.354576
C19	C	0.790565	-0.506107	0.354584
C20	C	0.602385	-0.573391	0.401587
C21	C	0.525527	-0.573394	0.401596
C22	C	0.525506	-0.438842	0.307623
C23	C	0.602364	-0.438835	0.307618
C24	C	0.640801	-0.506115	0.354599
C25	C	0.487085	-0.506126	0.354613
C26	C	0.403752	-0.506129	0.354623
C27	C	0.724140	-0.506111	0.354590
C28	C	1.063526	-0.779075	0.354582
C29	C	1.063575	-0.895851	0.354600
C30	C	1.110685	-0.950701	0.307588
C31	C	1.110731	-1.060425	0.307610
C32	C	1.016549	-1.060440	0.401659
C33	C	1.016508	-0.950718	0.401639
C34	C	1.157753	-0.895834	0.260548
C35	C	1.204866	-0.950683	0.213532
C36	C	1.204911	-1.060407	0.213554
C37	C	1.157843	-1.115282	0.260593
C38	C	1.255523	-0.506126	0.354618
C39	C	1.337322	-0.506134	0.354628
C40	C	1.063615	-0.506035	0.546550
C41	C	1.063634	-0.506004	0.628349
C42	C	1.063634	-0.232074	0.354628
C43	C	1.063661	-0.115297	0.354642
C44	C	1.063568	-0.506103	0.163391
C45	C	1.063691	-0.505838	0.081592
C46	C	1.110736	-0.438749	0.816557
C47	C	1.110744	-0.438719	0.893416
C48	C	1.016584	-0.573096	0.893379
C49	C	1.016572	-0.573120	0.816521
C50	C	1.063652	-0.505949	0.778112
C51	C	1.063673	-0.505894	0.931829
C52	C	1.063682	-0.505861	1.015162
C53	C	1.063642	-0.505980	0.694773
H54	H	0.633679	-0.628172	0.439843
Br55	Br	0.473393	-0.664697	0.465371
H56	H	0.978227	-1.105127	0.439955
Br57	Br	1.174628	-0.347586	0.764433
Br58	Br	0.952662	-0.664317	0.764341
Br59	Br	0.473337	-0.347538	0.243867
Br60	Br	1.174652	-0.347523	0.945588
H61	H	0.633643	-0.384044	0.269355
H62	H	0.978255	-0.627787	0.924660
H63	H	1.243279	-1.105063	0.175277
Br64	Br	1.157921	-0.746924	0.260741
H65	H	1.243192	-0.905999	0.175238
Br66	Br	1.157569	-1.264193	0.260286
H67	H	0.978147	-0.906059	0.439921
