data_functionalizedCrystal
_audit_creation_method	'MofGen! by Chris Wilmer'
_symmetry_space_group_name_H-M	'P1'
_symmetry_Int_Tables_number	1
_symmetry_cell_setting	triclinic
loop_
_symmetry_equiv_pos_as_xyz
  x,y,z
_cell_length_a	10.723024
_cell_length_b	14.519709
_cell_length_c	9.198806
_cell_angle_alpha	89.995869
_cell_angle_beta	89.996352
_cell_angle_gamma	84.074007
loop_
_atom_site_label
_atom_site_type_symbol
_atom_site_fract_x
_atom_site_fract_y
_atom_site_fract_z
O1	O	1.655978	0.129347	-0.120886
O2	O	1.292710	0.141728	-0.120892
O3	O	1.483976	0.001349	-0.120876
O4	O	1.464713	0.269727	-0.120902
O5	O	1.483960	0.001348	0.120909
O6	O	1.292695	0.141728	0.120893
O7	O	1.655963	0.129347	0.120899
Cu8	Cu	1.474328	0.135538	0.142973
Cu9	Cu	1.474345	0.135538	-0.142966
O10	O	1.464697	0.269727	0.120883
C11	C	1.246211	0.140827	0.000000
C12	C	1.107682	0.138132	-0.000001
C13	C	1.031965	0.216681	-0.000010
C14	C	0.888788	0.213896	-0.000012
C15	C	1.483070	-0.033016	0.000017
C16	C	1.480380	-0.135411	0.000018
C17	C	1.470476	-0.510357	-0.000020
C18	C	1.473227	-0.406035	-0.000009
C19	C	1.475428	-0.322887	0.000000
C20	C	1.478179	-0.218559	0.000008
C21	C	1.702462	0.130248	0.000003
C22	C	1.840991	0.132944	-0.000005
C23	C	1.465603	0.304091	-0.000013
C24	C	1.468293	0.406486	-0.000024
N25	N	1.474324	0.135537	0.344087
N26	N	1.474359	0.135532	-0.344080
C27	C	1.554633	0.076335	0.416290
C28	C	1.554653	0.076332	0.583703
H29	H	0.823726	0.281141	-0.000025
C30	C	1.086778	0.309132	0.000282
C31	C	1.046354	0.359168	0.124687
C32	C	1.096830	0.444336	0.125015
H33	H	1.059509	0.343332	-0.083940
H34	H	1.175720	0.298761	0.000364
H35	H	0.957431	0.369543	0.124591
H36	H	1.073621	0.324997	0.208928
H37	H	1.185772	0.433965	0.125097
H38	H	1.069558	0.478527	0.040788
H39	H	1.069419	0.478293	0.209428
H40	H	1.623371	0.025649	0.354170
C41	C	1.053037	0.045616	0.000078
C42	C	1.150639	-0.026312	0.000120
C43	C	1.100353	-0.111552	0.000212
H44	H	1.002880	0.041058	-0.084214
H45	H	1.002889	0.041137	0.084428
H46	H	1.200766	-0.021835	-0.084221
H47	H	1.200805	-0.021784	0.084406
H48	H	1.050205	-0.116031	0.084562
H49	H	1.050196	-0.116101	-0.084082
H50	H	1.166567	-0.160365	0.000254
H51	H	1.405604	0.186222	0.593837
C52	C	1.646271	0.008596	0.666301
C53	C	1.625531	-0.082119	0.629368
C54	C	1.709918	-0.144545	0.705417
H55	H	1.634186	0.017448	0.767839
H56	H	1.729678	0.018925	0.641379
H57	H	1.542145	-0.092444	0.654300
H58	H	1.637626	-0.091001	0.527843
H59	H	1.793324	-0.134215	0.680495
H60	H	1.697825	-0.135684	0.806952
H61	H	1.695865	-0.206101	0.680359
C62	C	1.382597	0.202971	0.427093
C63	C	1.306001	0.153444	0.514524
C64	C	1.221495	0.215536	0.591021
H65	H	1.332087	0.240141	0.360253
H66	H	1.427748	0.241510	0.486544
H67	H	1.260853	0.114922	0.455079
H68	H	1.356476	0.116278	0.581391
H69	H	1.266646	0.254074	0.650471
H70	H	1.170994	0.252702	0.524170
H71	H	1.169523	0.181941	0.650361
H72	H	0.906045	0.065696	-0.000006
