data_functionalizedCrystal
_audit_creation_method	'MofGen! by Chris Wilmer'
_symmetry_space_group_name_H-M	'P1'
_symmetry_Int_Tables_number	1
_symmetry_cell_setting	triclinic
loop_
_symmetry_equiv_pos_as_xyz
  x,y,z
_cell_length_a	11.026607
_cell_length_b	13.596369
_cell_length_c	11.026607
_cell_angle_alpha	89.996407
_cell_angle_beta	71.413983
_cell_angle_gamma	90.004310
loop_
_atom_site_label
_atom_site_type_symbol
_atom_site_fract_x
_atom_site_fract_y
_atom_site_fract_z
O1	O	1.726735	0.081789	-0.533626
O2	O	2.226735	0.581789	-0.033626
O3	O	1.360155	0.081791	-0.472862
O4	O	1.860155	0.581791	0.027138
O5	O	1.513063	0.081786	-0.319954
O6	O	2.013063	0.581786	0.180046
O7	O	1.573827	0.081793	-0.686534
O8	O	2.073827	0.581793	-0.186534
O9	O	1.513042	-0.081797	-0.319940
O10	O	2.013042	0.418203	0.180060
O11	O	1.360133	-0.081792	-0.472848
O12	O	1.860133	0.418208	0.027152
O13	O	1.726713	-0.081794	-0.533611
O14	O	2.226713	0.418206	-0.033611
Zn15	Zn	1.543420	-0.107765	-0.503227
Zn16	Zn	2.043420	0.392235	-0.003227
Zn17	Zn	1.543449	0.107762	-0.503247
Zn18	Zn	2.043449	0.607762	-0.003247
O19	O	1.573805	-0.081790	-0.686520
O20	O	2.073805	0.418210	-0.186520
C21	C	1.312485	-0.000001	-0.461645
C22	C	1.812485	0.499999	0.038355
C23	C	1.170471	-0.000000	-0.428228
C24	C	1.670471	0.500000	0.071772
C25	C	1.116821	0.000002	-0.520498
C26	C	1.616821	0.500002	-0.020498
C27	C	0.970043	0.000003	-0.485962
C28	C	1.470043	0.500003	0.014038
N29	N	1.543410	-0.254857	-0.503215
N30	N	2.043410	0.245143	-0.003215
C31	C	1.543447	-0.656148	-0.503248
C32	C	2.043447	-0.156148	-0.003248
C33	C	1.543434	-0.544497	-0.503242
C34	C	2.043434	-0.044497	-0.003242
C35	C	1.543429	-0.455506	-0.503233
C36	C	2.043429	0.044494	-0.003233
C37	C	1.543414	-0.343848	-0.503225
C38	C	2.043414	0.156152	-0.003225
C39	C	1.774384	-0.000001	-0.544828
C40	C	2.274384	0.499999	-0.044828
C41	C	1.916398	0.000005	-0.578245
C42	C	2.416398	0.500005	-0.078245
C43	C	1.501843	-0.000004	-0.272287
C44	C	2.001843	0.499996	0.227713
C45	C	1.468426	-0.000000	-0.130273
C46	C	1.968426	0.500000	0.369727
N47	N	1.543467	0.254854	-0.503251
N48	N	2.043467	0.754854	-0.003251
C49	C	1.585026	0.000003	-0.734187
C50	C	2.085026	0.500003	-0.234187
C51	C	1.618443	0.000006	-0.876200
C52	C	2.118443	0.500006	-0.376200
C53	C	1.560695	0.000001	-0.076624
C54	C	2.060695	0.500001	0.423376
C55	C	1.526160	0.000005	0.070155
C56	C	2.026160	0.500005	0.570155
H57	H	1.179555	-0.000001	-0.625061
H58	H	1.679555	0.499999	-0.125061
H59	H	0.907314	0.000026	-0.381393
H60	H	1.407314	0.500026	0.118607
C61	C	1.001126	0.000013	-0.719511
C62	C	1.501126	0.500013	-0.219511
H63	H	1.088663	0.000021	-0.724194
H64	H	1.588663	0.500021	-0.224194
H65	H	0.983494	-0.057027	-0.760745
H66	H	1.483494	0.442973	-0.260745
H67	H	0.983505	0.057070	-0.760738
H68	H	1.483505	0.557070	-0.260738
H69	H	1.107738	0.000023	-0.323666
H70	H	1.607738	0.500023	0.176334
H71	H	1.665258	-0.000006	-0.139357
H72	H	2.165258	0.499994	0.360643
H73	H	1.421590	0.000011	0.132884
H74	H	1.921590	0.500011	0.632884
H75	H	1.723013	0.000079	0.061072
H76	H	2.223013	0.500079	0.561072
H77	H	1.363863	0.000007	-0.067540
H78	H	1.863863	0.500007	0.432460
