data_functionalizedCrystal
_audit_creation_method	'MofGen! by Chris Wilmer'
_symmetry_space_group_name_H-M	'P1'
_symmetry_Int_Tables_number	1
_symmetry_cell_setting	triclinic
loop_
_symmetry_equiv_pos_as_xyz
  x,y,z
_cell_length_a	16.109302
_cell_length_b	8.597304
_cell_length_c	15.186229
_cell_angle_alpha	82.296375
_cell_angle_beta	89.994701
_cell_angle_gamma	84.402578
loop_
_atom_site_label
_atom_site_type_symbol
_atom_site_fract_x
_atom_site_fract_y
_atom_site_fract_z
O1	O	1.104799	0.201736	-0.088570
O2	O	0.862945	0.226840	-0.090468
O3	O	0.988632	-0.014182	-0.072183
O4	O	0.979113	0.442757	-0.106854
O5	O	0.988623	-0.014185	0.074274
O6	O	0.862937	0.226836	0.055990
O7	O	1.104791	0.201732	0.057887
Zn8	Zn	0.983862	0.214284	0.080192
Zn9	Zn	0.983874	0.214288	-0.112772
O10	O	0.979104	0.442754	0.039603
C11	C	0.831958	0.225821	-0.017161
C12	C	0.739637	0.222771	-0.016927
C13	C	0.527233	0.215719	0.063434
C14	C	0.440489	0.212837	0.063649
C15	C	0.440509	0.212849	-0.096027
C16	C	0.527252	0.215719	-0.096241
C17	C	0.570611	0.217162	-0.016509
C18	C	0.397124	0.211410	-0.016079
C19	C	0.303073	0.208285	-0.015846
C20	C	0.664669	0.220284	-0.016741
C21	C	0.987605	-0.072654	0.005480
C22	C	0.984548	-0.246880	0.018695
C23	C	1.135778	0.202751	-0.015422
C24	C	1.228099	0.205800	-0.015661
C25	C	0.980131	0.501226	-0.038062
C26	C	0.983188	0.675451	-0.051283
N27	N	0.983861	0.214280	0.211885
N28	N	0.983882	0.214280	-0.244464
C29	C	1.039534	0.107591	0.445701
C30	C	1.039537	0.107588	0.537891
C31	C	0.928202	0.320973	0.521713
C32	C	0.928196	0.320968	0.429525
C33	C	0.983867	0.214279	0.391522
C34	C	0.983875	0.214280	0.575899
C35	C	0.983878	0.214277	0.675855
C36	C	0.983864	0.214280	0.291559
H37	H	0.562534	0.216894	0.128357
C38	C	0.393518	0.211557	-0.182675
C39	C	0.406386	0.347186	-0.241133
C40	C	0.363121	0.346049	-0.320967
H41	H	0.335627	0.209728	-0.171229
H42	H	0.413346	0.120613	-0.208632
H43	H	0.386554	0.438106	-0.215181
H44	H	0.464269	0.349043	-0.252605
H45	H	0.382949	0.255106	-0.346924
H46	H	0.305232	0.344217	-0.309512
H47	H	0.371852	0.438064	-0.360643
H48	H	0.984358	-0.257756	-0.121308
C49	C	0.867793	0.436640	0.370547
C50	C	0.879689	0.413768	0.281682
C51	C	0.824056	0.520273	0.227329
H52	H	0.877620	0.541461	0.377589
H53	H	0.812151	0.419558	0.386908
H54	H	0.935318	0.430863	0.265327
H55	H	0.869856	0.308968	0.274613
H56	H	0.768414	0.503191	0.243690
H57	H	0.833888	0.625087	0.234378
H58	H	0.832115	0.504759	0.167029
H59	H	1.084863	0.020717	0.414762
H60	H	0.405174	0.211662	0.128746
H61	H	0.983365	-0.313677	0.088724
H62	H	1.084865	0.020711	0.582003
H63	H	0.562572	0.216891	-0.161344
C64	C	0.867861	0.436744	0.563140
C65	C	0.879796	0.413948	0.655468
C66	C	0.824234	0.520588	0.693656
H67	H	0.812199	0.419777	0.549438
H68	H	0.877749	0.541526	0.540124
H69	H	0.869902	0.309192	0.678475
H70	H	0.935447	0.430929	0.669195
H71	H	0.834122	0.625369	0.670641
H72	H	0.768575	0.503611	0.679948
H73	H	0.832329	0.505145	0.756303
