data_functionalizedCrystal
_audit_creation_method	'MofGen! by Chris Wilmer'
_symmetry_space_group_name_H-M	'P1'
_symmetry_Int_Tables_number	1
_symmetry_cell_setting	triclinic
loop_
_symmetry_equiv_pos_as_xyz
  x,y,z
_cell_length_a	11.169417
_cell_length_b	12.759400
_cell_length_c	11.169409
_cell_angle_alpha	90.033109
_cell_angle_beta	90.019824
_cell_angle_gamma	90.015523
loop_
_atom_site_label
_atom_site_type_symbol
_atom_site_fract_x
_atom_site_fract_y
_atom_site_fract_z
Zn1	Zn	1.834926	-0.418157	0.678536
Zn2	Zn	1.834801	-0.593882	0.477851
Zn3	Zn	1.634212	-0.418221	0.477871
Zn4	Zn	1.634205	-0.593797	0.678495
O5	O	1.734536	-0.506014	0.578188
O6	O	2.002859	-0.441476	0.651924
O7	O	1.808143	-0.570643	0.309903
O8	O	1.660893	-0.271191	0.504515
O9	O	2.002767	-0.570581	0.504481
O10	O	1.808357	-0.271144	0.651943
O11	O	1.660771	-0.441585	0.309918
O12	O	1.466262	-0.441502	0.504475
O13	O	1.660880	-0.570435	0.846451
O14	O	1.466256	-0.570497	0.651873
O15	O	1.808350	-0.441393	0.846481
O16	O	1.808135	-0.740892	0.504441
O17	O	1.660758	-0.740829	0.651854
C18	C	1.422711	-0.505998	0.578173
C19	C	1.289311	-0.506017	0.578195
C20	C	1.734465	-0.778981	0.578167
C21	C	1.734544	-0.895758	0.578198
C22	C	1.811295	-0.950506	0.655029
C23	C	1.811363	-1.060230	0.655062
C24	C	1.657925	-1.060449	0.501422
C25	C	1.657852	-0.950727	0.501396
C26	C	1.854272	-1.210051	0.796677
C27	C	1.931042	-1.264802	0.873497
C28	C	2.048117	-1.229092	0.892015
C29	C	2.088445	-1.138632	0.833695
C30	C	2.011682	-1.083886	0.756865
C31	C	1.894591	-1.119595	0.738370
C32	C	1.614955	-0.800904	0.359779
C33	C	1.538197	-0.746156	0.282943
C34	C	1.421120	-0.781864	0.264413
C35	C	1.380796	-0.872328	0.322712
C36	C	1.457554	-0.927076	0.399549
C37	C	1.574630	-0.891360	0.418080
C38	C	2.047578	-0.506031	0.578204
C39	C	2.180978	-0.506038	0.578211
C40	C	1.734628	-0.505897	0.891231
C41	C	1.734667	-0.505848	1.024631
C42	C	1.734640	-0.231981	0.578236
C43	C	1.734684	-0.115204	0.578256
C44	C	1.734513	-0.506054	0.266363
C45	C	1.734707	-0.505808	0.132964
H46	H	1.873741	-0.905753	0.717568
Br47	Br	2.152303	-1.303402	0.996267
Br48	Br	1.876315	-1.387569	0.952637
Br49	Br	2.066402	-0.961129	0.677715
Br50	Br	1.695368	-1.258508	0.771575
Br51	Br	1.773854	-0.752437	0.384922
H52	H	1.595487	-1.105218	0.438890
Br53	Br	2.247351	-1.090184	0.858809
Br54	Br	1.402827	-1.049848	0.478676
Br55	Br	1.221907	-0.920805	0.297554
Br56	Br	1.316955	-0.707574	0.160114
Br57	Br	1.592931	-0.623393	0.203802
