data_functionalizedCrystal
_audit_creation_method	'MofGen! by Chris Wilmer'
_symmetry_space_group_name_H-M	'P1'
_symmetry_Int_Tables_number	1
_symmetry_cell_setting	triclinic
loop_
_symmetry_equiv_pos_as_xyz
  x,y,z
_cell_length_a	16.992694
_cell_length_b	8.597304
_cell_length_c	16.053802
_cell_angle_alpha	84.919063
_cell_angle_beta	87.249047
_cell_angle_gamma	87.974141
loop_
_atom_site_label
_atom_site_type_symbol
_atom_site_fract_x
_atom_site_fract_y
_atom_site_fract_z
O1	O	1.047298	0.324833	-0.092685
O2	O	1.547298	0.824833	0.407315
O3	O	0.818974	0.321199	-0.092448
O4	O	1.318974	0.821199	0.407552
O5	O	0.936864	0.096567	-0.076275
O6	O	1.436864	0.596567	0.423725
O7	O	0.929408	0.549465	-0.108858
O8	O	1.429408	1.049465	0.391142
O9	O	0.930374	0.108877	0.061697
O10	O	1.430374	0.608877	0.561697
O11	O	0.812484	0.333509	0.045524
O12	O	1.312484	0.833509	0.545524
O13	O	1.040809	0.337143	0.045288
O14	O	1.540809	0.837143	0.545288
Zn15	Zn	0.925616	0.337280	0.067312
Zn16	Zn	1.425616	0.837280	0.567312
Zn17	Zn	0.934166	0.321061	-0.114473
Zn18	Zn	1.434166	0.821061	0.385527
O19	O	0.922919	0.561775	0.029114
O20	O	1.422919	1.061775	0.529114
C21	C	0.786465	0.322683	-0.023129
C22	C	1.286465	0.822683	0.476871
C23	C	0.699266	0.308744	-0.022136
C24	C	1.199266	0.808744	0.477864
C25	C	0.650518	0.443222	-0.031810
C26	C	1.150518	0.943222	0.468190
C27	C	0.568585	0.430118	-0.030856
C28	C	1.068585	0.930118	0.469144
C29	C	0.535403	0.282534	-0.020233
C30	C	1.035403	0.782534	0.479767
C31	C	0.584158	0.148047	-0.010556
C32	C	1.084158	0.648047	0.489444
C33	C	0.666088	0.161153	-0.011505
C34	C	1.166088	0.661153	0.488495
C35	C	0.291202	0.228215	-0.016303
C36	C	0.791202	0.728215	0.483697
C37	C	0.209265	0.215119	-0.015358
C38	C	0.709265	0.715119	0.484642
C39	C	0.193698	0.497192	-0.035656
C40	C	0.693698	0.997192	0.464344
C41	C	0.275631	0.510284	-0.036609
C42	C	0.775631	1.010284	0.463391
C43	C	0.324378	0.375797	-0.026927
C44	C	0.824378	0.875797	0.473073
N45	N	0.451655	0.269136	-0.019260
N46	N	0.951655	0.769136	0.480740
N47	N	0.408124	0.389197	-0.027894
N48	N	0.908124	0.889197	0.472106
C49	C	0.932457	0.044503	-0.003103
C50	C	1.432457	0.544503	0.496897
C51	C	0.928985	-0.128973	0.009372
C52	C	1.428985	0.371027	0.509372
C53	C	1.073318	0.335659	-0.024033
C54	C	1.573318	0.835659	0.475967
C55	C	1.160516	0.349597	-0.025032
C56	C	1.660516	0.849597	0.474968
C57	C	0.927325	0.613839	-0.044060
C58	C	1.427325	1.113839	0.455940
C59	C	0.930797	0.787314	-0.056540
C60	C	1.430797	1.287314	0.443460
N61	N	0.919786	0.348349	0.191375
N62	N	1.419786	0.848349	0.691375
N63	N	0.940002	0.309981	-0.238535
N64	N	1.440002	0.809981	0.261465
C65	C	0.969968	0.252806	0.241948
C66	C	1.469968	0.752806	0.741948
C67	C	0.965897	0.260565	0.328796
C68	C	1.465897	0.760565	0.828796
C69	C	0.911649	0.363875	0.365069
C70	C	1.411649	0.863875	0.865069
C71	C	0.861462	0.459422	0.314490
C72	C	1.361462	0.959422	0.814490
C73	C	0.865529	0.451654	0.227644
C74	C	1.365529	0.951654	0.727644
C75	C	0.893882	0.397760	0.624039
C76	C	1.393882	0.897760	1.124039
C77	C	0.889821	0.405524	0.710892
C78	C	1.389821	0.905524	1.210892
C79	C	0.994255	0.206664	0.725192
C80	C	1.494255	0.706664	1.225192
C81	C	0.998321	0.198912	0.638343
C82	C	1.498321	0.698912	1.138343
C83	C	0.948131	0.294453	0.587772
C84	C	1.448131	0.794453	1.087772
N85	N	0.907489	0.371812	0.453842
N86	N	1.407489	0.871812	0.953842
N87	N	0.952288	0.286508	0.499002
N88	N	1.452288	0.786508	0.999002
H89	H	0.677528	0.563400	-0.040461
H90	H	1.177528	1.063400	0.459539
F91	F	0.812116	0.553341	0.173822
F92	F	1.312116	1.053341	0.673822
H93	H	0.528897	0.539624	-0.038734
H94	H	1.028897	1.039624	0.461266
H95	H	0.302642	0.630461	-0.045268
H96	H	0.802642	1.130461	0.454732
H97	H	0.557134	0.027882	-0.001895
H98	H	1.057134	0.527882	0.498105
H99	H	1.042495	0.114789	0.608812
H100	H	1.542495	0.614789	1.108812
F101	F	0.923475	-0.208761	0.095617
F102	F	1.423475	0.291239	0.595617
F103	F	1.027711	0.142856	0.203352
F104	F	1.527711	0.642856	0.703352
H105	H	0.935002	-0.151643	-0.122518
H106	H	1.435002	0.348357	0.377482
F107	F	0.141813	0.640312	-0.045958
F108	F	0.641813	1.140312	0.454042
H109	H	1.006758	0.182765	0.369973
H110	H	1.506758	0.682765	0.869973
F111	F	0.173951	0.058035	-0.004037
F112	F	0.673951	0.558035	0.495963
H113	H	1.035117	0.128877	0.766375
H114	H	1.535117	0.628877	1.266375
F115	F	0.832079	0.515491	0.749490
F116	F	1.332079	1.015491	1.249490
H117	H	0.330882	0.118706	-0.008419
H118	H	0.830882	0.618706	0.491581
H119	H	0.853017	0.475556	0.582871
H120	H	1.353017	0.975556	1.082871
H121	H	0.817288	0.543534	0.344029
H122	H	1.317288	1.043534	0.844029
H123	H	0.705779	0.051647	-0.003627
H124	H	1.205779	0.551647	0.496373
