data_functionalizedCrystal
_audit_creation_method	'MofGen! by Chris Wilmer'
_symmetry_space_group_name_H-M	'P1'
_symmetry_Int_Tables_number	1
_symmetry_cell_setting	triclinic
loop_
_symmetry_equiv_pos_as_xyz
  x,y,z
_cell_length_a	15.995363
_cell_length_b	15.072220
_cell_length_c	14.044190
_cell_angle_alpha	90.005209
_cell_angle_beta	91.655414
_cell_angle_gamma	89.990650
loop_
_atom_site_label
_atom_site_type_symbol
_atom_site_fract_x
_atom_site_fract_y
_atom_site_fract_z
O1	O	-1.120121	0.073727	0.122230
O2	O	-0.877474	0.073745	0.137305
O3	O	-0.995152	0.073719	-0.008218
O4	O	-1.002443	0.073753	0.267752
O5	O	-0.995121	-0.073846	-0.008210
O6	O	-0.877443	-0.073821	0.137313
O7	O	-1.120090	-0.073838	0.122238
Zn8	Zn	-0.998761	-0.097258	0.129777
Zn9	Zn	-0.998802	0.097165	0.129766
O10	O	-1.002412	-0.073812	0.267760
C11	C	-0.846217	-0.000036	0.136684
C12	C	-0.753127	-0.000030	0.134809
C13	C	-0.414878	-0.000053	0.128077
C14	C	-0.454569	-0.000394	0.024436
C15	C	-0.551399	-0.000055	0.026311
C16	C	-0.582688	-0.000042	0.131416
C17	C	-0.545437	0.084227	0.182530
C18	C	-0.448607	0.084290	0.179921
C19	C	-0.448393	-0.083518	0.182072
C20	C	-0.545336	-0.084625	0.182052
C21	C	-0.677526	-0.000033	0.133309
C22	C	-0.320040	-0.000056	0.126187
C23	C	-0.151348	-0.000058	0.122846
C24	C	-0.244439	-0.000065	0.124684
N25	N	-0.998739	-0.229947	0.129783
C26	C	-0.998800	-0.589149	0.129762
C27	C	-0.935582	-0.551528	0.207368
C28	C	-0.935762	-0.448702	0.207651
C29	C	-0.998769	-0.410945	0.129773
C30	C	-1.087748	-0.448239	0.151379
C31	C	-1.087402	-0.551097	0.151931
C32	C	-0.973802	-0.551260	0.030321
C33	C	-0.971847	-0.448396	0.030984
C34	C	-0.998757	-0.310231	0.129777
C35	C	-0.998819	-0.689862	0.129760
C36	C	-0.991947	-0.000066	-0.043528
C37	C	-0.982434	-0.000073	-0.148755
N38	N	-0.998831	0.229854	0.129752
C39	C	-1.032512	-0.000042	-0.399039
C40	C	-0.965055	-0.000043	-0.341413
C41	C	-0.974727	-0.000060	-0.234208
C42	C	-1.022842	-0.000025	-0.506253
C43	C	-1.005616	-0.000025	0.303071
C44	C	-1.015130	-0.000012	0.408297
H45	H	-0.432939	-0.060828	-0.016990
Cl46	Cl	-0.590640	-0.093319	-0.035725
H47	H	-0.909927	-0.577249	0.009546
Cl48	Cl	-0.585165	0.181045	0.127710
Cl49	Cl	-0.833528	-0.589732	0.187807
H50	H	-0.569852	-0.146967	0.144739
Cl51	Cl	-1.037450	-0.408735	-0.062358
H52	H	-0.900039	-0.000034	-0.372592
Cl53	Cl	-1.132886	-0.000063	-0.350904
H54	H	-0.576247	0.060449	-0.014146
Cl55	Cl	-0.416057	0.181533	0.122357
Cl56	Cl	-0.419577	0.092374	-0.039247
H57	H	-0.565332	0.087370	0.259748
Cl58	Cl	-0.407593	0.090210	0.297397
H59	H	-0.425313	-0.147393	0.148191
Cl60	Cl	-1.162591	-0.410482	0.066433
Cl61	Cl	-0.577890	-0.092468	0.300394
H62	H	-0.906355	-0.424022	0.014587
H63	H	-0.422341	-0.084080	0.258486
Cl64	Cl	-0.961563	-0.410681	0.321594
Cl65	Cl	-0.834004	-0.409771	0.187837
Cl66	Cl	-0.961138	-0.591387	0.320664
H67	H	-1.019817	-0.575588	-0.027430
H68	H	-1.108956	-0.422462	0.223074
H69	H	-1.108303	-0.575070	0.224453
H70	H	-1.136307	-0.575981	0.097636
