data_functionalizedCrystal
_audit_creation_method	'MofGen! by Chris Wilmer'
_symmetry_space_group_name_H-M	'P1'
_symmetry_Int_Tables_number	1
_symmetry_cell_setting	triclinic
loop_
_symmetry_equiv_pos_as_xyz
  x,y,z
_cell_length_a	16.992695
_cell_length_b	16.974897
_cell_length_c	14.586319
_cell_angle_alpha	93.655081
_cell_angle_beta	90.002484
_cell_angle_gamma	92.972379
loop_
_atom_site_label
_atom_site_type_symbol
_atom_site_fract_x
_atom_site_fract_y
_atom_site_fract_z
O1	O	-0.099985	1.055450	0.154456
O2	O	-0.112701	0.826050	0.137453
O3	O	0.007799	0.939830	0.145895
O4	O	-0.220484	0.941669	0.146015
O5	O	0.007801	0.939822	-0.006587
O6	O	-0.112699	0.826041	-0.015028
O7	O	-0.099983	1.055441	0.001974
Cu8	Cu	-0.106341	0.940740	-0.020450
Cu9	Cu	-0.106343	0.940750	0.159877
O10	O	-0.220483	0.941661	-0.006467
C11	C	-0.112214	0.796557	0.059027
C12	C	-0.110757	0.708689	0.052516
C13	C	-0.110076	0.667406	0.132567
C14	C	-0.108720	0.584845	0.126435
C15	C	-0.108039	0.543568	0.040251
C16	C	-0.108723	0.584856	-0.039807
C17	C	-0.110085	0.667416	-0.033674
C18	C	-0.103972	0.296650	0.012996
C19	C	-0.102608	0.214085	0.006869
C20	C	-0.102606	0.214079	0.173112
C21	C	-0.103963	0.296640	0.179237
C22	C	-0.104651	0.337921	0.099179
N23	N	-0.106651	0.459176	0.033981
N24	N	-0.106045	0.422311	0.105450
C25	C	-0.249694	0.944031	0.069947
C26	C	-0.336731	0.951091	0.070465
C27	C	-0.387041	0.882976	0.065417
C28	C	-0.468821	0.889614	0.065920
C29	C	-0.500289	0.964367	0.071465
C30	C	-0.449972	1.032487	0.076516
C31	C	-0.368194	1.025848	0.076019
C32	C	-0.743858	0.991882	0.073525
C33	C	-0.825643	0.998515	0.074019
C34	C	-0.844486	0.855641	0.063425
C35	C	-0.762705	0.849009	0.062923
C36	C	-0.712396	0.917129	0.067979
N37	N	-0.583880	0.971154	0.071977
N38	N	-0.628806	0.910341	0.067473
C39	C	0.037010	0.937460	0.069482
C40	C	0.124047	0.930400	0.068971
C41	C	-0.100470	1.084934	0.080403
C42	C	-0.101926	1.172802	0.086920
N43	N	-0.106339	0.940739	-0.147281
C44	C	-0.052999	0.991140	-0.378549
C45	C	-0.052997	0.991142	-0.474530
C46	C	-0.159681	0.890351	-0.482017
C47	C	-0.159678	0.890346	-0.386038
C48	C	-0.106338	0.940744	-0.334306
C49	C	-0.106339	0.940752	-0.526266
C50	C	-0.106337	0.940754	-0.630333
C51	C	-0.106339	0.940742	-0.230232
N52	N	-0.106339	0.940758	0.286710
H53	H	-0.110627	0.701008	0.202748
O54	O	-0.483906	1.113117	0.082498
H55	H	-0.549224	1.106292	0.081986
H56	H	-0.102047	0.180458	0.238290
O57	O	-0.108354	0.540136	-0.132659
H58	H	-0.054447	0.506012	-0.139348
O59	O	-0.728764	0.768382	0.056939
H60	H	-0.777488	0.722131	0.053517
O61	O	-0.110827	0.711942	-0.120019
H62	H	-0.058042	0.753233	-0.120931
H63	H	-0.108165	0.551236	0.191622
O64	O	0.004553	1.045475	-0.322757
H65	H	-0.004403	1.037005	-0.248583
H66	H	-0.885456	0.800182	0.059309
O67	O	-0.101882	0.169559	-0.086091
H68	H	-0.102598	0.212133	-0.140731
H69	H	-0.851260	1.059391	0.078534
O70	O	-0.217213	0.835991	-0.338307
H71	H	-0.254312	0.800956	-0.390402
O72	O	0.004522	1.045507	-0.522252
H73	H	0.041604	1.080555	-0.470151
H74	H	-0.361427	0.822104	0.060891
O75	O	-0.104700	0.341161	0.272193
H76	H	-0.104005	0.298583	0.326829
H77	H	-0.104527	0.330251	-0.052193
H78	H	-0.509781	0.834147	0.061812
O79	O	-0.689600	1.065350	0.078958
H80	H	-0.725223	1.118443	0.082881
H81	H	-0.327231	1.081315	0.080134
H82	H	-0.203110	0.849319	-0.524146
