data_functionalizedCrystal
_audit_creation_method	'MofGen! by Chris Wilmer'
_symmetry_space_group_name_H-M	'P1'
_symmetry_Int_Tables_number	1
_symmetry_cell_setting	triclinic
loop_
_symmetry_equiv_pos_as_xyz
  x,y,z
_cell_length_a	10.723023
_cell_length_b	14.519709
_cell_length_c	9.798715
_cell_angle_alpha	90.004344
_cell_angle_beta	90.003242
_cell_angle_gamma	84.073846
loop_
_atom_site_label
_atom_site_type_symbol
_atom_site_fract_x
_atom_site_fract_y
_atom_site_fract_z
O1	O	1.655978	0.129344	0.113480
O2	O	1.292710	0.141726	0.113486
O3	O	1.483976	0.001346	0.113471
O4	O	1.464713	0.269724	0.113496
O5	O	1.483962	0.001345	-0.113511
O6	O	1.292696	0.141725	-0.113496
O7	O	1.655964	0.129343	-0.113502
Zn8	Zn	1.474328	0.135534	-0.149537
Zn9	Zn	1.474346	0.135535	0.149522
O10	O	1.464698	0.269723	-0.113486
C11	C	1.246212	0.140825	-0.000004
C12	C	1.107683	0.138129	-0.000002
C13	C	1.045914	0.136927	-0.117585
C14	C	0.902737	0.134141	-0.117585
C15	C	1.483071	-0.033019	-0.000020
C16	C	1.480381	-0.135414	-0.000021
C17	C	1.470477	-0.510360	0.000015
C18	C	1.473227	-0.406038	0.000004
C19	C	1.475428	-0.322890	-0.000005
C20	C	1.478179	-0.218562	-0.000012
C21	C	1.702462	0.130245	-0.000008
C22	C	1.840992	0.132940	-0.000001
C23	C	1.465603	0.304088	0.000008
C24	C	1.468293	0.406483	0.000018
N25	N	1.474324	0.135533	-0.353637
C26	C	1.546589	0.189009	-0.421411
C27	C	1.546609	0.189008	-0.578573
N28	N	1.474360	0.135530	0.353621
H29	H	1.054567	0.137094	0.100664
C30	C	1.306550	0.129084	-0.485577
C31	C	1.390823	0.073721	-0.567720
H32	H	1.254982	0.090925	-0.437006
H33	H	1.255630	0.171234	-0.541332
H34	H	1.351888	0.162630	-0.422667
H35	H	1.345485	0.040181	-0.630637
H36	H	1.441749	0.031556	-0.511960
H37	H	1.608471	0.234796	-0.636857
H38	H	1.099031	0.137955	-0.218251
H39	H	1.412474	0.089746	-0.411965
H40	H	0.849617	0.133112	-0.218252
H41	H	1.608448	0.234789	-0.363082
C42	C	0.828199	0.132700	0.244631
C43	C	0.912679	0.134341	0.135911
H44	H	0.872464	0.133572	0.328536
H45	H	0.786828	0.078028	0.239555
H46	H	0.768024	0.185400	0.239547
H47	H	0.972849	0.081637	0.140989
H48	H	0.954071	0.189019	0.140990
