data_functionalizedCrystal
_audit_creation_method	'MofGen! by Chris Wilmer'
_symmetry_space_group_name_H-M	'P1'
_symmetry_Int_Tables_number	1
_symmetry_cell_setting	triclinic
loop_
_symmetry_equiv_pos_as_xyz
  x,y,z
_cell_length_a	16.109302
_cell_length_b	14.853576
_cell_length_c	15.186229
_cell_angle_alpha	89.997313
_cell_angle_beta	89.994701
_cell_angle_gamma	83.550132
loop_
_atom_site_label
_atom_site_type_symbol
_atom_site_fract_x
_atom_site_fract_y
_atom_site_fract_z
O1	O	1.103296	0.115883	-0.073266
O2	O	1.603296	0.615883	0.426734
O3	O	0.861255	0.130304	-0.073259
O4	O	1.361255	0.630304	0.426741
O5	O	0.988737	-0.008146	-0.073259
O6	O	1.488737	0.491854	0.426741
O7	O	0.975814	0.254333	-0.073266
O8	O	1.475814	0.754333	0.426734
O9	O	0.988729	-0.008148	0.073198
O10	O	1.488729	0.491852	0.573198
O11	O	0.861247	0.130302	0.073198
O12	O	1.361247	0.630302	0.573198
O13	O	1.103288	0.115881	0.073191
O14	O	1.603288	0.615881	0.573191
Zn15	Zn	0.982266	0.123091	0.096448
Zn16	Zn	1.482266	0.623091	0.596448
Zn17	Zn	0.982277	0.123094	-0.096516
Zn18	Zn	1.482277	0.623094	0.403484
O19	O	0.975806	0.254331	0.073192
O20	O	1.475806	0.754331	0.573192
C21	C	0.830275	0.129719	-0.000029
C22	C	1.330275	0.629719	0.499971
C23	C	0.737977	0.127967	-0.000027
C24	C	1.237977	0.627967	0.499973
C25	C	0.988146	-0.041735	-0.000032
C26	C	1.488146	0.458265	0.499968
C27	C	0.986388	-0.141815	-0.000034
C28	C	1.486388	0.358185	0.499966
C29	C	0.525626	0.123916	0.079799
C30	C	1.025626	0.623916	0.579799
C31	C	0.438904	0.122260	0.079796
C32	C	0.938904	0.622260	0.579796
C33	C	0.438923	0.122267	-0.079880
C34	C	0.938923	0.622267	0.420120
C35	C	0.525645	0.123916	-0.079876
C36	C	1.025645	0.623916	0.420124
C37	C	0.568994	0.124745	-0.000034
C38	C	1.068994	0.624745	0.499966
C39	C	0.395549	0.121440	-0.000041
C40	C	0.895549	0.621440	0.499959
C41	C	0.301521	0.119645	-0.000045
C42	C	0.801521	0.619645	0.499955
C43	C	0.663028	0.126538	-0.000030
C44	C	1.163028	0.626538	0.499970
C45	C	0.985565	-0.188828	-0.079872
C46	C	1.485565	0.311172	0.420128
C47	C	0.985565	-0.188843	0.079801
C48	C	1.485565	0.311157	0.579801
C49	C	0.983917	-0.282875	0.079801
C50	C	1.483917	0.217125	0.579801
C51	C	0.983094	-0.329887	-0.000037
C52	C	1.483094	0.170113	0.499963
C53	C	0.983919	-0.282868	-0.079875
C54	C	1.483919	0.217132	0.420125
C55	C	0.983101	-0.329902	0.159638
C56	C	1.483101	0.170098	0.659638
C57	C	0.981454	-0.423939	0.159641
C58	C	1.481454	0.076061	0.659641
C59	C	0.980625	-0.470953	0.079802
C60	C	1.480625	0.029047	0.579802
C61	C	0.981449	-0.423928	-0.000039
C62	C	1.481449	0.076072	0.499961
C63	C	0.980626	-0.470940	-0.079877
C64	C	1.480626	0.029060	0.420123
C65	C	0.981444	-0.423916	-0.159719
C66	C	1.481444	0.076084	0.340281
C67	C	0.983090	-0.329882	-0.159713
C68	C	1.483090	0.170118	0.340287
C69	C	0.978978	-0.564987	0.079797
C70	C	1.478978	-0.064987	0.579797
C71	C	0.978980	-0.564981	-0.079879
C72	C	1.478980	-0.064981	0.420121
C73	C	1.134268	0.116467	-0.000040
C74	C	1.634268	0.616467	0.499960
C75	C	1.226566	0.118218	-0.000049
C76	C	1.726566	0.618218	0.499951
C77	C	0.976397	0.287920	-0.000038
C78	C	1.476397	0.787920	0.499962
C79	C	0.978155	0.388000	-0.000041
C80	C	1.478155	0.888000	0.499959
N81	N	0.982264	0.123089	0.228141
N82	N	1.482264	0.623089	0.728141
N83	N	0.982285	0.123089	-0.228208
N84	N	1.482285	0.623089	0.271792
C85	C	1.038733	0.061804	0.453863
C86	C	1.538733	0.561804	0.953863
C87	C	1.038735	0.061802	0.546053
C88	C	1.538735	0.561802	1.046053
C89	C	0.925811	0.184377	0.546062
C90	C	1.425811	0.684377	1.046062
C91	C	0.925805	0.184374	0.453874
C92	C	1.425805	0.684374	0.953874
C93	C	0.982271	0.123089	0.407777
C94	C	1.482271	0.623089	0.907777
C95	C	0.982279	0.123089	0.592155
C96	C	1.482279	0.623089	1.092155
C97	C	0.982281	0.123088	0.692111
C98	C	1.482281	0.623088	1.192111
C99	C	0.982267	0.123089	0.307815
C100	C	1.482267	0.623089	0.807815
H101	H	0.560918	0.124591	0.144811
H102	H	1.060918	0.624591	0.644811
H103	H	0.879839	0.234276	0.583604
H104	H	1.379839	0.734276	1.083604
C105	C	0.573353	0.124823	-0.167703
C106	C	1.073353	0.624823	0.332297
N107	N	0.609287	0.125502	-0.233852
N108	N	1.109287	0.625502	0.266148
C109	C	0.986471	-0.137102	-0.167695
C110	C	1.486471	0.362898	0.332305
N111	N	0.987156	-0.098142	-0.233843
N112	N	1.487156	0.401858	0.266157
C113	C	0.391202	0.121358	0.167618
C114	C	0.891202	0.621358	0.667618
N115	N	0.355273	0.120682	0.233770
N116	N	0.855273	0.620682	0.733770
H117	H	1.084709	0.011900	0.416333
H118	H	1.584709	0.511900	0.916333
H119	H	0.403618	0.121593	-0.144885
H120	H	0.903618	0.621593	0.355115
C121	C	0.978091	-0.616689	-0.167709
C122	C	1.478091	-0.116689	0.332291
N123	N	0.977429	-0.655636	-0.233863
N124	N	1.477429	-0.155636	0.266137
H125	H	0.980779	-0.462207	-0.224723
H126	H	1.480779	0.037793	0.275277
H127	H	0.983760	-0.291587	-0.224716
H128	H	1.483760	0.208413	0.275284
C129	C	0.986467	-0.137126	0.167618
C130	C	1.486467	0.362874	0.667618
N131	N	0.987141	-0.098168	0.233765
N132	N	1.487141	0.401832	0.733765
H133	H	1.084711	0.011897	0.583574
H134	H	1.584711	0.511897	1.083574
H135	H	0.978315	-0.603270	0.144803
H136	H	1.478315	-0.103270	0.644803
H137	H	0.983777	-0.291618	0.224637
H138	H	1.483777	0.208382	0.724637
C139	C	0.863727	0.251836	0.403177
C140	C	1.363727	0.751836	0.903177
N141	N	0.816984	0.302660	0.364991
N142	N	1.316984	0.802660	0.864991
H143	H	0.980787	-0.462218	0.224654
H144	H	1.480787	0.037782	0.724654
