data_functionalizedCrystal
_audit_creation_method	'MofGen! by Chris Wilmer'
_symmetry_space_group_name_H-M	'P1'
_symmetry_Int_Tables_number	1
_symmetry_cell_setting	triclinic
loop_
_symmetry_equiv_pos_as_xyz
  x,y,z
_cell_length_a	16.109301
_cell_length_b	16.992695
_cell_length_c	15.186229
_cell_angle_alpha	89.995943
_cell_angle_beta	89.999362
_cell_angle_gamma	87.064852
loop_
_atom_site_label
_atom_site_type_symbol
_atom_site_fract_x
_atom_site_fract_y
_atom_site_fract_z
O1	O	1.109856	0.100784	-0.073174
O2	O	0.868631	0.113326	-0.073188
O3	O	0.988276	-0.007088	-0.073174
O4	O	0.990210	0.221197	-0.073188
O5	O	0.988268	-0.007089	0.073284
O6	O	0.868622	0.113324	0.073270
O7	O	1.109847	0.100782	0.073284
Zn8	Zn	0.989233	0.107053	0.096530
Zn9	Zn	0.989245	0.107055	-0.096434
O10	O	0.990202	0.221196	0.073270
C11	C	0.837618	0.112817	0.000039
C12	C	0.745221	0.111294	0.000034
C13	C	0.527480	0.179203	0.000040
C14	C	0.440664	0.177766	0.000046
C15	C	0.451005	0.034899	0.000051
C16	C	0.537819	0.036337	0.000051
C17	C	0.576055	0.108492	0.000042
C18	C	0.402424	0.105616	0.000047
C19	C	0.308294	0.104057	0.000053
C20	C	0.670191	0.110051	0.000037
C21	C	0.985784	-0.036300	0.000055
C22	C	0.978361	-0.123343	0.000054
C23	C	1.049987	-0.173601	0.000059
C24	C	1.043007	-0.255386	0.000050
C25	C	0.964400	-0.286911	0.000043
C26	C	0.892768	-0.236645	0.000035
C27	C	0.899749	-0.154862	0.000038
C28	C	0.935467	-0.530501	0.000029
C29	C	0.928491	-0.612291	0.000029
C30	C	1.078731	-0.631026	0.000043
C31	C	1.085704	-0.549240	0.000051
C32	C	1.014073	-0.498982	0.000038
N33	N	0.957263	-0.370508	0.000037
N34	N	1.021210	-0.415387	0.000038
C35	C	1.140860	0.101291	0.000055
C36	C	1.233257	0.102814	0.000054
C37	C	0.992694	0.250408	0.000039
C38	C	1.000118	0.337451	0.000034
N39	N	0.989232	0.107051	0.228223
N40	N	0.989253	0.107051	-0.228127
C41	C	1.042231	0.053750	0.453952
C42	C	1.042234	0.053748	0.546141
C43	C	0.936247	0.160355	0.546138
C44	C	0.936241	0.160352	0.453950
C45	C	0.989238	0.107051	0.407859
C46	C	0.989246	0.107051	0.592237
C47	C	0.989249	0.107050	0.692193
C48	C	0.989235	0.107051	0.307897
H49	H	0.558608	0.237956	0.000039
H50	H	0.419863	-0.023846	0.000064
H51	H	0.893084	0.203756	0.416419
H52	H	0.577371	-0.021248	0.000055
C53	C	0.877959	0.218991	0.596838
C54	C	0.878010	0.219043	0.698241
C55	C	0.819723	0.277683	0.748939
C56	C	0.761384	0.336271	0.698233
C57	C	0.761331	0.336220	0.596824
C58	C	0.819619	0.277580	0.546127
H59	H	0.921198	0.175671	0.735782
H60	H	0.819762	0.277720	0.824008
H61	H	0.718236	0.379680	0.735762
H62	H	0.718143	0.379592	0.559283
H63	H	0.819579	0.277544	0.471057
H64	H	0.401118	0.235347	0.000046
H65	H	0.828765	-0.262319	0.000023
C66	C	1.121799	-0.310668	0.000059
C67	C	1.184720	-0.307158	0.076120
C68	C	1.263517	-0.362439	0.076126
C69	C	1.279395	-0.421229	0.000072
C70	C	1.216472	-0.424740	-0.075995
C71	C	1.137675	-0.369460	-0.076002
H72	H	1.172968	-0.263636	0.132425
H73	H	1.310097	-0.359839	0.132436
H74	H	1.337725	-0.462150	0.000076
H75	H	1.228224	-0.468262	-0.132300
H76	H	1.091095	-0.372060	-0.132312
C77	C	1.157521	-0.686311	0.000046
C78	C	1.173381	-0.745121	0.076094
C79	C	1.252175	-0.800406	0.076093
C80	C	1.315109	-0.796881	0.000044
C81	C	1.299250	-0.738069	-0.076010
C82	C	1.220456	-0.682784	-0.076008
H83	H	1.126792	-0.747732	0.132395
H84	H	1.263914	-0.843942	0.132393
H85	H	1.373437	-0.837807	0.000043
H86	H	1.345840	-0.735458	-0.132311
H87	H	1.208717	-0.639247	-0.132309
H88	H	1.113997	-0.147941	0.000071
H89	H	0.864477	-0.637954	0.000037
C90	C	0.820960	-0.099573	0.000035
C91	C	0.805106	-0.040769	-0.076020
C92	C	0.726315	0.014519	-0.076028
C93	C	0.663377	0.011004	0.000019
C94	C	0.679229	-0.047803	0.076079
C95	C	0.758021	-0.103091	0.076087
H96	H	0.851698	-0.038165	-0.132319
H97	H	0.714580	0.058052	-0.132333
H98	H	0.605051	0.051932	0.000013
H99	H	0.632637	-0.050407	0.132378
H100	H	0.769755	-0.146624	0.132392
C101	C	0.856671	-0.475228	0.000031
C102	C	0.793737	-0.478744	-0.076016
C103	C	0.714936	-0.423469	-0.076009
C104	C	0.699069	-0.364677	0.000046
C105	C	0.762005	-0.361158	0.076099
C106	C	0.840806	-0.416434	0.076092
H107	H	0.805481	-0.522268	-0.132321
H108	H	0.668346	-0.426074	-0.132309
H109	H	0.640735	-0.323759	0.000051
H110	H	0.750260	-0.317635	0.132404
H111	H	0.887395	-0.413829	0.132392
C112	C	1.100519	-0.004886	0.403251
C113	C	1.158806	-0.063519	0.453957
C114	C	1.217094	-0.122159	0.403260
C115	C	1.217094	-0.122166	0.301857
C116	C	1.158805	-0.063531	0.251145
C117	C	1.100517	-0.004891	0.301842
H118	H	1.158808	-0.063516	0.529027
H119	H	1.260244	-0.165565	0.440801
H120	H	1.260242	-0.165575	0.264328
H121	H	1.158803	-0.063534	0.176076
H122	H	1.057367	0.038514	0.264302
H123	H	1.085384	0.010345	0.583667
H124	H	1.149714	-0.523580	0.000057
