data_functionalizedCrystal
_audit_creation_method	'MofGen! by Chris Wilmer'
_symmetry_space_group_name_H-M	'P1'
_symmetry_Int_Tables_number	1
_symmetry_cell_setting	triclinic
loop_
_symmetry_equiv_pos_as_xyz
  x,y,z
_cell_length_a	29.839134
_cell_length_b	29.839131
_cell_length_c	29.839126
_cell_angle_alpha	89.970347
_cell_angle_beta	89.964260
_cell_angle_gamma	90.030088
loop_
_atom_site_label
_atom_site_type_symbol
_atom_site_fract_x
_atom_site_fract_y
_atom_site_fract_z
Zn1	Zn	0.686800	-0.178959	-0.254101
Zn2	Zn	1.020133	0.154375	0.079232
Zn3	Zn	1.353467	0.487708	0.412565
Zn4	Zn	0.686722	-0.254076	-0.178961
Zn5	Zn	1.020056	0.079257	0.154372
Zn6	Zn	1.353389	0.412590	0.487706
Zn7	Zn	0.611665	-0.178955	-0.178971
Zn8	Zn	0.944998	0.154379	0.154363
Zn9	Zn	1.278331	0.487712	0.487696
Zn10	Zn	0.611639	-0.254056	-0.254049
Zn11	Zn	0.944972	0.079278	0.079284
Zn12	Zn	1.278305	0.412611	0.412617
O13	O	0.649206	-0.216511	-0.216521
O14	O	0.982540	0.116822	0.116813
O15	O	1.315873	0.450155	0.450146
O16	O	0.749657	-0.188934	-0.244151
O17	O	1.082990	0.144400	0.089182
O18	O	1.416323	0.477733	0.422515
O19	O	0.676744	-0.244118	-0.116095
O20	O	1.010077	0.089215	0.217238
O21	O	1.343411	0.422548	0.550571
O22	O	0.621675	-0.116088	-0.188963
O23	O	0.955008	0.217245	0.144371
O24	O	1.288342	0.550579	0.477704
O25	O	0.749600	-0.244122	-0.188946
O26	O	1.082933	0.089211	0.144387
O27	O	1.416266	0.422544	0.477721
O28	O	0.676877	-0.116091	-0.244161
O29	O	1.010210	0.217242	0.089173
O30	O	1.343543	0.550576	0.422506
O31	O	0.621600	-0.188927	-0.116102
O32	O	0.954933	0.144407	0.217231
O33	O	1.288266	0.477740	0.550564
O34	O	0.548794	-0.188906	-0.188912
O35	O	0.882127	0.144427	0.144421
O36	O	1.215461	0.477760	0.477754
O37	O	0.621631	-0.244087	-0.316923
O38	O	0.954964	0.089246	0.016410
O39	O	1.288297	0.422580	0.349743
O40	O	0.548775	-0.244083	-0.244073
O41	O	0.882108	0.089250	0.089261
O42	O	1.215442	0.422584	0.422594
O43	O	0.676851	-0.188914	-0.316961
O44	O	1.010185	0.144420	0.016372
O45	O	1.343518	0.477753	0.349705
O46	O	0.676719	-0.316941	-0.188896
O47	O	1.010052	0.016392	0.144437
O48	O	1.343385	0.349726	0.477771
O49	O	0.621555	-0.316926	-0.244063
O50	O	0.954888	0.016408	0.089270
O51	O	1.288222	0.349741	0.422604
C52	C	0.532484	-0.216492	-0.216488
C53	C	0.865817	0.116841	0.116845
C54	C	1.199150	0.450174	0.450178
C55	C	0.482549	-0.216495	-0.216485
C56	C	0.815883	0.116838	0.116848
C57	C	1.149216	0.450172	0.450182
C58	C	0.649138	-0.333234	-0.216483
C59	C	0.982471	0.000099	0.116851
C60	C	1.315805	0.333433	0.450184
C61	C	0.649150	-0.383168	-0.216482
C62	C	0.982483	-0.049835	0.116852
C63	C	1.315816	0.283498	0.450185
C64	C	0.172905	-0.245284	-0.245207
C65	C	0.506239	0.088049	0.088126
C66	C	0.839572	0.421382	0.421459
C67	C	-0.014768	-0.245297	-0.245227
C68	C	0.318566	0.088036	0.088106
C69	C	0.651899	0.421370	0.421439
O70	O	-0.039033	-0.269754	-0.269629
O71	O	0.294300	0.063580	0.063705
O72	O	0.627634	0.396913	0.397038
N73	N	-0.038236	-0.216528	-0.216554
N74	N	0.295098	0.116805	0.116779
N75	N	0.628431	0.450139	0.450112
C76	C	-0.014783	-0.187752	-0.187877
C77	C	0.318551	0.145582	0.145457
C78	C	0.651884	0.478915	0.478790
O79	O	-0.039050	-0.163279	-0.163492
O80	O	0.294283	0.170055	0.169841
O81	O	0.627617	0.503388	0.503174
C82	C	0.172890	-0.187737	-0.187859
C83	C	0.506223	0.145596	0.145474
C84	C	0.839556	0.478930	0.478807
C85	C	0.196355	-0.216511	-0.216531
C86	C	0.529689	0.116822	0.116803
C87	C	0.863022	0.450156	0.450136
C88	C	0.196371	-0.274056	-0.273877
C89	C	0.529705	0.059278	0.059457
C90	C	0.863038	0.392611	0.392790
C91	C	0.243287	-0.274054	-0.273870
C92	C	0.576620	0.059279	0.059464
C93	C	0.909953	0.392613	0.392797
C94	C	0.266736	-0.245281	-0.245193
C95	C	0.600070	0.088052	0.088140
C96	C	0.933403	0.421386	0.421473
C97	C	0.243271	-0.216509	-0.216524
C98	C	0.576604	0.116824	0.116810
C99	C	0.909937	0.450157	0.450143
C100	C	0.196342	-0.158959	-0.159184
C101	C	0.529675	0.174375	0.174149
C102	C	0.863008	0.507708	0.507482
C103	C	0.243263	-0.158957	-0.159183
C104	C	0.576596	0.174377	0.174150
C105	C	0.909929	0.507710	0.507483
C106	C	0.266728	-0.187731	-0.187855
C107	C	0.600062	0.145602	0.145479
C108	C	0.933395	0.478936	0.478812
C109	C	0.313636	-0.187734	-0.187840
C110	C	0.646969	0.145599	0.145493
C111	C	0.980303	0.478932	0.478826
N112	N	0.337104	-0.216504	-0.216513
N113	N	0.670437	0.116830	0.116820
N114	N	1.003771	0.450163	0.450154
C115	C	0.313654	-0.245277	-0.245189
C116	C	0.646988	0.088057	0.088144
C117	C	0.980321	0.421390	0.421477
C118	C	-0.113313	-0.187762	-0.187887
C119	C	0.220020	0.145571	0.145446
C120	C	0.553353	0.478905	0.478779
C121	C	-0.160231	-0.187766	-0.187891
C122	C	0.173102	0.145567	0.145442
C123	C	0.506436	0.478901	0.478776
C124	C	-0.160213	-0.245311	-0.245242
C125	C	0.173121	0.088022	0.088091
C126	C	0.506454	0.421356	0.421425
C127	C	-0.113294	-0.245309	-0.245236
C128	C	0.220039	0.088025	0.088098
C129	C	0.553373	0.421358	0.421431
C130	C	-0.089845	-0.216531	-0.216560
C131	C	0.243488	0.116802	0.116773
C132	C	0.576821	0.450136	0.450107
C133	C	0.412180	-0.245271	-0.245172
C134	C	0.745513	0.088062	0.088161
C135	C	1.078847	0.421395	0.421494
C136	C	0.459100	-0.245268	-0.245161
C137	C	0.792433	0.088065	0.088172
C138	C	1.125766	0.421398	0.421505
C139	C	0.459077	-0.187722	-0.187812
C140	C	0.792411	0.145612	0.145521
C141	C	1.125744	0.478945	0.478855
C142	C	0.412162	-0.187726	-0.187821
C143	C	0.745495	0.145607	0.145512
C144	C	1.078828	0.478940	0.478846
C145	C	0.388714	-0.216502	-0.216505
C146	C	0.722048	0.116831	0.116828
C147	C	1.055381	0.450164	0.450162
O148	O	0.337930	-0.163287	-0.163455
O149	O	0.671263	0.170046	0.169878
O150	O	1.004597	0.503380	0.503212
O151	O	0.337930	-0.269739	-0.269577
O152	O	0.671263	0.063594	0.063756
O153	O	1.004596	0.396928	0.397090
C154	C	0.125990	-0.245286	-0.245214
C155	C	0.459323	0.088047	0.088119
C156	C	0.792657	0.421381	0.421452
C157	C	0.102524	-0.216515	-0.216545
C158	C	0.435858	0.116819	0.116789
C159	C	0.769191	0.450152	0.450122
C160	C	0.125974	-0.187741	-0.187868
C161	C	0.459307	0.145592	0.145465
C162	C	0.792641	0.478925	0.478798
C163	C	0.055606	-0.216519	-0.216548
C164	C	0.388940	0.116815	0.116785
C165	C	0.722273	0.450148	0.450118
C166	C	0.032157	-0.245292	-0.245225
C167	C	0.365490	0.088041	0.088108
C168	C	0.698823	0.421375	0.421442
C169	C	0.055625	-0.274061	-0.273898
C170	C	0.388958	0.059272	0.059436
C171	C	0.722291	0.392606	0.392769
C172	C	0.102540	-0.274059	-0.273891
C173	C	0.435874	0.059274	0.059443
C174	C	0.769207	0.392607	0.392776
C175	C	0.102506	-0.158972	-0.159196
C176	C	0.435839	0.174361	0.174138
C177	C	0.769173	0.507694	0.507471
C178	C	0.055590	-0.158977	-0.159205
C179	C	0.388924	0.174357	0.174129
C180	C	0.722257	0.507690	0.507462
C181	C	0.032141	-0.187750	-0.187881
C182	C	0.365474	0.145583	0.145452
C183	C	0.698807	0.478917	0.478786
C184	C	0.677944	-0.692779	-0.245303
C185	C	1.011277	-0.359445	0.088030
C186	C	1.344610	-0.026112	0.421364
C187	C	0.677992	-0.880452	-0.245330
C188	C	1.011326	-0.547118	0.088003
C189	C	1.344659	-0.213785	0.421337
O190	O	0.702407	-0.904688	-0.269807
O191	O	1.035740	-0.571355	0.063526
O192	O	1.369073	-0.238021	0.396859
N193	N	0.649283	-0.903953	-0.216570
N194	N	0.982616	-0.570620	0.116763
N195	N	1.315949	-0.237287	0.450096
C196	C	0.620557	-0.880534	-0.187804
C197	C	0.953890	-0.547201	0.145529
C198	C	1.287223	-0.213868	0.478863
O199	O	0.596135	-0.904830	-0.163346
O200	O	0.929469	-0.571497	0.169987
O201	O	1.262802	-0.238164	0.503321
C202	C	0.620506	-0.692862	-0.187780
C203	C	0.953839	-0.359529	0.145554
C204	C	1.287173	-0.026195	0.478887
C205	C	0.649221	-0.669363	-0.216538
C206	C	0.982554	-0.336029	0.116795
C207	C	1.315887	-0.002696	0.450129
C208	C	0.706656	-0.669279	-0.274060
C209	C	1.039989	-0.335946	0.059274
C210	C	1.373322	-0.002612	0.392607
C211	C	0.706645	-0.622364	-0.274051
C212	C	1.039978	-0.289030	0.059283
C213	C	1.373312	0.044303	0.392616
C214	C	0.677922	-0.598948	-0.245286
C215	C	1.011255	-0.265614	0.088048
C216	C	1.344589	0.067719	0.421381
C217	C	0.649210	-0.622447	-0.216529
C218	C	0.982543	-0.289114	0.116804
C219	C	1.315877	0.044220	0.450137
C220	C	0.591778	-0.669444	-0.159016
C221	C	0.925111	-0.336110	0.174317
C222	C	1.258445	-0.002777	0.507651
C223	C	0.591767	-0.622523	-0.159013
C224	C	0.925101	-0.289189	0.174320
C225	C	1.258434	0.044144	0.507654
C226	C	0.620482	-0.599023	-0.187771
C227	C	0.953815	-0.265690	0.145562
C228	C	1.287149	0.067643	0.478895
C229	C	0.620476	-0.552116	-0.187755
C230	C	0.953810	-0.218782	0.145578
C231	C	1.287143	0.114551	0.478911
N232	N	0.649186	-0.528614	-0.216515
N233	N	0.982519	-0.195281	0.116818
N234	N	1.315853	0.138053	0.450152
C235	C	0.677909	-0.552030	-0.245280
C236	C	1.011242	-0.218696	0.088053
C237	C	1.344576	0.114637	0.421386
C238	C	0.620586	-0.979065	-0.187818
C239	C	0.953919	-0.645731	0.145515
C240	C	1.287253	-0.312398	0.478848
C241	C	0.620599	-1.025983	-0.187824
C242	C	0.953932	-0.692649	0.145510
C243	C	1.287266	-0.359316	0.478843
C244	C	0.678034	-1.025897	-0.245351
C245	C	1.011368	-0.692563	0.087983
C246	C	1.344701	-0.359230	0.421316
C247	C	0.678023	-0.978978	-0.245342
C248	C	1.011356	-0.645645	0.087991
C249	C	1.344690	-0.312311	0.421324
C250	C	0.649296	-0.955563	-0.216578
C251	C	0.982629	-0.622230	0.116755
C252	C	1.315962	-0.288896	0.450089
C253	C	0.677884	-0.453504	-0.245259
C254	C	1.011218	-0.120171	0.088074
C255	C	1.344551	0.213163	0.421407
C256	C	0.677872	-0.406584	-0.245247
C257	C	1.011206	-0.073251	0.088087
C258	C	1.344539	0.260082	0.421420
C259	C	0.620436	-0.406674	-0.187722
C260	C	0.953769	-0.073341	0.145612
C261	C	1.287102	0.259992	0.478945
C262	C	0.620449	-0.453590	-0.187732
C263	C	0.953783	-0.120257	0.145601
C264	C	1.287116	0.213077	0.478934
C265	C	0.649175	-0.477004	-0.216505
C266	C	0.982508	-0.143670	0.116828
C267	C	1.315842	0.189663	0.450162
O268	O	0.596071	-0.527850	-0.163295
O269	O	0.929405	-0.194517	0.170039
O270	O	1.262738	0.138816	0.503372
O271	O	0.702320	-0.527726	-0.269742
O272	O	1.035653	-0.194392	0.063592
O273	O	1.368986	0.138941	0.396925
C274	C	0.677954	-0.739694	-0.245312
C275	C	1.011288	-0.406361	0.088021
C276	C	1.344621	-0.073027	0.421355
C277	C	0.649242	-0.763193	-0.216556
C278	C	0.982576	-0.429860	0.116778
C279	C	1.315909	-0.096527	0.450111
C280	C	0.620519	-0.739778	-0.187790
C281	C	0.953853	-0.406444	0.145543
C282	C	1.287186	-0.073111	0.478876
C283	C	0.649255	-0.810111	-0.216561
C284	C	0.982589	-0.476778	0.116772
C285	C	1.315922	-0.143445	0.450106
C286	C	0.677978	-0.833527	-0.245326
C287	C	1.011312	-0.500194	0.088007
C288	C	1.344645	-0.166861	0.421341
C289	C	0.706688	-0.810025	-0.274086
C290	C	1.040021	-0.476692	0.059248
C291	C	1.373355	-0.143359	0.392581
C292	C	0.706677	-0.763110	-0.274077
C293	C	1.040010	-0.429777	0.059256
C294	C	1.373344	-0.096443	0.392590
C295	C	0.591810	-0.763279	-0.159031
C296	C	0.925143	-0.429946	0.174303
C297	C	1.258476	-0.096613	0.507636
C298	C	0.591823	-0.810195	-0.159041
C299	C	0.925157	-0.476862	0.174292
C300	C	1.258490	-0.143528	0.507625
C301	C	0.620546	-0.833611	-0.187807
C302	C	0.953879	-0.500278	0.145527
C303	C	1.287213	-0.166944	0.478860
C304	C	0.766385	-0.216531	-0.216553
C305	C	1.099718	0.116802	0.116780
C306	C	1.433051	0.450136	0.450113
C307	C	0.816319	-0.216539	-0.216567
C308	C	1.149652	0.116794	0.116766
C309	C	1.482986	0.450127	0.450099
C310	C	0.649247	-0.216499	-0.333699
C311	C	0.982580	0.116835	-0.000366
C312	C	1.315913	0.450168	0.332968
C313	C	0.649264	-0.216493	-0.383633
C314	C	0.982597	0.116840	-0.050300
C315	C	1.315931	0.450174	0.283033
C316	C	0.649287	-0.099333	-0.216568
C317	C	0.982621	0.234000	0.116765
C318	C	1.315954	0.567334	0.450098
C319	C	0.649322	-0.049399	-0.216589
C320	C	0.982655	0.283935	0.116744
C321	C	1.315989	0.617268	0.450078
C322	C	0.677971	-0.245172	-0.740220
C323	C	1.011305	0.088162	-0.406887
C324	C	1.344638	0.421495	-0.073553
C325	C	0.677972	-0.245203	-0.552547
C326	C	1.011306	0.088131	-0.219214
C327	C	1.344639	0.421464	0.114120
O328	O	0.702376	-0.269657	-0.528282
O329	O	1.035709	0.063677	-0.194948
O330	O	1.369043	0.397010	0.138385
N331	N	0.649262	-0.216471	-0.529079
N332	N	0.982595	0.116862	-0.195745
N333	N	1.315928	0.450195	0.137588
C334	C	0.620547	-0.187732	-0.552532
C335	C	0.953880	0.145601	-0.219198
C336	C	1.287214	0.478934	0.114135
O337	O	0.596124	-0.163298	-0.528264
O338	O	0.929457	0.170035	-0.194931
O339	O	1.262791	0.503368	0.138403
C340	C	0.620544	-0.187704	-0.740204
C341	C	0.953878	0.145630	-0.406870
C342	C	1.287211	0.478963	-0.073537
C343	C	0.649260	-0.216434	-0.763670
C344	C	0.982593	0.116900	-0.430336
C345	C	1.315927	0.450233	-0.097003
C346	C	0.706684	-0.273900	-0.763686
C347	C	1.040018	0.059434	-0.430353
C348	C	1.373351	0.392767	-0.097019
C349	C	0.706685	-0.273890	-0.810601
C350	C	1.040019	0.059444	-0.477268
C351	C	1.373352	0.392777	-0.143935
C352	C	0.677974	-0.245152	-0.834051
C353	C	1.011307	0.088181	-0.500718
C354	C	1.344641	0.421515	-0.167384
C355	C	0.649261	-0.216424	-0.810585
C356	C	0.982594	0.116909	-0.477252
C357	C	1.315928	0.450243	-0.143918
C358	C	0.591828	-0.158967	-0.763656
C359	C	0.925161	0.174366	-0.430322
C360	C	1.258494	0.507700	-0.096989
C361	C	0.591829	-0.158963	-0.810577
C362	C	0.925162	0.174370	-0.477243
C363	C	1.258495	0.507703	-0.143910
C364	C	0.620544	-0.187693	-0.834043
C365	C	0.953878	0.145640	-0.500709
C366	C	1.287211	0.478973	-0.167376
C367	C	0.620551	-0.187676	-0.880950
C368	C	0.953884	0.145657	-0.547617
C369	C	1.287217	0.478991	-0.214283
N370	N	0.649261	-0.216407	-0.904418
N371	N	0.982595	0.116926	-0.571085
N372	N	1.315928	0.450259	-0.237752
C373	C	0.677973	-0.245145	-0.880969
C374	C	1.011306	0.088188	-0.547636
C375	C	1.344639	0.421521	-0.214302
C376	C	0.620551	-0.187749	-0.454001
C377	C	0.953884	0.145585	-0.120668
C378	C	1.287218	0.478918	0.212666
C379	C	0.620552	-0.187755	-0.407083
C380	C	0.953886	0.145578	-0.073750
C381	C	1.287219	0.478911	0.259584
C382	C	0.677977	-0.245227	-0.407102
C383	C	1.011310	0.088107	-0.073768
C384	C	1.344644	0.421440	0.259565
C385	C	0.677978	-0.245217	-0.454020
C386	C	1.011311	0.088116	-0.120687
C387	C	1.344644	0.421449	0.212646
C388	C	0.649262	-0.216480	-0.477469
C389	C	0.982595	0.116853	-0.144136
C390	C	1.315928	0.450187	0.189198
C391	C	0.677974	-0.245122	-0.979495
C392	C	1.011307	0.088211	-0.646161
C393	C	1.344640	0.421544	-0.312828
C394	C	0.677974	-0.245109	-1.026414
C395	C	1.011307	0.088225	-0.693081
C396	C	1.344640	0.421558	-0.359748
C397	C	0.620547	-0.187639	-1.026392
C398	C	0.953881	0.145694	-0.693058
C399	C	1.287214	0.479027	-0.359725
C400	C	0.620549	-0.187651	-0.979476
C401	C	0.953882	0.145682	-0.646143
C402	C	1.287216	0.479016	-0.312809
C403	C	0.649263	-0.216396	-0.956029
C404	C	0.982597	0.116937	-0.622695
C405	C	1.315930	0.450270	-0.289362
O406	O	0.596156	-0.163238	-0.905244
O407	O	0.929490	0.170095	-0.571911
O408	O	1.262823	0.503428	-0.238578
O409	O	0.702385	-0.269583	-0.905244
O410	O	1.035719	0.063751	-0.571911
O411	O	1.369052	0.397084	-0.238578
C412	C	0.677970	-0.245181	-0.693305
C413	C	1.011304	0.088152	-0.359971
C414	C	1.344637	0.421485	-0.026638
C415	C	0.649257	-0.216453	-0.669839
C416	C	0.982591	0.116880	-0.336505
C417	C	1.315924	0.450213	-0.003172
C418	C	0.620546	-0.187715	-0.693288
C419	C	0.953879	0.145618	-0.359955
C420	C	1.287212	0.478951	-0.026622
C421	C	0.649259	-0.216460	-0.622921
C422	C	0.982592	0.116873	-0.289587
C423	C	1.315925	0.450207	0.043746
C424	C	0.677970	-0.245198	-0.599471
C425	C	1.011303	0.088136	-0.266138
C426	C	1.344637	0.421469	0.067195
C427	C	0.706680	-0.273929	-0.622940
C428	C	1.040014	0.059404	-0.289606
C429	C	1.373347	0.392738	0.043727
C430	C	0.706682	-0.273919	-0.669855
C431	C	1.040015	0.059414	-0.336522
C432	C	1.373348	0.392747	-0.003188
C433	C	0.591835	-0.158984	-0.669820
C434	C	0.925169	0.174349	-0.336487
C435	C	1.258502	0.507683	-0.003153
C436	C	0.591837	-0.158996	-0.622904
C437	C	0.925170	0.174337	-0.289571
C438	C	1.258504	0.507671	0.043762
C439	C	0.620548	-0.187734	-0.599455
C440	C	0.953882	0.145600	-0.266122
C441	C	1.287215	0.478933	0.067212
C442	C	0.649192	-0.216492	-0.099798
C443	C	0.982525	0.116842	0.233535
C444	C	1.315859	0.450175	0.566869
C445	C	0.649262	-0.216371	-0.049864
C446	C	0.982595	0.116963	0.283469
C447	C	1.315929	0.450296	0.616803
H448	H	0.478203	-0.268701	-0.268510
H449	H	0.811537	0.064632	0.064824
H450	H	1.144870	0.397965	0.398157
H451	H	0.730067	-0.297286	-0.829703
H452	H	1.063401	0.036047	-0.496370
H453	H	1.396734	0.369380	-0.163037
H454	H	0.701360	-0.268612	-0.473123
H455	H	1.034694	0.064721	-0.139790
H456	H	1.368027	0.398055	0.193543
N457	N	0.126455	-0.129575	-0.129906
N458	N	0.459788	0.203758	0.203428
N459	N	0.793121	0.537092	0.536761
N460	N	0.121234	-0.088125	-0.132966
N461	N	0.454568	0.245208	0.200368
N462	N	0.787901	0.578541	0.533701
H463	H	0.138147	-0.067363	-0.112276
H464	H	0.471480	0.265971	0.221057
H465	H	0.804813	0.599304	0.554390
N466	N	0.707308	-0.274574	-0.383137
N467	N	1.040641	0.058759	-0.049804
N468	N	1.373974	0.392092	0.283530
N469	N	0.707302	-0.274571	-0.341246
N470	N	1.040636	0.058763	-0.007913
N471	N	1.373969	0.392096	0.325420
H472	H	0.728015	-0.295297	-0.324319
H473	H	1.061349	0.038037	0.009015
H474	H	1.394682	0.371370	0.342348
N475	N	0.591213	-0.158293	-1.050349
N476	N	0.924546	0.175040	-0.717016
N477	N	1.257880	0.508374	-0.383683
N478	N	0.549757	-0.161274	-1.045085
N479	N	0.883090	0.172059	-0.711752
N480	N	1.216423	0.505392	-0.378419
H481	H	0.529036	-0.140551	-1.062006
H482	H	0.862369	0.192783	-0.728673
H483	H	1.195702	0.526116	-0.395340
H484	H	0.730065	-0.297314	-0.688957
H485	H	1.063398	0.036019	-0.355623
H486	H	1.396731	0.369352	-0.022290
N487	N	0.736018	-0.739115	-0.303449
N488	N	1.069351	-0.405781	0.029885
N489	N	1.402685	-0.072448	0.363218
N490	N	0.777473	-0.744336	-0.300509
N491	N	1.110807	-0.411003	0.032825
N492	N	1.444140	-0.077669	0.366158
H493	H	0.798199	-0.727394	-0.321254
H494	H	1.131532	-0.394061	0.012080
H495	H	1.464866	-0.060727	0.345413
H496	H	0.036489	-0.135546	-0.135853
H497	H	0.369822	0.197788	0.197481
H498	H	0.703155	0.531121	0.530814
H499	H	0.701405	-0.959848	-0.268760
H500	H	1.034738	-0.626514	0.064573
H501	H	1.368071	-0.293181	0.397906
H502	H	0.568454	-0.135583	-0.688908
H503	H	0.901787	0.197751	-0.355575
H504	H	1.235120	0.531084	-0.022241
N505	N	0.707306	-0.274452	-1.050391
N506	N	1.040639	0.058881	-0.717058
N507	N	1.373973	0.392215	-0.383724
N508	N	0.735945	-0.258644	-1.076594
N509	N	1.069278	0.074689	-0.743260
N510	N	1.402612	0.408023	-0.409927
H511	H	0.756660	-0.279367	-1.093527
H512	H	1.089994	0.053966	-0.760194
H513	H	1.423327	0.387300	-0.426860
N514	N	0.707379	-1.049812	-0.274736
N515	N	1.040712	-0.716479	0.058597
N516	N	1.374046	-0.383146	0.391931
N517	N	0.748834	-1.044544	-0.271807
N518	N	1.082168	-0.711211	0.061526
N519	N	1.415501	-0.377877	0.394859
H520	H	0.769556	-1.061436	-0.292562
H521	H	1.102890	-0.728102	0.040772
H522	H	1.436223	-0.394769	0.374105
H523	H	0.597071	-0.472724	-0.164312
H524	H	0.930404	-0.139391	0.169022
H525	H	1.263738	0.193943	0.502355
H526	H	0.393095	-0.268703	-0.268530
H527	H	0.726428	0.064631	0.064803
H528	H	1.059761	0.397964	0.398136
N529	N	0.031673	-0.303451	-0.303197
N530	N	0.365007	0.029882	0.030136
N531	N	0.698340	0.363215	0.363469
N532	N	0.052625	-0.329138	-0.328799
N533	N	0.385959	0.004195	0.004534
N534	N	0.719292	0.337529	0.337868
H535	H	0.035708	-0.349892	-0.349493
H536	H	0.369042	-0.016559	-0.016159
H537	H	0.702375	0.316774	0.317174
H538	H	0.262388	-0.297484	-0.297218
H539	H	0.595722	0.035849	0.036115
H540	H	0.929055	0.369183	0.369449
H541	H	0.730065	-0.297304	-0.744598
H542	H	1.063399	0.036030	-0.411265
H543	H	1.396732	0.369363	-0.077932
H544	H	0.177283	-0.297487	-0.297231
H545	H	0.510617	0.035847	0.036102
H546	H	0.843950	0.369180	0.369436
N547	N	0.172371	-0.129569	-0.129901
N548	N	0.505705	0.203765	0.203433
N549	N	0.839038	0.537098	0.536766
N550	N	0.146161	-0.145326	-0.101241
N551	N	0.479494	0.188007	0.232092
N552	N	0.812827	0.521340	0.565425
H553	H	0.129231	-0.124568	-0.080559
H554	H	0.462564	0.208766	0.252774
H555	H	0.795898	0.542099	0.586108
H556	H	0.597174	-0.164355	-0.387981
H557	H	0.930508	0.168978	-0.054648
H558	H	1.263841	0.502311	0.278686
H559	H	0.121642	-0.297490	-0.297238
H560	H	0.454975	0.035843	0.036095
H561	H	0.788309	0.369177	0.369429
H562	H	0.730045	-0.688339	-0.297486
H563	H	1.063378	-0.355006	0.035847
H564	H	1.396712	-0.021673	0.369180
N565	N	-0.089327	-0.274705	-0.274518
N566	N	0.244007	0.058628	0.058815
N567	N	0.577340	0.391962	0.392148
N568	N	-0.094589	-0.316155	-0.271455
N569	N	0.238745	0.017178	0.061879
N570	N	0.572078	0.350512	0.395212
H571	H	-0.077663	-0.336918	-0.292137
H572	H	0.255670	-0.003584	0.041197
H573	H	0.589003	0.329749	0.374530
N574	N	0.591273	-1.049977	-0.158437
N575	N	0.924606	-0.716644	0.174896
N576	N	1.257940	-0.383310	0.508230
N577	N	0.565632	-1.029058	-0.132757
N578	N	0.898965	-0.695725	0.200577
N579	N	1.232298	-0.362392	0.533910
H580	H	0.544918	-1.046003	-0.112002
H581	H	0.878251	-0.712669	0.221332
H582	H	1.211585	-0.379336	0.554665
N583	N	0.591232	-0.955154	-0.158438
N584	N	0.924566	-0.621821	0.174895
N585	N	1.257899	-0.288487	0.508229
N586	N	0.549779	-0.960435	-0.161376
N587	N	0.883113	-0.627101	0.171958
N588	N	1.216446	-0.293768	0.505291
H589	H	0.529047	-0.943551	-0.140625
H590	H	0.862381	-0.610218	0.192708
H591	H	1.195714	-0.276884	0.526042
H592	H	0.730060	-0.297327	-0.603839
H593	H	1.063393	0.036006	-0.270505
H594	H	1.396727	0.369340	0.062828
N595	N	0.736028	-0.833956	-0.303463
N596	N	1.069362	-0.500623	0.029870
N597	N	1.402695	-0.167289	0.363204
N598	N	0.736030	-0.875847	-0.303461
N599	N	1.069364	-0.542513	0.029873
N600	N	1.402697	-0.209180	0.363206
H601	H	0.756750	-0.892750	-0.324208
H602	H	1.090083	-0.559417	0.009125
H603	H	1.423417	-0.226084	0.342459
H604	H	0.568454	-0.135596	-0.603803
H605	H	0.901787	0.197737	-0.270469
H606	H	1.235121	0.531071	0.062864
H607	H	0.568441	-0.829324	-0.135619
H608	H	0.901774	-0.495991	0.197715
H609	H	1.235108	-0.162658	0.531048
H610	H	0.701359	-0.268526	-0.960410
H611	H	1.034692	0.064807	-0.627076
H612	H	1.368025	0.398140	-0.293743
N613	N	0.591212	-0.158390	-0.477943
N614	N	0.924546	0.174943	-0.144609
N615	N	1.257879	0.508276	0.188724
N616	N	0.565583	-0.132742	-0.456978
N617	N	0.898916	0.200591	-0.123645
N618	N	1.232249	0.533925	0.209689
H619	H	0.544862	-0.112006	-0.473885
H620	H	0.878196	0.221327	-0.140551
H621	H	1.211529	0.554661	0.192782
H622	H	0.262352	-0.135519	-0.135834
H623	H	0.595686	0.197814	0.197499
H624	H	0.929019	0.531148	0.530833
N625	N	0.707215	-0.382585	-0.274618
N626	N	1.040548	-0.049252	0.058715
N627	N	1.373881	0.284081	0.392048
N628	N	0.748671	-0.387804	-0.271679
N629	N	1.082004	-0.054471	0.061654
N630	N	1.415337	0.278862	0.394987
H631	H	0.769395	-0.370858	-0.292422
H632	H	1.102728	-0.037524	0.040911
H633	H	1.436062	0.295809	0.374245
H634	H	0.568396	-0.688569	-0.135597
H635	H	0.901729	-0.355236	0.197736
H636	H	1.235062	-0.021902	0.531069
N637	N	0.388183	-0.158343	-0.158531
N638	N	0.721517	0.174990	0.174802
N639	N	1.054850	0.508323	0.508135
N640	N	0.361971	-0.174107	-0.129877
N641	N	0.695304	0.159226	0.203456
N642	N	1.028637	0.492560	0.536789
H643	H	0.345038	-0.153353	-0.109193
H644	H	0.678372	0.179981	0.224140
H645	H	1.011705	0.513314	0.557474
N646	N	0.562416	-0.598612	-0.129630
N647	N	0.895750	-0.265279	0.203704
N648	N	1.229083	0.068054	0.537037
N649	N	0.536782	-0.619604	-0.103958
N650	N	0.870115	-0.286270	0.229375
N651	N	1.203449	0.047063	0.562708
H652	H	0.516053	-0.602718	-0.083206
H653	H	0.849386	-0.269385	0.250128
H654	H	1.182720	0.063948	0.583461
H655	H	0.568444	-0.135573	-0.744558
H656	H	0.901777	0.197761	-0.411225
H657	H	1.235110	0.531094	-0.077891
H658	H	0.568444	-0.135561	-0.829666
H659	H	0.901777	0.197772	-0.496333
H660	H	1.235111	0.531105	-0.163000
N661	N	0.483044	-0.158331	-0.158530
N662	N	0.816378	0.175003	0.174804
N663	N	1.149711	0.508336	0.508137
N664	N	0.509251	-0.129731	-0.174399
N665	N	0.842584	0.203603	0.158935
N666	N	1.175918	0.536936	0.492268
H667	H	0.526180	-0.108971	-0.153721
H668	H	0.859514	0.224363	0.179613
H669	H	1.192847	0.557696	0.512946
H670	H	0.597172	-0.164251	-0.960369
H671	H	0.930506	0.169083	-0.627036
H672	H	1.263839	0.502416	-0.293703
N673	N	0.707228	-0.477409	-0.274653
N674	N	1.040562	-0.144076	0.058680
N675	N	1.373895	0.189258	0.392014
N676	N	0.732860	-0.456414	-0.300324
N677	N	1.066193	-0.123081	0.033010
N678	N	1.399527	0.210252	0.366343
H679	H	0.753586	-0.473296	-0.321082
H680	H	1.086920	-0.139963	0.012252
H681	H	1.420253	0.193370	0.345585
H682	H	0.597051	-0.387602	-0.164300
H683	H	0.930385	-0.054268	0.169033
H684	H	1.263718	0.279065	0.502367
H685	H	-0.179314	-0.268739	-0.268592
H686	H	0.154020	0.064594	0.064742
H687	H	0.487353	0.397927	0.398075
H688	H	0.568420	-0.744218	-0.135607
H689	H	0.901753	-0.410884	0.197726
H690	H	1.235086	-0.077551	0.531060
H691	H	-0.179333	-0.164340	-0.164539
H692	H	0.154000	0.168994	0.168794
H693	H	0.487334	0.502327	0.502127
N694	N	0.735979	-0.598370	-0.303431
N695	N	1.069312	-0.265037	0.029903
N696	N	1.402645	0.068297	0.363236
N697	N	0.761619	-0.619291	-0.329110
N698	N	1.094952	-0.285957	0.004223
N699	N	1.428285	0.047376	0.337557
H700	H	0.782337	-0.602348	-0.349862
H701	H	1.115670	-0.269015	-0.016529
H702	H	1.449004	0.064319	0.316804
H703	H	-0.094225	-0.164327	-0.164534
H704	H	0.239108	0.169006	0.168800
H705	H	0.572441	0.502340	0.502133
