data_functionalizedCrystal
_audit_creation_method	'MofGen! by Chris Wilmer'
_symmetry_space_group_name_H-M	'P1'
_symmetry_Int_Tables_number	1
_symmetry_cell_setting	triclinic
loop_
_symmetry_equiv_pos_as_xyz
  x,y,z
_cell_length_a	21.295417
_cell_length_b	21.295418
_cell_length_c	21.295411
_cell_angle_alpha	89.956262
_cell_angle_beta	90.021644
_cell_angle_gamma	89.953681
loop_
_atom_site_label
_atom_site_type_symbol
_atom_site_fract_x
_atom_site_fract_y
_atom_site_fract_z
Zn1	Zn	-0.250415	-0.962356	0.356234
Zn2	Zn	-0.355667	-0.962258	0.250959
Zn3	Zn	-0.250445	-0.857079	0.250943
Zn4	Zn	-0.355680	-0.857048	0.356155
O5	O	-0.303052	-0.909685	0.303573
O6	O	-0.264360	-1.050432	0.342308
O7	O	-0.341716	-0.948278	0.162867
O8	O	-0.162351	-0.871098	0.264937
O9	O	-0.341688	-1.050361	0.264963
O10	O	-0.162330	-0.948444	0.342293
O11	O	-0.264410	-0.871003	0.162856
O12	O	-0.264422	-0.768985	0.264861
O13	O	-0.341709	-0.871046	0.444255
O14	O	-0.341738	-0.768963	0.342160
O15	O	-0.264372	-0.948415	0.444313
O16	O	-0.443758	-0.948248	0.264887
O17	O	-0.443767	-0.870951	0.342175
C18	C	-0.303085	-0.746134	0.303500
C19	C	-0.303114	-0.676166	0.303484
C20	C	-0.466603	-0.909603	0.303538
C21	C	-0.536571	-0.909625	0.303544
C22	C	-0.303038	-0.909738	0.467763
C23	C	-0.303033	-0.909760	0.537731
C24	C	-0.569412	-0.949910	0.263342
C25	C	-0.635155	-0.949939	0.263356
C26	C	-0.668054	-0.909673	0.303566
C27	C	-0.635205	-0.869386	0.343776
C28	C	-0.569464	-0.869362	0.343765
N29	N	-0.771336	-0.854606	0.308340
N30	N	-0.833787	-0.854630	0.308347
C31	C	-0.866129	-0.909743	0.303602
N32	N	-0.833659	-0.964832	0.298838
N33	N	-0.771202	-0.964807	0.298828
C34	C	-0.739339	-0.909695	0.303582
C35	C	-0.970255	-0.950063	0.263413
C36	C	-1.035999	-0.950094	0.263431
C37	C	-1.036048	-0.869535	0.343848
C38	C	-0.970305	-0.869510	0.343833
C39	C	-0.937413	-0.909773	0.303612
C40	C	-0.138861	-0.909785	0.303622
C41	C	-0.068893	-0.909828	0.303642
C42	C	-0.303019	-1.073876	0.303646
C43	C	-0.303005	-1.143844	0.303677
C44	C	-0.343426	-0.643304	0.343674
C45	C	-0.343410	-0.577561	0.343702
C46	C	-0.303090	-0.544683	0.303530
C47	C	-0.262770	-0.577553	0.263337
C48	C	-0.262783	-0.643294	0.263315
N49	N	-0.298163	-0.441407	0.248472
N50	N	-0.298155	-0.378956	0.248495
C51	C	-0.303050	-0.346608	0.303596
N52	N	-0.307965	-0.379072	0.358675
N53	N	-0.307976	-0.441529	0.358650
C54	C	-0.303072	-0.473398	0.303550
C55	C	-0.343346	-0.242461	0.343820
C56	C	-0.343326	-0.176717	0.343849
C57	C	-0.262690	-0.176710	0.263479
C58	C	-0.262707	-0.242453	0.263455
C59	C	-0.303038	-0.275324	0.303625
C60	C	-0.303019	-0.909670	0.140021
C61	C	-0.302848	-0.909769	0.070054
C62	C	-0.262761	-0.950044	0.570629
C63	C	-0.262734	-0.950043	0.636371
C64	C	-0.302989	-0.909765	0.669214
C65	C	-0.343263	-0.869473	0.636308
C66	C	-0.343285	-0.869470	0.570567
N67	N	-0.358058	-0.904908	0.772428
N68	N	-0.358036	-0.904914	0.834879
C69	C	-0.302926	-0.909769	0.867289
N70	N	-0.247837	-0.914629	0.834888
N71	N	-0.247860	-0.914627	0.772430
C72	C	-0.302970	-0.909763	0.740499
C73	C	-0.262621	-0.950054	0.971472
C74	C	-0.262593	-0.950049	1.037216
C75	C	-0.343128	-0.869482	1.037151
C76	C	-0.343151	-0.869484	0.971409
C77	C	-0.302898	-0.909773	0.938573
H78	H	-0.542633	-0.982696	0.230593
C79	C	-0.576117	-0.789736	0.423254
C80	C	-0.533361	-0.825074	0.387955
H81	H	-0.553826	-0.762392	0.450532
H82	H	-0.601709	-0.817161	0.447372
H83	H	-0.601805	-0.765682	0.395797
H84	H	-0.507676	-0.849132	0.415413
H85	H	-0.507758	-0.797646	0.363835
C86	C	-0.373807	-0.762873	1.057318
C87	C	-0.387376	-0.825207	1.073249
H88	H	-0.401121	-0.735540	1.079609
H89	H	-0.379590	-0.757109	1.013462
H90	H	-0.331508	-0.753695	1.068088
H91	H	-0.429674	-0.834387	1.062474
H92	H	-0.381598	-0.830975	1.117114
H93	H	-0.229940	-0.550779	0.230630
H94	H	-0.375948	-0.836683	0.944623
C95	C	-0.896223	-1.034712	0.254757
C96	C	-0.934095	-0.994324	0.219209
H97	H	-0.873899	-1.062034	0.227466
H98	H	-0.921824	-1.058786	0.282214
H99	H	-0.867254	-1.010706	0.278693
H100	H	-0.963066	-1.018331	0.195277
H101	H	-0.908491	-0.970249	0.191741
H102	H	-0.229954	-0.670050	0.230588
C103	C	-0.628510	-1.029552	0.183853
C104	C	-0.671264	-0.994218	0.219158
H105	H	-0.650802	-1.056884	0.156564
H106	H	-0.602829	-1.053614	0.211301
H107	H	-0.602910	-1.002120	0.159741
H108	H	-0.696861	-1.021650	0.243274
H109	H	-0.696955	-0.970155	0.191706
C110	C	-0.423042	-0.235867	0.423272
C111	C	-0.387668	-0.278598	0.387982
H112	H	-0.450400	-0.258177	0.450538
H113	H	-0.447077	-0.210172	0.395813
H114	H	-0.395636	-0.210279	0.447407
H115	H	-0.415074	-0.304184	0.363843
H116	H	-0.363632	-0.304304	0.415444
H117	H	-0.376236	-0.550800	0.376431
C118	C	-0.736004	-0.833647	0.379491
C119	C	-0.671365	-0.825122	0.387974
H120	H	-0.758326	-0.806318	0.406777
H121	H	-0.746722	-0.875936	0.388759
H122	H	-0.746804	-0.824457	0.337184
H123	H	-0.660565	-0.834316	0.430280
H124	H	-0.660644	-0.782823	0.378710
H125	H	-1.062737	-0.982902	0.230695
H126	H	-0.229842	-0.982857	0.944736
C127	C	-0.178090	-0.958817	0.496734
C128	C	-0.218493	-0.994313	0.534545
H129	H	-0.150758	-0.986145	0.474457
H130	H	-0.154029	-0.931404	0.522370
H131	H	-0.202086	-0.934838	0.467724
H132	H	-0.194498	-1.018290	0.563559
H133	H	-0.242557	-1.021738	0.508906
C134	C	-1.136842	-0.833803	0.379572
C135	C	-1.072203	-0.825274	0.388050
H136	H	-1.159163	-0.806476	0.406861
H137	H	-1.147556	-0.876093	0.388840
H138	H	-1.147645	-0.824612	0.337266
H139	H	-1.061399	-0.834469	0.430355
H140	H	-1.061485	-0.782974	0.378787
H141	H	-0.943564	-0.836704	0.376567
C142	C	-0.423129	-0.636702	0.423117
C143	C	-0.387752	-0.679435	0.387834
H144	H	-0.450490	-0.659010	0.450383
H145	H	-0.447162	-0.611009	0.395654
H146	H	-0.395727	-0.611112	0.447253
H147	H	-0.415154	-0.705022	0.363694
H148	H	-0.363717	-0.705138	0.415301
C149	C	-0.178035	-0.316458	0.254838
C150	C	-0.218400	-0.278579	0.219272
H151	H	-0.150678	-0.338757	0.227559
H152	H	-0.202052	-0.345442	0.278753
H153	H	-0.153993	-0.290859	0.282315
H154	H	-0.242446	-0.304178	0.191798
H155	H	-0.194381	-0.249591	0.195346
H156	H	-0.229937	-0.982846	0.663162
C157	C	-0.352190	-0.102880	0.428540
C158	C	-0.387640	-0.140595	0.388031
H159	H	-0.379550	-0.080583	0.455819
H160	H	-0.328178	-0.073894	0.404623
H161	H	-0.324809	-0.128590	0.452659
H162	H	-0.415018	-0.114885	0.363908
H163	H	-0.411663	-0.169585	0.411951
C164	C	-0.226897	-0.075934	0.227798
C165	C	-0.218388	-0.140578	0.219300
H166	H	-0.199552	-0.053627	0.200515
H167	H	-0.217724	-0.065211	0.270102
H168	H	-0.269185	-0.065124	0.218528
H169	H	-0.176101	-0.151390	0.228575
H170	H	-0.227556	-0.151306	0.176986
H171	H	-0.376038	-0.836676	0.663053
C172	C	-0.422891	-0.789838	0.577109
C173	C	-0.387562	-0.825193	0.534402
H174	H	-0.450230	-0.762508	0.554779
H175	H	-0.395461	-0.765773	0.602728
H176	H	-0.446952	-0.817257	0.602774
H177	H	-0.363498	-0.797775	0.508739
H178	H	-0.414995	-0.849260	0.508772
H179	H	-0.229795	-0.982852	1.064000
