data_functionalizedCrystal
_audit_creation_method	'MofGen! by Chris Wilmer'
_symmetry_space_group_name_H-M	'P1'
_symmetry_Int_Tables_number	1
_symmetry_cell_setting	triclinic
loop_
_symmetry_equiv_pos_as_xyz
  x,y,z
_cell_length_a	12.645330
_cell_length_b	21.295420
_cell_length_c	21.295411
_cell_angle_alpha	90.025571
_cell_angle_beta	90.011623
_cell_angle_gamma	90.023602
loop_
_atom_site_label
_atom_site_type_symbol
_atom_site_fract_x
_atom_site_fract_y
_atom_site_fract_z
Zn1	Zn	0.422233	-0.962374	-0.355972
Zn2	Zn	0.922233	-0.462374	0.144028
Zn3	Zn	0.599483	-0.962285	-0.250716
Zn4	Zn	1.099483	-0.462285	0.249284
Zn5	Zn	0.422226	-0.857097	-0.250715
Zn6	Zn	0.922226	-0.357097	0.249285
Zn7	Zn	0.599447	-0.857075	-0.355946
Zn8	Zn	1.099447	-0.357075	0.144054
O9	O	0.510847	-0.909708	-0.303337
O10	O	1.010847	-0.409708	0.196663
O11	O	0.445764	-1.050452	-0.342021
O12	O	0.945764	-0.550452	0.157979
O13	O	0.575982	-0.948303	-0.162627
O14	O	1.075982	-0.448303	0.337373
O15	O	0.273880	-0.871110	-0.264689
O16	O	0.773880	-0.371110	0.235311
O17	O	0.575989	-1.050386	-0.264690
O18	O	1.075989	-0.550386	0.235310
O19	O	0.273885	-0.948456	-0.342020
O20	O	0.773885	-0.448456	0.157980
O21	O	0.445752	-0.871023	-0.162626
O22	O	0.945752	-0.371023	0.337374
O23	O	0.445717	-0.769005	-0.264663
O24	O	0.945717	-0.269005	0.235337
O25	O	0.575927	-0.871071	-0.444039
O26	O	1.075927	-0.371071	0.055961
O27	O	0.575920	-0.768988	-0.341976
O28	O	1.075920	-0.268988	0.158024
O29	O	0.445729	-0.948434	-0.444058
O30	O	0.945729	-0.448434	0.055942
O31	O	0.747826	-0.948281	-0.264664
O32	O	1.247826	-0.448281	0.235336
O33	O	0.747799	-0.870984	-0.341976
O34	O	1.247799	-0.370984	0.158024
C35	C	0.510815	-0.746156	-0.303317
C36	C	1.010815	-0.246156	0.196683
C37	C	0.510826	-0.676188	-0.303323
C38	C	1.010826	-0.176188	0.196677
C39	C	0.786277	-0.909638	-0.303331
C40	C	1.286277	-0.409638	0.196669
C41	C	0.904107	-0.909665	-0.303350
C42	C	1.404107	-0.409665	0.196650
C43	C	0.578751	-0.176738	-0.343544
C44	C	1.078751	0.323262	0.156456
C45	C	0.578753	-0.242480	-0.343538
C46	C	1.078753	0.257520	0.156462
C47	C	0.510856	-0.275349	-0.303347
C48	C	1.010856	0.224651	0.196653
C49	C	0.442971	-0.242469	-0.263148
C50	C	0.942971	0.257531	0.236852
C51	C	0.442978	-0.176728	-0.263150
C52	C	0.942978	0.323272	0.236850
N53	N	0.418038	-0.378585	-0.298607
N54	N	0.918038	0.121415	0.201393
N55	N	0.418034	-0.441037	-0.298608
N56	N	0.918034	0.058963	0.201392
C57	C	0.510831	-0.473423	-0.303337
C58	C	1.010831	0.026577	0.196663
N59	N	0.603635	-0.440999	-0.308077
N60	N	1.103635	0.059001	0.191923
N61	N	0.603637	-0.378542	-0.308078
N62	N	1.103637	0.121458	0.191922
C63	C	0.510841	-0.346634	-0.303340
C64	C	1.010841	0.153366	0.196660
C65	C	0.578719	-0.577581	-0.343525
C66	C	1.078719	-0.077581	0.156475
C67	C	0.578723	-0.643324	-0.343515
C68	C	1.078723	-0.143324	0.156485
C69	C	0.442931	-0.643312	-0.263128
C70	C	0.942931	-0.143312	0.236872
C71	C	0.442937	-0.577569	-0.263135
C72	C	0.942937	-0.077569	0.236865
C73	C	0.510829	-0.544708	-0.303336
C74	C	1.010829	-0.044708	0.196664
C75	C	1.071699	-0.861223	-0.352138
C76	C	1.571699	-0.361223	0.147862
C77	C	0.949139	-0.860986	-0.351980
C78	C	1.449139	-0.360986	0.148020
C79	C	0.948676	-0.891699	-0.237009
C80	C	1.448676	-0.391699	0.262991
C81	C	1.071274	-0.891393	-0.237306
C82	C	1.571274	-0.391393	0.262694
C83	C	1.071208	-0.976336	-0.320367
C84	C	1.571208	-0.476336	0.179633
C85	C	0.948601	-0.975938	-0.321817
C86	C	1.448601	-0.475938	0.178183
C87	C	1.234342	-0.909773	-0.303360
C88	C	1.734342	-0.409773	0.196640
C89	C	1.116512	-0.909745	-0.303375
C90	C	1.616512	-0.409745	0.196625
C91	C	0.510825	-0.909760	-0.467528
C92	C	1.010825	-0.409760	0.032472
C93	C	0.510815	-0.909782	-0.537496
C94	C	1.010815	-0.409782	-0.037496
C95	C	0.510875	-0.073898	-0.303355
C96	C	1.010875	0.426102	0.196645
C97	C	0.510871	-0.143866	-0.303352
C98	C	1.010871	0.356134	0.196648
C99	C	0.443018	-0.950063	-0.570374
C100	C	0.943018	-0.450063	-0.070374
C101	C	0.442972	-0.950063	-0.636116
C102	C	0.942972	-0.450063	-0.136116
C103	C	0.510742	-0.909787	-0.668978
C104	C	1.010742	-0.409787	-0.168978
C105	C	0.578545	-0.869498	-0.636093
C106	C	1.078545	-0.369498	-0.136093
C107	C	0.578581	-0.869496	-0.570351
C108	C	1.078581	-0.369496	-0.070351
N109	N	0.603479	-0.904935	-0.772203
N110	N	1.103479	-0.404935	-0.272203
N111	N	0.603441	-0.904941	-0.834655
N112	N	1.103441	-0.404941	-0.334655
C113	C	0.510635	-0.909791	-0.867053
C114	C	1.010635	-0.409791	-0.367053
N115	N	0.417866	-0.914648	-0.834641
N116	N	0.917866	-0.414648	-0.334641
N117	N	0.417904	-0.914645	-0.772184
N118	N	0.917904	-0.414645	-0.272184
C119	C	0.510710	-0.909785	-0.740264
C120	C	1.010710	-0.409785	-0.240264
C121	C	0.442782	-0.950074	-0.971217
C122	C	0.942782	-0.450074	-0.471217
C123	C	0.442734	-0.950068	-1.036960
C124	C	0.942734	-0.450068	-0.536960
C125	C	0.578316	-0.869507	-1.036936
C126	C	1.078316	-0.369507	-0.536936
C127	C	0.578354	-0.869509	-0.971193
C128	C	1.078354	-0.369509	-0.471193
C129	C	0.510589	-0.909796	-0.938338
C130	C	1.010589	-0.409796	-0.438338
C131	C	0.510793	-0.909692	-0.139786
C132	C	1.010793	-0.409692	0.360214
C133	C	0.510504	-0.909792	-0.069818
C134	C	1.010504	-0.409792	0.430182
H135	H	0.634038	-0.149986	-0.376277
H136	H	1.134038	0.350014	0.123723
H137	H	0.633788	-0.836691	-0.543583
H138	H	1.133788	-0.336691	-0.043583
C139	C	0.653417	-0.278647	-0.387754
C140	C	1.153417	0.221353	0.112246
H141	H	0.693847	-0.249660	-0.411700
H142	H	1.193847	0.250340	0.088300
H143	H	0.699548	-0.304275	-0.363634
H144	H	1.199548	0.195725	0.136366
H145	H	0.612910	-0.304311	-0.415219
H146	H	1.112910	0.195689	0.084781
H147	H	0.919470	-0.989487	-0.370640
H148	H	1.419470	-0.489487	0.129360
H149	H	0.387690	-0.269234	-0.230424
H150	H	0.887690	0.230766	0.269576
C151	C	1.110033	-0.825634	-0.217867
C152	C	1.610033	-0.325634	0.282133
H153	H	1.185152	-0.824868	-0.217875
H154	H	1.685152	-0.324868	0.282125
H155	H	1.084111	-0.795363	-0.246773
H156	H	1.584111	-0.295363	0.253227
H157	H	1.084757	-0.816106	-0.176952
H158	H	1.584757	-0.316106	0.323048
H159	H	0.387651	-0.670072	-0.230402
H160	H	0.887651	-0.170072	0.269598
H161	H	1.100920	-0.925200	-0.199735
H162	H	1.600920	-0.425200	0.300265
H163	H	0.387758	-0.982863	-0.662890
H164	H	0.887758	-0.482863	-0.162890
C165	C	0.368299	-0.140567	-0.218942
C166	C	0.868299	0.359433	0.281058
H167	H	0.327856	-0.169555	-0.195007
H168	H	0.827856	0.330445	0.304993
H169	H	0.408784	-0.114896	-0.191478
H170	H	0.908784	0.385104	0.308522
H171	H	0.322165	-0.114947	-0.243075
H172	H	0.822165	0.385053	0.256925
C173	C	0.653335	-0.541430	-0.387780
C174	C	1.153335	-0.041430	0.112220
H175	H	0.693754	-0.570426	-0.411723
H176	H	1.193754	-0.070426	0.088277
H177	H	0.612786	-0.515830	-0.415235
H178	H	1.112786	-0.015830	0.084765
H179	H	0.699495	-0.515741	-0.363692
H180	H	1.199495	-0.015741	0.136308
H181	H	0.633569	-0.836711	-0.944424
H182	H	1.133569	-0.336711	-0.444424
C183	C	1.110352	-1.025175	-0.272395
C184	C	1.610352	-0.525175	0.227605
H185	H	1.082709	-1.065317	-0.282905
H186	H	1.582709	-0.565317	0.217095
H187	H	1.185420	-1.026668	-0.273107
H188	H	1.685420	-0.526668	0.226893
H189	H	1.087058	-1.013671	-0.231572
H190	H	1.587058	-0.513671	0.268428
H191	H	0.634007	-0.670088	-0.376242
H192	H	1.134007	-0.170088	0.123758
H193	H	0.633720	-0.836704	-0.662853
H194	H	1.133720	-0.336704	-0.162853
H195	H	0.387657	-0.550805	-0.230408
H196	H	0.887657	-0.050805	0.269592
C197	C	0.652869	-0.825209	-1.073076
C198	C	1.152869	-0.325209	-0.573076
H199	H	0.643145	-0.830982	-1.116939
H200	H	1.143145	-0.330982	-0.616939
H201	H	0.637362	-0.782917	-1.062285
H202	H	1.137362	-0.282917	-0.562285
H203	H	0.724106	-0.834408	-1.062310
H204	H	1.224106	-0.334408	-0.562310
H205	H	0.919506	-0.925924	-0.199683
H206	H	1.419506	-0.425924	0.300317
C207	C	0.908418	-0.876168	-0.418431
C208	C	1.408418	-0.376168	0.081569
H209	H	0.833289	-0.876045	-0.418423
H210	H	1.333289	-0.376045	0.081577
H211	H	0.933608	-0.845416	-0.447063
H212	H	1.433608	-0.345416	0.052937
H213	H	0.933225	-0.916417	-0.430800
H214	H	1.433225	-0.416417	0.069200
C215	C	1.111586	-0.876201	-0.418797
C216	C	1.611586	-0.376201	0.081203
H217	H	1.155918	-0.912184	-0.417490
H218	H	1.655918	-0.412184	0.082510
H219	H	1.052974	-0.884215	-0.445537
H220	H	1.552974	-0.384215	0.054463
H221	H	1.150538	-0.841428	-0.434480
H222	H	1.650538	-0.341428	0.065520
H223	H	0.917942	-1.013999	-0.288887
H224	H	1.417942	-0.513999	0.211113
H225	H	1.102592	-0.812164	-0.341024
H226	H	1.602592	-0.312164	0.158976
C227	C	0.909627	-0.794306	-0.336763
C228	C	1.409627	-0.294306	0.163237
H229	H	0.968504	-0.767258	-0.330648
H230	H	1.468504	-0.267258	0.169352
H231	H	0.867912	-0.779186	-0.370633
H232	H	1.367912	-0.279186	0.129367
H233	H	0.868101	-0.795335	-0.299606
H234	H	1.368101	-0.295335	0.200394
H235	H	0.918056	-0.843533	-0.222353
H236	H	1.418056	-0.343533	0.277647
H237	H	1.102070	-0.992718	-0.367922
H238	H	1.602070	-0.492718	0.132078
C239	C	0.368471	-0.994372	-0.534236
C240	C	0.868471	-0.494372	-0.034236
H241	H	0.328080	-1.018358	-0.563236
H242	H	0.828080	-0.518358	-0.063236
H243	H	0.409040	-1.021785	-0.508603
H244	H	0.909040	-0.521785	-0.008603
H245	H	0.322283	-0.970302	-0.508579
H246	H	0.822283	-0.470302	-0.008579
H247	H	0.387598	-0.982874	-0.944464
H248	H	0.887598	-0.482874	-0.444464
C249	C	0.368154	-0.994380	-1.073126
C250	C	0.868154	-0.494380	-0.573126
H251	H	0.327811	-1.018376	-1.044140
H252	H	0.827811	-0.518376	-0.544140
H253	H	0.321939	-0.970319	-1.098758
H254	H	0.821939	-0.470319	-0.598758
H255	H	0.408709	-1.021795	-1.098786
H256	H	0.908709	-0.521795	-0.598786
