data_functionalizedCrystal
_audit_creation_method	'MofGen! by Chris Wilmer'
_symmetry_space_group_name_H-M	'P1'
_symmetry_Int_Tables_number	1
_symmetry_cell_setting	triclinic
loop_
_symmetry_equiv_pos_as_xyz
  x,y,z
_cell_length_a	16.625548
_cell_length_b	16.120484
_cell_length_c	16.120339
_cell_angle_alpha	89.785998
_cell_angle_beta	92.864476
_cell_angle_gamma	92.926626
loop_
_atom_site_label
_atom_site_type_symbol
_atom_site_fract_x
_atom_site_fract_y
_atom_site_fract_z
Zn1	Zn	1.193860	-0.306880	-0.486962
Zn2	Zn	1.693860	0.193120	0.013038
Zn3	Zn	1.193026	-0.453082	-0.354948
Zn4	Zn	1.693026	0.046918	0.145052
Zn5	Zn	1.065453	-0.314050	-0.347919
Zn6	Zn	1.565453	0.185950	0.152081
Zn7	Zn	1.051827	-0.445897	-0.493959
Zn8	Zn	1.551827	0.054103	0.006041
O9	O	1.126042	-0.379977	-0.420947
O10	O	1.626042	0.120023	0.079053
O11	O	1.306581	-0.326280	-0.469463
O12	O	1.806581	0.173720	0.030537
O13	O	1.181457	-0.440647	-0.237649
O14	O	1.681457	0.059353	0.262351
O15	O	1.088538	-0.196735	-0.360494
O16	O	1.588538	0.303265	0.139506
O17	O	1.305968	-0.433694	-0.372473
O18	O	1.805968	0.066306	0.127527
O19	O	1.182879	-0.191466	-0.462648
O20	O	1.682879	0.308534	0.037352
O21	O	1.087729	-0.338501	-0.232485
O22	O	1.587729	0.161499	0.267515
O23	O	0.950814	-0.331534	-0.367279
O24	O	1.450814	0.168466	0.132721
O25	O	1.065314	-0.421448	-0.609397
O26	O	1.565314	0.078552	-0.109397
O27	O	0.940803	-0.428401	-0.474573
O28	O	1.440803	0.071599	0.025427
O29	O	1.169666	-0.319312	-0.604256
O30	O	1.669666	0.180688	-0.104256
O31	O	1.168244	-0.568494	-0.379258
O32	O	1.668244	-0.068494	0.120742
O33	O	1.064506	-0.563215	-0.481388
O34	O	1.564506	-0.063215	0.018612
C35	C	0.916553	-0.379967	-0.420923
C36	C	1.416553	0.120033	0.079077
C37	C	0.826930	-0.379981	-0.420934
C38	C	1.326930	0.120019	0.079066
C39	C	0.498753	-0.379985	-0.420969
C40	C	0.998753	0.120015	0.079031
C41	C	0.590062	-0.379981	-0.420957
C42	C	1.090062	0.120019	0.079043
C43	C	0.662838	-0.379983	-0.420951
C44	C	1.162838	0.120017	0.079049
C45	C	0.754154	-0.379979	-0.420939
C46	C	1.254154	0.120021	0.079061
C47	C	1.114827	-0.596025	-0.431863
C48	C	1.614827	-0.096025	0.068137
C49	C	1.110102	-0.688450	-0.436561
C50	C	1.610102	-0.188450	0.063439
C51	C	1.101478	-0.857670	-0.445155
C52	C	1.601478	-0.357670	0.054845
C53	C	1.150749	-0.901443	-0.396752
C54	C	1.650749	-0.401443	0.103248
C55	C	1.145951	-0.995603	-0.401534
C56	C	1.645951	-0.495603	0.098466
C57	C	1.106275	-0.763502	-0.440374
C58	C	1.606275	-0.263502	0.059626
C59	C	1.336349	-0.379989	-0.420971
C60	C	1.836349	0.120011	0.079029
C61	C	1.425969	-0.379993	-0.420982
C62	C	1.925969	0.120007	0.079018
C63	C	1.116063	-0.368779	-0.637843
C64	C	1.616063	0.131221	-0.137843
C65	C	1.111811	-0.364007	-0.730271
C66	C	1.611811	0.135993	-0.230271
C67	C	1.137321	-0.163085	-0.410006
C68	C	1.637321	0.336915	0.089994
C69	C	1.142128	-0.070658	-0.405344
C70	C	1.642128	0.429342	0.094656
C71	C	1.136031	-0.391072	-0.204892
C72	C	1.636031	0.108928	0.295108
C73	C	1.140451	-0.395610	-0.112453
C74	C	1.640451	0.104390	0.387547
C75	C	1.103737	-0.355727	0.100481
C76	C	1.603737	0.144273	0.600481
C77	C	1.148523	-0.403887	0.056790
C78	C	1.648523	0.096113	0.556790
C79	C	1.144031	-0.399280	-0.037385
C80	C	1.644031	0.100720	0.462615
C81	C	1.108228	-0.360333	0.194665
C82	C	1.608228	0.139667	0.694665
H83	H	1.055696	-0.890910	-0.490181
H84	H	1.555696	-0.390910	0.009819
C85	C	1.204877	-0.464268	0.101797
C86	C	1.704877	0.035732	0.601797
H87	H	1.232390	-0.493876	0.061999
H88	H	1.732390	0.006124	0.561999
H89	H	1.173983	-0.502356	0.134000
H90	H	1.673983	-0.002356	0.634000
H91	H	1.243036	-0.433813	0.137154
H92	H	1.743036	0.066187	0.637154
C93	C	1.212579	-0.856543	-0.335896
C94	C	1.712579	-0.356543	0.164104
H95	H	1.207721	-0.798230	-0.340610
H96	H	1.707721	-0.298230	0.159390
H97	H	1.265487	-0.870028	-0.348795
H98	H	1.765487	-0.370028	0.151205
H99	H	1.202654	-0.873661	-0.280727
H100	H	1.702654	-0.373661	0.219273
C101	C	1.047377	-0.295364	0.055470
C102	C	1.547377	0.204636	0.555470
H103	H	1.051709	-0.300158	-0.002839
H104	H	1.551709	0.199842	0.497161
H105	H	1.062339	-0.240074	0.072306
H106	H	1.562339	0.259926	0.572306
H107	H	0.993302	-0.308635	0.069157
H108	H	1.493302	0.191365	0.569157
