data_functionalizedCrystal
_audit_creation_method	'MofGen! by Chris Wilmer'
_symmetry_space_group_name_H-M	'P1'
_symmetry_Int_Tables_number	1
_symmetry_cell_setting	triclinic
loop_
_symmetry_equiv_pos_as_xyz
  x,y,z
_cell_length_a	18.050591
_cell_length_b	18.050589
_cell_length_c	14.908308
_cell_angle_alpha	93.269302
_cell_angle_beta	93.273372
_cell_angle_gamma	90.024669
loop_
_atom_site_label
_atom_site_type_symbol
_atom_site_fract_x
_atom_site_fract_y
_atom_site_fract_z
Zn1	Zn	1.111075	-0.319953	-0.510227
Zn2	Zn	1.611075	0.180047	-0.010227
Zn3	Zn	1.118145	-0.436989	-0.359380
Zn4	Zn	1.618145	0.063011	0.140620
Zn5	Zn	0.994054	-0.312809	-0.359373
Zn6	Zn	1.494054	0.187191	0.140627
Zn7	Zn	0.986845	-0.444096	-0.510175
Zn8	Zn	1.486845	0.055904	-0.010175
O9	O	1.052530	-0.378462	-0.434789
O10	O	1.552530	0.121538	0.065211
O11	O	1.215936	-0.335494	-0.490242
O12	O	1.715936	0.164506	0.009758
O13	O	1.107661	-0.414552	-0.233138
O14	O	1.607661	0.085448	0.266862
O15	O	1.009636	-0.209833	-0.379403
O16	O	1.509636	0.290167	0.120597
O17	O	1.221131	-0.421479	-0.379415
O18	O	1.721131	0.078521	0.120585
O19	O	1.095610	-0.215082	-0.490235
O20	O	1.595610	0.284918	0.009765
O21	O	1.016492	-0.323318	-0.233133
O22	O	1.516492	0.176682	0.266867
O23	O	0.889175	-0.330209	-0.379353
O24	O	1.389175	0.169791	0.120647
O25	O	0.997348	-0.433592	-0.636423
O26	O	1.497348	0.066408	-0.136423
O27	O	0.883878	-0.426665	-0.490147
O28	O	1.383878	0.073335	0.009853
O29	O	1.088619	-0.342385	-0.636461
O30	O	1.588619	0.157615	-0.136461
O31	O	1.100670	-0.541855	-0.379365
O32	O	1.600670	-0.041855	0.120635
O33	O	1.004204	-0.547077	-0.490153
O34	O	1.504204	-0.047077	0.009847
C35	C	0.859580	-0.378434	-0.434744
C36	C	1.359580	0.121566	0.065256
C37	C	0.777034	-0.378440	-0.434746
C38	C	1.277034	0.121560	0.065254
C39	C	0.531061	-0.325943	-0.374639
C40	C	1.031061	0.174057	0.125361
C41	C	0.576585	-0.311763	-0.456967
C42	C	1.076585	0.188237	0.043033
C43	C	0.479910	-0.378482	-0.434820
C44	C	0.979910	0.121518	0.065180
C45	C	0.581469	-0.392607	-0.352460
C46	C	1.081469	0.107393	0.147540
C47	C	0.625897	-0.378459	-0.434779
C48	C	1.125897	0.121541	0.065221
C49	C	0.524345	-0.364269	-0.517192
C50	C	1.024345	0.135731	-0.017192
C51	C	0.529227	-0.445141	-0.412629
C52	C	1.029227	0.054859	0.087371
C53	C	0.574727	-0.430990	-0.495014
C54	C	1.074727	0.069010	0.004986
C55	C	0.395811	-0.378493	-0.434842
C56	C	0.895811	0.121507	0.065158
C57	C	0.709994	-0.378449	-0.434766
C58	C	1.209994	0.121551	0.065234
C59	C	1.052441	-0.571413	-0.434774
C60	C	1.552441	-0.071413	0.065226
C61	C	1.052469	-0.653960	-0.434798
C62	C	1.552469	-0.153960	0.065202
C63	C	1.000061	-0.856276	-0.495024
C64	C	1.500061	-0.356276	0.004976
C65	C	0.985870	-0.901808	-0.412702
C66	C	1.485870	-0.401808	0.087298
C67	C	1.052542	-0.805091	-0.434810
C68	C	1.552542	-0.305091	0.065190
C69	C	1.066768	-0.906641	-0.517140
C70	C	1.566768	-0.406641	-0.017140
C71	C	1.052610	-0.951077	-0.434828
C72	C	1.552610	-0.451077	0.065172
C73	C	1.038318	-0.849534	-0.352445
C74	C	1.538318	-0.349534	0.147555
C75	C	1.119245	-0.854365	-0.456938
C76	C	1.619245	-0.354365	0.043062
C77	C	1.105083	-0.899872	-0.374560
C78	C	1.605083	-0.399872	0.125440
C79	C	1.052501	-0.720992	-0.434800
C80	C	1.552501	-0.220992	0.065200
C81	C	1.052652	-1.035174	-0.434828
C82	C	1.552652	-0.535174	0.065172
C83	C	1.246233	-0.378491	-0.434835
C84	C	1.746233	0.121509	0.065165
C85	C	1.328778	-0.378503	-0.434854
C86	C	1.828778	0.121497	0.065146
C87	C	1.041391	-0.389578	-0.670091
C88	C	1.541391	0.110422	-0.170091
C89	C	1.036644	-0.394315	-0.770362
C90	C	1.536644	0.105685	-0.270362
C91	C	1.052638	-0.184758	-0.434824
C92	C	1.552638	0.315242	0.065176
C93	C	1.052685	-0.102213	-0.434839
C94	C	1.552685	0.397787	0.065161
C95	C	1.122763	-0.308226	-0.958824
C96	C	1.622763	0.191774	-0.458824
C97	C	1.118305	-0.312674	-1.053038
C98	C	1.618305	0.187326	-0.553038
C99	C	1.023267	-0.407656	-1.053006
C100	C	1.523267	0.092344	-0.553006
C101	C	1.027725	-0.403208	-0.958792
C102	C	1.527725	0.096792	-0.458792
C103	C	1.077475	-0.353492	-0.911704
C104	C	1.577475	0.146508	-0.411704
C105	C	1.081936	-0.349048	-0.817488
C106	C	1.581936	0.150952	-0.317488
C107	C	0.986895	-0.444026	-0.817458
C108	C	1.486895	0.055974	-0.317458
C109	C	0.982437	-0.448474	-0.911672
C110	C	1.482437	0.051526	-0.411672
C111	C	1.063669	-0.367335	-0.200403
C112	C	1.563669	0.132665	0.299597
C113	C	1.068559	-0.362389	-0.100132
C114	C	1.568559	0.137611	0.399868
H115	H	0.606434	-0.404563	-0.282826
H116	H	1.106434	0.095437	0.217174
H117	H	0.929494	-0.922699	-0.394003
H118	H	1.429494	-0.422699	0.105997
H119	H	0.950020	-0.480887	-0.779083
H120	H	1.450020	0.019113	-0.279083
N121	N	0.602740	-0.241043	-0.480510
N122	N	1.102740	0.258957	0.019490
N123	N	0.639139	-0.236258	-0.548814
N124	N	1.139139	0.263742	-0.048814
H125	H	0.657610	-0.186311	-0.565437
H126	H	1.157610	0.313689	-0.065437
N127	N	0.944308	-0.832145	-0.558810
N128	N	1.444308	-0.332145	-0.058810
N129	N	0.877654	-0.847660	-0.550438
N130	N	1.377654	-0.347660	-0.050438
H131	H	0.838277	-0.830617	-0.595484
H132	H	1.338277	-0.330617	-0.095484
H133	H	1.163275	-0.267749	-0.920485
H134	H	1.663275	0.232251	-0.420485
H135	H	1.149496	-0.918969	-0.323588
H136	H	1.649496	-0.418969	0.176412
N137	N	1.023164	-0.818334	-0.265091
N138	N	1.523164	-0.318334	0.234909
N139	N	1.020657	-0.749475	-0.250996
N140	N	1.520657	-0.249475	0.249004
H141	H	1.009948	-0.727438	-0.189306
H142	H	1.509948	-0.227438	0.310694
H143	H	1.155181	-0.275812	-1.091399
H144	H	1.655181	0.224188	-0.591399
H145	H	1.175606	-0.833478	-0.475678
H146	H	1.675606	-0.333478	0.024322
H147	H	0.499471	-0.352246	-0.586846
H148	H	0.999471	0.147754	-0.086846
H149	H	0.982763	-0.448133	-1.091361
H150	H	1.482763	0.051867	-0.591361
H151	H	0.941931	-0.488950	-0.950023
H152	H	1.441931	0.011050	-0.450023
H153	H	0.593853	-0.475413	-0.545949
H154	H	1.093853	0.024587	-0.045949
N155	N	0.503064	-0.515843	-0.389051
N156	N	1.003064	-0.015843	0.110949
N157	N	0.465720	-0.520445	-0.321502
N158	N	0.965720	-0.020445	0.178498
H159	H	0.447240	-0.570377	-0.304840
H160	H	0.947240	-0.070377	0.195160
H161	H	0.511793	-0.281494	-0.323826
H162	H	1.011793	0.218506	0.176174
N163	N	1.132751	-0.298274	-0.769373
N164	N	1.632751	0.201726	-0.269373
N165	N	1.182550	-0.321922	-0.716806
N166	N	1.682550	0.178078	-0.216806
H167	H	1.218438	-0.286060	-0.682825
H168	H	1.718438	0.213940	-0.182825
H169	H	1.078775	-0.931597	-0.586759
H170	H	1.578775	-0.431597	-0.086759
