data_functionalizedCrystal
_audit_creation_method	'MofGen! by Chris Wilmer'
_symmetry_space_group_name_H-M	'P1'
_symmetry_Int_Tables_number	1
_symmetry_cell_setting	triclinic
loop_
_symmetry_equiv_pos_as_xyz
  x,y,z
_cell_length_a	12.759401
_cell_length_b	18.050589
_cell_length_c	12.759401
_cell_angle_alpha	90.009545
_cell_angle_beta	90.002178
_cell_angle_gamma	90.028382
loop_
_atom_site_label
_atom_site_type_symbol
_atom_site_fract_x
_atom_site_fract_y
_atom_site_fract_z
Zn1	Zn	1.605987	-0.295767	0.593988
Zn2	Zn	1.939321	0.037566	0.927321
Zn3	Zn	2.272654	0.370900	1.260654
Zn4	Zn	1.605890	-0.419931	0.418311
Zn5	Zn	1.939224	-0.086598	0.751644
Zn6	Zn	2.272557	0.246735	1.084978
Zn7	Zn	1.430339	-0.295760	0.418327
Zn8	Zn	1.763673	0.037573	0.751661
Zn9	Zn	2.097006	0.370906	1.084994
Zn10	Zn	1.430237	-0.419920	0.593952
Zn11	Zn	1.763570	-0.086587	0.927286
Zn12	Zn	2.096903	0.246747	1.260619
O13	O	1.518113	-0.357845	0.506145
O14	O	1.851447	-0.024511	0.839478
O15	O	2.184780	0.308822	1.172811
O16	O	1.752996	-0.312245	0.570692
O17	O	2.086329	0.021088	0.904025
O18	O	2.419662	0.354421	1.237358
O19	O	1.582606	-0.403462	0.271292
O20	O	1.915939	-0.070129	0.604625
O21	O	2.249272	0.263205	0.937959
O22	O	1.453723	-0.191836	0.441651
O23	O	1.787057	0.141497	0.774984
O24	O	2.120390	0.474830	1.108317
O25	O	1.752924	-0.403468	0.441623
O26	O	2.086258	-0.070135	0.774956
O27	O	2.419591	0.263198	1.108289
O28	O	1.582771	-0.191841	0.570708
O29	O	1.916104	0.141492	0.904041
O30	O	2.249438	0.474825	1.237374
O31	O	1.453629	-0.312234	0.271304
O32	O	1.786962	0.021100	0.604637
O33	O	2.120296	0.354433	0.937971
O34	O	1.283305	-0.312223	0.441616
O35	O	1.616638	0.021111	0.774950
O36	O	1.949971	0.354444	1.108283
O37	O	1.453548	-0.403449	0.740978
O38	O	1.786881	-0.070116	1.074311
O39	O	2.120215	0.263218	1.407645
O40	O	1.283229	-0.403442	0.570647
O41	O	1.616563	-0.070109	0.903981
O42	O	1.949896	0.263224	1.237314
O43	O	1.582671	-0.312234	0.741004
O44	O	1.916005	0.021099	1.074337
O45	O	2.249338	0.354432	1.407671
O46	O	1.582506	-0.523855	0.441588
O47	O	1.915839	-0.190521	0.774922
O48	O	2.249173	0.142812	1.108255
O49	O	1.453454	-0.523846	0.570631
O50	O	1.786787	-0.190513	0.903965
O51	O	2.120120	0.142821	1.237298
C52	C	1.245146	-0.357831	0.506130
C53	C	1.578479	-0.024498	0.839464
C54	C	1.911813	0.308836	1.172797
C55	C	1.128369	-0.357843	0.506149
C56	C	1.461703	-0.024510	0.839482
C57	C	1.795036	0.308824	1.172816
C58	C	1.073496	-0.405417	0.573224
C59	C	1.406829	-0.072084	0.906558
C60	C	1.740162	0.261250	1.239891
C61	C	0.963772	-0.405427	0.573236
C62	C	1.297105	-0.072093	0.906569
C63	C	1.630438	0.261240	1.239902
C64	C	0.963805	-0.310286	0.439088
C65	C	1.297138	0.023048	0.772421
C66	C	1.630472	0.356381	1.105754
C67	C	1.073527	-0.310273	0.439082
C68	C	1.406860	0.023060	0.772416
C69	C	1.740194	0.356394	1.105749
C70	C	1.073475	-0.460348	0.650671
C71	C	1.406809	-0.127015	0.984004
C72	C	1.740142	0.206318	1.317337
C73	C	0.963751	-0.460358	0.650682
C74	C	1.297085	-0.127024	0.984015
C75	C	1.630418	0.206309	1.317349
C76	C	1.517987	-0.550797	0.506127
C77	C	1.851320	-0.217463	0.839460
C78	C	2.184653	0.115870	1.172794
C79	C	1.518028	-0.633343	0.506155
C80	C	1.851362	-0.300009	0.839488
C81	C	2.184695	0.033324	1.172821
C82	C	1.447919	-0.832816	0.576304
C83	C	1.781252	-0.499482	0.909637
C84	C	2.114586	-0.166149	1.242970
C85	C	1.422332	-0.882239	0.480436
C86	C	1.755665	-0.548906	0.813769
C87	C	2.088999	-0.215573	1.147102
C88	C	1.518132	-0.784473	0.506168
C89	C	1.851465	-0.451140	0.839502
C90	C	2.184798	-0.117806	1.172835
C91	C	1.543770	-0.882131	0.602048
C92	C	1.877103	-0.548798	0.935381
C93	C	2.210437	-0.215464	1.268714
C94	C	1.518229	-0.930458	0.506190
C95	C	1.851563	-0.597125	0.839523
C96	C	2.184896	-0.263791	1.172857
C97	C	1.492494	-0.832809	0.410249
C98	C	1.825828	-0.499476	0.743583
C99	C	2.159161	-0.166143	1.076916
C100	C	1.613977	-0.832697	0.531926
C101	C	1.947310	-0.499363	0.865260
C102	C	2.280644	-0.166030	1.198593
C103	C	1.588427	-0.882098	0.435992
C104	C	1.921760	-0.548765	0.769325
C105	C	2.255093	-0.215431	1.102659
C106	C	1.518073	-0.700375	0.506157
C107	C	1.851406	-0.367041	0.839491
C108	C	2.184739	-0.033708	1.172824
C109	C	1.518289	-1.014554	0.506190
C110	C	1.851622	-0.681221	0.839524
C111	C	2.184955	-0.347888	1.172857
C112	C	1.792147	-0.357859	0.506159
C113	C	2.125480	-0.024526	0.839493
C114	C	2.458813	0.308808	1.172826
C115	C	1.908923	-0.357865	0.506166
C116	C	2.242257	-0.024532	0.839499
C117	C	2.575590	0.308802	1.172832
C118	C	1.518109	-0.357841	0.780178
C119	C	1.851442	-0.024508	1.113511
C120	C	2.184776	0.308826	1.446844
C121	C	1.518107	-0.357839	0.896954
C122	C	1.851440	-0.024506	1.230288
C123	C	2.184774	0.308827	1.563621
C124	C	1.518269	-0.164139	0.506185
C125	C	1.851603	0.169194	0.839518
C126	C	2.184936	0.502528	1.172852
C127	C	1.518336	-0.081593	0.506202
C128	C	1.851669	0.251740	0.839536
C129	C	2.185003	0.585073	1.172869
C130	C	1.585335	-0.310354	0.951832
C131	C	1.918669	0.022980	1.285165
C132	C	2.252002	0.356313	1.618498
C133	C	1.585329	-0.310355	1.061556
C134	C	1.918662	0.022978	1.394889
C135	C	2.251996	0.356311	1.728222
C136	C	1.450863	-0.405335	1.061516
C137	C	1.784197	-0.072002	1.394849
C138	C	2.117530	0.261332	1.728182
C139	C	1.450865	-0.405329	0.951794
C140	C	1.784198	-0.071996	1.285127
C141	C	2.117532	0.261338	1.618460
C142	C	1.662971	-0.255520	0.951856
C143	C	1.996304	0.077813	1.285189
C144	C	2.329638	0.411146	1.618522
C145	C	1.662965	-0.255522	1.061580
C146	C	1.996298	0.077811	1.394913
C147	C	2.329632	0.411145	1.728247
C148	C	1.518107	-0.357860	1.233177
C149	C	1.851440	-0.024527	1.566510
C150	C	2.184773	0.308807	1.899844
C151	C	1.518099	-0.357847	1.116401
C152	C	1.851432	-0.024514	1.449734
C153	C	2.184766	0.308819	1.783067
H154	H	1.103266	-0.445031	0.732077
H155	H	1.436599	-0.111698	1.065410
H156	H	1.769932	0.221636	1.398744
H157	H	1.396118	-0.443994	0.907117
H158	H	1.729451	-0.110660	1.240450
H159	H	2.062784	0.222673	1.573783
F160	F	1.666094	-0.910205	0.358394
F161	F	1.999427	-0.576872	0.691727
F162	F	2.332760	-0.243538	1.025061
H163	H	0.929738	-0.439847	0.728033
H164	H	1.263072	-0.106514	1.061367
H165	H	1.596405	0.226819	1.394700
H166	H	1.641230	-0.197999	0.922099
H167	H	1.974563	0.135335	1.255432
H168	H	2.307897	0.468668	1.588765
H169	H	0.933943	-0.517855	0.628751
H170	H	1.267276	-0.184522	0.962084
H171	H	1.600609	0.148811	1.295418
F172	F	1.624805	-0.184139	1.106087
F173	F	1.958138	0.149194	1.439420
F174	F	2.291471	0.482528	1.772754
F175	F	1.769304	-0.275658	1.100508
F176	F	2.102638	0.057675	1.433841
F177	F	2.435971	0.391009	1.767175
H178	H	0.919139	-0.271555	0.384485
H179	H	1.252472	0.061778	0.717818
H180	H	1.585805	0.395111	1.051152
H181	H	1.107480	-0.514948	0.621387
H182	H	1.440813	-0.181614	0.954721
H183	H	1.774146	0.151719	1.288054
H184	H	1.118201	-0.271529	0.384470
H185	H	1.451534	0.061805	0.717803
H186	H	1.784868	0.395138	1.051137
H187	H	1.740246	-0.276130	0.917820
H188	H	2.073579	0.057204	1.251154
H189	H	2.406912	0.390537	1.584487
H190	H	1.388455	-0.811175	0.635531
H191	H	1.721788	-0.477842	0.968864
H192	H	2.055122	-0.144508	1.302198
H193	H	1.396115	-0.443998	1.106179
H194	H	1.729448	-0.110664	1.439512
H195	H	2.062782	0.222669	1.772846
F196	F	1.316444	-0.910682	0.451961
F197	F	1.649777	-0.577348	0.785294
F198	F	1.983111	-0.244015	1.118627
H199	H	1.470755	-0.811234	0.329152
H200	H	1.804088	-0.477901	0.662485
H201	H	2.137421	-0.144568	0.995819
H202	H	1.565416	-0.903795	0.683123
H203	H	1.898750	-0.570462	1.016456
H204	H	2.232083	-0.237129	1.349790
F205	F	1.719837	-0.804232	0.560436
F206	F	2.053170	-0.470898	0.893769
F207	F	2.386503	-0.137565	1.227103
