data_functionalizedCrystal
_audit_creation_method	'MofGen! by Chris Wilmer'
_symmetry_space_group_name_H-M	'P1'
_symmetry_Int_Tables_number	1
_symmetry_cell_setting	triclinic
loop_
_symmetry_equiv_pos_as_xyz
  x,y,z
_cell_length_a	19.288840
_cell_length_b	16.776229
_cell_length_c	19.288865
_cell_angle_alpha	89.991353
_cell_angle_beta	96.868869
_cell_angle_gamma	90.012976
loop_
_atom_site_label
_atom_site_type_symbol
_atom_site_fract_x
_atom_site_fract_y
_atom_site_fract_z
O1	O	0.921361	0.066430	-0.086563
O2	O	0.719098	0.066404	-0.098270
O3	O	0.826074	0.066402	0.008714
O4	O	0.814385	0.066432	-0.193548
O5	O	0.826062	-0.066174	0.008714
O6	O	0.719086	-0.066172	-0.098270
O7	O	0.921349	-0.066146	-0.086563
Zn8	Zn	0.820215	-0.087209	-0.092416
Zn9	Zn	0.820231	0.087467	-0.092417
O10	O	0.814373	-0.066144	-0.193547
C11	C	0.693215	0.000112	-0.097896
C12	C	0.616110	0.000101	-0.096774
N13	N	0.820209	-0.206420	-0.092416
C14	C	0.579913	0.072371	-0.096235
C15	C	0.507467	0.072380	-0.095173
C16	C	0.471221	0.000116	-0.094636
C17	C	0.507426	-0.072162	-0.095179
C18	C	0.579871	-0.072170	-0.096248
C19	C	0.361889	-0.055243	-0.052258
C20	C	0.289446	-0.055232	-0.051185
C21	C	0.247778	0.000137	-0.091342
C22	C	0.278562	0.055509	-0.132564
C23	C	0.351007	0.055501	-0.133633
C24	C	0.392667	0.000117	-0.093477
C25	C	0.133025	0.072422	-0.089653
C26	C	0.060577	0.072428	-0.088595
C27	C	0.060539	-0.072117	-0.088594
C28	C	0.132985	-0.072121	-0.089658
C29	C	0.169225	0.000150	-0.090185
C30	C	0.862201	-0.248121	-0.134434
C31	C	0.862209	-0.331573	-0.134431
C32	C	0.820221	-0.373323	-0.092414
C33	C	0.778227	-0.331616	-0.050391
C34	C	0.778224	-0.248165	-0.050390
C35	C	0.778241	-0.668163	-0.050391
C36	C	0.778247	-0.751619	-0.050397
C37	C	0.862226	-0.751571	-0.134433
C38	C	0.862223	-0.668120	-0.134432
C39	C	0.820233	-0.626421	-0.092407
C40	C	0.820226	-0.535932	-0.092409
C41	C	0.820223	-0.463810	-0.092415
C42	C	0.947232	0.000148	-0.086937
C43	C	1.024336	0.000164	-0.088059
C44	C	0.825692	0.000112	0.034591
C45	C	0.824563	0.000104	0.111694
N46	N	0.820243	0.206678	-0.092412
C47	C	0.814755	0.000148	-0.219424
C48	C	0.815884	0.000161	-0.296527
C49	C	0.887331	0.000109	0.156396
C50	C	0.886270	0.000121	0.228843
C51	C	0.822438	0.000113	0.256585
C52	C	0.759661	0.000114	0.211873
C53	C	0.760723	0.000109	0.139428
C54	C	0.772253	-0.046332	0.364868
C55	C	0.771193	-0.046332	0.437312
C56	C	0.819158	0.000131	0.480030
C57	C	0.868194	0.046584	0.450296
C58	C	0.869257	0.046579	0.377851
C59	C	0.821278	0.000119	0.335139
C60	C	0.880781	0.000150	0.603288
C61	C	0.879717	0.000167	0.675736
C62	C	0.753106	0.000151	0.658764
C63	C	0.754171	0.000142	0.586318
C64	C	0.818010	0.000137	0.558584
H65	H	0.609415	0.131220	-0.096664
F66	F	0.693913	0.000105	0.091850
F67	F	0.687363	0.000134	0.538741
F68	F	0.691725	0.000110	0.241399
F69	F	0.256688	-0.114175	-0.007327
H70	H	0.896419	-0.785533	-0.168650
H71	H	0.162532	0.131269	-0.090088
F72	F	0.719008	-0.095775	0.468951
F73	F	0.953080	0.000127	0.276427
F74	F	0.406229	-0.114180	-0.009516
F75	F	0.171511	-0.149041	-0.090228
F76	F	0.468935	0.149302	-0.094600
H77	H	0.744053	-0.785610	-0.016179
H78	H	0.896389	-0.214135	-0.168654
H79	H	0.609342	-0.131022	-0.096688
F80	F	0.921440	0.096020	0.346208
F81	F	0.021968	-0.149026	-0.088028
F82	F	0.383767	0.114428	-0.177504
H83	H	0.744051	-0.634221	-0.016171
H84	H	0.733193	-0.084172	0.330092
F85	F	0.948723	0.000141	0.573769
F86	F	0.906901	-0.375951	-0.179154
H87	H	0.031106	0.131281	-0.088160
F88	F	0.234221	0.114439	-0.175308
H89	H	0.477911	-0.131000	-0.094743
F90	F	0.906904	-0.623692	-0.179161
F91	F	0.733536	-0.203784	-0.005663
F92	F	0.733542	-0.376051	-0.005670
F93	F	0.919245	0.096038	0.495754
F94	F	0.955275	0.000121	0.126884
H95	H	0.930833	0.000175	0.712132
F96	F	0.685169	0.000147	0.688284
