data_functionalizedCrystal
_audit_creation_method	'MofGen! by Chris Wilmer'
_symmetry_space_group_name_H-M	'P1'
_symmetry_Int_Tables_number	1
_symmetry_cell_setting	triclinic
loop_
_symmetry_equiv_pos_as_xyz
  x,y,z
_cell_length_a	18.101398
_cell_length_b	12.594516
_cell_length_c	18.101389
_cell_angle_alpha	89.982841
_cell_angle_beta	89.975673
_cell_angle_gamma	90.008790
loop_
_atom_site_label
_atom_site_type_symbol
_atom_site_fract_x
_atom_site_fract_y
_atom_site_fract_z
Zn1	Zn	1.132212	-0.423988	-0.418845
Zn2	Zn	1.132145	-0.601956	-0.295006
Zn3	Zn	1.008370	-0.423977	-0.295006
Zn4	Zn	1.008359	-0.601910	-0.418795
O5	O	1.070272	-0.512958	-0.356913
O6	O	1.235836	-0.447620	-0.402439
O7	O	1.115703	-0.578361	-0.191373
O8	O	1.024831	-0.275033	-0.311455
O9	O	1.235787	-0.578372	-0.311455
O10	O	1.115816	-0.275041	-0.402439
O11	O	1.024766	-0.447601	-0.191373
O12	O	0.904736	-0.447557	-0.311406
O13	O	1.024811	-0.578294	-0.522435
O14	O	0.904728	-0.578283	-0.402353
O15	O	1.115805	-0.447575	-0.522472
O16	O	1.115692	-0.750896	-0.311406
O17	O	1.024747	-0.750862	-0.402353
C18	C	0.877861	-0.512915	-0.356875
C19	C	0.795547	-0.512922	-0.356876
C20	C	1.070232	-0.789499	-0.356890
C21	C	1.070282	-0.907804	-0.356905
C22	C	0.496456	-0.512988	-0.356938
C23	C	0.527762	-0.430327	-0.299996
C24	C	0.613380	-0.430549	-0.299753
C25	C	0.644839	-0.512954	-0.356907
C26	C	0.613744	-0.625071	-0.335584
C27	C	0.528099	-0.624611	-0.335188
C28	C	0.528065	-0.484507	-0.435337
C29	C	0.613715	-0.482010	-0.434909
C30	C	0.728698	-0.512942	-0.356891
C31	C	0.412597	-0.513008	-0.356952
C32	C	1.119838	-1.047800	-0.307525
C33	C	1.052258	-0.977102	-0.289319
C34	C	1.137854	-0.976931	-0.375078
C35	C	1.002743	-1.047891	-0.338728
C36	C	1.088384	-1.047727	-0.424519
C37	C	1.020758	-0.977060	-0.406338
C38	C	1.263434	-0.513002	-0.356952
C39	C	1.345748	-0.513021	-0.356969
C40	C	1.070314	-0.512931	-0.550075
C41	C	1.070333	-0.512919	-0.632389
C42	C	1.070332	-0.235337	-0.356952
C43	C	1.070358	-0.117032	-0.356969
C44	C	1.070376	-0.512720	-0.931481
C45	C	1.012928	-0.594703	-0.900132
C46	C	1.013083	-0.595083	-0.814514
C47	C	1.070354	-0.512819	-0.783098
C48	C	1.148386	-0.543275	-0.814204
C49	C	1.148066	-0.543813	-0.899849
C50	C	1.050470	-0.400099	-0.899903
C51	C	1.048734	-0.400749	-0.814252
C52	C	1.070346	-0.512873	-0.699238
C53	C	1.070389	-0.512668	-1.015340
C54	C	1.070272	-0.512908	-0.164503
C55	C	1.070397	-0.512619	-0.082189
H56	H	0.634403	-0.347409	-0.313118
H57	H	1.036973	-0.946076	-0.232166
C58	C	0.641283	-0.710508	-0.389852
N59	N	0.662030	-0.774860	-0.430725
H60	H	0.955220	-0.576024	-0.793481
C61	C	1.109063	-1.089685	-0.501705
N62	N	1.124648	-1.121292	-0.559841
H63	H	0.506216	-0.448941	-0.242241
H64	H	1.194966	-0.945763	-0.390421
H65	H	0.954891	-0.575839	-0.920718
H66	H	0.635164	-0.649646	-0.278890
C67	C	0.925565	-1.089817	-0.317905
N68	N	0.867437	-1.121397	-0.302218
C69	C	1.030514	-0.706795	-0.929202
N70	N	1.043765	-0.791223	-0.951095
C71	C	0.641165	-0.370542	-0.456627
N72	N	0.661843	-0.286582	-0.472982
H73	H	1.026227	-0.678562	-0.794033
C74	C	0.642641	-0.557427	-0.495297
N75	N	0.664427	-0.614242	-0.540780
C76	C	1.207768	-0.465147	-0.786713
N77	N	1.252494	-0.406301	-0.766004
C78	C	0.501069	-0.657232	-0.257758
N79	N	0.480714	-0.681797	-0.199434
C80	C	0.498906	-0.375977	-0.461524
N81	N	0.476945	-0.294226	-0.481239
H82	H	0.978833	-0.946196	-0.448124
C83	C	0.499945	-0.317664	-0.317849
N84	N	0.478988	-0.232803	-0.331296
C85	C	0.500712	-0.565839	-0.492655
N86	N	0.480106	-0.627101	-0.535822
C87	C	1.207863	-0.466666	-0.927869
N88	N	1.252906	-0.408566	-0.948971
H89	H	0.633837	-0.449376	-0.241660
C90	C	1.176337	-1.089772	-0.251033
N91	N	1.218889	-1.121388	-0.208481
C92	C	0.974929	-0.362621	-0.929056
N93	N	0.918028	-0.334405	-0.951013
C94	C	1.170852	-0.655037	-0.926849
N95	N	1.188013	-0.738814	-0.947182
C96	C	1.171572	-0.653318	-0.785244
N97	N	1.189031	-0.736206	-0.763434
H98	H	0.507391	-0.688284	-0.374854
C99	C	0.971171	-0.369695	-0.786754
N100	N	0.912756	-0.346300	-0.766027
C101	C	1.101124	-0.313842	-0.785349
N102	N	1.140586	-0.248384	-0.763573
C103	C	1.106999	-0.317581	-0.927291
N104	N	1.149579	-0.255437	-0.947922
