data_functionalizedCrystal
_audit_creation_method	'MofGen! by Chris Wilmer'
_symmetry_space_group_name_H-M	'P1'
_symmetry_Int_Tables_number	1
_symmetry_cell_setting	triclinic
loop_
_symmetry_equiv_pos_as_xyz
  x,y,z
_cell_length_a	12.827893
_cell_length_b	13.897448
_cell_length_c	12.827885
_cell_angle_alpha	89.967724
_cell_angle_beta	89.980728
_cell_angle_gamma	90.017663
loop_
_atom_site_label
_atom_site_type_symbol
_atom_site_fract_x
_atom_site_fract_y
_atom_site_fract_z
Zn1	Zn	1.597653	-0.383969	-0.590831
Zn2	Zn	1.597540	-0.545295	-0.416083
Zn3	Zn	1.422894	-0.384016	-0.416104
Zn4	Zn	1.422873	-0.545224	-0.590783
O5	O	1.510240	-0.464626	-0.503450
O6	O	1.743874	-0.405380	-0.567661
O7	O	1.574335	-0.523951	-0.269850
O8	O	1.446133	-0.249028	-0.439311
O9	O	1.743791	-0.523905	-0.439275
O10	O	1.574527	-0.248994	-0.567681
O11	O	1.446023	-0.405460	-0.269865
O12	O	1.276655	-0.405390	-0.439265
O13	O	1.446096	-0.523783	-0.737026
O14	O	1.276639	-0.523829	-0.567601
O15	O	1.574506	-0.405310	-0.737060
O16	O	1.574314	-0.680267	-0.439229
O17	O	1.445986	-0.680215	-0.567580
C18	C	1.238730	-0.464607	-0.503430
C19	C	1.122577	-0.464623	-0.503447
C20	C	1.070812	-0.523321	-0.566853
C21	C	0.950762	-0.523338	-0.566872
C22	C	1.510164	-0.715240	-0.503420
C23	C	1.510227	-0.822454	-0.503442
C24	C	1.510336	-1.018749	-0.503508
C25	C	1.510272	-0.909517	-0.503474
C26	C	1.782810	-0.464645	-0.503471
C27	C	1.898963	-0.464654	-0.503480
C28	C	1.510311	-0.464533	-0.776021
C29	C	1.510341	-0.464494	-0.892174
C30	C	1.510345	-0.213033	-0.503504
C31	C	1.510390	-0.105819	-0.503526
C32	C	1.573890	-0.405858	-0.943976
C33	C	1.573923	-0.405816	-1.064026
C34	C	1.510229	-0.464649	-0.231940
C35	C	1.510401	-0.464416	-0.115788
H36	H	0.943473	-0.414400	-0.449188
H37	H	1.455953	-0.514656	-0.936701
H38	H	1.115371	-0.573559	-0.621128
H39	H	1.078018	-0.414377	-0.449180
H40	H	1.628268	-0.355686	-0.899449
H41	H	0.906245	-0.573595	-0.621154
C42	C	1.647427	-0.337994	-1.124199
C43	C	1.647355	-0.338048	-1.244244
C44	C	1.720862	-0.270224	-1.304419
C45	C	1.794441	-0.202345	-1.244548
C46	C	1.794516	-0.202288	-1.124495
C47	C	1.721009	-0.270112	-1.064321
H48	H	1.592885	-0.388299	-1.288570
H49	H	1.720806	-0.270267	-1.393289
H50	H	1.848855	-0.152137	-1.289092
H51	H	1.848986	-0.152037	-1.080169
H52	H	1.721065	-0.270070	-0.975450
C53	C	1.436894	-0.532241	-1.055623
C54	C	1.354914	-0.490402	-0.980564
C55	C	1.281407	-0.558226	-0.920390
C56	C	1.289878	-0.667889	-0.935274
C57	C	1.371861	-0.709734	-1.010336
C58	C	1.445369	-0.641910	-1.070510
H59	H	1.348640	-0.409217	-0.969543
H60	H	1.220718	-0.527249	-0.864824
H61	H	1.235463	-0.718097	-0.890730
H62	H	1.378135	-0.790919	-1.021357
H63	H	1.506057	-0.672887	-1.126076
