data_functionalizedCrystal
_audit_creation_method	'MofGen! by Chris Wilmer'
_symmetry_space_group_name_H-M	'P1'
_symmetry_Int_Tables_number	1
_symmetry_cell_setting	triclinic
loop_
_symmetry_equiv_pos_as_xyz
  x,y,z
_cell_length_a	6.817900
_cell_length_b	11.102233
_cell_length_c	10.992743
_cell_angle_alpha	91.887093
_cell_angle_beta	108.770538
_cell_angle_gamma	108.604751
loop_
_atom_site_label
_atom_site_type_symbol
_atom_site_fract_x
_atom_site_fract_y
_atom_site_fract_z
V1	V	-4.113465	-0.175801	-0.400596
O2	O	-4.072462	0.008488	-0.392963
O3	O	-4.090228	-0.348622	-0.397862
O4	O	-4.091090	-0.173079	-0.575306
O5	O	-4.071593	-0.168270	-0.214291
V6	V	-4.590460	-0.153760	-0.378311
O7	O	-4.389043	-0.224150	-0.449478
O8	O	-4.765080	-0.105411	-0.329429
O9	O	-4.390491	0.019061	-0.381044
O10	O	-4.748860	-0.338049	-0.385944
O11	O	-4.749729	-0.161291	-0.564616
O12	O	-4.389628	-0.156482	-0.203601
C13	C	-3.940508	-0.390753	-0.391545
C14	C	-4.002969	-0.532037	-0.390474
C15	C	-4.275040	-0.737635	-0.395363
C16	C	-4.216357	-0.604885	-0.396377
C17	C	-3.848248	-0.591942	-0.383545
C18	C	-3.906928	-0.724688	-0.382522
C19	C	-4.487568	-0.745107	-0.402776
C20	C	-4.428885	-0.612358	-0.403790
C21	C	-3.941607	-0.166829	-0.617890
C22	C	-4.004763	-0.165747	-0.760717
C23	C	-4.317170	-0.172366	-0.971811
C24	C	-4.251383	-0.173004	-0.823178
C25	C	-3.855025	-0.039612	-0.791487
C26	C	-3.922093	-0.038444	-0.940129
C27	C	-4.043292	-0.281087	-0.978410
C28	C	-3.982604	-0.283957	-0.830195
C29	C	-4.203553	0.061185	-0.387359
C30	C	-4.120332	0.202468	-0.388437
C31	C	-4.202454	-0.162736	-0.161010
C32	C	-4.118535	-0.163812	-0.018182
H33	H	-4.538460	-0.770065	-0.315015
H34	H	-4.619824	-0.802978	-0.497955
O35	O	-4.428320	-0.541825	-0.283787
H36	H	-4.475505	-0.611786	-0.219351
O37	O	-3.614510	-0.026476	-0.736030
H38	H	-3.547544	-0.023583	-0.815951
O39	O	-4.130498	-0.407465	-0.806148
H40	H	-4.113897	-0.490547	-0.855572
O41	O	-4.577598	-0.586874	-0.527580
H42	H	-4.751930	-0.627577	-0.532790
O43	O	-4.513708	-0.291815	-1.041530
H44	H	-4.656363	-0.263942	-1.096347
H45	H	-4.367178	-0.263662	-0.803584
O46	O	-4.394489	-0.060791	-1.007194
H47	H	-4.292054	0.000733	-1.057660
O48	O	-3.740046	-0.789283	-0.375043
H49	H	-3.712548	-0.835869	-0.286287
O50	O	-4.286001	-0.061361	-0.761893
H51	H	-4.349832	-0.006698	-0.838423
O52	O	-4.222920	-0.406372	-1.050712
H53	H	-4.160100	-0.457544	-1.109436
O54	O	-3.983853	0.079044	-0.970725
H55	H	-3.965645	0.134489	-0.879425
H56	H	-3.895083	-0.275833	-1.007590
O57	O	-3.618092	-0.513380	-0.377185
H58	H	-3.603280	-0.411011	-0.379069
O59	O	-3.750874	-0.286668	-0.774935
H60	H	-3.647413	-0.203429	-0.696742
H61	H	-3.771935	-0.027007	-0.969409
O62	O	-3.872688	0.076712	-0.726913
H63	H	-3.987932	0.044998	-0.672868
