data_functionalizedCrystal
_audit_creation_method	'MofGen! by Chris Wilmer'
_symmetry_space_group_name_H-M	'P1'
_symmetry_Int_Tables_number	1
_symmetry_cell_setting	triclinic
loop_
_symmetry_equiv_pos_as_xyz
  x,y,z
_cell_length_a	12.759401
_cell_length_b	14.908178
_cell_length_c	12.759393
_cell_angle_alpha	93.331280
_cell_angle_beta	90.020938
_cell_angle_gamma	93.315511
loop_
_atom_site_label
_atom_site_type_symbol
_atom_site_fract_x
_atom_site_fract_y
_atom_site_fract_z
Zn1	Zn	1.582110	-0.359109	0.569852
Zn2	Zn	1.571850	-0.510006	0.384017
Zn3	Zn	1.406405	-0.359157	0.394184
Zn4	Zn	1.396254	-0.509943	0.559658
O5	O	1.489155	-0.434554	0.476928
O6	O	1.727769	-0.379132	0.545212
O7	O	1.549858	-0.490042	0.238341
O8	O	1.438255	-0.232895	0.426008
O9	O	1.720231	-0.489996	0.408679
O10	O	1.567344	-0.232860	0.555071
O11	O	1.428306	-0.379214	0.245811
O12	O	1.258038	-0.379153	0.416123
O13	O	1.420953	-0.489888	0.708035
O14	O	1.250580	-0.489935	0.537697
O15	O	1.557501	-0.379071	0.715524
O16	O	1.540015	-0.636253	0.398795
O17	O	1.411005	-0.636207	0.527838
C18	C	1.216188	-0.434543	0.476908
C19	C	1.099410	-0.434560	0.476923
C20	C	1.040686	-0.492332	0.540114
C21	C	0.930962	-0.492335	0.540135
C22	C	0.938695	-0.376792	0.413763
C23	C	1.048418	-0.376785	0.413749
C24	C	1.473323	-0.668967	0.461130
C25	C	1.466647	-0.769249	0.454407
C26	C	1.588420	-0.957505	0.576310
C27	C	1.582150	-1.051729	0.569996
C28	C	1.447834	-1.051925	0.435472
C29	C	1.454103	-0.957700	0.441786
C30	C	1.524400	-0.910494	0.512206
C31	C	1.530674	-0.816267	0.518513
C32	C	1.396353	-0.816465	0.383995
C33	C	1.390083	-0.910689	0.377681
C34	C	1.763187	-0.434566	0.476949
C35	C	1.879963	-0.434571	0.476957
C36	C	1.489239	-0.434467	0.750967
C37	C	1.489275	-0.434430	0.867746
C38	C	1.505076	-0.199226	0.492810
C39	C	1.511861	-0.098943	0.499579
C40	C	1.489135	-0.434575	0.203959
C41	C	1.489320	-0.434358	0.087198
C42	C	1.560381	-0.376719	0.926510
C43	C	1.560401	-0.376680	1.036237
C44	C	1.418206	-0.492072	1.028426
C45	C	1.418182	-0.492106	0.918701
H46	H	0.883154	-0.539377	0.591593
H47	H	0.897164	-0.329755	0.362328
O48	O	1.105309	-0.320634	0.352263
C49	C	1.036777	-0.269632	0.296520
H50	H	0.956065	-0.306586	0.290325
H51	H	1.029750	-0.201150	0.339743
C52	C	1.179567	-0.211121	0.193217
C53	C	1.080438	-0.256512	0.185601
H54	H	1.206500	-0.203024	0.124799
H55	H	1.225740	-0.245479	0.230774
H56	H	1.173698	-0.154058	0.229241
H57	H	1.086310	-0.313578	0.149590
H58	H	1.034267	-0.222163	0.148035
H59	H	1.618301	-0.329684	1.084078
H60	H	1.587916	-0.777832	0.575850
H61	H	1.360327	-0.539031	1.069927
H62	H	1.360271	-0.539101	0.870854
H63	H	1.082201	-0.539373	0.591557
H64	H	1.645666	-0.919068	0.633642
H65	H	1.634277	-1.090002	0.622202
H66	H	1.390597	-1.090377	0.378144
O67	O	1.321655	-0.956510	0.309393
C68	C	1.218459	-0.933534	0.333768
H69	H	1.214826	-0.907578	0.419433
H70	H	1.194669	-0.878901	0.281071
C71	C	1.147237	-1.049180	0.210645
C72	C	1.142773	-1.017307	0.315863
H73	H	1.100549	-1.100853	0.199596
H74	H	1.216762	-1.064658	0.194219
H75	H	1.127414	-1.003645	0.166743
H76	H	1.162609	-1.062838	0.359761
H77	H	1.073249	-1.001839	0.332295
O78	O	1.334047	-0.770759	0.321872
C79	C	1.269798	-0.716247	0.385266
H80	H	1.261371	-0.744586	0.466110
H81	H	1.307034	-0.644808	0.393698
C82	C	1.171050	-0.680115	0.234625
C83	C	1.160692	-0.714926	0.333917
H84	H	1.103749	-0.679296	0.202949
H85	H	1.214338	-0.716838	0.191914
H86	H	1.202084	-0.620585	0.241665
H87	H	1.129671	-0.774457	0.326874
H88	H	1.117396	-0.678213	0.376626
O89	O	1.629470	-0.320604	0.877180
C90	C	1.692250	-0.269674	0.952581
H91	H	1.649444	-0.266525	1.031000
H92	H	1.769810	-0.302712	0.962034
C93	C	1.766453	-0.177529	0.819929
C94	C	1.713875	-0.173656	0.916243
H95	H	1.779798	-0.118302	0.797513
H96	H	1.724161	-0.211844	0.769129
H97	H	1.831081	-0.205065	0.827820
H98	H	1.649243	-0.146131	0.908348
H99	H	1.756157	-0.139334	0.967041
