data_functionalizedCrystal
_audit_creation_method	'MofGen! by Chris Wilmer'
_symmetry_space_group_name_H-M	'P1'
_symmetry_Int_Tables_number	1
_symmetry_cell_setting	triclinic
loop_
_symmetry_equiv_pos_as_xyz
  x,y,z
_cell_length_a	19.288864
_cell_length_b	17.699083
_cell_length_c	17.766277
_cell_angle_alpha	89.992740
_cell_angle_beta	89.976791
_cell_angle_gamma	83.209630
loop_
_atom_site_label
_atom_site_type_symbol
_atom_site_fract_x
_atom_site_fract_y
_atom_site_fract_z
O1	O	0.921465	0.094417	-0.062837
O2	O	0.719219	0.107154	-0.062786
O3	O	0.826056	-0.009412	-0.062806
O4	O	0.814628	0.210983	-0.062817
O5	O	0.826037	-0.009417	0.062382
O6	O	0.719201	0.107148	0.062403
O7	O	0.921446	0.094411	0.062351
Cu8	Cu	0.820322	0.100779	0.073808
Cu9	Cu	0.820344	0.100786	-0.074242
O10	O	0.814609	0.210977	0.062372
C11	C	0.693333	0.106741	-0.000185
C12	C	0.616228	0.105511	-0.000165
C13	C	0.571613	0.173906	-0.000180
C14	C	0.499164	0.172751	-0.000188
C15	C	0.471334	0.103196	-0.000197
C16	C	0.515959	0.034791	-0.000177
C17	C	0.588406	0.035949	-0.000162
C18	C	0.363014	0.048520	-0.044079
C19	C	0.290568	0.047365	-0.044099
C20	C	0.247884	0.099622	-0.000242
C21	C	0.277654	0.153047	0.043625
C22	C	0.350101	0.154204	0.043641
C23	C	0.392779	0.101932	-0.000213
C24	C	0.124712	0.166769	-0.000265
C25	C	0.052262	0.165610	-0.000269
C26	C	0.069059	0.027649	-0.000265
C27	C	0.141507	0.028809	-0.000254
C28	C	0.169329	0.098371	-0.000258
C29	C	0.825637	-0.037611	-0.000212
C30	C	0.824409	-0.121627	-0.000211
C31	C	0.887120	-0.170336	-0.000226
C32	C	0.885961	-0.249278	-0.000232
C33	C	0.822091	-0.279509	-0.000219
C34	C	0.759375	-0.230794	-0.000206
C35	C	0.760535	-0.151854	-0.000205
C36	C	0.754699	-0.549150	-0.000211
C37	C	0.753545	-0.628097	-0.000210
C38	C	0.880126	-0.646575	-0.000238
C39	C	0.881285	-0.567635	-0.000237
C40	C	0.818570	-0.518926	-0.000229
C41	C	0.819827	-0.433329	-0.000223
C42	C	0.820834	-0.365105	-0.000219
C43	C	0.947332	0.094824	-0.000251
C44	C	1.024437	0.096054	-0.000276
C45	C	0.815028	0.239176	-0.000224
C46	C	0.816257	0.323193	-0.000230
N47	N	0.820311	0.100774	0.177938
N48	N	0.820360	0.100786	-0.178372
C49	C	0.867634	0.049184	0.217316
C50	C	0.867638	0.049180	0.296118
C51	C	0.820326	0.100780	0.335539
C52	C	0.772994	0.152374	0.296151
C53	C	0.772987	0.152371	0.217351
C54	C	0.811109	0.169742	0.460375
C55	C	0.811121	0.169746	0.539174
C56	C	0.820344	0.100789	0.578585
C57	C	0.829570	0.031825	0.539188
C58	C	0.829563	0.031822	0.460388
C59	C	0.820328	0.100789	0.420984
C60	C	0.867674	0.049191	0.703409
C61	C	0.867673	0.049186	0.782212
C62	C	0.773033	0.152386	0.782244
C63	C	0.773030	0.152384	0.703442
C64	C	0.820355	0.100787	0.664029
H65	H	0.374336	0.197702	0.079362
O66	O	0.943311	-0.538232	-0.000120
C67	C	1.018057	-0.459800	0.064689
C68	C	0.947795	-0.493060	0.064663
H69	H	1.021699	-0.423258	0.117052
H70	H	1.062709	-0.508144	0.064723
H71	H	1.021757	-0.423330	0.012272
H72	H	0.944026	-0.529520	0.117071
H73	H	0.903176	-0.444680	0.064590
H74	H	0.703632	-0.509501	-0.000204
H75	H	0.493296	-0.021841	-0.000195
H76	H	0.931192	-0.686243	-0.000249
O77	O	0.236275	0.203976	0.086135
C78	C	0.198197	0.336148	0.111367
C79	C	0.245045	0.278514	0.063171
H80	H	0.205282	0.396424	0.092830
H81	H	0.141259	0.326303	0.103869
H82	H	0.213405	0.328378	0.173129
H83	H	0.229899	0.286249	0.001392
H84	H	0.301972	0.288374	0.070733
H85	H	0.266336	0.003866	-0.079822
H86	H	0.734471	0.194386	0.328252
O87	O	0.691437	-0.657338	-0.000236
C88	C	0.566003	-0.630684	-0.000177
C89	C	0.636285	-0.597466	-0.000165
H90	H	0.521394	-0.582294	-0.000103
H91	H	0.562265	-0.667148	-0.052579
H92	H	0.562323	-0.667211	0.052203
H93	H	0.640013	-0.560905	-0.052509
H94	H	0.639993	-0.561045	0.052272
O95	O	0.151628	0.234404	-0.000227
C96	C	0.127323	0.371118	-0.000275
C97	C	0.096751	0.294576	-0.000300
H98	H	0.082971	0.419787	-0.000349
H99	H	0.160770	0.375157	0.052134
H100	H	0.160871	0.375071	-0.052649
H101	H	0.063172	0.290571	0.052038
H102	H	0.063344	0.290569	-0.052743
O103	O	0.404370	-0.002275	-0.086759
C104	C	0.409535	-0.107233	-0.173754
C105	C	0.362619	-0.049746	-0.125468
H106	H	0.375800	-0.145639	-0.205051
H107	H	0.439634	-0.075316	-0.216116
H108	H	0.447915	-0.143337	-0.135795
H109	H	0.324199	-0.013626	-0.163369
H110	H	0.332569	-0.081709	-0.083101
H111	H	0.939130	-0.145729	-0.000233
H112	H	0.734450	0.194382	0.185289
H113	H	0.906175	0.007168	0.328185
O114	O	0.184880	-0.037610	-0.000117
C115	C	0.276419	-0.116351	0.064729
C116	C	0.227328	-0.041109	0.064675
H117	H	0.310761	-0.119197	0.117100
H118	H	0.244122	-0.166295	0.064769
H119	H	0.310751	-0.119242	0.012320
H120	H	0.192985	-0.038144	0.117075
H121	H	0.259666	0.008800	0.064596
H122	H	0.707371	-0.255414	-0.000199
H123	H	0.709469	-0.112195	-0.000193
O124	O	0.042118	-0.039966	-0.000373
C125	C	0.034309	-0.158211	-0.065252
C126	C	0.064882	-0.081670	-0.065219
H127	H	0.052690	-0.191943	-0.117682
H128	H	0.052688	-0.192053	-0.012892
H129	H	-0.025134	-0.147275	-0.065227
H130	H	0.124326	-0.092537	-0.065270
H131	H	0.046449	-0.047852	-0.117574
O132	O	0.631650	-0.030563	-0.000186
C133	C	0.640665	-0.167522	-0.000137
C134	C	0.591610	-0.092253	-0.000125
H135	H	0.608313	-0.217418	-0.000072
H136	H	0.675016	-0.170478	-0.052535
H137	H	0.674991	-0.170388	0.052247
H138	H	0.557241	-0.089337	-0.052473
H139	H	0.557307	-0.089329	0.052308
H140	H	0.906207	0.007171	0.814274
H141	H	0.937027	-0.288934	-0.000243
H142	H	0.906166	0.007169	0.185228
O143	O	0.838407	-0.035153	0.577490
C144	C	0.789624	-0.117004	0.666519
C145	C	0.779516	-0.041138	0.623175
H146	H	0.742026	-0.121861	0.703478
H147	H	0.796176	-0.166318	0.624854
H148	H	0.838186	-0.118975	0.703353
H149	H	0.730952	-0.039093	0.586340
H150	H	0.773005	0.008140	0.664881
O151	O	0.838496	-0.035232	0.422234
C152	C	0.856829	-0.172029	0.430553
C153	C	0.846707	-0.096146	0.473856
H154	H	0.863485	-0.221298	0.472271
H155	H	0.809202	-0.176993	0.393710
H156	H	0.905346	-0.173969	0.393612
H157	H	0.798216	-0.094154	0.510838
H158	H	0.894370	-0.091213	0.510651
O159	O	0.913663	-0.001007	0.665234
C160	C	1.007557	-0.103337	0.673517
C161	C	0.955502	-0.046542	0.716840
H162	H	1.041408	-0.140156	0.715222
H163	H	0.977669	-0.141116	0.636666
H164	H	1.042165	-0.070742	0.636583
H165	H	0.920881	-0.079075	0.753816
H166	H	0.985434	-0.008763	0.753644
H167	H	0.734508	0.194397	0.814340
H168	H	0.734499	0.194397	0.671379
O169	O	0.802121	0.236800	0.577324
C170	C	0.783854	0.373599	0.568992
C171	C	0.794022	0.297713	0.525696
H172	H	0.777317	0.422867	0.527270
H173	H	0.735302	0.375628	0.605893
H174	H	0.831469	0.378478	0.605875
H175	H	0.746446	0.292783	0.488772
H176	H	0.842601	0.295716	0.488843
H177	H	0.015936	0.221308	-0.000277
H178	H	0.803586	0.225898	0.428293
H179	H	0.462831	0.228448	-0.000199
H180	H	0.594260	0.230549	-0.000184
