data_functionalizedCrystal
_audit_creation_method	'MofGen! by Chris Wilmer'
_symmetry_space_group_name_H-M	'P1'
_symmetry_Int_Tables_number	1
_symmetry_cell_setting	triclinic
loop_
_symmetry_equiv_pos_as_xyz
  x,y,z
_cell_length_a	9.065218
_cell_length_b	17.038272
_cell_length_c	7.540329
_cell_angle_alpha	89.996089
_cell_angle_beta	89.996962
_cell_angle_gamma	88.063721
loop_
_atom_site_label
_atom_site_type_symbol
_atom_site_fract_x
_atom_site_fract_y
_atom_site_fract_z
O1	O	1.971909	0.114742	-0.147490
O2	O	1.543568	0.124154	-0.147492
O3	O	1.755192	0.005614	-0.147477
O4	O	1.760284	0.233281	-0.147505
O5	O	1.755179	0.005612	0.147488
O6	O	1.543554	0.124152	0.147473
O7	O	1.971895	0.114740	0.147476
Cu8	Cu	1.757723	0.119446	0.174407
Cu9	Cu	1.757739	0.119448	-0.174424
O10	O	1.760270	0.233280	0.147460
C11	C	1.488484	0.123248	-0.000010
C12	C	1.324369	0.120544	-0.000011
C13	C	1.750555	-0.023549	0.000005
C14	C	1.736739	-0.110441	0.000005
C15	C	1.863587	-0.159639	0.000008
C16	C	1.850596	-0.241284	-0.000009
C17	C	1.710756	-0.273728	-0.000016
C18	C	1.583899	-0.224524	-0.000024
C19	C	1.596891	-0.142881	-0.000020
C20	C	1.664859	-0.519818	-0.000041
C21	C	1.651876	-0.601467	-0.000040
C22	C	1.918575	-0.618221	-0.000028
C23	C	1.931554	-0.536576	-0.000013
C24	C	1.804697	-0.487379	-0.000031
C25	C	1.697475	-0.357182	-0.000028
C26	C	1.817980	-0.403927	-0.000032
C27	C	2.026979	0.115646	-0.000011
C28	C	2.191093	0.118350	-0.000022
C29	C	1.764908	0.262442	-0.000026
C30	C	1.778724	0.349335	-0.000037
N31	N	1.757723	0.119444	0.419755
N32	N	1.757751	0.119443	-0.419772
H33	H	1.953890	-0.281338	-0.000003
H34	H	1.537996	-0.627879	-0.000017
O35	O	1.999317	-0.127997	0.000091
C36	C	1.983590	-0.045387	0.000051
H37	H	1.870765	-0.027035	0.055898
H38	H	2.073689	-0.019715	0.085686
H39	H	1.993602	-0.022611	-0.141458
O40	O	1.561719	-0.388794	-0.000255
C41	C	1.546223	-0.435496	-0.153046
H42	H	1.660058	-0.454990	-0.203987
H43	H	1.480669	-0.489368	-0.118690
H44	H	1.485414	-0.399895	-0.260010
H45	H	1.931837	-0.377507	-0.000065
O46	O	2.067432	-0.505103	-0.000321
C47	C	2.145408	-0.530161	-0.153058
H48	H	2.063825	-0.547693	-0.259844
H49	H	2.214450	-0.480270	-0.204321
H50	H	2.221003	-0.582780	-0.118519
O51	O	1.447945	-0.255908	-0.000116
C52	C	1.338772	-0.194974	-0.000078
H53	H	1.387130	-0.139231	-0.055916
H54	H	1.241764	-0.212700	-0.085721
H55	H	1.299140	-0.183719	0.141430
O56	O	2.041645	-0.666124	-0.000106
C57	C	2.000201	-0.745142	-0.000067
H58	H	1.883828	-0.749091	-0.055907
H59	H	2.080430	-0.781517	-0.085708
H60	H	2.002834	-0.768714	0.141441
O61	O	1.541483	-0.472147	0.000045
C62	C	1.415277	-0.518294	0.000007
H63	H	1.445118	-0.578950	0.055843
H64	H	1.325767	-0.488852	0.085653
H65	H	1.372893	-0.524395	-0.141500
O66	O	1.473715	-0.095054	-0.000332
C67	C	1.473282	-0.047310	-0.153076
H68	H	1.545045	-0.076667	-0.259846
H69	H	1.355497	-0.038969	-0.204360
H70	H	1.518953	0.012313	-0.118537
