data_functionalizedCrystal
_audit_creation_method	'MofGen! by Chris Wilmer'
_symmetry_space_group_name_H-M	'P1'
_symmetry_Int_Tables_number	1
_symmetry_cell_setting	triclinic
loop_
_symmetry_equiv_pos_as_xyz
  x,y,z
_cell_length_a	10.489741
_cell_length_b	16.109301
_cell_length_c	14.586319
_cell_angle_alpha	89.994786
_cell_angle_beta	89.999184
_cell_angle_gamma	84.000327
loop_
_atom_site_label
_atom_site_type_symbol
_atom_site_fract_x
_atom_site_fract_y
_atom_site_fract_z
O1	O	1.692350	0.117298	-0.076187
O2	O	2.192350	0.617298	0.423813
O3	O	1.320995	0.128308	-0.076202
O4	O	1.820995	0.628308	0.423798
O5	O	1.516874	0.001835	-0.076184
O6	O	2.016874	0.501835	0.423816
O7	O	1.496471	0.243771	-0.076204
O8	O	1.996471	0.743771	0.423796
O9	O	1.516860	0.001833	0.076296
O10	O	2.016860	0.501833	0.576296
O11	O	1.320981	0.128306	0.076279
O12	O	1.820981	0.628306	0.576279
O13	O	1.692337	0.117296	0.076294
O14	O	2.192337	0.617296	0.576294
Cu15	Cu	1.506658	0.122801	0.090209
Cu16	Cu	2.006658	0.622801	0.590209
Cu17	Cu	1.506674	0.122803	-0.090117
Cu18	Cu	2.006674	0.622803	0.409883
O19	O	1.496457	0.243769	0.076277
O20	O	1.996457	0.743769	0.576277
C21	C	1.516041	-0.029146	0.000056
C22	C	2.016041	0.470854	0.500056
C23	C	1.513563	-0.121457	0.000058
C24	C	2.013563	0.378543	0.500058
C25	C	1.273468	0.127475	0.000037
C26	C	1.773468	0.627475	0.500037
C27	C	1.131875	0.124987	0.000032
C28	C	1.631875	0.624987	0.500032
C29	C	1.624032	-0.343048	0.000047
C30	C	2.124032	0.156952	0.500047
C31	C	1.621694	-0.429783	0.000040
C32	C	2.121694	0.070217	0.500040
C33	C	1.389290	-0.411341	0.000034
C34	C	1.889290	0.088659	0.500034
C35	C	1.391630	-0.324608	0.000035
C36	C	1.891630	0.175392	0.500035
C37	C	1.509004	-0.290464	0.000047
C38	C	2.009004	0.209536	0.500047
C39	C	1.504327	-0.463932	0.000038
C40	C	2.004327	0.036068	0.500038
C41	C	1.501791	-0.557974	0.000030
C42	C	2.001791	-0.057974	0.500030
C43	C	1.511541	-0.196417	0.000053
C44	C	2.011541	0.303583	0.500053
C45	C	1.064902	0.044516	0.000047
C46	C	1.564902	0.544516	0.500047
C47	C	0.972231	0.082531	-0.075135
C48	C	1.472231	0.582531	0.424865
C49	C	0.972251	0.082548	0.075199
C50	C	1.472251	0.582548	0.575199
C51	C	1.041068	0.163035	-0.075212
C52	C	1.541068	0.663035	0.424788
C53	C	1.041098	0.163041	0.075189
C54	C	1.541098	0.663041	0.575189
C55	C	0.948453	0.201115	-0.000011
C56	C	1.448453	0.701115	0.499989
C57	C	1.739863	0.118128	0.000053
C58	C	2.239863	0.618128	0.500053
C59	C	1.881456	0.120616	0.000052
C60	C	2.381456	0.620616	0.500052
C61	C	1.497291	0.274750	0.000034
C62	C	1.997291	0.774750	0.500034
C63	C	1.499769	0.367060	0.000027
C64	C	1.999769	0.867060	0.500027
N65	N	1.506656	0.122799	0.217041
N66	N	2.006656	0.622799	0.717041
N67	N	1.506686	0.122799	-0.216949
N68	N	2.006686	0.622799	0.283051
C69	C	1.593420	0.066815	0.452055
C70	C	2.093420	0.566815	0.952055
C71	C	1.593423	0.066813	0.548036
C72	C	2.093423	0.566813	1.048036
C73	C	1.419913	0.178784	0.548031
C74	C	1.919913	0.678784	1.048031
C75	C	1.419904	0.178782	0.452051
C76	C	1.919904	0.678782	0.952051
C77	C	1.506665	0.122798	0.404066
C78	C	2.006665	0.622798	0.904066
C79	C	1.506677	0.122799	0.596027
C80	C	2.006677	0.622799	1.096027
C81	C	1.506680	0.122797	0.700094
C82	C	2.006680	0.622797	1.200094
C83	C	1.506660	0.122799	0.299992
C84	C	2.006660	0.622799	0.799992
H85	H	1.719606	-0.315251	0.000055
H86	H	2.219606	0.184749	0.500055
F87	F	1.131055	-0.041963	-0.000042
F88	F	1.631055	0.458037	0.499958
H89	H	1.715362	-0.472594	0.000038
H90	H	2.215362	0.027406	0.500038
H91	H	0.898069	0.267337	-0.000057
H92	H	1.398069	0.767337	0.499943
H93	H	1.664066	0.021226	0.587106
H94	H	2.164066	0.521226	1.087106
F95	F	1.264379	-0.447687	0.000022
F96	F	1.764379	0.052313	0.500022
H97	H	1.071645	0.197062	0.138749
H98	H	1.571645	0.697062	0.638749
F99	F	0.932348	0.038030	-0.158210
F100	F	1.432348	0.538030	0.341790
H101	H	1.297954	-0.281792	0.000032
H102	H	1.797954	0.218208	0.500032
F103	F	1.327583	0.238365	0.599106
F104	F	1.827583	0.738365	1.099106
H105	H	1.071408	0.197059	-0.138845
H106	H	1.571408	0.697059	0.361155
H107	H	0.941762	0.048484	0.138760
H108	H	1.441762	0.548484	0.638760
F109	F	1.685755	0.007230	0.400989
F110	F	2.185755	0.507230	0.900989
H111	H	1.349251	0.224370	0.412976
H112	H	1.849251	0.724370	0.912976
