data_functionalizedCrystal
_audit_creation_method	'MofGen! by Chris Wilmer'
_symmetry_space_group_name_H-M	'P1'
_symmetry_Int_Tables_number	1
_symmetry_cell_setting	triclinic
loop_
_symmetry_equiv_pos_as_xyz
  x,y,z
_cell_length_a	9.065218
_cell_length_b	9.065218
_cell_length_c	10.868271
_cell_angle_alpha	90.002492
_cell_angle_beta	90.003238
_cell_angle_gamma	94.984115
loop_
_atom_site_label
_atom_site_type_symbol
_atom_site_fract_x
_atom_site_fract_y
_atom_site_fract_z
O1	O	1.960382	-0.216358	-0.102351
O2	O	2.293716	0.116976	0.230982
O3	O	2.627049	0.450309	0.564315
O4	O	1.531098	-0.234104	-0.102346
O5	O	1.864431	0.099229	0.230988
O6	O	2.197764	0.432563	0.564321
O7	O	1.754613	-0.010588	-0.102346
O8	O	2.087947	0.322745	0.230987
O9	O	2.421280	0.656078	0.564321
O10	O	1.736867	-0.439873	-0.102351
O11	O	2.070200	-0.106540	0.230982
O12	O	2.403533	0.226793	0.564316
O13	O	1.754632	-0.010580	0.102299
O14	O	2.087965	0.322754	0.435632
O15	O	2.421298	0.656087	0.768965
O16	O	1.531116	-0.234095	0.102299
O17	O	1.864450	0.099238	0.435632
O18	O	2.197783	0.432571	0.768966
O19	O	1.960401	-0.216349	0.102293
O20	O	2.293734	0.116985	0.435627
O21	O	2.627068	0.450318	0.768960
Zn22	Zn	1.745762	-0.225221	0.134788
Zn23	Zn	2.079095	0.108113	0.468121
Zn24	Zn	2.412428	0.441446	0.801455
Zn25	Zn	1.745737	-0.225232	-0.134840
Zn26	Zn	2.079070	0.108101	0.198493
Zn27	Zn	2.412404	0.441434	0.531826
O28	O	1.736885	-0.439864	0.102294
O29	O	2.070219	-0.106531	0.435627
O30	O	2.403552	0.226802	0.768960
C31	C	1.476120	-0.232394	-0.000023
C32	C	1.809454	0.100939	0.333311
C33	C	2.142787	0.434273	0.666644
C34	C	1.312277	-0.227294	-0.000021
C35	C	1.645611	0.106039	0.333313
C36	C	1.978944	0.439372	0.666646
N37	N	1.745721	-0.225229	-0.318854
N38	N	2.079054	0.108104	0.014479
N39	N	2.412388	0.441437	0.347812
C40	C	1.752917	0.044403	-0.000026
C41	C	2.086250	0.377736	0.333308
C42	C	2.419584	0.711069	0.666641
C43	C	1.747817	0.208245	-0.000032
C44	C	2.081151	0.541579	0.333302
C45	C	2.414484	0.874912	0.666635
C46	C	2.015378	-0.218059	-0.000032
C47	C	2.348712	0.115275	0.333301
C48	C	2.682045	0.448608	0.666634
C49	C	2.179221	-0.223158	-0.000042
C50	C	2.512555	0.110175	0.333291
C51	C	2.845888	0.443508	0.666624
C52	C	1.738582	-0.494855	-0.000029
C53	C	2.071915	-0.161522	0.333304
C54	C	2.405248	0.171811	0.666637
C55	C	1.743681	-0.658698	-0.000032
C56	C	2.077015	-0.325365	0.333302
C57	C	2.410348	0.007968	0.666635
C58	C	1.745731	-0.225229	-0.430192
C59	C	2.079065	0.108104	-0.096859
C60	C	2.412398	0.441438	0.236475
C61	C	1.745759	-0.225224	-0.569869
C62	C	2.079092	0.108110	-0.236536
C63	C	2.412425	0.441443	0.096797
N64	N	1.745789	-0.225212	0.318802
N65	N	2.079122	0.108121	0.652135
N66	N	2.412456	0.441455	0.985469
