data_functionalizedCrystal
_audit_creation_method	'MofGen! by Chris Wilmer'
_symmetry_space_group_name_H-M	'P1'
_symmetry_Int_Tables_number	1
_symmetry_cell_setting	triclinic
loop_
_symmetry_equiv_pos_as_xyz
  x,y,z
_cell_length_a	14.044202
_cell_length_b	14.971486
_cell_length_c	13.448316
_cell_angle_alpha	89.999959
_cell_angle_beta	90.010379
_cell_angle_gamma	88.403416
loop_
_atom_site_label
_atom_site_type_symbol
_atom_site_fract_x
_atom_site_fract_y
_atom_site_fract_z
O1	O	-0.123533	-1.196681	-0.082595
O2	O	-0.138327	-0.937447	-0.082624
O3	O	0.007059	-1.063169	-0.082583
O4	O	-0.268919	-1.070959	-0.082636
O5	O	0.007058	-1.063155	0.082801
O6	O	-0.138328	-0.937433	0.082760
O7	O	-0.123534	-1.196668	0.082789
Cu8	Cu	-0.130931	-1.067049	0.097875
Cu9	Cu	-0.130930	-1.067065	-0.097710
O10	O	-0.268920	-1.070946	0.082748
C11	C	0.042377	-1.059754	0.000114
C12	C	0.147614	-1.049590	0.000127
C13	C	-0.137666	-0.904063	0.000065
C14	C	-0.135683	-0.804610	0.000055
C15	C	0.397840	-1.103089	0.000107
C16	C	0.340293	-1.031021	0.000103
C17	C	0.233077	-1.041355	0.000116
C18	C	0.505066	-1.092757	0.000094
C19	C	-0.124195	-1.230051	0.000098
C20	C	-0.126178	-1.329505	0.000102
C21	C	0.695762	-1.074358	0.000063
C22	C	0.590524	-1.084517	0.000084
N23	N	-0.130932	-1.067045	0.235440
C24	C	-0.221094	-0.754116	0.000040
C25	C	-0.219225	-0.660669	0.000055
C26	C	-0.131945	-0.617718	0.000078
C27	C	-0.046528	-0.668219	0.000096
C28	C	-0.048398	-0.761664	0.000088
C29	C	-0.042638	-0.473450	0.000110
C30	C	-0.040767	-0.379999	0.000117
C31	C	-0.213465	-0.372455	0.000077
C32	C	-0.215334	-0.465900	0.000069
C33	C	-0.129917	-0.516394	0.000085
N34	N	-0.130922	-1.067076	-0.235275
C35	C	-0.073330	-1.008235	0.712692
C36	C	-0.073327	-1.008232	0.608589
C37	C	-0.130922	-1.067066	0.556521
C38	C	-0.188515	-1.125914	0.608561
C39	C	-0.188512	-1.125920	0.712663
C40	C	-0.188519	-1.125893	0.391581
C41	C	-0.188523	-1.125886	0.287473
C42	C	-0.073334	-1.008205	0.287508
C43	C	-0.073331	-1.008212	0.391609
C44	C	-0.130926	-1.067058	0.443642
H45	H	0.371547	-0.961561	0.000092
Br46	Br	-0.339551	-0.812397	-0.000002
H47	H	-0.288775	-0.619560	0.000041
Br48	Br	0.345750	-1.218856	0.000131
Br49	Br	-0.333787	-0.524190	0.000023
H50	H	-0.235425	-1.173791	0.245081
H51	H	-0.283015	-0.331338	0.000069
H52	H	0.021152	-0.802776	0.000100
Br53	Br	0.077685	-0.321708	0.000181
H54	H	-0.026436	-0.960321	0.755079
Br55	Br	-0.266673	-1.205767	0.537898
Br56	Br	0.073287	-0.541978	0.000137
Br57	Br	0.071925	-0.609930	0.000137
Br58	Br	0.004805	-0.928346	0.537976
H59	H	-0.026438	-0.960300	0.434000
Br60	Br	0.004827	-0.928338	0.216893
Br61	Br	-0.266678	-1.205763	0.462197
Br62	Br	-0.266667	-1.205786	0.783280
