data_functionalizedCrystal
_audit_creation_method	'MofGen! by Chris Wilmer'
_symmetry_space_group_name_H-M	'P1'
_symmetry_Int_Tables_number	1
_symmetry_cell_setting	triclinic
loop_
_symmetry_equiv_pos_as_xyz
  x,y,z
_cell_length_a	11.169416
_cell_length_b	11.169417
_cell_length_c	11.169409
_cell_angle_alpha	90.021683
_cell_angle_beta	89.970483
_cell_angle_gamma	89.996824
loop_
_atom_site_label
_atom_site_type_symbol
_atom_site_fract_x
_atom_site_fract_y
_atom_site_fract_z
Zn1	Zn	-0.477744	-1.835013	-0.678626
Zn2	Zn	0.022256	-1.335013	-0.178626
Zn3	Zn	-0.678484	-1.834924	-0.477953
Zn4	Zn	-0.178484	-1.334924	0.022047
Zn5	Zn	-0.477810	-1.634299	-0.477954
Zn6	Zn	0.022190	-1.134299	0.022046
Zn7	Zn	-0.678380	-1.634328	-0.678591
Zn8	Zn	-0.178380	-1.134328	-0.178591
O9	O	-0.578105	-1.734641	-0.578281
O10	O	-0.078105	-1.234641	-0.078281
O11	O	-0.504389	-2.002951	-0.652020
O12	O	-0.004389	-1.502951	-0.152020
O13	O	-0.651936	-1.808261	-0.310003
O14	O	-0.151936	-1.308261	0.189997
O15	O	-0.309852	-1.660950	-0.504588
O16	O	0.190148	-1.160950	-0.004588
O17	O	-0.651872	-2.002885	-0.504586
O18	O	-0.151872	-1.502885	-0.004586
O19	O	-0.309803	-1.808413	-0.652021
O20	O	0.190197	-1.308413	-0.152021
O21	O	-0.504502	-1.660863	-0.310004
O22	O	-0.004502	-1.160863	0.189996
O23	O	-0.504400	-1.466353	-0.504554
O24	O	-0.004400	-0.966353	-0.004554
O25	O	-0.651694	-1.660999	-0.846545
O26	O	-0.151694	-1.160999	-0.346545
O27	O	-0.651758	-1.466374	-0.651962
O28	O	-0.151758	-0.966374	-0.151962
O29	O	-0.504287	-1.808441	-0.846571
O30	O	-0.004287	-1.308441	-0.346571
O31	O	-0.846420	-1.808289	-0.504553
O32	O	-0.346420	-1.308289	-0.004553
O33	O	-0.846343	-1.660912	-0.651961
O34	O	-0.346343	-1.160912	-0.151961
C35	C	-0.578076	-1.422816	-0.578255
C36	C	-0.078076	-0.922816	-0.078255
C37	C	-0.578092	-1.289416	-0.578273
C38	C	-0.078092	-0.789416	-0.078273
C39	C	-0.889929	-1.734627	-0.578279
C40	C	-0.389929	-1.234627	-0.078279
C41	C	-1.023329	-1.734730	-0.578318
C42	C	-0.523329	-1.234730	-0.078318
C43	C	-0.265062	-1.734688	-0.578309
C44	C	0.234938	-1.234688	-0.078309
C45	C	-0.131662	-1.734708	-0.578321
C46	C	0.368338	-1.234708	-0.078321
C47	C	-0.577971	-1.734733	-0.891323
C48	C	-0.077971	-1.234733	-0.391323
C49	C	-0.577915	-1.734772	-1.024723
C50	C	-0.077915	-1.234772	-0.524723
C51	C	-0.578124	-1.047683	-0.578298
C52	C	-0.078124	-0.547683	-0.078298
C53	C	-0.578107	-1.181083	-0.578280
C54	C	-0.078107	-0.681083	-0.078280
C55	C	-0.578151	-1.734618	-0.266456
C56	C	-0.078151	-1.234618	0.233544
C57	C	-0.577869	-1.734812	-0.133057
C58	C	-0.077869	-1.234812	0.366943
