data_functionalizedCrystal
_audit_creation_method	'MofGen! by Chris Wilmer'
_symmetry_space_group_name_H-M	'P1'
_symmetry_Int_Tables_number	1
_symmetry_cell_setting	triclinic
loop_
_symmetry_equiv_pos_as_xyz
  x,y,z
_cell_length_a	19.805407
_cell_length_b	14.908520
_cell_length_c	19.805399
_cell_angle_alpha	93.269050
_cell_angle_beta	89.983114
_cell_angle_gamma	93.320773
loop_
_atom_site_label
_atom_site_type_symbol
_atom_site_fract_x
_atom_site_fract_y
_atom_site_fract_z
Zn1	Zn	1.019185	-0.359168	-0.398269
Zn2	Zn	1.269185	-0.109168	-0.148269
Zn3	Zn	1.519185	0.140832	0.101731
Zn4	Zn	1.769185	0.390832	0.351731
Zn5	Zn	1.012581	-0.510037	-0.291612
Zn6	Zn	1.262581	-0.260037	-0.041612
Zn7	Zn	1.512581	-0.010037	0.208388
Zn8	Zn	1.762581	0.239963	0.458388
Zn9	Zn	0.906004	-0.359197	-0.285095
Zn10	Zn	1.156004	-0.109197	-0.035095
Zn11	Zn	1.406004	0.140803	0.214905
Zn12	Zn	1.656004	0.390803	0.464905
Zn13	Zn	0.899441	-0.509986	-0.404757
Zn14	Zn	1.149441	-0.259986	-0.154757
Zn15	Zn	1.399441	-0.009986	0.095243
Zn16	Zn	1.649441	0.240014	0.345243
O17	O	0.959303	-0.434597	-0.344933
O18	O	1.209303	-0.184597	-0.094933
O19	O	1.459303	0.065403	0.155067
O20	O	1.709303	0.315403	0.405067
O21	O	1.113026	-0.379191	-0.384133
O22	O	1.363026	-0.129191	-0.134133
O23	O	1.613026	0.120809	0.115867
O24	O	1.863026	0.370809	0.365867
O25	O	0.998426	-0.490062	-0.196032
O26	O	1.248426	-0.240062	0.053968
O27	O	1.498426	0.009938	0.303968
O28	O	1.748426	0.259938	0.553968
O29	O	0.926528	-0.232948	-0.294665
O30	O	1.176528	0.017052	-0.044665
O31	O	1.426528	0.267052	0.205335
O32	O	1.676528	0.517052	0.455335
O33	O	1.108173	-0.490034	-0.305773
O34	O	1.358173	-0.240034	-0.055773
O35	O	1.608173	0.009966	0.194227
O36	O	1.858173	0.259966	0.444227
O37	O	1.009682	-0.232927	-0.377813
O38	O	1.259682	0.017073	-0.127813
O39	O	1.509682	0.267073	0.122187
O40	O	1.759682	0.517073	0.372187
O41	O	0.920124	-0.379240	-0.191244
O42	O	1.170124	-0.129240	0.058756
O43	O	1.420124	0.120760	0.308756
O44	O	1.670124	0.370760	0.558756
O45	O	0.810417	-0.379190	-0.300956
O46	O	1.060417	-0.129190	-0.050956
O47	O	1.310417	0.120810	0.199044
O48	O	1.560417	0.370810	0.449044
O49	O	0.915343	-0.489946	-0.498611
O50	O	1.165343	-0.239946	-0.248611
O51	O	1.415343	0.010054	0.001389
O52	O	1.665343	0.260054	0.251389
O53	O	0.805596	-0.489974	-0.388871
O54	O	1.055596	-0.239974	-0.138871
O55	O	1.305596	0.010026	0.111129
O56	O	1.555596	0.260026	0.361129
O57	O	1.003319	-0.379141	-0.493845
O58	O	1.253319	-0.129141	-0.243845
O59	O	1.503319	0.120859	0.006155
O60	O	1.753319	0.370859	0.256155
O61	O	0.992063	-0.636275	-0.312064
O62	O	1.242063	-0.386275	-0.062064
O63	O	1.492063	-0.136275	0.187936
O64	O	1.742063	0.113725	0.437936
O65	O	0.908939	-0.636238	-0.395190
O66	O	1.158939	-0.386238	-0.145190
O67	O	1.408939	-0.136238	0.104810
O68	O	1.658939	0.113762	0.354810
C69	C	0.783448	-0.434580	-0.344910
C70	C	1.033448	-0.184580	-0.094910
C71	C	1.283448	0.065420	0.155090
C72	C	1.533448	0.315420	0.405090
C73	C	0.708215	-0.434594	-0.344918
C74	C	0.958215	-0.184594	-0.094918
C75	C	1.208215	0.065406	0.155082
C76	C	1.458215	0.315406	0.405082
C77	C	0.670374	-0.492366	-0.390629
C78	C	0.920374	-0.242366	-0.140629
C79	C	1.170374	0.007634	0.109371
C80	C	1.420374	0.257634	0.359371
C81	C	0.599686	-0.492368	-0.390638
C82	C	0.849686	-0.242368	-0.140638
C83	C	1.099686	0.007632	0.109362
C84	C	1.349686	0.257632	0.359362
C85	C	0.566839	-0.434601	-0.344933
C86	C	0.816839	-0.184601	-0.094933
C87	C	1.066839	0.065399	0.155067
C88	C	1.316839	0.315399	0.405067
C89	C	0.604685	-0.376823	-0.299220
C90	C	0.854685	-0.126823	-0.049220
C91	C	1.104685	0.123177	0.200780
C92	C	1.354685	0.373177	0.450780
C93	C	0.675373	-0.376817	-0.299214
C94	C	0.925373	-0.126817	-0.049214
C95	C	1.175373	0.123183	0.200786
C96	C	1.425373	0.373183	0.450786
C97	C	0.319611	-0.376843	-0.299243
C98	C	0.569611	-0.126843	-0.049243
C99	C	0.819611	0.123157	0.200757
C100	C	1.069611	0.373157	0.450757
C101	C	0.248919	-0.376854	-0.299251
C102	C	0.498919	-0.126854	-0.049251
C103	C	0.748919	0.123146	0.200749
C104	C	0.998919	0.373146	0.450749
C105	C	0.243924	-0.492393	-0.390667
C106	C	0.493924	-0.242393	-0.140667
C107	C	0.743924	0.007607	0.109333
C108	C	0.993924	0.257607	0.359333
C109	C	0.314612	-0.492388	-0.390662
C110	C	0.564612	-0.242388	-0.140662
C111	C	0.814612	0.007612	0.109338
C112	C	1.064612	0.257612	0.359338
C113	C	0.352452	-0.434606	-0.344951
C114	C	0.602452	-0.184606	-0.094951
C115	C	0.852452	0.065394	0.155049
C116	C	1.102452	0.315394	0.405049
C117	C	0.429100	-0.434604	-0.344942
C118	C	0.679100	-0.184604	-0.094942
C119	C	0.929100	0.065396	0.155058
C120	C	1.179100	0.315396	0.405058
C121	C	0.490192	-0.434607	-0.344938
C122	C	0.740192	-0.184607	-0.094938
C123	C	0.990192	0.065393	0.155062
C124	C	1.240192	0.315393	0.405062
C125	C	0.949091	-0.668990	-0.355053
C126	C	1.199091	-0.418990	-0.105053
C127	C	1.449091	-0.168990	0.144947
C128	C	1.699091	0.081010	0.394947
C129	C	0.944783	-0.769265	-0.359405
C130	C	1.194783	-0.519265	-0.109405
C131	C	1.444783	-0.269265	0.140595
C132	C	1.694783	-0.019265	0.390595
C133	C	1.023335	-0.957670	-0.281093
C134	C	1.273335	-0.707670	-0.031093
C135	C	1.523335	-0.457670	0.218907
C136	C	1.773335	-0.207670	0.468907
C137	C	1.019291	-1.051887	-0.285180
C138	C	1.269291	-0.801887	-0.035180
C139	C	1.519291	-0.551887	0.214820
C140	C	1.769291	-0.301887	0.464820
C141	C	0.932654	-1.051917	-0.371669
C142	C	1.182654	-0.801917	-0.121669
C143	C	1.432654	-0.551917	0.128331
C144	C	1.682654	-0.301917	0.378331
C145	C	0.936698	-0.957700	-0.367582
C146	C	1.186698	-0.707700	-0.117582
C147	C	1.436698	-0.457700	0.132418
C148	C	1.686698	-0.207700	0.382418
C149	C	0.982040	-0.910580	-0.322292
C150	C	1.232040	-0.660580	-0.072292
C151	C	1.482040	-0.410580	0.177708
C152	C	1.732040	-0.160580	0.427708
C153	C	0.986081	-0.816361	-0.318202
C154	C	1.236081	-0.566361	-0.068202
C155	C	1.486081	-0.316361	0.181798
C156	C	1.736081	-0.066361	0.431798
C157	C	0.899447	-0.816394	-0.404694
C158	C	1.149447	-0.566394	-0.154694
C159	C	1.399447	-0.316394	0.095306
C160	C	1.649447	-0.066394	0.345306
C161	C	0.895403	-0.910610	-0.408781
C162	C	1.145403	-0.660610	-0.158781
C163	C	1.395403	-0.410610	0.091219
C164	C	1.645403	-0.160610	0.341219
C165	C	1.135845	-0.434615	-0.344956
C166	C	1.385845	-0.184615	-0.094956
C167	C	1.635845	0.065385	0.155044
C168	C	1.885845	0.315385	0.405044
C169	C	1.211077	-0.434623	-0.344966
C170	C	1.461077	-0.184623	-0.094966
C171	C	1.711077	0.065377	0.155034
C172	C	1.961077	0.315377	0.405034
C173	C	0.959335	-0.434534	-0.521473
C174	C	1.209335	-0.184534	-0.271473
C175	C	1.459335	0.065466	-0.021473
C176	C	1.709335	0.315466	0.228527
C177	C	0.959349	-0.434508	-0.596704
C178	C	1.209349	-0.184508	-0.346704
C179	C	1.459349	0.065492	-0.096704
C180	C	1.709349	0.315492	0.153296
C181	C	0.969574	-0.199288	-0.334788
C182	C	1.219574	0.050712	-0.084788
C183	C	1.469574	0.300712	0.165212
C184	C	1.719574	0.550712	0.415212
C185	C	0.973951	-0.099014	-0.330465
C186	C	1.223951	0.150986	-0.080465
C187	C	1.473951	0.400986	0.169535
C188	C	1.723951	0.650986	0.419535
C189	C	0.918590	-0.376797	-0.629554
C190	C	1.168590	-0.126797	-0.379554
C191	C	1.418590	0.123203	-0.129554
C192	C	1.668590	0.373203	0.120446
C193	C	0.918600	-0.376780	-0.700242
C194	C	1.168600	-0.126780	-0.450242
C195	C	1.418600	0.123220	-0.200242
C196	C	1.668600	0.373220	0.049758
C197	C	0.959374	-0.434469	-0.738078
C198	C	1.209374	-0.184469	-0.488078
C199	C	1.459374	0.065531	-0.238078
C200	C	1.709374	0.315531	0.011922
C201	C	1.000134	-0.492185	-0.705223
C202	C	1.250134	-0.242185	-0.455223
C203	C	1.500134	0.007815	-0.205223
C204	C	1.750134	0.257815	0.044777
C205	C	1.000120	-0.492207	-0.634537
C206	C	1.250120	-0.242207	-0.384537
C207	C	1.500120	0.007793	-0.134537
C208	C	1.750120	0.257793	0.115463
C209	C	1.000192	-0.492101	-0.990293
C210	C	1.250192	-0.242101	-0.740293
C211	C	1.500192	0.007899	-0.490293
C212	C	1.750192	0.257899	-0.240293
C213	C	1.000204	-0.492073	-1.060984
C214	C	1.250204	-0.242073	-0.810984
C215	C	1.500204	0.007927	-0.560984
C216	C	1.750204	0.257927	-0.310984
C217	C	0.918672	-0.376674	-1.055998
C218	C	1.168672	-0.126674	-0.805998
C219	C	1.418672	0.123326	-0.555998
C220	C	1.668672	0.373326	-0.305998
C221	C	0.918658	-0.376695	-0.985312
C222	C	1.168658	-0.126695	-0.735312
C223	C	1.418658	0.123305	-0.485312
C224	C	1.668658	0.373305	-0.235312
C225	C	0.959415	-0.434415	-0.952463
C226	C	1.209415	-0.184415	-0.702463
C227	C	1.459415	0.065585	-0.452463
C228	C	1.709415	0.315585	-0.202463
C229	C	0.959403	-0.434435	-0.875816
C230	C	1.209403	-0.184435	-0.625816
C231	C	1.459403	0.065565	-0.375816
C232	C	1.709403	0.315565	-0.125816
C233	C	0.959390	-0.434445	-0.814724
C234	C	1.209390	-0.184445	-0.564724
C235	C	1.459390	0.065555	-0.314724
C236	C	1.709390	0.315555	-0.064724
C237	C	0.959313	-0.434594	-0.169077
C238	C	1.209313	-0.184594	0.080923
C239	C	1.459313	0.065406	0.330923
C240	C	1.709313	0.315406	0.580923
C241	C	0.959441	-0.434367	-0.093835
C242	C	1.209441	-0.184367	0.156165
C243	C	1.459441	0.065633	0.406165
C244	C	1.709441	0.315633	0.656165
H245	H	0.222177	-0.329808	-0.262032
H246	H	0.472177	-0.079808	-0.012032
H247	H	0.722177	0.170192	0.237968
H248	H	0.972177	0.420192	0.487968
H249	H	1.060250	-0.919304	-0.244211
H250	H	1.310250	-0.669304	0.005789
H251	H	1.560250	-0.419304	0.255789
H252	H	1.810250	-0.169304	0.505789
H253	H	1.033329	-0.539161	-0.736035
H254	H	1.283329	-0.289161	-0.486035
H255	H	1.533329	-0.039161	-0.236035
H256	H	1.783329	0.210839	0.013965
H257	H	1.033371	-0.539110	-0.963557
H258	H	1.283371	-0.289110	-0.713557
H259	H	1.533371	-0.039110	-0.463557
H260	H	1.783371	0.210890	-0.213557
Br261	Br	1.047610	-0.752412	-0.256733
Br262	Br	1.297610	-0.502412	-0.006733
Br263	Br	1.547610	-0.252412	0.243267
Br264	Br	1.797610	-0.002412	0.493267
H265	H	0.895743	-1.090299	-0.408546
H266	H	1.145743	-0.840299	-0.158546
H267	H	1.395743	-0.590299	0.091454
H268	H	1.645743	-0.340299	0.341454
Br269	Br	0.192566	-0.570814	-0.452703
Br270	Br	0.442566	-0.320814	-0.202703
Br271	Br	0.692566	-0.070814	0.047297
Br272	Br	0.942566	0.179186	0.297297
H273	H	0.885483	-0.329678	-1.082752
H274	H	1.135483	-0.079678	-0.832752
H275	H	1.385483	0.170322	-0.582752
H276	H	1.635483	0.420322	-0.332752
Br277	Br	1.055544	-0.570370	-1.112333
Br278	Br	1.305544	-0.320370	-0.862333
Br279	Br	1.555544	-0.070370	-0.612333
Br280	Br	1.805544	0.179630	-0.362333
H281	H	1.033316	-0.539194	-0.607791
H282	H	1.283316	-0.289194	-0.357791
H283	H	1.533316	-0.039194	-0.107791
H284	H	1.783316	0.210806	0.142209
H285	H	0.341352	-0.539430	-0.427877
H286	H	0.591352	-0.289430	-0.177877
H287	H	0.841352	-0.039430	0.072123
H288	H	1.091352	0.210570	0.322123
H289	H	0.350412	-0.329800	-0.262018
H290	H	0.600412	-0.079800	-0.012018
H291	H	0.850412	0.170200	0.237982
H292	H	1.100412	0.420200	0.487982
H293	H	0.858489	-0.948989	-0.445656
H294	H	1.108489	-0.698989	-0.195656
H295	H	1.358489	-0.448989	0.054344
H296	H	1.608489	-0.198989	0.304344
Br297	Br	0.843388	-0.752481	-0.460598
Br298	Br	1.093388	-0.502481	-0.210598
Br299	Br	1.343388	-0.252481	0.039402
Br300	Br	1.593388	-0.002481	0.289402
H301	H	0.697113	-0.539409	-0.427845
H302	H	0.947113	-0.289409	-0.177845
H303	H	1.197113	-0.039409	0.072155
H304	H	1.447113	0.210591	0.322155
Br305	Br	0.548333	-0.570774	-0.452679
Br306	Br	0.798333	-0.320774	-0.202679
Br307	Br	1.048333	-0.070774	0.047321
Br308	Br	1.298333	0.179226	0.297321
H309	H	0.577936	-0.329784	-0.262009
H310	H	0.827936	-0.079784	-0.012009
H311	H	1.077936	0.170216	0.237991
H312	H	1.327936	0.420216	0.487991
H313	H	0.706182	-0.329768	-0.261995
H314	H	0.956182	-0.079768	-0.011995
H315	H	1.206182	0.170232	0.238005
H316	H	1.456182	0.420232	0.488005
Br317	Br	1.075340	-1.115793	-0.229268
Br318	Br	1.325340	-0.865793	0.020732
Br319	Br	1.575340	-0.615793	0.270732
Br320	Br	1.825340	-0.365793	0.520732
H321	H	0.885392	-0.329815	-0.598753
H322	H	1.135392	-0.079815	-0.348753
H323	H	1.385392	0.170185	-0.098753
H324	H	1.635392	0.420185	0.151247
Br325	Br	0.863325	-0.298395	-0.933966
Br326	Br	1.113325	-0.048395	-0.683966
Br327	Br	1.363325	0.201605	-0.433966
Br328	Br	1.613325	0.451605	-0.183966
Br329	Br	0.863243	-0.298504	-0.744824
Br330	Br	1.113243	-0.048504	-0.494824
Br331	Br	1.363243	0.201496	-0.244824
Br332	Br	1.613243	0.451496	0.005176
