data_functionalizedCrystal
_audit_creation_method	'MofGen! by Chris Wilmer'
_symmetry_space_group_name_H-M	'P1'
_symmetry_Int_Tables_number	1
_symmetry_cell_setting	triclinic
loop_
_symmetry_equiv_pos_as_xyz
  x,y,z
_cell_length_a	10.654539
_cell_length_b	7.681459
_cell_length_c	10.654551
_cell_angle_alpha	84.205707
_cell_angle_beta	95.517031
_cell_angle_gamma	84.224107
loop_
_atom_site_label
_atom_site_type_symbol
_atom_site_fract_x
_atom_site_fract_y
_atom_site_fract_z
O1	O	-1.656073	-0.146515	0.188128
O2	O	-1.290594	-0.146496	0.204947
O3	O	-1.481736	-0.146507	0.013798
O4	O	-1.464931	-0.146504	0.379277
O5	O	-1.505259	0.146349	-0.009780
O6	O	-1.314117	0.146360	0.181369
O7	O	-1.679596	0.146341	0.164550
Zn8	Zn	-1.500591	0.192848	0.169216
Zn9	Zn	-1.469599	-0.193003	0.200281
O10	O	-1.488454	0.146352	0.355699
C11	C	-1.255558	-0.000066	0.191925
C12	C	-1.116114	-0.000059	0.188238
N13	N	-1.521752	0.456181	0.148014
C14	C	-1.037797	-0.159700	0.199346
C15	C	-0.906775	-0.159710	0.195873
C16	C	-0.932402	0.159578	0.170177
C17	C	-1.063420	0.159586	0.173660
C18	C	-1.023001	-0.344039	0.214176
C19	C	-0.891979	-0.344048	0.210703
C20	C	-0.714632	-0.000084	0.177578
C21	C	-0.854074	-0.000076	0.181283
C22	C	-1.492263	-0.000083	-0.044788
C23	C	-1.488569	-0.000094	-0.184231
N24	N	-1.448438	0.543664	0.221483
C25	C	-1.474015	-0.159727	-0.236890
C26	C	-1.470535	-0.159719	-0.367911
C27	C	-1.496171	0.159569	-0.393603
C28	C	-1.499642	0.159559	-0.262583
C29	C	-1.459220	-0.344066	-0.222059
C30	C	-1.455740	-0.344058	-0.353080
C31	C	-1.477927	-0.000076	0.414286
C32	C	-1.481619	-0.000076	0.553729
H33	H	-1.127181	0.289582	0.164628
C34	C	-1.622867	0.557770	0.046707
N35	N	-1.699024	0.634289	-0.029598
H36	H	-1.546225	-0.401266	-0.187891
C37	C	-1.048857	-0.439636	0.341678
N38	N	-1.068333	-0.511630	0.437712
H39	H	-0.861478	-0.414824	0.127720
C40	C	-1.515633	0.335167	-0.204660
N41	N	-1.527677	0.467442	-0.161034
C42	C	-1.347327	0.442082	0.322784
N43	N	-1.271168	0.365559	0.399083
H44	H	-1.505183	0.289553	-0.457413
C45	C	-1.334289	-0.439674	-0.151828
N46	N	-1.240191	-0.511679	-0.098930
C47	C	-1.325789	-0.421332	-0.386805
N48	N	-1.227910	-0.479527	-0.412208
C49	C	-1.565318	-0.439659	-0.407932
N50	N	-1.647850	-0.511659	-0.449245
H51	H	-0.889481	0.289555	0.158309
C52	C	-0.815904	-0.421345	0.337753
N53	N	-0.758603	-0.479562	0.433445
C54	C	-1.086675	-0.421303	0.099567
N55	N	-1.134635	-0.479496	0.013242
