data_functionalizedCrystal
_audit_creation_method	'MofGen! by Chris Wilmer'
_symmetry_space_group_name_H-M	'P1'
_symmetry_Int_Tables_number	1
_symmetry_cell_setting	triclinic
loop_
_symmetry_equiv_pos_as_xyz
  x,y,z
_cell_length_a	18.215407
_cell_length_b	12.759400
_cell_length_c	18.215399
_cell_angle_alpha	89.975454
_cell_angle_beta	89.980167
_cell_angle_gamma	90.015132
loop_
_atom_site_label
_atom_site_type_symbol
_atom_site_fract_x
_atom_site_fract_y
_atom_site_fract_z
Zn1	Zn	1.125124	-0.418265	-0.416133
Zn2	Zn	1.625124	0.081735	0.083867
Zn3	Zn	1.125054	-0.593962	-0.293074
Zn4	Zn	1.625054	-0.093962	0.206926
Zn5	Zn	1.002057	-0.418299	-0.293081
Zn6	Zn	1.502057	0.081701	0.206919
Zn7	Zn	1.002044	-0.593903	-0.416099
Zn8	Zn	1.502044	-0.093903	0.083901
O9	O	1.063570	-0.506107	-0.354597
O10	O	1.563570	-0.006107	0.145403
O11	O	1.228099	-0.441581	-0.399821
O12	O	1.728099	0.058419	0.100179
O13	O	1.108714	-0.570699	-0.190091
O14	O	1.608714	-0.070699	0.309909
O15	O	1.018416	-0.271273	-0.309421
O16	O	1.518416	0.228727	0.190579
O17	O	1.228048	-0.570665	-0.309410
O18	O	1.728048	-0.070665	0.190590
O19	O	1.108833	-0.271248	-0.399827
O20	O	1.608833	0.228752	0.100173
O21	O	1.018349	-0.441640	-0.190096
O22	O	1.518349	0.058360	0.309904
O23	O	0.899071	-0.441583	-0.309388
O24	O	1.399071	0.058417	0.190612
O25	O	1.018395	-0.570566	-0.519088
O26	O	1.518395	-0.070566	-0.019088
O27	O	0.899062	-0.570599	-0.399769
O28	O	1.399062	-0.070599	0.100231
O29	O	1.108821	-0.441525	-0.519113
O30	O	1.608821	0.058475	-0.019113
O31	O	1.108703	-0.740975	-0.309377
O32	O	1.608703	-0.240975	0.190623
O33	O	1.018328	-0.740932	-0.399763
O34	O	1.518328	-0.240932	0.100237
C35	C	0.872364	-0.506089	-0.354576
C36	C	1.372364	-0.006089	0.145424
C37	C	0.790565	-0.506107	-0.354584
C38	C	1.290565	-0.006107	0.145416
C39	C	0.602385	-0.573391	-0.401587
C40	C	1.102385	-0.073391	0.098413
C41	C	0.525527	-0.573394	-0.401596
C42	C	1.025527	-0.073394	0.098404
C43	C	0.525506	-0.438842	-0.307623
C44	C	1.025506	0.061158	0.192377
C45	C	0.602364	-0.438835	-0.307618
C46	C	1.102364	0.061165	0.192382
C47	C	0.640801	-0.506115	-0.354599
C48	C	1.140801	-0.006115	0.145401
C49	C	0.487085	-0.506126	-0.354613
C50	C	0.987085	-0.006126	0.145387
C51	C	0.403752	-0.506129	-0.354623
C52	C	0.903752	-0.006129	0.145377
C53	C	0.724140	-0.506111	-0.354590
C54	C	1.224140	-0.006111	0.145410
C55	C	1.063526	-0.779075	-0.354582
C56	C	1.563526	-0.279075	0.145418
C57	C	1.063575	-0.895851	-0.354600
C58	C	1.563575	-0.395851	0.145400
C59	C	1.110685	-0.950701	-0.307588
C60	C	1.610685	-0.450701	0.192412
C61	C	1.110731	-1.060425	-0.307610
C62	C	1.610731	-0.560425	0.192390
C63	C	1.016549	-1.060440	-0.401659
C64	C	1.516549	-0.560440	0.098341
C65	C	1.016508	-0.950718	-0.401639
C66	C	1.516508	-0.450718	0.098361
C67	C	1.157753	-0.895834	-0.260548
C68	C	1.657753	-0.395834	0.239452
C69	C	1.204866	-0.950683	-0.213532
C70	C	1.704866	-0.450683	0.286468
C71	C	1.204911	-1.060407	-0.213554
C72	C	1.704911	-0.560407	0.286446
C73	C	1.157843	-1.115282	-0.260593
C74	C	1.657843	-0.615282	0.239407
C75	C	1.255523	-0.506126	-0.354618
C76	C	1.755523	-0.006126	0.145382
C77	C	1.337322	-0.506134	-0.354628
C78	C	1.837322	-0.006134	0.145372
C79	C	1.063615	-0.506035	-0.546550
C80	C	1.563615	-0.006035	-0.046550
C81	C	1.063634	-0.506004	-0.628349
C82	C	1.563634	-0.006004	-0.128349
C83	C	1.063634	-0.232074	-0.354628
C84	C	1.563634	0.267926	0.145372
C85	C	1.063661	-0.115297	-0.354642
C86	C	1.563661	0.384703	0.145358
C87	C	1.110736	-0.438749	-0.816557
C88	C	1.610736	0.061251	-0.316557
C89	C	1.110744	-0.438719	-0.893416
C90	C	1.610744	0.061281	-0.393416
C91	C	1.016584	-0.573096	-0.893379
C92	C	1.516584	-0.073096	-0.393379
C93	C	1.016572	-0.573120	-0.816521
C94	C	1.516572	-0.073120	-0.316521
C95	C	1.063652	-0.505949	-0.778112
C96	C	1.563652	-0.005949	-0.278112
C97	C	1.063673	-0.505894	-0.931829
C98	C	1.563673	-0.005894	-0.431829
C99	C	1.063682	-0.505861	-1.015162
C100	C	1.563682	-0.005861	-0.515162
C101	C	1.063642	-0.505980	-0.694773
C102	C	1.563642	-0.005980	-0.194773
C103	C	1.063568	-0.506103	-0.163391
C104	C	1.563568	-0.006103	0.336609
C105	C	1.063691	-0.505838	-0.081592
C106	C	1.563691	-0.005838	0.418408
H107	H	0.494201	-0.384067	-0.269372
H108	H	0.994201	0.115933	0.230628
H109	H	0.633643	-0.384044	-0.269355
H110	H	1.133643	0.115956	0.230645
O111	O	0.488177	-0.638599	-0.447317
O112	O	0.988177	-0.138599	0.052683
C113	C	0.443736	-0.578876	-0.494914
C114	C	0.943736	-0.078876	0.005086
H115	H	0.466912	-0.496136	-0.499557
H116	H	0.966912	0.003864	0.000443
H117	H	0.442885	-0.616979	-0.551504
H118	H	0.942885	-0.116979	-0.051504
H119	H	0.385478	-0.575220	-0.472171
H120	H	0.885478	-0.075220	0.027829
O121	O	1.157826	-0.789249	-0.260456
O122	O	1.657826	-0.289249	0.239544
C123	C	1.209455	-0.752581	-0.208845
C124	C	1.709455	-0.252581	0.291155
H125	H	1.252484	-0.815768	-0.198587
H126	H	1.752484	-0.315768	0.301413
H127	H	1.237339	-0.679118	-0.231059
H128	H	1.737339	-0.179118	0.268941
H129	H	1.180292	-0.733204	-0.155155
H130	H	1.680292	-0.233204	0.344845
O131	O	1.156383	-0.373342	-0.779280
O132	O	1.656383	0.126658	-0.279280
C133	C	1.140332	-0.268628	-0.798090
C134	C	1.640332	0.231372	-0.298090
H135	H	1.081543	-0.263320	-0.819205
H136	H	1.581543	0.236680	-0.319205
H137	H	1.146673	-0.216735	-0.747556
H138	H	1.646673	0.283265	-0.247556
H139	H	1.179797	-0.241152	-0.842716
H140	H	1.679797	0.258848	-0.342716
H141	H	1.243192	-0.905999	-0.175238
H142	H	1.743192	-0.405999	0.324762
H143	H	0.978255	-0.627787	-0.924660
H144	H	1.478255	-0.127787	-0.424660
H145	H	1.243279	-1.105063	-0.175277
H146	H	1.743279	-0.605063	0.324723
O147	O	1.157960	-1.221868	-0.260504
O148	O	1.657960	-0.721868	0.239496
C149	C	1.209652	-1.258517	-0.208940
C150	C	1.709652	-0.758517	0.291060
H151	H	1.219956	-1.195321	-0.165938
H152	H	1.719956	-0.695321	0.334062
H153	H	1.187492	-1.331980	-0.181011
H154	H	1.687492	-0.831980	0.318989
H155	H	1.263305	-1.277888	-0.238175
H156	H	1.763305	-0.777888	0.261825
H157	H	1.149083	-0.383996	-0.924714
H158	H	1.649083	0.116004	-0.424714
O159	O	0.970928	-1.113858	-0.447381
O160	O	1.470928	-0.613858	0.052619
C161	C	1.012824	-1.177214	-0.494974
C162	C	1.512824	-0.677214	0.005026
H163	H	1.068617	-1.193611	-0.469073
H164	H	1.568617	-0.693611	0.030927
H165	H	0.982871	-1.254396	-0.504820
H166	H	1.482871	-0.754396	-0.004820
H167	H	1.020862	-1.134869	-0.549513
H168	H	1.520862	-0.634869	-0.049513
O169	O	0.639611	-0.638770	-0.447296
O170	O	1.139611	-0.138770	0.052704
C171	C	0.589218	-0.698166	-0.488759
C172	C	1.089218	-0.198166	0.011241
H173	H	0.534439	-0.655142	-0.491358
H174	H	1.034439	-0.155142	0.008642
H175	H	0.611446	-0.709470	-0.546728
H176	H	1.111446	-0.209470	-0.046728
H177	H	0.581023	-0.777914	-0.461719
H178	H	1.081023	-0.277914	0.038281
O179	O	0.970680	-0.897593	-0.447334
O180	O	1.470680	-0.397593	0.052666
C181	C	0.929158	-0.969545	-0.488868
C182	C	1.429158	-0.469545	0.011132
H183	H	0.926644	-1.047789	-0.458735
H184	H	1.426644	-0.547789	0.041265
H185	H	0.871162	-0.937892	-0.496671
H186	H	1.371162	-0.437892	0.003329
H187	H	0.956090	-0.981136	-0.544782
H188	H	1.456090	-0.481136	-0.044782
O189	O	0.970810	-0.638503	-0.779285
O190	O	1.470810	-0.138503	-0.279285
C191	C	0.929251	-0.697774	-0.829664
C192	C	1.429251	-0.197774	-0.329664
H193	H	0.959400	-0.701400	-0.884457
H194	H	1.459400	-0.201400	-0.384457
H195	H	0.921380	-0.780557	-0.807441
H196	H	1.421380	-0.280557	-0.307441
H197	H	0.873367	-0.659296	-0.837832
H198	H	1.373367	-0.159296	-0.337832
