data_functionalizedCrystal
_audit_creation_method	'MofGen! by Chris Wilmer'
_symmetry_space_group_name_H-M	'P1'
_symmetry_Int_Tables_number	1
_symmetry_cell_setting	triclinic
loop_
_symmetry_equiv_pos_as_xyz
  x,y,z
_cell_length_a	27.731994
_cell_length_b	27.732048
_cell_length_c	26.210047
_cell_angle_alpha	89.999521
_cell_angle_beta	89.997128
_cell_angle_gamma	82.631595
loop_
_atom_site_label
_atom_site_type_symbol
_atom_site_fract_x
_atom_site_fract_y
_atom_site_fract_z
O1	O	0.640948	0.057385	-0.042362
O2	O	0.890948	0.307385	0.207638
O3	O	1.140948	0.557385	0.457638
O4	O	1.390948	0.807385	0.707638
O5	O	0.500151	0.066158	-0.042379
O6	O	0.750151	0.316158	0.207621
O7	O	1.000151	0.566158	0.457621
O8	O	1.250151	0.816158	0.707621
O9	O	0.574923	-0.008626	-0.042360
O10	O	0.824923	0.241374	0.207640
O11	O	1.074923	0.491374	0.457640
O12	O	1.324923	0.741374	0.707640
O13	O	0.566177	0.132169	-0.042381
O14	O	0.816177	0.382169	0.207619
O15	O	1.066177	0.632169	0.457619
O16	O	1.316177	0.882169	0.707619
O17	O	0.574908	-0.008614	0.042498
O18	O	0.824908	0.241386	0.292498
O19	O	1.074908	0.491386	0.542498
O20	O	1.324908	0.741386	0.792498
O21	O	0.500137	0.066170	0.042479
O22	O	0.750137	0.316170	0.292479
O23	O	1.000137	0.566170	0.542479
O24	O	1.250137	0.816170	0.792479
O25	O	0.640934	0.057397	0.042496
O26	O	0.890934	0.307397	0.292496
O27	O	1.140934	0.557397	0.542496
O28	O	1.390934	0.807397	0.792496
Cu29	Cu	0.570534	0.061784	0.050236
Cu30	Cu	0.820534	0.311784	0.300236
Cu31	Cu	1.070534	0.561784	0.550236
Cu32	Cu	1.320534	0.811784	0.800236
Cu33	Cu	0.570551	0.061771	-0.050119
Cu34	Cu	0.820551	0.311771	0.199881
Cu35	Cu	1.070551	0.561771	0.449881
Cu36	Cu	1.320551	0.811771	0.699881
O37	O	0.566162	0.132181	0.042477
O38	O	0.816162	0.382181	0.292477
O39	O	1.066162	0.632181	0.542477
O40	O	1.316162	0.882181	0.792477
C41	C	0.482137	0.065984	0.000047
C42	C	0.732137	0.315984	0.250047
C43	C	0.982137	0.565984	0.500047
C44	C	1.232137	0.815984	0.750047
C45	C	0.428480	0.065442	0.000041
C46	C	0.678480	0.315442	0.250041
C47	C	0.928480	0.565442	0.500041
C48	C	1.178480	0.815442	0.750041
C49	C	0.095754	0.062032	0.046317
C50	C	0.345754	0.312032	0.296317
C51	C	0.595754	0.562032	0.546317
C52	C	0.845754	0.812032	0.796317
C53	C	-0.105904	0.059971	0.046324
C54	C	0.144096	0.309971	0.296324
C55	C	0.394096	0.559971	0.546324
C56	C	0.644096	0.809971	0.796324
O57	O	-0.131984	0.059689	0.085663
O58	O	0.118016	0.309689	0.335663
O59	O	0.368016	0.559689	0.585663
O60	O	0.618016	0.809689	0.835663
N61	N	-0.131111	0.059708	0.000067
N62	N	0.118889	0.309708	0.250067
N63	N	0.368889	0.559708	0.500067
N64	N	0.618889	0.809708	0.750067
C65	C	-0.105900	0.059958	-0.046193
C66	C	0.144100	0.309958	0.203807
C67	C	0.394100	0.559958	0.453807
C68	C	0.644100	0.809958	0.703807
O69	O	-0.131967	0.059683	-0.085537
O70	O	0.118033	0.309683	0.164463
O71	O	0.368033	0.559683	0.414463
O72	O	0.618033	0.809683	0.664463
C73	C	0.095758	0.062016	-0.046199
C74	C	0.345758	0.312016	0.203801
C75	C	0.595758	0.562016	0.453801
C76	C	0.845758	0.812016	0.703801
C77	C	0.120961	0.062283	0.000060
C78	C	0.370961	0.312283	0.250060
C79	C	0.620961	0.562283	0.500060
C80	C	0.870961	0.812283	0.750060
C81	C	0.120958	0.062299	0.092573
C82	C	0.370958	0.312299	0.342573
C83	C	0.620958	0.562299	0.592573
C84	C	0.870958	0.812299	0.842573
C85	C	0.171369	0.062817	0.092571
C86	C	0.421369	0.312817	0.342571
C87	C	0.671369	0.562817	0.592571
C88	C	0.921369	0.812817	0.842571
C89	C	0.196576	0.063068	0.046313
C90	C	0.446576	0.313068	0.296313
C91	C	0.696576	0.563068	0.546313
C92	C	0.946576	0.813068	0.796313
C93	C	0.171372	0.062802	0.000058
C94	C	0.421372	0.312802	0.250058
C95	C	0.671372	0.562802	0.500058
C96	C	0.921372	0.812802	0.750058
C97	C	0.120968	0.062263	-0.092459
C98	C	0.370968	0.312263	0.157541
C99	C	0.620968	0.562263	0.407541
C100	C	0.870968	0.812263	0.657541
C101	C	0.171386	0.062776	-0.092457
C102	C	0.421386	0.312776	0.157543
C103	C	0.671386	0.562776	0.407543
C104	C	0.921386	0.812776	0.657543
C105	C	0.196590	0.063043	-0.046197
C106	C	0.446590	0.313043	0.203803
C107	C	0.696590	0.563043	0.453803
C108	C	0.946590	0.813043	0.703803
C109	C	0.246991	0.063571	-0.046201
C110	C	0.496991	0.313571	0.203799
C111	C	0.746991	0.563571	0.453799
C112	C	0.996991	0.813571	0.703799
N113	N	0.272198	0.063833	0.000055
N114	N	0.522198	0.313833	0.250055
N115	N	0.772198	0.563833	0.500055
N116	N	1.022198	0.813833	0.750055
C117	C	0.246991	0.063582	0.046312
C118	C	0.496991	0.313582	0.296312
C119	C	0.746991	0.563582	0.546312
C120	C	0.996991	0.813582	0.796312
C121	C	-0.211773	0.058878	-0.046187
C122	C	0.038227	0.308878	0.203813
C123	C	0.288227	0.558878	0.453813
C124	C	0.538227	0.808878	0.703813
C125	C	-0.262188	0.058365	-0.046186
C126	C	-0.012188	0.308365	0.203814
C127	C	0.237812	0.558365	0.453814
C128	C	0.487812	0.808365	0.703814
C129	C	-0.262188	0.058376	0.046331
C130	C	-0.012188	0.308376	0.296331
C131	C	0.237812	0.558376	0.546331
C132	C	0.487812	0.808376	0.796331
C133	C	-0.211774	0.058894	0.046329
C134	C	0.038226	0.308894	0.296329
C135	C	0.288226	0.558894	0.546329
C136	C	0.538226	0.808894	0.796329
C137	C	-0.186566	0.059141	0.000069
C138	C	0.063434	0.309141	0.250069
C139	C	0.313434	0.559141	0.500069
C140	C	0.563434	0.809141	0.750069
C141	C	0.352858	0.064670	0.046305
C142	C	0.602858	0.314670	0.296305
C143	C	0.852858	0.564670	0.546305
C144	C	1.102858	0.814670	0.796305
C145	C	0.403273	0.065190	0.046298
C146	C	0.653273	0.315190	0.296298
C147	C	0.903273	0.565190	0.546298
C148	C	1.153273	0.815190	0.796298
C149	C	0.403269	0.065176	-0.046218
C150	C	0.653269	0.315176	0.203782
C151	C	0.903269	0.565176	0.453782
C152	C	1.153269	0.815176	0.703782
C153	C	0.352858	0.064659	-0.046213
C154	C	0.602858	0.314659	0.203787
C155	C	0.852858	0.564659	0.453787
C156	C	1.102858	0.814659	0.703787
C157	C	0.327654	0.064404	0.000053
C158	C	0.577654	0.314404	0.250053
C159	C	0.827654	0.564404	0.500053
C160	C	1.077654	0.814404	0.750053
O161	O	0.273102	0.063848	-0.085520
O162	O	0.523102	0.313848	0.164480
O163	O	0.773102	0.563848	0.414480
O164	O	1.023102	0.813848	0.664480
O165	O	0.273067	0.063847	0.085650
O166	O	0.523067	0.313847	0.335650
O167	O	0.773067	0.563847	0.585650
O168	O	1.023067	0.813847	0.835650
C169	C	0.045343	0.061514	0.046319
C170	C	0.295343	0.311514	0.296319
C171	C	0.545343	0.561514	0.546319
C172	C	0.795343	0.811514	0.796319
C173	C	0.020139	0.061247	0.000064
C174	C	0.270139	0.311247	0.250064
C175	C	0.520139	0.561247	0.500064
C176	C	0.770139	0.811247	0.750064
C177	C	0.045346	0.061499	-0.046193
C178	C	0.295346	0.311499	0.203807
C179	C	0.545346	0.561499	0.453807
C180	C	0.795346	0.811499	0.703807
C181	C	-0.030275	0.060734	0.000065
C182	C	0.219725	0.310734	0.250065
C183	C	0.469725	0.560734	0.500065
C184	C	0.719725	0.810734	0.750065
C185	C	-0.055483	0.060482	0.046323
C186	C	0.194517	0.310482	0.296323
C187	C	0.444517	0.560482	0.546323
C188	C	0.694517	0.810482	0.796323
C189	C	-0.030276	0.060745	0.092579
C190	C	0.219724	0.310745	0.342579
C191	C	0.469724	0.560745	0.592579
C192	C	0.719724	0.810745	0.842579
C193	C	0.020135	0.061263	0.092577
C194	C	0.270135	0.311263	0.342577
C195	C	0.520135	0.561263	0.592577
C196	C	0.770135	0.811263	0.842577
C197	C	0.020139	0.061236	-0.092449
C198	C	0.270139	0.311236	0.157551
C199	C	0.520139	0.561236	0.407551
C200	C	0.770139	0.811236	0.657551
C201	C	-0.030272	0.060719	-0.092443
C202	C	0.219728	0.310719	0.157557
C203	C	0.469728	0.560719	0.407557
C204	C	0.719728	0.810719	0.657557
C205	C	-0.055479	0.060468	-0.046186
C206	C	0.194521	0.310468	0.203814
C207	C	0.444521	0.560468	0.453814
C208	C	0.694521	0.810468	0.703814
C209	C	0.574732	-0.026627	0.000070
C210	C	0.824732	0.223373	0.250070
C211	C	1.074732	0.473373	0.500070
C212	C	1.324732	0.723373	0.750070
C213	C	0.574179	-0.080282	0.000074
C214	C	0.824179	0.169718	0.250074
C215	C	1.074179	0.419718	0.500074
C216	C	1.324179	0.669718	0.750074
C217	C	0.614884	-0.419105	0.000053
C218	C	0.864884	-0.169105	0.250053
C219	C	1.114884	0.080895	0.500053
C220	C	1.364884	0.330895	0.750053
C221	C	0.612833	-0.620764	0.000046
C222	C	0.862833	-0.370764	0.250046
C223	C	1.112833	-0.120764	0.500046
C224	C	1.362833	0.129236	0.750046
O225	O	0.650055	-0.652027	0.000028
O226	O	0.900055	-0.402027	0.250028
O227	O	1.150055	-0.152027	0.500028
O228	O	1.400055	0.097973	0.750028
N229	N	0.568496	-0.639879	0.000041
N230	N	0.818496	-0.389879	0.250041
N231	N	1.068496	-0.139879	0.500041
N232	N	1.318496	0.110121	0.750041
C233	C	0.524670	-0.608576	0.000034
C234	C	0.774670	-0.358576	0.250034
C235	C	1.024670	-0.108576	0.500034
C236	C	1.274670	0.141424	0.750034
O237	O	0.486912	-0.629462	0.000024
O238	O	0.736912	-0.379462	0.250024
O239	O	0.986912	-0.129462	0.500024
O240	O	1.236912	0.120538	0.750024
C241	C	0.526721	-0.406918	0.000038
C242	C	0.776721	-0.156918	0.250038
C243	C	1.026721	0.093082	0.500038
C244	C	1.276721	0.343082	0.750038
C245	C	0.571061	-0.387805	0.000048
C246	C	0.821061	-0.137805	0.250048
C247	C	1.071061	0.112195	0.500048
C248	C	1.321061	0.362195	0.750048
C249	C	0.659220	-0.399992	0.000063
C250	C	0.909220	-0.149992	0.250063
C251	C	1.159220	0.100008	0.500063
C252	C	1.409220	0.350008	0.750063
C253	C	0.659732	-0.349580	0.000068
C254	C	0.909732	-0.099580	0.250068
C255	C	1.159732	0.150420	0.500068
C256	C	1.409732	0.400420	0.750068
C257	C	0.615908	-0.318281	0.000062
C258	C	0.865908	-0.068281	0.250062
C259	C	1.115908	0.181719	0.500062
C260	C	1.365908	0.431719	0.750062
C261	C	0.571573	-0.337394	0.000053
C262	C	0.821573	-0.087394	0.250053
C263	C	1.071573	0.162606	0.500053
C264	C	1.321573	0.412606	0.750053
C265	C	0.482895	-0.375615	0.000028
C266	C	0.732895	-0.125615	0.250028
C267	C	0.982895	0.124385	0.500028
C268	C	1.232895	0.374385	0.750028
C269	C	0.483412	-0.325198	0.000027
C270	C	0.733412	-0.075198	0.250027
C271	C	0.983412	0.174802	0.500027
C272	C	1.233412	0.424802	0.750027
C273	C	0.527751	-0.306086	0.000037
C274	C	0.777751	-0.056086	0.250037
C275	C	1.027751	0.193914	0.500037
C276	C	1.277751	0.443914	0.750037
C277	C	0.528262	-0.255683	0.000052
C278	C	0.778262	-0.005683	0.250052
C279	C	1.028262	0.244317	0.500052
C280	C	1.278262	0.494317	0.750052
N281	N	0.572598	-0.236567	0.000057
N282	N	0.822598	0.013433	0.250057
N283	N	1.072598	0.263433	0.500057
N284	N	1.322598	0.513433	0.750057
C285	C	0.616421	-0.267867	0.000062
C286	C	0.866421	-0.017867	0.250062
C287	C	1.116421	0.232133	0.500062
C288	C	1.366421	0.482133	0.750062
C289	C	0.523596	-0.714450	0.000033
C290	C	0.773596	-0.464450	0.250033
C291	C	1.023596	-0.214450	0.500033
C292	C	1.273596	0.035550	0.750033
C293	C	0.523083	-0.764864	0.000033
C294	C	0.773083	-0.514864	0.250033
C295	C	1.023083	-0.264864	0.500033
C296	C	1.273083	-0.014864	0.750033
C297	C	0.611246	-0.777049	0.000044
C298	C	0.861246	-0.527049	0.250044
C299	C	1.111246	-0.277049	0.500044
C300	C	1.361246	-0.027049	0.750044
C301	C	0.611759	-0.726633	0.000048
C302	C	0.861759	-0.476633	0.250048
C303	C	1.111759	-0.226633	0.500048
C304	C	1.361759	0.023367	0.750048
C305	C	0.567932	-0.695335	0.000038
C306	C	0.817932	-0.445335	0.250038
C307	C	1.067932	-0.195335	0.500038
C308	C	1.317932	0.054665	0.750038
C309	C	0.617494	-0.161998	0.000073
C310	C	0.867494	0.088002	0.250073
C311	C	1.117494	0.338002	0.500073
C312	C	1.367494	0.588002	0.750073
C313	C	0.618002	-0.111581	0.000079
C314	C	0.868002	0.138419	0.250079
C315	C	1.118002	0.388419	0.500079
C316	C	1.368002	0.638419	0.750079
C317	C	0.529839	-0.099401	0.000066
C318	C	0.779839	0.150599	0.250066
C319	C	1.029839	0.400599	0.500066
C320	C	1.279839	0.650599	0.750066
C321	C	0.529331	-0.149813	0.000062
C322	C	0.779331	0.100187	0.250062
C323	C	1.029331	0.350187	0.500062
C324	C	1.279331	0.600187	0.750062
C325	C	0.573162	-0.181111	0.000063
C326	C	0.823162	0.068889	0.250063
C327	C	1.073162	0.318889	0.500063
C328	C	1.323162	0.568889	0.750063
O329	O	0.491060	-0.224391	0.000064
O330	O	0.741060	0.025609	0.250064
O331	O	0.991060	0.275609	0.500064
O332	O	1.241060	0.525609	0.750064
O333	O	0.654174	-0.246971	0.000061
O334	O	0.904174	0.003029	0.250061
O335	O	1.154174	0.253029	0.500061
O336	O	1.404174	0.503029	0.750061
C337	C	0.614372	-0.469517	0.000049
C338	C	0.864372	-0.219517	0.250049
C339	C	1.114372	0.030483	0.500049
C340	C	1.364372	0.280483	0.750049
C341	C	0.570036	-0.488629	0.000039
C342	C	0.820036	-0.238629	0.250039
C343	C	1.070036	0.011371	0.500039
C344	C	1.320036	0.261371	0.750039
C345	C	0.526213	-0.457330	0.000034
C346	C	0.776213	-0.207330	0.250034
C347	C	1.026213	0.042670	0.500034
C348	C	1.276213	0.292670	0.750034
C349	C	0.569523	-0.539043	0.000039
C350	C	0.819523	-0.289043	0.250039
C351	C	1.069523	-0.039043	0.500039
C352	C	1.319523	0.210957	0.750039
C353	C	0.613346	-0.570343	0.000044
C354	C	0.863346	-0.320343	0.250044
C355	C	1.113346	-0.070343	0.500044
C356	C	1.363346	0.179657	0.750044
C357	C	0.657683	-0.551228	0.000049
C358	C	0.907683	-0.301228	0.250049
C359	C	1.157683	-0.051228	0.500049
C360	C	1.407683	0.198772	0.750049
C361	C	0.658195	-0.500816	0.000054
C362	C	0.908195	-0.250816	0.250054
C363	C	1.158195	-0.000816	0.500054
C364	C	1.408195	0.249184	0.750054
C365	C	0.481876	-0.476445	0.000029
C366	C	0.731876	-0.226445	0.250029
C367	C	0.981876	0.023555	0.500029
C368	C	1.231876	0.273555	0.750029
C369	C	0.481367	-0.526857	0.000025
C370	C	0.731367	-0.276857	0.250025
C371	C	0.981367	-0.026857	0.500025
C372	C	1.231367	0.223143	0.750025
C373	C	0.525191	-0.558157	0.000030
C374	C	0.775191	-0.308157	0.250030
C375	C	1.025191	-0.058157	0.500030
C376	C	1.275191	0.191843	0.750030
C377	C	0.658949	0.057571	0.000068
C378	C	0.908949	0.307571	0.250068
C379	C	1.158949	0.557571	0.500068
C380	C	1.408949	0.807571	0.750068
C381	C	0.712605	0.058114	0.000071
C382	C	0.962605	0.308114	0.250071
C383	C	1.212605	0.558114	0.500071
C384	C	1.462605	0.808114	0.750071
C385	C	0.566353	0.150182	0.000046
C386	C	0.816353	0.400182	0.250046
C387	C	1.066353	0.650182	0.500046
C388	C	1.316353	0.900182	0.750046
C389	C	0.566906	0.203837	0.000038
C390	C	0.816906	0.453837	0.250038
C391	C	1.066906	0.703837	0.500038
C392	C	1.316906	0.953837	0.750038
N393	N	0.570526	0.061794	0.120820
N394	N	0.820526	0.311794	0.370820
N395	N	1.070526	0.561794	0.620820
N396	N	1.320526	0.811794	0.870820
N397	N	0.570563	0.061757	-0.120703
N398	N	0.820563	0.311757	0.129297
N399	N	1.070563	0.561757	0.379297
N400	N	1.320563	0.811757	0.629297
C401	C	0.603656	0.028664	0.473342
C402	C	0.853656	0.278664	0.723342
C403	C	1.103656	0.528664	0.973342
C404	C	1.353656	0.778664	1.223342
C405	C	0.603667	0.028657	0.687001
C406	C	0.853667	0.278657	0.937001
C407	C	1.103667	0.528657	1.187001
C408	C	1.353667	0.778657	1.437001
O409	O	0.631818	0.000491	0.714630
O410	O	0.881818	0.250491	0.964630
O411	O	1.131818	0.500491	1.214630
O412	O	1.381818	0.750491	1.464630
N413	N	0.570554	0.061760	0.713714
N414	N	0.820554	0.311760	0.963714
N415	N	1.070554	0.561760	1.213714
N416	N	1.320554	0.811760	1.463714
C417	C	0.537433	0.094865	0.687008
C418	C	0.787433	0.344865	0.937008
C419	C	1.037433	0.594865	1.187008
C420	C	1.287433	0.844865	1.437008
O421	O	0.509265	0.123018	0.714632
O422	O	0.759265	0.373018	0.964632
O423	O	1.009265	0.623018	1.214632
O424	O	1.259265	0.873018	1.464632
C425	C	0.537421	0.094869	0.473351
C426	C	0.787421	0.344869	0.723351
C427	C	1.037421	0.594869	0.973351
C428	C	1.287421	0.844869	1.223351
C429	C	0.570539	0.061767	0.446641
C430	C	0.820539	0.311767	0.696641
C431	C	1.070539	0.561767	0.946641
C432	C	1.320539	0.811767	1.196641
C433	C	0.636772	-0.004436	0.446632
C434	C	0.886772	0.245564	0.696632
C435	C	1.136772	0.495564	0.946632
C436	C	1.386772	0.745564	1.196632
C437	C	0.636771	-0.004432	0.393221
C438	C	0.886771	0.245568	0.643221
C439	C	1.136771	0.495568	0.893221
C440	C	1.386771	0.745568	1.143221
C441	C	0.603654	0.028671	0.366519
C442	C	0.853654	0.278671	0.616519
C443	C	1.103654	0.528671	0.866519
C444	C	1.353654	0.778671	1.116519
C445	C	0.570538	0.061771	0.393229
C446	C	0.820538	0.311771	0.643229
C447	C	1.070538	0.561771	0.893229
C448	C	1.320538	0.811771	1.143229
C449	C	0.504298	0.127971	0.446647
C450	C	0.754298	0.377971	0.696647
C451	C	1.004298	0.627971	0.946647
C452	C	1.254298	0.877971	1.196647
C453	C	0.504297	0.127969	0.393229
C454	C	0.754297	0.377969	0.643229
C455	C	1.004297	0.627969	0.893229
C456	C	1.254297	0.877969	1.143229
C457	C	0.537416	0.094867	0.366519
C458	C	0.787416	0.344867	0.616519
C459	C	1.037416	0.594867	0.866519
C460	C	1.287416	0.844867	1.116519
C461	C	0.537420	0.094878	0.313117
C462	C	0.787420	0.344878	0.563117
C463	C	1.037420	0.594878	0.813117
C464	C	1.287420	0.844878	1.063117
N465	N	0.570533	0.061775	0.286404
N466	N	0.820533	0.311775	0.536404
N467	N	1.070533	0.561775	0.786404
N468	N	1.320533	0.811775	1.036404
C469	C	0.603650	0.028672	0.313105
C470	C	0.853650	0.278672	0.563105
C471	C	1.103650	0.528672	0.813105
C472	C	1.353650	0.778672	1.063105
C473	C	0.537443	0.094861	0.799182
C474	C	0.787443	0.344861	1.049182
C475	C	1.037443	0.594861	1.299182
C476	C	1.287443	0.844861	1.549182
C477	C	0.537446	0.094861	0.852596
C478	C	0.787446	0.344861	1.102596
C479	C	1.037446	0.594861	1.352596
C480	C	1.287446	0.844861	1.602596
C481	C	0.603680	0.028652	0.852585
C482	C	0.853680	0.278652	1.102585
C483	C	1.103680	0.528652	1.352585
C484	C	1.353680	0.778652	1.602585
C485	C	0.603678	0.028655	0.799169
C486	C	0.853678	0.278655	1.049169
C487	C	1.103678	0.528655	1.299169
C488	C	1.353678	0.778655	1.549169
C489	C	0.570556	0.061758	0.772469
C490	C	0.820556	0.311758	1.022469
C491	C	1.070556	0.561758	1.272469
C492	C	1.320556	0.811758	1.522469
C493	C	0.603645	0.028682	0.200937
C494	C	0.853645	0.278682	0.450937
C495	C	1.103645	0.528682	0.700937
C496	C	1.353645	0.778682	0.950937
C497	C	0.603643	0.028690	0.147521
C498	C	0.853643	0.278690	0.397521
C499	C	1.103643	0.528690	0.647521
C500	C	1.353643	0.778690	0.897521
C501	C	0.537408	0.094897	0.147537
C502	C	0.787408	0.344897	0.397537
C503	C	1.037408	0.594897	0.647537
C504	C	1.287408	0.844897	0.897537
C505	C	0.537412	0.094891	0.200949
C506	C	0.787412	0.344891	0.450949
C507	C	1.037412	0.594891	0.700949
C508	C	1.287412	0.844891	0.950949
C509	C	0.570533	0.061780	0.227647
C510	C	0.820533	0.311780	0.477647
C511	C	1.070533	0.561780	0.727647
C512	C	1.320533	0.811780	0.977647
O513	O	0.509281	0.123026	0.285454
O514	O	0.759281	0.373026	0.535454
O515	O	1.009281	0.623026	0.785454
O516	O	1.259281	0.873026	1.035454
O517	O	0.631807	0.000516	0.285473
O518	O	0.881807	0.250516	0.535473
O519	O	1.131807	0.500516	0.785473
O520	O	1.381807	0.750516	1.035473
C521	C	0.603658	0.028660	0.526754
C522	C	0.853658	0.278660	0.776754
C523	C	1.103658	0.528660	1.026754
C524	C	1.353658	0.778660	1.276754
C525	C	0.570542	0.061760	0.553464
C526	C	0.820542	0.311760	0.803464
C527	C	1.070542	0.561760	1.053464
C528	C	1.320542	0.811760	1.303464
C529	C	0.537425	0.094863	0.526762
C530	C	0.787425	0.344863	0.776762
C531	C	1.037425	0.594863	1.026762
C532	C	1.287425	0.844863	1.276762
C533	C	0.570546	0.061759	0.606878
C534	C	0.820546	0.311759	0.856878
C535	C	1.070546	0.561759	1.106878
C536	C	1.320546	0.811759	1.356878
C537	C	0.603663	0.028656	0.633579
C538	C	0.853663	0.278656	0.883579
C539	C	1.103663	0.528656	1.133579
C540	C	1.353663	0.778656	1.383579
C541	C	0.636776	-0.004447	0.606866
C542	C	0.886776	0.245553	0.856866
C543	C	1.136776	0.495553	1.106866
C544	C	1.386776	0.745553	1.356866
C545	C	0.636775	-0.004443	0.553455
C546	C	0.886775	0.245557	0.803455
C547	C	1.136775	0.495557	1.053455
C548	C	1.386775	0.745557	1.303455
C549	C	0.504311	0.127966	0.553475
C550	C	0.754311	0.377966	0.803475
C551	C	1.004311	0.627966	1.053475
C552	C	1.254311	0.877966	1.303475
C553	C	0.504316	0.127960	0.606887
C554	C	0.754316	0.377960	0.856887
C555	C	1.004316	0.627960	1.106887
C556	C	1.254316	0.877960	1.356887
C557	C	0.537433	0.094857	0.633588
C558	C	0.787433	0.344857	0.883588
C559	C	1.037433	0.594857	1.133588
C560	C	1.287433	0.844857	1.383588
H561	H	0.100439	0.062093	0.130243
H562	H	0.350439	0.312093	0.380243
H563	H	0.600439	0.562093	0.630243
H564	H	0.850439	0.812093	0.880243
Br565	Br	0.492466	0.139823	0.111291
Br566	Br	0.742466	0.389823	0.361291
Br567	Br	0.992466	0.639823	0.611291
Br568	Br	1.242466	0.889823	0.861291
Br569	Br	-0.177574	0.059256	0.109112
Br570	Br	0.072426	0.309256	0.359112
Br571	Br	0.322426	0.559256	0.609112
Br572	Br	0.572426	0.809256	0.859112
H573	H	-0.191254	0.059079	-0.083860
H574	H	0.058746	0.309079	0.166140
H575	H	0.308746	0.559079	0.416140
H576	H	0.558746	0.809079	0.666140
Br577	Br	0.459367	0.172891	0.643130
Br578	Br	0.709367	0.422891	0.893130
Br579	Br	0.959367	0.672891	1.143130
Br580	Br	1.209367	0.922891	1.393130
Br581	Br	0.678181	-0.085646	0.000094
Br582	Br	0.928181	0.164354	0.250094
Br583	Br	1.178181	0.414354	0.500094
Br584	Br	1.428181	0.664354	0.750094
Br585	Br	-0.296408	0.058035	0.109109
Br586	Br	-0.046408	0.308035	0.359109
Br587	Br	0.203592	0.558035	0.609109
Br588	Br	0.453592	0.808035	0.859109
H589	H	0.694908	-0.425472	0.000065
H590	H	0.944908	-0.175472	0.250065
H591	H	1.194908	0.074528	0.500065
H592	H	1.444908	0.324528	0.750065
Br593	Br	0.670720	-0.819536	0.000050
Br594	Br	0.920720	-0.569536	0.250050
Br595	Br	1.170720	-0.319536	0.500050
Br596	Br	1.420720	-0.069536	0.750050
H597	H	-0.050789	0.060505	-0.130116
H598	H	0.199211	0.310505	0.119884
H599	H	0.449211	0.560505	0.369884
H600	H	0.699211	0.810505	0.619884
Br601	Br	0.671935	-0.700701	0.000063
Br602	Br	0.921935	-0.450701	0.250063
Br603	Br	1.171935	-0.200701	0.500063
Br604	Br	1.421935	0.049299	0.750063
Br605	Br	0.648624	-0.016273	0.888833
Br606	Br	0.898624	0.233727	1.138833
Br607	Br	1.148624	0.483727	1.388833
Br608	Br	1.398624	0.733727	1.638833
H609	H	0.493226	-0.165375	0.000068
H610	H	0.743226	0.084625	0.250068
H611	H	0.993226	0.334625	0.500068
H612	H	1.243226	0.584625	0.750068
H613	H	0.446789	-0.391167	0.000016
H614	H	0.696789	-0.141167	0.250016
H615	H	0.946789	0.108833	0.500016
H616	H	1.196789	0.358833	0.750016
H617	H	0.191907	0.062977	-0.130128
H618	H	0.441907	0.312977	0.119872
H619	H	0.691907	0.562977	0.369872
H620	H	0.941907	0.812977	0.619872
Br621	Br	-0.296388	0.058014	-0.108969
Br622	Br	-0.046388	0.308014	0.141031
Br623	Br	0.203612	0.558014	0.391031
Br624	Br	0.453612	0.808014	0.641031
Br625	Br	0.086776	0.061899	-0.155244
Br626	Br	0.336776	0.311899	0.094756
Br627	Br	0.586776	0.561899	0.344756
Br628	Br	0.836776	0.811899	0.594756
Br629	Br	0.492506	0.139794	0.888839
Br630	Br	0.742506	0.389794	1.138839
Br631	Br	0.992506	0.639794	1.388839
Br632	Br	1.242506	0.889794	1.638839
H633	H	0.477343	0.154922	0.531739
H634	H	0.727343	0.404922	0.781739
H635	H	0.977343	0.654922	1.031739
H636	H	1.227343	0.904922	1.281739
H637	H	0.423791	0.065410	0.083970
H638	H	0.673791	0.315410	0.333970
H639	H	0.923791	0.565410	0.583970
H640	H	1.173791	0.815410	0.833970
H641	H	0.630614	0.001735	0.125775
H642	H	0.880614	0.251735	0.375775
H643	H	1.130614	0.501735	0.625775
H644	H	1.380614	0.751735	0.875775
Br645	Br	0.681717	-0.049360	0.356977
Br646	Br	0.931717	0.200640	0.606977
Br647	Br	1.181717	0.450640	0.856977
Br648	Br	1.431717	0.700640	1.106977
Br649	Br	-0.064496	0.060407	0.155356
Br650	Br	0.185504	0.310407	0.405356
Br651	Br	0.435504	0.560407	0.655356
Br652	Br	0.685504	0.810407	0.905356
Br653	Br	0.648627	-0.016271	0.762926
Br654	Br	0.898627	0.233729	1.012926
Br655	Br	1.148627	0.483729	1.262926
Br656	Br	1.398627	0.733729	1.512926
Br657	Br	0.676980	-0.204466	0.000074
Br658	Br	0.926980	0.045534	0.250074
Br659	Br	1.176980	0.295534	0.500074
Br660	Br	1.426980	0.545534	0.750074
Br661	Br	0.422395	-0.433975	0.000019
Br662	Br	0.672395	-0.183975	0.250019
Br663	Br	0.922395	0.066025	0.500019
Br664	Br	1.172395	0.316025	0.750019
H665	H	0.494160	-0.073908	0.000064
H666	H	0.744160	0.176092	0.250064
H667	H	0.994160	0.426092	0.500064
H668	H	1.244160	0.676092	0.750064
Br669	Br	0.462906	-0.790795	0.000031
Br670	Br	0.712906	-0.540795	0.250031
Br671	Br	0.962906	-0.290795	0.500031
Br672	Br	1.212906	-0.040795	0.750031
Br673	Br	0.318650	0.064306	-0.108993
Br674	Br	0.568650	0.314306	0.141007
Br675	Br	0.818650	0.564306	0.391007
Br676	Br	1.068650	0.814306	0.641007
H677	H	0.423802	0.065383	-0.083880
H678	H	0.673802	0.315383	0.166120
H679	H	0.923802	0.565383	0.416120
H680	H	1.173802	0.815383	0.666120
H681	H	0.040652	0.061481	0.130246
H682	H	0.290652	0.311481	0.380246
H683	H	0.540652	0.561481	0.630246
H684	H	0.790652	0.811481	0.880246
H685	H	0.332341	0.064467	0.083978
H686	H	0.582341	0.314467	0.333978
H687	H	0.832341	0.564467	0.583978
H688	H	1.082341	0.814467	0.833978
H689	H	0.487905	-0.688970	0.000026
H690	H	0.737905	-0.438970	0.250026
H691	H	0.987905	-0.188970	0.500026
H692	H	1.237905	0.061030	0.750026
H693	H	0.694301	-0.485260	0.000062
H694	H	0.944301	-0.235260	0.250062
H695	H	1.194301	0.014740	0.500062
H696	H	1.444301	0.264740	0.750062
H697	H	0.040658	0.061439	-0.130118
H698	H	0.290658	0.311439	0.119882
H699	H	0.540658	0.561439	0.369882
H700	H	0.790658	0.811439	0.619882
H701	H	0.663740	-0.031395	0.468368
H702	H	0.913740	0.218605	0.718368
H703	H	1.163740	0.468605	0.968368
H704	H	1.413740	0.718605	1.218368
H705	H	0.693365	-0.576720	0.000055
H706	H	0.943365	-0.326720	0.250055
H707	H	1.193365	-0.076720	0.500055
H708	H	1.443365	0.173280	0.750055
Br709	Br	0.648595	-0.016255	0.237162
Br710	Br	0.898595	0.233745	0.487162
Br711	Br	1.148595	0.483745	0.737162
Br712	Br	1.398595	0.733745	0.987162
H713	H	0.510470	0.121819	0.777446
H714	H	0.760470	0.371819	1.027446
H715	H	1.010470	0.621819	1.277446
H716	H	1.260470	0.871819	1.527446
H717	H	0.477324	0.154925	0.371492
H718	H	0.727324	0.404925	0.621492
H719	H	0.977324	0.654925	0.871492
H720	H	1.227324	0.904925	1.121492
H721	H	0.695837	-0.334024	0.000074
H722	H	0.945837	-0.084024	0.250074
H723	H	1.195837	0.165976	0.500074
H724	H	1.445837	0.415976	0.750074
H725	H	0.445258	-0.542413	0.000021
H726	H	0.695258	-0.292413	0.250021
H727	H	0.945258	-0.042413	0.500021
H728	H	1.195258	0.207587	0.750021
H729	H	0.477329	0.154926	0.468387
H730	H	0.727329	0.404926	0.718387
H731	H	0.977329	0.654926	0.968387
H732	H	1.227329	0.904926	1.218387
H733	H	0.663743	-0.031400	0.628615
H734	H	0.913743	0.218600	0.878615
H735	H	1.163743	0.468600	1.128615
H736	H	1.413743	0.718600	1.378615
H737	H	0.447722	-0.299716	0.000019
H738	H	0.697722	-0.049716	0.250019
H739	H	0.947722	0.200284	0.500019
H740	H	1.197722	0.450284	0.750019
Br741	Br	0.205566	0.063178	0.155354
Br742	Br	0.455566	0.313178	0.405354
Br743	Br	0.705566	0.563178	0.655354
Br744	Br	0.955566	0.813178	0.905354
Br745	Br	0.492470	0.139823	0.237197
Br746	Br	0.742470	0.389823	0.487197
Br747	Br	0.992470	0.639823	0.737197
Br748	Br	1.242470	0.889823	0.987197
Br749	Br	0.681724	-0.049369	0.517213
Br750	Br	0.931724	0.200631	0.767213
Br751	Br	1.181724	0.450631	1.017213
Br752	Br	1.431724	0.700631	1.267213
