data_functionalizedCrystal
_audit_creation_method	'MofGen! by Chris Wilmer'
_symmetry_space_group_name_H-M	'P1'
_symmetry_Int_Tables_number	1
_symmetry_cell_setting	triclinic
loop_
_symmetry_equiv_pos_as_xyz
  x,y,z
_cell_length_a	27.732048
_cell_length_b	16.109301
_cell_length_c	14.586319
_cell_angle_alpha	90.000787
_cell_angle_beta	89.991275
_cell_angle_gamma	96.947932
loop_
_atom_site_label
_atom_site_type_symbol
_atom_site_fract_x
_atom_site_fract_y
_atom_site_fract_z
O1	O	0.062130	-1.102362	-0.076193
O2	O	0.069862	-0.860204	-0.076208
O3	O	-0.004369	-0.988804	-0.076183
O4	O	0.136361	-0.973762	-0.076218
O5	O	-0.004370	-0.988795	0.076298
O6	O	0.069861	-0.860195	0.076272
O7	O	0.062129	-1.102353	0.076288
Cu8	Cu	0.065995	-0.981273	0.090203
Cu9	Cu	0.065996	-0.981283	-0.090123
O10	O	0.136360	-0.973753	0.076262
C11	C	0.069548	-0.829228	0.000030
C12	C	0.068609	-0.736945	0.000025
C13	C	-0.022378	-0.988483	0.000060
C14	C	-0.076037	-0.987533	0.000068
C15	C	0.062443	-1.133328	0.000048
C16	C	0.063382	-1.225612	0.000047
C17	C	-0.414559	-1.057541	0.000025
C18	C	-0.616233	-1.054013	0.000012
O19	O	-0.647221	-1.118031	-0.000024
N20	N	-0.635676	-0.977759	0.000008
C21	C	-0.604697	-0.902381	0.000001
O22	O	-0.625862	-0.837441	-0.000012
C23	C	-0.403024	-0.905910	0.000008
C24	C	-0.383584	-0.982169	0.000021
C25	C	-0.395119	-1.133794	0.000038
C26	C	-0.344703	-1.134675	0.000046
C27	C	-0.313728	-1.059303	0.000042
C28	C	-0.333168	-0.983050	0.000029
C29	C	-0.372045	-0.830533	-0.000006
C30	C	-0.321624	-0.831422	-0.000006
C31	C	-0.302184	-0.907681	0.000007
C32	C	-0.251777	-0.908559	0.000034
N33	N	-0.232334	-0.984814	0.000038
C34	C	-0.263310	-1.060186	0.000042
C35	C	-0.710579	-0.900534	-0.000000
C36	C	-0.760997	-0.899652	-0.000000
C37	C	-0.772530	-1.051284	0.000009
C38	C	-0.722111	-1.052166	0.000016
C39	C	-0.691136	-0.976789	0.000004
C40	C	-0.157433	-1.062030	0.000060
C41	C	-0.107012	-1.062905	0.000072
C42	C	-0.095484	-0.911273	0.000058
C43	C	-0.145900	-0.910398	0.000051
C44	C	-0.176874	-0.985783	0.000049
O45	O	-0.220761	-0.844576	0.000059
O46	O	-0.242135	-1.125116	0.000035
C47	C	-0.464975	-1.056660	0.000017
C48	C	-0.484415	-0.980407	0.000005
C49	C	-0.453440	-0.905035	0.000001
C50	C	-0.534833	-0.979525	0.000005
C51	C	-0.565808	-1.054897	0.000009
C52	C	-0.546365	-1.131151	0.000013
C53	C	-0.495950	-1.132032	0.000021
C54	C	-0.472883	-0.828781	-0.000004
C55	C	-0.523299	-0.827906	-0.000011
C56	C	-0.554274	-0.903278	-0.000007
C57	C	0.154369	-0.974073	0.000017
C58	C	0.208028	-0.975024	0.000004
N59	N	0.065994	-0.981272	0.217035
C60	C	0.110473	-0.514154	0.000025
C61	C	0.109587	-0.427445	0.000031
C62	C	0.021514	-0.448409	0.000050
C63	C	0.022401	-0.535117	0.000050
C64	C	0.066882	-0.567987	0.000033
C65	C	0.065109	-0.394570	0.000039
C66	C	0.064148	-0.300556	0.000045
C67	C	0.067843	-0.662007	0.000028
N68	N	0.065994	-0.981291	-0.216955
C69	C	0.033135	-1.038234	0.452053
C70	C	0.033134	-1.038237	0.548034
C71	C	0.098854	-0.924323	0.548020
C72	C	0.098852	-0.924317	0.452041
C73	C	0.065993	-0.981278	0.404060
C74	C	0.065994	-0.981286	0.596020
C75	C	0.065993	-0.981288	0.700087
C76	C	0.065994	-0.981275	0.299986
H77	H	-0.091187	-1.125007	0.000085
O78	O	0.001271	-1.093606	0.405381
C79	C	0.027145	-1.144552	0.349802
H80	H	0.065262	-1.145524	0.378711
H81	H	0.007410	-1.210869	0.348677
H82	H	0.029684	-1.118463	0.277077
O83	O	-0.021734	-0.416616	0.000095
C84	C	-0.060019	-0.482727	0.000079
H85	H	-0.046479	-0.541461	0.028950
H86	H	-0.091077	-0.465003	0.044348
H87	H	-0.073460	-0.495176	-0.073073
O88	O	0.130820	-0.868955	0.405556
C89	C	0.159817	-0.818672	0.468485
H90	H	0.160372	-0.852752	0.536900
H91	H	0.198416	-0.805489	0.440736
H92	H	0.144111	-0.757116	0.478704
O93	O	-0.325798	-1.208732	0.000209
C94	C	-0.296976	-1.213781	0.079166
H95	H	-0.308897	-1.170492	0.134366
H96	H	-0.301512	-1.280847	0.105670
H97	H	-0.257213	-1.194089	0.061311
O98	O	0.001150	-1.093533	0.594553
C99	C	-0.046702	-1.080623	0.571131
H100	H	-0.046648	-1.048573	0.501445
H101	H	-0.070495	-1.143422	0.567848
H102	H	-0.061658	-1.039437	0.625156
H103	H	-0.480127	-1.194130	0.000032
O104	O	0.130756	-0.869080	0.594774
C105	C	0.123705	-0.881285	0.689780
H106	H	0.105649	-0.947615	0.702888
H107	H	0.160311	-0.871569	0.726243
H108	H	0.099455	-0.834542	0.717032
O109	O	0.151919	-0.375117	0.000179
C110	C	0.154037	-0.324320	0.079139
H111	H	0.129316	-0.356397	0.134344
H112	H	0.192975	-0.314065	0.105633
H113	H	0.141535	-0.261421	0.061290
O114	O	0.153650	-0.546185	0.000136
C115	C	0.156801	-0.595697	0.079117
H116	H	0.118700	-0.617788	0.105453
H117	H	0.176062	-0.652233	0.061351
H118	H	0.178189	-0.557108	0.134413
H119	H	-0.182646	-1.123416	0.000055
O120	O	-0.019915	-0.587500	-0.000067
C121	C	-0.022039	-0.638270	-0.079048
H122	H	0.016328	-0.642156	-0.105383
H123	H	-0.040052	-0.703680	-0.061282
H124	H	-0.044111	-0.610030	-0.134343
H125	H	-0.539121	-0.765802	-0.000014
O126	O	-0.065321	-0.838136	0.000012
C127	C	-0.016653	-0.855276	0.000040
H128	H	-0.014727	-0.920559	-0.028815
H129	H	0.006199	-0.807203	-0.044237
H130	H	-0.002078	-0.851924	0.073193
H131	H	-0.420334	-1.195175	0.000038
H132	H	-0.706287	-1.114263	0.000026
H133	H	-0.447667	-0.767402	-0.000009
O134	O	-0.802643	-1.124481	-0.000157
C135	C	-0.832151	-1.128483	-0.079120
H136	H	-0.813674	-1.085723	-0.134309
H137	H	-0.837826	-1.195524	-0.105637
H138	H	-0.868812	-1.107439	-0.061268
O139	O	-0.779798	-0.825500	-0.000044
C140	C	-0.741641	-0.759170	-0.000026
H141	H	-0.707391	-0.782035	-0.028890
H142	H	-0.752166	-0.705892	-0.044302
H143	H	-0.734510	-0.735948	0.073124
H144	H	-0.685363	-0.839149	-0.000010
H145	H	-0.296407	-0.770039	-0.000017
H146	H	-0.161728	-0.848301	0.000065
O147	O	-0.390841	-0.756380	-0.000064
C148	C	-0.352681	-0.690056	-0.000050
H149	H	-0.318433	-0.712928	-0.028908
H150	H	-0.363203	-0.636779	-0.044333
H151	H	-0.345550	-0.666827	0.073098
H152	H	-0.571594	-1.192521	0.000020
