data_functionalizedCrystal
_audit_creation_method	'MofGen! by Chris Wilmer'
_symmetry_space_group_name_H-M	'P1'
_symmetry_Int_Tables_number	1
_symmetry_cell_setting	triclinic
loop_
_symmetry_equiv_pos_as_xyz
  x,y,z
_cell_length_a	16.625548
_cell_length_b	16.625545
_cell_length_c	13.033454
_cell_angle_alpha	82.781280
_cell_angle_beta	97.160702
_cell_angle_gamma	90.026626
loop_
_atom_site_label
_atom_site_type_symbol
_atom_site_fract_x
_atom_site_fract_y
_atom_site_fract_z
Zn1	Zn	1.174785	-0.263021	-0.590887
Zn2	Zn	1.424785	-0.013021	-0.340887
Zn3	Zn	1.674785	0.236979	-0.090887
Zn4	Zn	1.924785	0.486979	0.159113
Zn5	Zn	1.191798	-0.415004	-0.416136
Zn6	Zn	1.441798	-0.165004	-0.166136
Zn7	Zn	1.691798	0.084996	0.083864
Zn8	Zn	1.941798	0.334996	0.333864
Zn9	Zn	1.057062	-0.280190	-0.416153
Zn10	Zn	1.307062	-0.030190	-0.166153
Zn11	Zn	1.557062	0.219810	0.083847
Zn12	Zn	1.807062	0.469810	0.333847
Zn13	Zn	1.039915	-0.397823	-0.590831
Zn14	Zn	1.289915	-0.147823	-0.340831
Zn15	Zn	1.539915	0.102177	-0.090831
Zn16	Zn	1.789915	0.352177	0.159169
O17	O	1.115890	-0.339009	-0.503502
O18	O	1.365890	-0.089009	-0.253502
O19	O	1.615890	0.160991	-0.003502
O20	O	1.865890	0.410991	0.246498
O21	O	1.289872	-0.283187	-0.567722
O22	O	1.539872	-0.033187	-0.317722
O23	O	1.789872	0.216813	-0.067722
O24	O	2.039872	0.466813	0.182278
O25	O	1.188221	-0.411496	-0.269901
O26	O	1.438221	-0.161496	-0.019901
O27	O	1.688221	0.088504	0.230099
O28	O	1.938221	0.338504	0.480099
O29	O	1.072734	-0.165077	-0.439361
O30	O	1.322734	0.084923	-0.189361
O31	O	1.572734	0.334923	0.060639
O32	O	1.822734	0.584923	0.310639
O33	O	1.302372	-0.394848	-0.439333
O34	O	1.552372	-0.144848	-0.189333
O35	O	1.802372	0.105152	0.060667
O36	O	2.052372	0.355152	0.310667
O37	O	1.159225	-0.152463	-0.567738
O38	O	1.409225	0.097537	-0.317738
O39	O	1.659225	0.347537	-0.067738
O40	O	1.909225	0.597537	0.182262
O41	O	1.089231	-0.312449	-0.269913
O42	O	1.339231	-0.062449	-0.019913
O43	O	1.589231	0.187551	0.230087
O44	O	1.839231	0.437551	0.480087
O45	O	0.941957	-0.295789	-0.439308
O46	O	1.191957	-0.045789	-0.189308
O47	O	1.441957	0.204211	0.060692
O48	O	1.691957	0.454211	0.310692
O49	O	1.043510	-0.365565	-0.737076
O50	O	1.293510	-0.115565	-0.487076
O51	O	1.543510	0.134435	-0.237076
O52	O	1.793510	0.384435	0.012924
O53	O	0.929359	-0.382214	-0.567644
O54	O	1.179359	-0.132214	-0.317644
O55	O	1.429359	0.117786	-0.067644
O56	O	1.679359	0.367786	0.182356
O57	O	1.142598	-0.266527	-0.737117
O58	O	1.392598	-0.016527	-0.487117
O59	O	1.642598	0.233473	-0.237117
O60	O	1.892598	0.483473	0.012883
O61	O	1.171594	-0.525560	-0.439280
O62	O	1.421594	-0.275560	-0.189280
O63	O	1.671594	-0.025560	0.060720
O64	O	1.921594	0.224440	0.310720
O65	O	1.060007	-0.512937	-0.567628
O66	O	1.310007	-0.262937	-0.317628
O67	O	1.560007	-0.012937	-0.067628
O68	O	1.810007	0.237063	0.182372
C69	C	0.906402	-0.339001	-0.503472
C70	C	1.156402	-0.089001	-0.253472
C71	C	1.406402	0.160999	-0.003472
C72	C	1.656402	0.410999	0.246528
C73	C	0.816780	-0.339014	-0.503485
C74	C	1.066780	-0.089014	-0.253485
C75	C	1.316780	0.160986	-0.003485
C76	C	1.566780	0.410986	0.246515
C77	C	0.488600	-0.339015	-0.503529
C78	C	0.738600	-0.089015	-0.253529
C79	C	0.988600	0.160985	-0.003529
C80	C	1.238600	0.410985	0.246471
C81	C	0.579910	-0.339013	-0.503514
C82	C	0.829910	-0.089013	-0.253514
C83	C	1.079910	0.160987	-0.003514
C84	C	1.329910	0.410987	0.246486
C85	C	0.652687	-0.339015	-0.503506
C86	C	0.902687	-0.089015	-0.253506
C87	C	1.152687	0.160985	-0.003506
C88	C	1.402687	0.410985	0.246494
C89	C	0.744002	-0.339012	-0.503492
C90	C	0.994002	-0.089012	-0.253492
C91	C	1.244002	0.160988	-0.003492
C92	C	1.494002	0.410988	0.246508
C93	C	1.115806	-0.548504	-0.503469
C94	C	1.365806	-0.298504	-0.253469
C95	C	1.615806	-0.048504	-0.003469
C96	C	1.865806	0.201496	0.246531
C97	C	1.115840	-0.638123	-0.503490
C98	C	1.365840	-0.388123	-0.253490
C99	C	1.615840	-0.138123	-0.003490
C100	C	1.865840	0.111877	0.246510
C101	C	1.115869	-0.710903	-0.503510
C102	C	1.365869	-0.460903	-0.253510
C103	C	1.615869	-0.210903	-0.003510
C104	C	1.865869	0.039097	0.246490
C105	C	1.115914	-0.802209	-0.503533
C106	C	1.365914	-0.552209	-0.253533
C107	C	1.615914	-0.302209	-0.003533
C108	C	1.865914	-0.052209	0.246467
C109	C	1.115954	-0.874984	-0.503547
C110	C	1.365954	-0.624984	-0.253547
C111	C	1.615954	-0.374984	-0.003547
C112	C	1.865954	-0.124984	0.246453
C113	C	1.115998	-0.966296	-0.503568
C114	C	1.365998	-0.716296	-0.253568
C115	C	1.615998	-0.466296	-0.003568
C116	C	1.865998	-0.216296	0.246432
C117	C	1.326196	-0.339019	-0.503532
C118	C	1.576196	-0.089019	-0.253532
C119	C	1.826196	0.160981	-0.003532
C120	C	2.076196	0.410981	0.246468
C121	C	1.415816	-0.339023	-0.503544
C122	C	1.665816	-0.089023	-0.253544
C123	C	1.915816	0.160977	-0.003544
C124	C	2.165816	0.410977	0.246456
C125	C	1.089243	-0.312214	-0.776074
C126	C	1.339243	-0.062214	-0.526074
C127	C	1.589243	0.187786	-0.276074
C128	C	1.839243	0.437786	-0.026074
C129	C	1.077888	-0.300796	-0.892229
C130	C	1.327888	-0.050796	-0.642229
C131	C	1.577888	0.199204	-0.392229
C132	C	1.827888	0.449204	-0.142229
C133	C	1.115994	-0.128695	-0.503558
C134	C	1.365994	0.121305	-0.253558
C135	C	1.615994	0.371305	-0.003558
C136	C	1.865994	0.621305	0.246442
C137	C	1.116039	-0.039072	-0.503581
C138	C	1.366039	0.210928	-0.253581
C139	C	1.616039	0.460928	-0.003581
C140	C	1.866039	0.710928	0.246419
C141	C	1.121804	-0.344712	-0.944008
C142	C	1.371804	-0.094712	-0.694008
C143	C	1.621804	0.155288	-0.444008
C144	C	1.871804	0.405288	-0.194008
C145	C	1.110069	-0.332911	-1.064059
C146	C	1.360069	-0.082911	-0.814059
C147	C	1.610069	0.167089	-0.564059
C148	C	1.860069	0.417089	-0.314059
C149	C	1.142479	-0.365642	-0.231989
C150	C	1.392479	-0.115642	0.018011
C151	C	1.642479	0.134358	0.268011
C152	C	1.892479	0.384358	0.518011
C153	C	1.153991	-0.376833	-0.115836
C154	C	1.403991	-0.126833	0.134164
C155	C	1.653991	0.123167	0.384164
C156	C	1.903991	0.373167	0.634164
H157	H	1.168092	-0.391043	-0.899460
H158	H	1.418092	-0.141043	-0.649460
H159	H	1.668092	0.108957	-0.399460
H160	H	1.918092	0.358957	-0.149460
H161	H	1.200283	-0.423168	-1.071294
H162	H	1.450283	-0.173168	-0.821294
H163	H	1.700283	0.076832	-0.571294
H164	H	1.950283	0.326832	-0.321294
H165	H	1.063783	-0.286570	-1.108603
H166	H	1.313783	-0.036570	-0.858603
H167	H	1.563783	0.213430	-0.608603
H168	H	1.813783	0.463430	-0.358603
O169	O	1.022575	-0.245630	-0.945408
O170	O	1.272575	0.004370	-0.695408
O171	O	1.522575	0.254370	-0.445408
O172	O	1.772575	0.504370	-0.195408
C173	C	0.964361	-0.285372	-1.008544
C174	C	1.214361	-0.035372	-0.758544
C175	C	1.464361	0.214628	-0.508544
C176	C	1.714361	0.464628	-0.258544
H177	H	0.962551	-0.352096	-0.975569
H178	H	1.212551	-0.102096	-0.725569
H179	H	1.462551	0.147904	-0.475569
H180	H	1.712551	0.397904	-0.225569
H181	H	0.981263	-0.280079	-1.091228
H182	H	1.231263	-0.030079	-0.841228
H183	H	1.481263	0.219921	-0.591228
H184	H	1.731263	0.469921	-0.341228
C185	C	0.882604	-0.163852	-1.050863
C186	C	1.132604	0.086148	-0.800863
C187	C	1.382604	0.336148	-0.550863
C188	C	1.632604	0.586148	-0.300863
C189	C	0.880377	-0.245801	-1.010357
C190	C	1.130377	0.004199	-0.760357
C191	C	1.380377	0.254199	-0.510357
C192	C	1.630377	0.504199	-0.260357
H193	H	0.830799	-0.139441	-1.051987
H194	H	1.080799	0.110559	-0.801987
H195	H	1.330799	0.360559	-0.551987
H196	H	1.580799	0.610559	-0.301987
H197	H	0.921825	-0.137075	-1.008331
H198	H	1.171825	0.112925	-0.758331
H199	H	1.421825	0.362925	-0.508331
H200	H	1.671825	0.612925	-0.258331
H201	H	0.896693	-0.159452	-1.119763
H202	H	1.146693	0.090548	-0.869763
H203	H	1.396693	0.340548	-0.619763
H204	H	1.646693	0.590548	-0.369763
H205	H	0.866298	-0.250200	-0.941455
H206	H	1.116298	-0.000200	-0.691455
H207	H	1.366298	0.249800	-0.441455
H208	H	1.616298	0.499800	-0.191455
H209	H	0.841151	-0.272578	-1.052879
H210	H	1.091151	-0.022578	-0.802879
H211	H	1.341151	0.227422	-0.552879
H212	H	1.591151	0.477422	-0.302879
