data_functionalizedCrystal
_audit_creation_method	'MofGen! by Chris Wilmer'
_symmetry_space_group_name_H-M	'P1'
_symmetry_Int_Tables_number	1
_symmetry_cell_setting	triclinic
loop_
_symmetry_equiv_pos_as_xyz
  x,y,z
_cell_length_a	10.489711
_cell_length_b	10.489741
_cell_length_c	7.088929
_cell_angle_alpha	83.712943
_cell_angle_beta	96.265165
_cell_angle_gamma	84.533091
loop_
_atom_site_label
_atom_site_type_symbol
_atom_site_fract_x
_atom_site_fract_y
_atom_site_fract_z
O1	O	1.681096	0.192787	-0.159056
O2	O	1.309896	0.209718	-0.159044
O3	O	1.503943	0.015653	-0.159039
O4	O	1.487049	0.386852	-0.159061
O5	O	1.529875	-0.010341	0.158937
O6	O	1.335828	0.183724	0.158931
O7	O	1.707028	0.166793	0.158920
Cu8	Cu	1.523796	0.172885	0.187959
Cu9	Cu	1.493128	0.203626	-0.188084
O10	O	1.512980	0.360858	0.158915
C11	C	1.275330	0.195450	-0.000055
C12	C	1.133699	0.191648	-0.000050
C13	C	1.515633	-0.044876	-0.000052
C14	C	1.511816	-0.186504	-0.000056
C15	C	0.951310	0.308355	-0.000079
C16	C	1.030670	0.262875	-0.156852
C17	C	1.056210	0.237216	0.156648
C18	C	0.960708	0.139344	-0.156993
C19	C	0.986250	0.113690	0.156647
C20	C	1.065579	0.068124	-0.000163
C21	C	1.388349	-0.254631	-0.000066
C22	C	1.459459	-0.359576	0.156711
C23	C	1.433921	-0.333922	-0.156788
C24	C	1.582987	-0.289595	0.156851
C25	C	1.557421	-0.263920	-0.156789
C26	C	1.628624	-0.368841	0.000026
C27	C	1.741594	0.181061	-0.000074
C28	C	1.883223	0.184864	-0.000091
C29	C	1.501290	0.421387	-0.000076
C30	C	1.505107	0.563017	-0.000086
N31	N	1.545375	0.151263	0.452448
N32	N	1.471559	0.225238	-0.452573
H33	H	0.901607	0.409869	-0.000241
C34	C	1.648738	0.047696	0.562760
N35	N	1.726589	-0.030310	0.645848
C36	C	1.112630	0.293194	0.335708
N37	N	1.155117	0.335365	0.470571
H38	H	1.050856	0.325966	-0.289392
C39	C	1.251232	-0.187546	0.000155
N40	N	1.147961	-0.137015	0.000332
C41	C	0.904471	0.083475	-0.336260
N42	N	0.862110	0.041401	-0.471286
C43	C	1.403485	-0.416108	0.335771
N44	N	1.361317	-0.458684	0.470631
H45	H	1.646004	-0.269615	0.289542
H46	H	1.730235	-0.418282	0.000110
H47	H	1.115031	-0.033465	-0.000236
C48	C	1.613332	-0.207343	-0.335865
N49	N	1.655433	-0.164724	-0.470761
H50	H	1.395057	0.301898	0.465779
C51	C	0.958930	0.028525	0.335722
N52	N	0.938348	-0.035612	0.470617
C53	C	1.348716	-0.361126	-0.335847
N54	N	1.284532	-0.381610	-0.470708
