data_functionalizedCrystal
_audit_creation_method	'MofGen! by Chris Wilmer'
_symmetry_space_group_name_H-M	'P1'
_symmetry_Int_Tables_number	1
_symmetry_cell_setting	triclinic
loop_
_symmetry_equiv_pos_as_xyz
  x,y,z
_cell_length_a	12.827893
_cell_length_b	16.625546
_cell_length_c	12.827885
_cell_angle_alpha	90.035124
_cell_angle_beta	90.019272
_cell_angle_gamma	90.022439
loop_
_atom_site_label
_atom_site_type_symbol
_atom_site_fract_x
_atom_site_fract_y
_atom_site_fract_z
Zn1	Zn	1.597618	-0.320963	0.590810
Zn2	Zn	1.597491	-0.455817	0.416054
Zn3	Zn	1.422860	-0.321002	0.416084
Zn4	Zn	1.422823	-0.455757	0.590754
O5	O	1.510198	-0.388385	0.503425
O6	O	1.743837	-0.338861	0.567639
O7	O	1.574287	-0.437976	0.269822
O8	O	1.446110	-0.208165	0.439297
O9	O	1.743744	-0.437937	0.439247
O10	O	1.574505	-0.208136	0.567668
O11	O	1.445987	-0.338928	0.269843
O12	O	1.276619	-0.338869	0.439243
O13	O	1.446048	-0.437835	0.736997
O14	O	1.276592	-0.437873	0.567572
O15	O	1.574469	-0.338802	0.737039
O16	O	1.574252	-0.568642	0.439192
O17	O	1.445925	-0.568598	0.567544
C18	C	1.238688	-0.388370	0.503405
C19	C	1.122535	-0.388382	0.503422
C20	C	1.510099	-0.597876	0.503382
C21	C	1.510152	-0.687497	0.503398
C22	C	1.070765	-0.437449	0.566825
C23	C	0.950714	-0.437464	0.566844
C24	C	1.510335	-1.015673	0.503507
C25	C	1.510281	-0.924364	0.503479
C26	C	1.510243	-0.851588	0.503452
C27	C	1.510190	-0.760274	0.503425
C28	C	1.782768	-0.388401	0.503446
C29	C	1.898921	-0.388408	0.503455
C30	C	1.510269	-0.388308	0.775996
C31	C	1.510299	-0.388275	0.892149
C32	C	1.510326	-0.178076	0.503492
C33	C	1.510380	-0.088455	0.503521
C34	C	1.510187	-0.388404	0.231915
C35	C	1.510359	-0.388210	0.115763
C36	C	1.573853	-0.339261	0.943954
C37	C	1.573886	-0.339225	1.064004
H38	H	0.906193	-0.479474	0.621123
H39	H	1.628236	-0.297321	0.899429
O40	O	1.129784	-0.493069	0.638722
H41	H	1.108877	-0.556357	0.620692
H42	H	1.628300	-0.297265	1.108555
O43	O	0.957868	-0.332758	0.431535
H44	H	1.007627	-0.291799	0.478435
O45	O	1.063516	-0.332757	0.431532
H46	H	1.084418	-0.269471	0.449579
O47	O	1.438261	-0.443795	1.056779
H48	H	1.485023	-0.484805	1.007031
O49	O	1.438246	-0.443822	0.951116
H50	H	1.456096	-0.507128	0.930208
