data_functionalizedCrystal
_audit_creation_method	'MofGen! by Chris Wilmer'
_symmetry_space_group_name_H-M	'P1'
_symmetry_Int_Tables_number	1
_symmetry_cell_setting	triclinic
loop_
_symmetry_equiv_pos_as_xyz
  x,y,z
_cell_length_a	10.489711
_cell_length_b	10.489716
_cell_length_c	18.366186
_cell_angle_alpha	89.997846
_cell_angle_beta	89.989433
_cell_angle_gamma	84.528072
loop_
_atom_site_label
_atom_site_type_symbol
_atom_site_fract_x
_atom_site_fract_y
_atom_site_fract_z
O1	O	1.694068	0.179791	-0.060569
O2	O	1.322866	0.196724	-0.060564
O3	O	1.516930	0.002657	-0.060569
O4	O	1.500004	0.373858	-0.060564
O5	O	1.516897	0.002647	0.060530
O6	O	1.322833	0.196714	0.060536
O7	O	1.694035	0.179781	0.060531
Zn8	Zn	1.508428	0.188246	0.079760
Zn9	Zn	1.508472	0.188259	-0.079793
O10	O	1.499971	0.373848	0.060536
C11	C	1.275317	0.195448	-0.000014
C12	C	1.133686	0.191646	-0.000012
C13	C	0.951289	0.308352	-0.000019
C14	C	1.043457	0.250060	-0.059727
C15	C	1.043397	0.250019	0.059668
C16	C	0.973516	0.126516	-0.059785
C17	C	0.973447	0.126492	0.059663
C18	C	1.065587	0.068111	-0.000060
C19	C	1.515642	-0.044880	-0.000022
C20	C	1.511837	-0.186511	-0.000028
C21	C	1.630843	-0.284198	-0.000023
C22	C	1.567974	-0.361547	-0.059729
C23	C	1.567913	-0.361520	0.059666
C24	C	1.449017	-0.261995	-0.059783
C25	C	1.448975	-0.261963	0.059665
C26	C	1.386018	-0.339263	-0.000055
C27	C	1.741584	0.181057	-0.000021
C28	C	1.883215	0.184859	-0.000028
C29	C	1.501259	0.421385	-0.000013
C30	C	1.505064	0.563016	-0.000012
N31	N	1.508408	0.188236	0.188651
N32	N	1.508503	0.188259	-0.188685
C33	C	1.594368	0.102346	0.226749
C34	C	1.594376	0.102341	0.302977
C35	C	1.508436	0.188247	0.341104
C36	C	1.422460	0.274143	0.302997
C37	C	1.422445	0.274138	0.226770
C38	C	1.492780	0.304270	0.461866
C39	C	1.492804	0.304278	0.538091
C40	C	1.508473	0.188263	0.576212
C41	C	1.524145	0.072237	0.538098
C42	C	1.524131	0.072232	0.461871
C43	C	1.508441	0.188262	0.423759
C44	C	1.594446	0.102360	0.696965
C45	C	1.594445	0.102353	0.773194
C46	C	1.422535	0.274167	0.773212
C47	C	1.422530	0.274163	0.696984
C48	C	1.508492	0.188261	0.658865
H49	H	1.115053	-0.033485	-0.000091
Cl50	Cl	0.925529	0.045878	0.137601
H51	H	1.398821	-0.218681	-0.110316
H52	H	1.734358	-0.259532	-0.000085
H53	H	1.398767	-0.218444	0.110146
H54	H	1.352445	0.344081	0.195750
Cl55	Cl	1.645488	-0.428650	0.137597
Cl56	Cl	1.543819	-0.073622	0.413959
Cl57	Cl	1.091167	0.330718	0.137602
Cl58	Cl	1.226082	-0.376972	-0.000100
H59	H	1.536904	-0.022233	0.569134
Cl60	Cl	1.645555	-0.428707	-0.137664
Cl61	Cl	0.874551	0.465059	-0.000105
Cl62	Cl	1.702426	-0.005649	0.178829
H63	H	1.074461	0.302321	-0.110202
Cl64	Cl	1.702452	-0.005644	0.350880
Cl65	Cl	1.314487	0.382154	0.821137
H66	H	0.942726	0.074317	-0.110323
H67	H	1.352484	0.344088	0.334043
Cl68	Cl	1.702506	-0.005637	0.649042
H69	H	1.664441	0.032404	0.804214
H70	H	1.352538	0.344108	0.665963
Cl71	Cl	1.473200	0.450136	0.413951
Cl72	Cl	1.473110	0.450137	0.585998
