data_functionalizedCrystal
_audit_creation_method	'MofGen! by Chris Wilmer'
_symmetry_space_group_name_H-M	'P1'
_symmetry_Int_Tables_number	1
_symmetry_cell_setting	triclinic
loop_
_symmetry_equiv_pos_as_xyz
  x,y,z
_cell_length_a	27.440280
_cell_length_b	23.196402
_cell_length_c	23.196401
_cell_angle_alpha	60.008822
_cell_angle_beta	90.017084
_cell_angle_gamma	59.998982
loop_
_atom_site_label
_atom_site_type_symbol
_atom_site_fract_x
_atom_site_fract_y
_atom_site_fract_z
Zr1	Zr	0.469501	0.630934	-0.075558
O2	O	0.391666	0.751211	-0.167616
O3	O	0.493359	0.510665	-0.047341
O4	O	0.493338	0.630932	-0.167606
O5	O	0.391707	0.630943	0.047521
O6	O	0.573541	0.630921	-0.167594
O7	O	0.391687	0.630944	-0.047351
O8	O	0.573579	0.415785	0.047539
O9	O	0.391668	0.846079	-0.167612
O10	O	0.563392	0.560122	-0.035293
O11	O	0.503551	0.560129	0.035499
O12	O	0.503526	0.701728	-0.106097
O13	O	0.443686	0.701735	-0.035305
Zr14	Zr	0.597446	0.630914	0.075770
Zr15	Zr	0.597415	0.630916	-0.075539
Zr16	Zr	0.469531	0.630932	0.075751
Zr17	Zr	0.469504	0.782236	-0.075551
Zr18	Zr	0.597442	0.479611	0.075764
O19	O	0.573587	0.751183	0.047553
O20	O	0.573543	0.751186	-0.167589
O21	O	0.391709	0.751208	0.047526
O22	O	0.675280	0.510636	0.167828
O23	O	0.675237	0.510640	-0.047314
O24	O	0.493403	0.510662	0.167801
O25	O	0.675240	0.630905	-0.047309
O26	O	0.573608	0.630916	0.167818
O27	O	0.493406	0.630927	0.167806
O28	O	0.675259	0.630903	0.047563
O29	O	0.493343	0.846065	-0.167597
O30	O	0.573603	0.415783	0.167809
O31	O	0.675278	0.415769	0.167824
O32	O	0.675254	0.415771	0.047554
O33	O	0.391692	0.846077	-0.047341
O34	O	0.493367	0.846063	-0.047326
O35	O	0.563420	0.560120	0.106310
O36	O	0.623260	0.560112	0.035517
O37	O	0.563395	0.701719	-0.035287
O38	O	0.503555	0.701726	0.035505
C39	C	0.533469	0.441668	0.000098
C40	C	0.533467	0.377436	0.000095
C41	C	0.373472	0.630946	0.000082
C42	C	0.319169	0.630954	0.000074
C43	C	0.564699	0.347262	-0.036860
C44	C	0.564705	0.286901	-0.036855
C45	C	0.533467	0.256728	0.000097
C46	C	0.502234	0.286906	0.037061
C47	C	0.502234	0.347260	0.037060
C48	C	0.481133	0.194706	-0.005185
C49	C	0.481131	0.134356	-0.005189
C50	C	0.533468	0.070573	0.000104
C51	C	0.585806	0.067154	0.005388
C52	C	0.585806	0.127508	0.005387
C53	C	0.533464	0.191283	0.000103
C54	C	0.564709	-0.025053	-0.036847
C55	C	0.564716	-0.085418	-0.036836
C56	C	0.502240	-0.085406	0.037075
C57	C	0.502238	-0.025047	0.037069
C58	C	0.533471	0.005129	0.000104
C59	C	0.013721	0.556993	0.037085
C60	C	-0.037298	0.556989	0.037091
O61	O	-0.037110	0.494125	0.068545
N62	N	-0.094064	0.630905	0.000131
C63	C	-0.099811	0.704831	-0.036831
O64	O	-0.152779	0.767702	-0.068267
C65	C	-0.048793	0.704834	-0.036833
C66	C	0.007973	0.630913	0.000123
C67	C	0.070483	0.483078	0.074039
C68	C	0.121498	0.483083	0.074031
C69	C	0.115750	0.557003	0.037070
C70	C	0.058987	0.630918	0.000116
C71	C	-0.054540	0.778759	-0.073791
C72	C	-0.003516	0.778756	-0.073789
C73	C	0.053249	0.704835	-0.036833
C74	C	0.104254	0.704843	-0.036853
N75	N	0.161020	0.630926	0.000107
C76	C	0.166768	0.557007	0.037068
C77	C	-0.206949	0.704817	-0.036824
C78	C	-0.257966	0.704814	-0.036827
C79	C	-0.195450	0.556972	0.037097
C80	C	-0.144432	0.556976	0.037095
C81	C	-0.150183	0.630901	0.000136
C82	C	0.273901	0.557022	0.037049
C83	C	0.324917	0.557034	0.037036
C84	C	0.262397	0.704875	-0.036884
C85	C	0.211384	0.704864	-0.036875
C86	C	0.217140	0.630931	0.000097
O87	O	0.104112	0.767674	-0.068289
O88	O	0.219738	0.494146	0.068506
C89	C	0.693474	0.630902	0.000130
C90	C	0.747777	0.630894	0.000138
C91	C	0.533435	0.630927	-0.189158
C92	C	0.533422	0.630928	-0.253393
C93	C	0.533478	0.820180	0.000114
C94	C	0.533479	0.884412	0.000117
C95	C	0.502176	0.704842	-0.320525
C96	C	0.502191	0.704844	-0.380880
C97	C	0.533444	0.630926	-0.374099
C98	C	0.564697	0.557001	-0.306955
C99	C	0.564686	0.557002	-0.246602
C100	C	0.529005	0.574298	-0.441419
C101	C	0.529011	0.574300	-0.501773
C102	C	0.533482	0.630920	-0.560247
C103	C	0.537933	0.687550	-0.558367
C104	C	0.537922	0.687551	-0.498013
C105	C	0.533460	0.630916	-0.439538
C106	C	0.502251	0.704841	-0.692826
C107	C	0.502270	0.704839	-0.753181
C108	C	0.564772	0.556994	-0.679253
C109	C	0.564757	0.556998	-0.618900
C110	C	0.533493	0.630924	-0.625691
C111	C	0.533511	0.630921	0.189371
C112	C	0.533524	0.630920	0.253605
C113	C	0.693470	0.441645	0.000122
C114	C	0.747771	0.377406	0.000127
C115	C	0.533507	0.441665	0.189362
C116	C	0.533519	0.377432	0.253594
C117	C	0.693508	0.441642	0.189386
C118	C	0.747823	0.377402	0.253626
C119	C	0.373438	0.820205	-0.189174
C120	C	0.319124	0.884446	-0.253414
C121	C	0.373476	0.820202	0.000091
C122	C	0.319175	0.884442	0.000085
C123	C	0.533439	0.820183	-0.189150
C124	C	0.533428	0.884416	-0.253382
C125	C	0.742021	0.347243	-0.036839
C126	C	0.793038	0.286892	-0.036848
C127	C	0.849805	0.256700	0.000113
C128	C	0.855554	0.286869	0.037080
C129	C	0.804538	0.347223	0.037085
C130	C	0.564775	0.347263	0.320727
C131	C	0.564783	0.286917	0.381085
C132	C	0.533539	0.256739	0.374310
C133	C	0.502279	0.286914	0.307170
C134	C	0.502267	0.347262	0.246813
C135	C	0.804571	0.347230	0.246841
C136	C	0.855610	0.286878	0.307195
C137	C	0.849899	0.256695	0.374334
C138	C	0.793146	0.286872	0.381118
C139	C	0.742108	0.347228	0.320764
C140	C	0.262376	0.914625	-0.246628
C141	C	0.211337	0.974996	-0.306983
C142	C	0.217047	1.005182	-0.374122
C143	C	0.273801	0.975001	-0.380906
C144	C	0.324839	0.914635	-0.320552
C145	C	0.324925	0.914611	0.037045
C146	C	0.273908	0.974979	0.037038
C147	C	0.217141	1.005172	0.000074
C148	C	0.211392	0.975001	-0.036890
C149	C	0.262409	0.914638	-0.036887
C150	C	0.564678	0.914576	-0.246584
C151	C	0.564679	0.974921	-0.306931
C152	C	0.533426	1.005110	-0.374075
C153	C	0.502174	0.974944	-0.380872
C154	C	0.502177	0.914596	-0.320526
H155	H	0.590139	0.262328	-0.066949
O156	O	0.524207	0.513225	-0.503798
H157	H	0.524956	0.522743	-0.555592
H158	H	0.590133	0.371827	-0.066957
H159	H	0.590218	0.371827	0.326257
H160	H	0.257715	0.890050	-0.191966
H161	H	0.695903	0.371786	0.326299
O162	O	0.598384	1.007452	-0.299588
H163	H	0.632924	0.995851	-0.325294
H164	H	0.165130	0.999559	-0.301446
O165	O	0.916823	0.254345	0.299883
H166	H	0.941586	0.187761	0.325625
H167	H	0.476816	0.371818	0.192153
O168	O	0.280115	1.007504	0.076918
H169	H	0.328161	0.976351	0.102632
H170	H	0.476726	0.890046	-0.326071
H171	H	-0.190778	0.496783	0.067190
O172	O	0.810743	0.379742	0.076970
H173	H	0.858788	0.348596	0.102675
O174	O	0.533568	0.191635	0.439416
H175	H	0.514034	0.214799	0.471288
H176	H	0.175484	1.054336	-0.423260
O177	O	0.468540	0.784568	-0.700140
H178	H	0.446823	0.835968	-0.756965
O179	O	0.386146	0.882065	0.076911
H180	H	0.410897	0.815488	0.117773
H181	H	0.175605	1.054324	0.000077
H182	H	0.075174	0.422881	0.104141
H183	H	0.590241	0.262356	0.435747
H184	H	0.438513	0.137149	-0.009495
O185	O	0.256201	0.784602	-0.076835
H186	H	0.301216	0.772179	-0.070652
H187	H	0.165166	0.999594	-0.066985
O188	O	0.279957	1.007556	-0.453322
H189	H	0.234930	1.054594	-0.494143
O190	O	0.468464	1.007495	-0.453287
H191	H	0.433925	1.074075	-0.482554
H192	H	0.371044	0.890064	-0.326085
O193	O	0.904950	0.191585	0.439428
H194	H	0.931896	0.214744	0.439387
O195	O	0.468459	0.784572	-0.327846
H196	H	0.446736	0.835971	-0.384671
H197	H	0.257718	0.890076	-0.066982
O198	O	0.598397	0.882012	-0.174167
H199	H	0.620133	0.913121	-0.179590
H200	H	0.533428	1.054250	-0.423207
H201	H	-0.100753	0.838953	-0.103884
H202	H	0.628422	0.124719	0.009690
O203	O	0.598400	0.477283	-0.174184
H204	H	0.566861	0.473745	-0.144927
O205	O	0.642264	-0.001638	0.011104
H206	H	0.633476	-0.043040	0.010228
H207	H	0.590143	-0.000485	-0.066943
H208	H	0.476805	-0.109973	0.067162
O209	O	0.598400	-0.117964	-0.076701
H210	H	0.620111	-0.086832	-0.102410
H211	H	0.809231	0.371797	0.192178
O212	O	0.468600	0.254332	0.299878
H213	H	0.434079	0.265901	0.325613
O214	O	0.468550	0.007513	0.076922
H215	H	0.420524	0.035023	0.055557
O216	O	0.424679	0.263505	-0.010900
H217	H	0.388284	0.255752	-0.014586
H218	H	0.788505	0.262288	0.435791
O219	O	0.468491	0.784572	-0.453297
H220	H	0.473757	0.772150	-0.494122
H221	H	-0.008205	0.838956	-0.103877
H222	H	0.476801	0.262334	0.067148
H223	H	0.476800	0.371828	0.067154
O224	O	0.386142	0.477298	0.076897
H225	H	0.420656	0.489714	0.070679
O226	O	0.468570	0.784568	-0.825591
H227	H	0.473836	0.772151	-0.866419
H228	H	0.167715	0.422889	0.104122
O229	O	0.280111	0.477283	0.076916
H230	H	0.328156	0.425893	0.102600
O231	O	0.916783	0.254295	0.076952
H232	H	0.951286	0.207253	0.070742
O233	O	0.542736	0.748614	-0.495974
H234	H	0.545853	0.787982	-0.546768
H235	H	0.541571	0.733658	-0.605979
O236	O	-0.083208	0.477249	0.076955
H237	H	-0.078002	0.441805	0.133760
O238	O	-0.319190	0.784543	-0.076693
H239	H	-0.314609	0.835940	-0.102390
O240	O	0.598493	0.477257	-0.671914
H241	H	0.566964	0.473704	-0.697653
H242	H	0.165162	0.765057	-0.066977
O243	O	-0.213137	0.784543	-0.076709
H244	H	-0.237909	0.820014	-0.055373
O245	O	0.598449	0.477276	-0.546487
H246	H	0.620180	0.425874	-0.551909
O247	O	0.524178	0.513231	-0.378352
H248	H	0.521074	0.473864	-0.389803
H249	H	0.590145	0.496817	-0.301437
H250	H	0.788345	0.262336	-0.066951
O251	O	0.680797	0.379809	-0.076715
H252	H	0.685379	0.348697	-0.102426
H253	H	0.891341	0.207555	0.000104
