data_functionalizedCrystal
_audit_creation_method	'MofGen! by Chris Wilmer'
_symmetry_space_group_name_H-M	'P1'
_symmetry_Int_Tables_number	1
_symmetry_cell_setting	triclinic
loop_
_symmetry_equiv_pos_as_xyz
  x,y,z
_cell_length_a	18.215407
_cell_length_b	19.805405
_cell_length_c	18.215399
_cell_angle_alpha	90.027923
_cell_angle_beta	90.016899
_cell_angle_gamma	90.024185
loop_
_atom_site_label
_atom_site_type_symbol
_atom_site_fract_x
_atom_site_fract_y
_atom_site_fract_z
Zn1	Zn	1.125062	-0.269516	0.416058
Zn2	Zn	1.458396	0.063817	0.749392
Zn3	Zn	1.791729	0.397151	1.082725
Zn4	Zn	1.124967	-0.382707	0.292992
Zn5	Zn	1.458300	-0.049374	0.626325
Zn6	Zn	1.791634	0.283960	0.959659
Zn7	Zn	1.001995	-0.269532	0.293012
Zn8	Zn	1.335328	0.063801	0.626345
Zn9	Zn	1.668662	0.397134	0.959679
Zn10	Zn	1.001957	-0.382663	0.416023
Zn11	Zn	1.335290	-0.049330	0.749357
Zn12	Zn	1.668624	0.284003	1.082690
O13	O	1.063495	-0.326105	0.354521
O14	O	1.396829	0.007229	0.687855
O15	O	1.730162	0.340562	1.021188
O16	O	1.228034	-0.284542	0.399740
O17	O	1.561367	0.048791	0.733073
O18	O	1.894701	0.382124	1.066406
O19	O	1.108630	-0.367719	0.190010
O20	O	1.441964	-0.034386	0.523344
O21	O	1.775297	0.298948	0.856677
O22	O	1.018376	-0.174814	0.309357
O23	O	1.351709	0.158520	0.642691
O24	O	1.685043	0.491853	0.976024
O25	O	1.227964	-0.367703	0.309323
O26	O	1.561297	-0.034370	0.642657
O27	O	1.894631	0.298963	0.975990
O28	O	1.108793	-0.174802	0.399759
O29	O	1.442127	0.158532	0.733092
O30	O	1.775460	0.491865	1.066426
O31	O	1.018283	-0.284570	0.190025
O32	O	1.351617	0.048763	0.523358
O33	O	1.684950	0.382096	0.856692
O34	O	0.899006	-0.284528	0.309323
O35	O	1.232339	0.048805	0.642657
O36	O	1.565672	0.382139	0.975990
O37	O	1.018311	-0.367629	0.519012
O38	O	1.351645	-0.034296	0.852346
O39	O	1.684978	0.299038	1.185679
O40	O	0.898978	-0.367645	0.399699
O41	O	1.232311	-0.034312	0.733033
O42	O	1.565644	0.299022	1.066366
O43	O	1.108756	-0.284500	0.519038
O44	O	1.442090	0.048833	0.852371
O45	O	1.775423	0.382166	1.185705
O46	O	1.108593	-0.477418	0.309289
O47	O	1.441927	-0.144084	0.642623
O48	O	1.775260	0.189249	0.975956
O49	O	1.018219	-0.477386	0.399680
O50	O	1.351552	-0.144052	0.733013
O51	O	1.684885	0.189281	1.066347
C52	C	0.872289	-0.326084	0.354510
C53	C	1.205622	0.007249	0.687843
C54	C	1.538956	0.340583	1.021177
C55	C	0.790490	-0.326091	0.354523
C56	C	1.123824	0.007242	0.687856
C57	C	1.457157	0.340575	1.021189
C58	C	0.525437	-0.369455	0.401516
C59	C	0.858771	-0.036121	0.734849
C60	C	1.192104	0.297212	1.068182
C61	C	0.602296	-0.369449	0.401512
C62	C	0.935629	-0.036116	0.734845
C63	C	1.268963	0.297218	1.068179
C64	C	0.602295	-0.282770	0.307540
C65	C	0.935628	0.050564	0.640874
C66	C	1.268961	0.383897	0.974207
C67	C	0.525437	-0.282779	0.307541
C68	C	0.858771	0.050554	0.640874
C69	C	1.192104	0.383887	0.974207
C70	C	0.487011	-0.326121	0.354533
C71	C	0.820344	0.007212	0.687866
C72	C	1.153677	0.340546	1.021199
C73	C	0.640727	-0.326105	0.354529
C74	C	0.974060	0.007228	0.687862
C75	C	1.307393	0.340561	1.021195
C76	C	0.724060	-0.326099	0.354524
C77	C	1.057394	0.007234	0.687858
C78	C	1.390727	0.340568	1.021191
C79	C	0.403672	-0.326129	0.354536
C80	C	0.737005	0.007205	0.687869
C81	C	1.070338	0.340538	1.021203
C82	C	1.063412	-0.501961	0.354495
C83	C	1.396745	-0.168627	0.687828
C84	C	1.730078	0.164706	1.021162
C85	C	1.063443	-0.577193	0.354508
C86	C	1.396776	-0.243859	0.687841
C87	C	1.730110	0.089474	1.021175
C88	C	1.110495	-0.612472	0.401617
C89	C	1.443829	-0.279139	0.734950
C90	C	1.777162	0.054194	1.068284
C91	C	1.110522	-0.683161	0.401631
C92	C	1.443855	-0.349827	0.734964
C93	C	1.777189	-0.016494	1.068297
C94	C	1.063499	-0.718568	0.354531
C95	C	1.396833	-0.385235	0.687865
C96	C	1.730166	-0.051902	1.021198
C97	C	1.016442	-0.683284	0.307420
C98	C	1.349775	-0.349950	0.640753
C99	C	1.683108	-0.016617	0.974087
C100	C	1.016412	-0.612596	0.307411
C101	C	1.349745	-0.279263	0.640744
C102	C	1.683079	0.054070	0.974077
C103	C	1.016560	-0.968357	0.307458
C104	C	1.349893	-0.635024	0.640791
C105	C	1.683227	-0.301690	0.974124
C106	C	1.016595	-1.039049	0.307469
C107	C	1.349928	-0.705716	0.640803
C108	C	1.683262	-0.372382	0.974136
C109	C	1.110670	-1.038921	0.401678
C110	C	1.444003	-0.705588	0.735011
C111	C	1.777336	-0.372255	1.068345
C112	C	1.110640	-0.968234	0.401668
C113	C	1.443973	-0.634901	0.735002
C114	C	1.777307	-0.301567	1.068335
C115	C	1.063580	-0.932956	0.354560
C116	C	1.396913	-0.599622	0.687894
C117	C	1.730247	-0.266289	1.021227
C118	C	1.063551	-0.856307	0.354547
C119	C	1.396884	-0.522974	0.687880
C120	C	1.730218	-0.189641	1.021214
C121	C	1.063532	-0.795215	0.354540
C122	C	1.396865	-0.461882	0.687874
C123	C	1.730198	-0.128549	1.021207
C124	C	1.255448	-0.326126	0.354533
C125	C	1.588782	0.007207	0.687867
C126	C	1.922115	0.340541	1.021200
C127	C	1.337247	-0.326135	0.354538
C128	C	1.670580	0.007198	0.687872
C129	C	2.003914	0.340532	1.021205
C130	C	1.063540	-0.326058	0.546474
C131	C	1.396874	0.007275	0.879808
C132	C	1.730207	0.340609	1.213141
C133	C	1.063559	-0.326038	0.628273
C134	C	1.396893	0.007295	0.961607
C135	C	1.730226	0.340629	1.294940
C136	C	1.063600	-0.149562	0.354564
C137	C	1.396933	0.183771	0.687898
C138	C	1.730266	0.517105	1.021231
C139	C	1.063644	-0.074330	0.354583
C140	C	1.396977	0.259003	0.687916
C141	C	1.730311	0.592337	1.021249
C142	C	1.063493	-0.326102	0.163315
C143	C	1.396826	0.007231	0.496649
C144	C	1.730160	0.340564	0.829982
C145	C	1.063617	-0.325932	0.081517
C146	C	1.396950	0.007402	0.414850
C147	C	1.730283	0.340735	0.748183
C148	C	1.110671	-0.282712	0.816482
C149	C	1.444004	0.050621	1.149815
C150	C	1.777338	0.383954	1.483149
C151	C	1.110680	-0.282693	0.893341
C152	C	1.444013	0.050641	1.226674
C153	C	1.777346	0.383974	1.560007
C154	C	1.016500	-0.369259	0.893303
C155	C	1.349833	-0.035926	1.226636
C156	C	1.683166	0.297408	1.559969
C157	C	1.016488	-0.369275	0.816445
C158	C	1.349821	-0.035942	1.149779
C159	C	1.683154	0.297392	1.483112
C160	C	1.063578	-0.326003	0.778037
C161	C	1.396911	0.007331	1.111370
C162	C	1.730244	0.340664	1.444704
C163	C	1.063598	-0.325967	0.931753
C164	C	1.396932	0.007366	1.265086
C165	C	1.730265	0.340700	1.598420
C166	C	1.063607	-0.325946	1.015087
C167	C	1.396941	0.007387	1.348420
C168	C	1.730274	0.340721	1.681754
C169	C	1.063568	-0.326023	0.694698
C170	C	1.396901	0.007311	1.028031
C171	C	1.730234	0.340644	1.361365
H172	H	1.148842	-0.711882	0.439986
H173	H	1.482176	-0.378549	0.773319
H174	H	1.815509	-0.045216	1.106653
O175	O	0.970728	-0.717751	0.261769
O176	O	1.304061	-0.384418	0.595102
O177	O	1.637395	-0.051085	0.928436
C178	C	0.923177	-0.758641	0.303631
C179	C	1.256511	-0.425308	0.636964
C180	C	1.589844	-0.091975	0.970298
H181	H	0.949105	-0.769181	0.359427
H182	H	1.282438	-0.435847	0.692760
H183	H	1.615771	-0.102514	1.026093
H184	H	0.913356	-0.808373	0.273652
H185	H	1.246689	-0.475039	0.606985
H186	H	1.580023	-0.141706	0.940318
H187	H	0.868622	-0.731437	0.311665
H188	H	1.201956	-0.398104	0.644999
H189	H	1.535289	-0.064771	0.978332
H190	H	1.149027	-0.247440	0.924639
H191	H	1.482360	0.085893	1.257973
H192	H	1.815693	0.419226	1.591306
O193	O	1.156239	-0.933871	0.447527
O194	O	1.489572	-0.600537	0.780860
O195	O	1.822905	-0.267204	1.114194
C196	C	1.140130	-0.951128	0.520862
C197	C	1.473463	-0.617794	0.854195
C198	C	1.806797	-0.284461	1.187528
H199	H	1.081344	-0.970603	0.524526
H200	H	1.414678	-0.637269	0.857860
H201	H	1.748011	-0.303936	1.191193
H202	H	1.146426	-0.904616	0.557219
H203	H	1.479759	-0.571282	0.890553
H204	H	1.813092	-0.237949	1.223886
H205	H	1.179592	-0.992117	0.540140
H206	H	1.512926	-0.658784	0.873473
H207	H	1.846259	-0.325451	1.206807
O208	O	0.970832	-0.411273	0.930728
O209	O	1.304165	-0.077940	1.264061
O210	O	1.637499	0.255393	1.597395
C211	C	0.980927	-0.401967	1.006809
C212	C	1.314261	-0.068633	1.340142
C213	C	1.647594	0.264700	1.673475
H214	H	1.037736	-0.379802	1.017320
H215	H	1.371069	-0.046469	1.350654
H216	H	1.704402	0.286865	1.683987
H217	H	0.975912	-0.452659	1.036003
H218	H	1.309245	-0.119326	1.369336
H219	H	1.642579	0.214007	1.702669
H220	H	0.937299	-0.365914	1.028624
H221	H	1.270632	-0.032581	1.361958
H222	H	1.603966	0.300752	1.695291
H223	H	0.978133	-0.404526	0.785143
H224	H	1.311467	-0.071193	1.118476
H225	H	1.644800	0.262140	1.451809
H226	H	0.633591	-0.247482	0.269282
H227	H	0.966924	0.085852	0.602616
H228	H	1.300258	0.419185	0.935949
H229	H	1.148986	-1.067653	0.440038
H230	H	1.482319	-0.734320	0.773371
H231	H	1.815653	-0.400987	1.106705
O232	O	0.970841	-1.073340	0.261694
O233	O	1.304174	-0.740007	0.595028
O234	O	1.637507	-0.406674	0.928361
C235	C	0.929309	-1.027046	0.220101
C236	C	1.262642	-0.693713	0.553435
C237	C	1.595976	-0.360379	0.886768
H238	H	0.926721	-0.976642	0.250234
H239	H	1.260054	-0.643308	0.583567
H240	H	1.593387	-0.309975	0.916901
H241	H	0.871340	-1.047522	0.212210
H242	H	1.204673	-0.714189	0.545544
H243	H	1.538006	-0.380855	0.878877
H244	H	0.956281	-1.019539	0.164228
H245	H	1.289614	-0.686206	0.497561
H246	H	1.622948	-0.352873	0.830895
H247	H	1.148790	-0.583648	0.439968
H248	H	1.482123	-0.250315	0.773301
H249	H	1.815456	0.083018	1.106634
O250	O	0.488223	-0.411620	0.447184
O251	O	0.821556	-0.078286	0.780517
O252	O	1.154889	0.255047	1.113850
C253	C	0.538624	-0.449852	0.488665
C254	C	0.871958	-0.116519	0.821998
C255	C	1.205291	0.216814	1.155331
H256	H	0.593400	-0.452158	0.458514
H257	H	0.926733	-0.118825	0.791847
H258	H	1.260066	0.214509	1.125180
H259	H	0.516403	-0.503192	0.496421
H260	H	0.849736	-0.169858	0.829754
H261	H	1.183070	0.163475	1.163087
H262	H	0.546827	-0.425125	0.544601
H263	H	0.880160	-0.091792	0.877935
H264	H	1.213493	0.241541	1.211268
O265	O	1.156328	-0.240577	0.779206
O266	O	1.489662	0.092756	1.112539
O267	O	1.822995	0.426090	1.445872
C268	C	1.140292	-0.173115	0.798020
C269	C	1.473625	0.160218	1.131354
C270	C	1.806959	0.493552	1.464687
H271	H	1.081504	-0.169693	0.819139
H272	H	1.414837	0.163640	1.152472
H273	H	1.748171	0.496974	1.485806
H274	H	1.146641	-0.139684	0.747488
H275	H	1.479975	0.193649	1.080822
H276	H	1.813308	0.526983	1.414155
H277	H	1.179762	-0.155416	0.842646
H278	H	1.513095	0.177917	1.175979
H279	H	1.846428	0.511250	1.509312
O280	O	0.639704	-0.411447	0.447191
O281	O	0.973037	-0.078113	0.780525
O282	O	1.306370	0.255220	1.113858
C283	C	0.684175	-0.372957	0.494805
C284	C	1.017508	-0.039624	0.828138
C285	C	1.350841	0.293709	1.161471
H286	H	0.695700	-0.321635	0.468941
H287	H	1.029034	0.011698	0.802274
H288	H	1.362367	0.345031	1.135607
H289	H	0.738214	-0.400533	0.504619
H290	H	1.071547	-0.067200	0.837952
H291	H	1.404880	0.266133	1.171286
H292	H	0.654573	-0.365581	0.549355
H293	H	0.987906	-0.032247	0.882689
H294	H	1.321239	0.301086	1.216022
O295	O	0.487991	-0.240758	0.261909
O296	O	0.821324	0.092575	0.595242
O297	O	1.154658	0.425909	0.928576
C298	C	0.411915	-0.250059	0.271991
C299	C	0.745249	0.083275	0.605324
C300	C	1.078582	0.416608	0.938658
H301	H	0.401418	-0.302315	0.296016
H302	H	0.734751	0.031018	0.629350
H303	H	1.068085	0.364351	0.962683
H304	H	0.382696	-0.245434	0.216870
H305	H	0.716029	0.087900	0.550203
H306	H	1.049362	0.421233	0.883537
H307	H	0.390116	-0.209948	0.311237
H308	H	0.723449	0.123385	0.644571
H309	H	1.056782	0.456718	0.977904
H310	H	0.978244	-0.939639	0.269099
H311	H	1.311577	-0.606305	0.602433
H312	H	1.644910	-0.272972	0.935766
O313	O	0.970681	-0.578428	0.261581
O314	O	1.304014	-0.245095	0.594914
O315	O	1.637347	0.088238	0.928247
C316	C	0.929169	-0.624835	0.220025
C317	C	1.262502	-0.291502	0.553358
C318	C	1.595836	0.041831	0.886691
H319	H	0.959337	-0.675202	0.217504
H320	H	1.292671	-0.341868	0.550837
H321	H	1.626004	-0.008535	0.884170
H322	H	0.921337	-0.604448	0.162034
H323	H	1.254670	-0.271114	0.495367
H324	H	1.588003	0.062219	0.828700
H325	H	0.873267	-0.632383	0.246932
H326	H	1.206600	-0.299050	0.580265
H327	H	1.539934	0.034283	0.913599
