data_functionalizedCrystal
_audit_creation_method	'MofGen! by Chris Wilmer'
_symmetry_space_group_name_H-M	'P1'
_symmetry_Int_Tables_number	1
_symmetry_cell_setting	triclinic
loop_
_symmetry_equiv_pos_as_xyz
  x,y,z
_cell_length_a	19.077105
_cell_length_b	15.299816
_cell_length_c	19.076919
_cell_angle_alpha	102.310100
_cell_angle_beta	90.076224
_cell_angle_gamma	78.483666
loop_
_atom_site_label
_atom_site_type_symbol
_atom_site_fract_x
_atom_site_fract_y
_atom_site_fract_z
Zn1	Zn	1.115517	-0.442478	-0.502525
Zn2	Zn	1.139183	-0.589537	-0.405660
Zn3	Zn	1.001149	-0.430226	-0.378599
Zn4	Zn	1.016933	-0.588986	-0.518335
O5	O	1.068195	-0.512807	-0.451280
O6	O	1.217681	-0.467345	-0.494385
O7	O	1.124171	-0.563508	-0.303052
O8	O	0.999811	-0.303865	-0.377096
O9	O	1.235068	-0.575388	-0.423218
O10	O	1.083836	-0.312867	-0.468145
O11	O	1.022758	-0.446462	-0.283170
O12	O	0.904218	-0.445927	-0.392427
O13	O	1.026712	-0.574448	-0.615257
O14	O	0.915814	-0.562568	-0.495090
O15	O	1.099141	-0.466810	-0.603641
O16	O	1.139476	-0.717451	-0.438549
O17	O	1.049659	-0.717045	-0.521331
C18	C	0.884340	-0.502859	-0.442538
C19	C	0.805688	-0.498626	-0.438818
C20	C	1.098867	-0.750435	-0.484608
C21	C	1.112052	-0.852098	-0.498893
C22	C	0.774807	-0.557450	-0.490463
C23	C	0.700904	-0.553461	-0.486970
C24	C	0.657883	-0.490651	-0.431828
C25	C	0.688769	-0.431820	-0.380180
C26	C	0.762670	-0.435806	-0.383677
C27	C	0.436210	-0.472206	-0.415646
C28	C	0.362304	-0.468227	-0.412151
C29	C	0.374444	-0.589866	-0.518943
C30	C	0.448347	-0.593850	-0.522432
C31	C	0.479225	-0.535016	-0.470787
N32	N	0.582342	-0.486574	-0.428254
N33	N	0.554764	-0.539090	-0.474364
C34	C	0.974413	-1.120225	-0.349448
C35	C	0.962021	-1.024708	-0.336029
C36	C	0.999528	-0.981551	-0.376743
C37	C	1.049429	-1.033921	-0.430880
C38	C	1.061818	-1.129447	-0.444305
C39	C	1.086933	-0.990773	-0.471600
C40	C	1.136834	-1.043143	-0.525737
C41	C	1.149221	-1.138660	-0.539159
C42	C	1.111714	-1.181817	-0.498444
C43	C	1.074544	-0.895246	-0.458175
C44	C	1.161948	-0.904468	-0.553032
C45	C	1.174340	-0.999985	-0.566451
C46	C	1.252769	-0.522795	-0.460057
C47	C	1.331423	-0.527051	-0.463797
C48	C	1.062047	-0.521934	-0.635841
C49	C	1.059427	-0.525824	-0.714490
C50	C	1.037423	-0.274253	-0.417838
C51	C	1.024309	-0.172595	-0.403587
C52	C	1.095904	-0.471612	-0.745394
C53	C	1.093433	-0.475263	-0.819292
C54	C	1.054488	-0.533130	-0.862286
C55	C	1.018007	-0.587344	-0.831378
C56	C	1.020474	-0.583688	-0.757480
C57	C	1.043062	-0.550069	-1.083945
C58	C	1.040599	-0.553723	-1.157848
C59	C	1.116024	-0.441640	-1.145756
C60	C	1.118491	-0.437993	-1.071858
C61	C	1.082007	-0.492203	-1.040956
N62	N	1.051964	-0.536865	-0.937823
N63	N	1.084528	-0.488463	-0.965420
C64	C	1.074352	-0.503651	-0.267429
C65	C	1.077076	-0.499512	-0.188751
H66	H	0.809830	-0.608599	-0.535364
C67	C	0.934197	-0.839703	-0.305871
C68	C	0.985914	-0.876556	-0.361988
H69	H	0.925797	-0.774881	-0.296757
H70	H	0.890931	-0.859486	-0.318949
H71	H	0.950798	-0.859738	-0.263844
H72	H	0.969310	-0.856526	-0.404016
H73	H	1.029189	-0.856764	-0.348913
H74	H	1.127619	-0.424493	-0.710393
H75	H	1.121803	-1.259595	-0.509365
C76	C	0.830207	-0.316759	-0.360674
C77	C	0.796615	-0.371145	-0.326904
H78	H	0.851157	-0.276833	-0.325623
H79	H	0.866402	-0.354734	-0.394007
H80	H	0.795839	-0.281813	-0.385284
H81	H	0.830984	-0.406095	-0.302298
H82	H	0.760416	-0.333165	-0.293559
C83	C	1.107175	-0.323385	-0.821956
C84	C	1.133533	-0.415668	-0.853253
H85	H	1.131937	-0.286593	-0.842918
H86	H	1.057506	-0.308029	-0.829933
H87	H	1.114219	-0.312949	-0.771793
H88	H	1.126485	-0.426106	-0.903416
H89	H	1.183214	-0.431031	-0.845282
C90	C	1.107209	-0.323254	-1.212075
C91	C	1.156118	-0.382045	-1.179723
H92	H	1.131962	-0.286455	-1.233040
H93	H	1.083672	-0.358242	-1.248255
H94	H	1.072829	-0.285182	-1.176867
H95	H	1.190496	-0.420122	-1.214932
H96	H	1.179667	-0.347053	-1.143539
H97	H	0.921392	-0.982072	-0.291951
C98	C	1.234385	-1.138179	-0.631562
C99	C	1.204075	-1.196226	-0.598663
H100	H	1.268254	-1.173719	-0.668292
H101	H	1.197806	-1.100620	-0.651910
H102	H	1.257662	-1.100842	-0.596793
H103	H	1.180793	-1.233559	-0.633431
H104	H	1.240660	-1.233802	-0.578315
C105	C	0.952286	-0.553497	-0.998095
C106	C	1.002963	-0.609654	-1.049975
H107	H	0.927528	-0.590284	-0.977123
H108	H	0.975835	-0.518516	-0.961922
H109	H	0.919119	-0.513617	-1.020060
H110	H	1.036133	-0.649530	-1.028008
H111	H	0.979413	-0.644651	-1.086154
H112	H	1.008884	-0.600848	-1.192853
C113	C	0.529965	-0.615928	-0.623342
C114	C	0.495629	-0.662886	-0.583053
H115	H	0.559158	-0.658551	-0.660764
H116	H	0.495099	-0.575927	-0.643508
H117	H	0.558935	-0.581472	-0.593077
H118	H	0.466655	-0.697337	-0.613317
H119	H	0.530500	-0.702904	-0.562886
C120	C	1.181774	-0.762138	-0.574570
C121	C	1.203182	-0.857039	-0.597789
H122	H	1.207231	-0.732856	-0.602198
H123	H	1.131859	-0.744478	-0.580437
H124	H	1.191726	-0.744720	-0.525331
H125	H	1.193225	-0.874458	-0.647027
H126	H	1.253109	-0.874707	-0.591929
H127	H	0.986295	-0.634458	-0.866390
C128	C	0.945696	-0.694870	-0.776854
C129	C	0.980392	-0.643296	-0.723512
H130	H	0.920955	-0.731675	-0.755884
H131	H	0.912519	-0.654987	-0.798797
H132	H	0.980087	-0.732937	-0.812054
H133	H	0.946000	-0.605223	-0.688314
H134	H	1.013572	-0.683184	-0.701558
C135	C	1.133721	-0.283852	-1.029068
C136	C	1.161291	-0.374360	-1.024613
H137	H	1.160142	-0.244565	-0.999901
H138	H	1.137469	-0.278294	-1.077502
H139	H	1.084854	-0.267313	-1.012811
H140	H	1.210157	-0.390902	-1.040875
H141	H	1.157550	-0.379922	-0.976169
C142	C	0.720330	-0.674119	-0.592861
C143	C	0.666962	-0.618137	-0.543731
H144	H	0.699376	-0.714055	-0.627899
H145	H	0.743115	-0.637228	-0.615769
H146	H	0.754688	-0.709054	-0.568233
H147	H	0.632607	-0.583197	-0.568358
H148	H	0.644166	-0.655033	-0.520820
C149	C	0.266548	-0.637764	-0.561006
C150	C	0.340499	-0.654525	-0.575715
H151	H	0.245593	-0.677679	-0.596061
H152	H	0.257730	-0.648055	-0.514745
H153	H	0.246168	-0.576193	-0.562249
H154	H	0.360880	-0.716094	-0.574466
H155	H	0.349322	-0.644241	-0.621988
H156	H	1.214970	-1.042638	-0.610531
C157	C	0.954606	-1.262565	-0.327915
C158	C	0.933192	-1.167665	-0.304698
H159	H	0.929157	-1.291850	-0.300282
H160	H	0.944654	-1.279986	-0.377147
H161	H	1.004528	-1.280220	-0.322050
H162	H	0.883270	-1.150009	-0.310569
H163	H	0.943138	-1.150237	-0.255454
H164	H	0.461343	-0.424306	-0.373588
C165	C	0.357721	-0.348374	-0.306946
C166	C	0.315013	-0.399176	-0.351537
H167	H	0.328524	-0.305746	-0.269531
H168	H	0.392580	-0.388375	-0.286772
H169	H	0.381014	-0.316535	-0.334296
H170	H	0.291724	-0.431021	-0.324189
H171	H	0.280141	-0.359170	-0.371713
H172	H	0.653735	-0.380676	-0.335284
H173	H	1.033914	-0.852615	-0.414097
