data_functionalizedCrystal
_audit_creation_method	'MofGen! by Chris Wilmer'
_symmetry_space_group_name_H-M	'P1'
_symmetry_Int_Tables_number	1
_symmetry_cell_setting	triclinic
loop_
_symmetry_equiv_pos_as_xyz
  x,y,z
_cell_length_a	14.971486
_cell_length_b	14.971506
_cell_length_c	14.048226
_cell_angle_alpha	89.993237
_cell_angle_beta	90.000920
_cell_angle_gamma	96.381742
loop_
_atom_site_label
_atom_site_type_symbol
_atom_site_fract_x
_atom_site_fract_y
_atom_site_fract_z
O1	O	-0.116651	1.186936	-0.079155
O2	O	-0.130591	0.926538	-0.079154
O3	O	0.006579	1.063716	-0.079162
O4	O	-0.253820	1.049758	-0.079148
O5	O	0.006587	1.063700	0.079159
O6	O	-0.130582	0.926522	0.079167
O7	O	-0.116643	1.186919	0.079166
Zn8	Zn	-0.123611	1.056718	0.104303
Zn9	Zn	-0.123622	1.056740	-0.104292
O10	O	-0.253812	1.049741	0.079174
C11	C	-0.129960	0.893205	0.000006
C12	C	-0.128082	0.793909	0.000006
C13	C	-0.201500	0.355627	0.000000
C14	C	-0.203258	0.448927	-0.000004
C15	C	-0.122665	0.506147	-0.000004
C16	C	-0.040310	0.470062	-0.000010
C17	C	-0.038553	0.376764	-0.000013
C18	C	-0.043977	0.664525	-0.000002
C19	C	-0.045733	0.757831	0.000003
C20	C	-0.208681	0.736689	0.000007
C21	C	-0.206924	0.643390	0.000004
C22	C	-0.124569	0.607312	0.000000
C23	C	-0.287141	1.050374	0.000015
C24	C	-0.386438	1.052244	0.000020
C25	C	-0.443658	0.971656	0.000019
C26	C	-0.536957	0.973419	0.000006
C27	C	-0.573035	1.055771	0.000001
C28	C	-0.515809	1.136366	-0.000001
C29	C	-0.422511	1.134602	0.000005
C30	C	-0.710271	1.140037	-0.000012
C31	C	-0.803576	1.141802	-0.000016
C32	C	-0.824718	0.978854	-0.000010
C33	C	-0.731420	0.977090	-0.000004
C34	C	-0.674200	1.057685	-0.000004
C35	C	0.039908	1.063084	-0.000005
C36	C	0.139205	1.061213	-0.000017
C37	C	-0.117273	1.220252	0.000003
C38	C	-0.119151	1.319548	-0.000003
N39	N	-0.123603	1.056710	0.246664
N40	N	-0.123623	1.056755	-0.246652
C41	C	-0.062890	1.117471	0.296479
C42	C	-0.062889	1.117477	0.396136
C43	C	-0.123607	1.056725	0.445978
C44	C	-0.184324	0.995957	0.396156
C45	C	-0.184319	0.995947	0.296500
C46	C	-0.184330	0.995983	0.603870
C47	C	-0.184336	0.995993	0.703533
C48	C	-0.062900	1.117513	0.703507
C49	C	-0.062896	1.117503	0.603851
C50	C	-0.123614	1.056736	0.554036
H51	H	-0.414291	0.904595	0.000035
H52	H	-0.267128	0.309044	0.000008
C53	C	-0.251107	0.929110	0.241701
C54	C	-0.317928	0.862315	0.296521
C55	C	-0.384715	0.795472	0.241723
C56	C	-0.384681	0.795424	0.132106
C57	C	-0.317858	0.862222	0.077280
C58	C	-0.251071	0.929065	0.132077
H59	H	-0.317955	0.862348	0.377672
H60	H	-0.434182	0.746023	0.282310
H61	H	-0.434121	0.745943	0.091541
H62	H	-0.317831	0.862189	-0.003871
H63	H	-0.201605	0.978513	0.091491
C64	C	-0.293847	0.488605	0.000009
C65	C	-0.360806	0.467041	0.082231
C66	C	-0.451403	0.506713	0.082245
C67	C	-0.475040	0.567950	0.000037
C68	C	-0.408080	0.589518	-0.082192
C69	C	-0.317483	0.549845	-0.082205
H70	H	-0.343310	0.421707	0.143092
H71	H	-0.500971	0.490748	0.143116
H72	H	-0.542105	0.597319	0.000047
H73	H	-0.425576	0.634852	-0.143053
H74	H	-0.267915	0.565811	-0.143077
H75	H	-0.013459	1.166976	0.563270
C76	C	-0.647325	1.228691	-0.000008
C77	C	-0.651433	1.296134	0.082207
C78	C	-0.588486	1.384784	0.082217
C79	C	-0.521432	1.405991	0.000011
C80	C	-0.517322	1.338546	-0.082211
C81	C	-0.580269	1.249896	-0.082221
H82	H	-0.701073	1.280437	0.143066
H83	H	-0.591529	1.434711	0.143083
H84	H	-0.474835	1.471615	0.000018
H85	H	-0.467682	1.354243	-0.143070
H86	H	-0.577226	1.199969	-0.143087
H87	H	-0.272550	0.596803	0.000011
H88	H	-0.275738	0.766067	0.000011
C89	C	0.046613	0.624836	-0.000003
C90	C	0.070222	0.563588	0.082208
C91	C	0.160808	0.523897	0.082213
C92	C	0.227786	0.545452	0.000005
C93	C	0.204179	0.606703	-0.082212
C94	C	0.113592	0.646394	-0.082216
H95	H	0.020639	0.547629	0.143068
H96	H	0.178283	0.478555	0.143076
H97	H	0.294843	0.516070	0.000009
H98	H	0.253761	0.622662	-0.143072
H99	H	0.096118	0.691736	-0.143080
C100	C	-0.599895	0.884767	0.000017
C101	C	-0.595780	0.817307	-0.082182
C102	C	-0.658716	0.728650	-0.082170
C103	C	-0.725767	0.707453	0.000041
C104	C	-0.729884	0.774915	0.082246
C105	C	-0.666948	0.863572	0.082234
H106	H	-0.546143	0.832997	-0.143045
H107	H	-0.655667	0.678711	-0.143023
H108	H	-0.772356	0.641824	0.000050
H109	H	-0.779522	0.759225	0.143109
H110	H	-0.669997	0.913511	0.143087
C111	C	0.003903	1.184301	0.241659
C112	C	0.070690	1.251133	0.296460
C113	C	0.137487	1.317962	0.241643
C114	C	0.137497	1.317960	0.132025
C115	C	0.070707	1.251125	0.077218
C116	C	0.003910	1.184295	0.132035
H117	H	0.070685	1.251137	0.377611
H118	H	0.186929	1.367438	0.282215
H119	H	0.186944	1.367431	0.091447
H120	H	0.070712	1.251121	-0.003933
H121	H	-0.045532	1.134820	0.091463
C122	C	0.003893	1.184354	0.758301
C123	C	0.072363	1.149345	0.826821
C124	C	0.139149	1.216186	0.881622
C125	C	0.137466	1.318036	0.867902
C126	C	0.068994	1.353049	0.799379
C127	C	0.002207	1.286208	0.744578
H128	H	0.073611	1.073946	0.836980
H129	H	0.189837	1.190267	0.932348
H130	H	0.186905	1.367516	0.908469
H131	H	0.067745	1.428449	0.789220
H132	H	-0.048480	1.312128	0.693853
C133	C	-0.251122	0.929159	0.758355
C134	C	-0.249429	0.827308	0.744682
C135	C	-0.316216	0.760471	0.799502
C136	C	-0.384695	0.795485	0.867996
C137	C	-0.386390	0.897341	0.881673
C138	C	-0.319604	0.964178	0.826852
H139	H	-0.198735	0.801384	0.693976
H140	H	-0.314961	0.685071	0.789377
H141	H	-0.434135	0.746009	0.908577
H142	H	-0.437085	0.923265	0.932379
H143	H	-0.320859	1.039578	0.836977
H144	H	0.019892	0.804417	-0.000005
H145	H	0.025310	0.516658	-0.000015
H146	H	0.028503	0.347391	-0.000017
H147	H	-0.702048	0.910031	0.000005
H148	H	-0.233770	0.946497	0.563314
H149	H	-0.871311	0.913231	-0.000006
H150	H	-0.832947	1.208860	-0.000022
H151	H	-0.233759	0.946487	0.436742
H152	H	-0.545191	1.203419	-0.000004
H153	H	-0.375923	1.200226	0.000001
H154	H	-0.013451	1.166953	0.436695
