data_functionalizedCrystal
_audit_creation_method	'MofGen! by Chris Wilmer'
_symmetry_space_group_name_H-M	'P1'
_symmetry_Int_Tables_number	1
_symmetry_cell_setting	triclinic
loop_
_symmetry_equiv_pos_as_xyz
  x,y,z
_cell_length_a	10.540495
_cell_length_b	17.766277
_cell_length_c	19.288865
_cell_angle_alpha	90.011603
_cell_angle_beta	83.821877
_cell_angle_gamma	90.010934
loop_
_atom_site_label
_atom_site_type_symbol
_atom_site_fract_x
_atom_site_fract_y
_atom_site_fract_z
O1	O	-1.683750	-0.062632	-0.097738
O2	O	-1.314124	-0.062628	-0.106993
O3	O	-1.509617	-0.062615	-0.001305
O4	O	-1.488257	-0.062645	-0.203425
O5	O	-1.509583	0.062573	-0.001300
O6	O	-1.314090	0.062560	-0.106987
O7	O	-1.683716	0.062556	-0.097733
Cu8	Cu	-1.498900	0.073989	-0.102359
Cu9	Cu	-1.498940	-0.074061	-0.102366
O10	O	-1.488222	0.062544	-0.203420
C11	C	-1.266818	-0.000033	-0.106302
C12	C	-1.125913	-0.000031	-0.104245
C13	C	-1.508913	-0.000019	0.024578
C14	C	-1.506850	-0.000012	0.101696
C15	C	-1.053522	-0.000043	-0.179829
C16	C	-0.906955	-0.000329	-0.177714
C17	C	-0.934509	-0.071377	-0.063151
C18	C	-1.080991	-0.071435	-0.065801
C19	C	-1.081380	0.070933	-0.064676
C20	C	-0.934415	0.071868	-0.063952
C21	C	-0.731019	-0.000037	-0.098432
C22	C	-0.871918	-0.000036	-0.100517
N23	N	-1.498969	-0.178191	-0.102366
N24	N	-1.498880	0.178119	-0.102354
C25	C	-1.585473	0.217512	-0.055579
C26	C	-1.585480	0.296314	-0.055576
C27	C	-1.498907	0.335720	-0.102360
C28	C	-1.412298	0.296318	-0.149138
C29	C	-1.412285	0.217518	-0.149135
C30	C	-1.481914	0.460549	-0.165536
C31	C	-1.481936	0.539348	-0.165539
C32	C	-1.498941	0.578766	-0.102368
C33	C	-1.515951	0.539376	-0.039191
C34	C	-1.515937	0.460576	-0.039188
C35	C	-1.498911	0.421166	-0.102368
C36	C	-1.585546	0.703605	-0.055586
C37	C	-1.585545	0.782408	-0.055582
C38	C	-1.412369	0.782411	-0.149150
C39	C	-1.412364	0.703609	-0.149148
C40	C	-1.498960	0.664211	-0.102367
C41	C	-1.488927	-0.000055	-0.229304
C42	C	-1.490990	-0.000066	-0.306421
C43	C	-1.621557	-0.000010	0.145636
C44	C	-1.619618	-0.000022	0.218096
C45	C	-1.502966	-0.000021	0.246612
C46	C	-1.388245	-0.000028	0.202661
C47	C	-1.390186	-0.000023	0.130203
C48	C	-1.411253	0.043831	0.355505
C49	C	-1.409316	0.043831	0.427963
C50	C	-1.496973	-0.000038	0.470097
C51	C	-1.586589	-0.043897	0.439767
C52	C	-1.588530	-0.043893	0.367309
C53	C	-1.500848	-0.000026	0.325180
C54	C	-1.609586	-0.000049	0.592608
C55	C	-1.607643	-0.000066	0.665069
C56	C	-1.376266	-0.000064	0.649632
C57	C	-1.378212	-0.000055	0.577173
C58	C	-1.494876	-0.000044	0.548665
H59	H	-0.863622	0.050799	-0.207104
N60	N	-1.318981	0.824901	-0.199606
H61	H	-1.332125	0.880799	-0.192510
H62	H	-1.333352	0.811113	-0.248957
N63	N	-1.145632	0.071873	0.009168
H64	H	-1.078727	0.070330	0.042897
H65	H	-1.203316	0.026575	0.016923
H66	H	-1.281286	-0.000067	0.672849
H67	H	-0.864585	-0.051778	-0.206983
N68	N	-1.318967	0.661115	-0.199598
H69	H	-1.264121	0.698034	-0.229236
H70	H	-1.367370	0.628401	-0.230557
H71	H	-1.713029	-0.000023	0.253880
H72	H	-1.130235	-0.074474	-0.010280
H73	H	-1.108622	-0.124975	-0.093094
N74	N	-1.463579	0.581828	-0.233677
H75	H	-1.540648	0.614506	-0.238210
H76	H	-1.452750	0.544852	-0.273652
N77	N	-0.879304	0.141771	-0.100146
H78	H	-0.784095	0.143209	-0.097714
H79	H	-0.919949	0.187803	-0.076393
N80	N	-1.685175	-0.091195	0.334593
H81	H	-1.740416	-0.118988	0.372275
H82	H	-1.639278	-0.128654	0.301406
H83	H	-1.336340	0.079540	0.452651
H84	H	-1.284805	-0.000053	0.541395
N85	N	-1.681147	-0.091215	0.485201
H86	H	-1.666319	-0.084567	0.535705
H87	H	-1.669635	-0.145920	0.471728
N88	N	-1.463574	0.418039	-0.233676
H89	H	-1.533971	0.431733	-0.262996
H90	H	-1.466112	0.362157	-0.224029
N91	N	-1.678861	0.175021	-0.005119
H92	H	-1.665718	0.119123	-0.012214
H93	H	-1.768856	0.188779	-0.013616
H94	H	-0.913459	-0.073820	-0.006451
N95	N	-1.747390	-0.000013	0.114898
H96	H	-1.753366	-0.046422	0.085172
H97	H	-1.753278	0.046424	0.085223
H98	H	-1.529784	0.428508	0.012253
H99	H	-0.911483	0.076397	-0.007682
H100	H	-1.655996	0.328393	-0.017485
H101	H	-1.704580	-0.000044	0.569396
H102	H	-1.293266	-0.000029	0.225884
H103	H	-1.341807	0.328406	-0.187229
H104	H	-1.341770	0.185443	-0.187226
H105	H	-1.112299	0.125023	-0.089832
H106	H	-1.701055	-0.000068	0.700845
H107	H	-1.339868	0.079558	0.321205
N108	N	-1.266468	-0.000021	0.082799
H109	H	-1.215565	-0.046429	0.092020
H110	H	-1.215641	0.046417	0.092067
N111	N	-1.090407	0.067704	-0.220448
H112	H	-1.067762	0.115191	-0.195741
H113	H	-1.185283	0.066636	-0.224018
N114	N	-1.092672	-0.067719	-0.219856
H115	H	-1.187634	-0.065963	-0.223074
H116	H	-1.070801	-0.115203	-0.194934
N117	N	-0.877386	-0.141985	-0.097099
H118	H	-0.810979	-0.127924	-0.136675
H119	H	-0.946837	-0.172688	-0.115792
H120	H	-1.529797	0.571469	0.012249
N121	N	-1.678914	0.661091	-0.005129
H122	H	-1.768961	0.674781	-0.013589
H123	H	-1.664467	0.674829	0.044222
H124	H	-1.656055	0.814482	-0.017489
