data_functionalizedCrystal
_audit_creation_method	'MofGen! by Chris Wilmer'
_symmetry_space_group_name_H-M	'P1'
_symmetry_Int_Tables_number	1
_symmetry_cell_setting	triclinic
loop_
_symmetry_equiv_pos_as_xyz
  x,y,z
_cell_length_a	10.723022
_cell_length_b	15.186229
_cell_length_c	16.109302
_cell_angle_alpha	89.994701
_cell_angle_beta	83.964504
_cell_angle_gamma	89.997422
loop_
_atom_site_label
_atom_site_type_symbol
_atom_site_fract_x
_atom_site_fract_y
_atom_site_fract_z
O1	O	0.160395	-0.073266	1.104073
O2	O	0.660395	0.426734	1.604073
O3	O	0.180355	-0.073259	0.862129
O4	O	0.680355	0.426741	1.362129
O5	O	-0.011275	-0.073259	0.988683
O6	O	0.488725	0.426741	1.488683
O7	O	0.352025	-0.073265	0.977520
O8	O	0.852025	0.426735	1.477520
O9	O	-0.011278	0.073198	0.988674
O10	O	0.488722	0.573198	1.488674
O11	O	0.180352	0.073199	0.862120
O12	O	0.680352	0.573199	1.362120
O13	O	0.160392	0.073191	1.104065
O14	O	0.660392	0.573191	1.604065
Zn15	Zn	0.170372	0.096448	0.983091
Zn16	Zn	0.670372	0.596448	1.483091
Zn17	Zn	0.170375	-0.096516	0.983103
Zn18	Zn	0.670375	0.403484	1.483103
O19	O	0.352022	0.073192	0.977511
O20	O	0.852022	0.573192	1.477511
C21	C	0.179545	-0.000029	0.831145
C22	C	0.679545	0.499971	1.331145
C23	C	0.177120	-0.000026	0.738835
C24	C	0.677120	0.499974	1.238835
C25	C	-0.057766	-0.000032	0.987866
C26	C	0.442234	0.499968	1.487866
C27	C	-0.196288	-0.000035	0.985437
C28	C	0.303712	0.499965	1.485437
N29	N	0.170368	0.228141	0.983090
N30	N	0.670368	0.728141	1.483090
C31	C	-0.243882	-0.000034	0.912457
C32	C	0.256118	0.499966	1.412457
C33	C	-0.387051	-0.000037	0.909945
C34	C	0.112949	0.499963	1.409945
C35	C	0.398513	-0.000038	0.978327
C36	C	0.898513	0.499962	1.478327
C37	C	0.537035	-0.000040	0.980757
C38	C	1.037035	0.499960	1.480757
N39	N	0.170369	-0.228208	0.983111
N40	N	0.670369	0.271792	1.483111
C41	C	0.085543	0.453864	1.039147
C42	C	0.585543	0.953864	1.539147
C43	C	0.085540	0.546053	1.039150
C44	C	0.585540	1.046053	1.539150
C45	C	0.255198	0.546063	0.927047
C46	C	0.755198	1.046063	1.427047
C47	C	0.255194	0.453875	0.927041
C48	C	0.755194	0.953875	1.427041
C49	C	0.170368	0.407778	0.983096
C50	C	0.670368	0.907778	1.483096
C51	C	0.170369	0.592155	0.983104
C52	C	0.670369	1.092155	1.483104
C53	C	0.170367	0.692111	0.983107
C54	C	0.670367	1.192111	1.483107
C55	C	0.170369	0.307815	0.983093
C56	C	0.670369	0.807815	1.483093
C57	C	0.171513	0.079799	0.526457
C58	C	0.671513	0.579799	1.026457
C59	C	0.169221	0.079796	0.439723
C60	C	0.669221	0.579796	0.939723
C61	C	0.169231	-0.079880	0.439743
C62	C	0.669231	0.420120	0.939743
C63	C	0.171513	-0.079876	0.526476
C64	C	0.671513	0.420124	1.026476
C65	C	0.172660	-0.000034	0.569830
C66	C	0.672660	0.499966	1.069830
C67	C	0.168087	-0.000041	0.396364
C68	C	0.668087	0.499959	0.896364
C69	C	0.165602	-0.000045	0.302323
C70	C	0.665602	0.499955	0.802323
C71	C	0.175143	-0.000030	0.663877
C72	C	0.675143	0.499970	1.163877
C73	C	0.161202	-0.000040	1.135049
C74	C	0.661202	0.499960	1.635049
C75	C	0.163627	-0.000049	1.227358
C76	C	0.663627	0.499951	1.727358
H77	H	-0.178636	-0.000027	0.851838
H78	H	0.321364	0.499973	1.351838
Br79	Br	0.167662	0.188145	0.380863
Br80	Br	0.667662	0.688145	0.880863
Br81	Br	0.173055	-0.188229	0.585346
Br82	Br	0.673055	0.311771	1.085346
H83	H	0.016471	0.416333	1.084789
H84	H	0.516471	0.916333	1.584789
H85	H	-0.421990	-0.000074	1.043245
H86	H	0.078010	0.499926	1.543245
Br87	Br	-0.455350	-0.000047	0.805793
Br88	Br	0.044650	0.499953	1.305793
Br89	Br	0.167636	-0.188232	0.380904
Br90	Br	0.667636	0.311768	0.880904
H91	H	0.172447	0.144811	0.561753
H92	H	0.672447	0.644811	1.061753
H93	H	-0.261533	-0.000034	1.046056
H94	H	0.238467	0.499966	1.546056
H95	H	0.324263	0.583604	0.881410
H96	H	0.824263	1.083604	1.381410
H97	H	0.016467	0.583574	1.084791
H98	H	0.516467	1.083574	1.584791
Br99	Br	0.370311	0.391322	0.850960
Br100	Br	0.870311	0.891322	1.350960
