data_functionalizedCrystal
_audit_creation_method	'MofGen! by Chris Wilmer'
_symmetry_space_group_name_H-M	'P1'
_symmetry_Int_Tables_number	1
_symmetry_cell_setting	triclinic
loop_
_symmetry_equiv_pos_as_xyz
  x,y,z
_cell_length_a	12.811457
_cell_length_b	14.853559
_cell_length_c	11.295483
_cell_angle_alpha	94.102887
_cell_angle_beta	91.289320
_cell_angle_gamma	83.838256
loop_
_atom_site_label
_atom_site_type_symbol
_atom_site_fract_x
_atom_site_fract_y
_atom_site_fract_z
O1	O	1.389194	0.124535	0.051004
O2	O	1.085967	0.135742	0.018256
O3	O	1.245685	-0.001017	0.035506
O4	O	1.229476	0.261293	0.033754
O5	O	1.231656	0.010976	0.232042
O6	O	1.071939	0.147735	0.214792
O7	O	1.375166	0.136528	0.247540
Cu8	Cu	1.222271	0.143226	0.249111
Cu9	Cu	1.238862	0.129043	0.016685
O10	O	1.215448	0.273286	0.230289
C11	C	1.040147	0.140743	0.112333
C12	C	0.924518	0.137766	0.099845
C13	C	0.691944	0.145231	0.290666
C14	C	0.583300	0.142433	0.278938
C15	C	0.598584	0.129368	0.064663
C16	C	0.707228	0.132165	0.076391
C17	C	0.753904	0.140098	0.189396
C18	C	0.862550	0.142902	0.201122
C19	C	0.877833	0.129829	-0.013152
C20	C	0.769189	0.127032	-0.024879
C21	C	1.237938	-0.028616	0.133693
C22	C	1.235742	-0.128721	0.133449
C23	C	1.234073	-0.558520	0.025311
C24	C	1.218779	-0.545439	0.239582
C25	C	1.220851	-0.451387	0.239807
C26	C	1.229532	-0.410896	0.132782
C27	C	1.236142	-0.464458	0.025532
C28	C	1.214230	-0.397816	0.347053
C29	C	1.216301	-0.303758	0.347282
C30	C	1.224990	-0.263266	0.240257
C31	C	1.231601	-0.316835	0.133003
C32	C	1.240283	-0.276344	0.025978
C33	C	1.246902	-0.329912	-0.081276
C34	C	1.244832	-0.423967	-0.081493
C35	C	1.227061	-0.169211	0.240474
C36	C	1.242352	-0.182283	0.026200
C37	C	1.420986	0.131527	0.153460
C38	C	1.536616	0.134503	0.165941
C39	C	1.223195	0.300885	0.132100
C40	C	1.225391	0.400990	0.132336
N41	N	1.210610	0.153202	0.412588
N42	N	1.250531	0.119061	-0.146791
C43	C	1.334473	0.047203	0.675255
C44	C	1.325668	0.054748	0.798968
C45	C	1.184191	0.175831	0.783728
C46	C	1.192996	0.168286	0.660015
C47	C	1.268141	0.103971	0.605783
C48	C	1.276950	0.096432	0.482069
C49	C	1.135468	0.217509	0.466830
C50	C	1.126664	0.225054	0.590543
H51	H	1.253963	-0.296931	-0.168416
H52	H	1.123003	0.228189	0.827898
H53	H	1.338139	0.044065	0.437915
H54	H	0.900550	0.149366	0.293137
H55	H	1.379682	0.008521	0.855529
H56	H	0.928292	0.125655	-0.095613
H57	H	0.729946	0.151702	0.382679
O58	O	1.210160	-0.584711	0.343547
C59	C	1.115895	-0.548458	0.399068
H60	H	1.057934	-0.519934	0.329648
H61	H	1.132711	-0.491890	0.468207
C62	C	1.139690	-0.658836	0.545360
C63	C	1.068499	-0.623809	0.460095
H64	H	1.110456	-0.705314	0.583009
H65	H	1.203201	-0.683259	0.507958
H66	H	1.153698	-0.611688	0.602964
H67	H	1.054503	-0.670954	0.402485
H68	H	1.004985	-0.599396	0.497489
H69	H	0.731171	0.120569	-0.116885
H70	H	1.249427	-0.149324	-0.060954
O71	O	0.553156	0.121819	-0.045075
C72	C	0.479055	0.197704	-0.059506
H73	H	0.499296	0.256712	0.003938
H74	H	0.397311	0.179721	-0.039308
C75	C	0.456334	0.152705	-0.266179
C76	C	0.481199	0.225182	-0.188263
H77	H	0.457651	0.169653	-0.345603
H78	H	0.506253	0.101577	-0.256457
H79	H	0.388215	0.137726	-0.249333
H80	H	0.549322	0.240152	-0.205100
H81	H	0.431291	0.276313	-0.197992
H82	H	1.395666	-0.005158	0.631100
H83	H	0.532855	0.146618	0.361403
H84	H	1.207156	-0.430790	0.434186
H85	H	1.081459	0.263736	0.410252
O86	O	1.209921	-0.251866	0.451575
C87	C	1.201788	-0.307772	0.545985
H88	H	1.235493	-0.380129	0.517971
H89	H	1.115723	-0.307160	0.569894
C90	C	1.222240	-0.183052	0.689063
C91	C	1.263645	-0.271921	0.654660
H92	H	1.260391	-0.160936	0.756101
H93	H	1.227714	-0.145385	0.625458
H94	H	1.150520	-0.182554	0.708980
H95	H	1.335359	-0.272416	0.634730
H96	H	1.258183	-0.309587	0.718264
O97	O	1.251404	-0.475962	-0.185698
C98	C	1.346667	-0.466233	-0.241148
H99	H	1.405803	-0.443074	-0.171622
H100	H	1.332247	-0.413594	-0.309993
C101	C	1.317693	-0.586440	-0.388032
C102	C	1.390327	-0.558004	-0.302638
H103	H	1.344623	-0.643047	-0.425967
H104	H	1.253510	-0.592993	-0.350678
H105	H	1.305682	-0.542567	-0.445391
H106	H	1.402326	-0.601871	-0.245273
H107	H	1.454513	-0.551460	-0.339984
O108	O	1.220445	-0.117113	0.344591
C109	C	1.131064	-0.053022	0.341362
H110	H	1.071787	-0.078597	0.273691
H111	H	1.155070	0.014403	0.314939
C112	C	1.153880	-0.008132	0.548054
C113	C	1.081071	-0.039548	0.464947
H114	H	1.123044	0.000183	0.624287
H115	H	1.214100	-0.051309	0.550229
H116	H	1.173879	0.048052	0.526020
H117	H	1.061084	-0.095736	0.486973
H118	H	1.020847	0.003620	0.462778
O119	O	1.053622	0.287411	0.643357
C120	C	0.984186	0.242796	0.707960
H121	H	1.024246	0.173824	0.730945
H122	H	0.910592	0.232937	0.651987
C123	C	0.904435	0.385263	0.794857
C124	C	0.953641	0.300553	0.823097
H125	H	0.885589	0.420891	0.865877
H126	H	0.951212	0.415321	0.751330
H127	H	0.843113	0.377035	0.748211
H128	H	1.014968	0.308782	0.869729
H129	H	0.906873	0.270498	0.866634
H130	H	1.239466	-0.602139	-0.062012
