data_functionalizedCrystal
_audit_creation_method	'MofGen! by Chris Wilmer'
_symmetry_space_group_name_H-M	'P1'
_symmetry_Int_Tables_number	1
_symmetry_cell_setting	triclinic
loop_
_symmetry_equiv_pos_as_xyz
  x,y,z
_cell_length_a	18.101395
_cell_length_b	17.077404
_cell_length_c	17.077396
_cell_angle_alpha	90.021457
_cell_angle_beta	89.972533
_cell_angle_gamma	89.969792
loop_
_atom_site_label
_atom_site_type_symbol
_atom_site_fract_x
_atom_site_fract_y
_atom_site_fract_z
Zn1	Zn	-0.294847	-1.200010	-0.443889
Zn2	Zn	0.205153	-0.700010	0.056111
Zn3	Zn	-0.418696	-1.199898	-0.312625
Zn4	Zn	0.081304	-0.699898	0.187375
Zn5	Zn	-0.294871	-1.068742	-0.312633
Zn6	Zn	0.205129	-0.568742	0.187367
Zn7	Zn	-0.418650	-1.068691	-0.443845
Zn8	Zn	0.081350	-0.568691	0.056155
O9	O	-0.356766	-1.134335	-0.378248
O10	O	0.143234	-0.634335	0.121752
O11	O	-0.311286	-1.309842	-0.426492
O12	O	0.188714	-0.809842	0.073508
O13	O	-0.402300	-1.182474	-0.202779
O14	O	0.097700	-0.682474	0.297221
O15	O	-0.191235	-1.086223	-0.330066
O16	O	0.308765	-0.586223	0.169934
O17	O	-0.402277	-1.309760	-0.330054
O18	O	0.097723	-0.809760	0.169946
O19	O	-0.191218	-1.182665	-0.426499
O20	O	0.308782	-0.682665	0.073501
O21	O	-0.311326	-1.086114	-0.202785
O22	O	0.188674	-0.586114	0.297215
O23	O	-0.311281	-0.958888	-0.330023
O24	O	0.188719	-0.458888	0.169977
O25	O	-0.402198	-1.086136	-0.553697
O26	O	0.097802	-0.586136	-0.053697
O27	O	-0.402221	-0.958851	-0.426423
O28	O	0.097779	-0.458851	0.073577
O29	O	-0.311241	-1.182616	-0.553730
O30	O	0.188759	-0.682616	-0.053730
O31	O	-0.522323	-1.182425	-0.330010
O32	O	-0.022323	-0.682425	0.169990
O33	O	-0.522289	-1.086028	-0.426416
O34	O	-0.022289	-0.586028	0.073584
C35	C	-0.356749	-0.930387	-0.378219
C36	C	0.143251	-0.430387	0.121781
C37	C	-0.356759	-0.843137	-0.378226
C38	C	0.143241	-0.343137	0.121774
C39	C	-0.404182	-0.802148	-0.428340
C40	C	0.095818	-0.302148	0.071660
C41	C	-0.404182	-0.720168	-0.428350
C42	C	0.095818	-0.220168	0.071650
C43	C	-0.356763	-0.679178	-0.378241
C44	C	0.143237	-0.179178	0.121759
C45	C	-0.309334	-0.720173	-0.328124
C46	C	0.190666	-0.220173	0.171876
C47	C	-0.309331	-0.802152	-0.328119
C48	C	0.190669	-0.302152	0.171881
C49	C	-0.309346	-0.549303	-0.328138
C50	C	0.190654	-0.049303	0.171862
C51	C	-0.309350	-0.467318	-0.328141
C52	C	0.190650	0.032682	0.171859
C53	C	-0.404197	-0.467319	-0.428368
C54	C	0.095803	0.032681	0.071632
C55	C	-0.404194	-0.549298	-0.428363
C56	C	0.095806	-0.049298	0.071637
C57	C	-0.356766	-0.590287	-0.378245
C58	C	0.143234	-0.090287	0.121755
C59	C	-0.549177	-1.134230	-0.378225
C60	C	-0.049177	-0.634230	0.121775
C61	C	-0.631491	-1.134257	-0.378241
C62	C	-0.131491	-0.634257	0.121759
C63	C	-0.930581	-1.134429	-0.378284
C64	C	-0.430581	-0.634429	0.121716
C65	C	-0.899266	-1.073919	-0.439090
C66	C	-0.399266	-0.573919	0.060910
C67	C	-0.813648	-1.073632	-0.438900
C68	C	-0.313648	-0.573632	0.061100
C69	C	-0.782199	-1.134344	-0.378263
C70	C	-0.282199	-0.634344	0.121737
C71	C	-0.813350	-1.111947	-0.295533
C72	C	-0.313350	-0.611947	0.204467
C73	C	-0.898995	-1.111557	-0.295897
C74	C	-0.398995	-0.611557	0.204103
C75	C	-0.898926	-1.217469	-0.399479
C76	C	-0.398926	-0.717469	0.100521
C77	C	-0.813275	-1.216980	-0.401293
C78	C	-0.313275	-0.716980	0.098707
C79	C	-0.698340	-1.134297	-0.378247
C80	C	-0.198340	-0.634297	0.121753
C81	C	-1.014441	-1.134474	-0.378295
C82	C	-0.514441	-0.634474	0.121705
C83	C	-0.163604	-1.134462	-0.378288
C84	C	0.336396	-0.634462	0.121712
C85	C	-0.081290	-1.134516	-0.378306
C86	C	0.418710	-0.634516	0.121694
C87	C	-0.356711	-1.134383	-0.582992
C88	C	0.143289	-0.634383	-0.082992
C89	C	-0.356688	-1.134403	-0.670242
C90	C	0.143312	-0.634403	-0.170242
C91	C	-0.356779	-0.339079	-0.378269
C92	C	0.143221	0.160921	0.121731
C93	C	-0.356773	-0.426329	-0.378255
C94	C	0.143227	0.073671	0.121745
C95	C	-0.309323	-1.184642	-0.711251
C96	C	0.190677	-0.684642	-0.211251
C97	C	-0.309298	-1.184651	-0.793231
C98	C	0.190702	-0.684651	-0.293231
C99	C	-0.356643	-1.134425	-0.834202
C100	C	0.143357	-0.634425	-0.334202
C101	C	-0.404010	-1.084181	-0.793187
C102	C	0.095990	-0.584181	-0.293187
C103	C	-0.404031	-1.084168	-0.711208
C104	C	0.095969	-0.584168	-0.211208
C105	C	-0.403966	-1.084212	-0.964058
C106	C	0.096034	-0.584212	-0.464058
C107	C	-0.403947	-1.084226	-1.046042
C108	C	0.096053	-0.584226	-0.546042
C109	C	-0.309233	-1.184695	-1.046080
C110	C	0.190767	-0.684695	-0.546080
C111	C	-0.309254	-1.184683	-0.964101
C112	C	0.190746	-0.684683	-0.464101
C113	C	-0.356622	-1.134439	-0.923093
C114	C	0.143378	-0.634439	-0.423093
C115	C	-0.356767	-1.134333	-0.174300
C116	C	0.143233	-0.634333	0.325700
C117	C	-0.356581	-1.134465	-0.087051
C118	C	0.143419	-0.634465	0.412949
H119	H	-0.442800	-0.686798	-0.469157
H120	H	0.057200	-0.186798	0.030843
H121	H	-0.791864	-1.264448	-0.360233
H122	H	-0.291864	-0.764448	0.139767
O123	O	-0.786304	-1.239365	-0.481940
O124	O	-0.286304	-0.739365	0.018060
H125	H	-0.753817	-1.294378	-0.478211
H126	H	-0.253817	-0.794378	0.021789
H127	H	-0.270771	-1.225544	-0.677898
H128	H	0.229229	-0.725544	-0.177898
H129	H	-0.919813	-1.087793	-0.500632
H130	H	-0.419813	-0.587793	-0.000632
H131	H	-0.270705	-1.225585	-0.930745
H132	H	0.229295	-0.725585	-0.430745
O133	O	-0.258216	-1.238841	-0.837465
O134	O	0.241784	-0.738841	-0.337465
H135	H	-0.225306	-1.273772	-0.795203
H136	H	0.274694	-0.773772	-0.295203
H137	H	-0.270728	-0.433946	-0.287348
H138	H	0.229272	0.066054	0.212652
O139	O	-0.925915	-1.277231	-0.340948
O140	O	-0.425915	-0.777231	0.159052
H141	H	-0.961679	-1.247979	-0.296956
H142	H	-0.461679	-0.747979	0.203044
H143	H	-0.442811	-0.582670	-0.469161
H144	H	0.057189	-0.082670	0.030839
O145	O	-0.258200	-0.593517	-0.274077
O146	O	0.241800	-0.093517	0.225923
H147	H	-0.225234	-0.551244	-0.239225
H148	H	0.274766	-0.051244	0.260775
H149	H	-0.442799	-0.835516	-0.469142
H150	H	0.057201	-0.335516	0.030858
H151	H	-0.442812	-0.433942	-0.469178
H152	H	0.057188	0.066058	0.030822
O153	O	-0.258207	-0.675955	-0.274065
O154	O	0.241793	-0.175955	0.225935
H155	H	-0.220577	-0.638623	-0.309259
H156	H	0.279423	-0.138623	0.190741
H157	H	-0.270663	-1.225604	-1.079473
H158	H	0.229337	-0.725604	-0.579473
H159	H	-0.920851	-1.012743	-0.425227
H160	H	-0.420851	-0.512743	0.074773
O161	O	-0.258191	-0.846368	-0.274059
O162	O	0.241809	-0.346368	0.225941
H163	H	-0.225225	-0.804094	-0.239208
H164	H	0.274775	-0.304094	0.260792
H165	H	-0.793224	-1.012081	-0.424860
H166	H	-0.293224	-0.512081	0.075140
O167	O	-0.926449	-1.167388	-0.233830
O168	O	-0.426449	-0.667388	0.266170
H169	H	-0.878551	-1.194542	-0.203684
H170	H	-0.378551	-0.694542	0.296316
H171	H	-0.792584	-1.087644	-0.500244
H172	H	-0.292584	-0.587644	-0.000244
O173	O	-0.927456	-1.244520	-0.478031
O174	O	-0.427456	-0.744520	0.021969
H175	H	-0.964521	-1.199074	-0.502843
H176	H	-0.464521	-0.699074	-0.002843
O177	O	-0.455003	-1.030048	-1.090237
O178	O	0.044997	-0.530048	-0.590237
H179	H	-0.487935	-0.995099	-1.047951
H180	H	0.012065	-0.495099	-0.547951
O181	O	-0.455050	-1.030018	-0.919822
O182	O	0.044950	-0.530018	-0.419822
H183	H	-0.487973	-0.995098	-0.962082
H184	H	0.012027	-0.495098	-0.462082
O185	O	-0.925553	-1.031152	-0.272122
O186	O	-0.425553	-0.531152	0.227878
H187	H	-0.877225	-0.992912	-0.260477
H188	H	-0.377225	-0.492912	0.239523
O189	O	-0.455070	-1.030000	-0.837374
O190	O	0.044930	-0.530000	-0.337374
H191	H	-0.492749	-1.065111	-0.874719
H192	H	0.007251	-0.565111	-0.374719
O193	O	-0.455107	-1.029972	-0.666971
O194	O	0.044893	-0.529972	-0.166971
H195	H	-0.488027	-0.995049	-0.709232
H196	H	0.011973	-0.495049	-0.209232
H197	H	-0.792981	-1.154633	-0.248992
H198	H	-0.292981	-0.654633	0.251008
H199	H	-0.791965	-1.051888	-0.277257
H200	H	-0.291965	-0.551888	0.222743
