data_functionalizedCrystal
_audit_creation_method	'MofGen! by Chris Wilmer'
_symmetry_space_group_name_H-M	'P1'
_symmetry_Int_Tables_number	1
_symmetry_cell_setting	triclinic
loop_
_symmetry_equiv_pos_as_xyz
  x,y,z
_cell_length_a	18.215407
_cell_length_b	14.908178
_cell_length_c	18.215399
_cell_angle_alpha	86.674478
_cell_angle_beta	89.982632
_cell_angle_gamma	93.311467
loop_
_atom_site_label
_atom_site_type_symbol
_atom_site_fract_x
_atom_site_fract_y
_atom_site_fract_z
Zn1	Zn	1.108197	-0.359257	-0.399149
Zn2	Zn	1.608197	0.140743	0.100851
Zn3	Zn	1.101018	-0.510136	-0.268977
Zn4	Zn	1.601018	-0.010136	0.231023
Zn5	Zn	0.985128	-0.359278	-0.276101
Zn6	Zn	1.485128	0.140722	0.223899
Zn7	Zn	0.978011	-0.510078	-0.392010
Zn8	Zn	1.478011	-0.010078	0.107990
O9	O	1.043088	-0.434687	-0.334059
O10	O	1.543088	0.065313	0.165941
O11	O	1.210228	-0.379286	-0.381888
O12	O	1.710228	0.120714	0.118112
O13	O	1.085619	-0.490158	-0.166936
O14	O	1.585619	0.009842	0.333064
O15	O	1.007437	-0.233021	-0.298392
O16	O	1.507437	0.266979	0.201608
O17	O	1.204954	-0.490137	-0.286251
O18	O	1.704954	0.009863	0.213749
O19	O	1.097855	-0.233005	-0.388795
O20	O	1.597855	0.266995	0.111205
O21	O	1.000476	-0.379323	-0.172170
O22	O	1.500476	0.120677	0.327830
O23	O	0.881201	-0.379267	-0.291470
O24	O	1.381201	0.120733	0.208530
O25	O	0.995306	-0.490038	-0.495943
O26	O	1.495306	0.009962	0.004057
O27	O	0.875971	-0.490059	-0.376628
O28	O	1.375971	0.009941	0.123372
O29	O	1.090953	-0.379230	-0.501188
O30	O	1.590953	0.120770	-0.001188
O31	O	1.078718	-0.636383	-0.279329
O32	O	1.578718	-0.136383	0.220671
O33	O	0.988345	-0.636340	-0.369721
O34	O	1.488345	-0.136340	0.130279
C35	C	0.851883	-0.434660	-0.334048
C36	C	1.351883	0.065340	0.165952
C37	C	0.770084	-0.434670	-0.334059
C38	C	1.270084	0.065330	0.165941
C39	C	0.584630	-0.377068	-0.383926
C40	C	1.084630	0.122932	0.116074
C41	C	0.507771	-0.377076	-0.383928
C42	C	1.007771	0.122924	0.116072
C43	C	0.502298	-0.492332	-0.284204
C44	C	1.002298	0.007668	0.215796
C45	C	0.579156	-0.492319	-0.284199
C46	C	1.079156	0.007681	0.215801
C47	C	0.620320	-0.434688	-0.334064
C48	C	1.120320	0.065312	0.165936
C49	C	0.466603	-0.434709	-0.334071
C50	C	0.966603	0.065291	0.165929
C51	C	0.383269	-0.434718	-0.334073
C52	C	0.883269	0.065282	0.165927
C53	C	0.703659	-0.434678	-0.334062
C54	C	1.203659	0.065322	0.165938
C55	C	1.032000	-0.669098	-0.322994
C56	C	1.532000	-0.169098	0.177006
C57	C	1.027323	-0.769380	-0.318284
C58	C	1.527323	-0.269380	0.181716
C59	C	1.112617	-0.957653	-0.403672
C60	C	1.612617	-0.457653	0.096328
C61	C	1.108225	-1.051877	-0.399250
C62	C	1.608225	-0.551877	0.100750
C63	C	1.014146	-1.052052	-0.305021
C64	C	1.514146	-0.552052	0.194979
C65	C	1.018538	-0.957829	-0.309444
C66	C	1.518538	-0.457829	0.190556
C67	C	1.067775	-0.910632	-0.358770
C68	C	1.567775	-0.410632	0.141230
C69	C	1.072170	-0.816407	-0.363188
C70	C	1.572170	-0.316407	0.136812
C71	C	0.978087	-0.816584	-0.268964
C72	C	1.478087	-0.316584	0.231036
C73	C	0.973696	-0.910808	-0.264541
C74	C	1.473696	-0.410808	0.235459
C75	C	1.235040	-0.434716	-0.334071
C76	C	1.735040	0.065284	0.165929
C77	C	1.316838	-0.434728	-0.334076
C78	C	1.816838	0.065272	0.165924
C79	C	1.043136	-0.434625	-0.526015
C80	C	1.543136	0.065375	-0.026015
C81	C	1.043157	-0.434599	-0.607815
C82	C	1.543157	0.065401	-0.107815
C83	C	1.054240	-0.199362	-0.345184
C84	C	1.554240	0.300638	0.154816
C85	C	1.058993	-0.099080	-0.349925
C86	C	1.558993	0.400920	0.150075
C87	C	1.092979	-0.376847	-0.798744
C88	C	1.592979	0.123153	-0.298744
C89	C	1.092989	-0.376821	-0.875604
C90	C	1.592989	0.123179	-0.375604
C91	C	0.993392	-0.492211	-0.870131
C92	C	1.493392	0.007789	-0.370131
C93	C	0.993379	-0.492232	-0.793273
C94	C	1.493379	0.007768	-0.293273
C95	C	1.043177	-0.434551	-0.757581
C96	C	1.543177	0.065449	-0.257581
C97	C	1.043200	-0.434504	-0.911300
C98	C	1.543200	0.065496	-0.411300
C99	C	1.043210	-0.434476	-0.994635
C100	C	1.543210	0.065524	-0.494635
C101	C	1.043166	-0.434578	-0.674241
C102	C	1.543166	0.065422	-0.174241
C103	C	1.043086	-0.434684	-0.142853
C104	C	1.543086	0.065316	0.357147
C105	C	1.043220	-0.434457	-0.061065
C106	C	1.543220	0.065543	0.438935
H107	H	0.618144	-0.330139	-0.424527
H108	H	1.118144	0.169861	0.075473
C109	C	0.943041	-0.672226	-0.233900
C110	C	1.443041	-0.172226	0.266100
C111	C	0.928790	-0.764897	-0.219605
C112	C	1.428790	-0.264897	0.280395
H113	H	0.912605	-0.640318	-0.203431
H114	H	1.412605	-0.140318	0.296569
H115	H	0.993210	-0.656749	-0.223901
H116	H	1.493210	-0.156749	0.276099
H117	H	0.932958	-0.656761	-0.284065
H118	H	1.432958	-0.156761	0.215935
H119	H	0.938878	-0.780363	-0.169441
H120	H	1.438878	-0.280363	0.330559
H121	H	0.878610	-0.780379	-0.229599
H122	H	1.378610	-0.280379	0.270401
H123	H	0.468773	-0.539253	-0.243607
H124	H	0.968773	-0.039253	0.256393
H125	H	0.478716	-0.330155	-0.424529
H126	H	0.978716	0.169845	0.075471
H127	H	0.608215	-0.539241	-0.243592
H128	H	1.108215	-0.039241	0.256408
H129	H	0.933606	-0.949248	-0.224383
H130	H	1.433606	-0.449248	0.275617
C131	C	1.201657	-1.042235	-0.492836
C132	C	1.701657	-0.542235	0.007164
C133	C	1.157516	-1.103563	-0.448609
C134	C	1.657516	-0.603563	0.051391
H135	H	1.232089	-1.074146	-0.523307
H136	H	1.732089	-0.574146	-0.023307
H137	H	1.171286	-1.005495	-0.522676
H138	H	1.671286	-0.505495	-0.022676
H139	H	1.231542	-1.005482	-0.462516
H140	H	1.731542	-0.505482	0.037484
H141	H	1.127627	-1.140312	-0.478928
H142	H	1.627627	-0.640312	0.021072
H143	H	1.187891	-1.140319	-0.418766
H144	H	1.687891	-0.640319	0.081234
H145	H	0.952819	-0.539221	-0.759757
H146	H	1.452819	-0.039221	-0.259757
C147	C	1.164710	-0.825701	-0.455895
C148	C	1.664710	-0.325701	0.044105
C149	C	1.126285	-0.764526	-0.417413
C150	C	1.626285	-0.264526	0.082587
H151	H	1.198113	-0.793672	-0.489377
H152	H	1.698113	-0.293672	0.010623
H153	H	1.191172	-0.862445	-0.422136
H154	H	1.691172	-0.362445	0.077864
H155	H	1.130903	-0.862466	-0.482282
H156	H	1.630903	-0.362466	0.017718
H157	H	1.160091	-0.727766	-0.391021
H158	H	1.660091	-0.227766	0.108979
H159	H	1.099821	-0.727767	-0.451177
H160	H	1.599821	-0.227767	0.048823
C161	C	1.136083	-0.224046	-0.906485
C162	C	1.636083	0.275954	-0.406485
C163	C	1.147737	-0.313390	-0.920847
C164	C	1.647737	0.186610	-0.420847
H165	H	1.169887	-0.184885	-0.934412
H166	H	1.669887	0.315115	-0.434412
H167	H	1.087271	-0.210837	-0.919703
H168	H	1.587271	0.289163	-0.419703
H169	H	1.143201	-0.215822	-0.855600
H170	H	1.643201	0.284178	-0.355600
H171	H	1.140614	-0.321616	-0.971731
H172	H	1.640614	0.178384	-0.471731
H173	H	1.196561	-0.326603	-0.907634
H174	H	1.696561	0.173397	-0.407634
H175	H	1.152713	-0.919225	-0.443831
H176	H	1.652713	-0.419225	0.056169
H177	H	0.974056	-1.090496	-0.264865
H178	H	1.474056	-0.590496	0.235135
H179	H	1.133526	-0.329877	-0.769687
H180	H	1.633526	0.170123	-0.269687
H181	H	0.952850	-0.539174	-0.899201
H182	H	1.452850	-0.039174	-0.399201
