data_functionalizedCrystal
_audit_creation_method	'MofGen! by Chris Wilmer'
_symmetry_space_group_name_H-M	'P1'
_symmetry_Int_Tables_number	1
_symmetry_cell_setting	triclinic
loop_
_symmetry_equiv_pos_as_xyz
  x,y,z
_cell_length_a	19.188929
_cell_length_b	19.288840
_cell_length_c	18.366186
_cell_angle_alpha	89.983729
_cell_angle_beta	90.028034
_cell_angle_gamma	96.864604
loop_
_atom_site_label
_atom_site_type_symbol
_atom_site_fract_x
_atom_site_fract_y
_atom_site_fract_z
O1	O	-0.087016	0.921370	-0.060706
O2	O	0.412984	1.421370	0.439294
O3	O	-0.098784	0.719108	-0.060685
O4	O	0.401216	1.219108	0.439315
O5	O	0.008757	0.826076	-0.060651
O6	O	0.508757	1.326076	0.439349
O7	O	-0.194556	0.814402	-0.060740
O8	O	0.305444	1.314402	0.439260
O9	O	0.008762	0.826058	0.060448
O10	O	0.508762	1.326058	0.560448
O11	O	-0.098778	0.719090	0.060414
O12	O	0.401222	1.219090	0.560414
O13	O	-0.087011	0.921352	0.060394
O14	O	0.412989	1.421352	0.560394
Zn15	Zn	-0.092894	0.820218	0.079631
Zn16	Zn	0.407106	1.320218	0.579631
Zn17	Zn	-0.092901	0.820242	-0.079923
Zn18	Zn	0.407099	1.320242	0.420077
O19	O	-0.194551	0.814384	0.060359
O20	O	0.305449	1.314384	0.560359
C21	C	-0.098405	0.693222	-0.000132
C22	C	0.401595	1.193222	0.499868
C23	C	-0.097277	0.616118	-0.000122
C24	C	0.402723	1.116118	0.499878
C25	C	-0.096738	0.579924	-0.066135
C26	C	0.403262	1.079924	0.433865
C27	C	-0.095671	0.507477	-0.066143
C28	C	0.404329	1.007477	0.433857
C29	C	-0.095128	0.471228	-0.000135
C30	C	0.404872	0.971228	0.499865
C31	C	-0.095671	0.507430	0.065886
C32	C	0.404329	1.007430	0.565886
C33	C	-0.096746	0.579875	0.065893
C34	C	0.403254	1.079875	0.565893
C35	C	-0.052528	0.361890	0.050445
C36	C	0.447472	0.861890	0.550445
C37	C	-0.051449	0.289447	0.050435
C38	C	0.448551	0.789447	0.550435
C39	C	-0.091817	0.247784	-0.000153
C40	C	0.408183	0.747784	0.499847
C41	C	-0.133255	0.278575	-0.050744
C42	C	0.366745	0.778575	0.449256
C43	C	-0.134330	0.351019	-0.050737
C44	C	0.365670	0.851019	0.449263
C45	C	-0.093963	0.392674	-0.000135
C46	C	0.406037	0.892674	0.499865
C47	C	-0.090121	0.133035	-0.066179
C48	C	0.409879	0.633035	0.433821
C49	C	-0.089058	0.060586	-0.066185
C50	C	0.410942	0.560586	0.433815
C51	C	-0.089052	0.060542	0.065847
C52	C	0.410948	0.560542	0.565847
C53	C	-0.090122	0.132989	0.065851
C54	C	0.409878	0.632989	0.565851
C55	C	-0.090653	0.169231	-0.000164
C56	C	0.409347	0.669231	0.499836
C57	C	-0.220565	0.814771	-0.000202
C58	C	0.279435	1.314771	0.499798
C59	C	-0.298069	0.815906	-0.000237
C60	C	0.201931	1.315906	0.499763
C61	C	-0.343003	0.753141	-0.000216
C62	C	0.156997	1.253141	0.499784
C63	C	-0.415827	0.754207	-0.000199
C64	C	0.084173	1.254207	0.499801
C65	C	-0.443713	0.818042	-0.000189
C66	C	0.056287	1.318042	0.499811
C67	C	-0.398769	0.880816	-0.000215
C68	C	0.101231	1.380816	0.499785
C69	C	-0.325947	0.879748	-0.000238
C70	C	0.174053	1.379748	0.499762
N71	N	-0.551672	0.866830	0.041064
N72	N	-0.051672	1.366830	0.541064
N73	N	-0.620850	0.867840	0.041088
N74	N	-0.120850	1.367840	0.541088
C75	C	-0.663121	0.821263	-0.000120
C76	C	-0.163121	1.321263	0.499880
N77	N	-0.633602	0.773628	-0.041344
N78	N	-0.133602	1.273628	0.458656
N79	N	-0.564417	0.772616	-0.041364
N80	N	-0.064417	1.272616	0.458636
C81	C	-0.522675	0.819207	-0.000164
C82	C	-0.022675	1.319207	0.499836
C83	C	-0.787020	0.759650	-0.000082
C84	C	-0.287020	1.259650	0.499918
C85	C	-0.859844	0.760719	-0.000070
C86	C	-0.359844	1.260719	0.499930
C87	C	-0.842784	0.887329	-0.000078
C88	C	-0.342784	1.387329	0.499922
C89	C	-0.769961	0.886258	-0.000097
C90	C	-0.269961	1.386258	0.499903
C91	C	-0.742084	0.822417	-0.000096
C92	C	-0.242084	1.322417	0.499904
C93	C	0.034770	0.825689	-0.000091
C94	C	0.534770	1.325689	0.499909
C95	C	0.112275	0.824554	-0.000061
C96	C	0.612275	1.324554	0.499939
C97	C	-0.087389	0.947238	-0.000161
C98	C	0.412611	1.447238	0.499839
C99	C	-0.088517	1.024343	-0.000176
C100	C	0.411483	1.524343	0.499824
N101	N	-0.092888	0.820207	0.188522
N102	N	0.407112	1.320207	0.688522
N103	N	-0.092900	0.820259	-0.188814
N104	N	0.407100	1.320259	0.311186
C105	C	-0.045293	0.867588	0.226638
C106	C	0.454707	1.367588	0.726638
C107	C	-0.045290	0.867592	0.302865
C108	C	0.454710	1.367592	0.802865
C109	C	-0.092894	0.820222	0.340975
C110	C	0.407106	1.320222	0.840975
C111	C	-0.140494	0.772833	0.302850
C112	C	0.359506	1.272833	0.802850
C113	C	-0.140491	0.772825	0.226624
C114	C	0.359509	1.272825	0.726624
C115	C	-0.156512	0.810929	0.461708
C116	C	0.343488	1.310929	0.961708
C117	C	-0.156516	0.810941	0.537933
C118	C	0.343484	1.310941	1.037933
C119	C	-0.092903	0.820242	0.576082
C120	C	0.407097	1.320242	1.076082
C121	C	-0.029284	0.829545	0.537997
C122	C	0.470716	1.329545	1.037997
C123	C	-0.029281	0.829537	0.461771
C124	C	0.470719	1.329537	0.961771
C125	C	-0.092902	0.820225	0.423630
C126	C	0.407098	1.320225	0.923630
C127	C	-0.045300	0.867630	0.696853
C128	C	0.454700	1.367630	1.196853
C129	C	-0.045296	0.867630	0.773082
C130	C	0.454704	1.367630	1.273082
C131	C	-0.140506	0.772874	0.773065
C132	C	0.359494	1.272874	1.273065
C133	C	-0.140504	0.772871	0.696838
C134	C	0.359496	1.272871	1.196838
C135	C	-0.092902	0.820253	0.658736
C136	C	0.407098	1.320253	1.158736
H137	H	-0.097171	0.609428	-0.119890
H138	H	0.402829	1.109428	0.380110
H139	H	-0.168071	0.376085	-0.091928
H140	H	0.331929	0.876085	0.408072
Br141	Br	0.019310	0.931888	0.174928
Br142	Br	0.519310	1.431888	0.674928
Br143	Br	-0.749181	0.673010	-0.000082
Br144	Br	-0.249181	1.173010	0.499918
H145	H	-0.006530	0.906177	0.333905
H146	H	0.493470	1.406177	0.833905
Br147	Br	0.019304	0.931931	0.645141
Br148	Br	0.519304	1.431931	1.145141
H149	H	-0.452420	0.703094	-0.000181
H150	H	0.047580	1.203094	0.499819
H151	H	-0.017704	0.264384	0.091626
H152	H	0.482296	0.764384	0.591626
H153	H	-0.179263	0.734292	0.665802
H154	H	0.320737	1.234292	1.165802
Br155	Br	-0.436612	0.967450	-0.000209
Br156	Br	0.063388	1.467450	0.499791
Br157	Br	-0.094941	0.458346	-0.155739
Br158	Br	0.405059	0.958346	0.344261
Br159	Br	-0.090851	0.182113	0.155445
Br160	Br	0.409149	0.682113	0.655445
Br161	Br	-0.097479	0.628998	0.155489
Br162	Br	0.402521	1.128998	0.655489
H163	H	-0.019654	0.395807	0.091643
H164	H	0.480346	0.895807	0.591643
Br165	Br	-0.264960	0.964936	-0.000267
Br166	Br	0.235040	1.464936	0.499733
H167	H	0.022520	0.837110	0.430765
H168	H	0.522520	1.337110	0.930765
Br169	Br	-0.920829	0.675529	-0.000054
Br170	Br	-0.420829	1.175529	0.499946
H171	H	-0.095231	0.477912	0.119631
H172	H	0.404769	0.977912	0.619631
Br173	Br	-0.242855	0.798324	0.589612
Br174	Br	0.257145	1.298324	1.089612
Br175	Br	-0.242853	0.798375	0.409942
Br176	Br	0.257147	1.298375	0.909942
H177	H	-0.865488	0.939305	-0.000123
H178	H	-0.365488	1.439305	0.499877
H179	H	-0.733375	0.937369	-0.000110
H180	H	-0.233375	1.437369	0.499890
H181	H	-0.166129	0.244654	-0.091935
H182	H	0.333871	0.744654	0.408065
Br183	Br	0.057054	0.842177	0.589761
Br184	Br	0.557054	1.342177	1.089761
Br185	Br	0.019309	0.931931	0.824815
Br186	Br	0.519309	1.431931	1.324815
H187	H	-0.320310	0.701156	-0.000221
H188	H	0.179690	1.201156	0.499779
H189	H	-0.179264	0.734302	0.804093
H190	H	0.320736	1.234302	1.304093
H191	H	-0.179253	0.734262	0.333883
H192	H	0.320747	1.234262	0.833883
H193	H	-0.090562	0.162545	-0.119933
H194	H	0.409438	0.662545	0.380067
Br195	Br	-0.088336	0.011463	-0.155782
Br196	Br	0.411664	0.511463	0.344218
Br197	Br	-0.205089	0.708517	0.174891
Br198	Br	0.294911	1.208517	0.674891
Br199	Br	-0.088326	0.011354	0.155431
Br200	Br	0.411674	0.511354	0.655431
