data_functionalizedCrystal
_audit_creation_method	'MofGen! by Chris Wilmer'
_symmetry_space_group_name_H-M	'P1'
_symmetry_Int_Tables_number	1
_symmetry_cell_setting	triclinic
loop_
_symmetry_equiv_pos_as_xyz
  x,y,z
_cell_length_a	18.215407
_cell_length_b	16.625546
_cell_length_c	18.215399
_cell_angle_alpha	90.029176
_cell_angle_beta	90.017813
_cell_angle_gamma	90.016981
loop_
_atom_site_label
_atom_site_type_symbol
_atom_site_fract_x
_atom_site_fract_y
_atom_site_fract_z
Zn1	Zn	1.125084	-0.321128	0.416070
Zn2	Zn	1.458418	0.012205	0.749403
Zn3	Zn	1.791751	0.345539	1.082737
Zn4	Zn	1.124998	-0.455968	0.293001
Zn5	Zn	1.458331	-0.122635	0.626334
Zn6	Zn	1.791665	0.210698	0.959668
Zn7	Zn	1.002017	-0.321140	0.293022
Zn8	Zn	1.335350	0.012193	0.626355
Zn9	Zn	1.668684	0.345526	0.959688
Zn10	Zn	1.001988	-0.455909	0.416030
Zn11	Zn	1.335321	-0.122576	0.749364
Zn12	Zn	1.668655	0.210757	1.082697
O13	O	1.063522	-0.388536	0.354531
O14	O	1.396855	-0.055203	0.687864
O15	O	1.730188	0.278130	1.021197
O16	O	1.228057	-0.339034	0.399753
O17	O	1.561390	-0.005701	0.733086
O18	O	1.894724	0.327632	1.066419
O19	O	1.108660	-0.438113	0.190019
O20	O	1.441993	-0.104779	0.523353
O21	O	1.775327	0.228554	0.856686
O22	O	1.018390	-0.208306	0.309369
O23	O	1.351724	0.125027	0.642703
O24	O	1.685057	0.458360	0.976036
O25	O	1.227994	-0.438101	0.309334
O26	O	1.561327	-0.104767	0.642668
O27	O	1.894660	0.228566	0.976001
O28	O	1.108807	-0.208297	0.399773
O29	O	1.442141	0.125036	0.733106
O30	O	1.775474	0.458369	1.066439
O31	O	1.018306	-0.339055	0.190035
O32	O	1.351640	-0.005722	0.523368
O33	O	1.684973	0.327611	0.856701
O34	O	0.899029	-0.338998	0.309331
O35	O	1.232362	-0.005665	0.642664
O36	O	1.565695	0.327668	0.975998
O37	O	1.018341	-0.438000	0.519020
O38	O	1.351674	-0.104667	0.852353
O39	O	1.685008	0.228666	1.185686
O40	O	0.899007	-0.438013	0.399705
O41	O	1.232341	-0.104679	0.733038
O42	O	1.565674	0.228654	1.066372
O43	O	1.108779	-0.338977	0.519049
O44	O	1.442113	-0.005644	0.852382
O45	O	1.775446	0.327689	1.185716
O46	O	1.108632	-0.568793	0.309296
O47	O	1.441965	-0.235459	0.642629
O48	O	1.775299	0.097874	0.975962
O49	O	1.018257	-0.568750	0.399685
O50	O	1.351591	-0.235416	0.733018
O51	O	1.684924	0.097917	1.066352
C52	C	0.872315	-0.388501	0.354516
C53	C	1.205649	-0.055168	0.687850
C54	C	1.538982	0.278166	1.021183
C55	C	0.790517	-0.388505	0.354528
C56	C	1.123850	-0.055172	0.687861
C57	C	1.457183	0.278161	1.021194
C58	C	0.525486	-0.337052	0.401686
C59	C	0.858820	-0.003719	0.735020
C60	C	1.192153	0.329615	1.068353
C61	C	0.602345	-0.337039	0.401684
C62	C	0.935678	-0.003705	0.735017
C63	C	1.269012	0.329628	1.068351
C64	C	0.602298	-0.440047	0.307391
C65	C	0.935632	-0.106714	0.640724
C66	C	1.268965	0.226619	0.974058
C67	C	0.525441	-0.440064	0.307398
C68	C	0.858774	-0.106730	0.640731
C69	C	1.192108	0.226603	0.974064
C70	C	0.487037	-0.388561	0.354544
C71	C	0.820370	-0.055228	0.687878
C72	C	1.153704	0.278105	1.021211
C73	C	0.640753	-0.388532	0.354535
C74	C	0.974086	-0.055199	0.687869
C75	C	1.307420	0.278135	1.021202
C76	C	0.724087	-0.388518	0.354532
C77	C	1.057420	-0.055185	0.687866
C78	C	1.390753	0.278149	1.021199
C79	C	0.403698	-0.388576	0.354548
C80	C	0.737031	-0.055243	0.687882
C81	C	1.070365	0.278091	1.021215
C82	C	1.063452	-0.598027	0.354500
C83	C	1.396785	-0.264694	0.687833
C84	C	1.730119	0.068639	1.021167
C85	C	1.063490	-0.687648	0.354511
C86	C	1.396823	-0.354315	0.687845
C87	C	1.730156	-0.020982	1.021178
C88	C	1.063618	-1.015824	0.354588
C89	C	1.396951	-0.682491	0.687921
C90	C	1.730285	-0.349157	1.021255
C91	C	1.063580	-0.924516	0.354569
C92	C	1.396913	-0.591182	0.687902
C93	C	1.730247	-0.257849	1.021235
C94	C	1.063553	-0.851739	0.354549
C95	C	1.396887	-0.518406	0.687883
C96	C	1.730220	-0.185072	1.021216
C97	C	1.063516	-0.760425	0.354531
C98	C	1.396850	-0.427092	0.687864
C99	C	1.730183	-0.093758	1.021197
C100	C	1.255475	-0.388573	0.354546
C101	C	1.588808	-0.055239	0.687879
C102	C	1.922141	0.278094	1.021212
C103	C	1.337273	-0.388588	0.354552
C104	C	1.670607	-0.055255	0.687885
C105	C	2.003940	0.278079	1.021219
C106	C	1.063567	-0.388481	0.546484
C107	C	1.396900	-0.055148	0.879817
C108	C	1.730233	0.278186	1.213150
C109	C	1.063586	-0.388457	0.628283
C110	C	1.396919	-0.055124	0.961616
C111	C	1.730252	0.278209	1.294949
C112	C	1.063612	-0.178228	0.354578
C113	C	1.396945	0.155106	0.687911
C114	C	1.730278	0.488439	1.021244
C115	C	1.063650	-0.088606	0.354598
C116	C	1.396983	0.244727	0.687931
C117	C	1.730317	0.578060	1.021264
C118	C	1.063519	-0.388534	0.163324
C119	C	1.396853	-0.055200	0.496658
C120	C	1.730186	0.278133	0.829991
C121	C	1.063643	-0.388330	0.081526
C122	C	1.396976	-0.054997	0.414859
C123	C	1.730310	0.278336	0.748193
C124	C	1.110694	-0.336848	0.816493
C125	C	1.444027	-0.003514	1.149826
C126	C	1.777361	0.329819	1.483160
C127	C	1.110703	-0.336824	0.893352
C128	C	1.444036	-0.003491	1.226685
C129	C	1.777369	0.329843	1.560018
C130	C	1.016530	-0.439942	0.893310
C131	C	1.349863	-0.106609	1.226644
C132	C	1.683196	0.226724	1.559977
C133	C	1.016518	-0.439961	0.816453
C134	C	1.349851	-0.106628	1.149786
C135	C	1.683184	0.226706	1.483119
C136	C	1.063604	-0.388415	0.778046
C137	C	1.396937	-0.055082	1.111380
C138	C	1.730271	0.278252	1.444713
C139	C	1.063625	-0.388373	0.931762
C140	C	1.396958	-0.055039	1.265096
C141	C	1.730291	0.278294	1.598429
C142	C	1.063634	-0.388347	1.015096
C143	C	1.396967	-0.055014	1.348429
C144	C	1.730300	0.278319	1.681763
C145	C	1.063594	-0.388439	0.694707
C146	C	1.396927	-0.055105	1.028041
C147	C	1.730261	0.278228	1.361374
H148	H	0.494220	-0.295115	0.440076
H149	H	0.827554	0.038218	0.773409
H150	H	1.160887	0.371551	1.106743
H151	H	0.978166	-0.481953	0.785149
H152	H	1.311499	-0.148619	1.118482
H153	H	1.644833	0.184714	1.451815
C154	C	0.644636	-0.280370	0.453541
C155	C	0.977969	0.052963	0.786874
C156	C	1.311303	0.386297	1.120208
N157	N	0.676489	-0.237684	0.492601
N158	N	1.009822	0.095649	0.825934
N159	N	1.343156	0.428983	1.159268
H160	H	0.633576	-0.481977	0.269004
H161	H	0.966909	-0.148644	0.602338
H162	H	1.300243	0.184690	0.935671
H163	H	0.494135	-0.482014	0.269008
H164	H	0.827468	-0.148680	0.602341
H165	H	1.160801	0.184653	0.935675
C166	C	1.162507	-0.280098	0.935640
C167	C	1.495840	0.053236	1.268973
C168	C	1.829174	0.386569	1.602306
N169	N	1.201529	-0.237369	0.967491
N170	N	1.534862	0.095965	1.300824
N171	N	1.868195	0.429298	1.634157
C172	C	0.964736	-0.496638	0.935565
C173	C	1.298069	-0.163305	1.268898
C174	C	1.631403	0.170028	1.602231
N175	N	0.925724	-0.539343	0.967390
N176	N	1.259057	-0.206010	1.300723
N177	N	1.592390	0.127324	1.634057
C178	C	1.162484	-0.280138	0.774248
C179	C	1.495817	0.053195	1.107582
C180	C	1.829150	0.386528	1.440915
N181	N	1.201491	-0.237420	0.742432
N182	N	1.534824	0.095913	1.075765
N183	N	1.868157	0.429246	1.409099
