data_functionalizedCrystal
_audit_creation_method	'MofGen! by Chris Wilmer'
_symmetry_space_group_name_H-M	'P1'
_symmetry_Int_Tables_number	1
_symmetry_cell_setting	triclinic
loop_
_symmetry_equiv_pos_as_xyz
  x,y,z
_cell_length_a	10.654550
_cell_length_b	10.489741
_cell_length_c	9.730223
_cell_angle_alpha	89.995878
_cell_angle_beta	89.999957
_cell_angle_gamma	84.512052
loop_
_atom_site_label
_atom_site_type_symbol
_atom_site_fract_x
_atom_site_fract_y
_atom_site_fract_z
O1	O	1.667923	0.179162	-0.114186
O2	O	1.302452	0.196231	-0.114212
O3	O	1.493504	0.002095	-0.114190
O4	O	1.476872	0.373298	-0.114208
O5	O	1.493491	0.002089	0.114390
O6	O	1.302440	0.196226	0.114368
O7	O	1.667911	0.179157	0.114393
Zn8	Zn	1.485173	0.187690	0.150673
Zn9	Zn	1.485190	0.187697	-0.150491
O10	O	1.476859	0.373293	0.114372
C11	C	1.255648	0.194975	0.000075
C12	C	1.116203	0.191225	0.000066
C13	C	1.036771	0.305530	0.000064
C14	C	0.905748	0.301999	0.000088
C15	C	0.933603	0.069849	0.000110
C16	C	1.064623	0.073381	0.000095
C17	C	1.492241	-0.045439	0.000099
C18	C	1.488483	-0.187067	0.000096
C19	C	1.366923	-0.255148	0.000078
C20	C	1.424341	-0.347301	0.112783
C21	C	1.424382	-0.347270	-0.112579
C22	C	1.545951	-0.277354	0.112895
C23	C	1.545975	-0.277314	-0.112568
C24	C	1.603481	-0.369439	0.000165
C25	C	1.714715	0.180413	0.000104
C26	C	1.854160	0.184162	0.000104
C27	C	1.478122	0.420827	0.000080
C28	C	1.481880	0.562454	0.000074
N29	N	1.485171	0.187685	0.356209
N30	N	1.485201	0.187693	-0.356027
C31	C	1.569798	0.101758	0.428145
C32	C	1.569811	0.101758	0.572028
C33	C	1.400566	0.273624	0.572027
C34	C	1.400548	0.273616	0.428147
H35	H	1.078762	0.401486	0.000050
H36	H	1.638720	0.031787	0.630593
O37	O	1.722840	-0.428415	0.000485
C38	C	1.921713	-0.459590	0.119561
C39	C	1.786568	-0.392740	0.119379
H40	H	1.973284	-0.430751	0.215662
H41	H	1.918054	-0.567850	0.118737
H42	H	1.973881	-0.429587	0.024351
H43	H	1.734322	-0.422639	0.214573
H44	H	1.790317	-0.284493	0.120132
H45	H	1.331669	0.343590	0.630613
H46	H	0.841079	0.395078	0.000090
H47	H	1.129300	-0.019705	0.000100
O48	O	0.883287	-0.044509	0.000066
C49	C	0.693789	-0.152839	0.000173
C50	C	0.750600	-0.023239	0.000195
H51	H	0.586505	-0.135687	0.000306
H52	H	0.726320	-0.209404	-0.095508
H53	H	0.726500	-0.209382	0.095813
H54	H	0.717916	0.033408	-0.095381
H55	H	0.718074	0.033229	0.095939
H56	H	1.597336	-0.246549	0.208286
O57	O	1.247670	-0.195905	0.000440
C58	C	1.048885	-0.164233	0.119626
C59	C	1.183908	-0.231383	0.119396
H60	H	0.997286	-0.192912	0.215777
H61	H	1.052790	-0.056005	0.118734
H62	H	0.996590	-0.194138	0.024468
H63	H	1.236281	-0.201582	0.214538
H64	H	1.179913	-0.339598	0.120216
H65	H	1.597372	-0.246292	-0.207851
O66	O	1.363182	-0.384370	0.226546
C67	C	1.376107	-0.510538	0.433914
C68	C	1.445537	-0.468643	0.305161
H69	H	1.442652	-0.578701	0.497495
H70	H	1.343301	-0.422733	0.498150
H71	H	1.290923	-0.561266	0.401356
H72	H	1.530768	-0.417941	0.337597
H73	H	1.478249	-0.556495	0.240955
O74	O	1.362843	-0.384024	-0.226215
C75	C	1.168542	-0.367155	-0.354564
C76	C	1.238104	-0.325414	-0.225840
H77	H	1.067671	-0.319808	-0.354289
H78	H	1.219303	-0.336959	-0.450652
H79	H	1.167140	-0.475688	-0.353999
H80	H	1.239526	-0.216887	-0.226272
H81	H	1.187320	-0.355704	-0.129810
O82	O	1.652036	0.018157	0.358476
C83	C	1.819948	-0.152265	0.373670
C84	C	1.726863	-0.057670	0.452734
H85	H	1.880488	-0.213578	0.449843
H86	H	1.765211	-0.216594	0.306364
H87	H	1.883119	-0.096580	0.306253
H88	H	1.663670	-0.113251	0.520225
H89	H	1.781678	0.006658	0.519953
H90	H	1.331629	0.343589	0.369573
