data_functionalizedCrystal
_audit_creation_method	'MofGen! by Chris Wilmer'
_symmetry_space_group_name_H-M	'P1'
_symmetry_Int_Tables_number	1
_symmetry_cell_setting	triclinic
loop_
_symmetry_equiv_pos_as_xyz
  x,y,z
_cell_length_a	13.635800
_cell_length_b	11.353959
_cell_length_c	9.514088
_cell_angle_alpha	80.909212
_cell_angle_beta	118.843545
_cell_angle_gamma	72.473377
loop_
_atom_site_label
_atom_site_type_symbol
_atom_site_fract_x
_atom_site_fract_y
_atom_site_fract_z
V1	V	2.138969	-0.183460	0.552045
O2	O	2.099622	0.006428	0.489413
O3	O	2.143408	-0.361473	0.598400
O4	O	2.156066	-0.181686	0.769941
O5	O	2.086876	-0.174604	0.316685
V6	V	2.371721	-0.160623	0.517805
O7	O	2.289362	-0.233554	0.627155
O8	O	2.446428	-0.110529	0.442695
O9	O	2.255679	0.017390	0.471450
O10	O	2.469767	-0.350511	0.580437
O11	O	2.482513	-0.169479	0.753165
O12	O	2.243022	-0.162397	0.299909
V13	V	2.638969	-0.183460	0.552045
O14	O	2.599622	0.006428	0.489413
O15	O	2.643408	-0.361473	0.598400
O16	O	2.656066	-0.181686	0.769941
O17	O	2.586876	-0.174604	0.316685
V18	V	2.871721	-0.160623	0.517805
O19	O	2.789362	-0.233554	0.627155
O20	O	2.946428	-0.110529	0.442695
O21	O	2.755679	0.017390	0.471450
O22	O	2.969767	-0.350511	0.580437
O23	O	2.982513	-0.169479	0.753165
O24	O	2.743022	-0.162397	0.299909
C25	C	2.071539	-0.404836	0.602627
C26	C	2.116087	-0.550371	0.641979
C27	C	2.087173	-0.596840	0.514603
C28	C	2.133214	-0.747257	0.555273
C29	C	2.087685	-0.175498	0.821441
C30	C	2.142494	-0.175225	0.999901
C31	C	2.159219	0.060746	0.467221
C32	C	2.104293	0.206279	0.427879
C33	C	2.143073	-0.168589	0.248402
C34	C	2.077881	-0.168855	0.069938
C35	C	2.571539	-0.404836	0.602627
C36	C	2.616087	-0.550371	0.641979
C37	C	2.587685	-0.175498	0.821441
C38	C	2.642494	-0.175225	0.999901
C39	C	2.659219	0.060746	0.467221
C40	C	2.604293	0.206279	0.427879
C41	C	2.643073	-0.168589	0.248402
C42	C	2.577881	-0.168855	0.069938
C43	C	2.730708	-0.625428	0.670361
C44	C	2.772588	-0.762178	0.707363
C45	C	2.699842	-0.823866	0.715970
C46	C	2.585213	-0.748799	0.687590
C47	C	2.543338	-0.612053	0.650601
C48	C	2.662167	0.281336	0.399502
C49	C	2.610560	0.418085	0.362508
C50	C	2.501084	0.479772	0.353904
C51	C	2.443205	0.404706	0.382280
C52	C	2.494807	0.267962	0.419261
H53	H	2.028338	-0.525266	0.375444
C54	C	2.782583	0.213507	0.408944
H55	H	2.809638	0.277811	0.386722
H56	H	2.845263	0.148044	0.520509
H57	H	2.767122	0.172845	0.325384
H58	H	2.739751	-0.180473	1.076476
C59	C	2.745914	-0.974283	0.756654
H60	H	2.824594	-1.010139	0.772308
H61	H	2.753623	-1.015150	0.858924
H62	H	2.687955	-0.990355	0.663799
H63	H	2.480637	-0.163622	0.993379
C64	C	2.024805	-0.697053	0.239869
H65	H	2.012643	-0.745716	0.165232
H66	H	1.946435	-0.638617	0.212863
H67	H	2.066317	-0.647203	0.225520
C68	C	2.417244	-0.529500	0.619355
H69	H	2.379920	-0.585831	0.629763
H70	H	2.429824	-0.488259	0.702057
H71	H	2.364182	-0.463494	0.506942
C72	C	2.212704	-0.843927	0.743282
H73	H	2.224882	-0.795268	0.817924
H74	H	2.171207	-0.893787	0.757635
H75	H	2.291081	-0.902355	0.770282
C76	C	2.674247	0.500631	0.331319
H77	H	2.746847	0.444295	0.341772
H78	H	2.618553	0.566648	0.218925
H79	H	2.696654	0.541854	0.414052
H80	H	2.239751	-0.180473	1.076476
C81	C	2.505195	-0.816660	0.697044
H82	H	2.430930	-0.752383	0.674853
H83	H	2.484816	-0.857332	0.613504
H84	H	2.550472	-0.882123	0.808626
C85	C	2.444341	0.630188	0.313240
H86	H	2.494503	0.666042	0.297591
H87	H	2.362705	0.671063	0.210972
H88	H	2.440836	0.646250	0.406102
C89	C	2.322794	0.472573	0.372834
H90	H	2.300371	0.564758	0.346767
H91	H	2.257796	0.459824	0.285408
H92	H	2.335945	0.435018	0.480533
H93	H	1.980637	-0.163622	0.993379
C94	C	2.195575	-0.647045	0.829979
H95	H	2.207753	-0.598385	0.904620
H96	H	2.154078	-0.696904	0.844332
H97	H	2.273952	-0.705473	0.856979
C98	C	2.810743	-0.557597	0.660897
H99	H	2.885007	-0.621901	0.683118
H100	H	2.765481	-0.492141	0.549326
H101	H	2.831144	-0.516925	0.744447
H102	H	2.865925	-0.823278	0.730462
H103	H	2.447676	0.206858	0.442379
