data_functionalizedCrystal
_audit_creation_method	'MofGen! by Chris Wilmer'
_symmetry_space_group_name_H-M	'P1'
_symmetry_Int_Tables_number	1
_symmetry_cell_setting	triclinic
loop_
_symmetry_equiv_pos_as_xyz
  x,y,z
_cell_length_a	18.101398
_cell_length_b	18.101395
_cell_length_c	18.101390
_cell_angle_alpha	89.968664
_cell_angle_beta	89.975319
_cell_angle_gamma	90.026371
loop_
_atom_site_label
_atom_site_type_symbol
_atom_site_fract_x
_atom_site_fract_y
_atom_site_fract_z
Zn1	Zn	1.132124	-0.294895	-0.418847
Zn2	Zn	1.632124	0.205105	0.081153
Zn3	Zn	1.132019	-0.418752	-0.295009
Zn4	Zn	1.632019	0.081248	0.204991
Zn5	Zn	1.008282	-0.294918	-0.295008
Zn6	Zn	1.508282	0.205082	0.204992
Zn7	Zn	1.008233	-0.418689	-0.418797
Zn8	Zn	1.508233	0.081311	0.081203
O9	O	1.070164	-0.356813	-0.356915
O10	O	1.570164	0.143187	0.143085
O11	O	1.235743	-0.311341	-0.402441
O12	O	1.735743	0.188659	0.097559
O13	O	1.115581	-0.402361	-0.191376
O14	O	1.615581	0.097639	0.308624
O15	O	1.024774	-0.191282	-0.311456
O16	O	1.524774	0.308718	0.188544
O17	O	1.235666	-0.402338	-0.311457
O18	O	1.735666	0.097662	0.188543
O19	O	1.115760	-0.191265	-0.402440
O20	O	1.615760	0.308735	0.097560
O21	O	1.024672	-0.311381	-0.191375
O22	O	1.524672	0.188619	0.308625
O23	O	0.904642	-0.311320	-0.311408
O24	O	1.404642	0.188680	0.188592
O25	O	1.024691	-0.402231	-0.522437
O26	O	1.524691	0.097769	-0.022437
O27	O	0.904607	-0.402254	-0.402355
O28	O	1.404607	0.097746	0.097645
O29	O	1.115713	-0.311280	-0.522473
O30	O	1.615713	0.188720	-0.022473
O31	O	1.115534	-0.522376	-0.311409
O32	O	1.615534	-0.022376	0.188591
O33	O	1.024590	-0.522330	-0.402356
O34	O	1.524590	-0.022330	0.097644
C35	C	0.877754	-0.356783	-0.356877
C36	C	1.377754	0.143217	0.143123
C37	C	0.795440	-0.356788	-0.356878
C38	C	1.295440	0.143212	0.143122
C39	C	1.070065	-0.549224	-0.356893
C40	C	1.570065	-0.049224	0.143107
C41	C	1.070091	-0.631538	-0.356909
C42	C	1.570091	-0.131538	0.143091
C43	C	0.496349	-0.356835	-0.356940
C44	C	0.996349	0.143165	0.143060
C45	C	0.527672	-0.299336	-0.299997
C46	C	1.027672	0.200664	0.200003
C47	C	0.613290	-0.299490	-0.299754
C48	C	1.113290	0.200510	0.200246
C49	C	0.644731	-0.356811	-0.356909
C50	C	1.144731	0.143189	0.143091
C51	C	0.613613	-0.434824	-0.335587
C52	C	1.113613	0.065176	0.164413
C53	C	0.527968	-0.434505	-0.335191
C54	C	1.027968	0.065495	0.164809
C55	C	0.527964	-0.336998	-0.435339
C56	C	1.027964	0.163002	0.064661
C57	C	0.613615	-0.335261	-0.434911
C58	C	1.113615	0.164739	0.065089
C59	C	0.728591	-0.356803	-0.356893
C60	C	1.228591	0.143197	0.143107
C61	C	0.412489	-0.356848	-0.356954
C62	C	0.912489	0.143152	0.143046
C63	C	1.070253	-0.930629	-0.356949
C64	C	1.570253	-0.430629	0.143051
C65	C	1.013166	-0.899306	-0.414312
C66	C	1.513166	-0.399306	0.085688
C67	C	1.012895	-0.813688	-0.414133
C68	C	1.512895	-0.313688	0.085867
C69	C	1.070172	-0.782247	-0.356930
C70	C	1.570172	-0.282247	0.143070
C71	C	1.049043	-0.813402	-0.278878
C72	C	1.549043	-0.313402	0.221122
C73	C	1.048675	-0.899047	-0.279221
C74	C	1.548675	-0.399047	0.220779
C75	C	1.148595	-0.898978	-0.376950
C76	C	1.648595	-0.398978	0.123050
C77	C	1.148134	-0.813327	-0.378661
C78	C	1.648134	-0.313327	0.121339
C79	C	1.070128	-0.698387	-0.356914
C80	C	1.570128	-0.198387	0.143086
C81	C	1.070296	-1.014488	-0.356959
C82	C	1.570296	-0.514488	0.143041
C83	C	1.263326	-0.356844	-0.356954
C84	C	1.763326	0.143156	0.143046
C85	C	1.345640	-0.356857	-0.356971
C86	C	1.845640	0.143143	0.143029
C87	C	1.070208	-0.356746	-0.550077
C88	C	1.570208	0.143254	-0.050077
C89	C	1.070227	-0.356717	-0.632391
C90	C	1.570227	0.143283	-0.132391
C91	C	1.070284	-0.163652	-0.356953
C92	C	1.570284	0.336348	0.143047
C93	C	1.070335	-0.081337	-0.356970
C94	C	1.570335	0.418663	0.143030
C95	C	1.070267	-0.356671	-0.931483
C96	C	1.570267	0.143329	-0.431483
C97	C	1.127724	-0.299648	-0.900180
C98	C	1.627724	0.200352	-0.400180
C99	C	1.127545	-0.299437	-0.814562
C100	C	1.627545	0.200563	-0.314562
C101	C	1.070248	-0.356694	-0.783100
C102	C	1.570248	0.143306	-0.283100
C103	C	0.992231	-0.335484	-0.814166
C104	C	1.492231	0.164516	-0.314166
C105	C	0.992575	-0.335057	-0.899811
C106	C	1.492575	0.164943	-0.399811
C107	C	1.090140	-0.435050	-0.899899
C108	C	1.590140	0.064950	-0.399899
C109	C	1.091852	-0.434650	-0.814249
C110	C	1.591852	0.065350	-0.314249
C111	C	1.070232	-0.356708	-0.699240
C112	C	1.570232	0.143292	-0.199240
C113	C	1.070278	-0.356655	-1.015342
C114	C	1.570278	0.143345	-0.515342
C115	C	1.070163	-0.356827	-0.164505
C116	C	1.570163	0.143173	0.335495
C117	C	1.070288	-0.356648	-0.082191
C118	C	1.570288	0.143352	0.417809
H119	H	0.634330	-0.241640	-0.313119
H120	H	1.134330	0.258360	0.186881
N121	N	0.499390	-0.262959	-0.461026
N122	N	0.999390	0.237041	0.038974
H123	H	0.465657	-0.241525	-0.422098
H124	H	0.965657	0.258475	0.077902
H125	H	0.542364	-0.228382	-0.469554
H126	H	1.042364	0.271618	0.030446
N127	N	1.034707	-0.491328	-0.926709
N128	N	1.534707	0.008672	-0.426709
H129	H	1.035571	-0.493172	-0.982468
H130	H	1.535571	0.006828	-0.482468
H131	H	1.047784	-0.541541	-0.906192
H132	H	1.547784	-0.041541	-0.406192
N133	N	1.204609	-0.317020	-0.927472
N134	N	1.704609	0.182980	-0.427472
H135	H	1.202945	-0.362019	-0.960395
H136	H	1.702945	0.137981	-0.460395
H137	H	1.224367	-0.273531	-0.956353
H138	H	1.724367	0.226469	-0.456353
H139	H	1.146032	-0.454361	-0.921548
H140	H	1.646032	0.045639	-0.421548
H141	H	0.507101	-0.241309	-0.313215
H142	H	1.007101	0.258691	0.186785
N143	N	0.973989	-0.785072	-0.256035
N144	N	1.473989	-0.285072	0.243965
H145	H	0.935776	-0.801484	-0.293214
H146	H	1.435776	-0.301484	0.206786
H147	H	0.960949	-0.805432	-0.205732
H148	H	1.460949	-0.305432	0.294268
H149	H	0.506122	-0.312301	-0.242242
H150	H	1.006122	0.187699	0.257758
H151	H	1.114391	-0.241372	-0.794086
H152	H	1.614391	0.258628	-0.294086
N153	N	1.110525	-0.223161	-0.928697
N154	N	1.610525	0.276839	-0.428697
H155	H	1.065677	-0.225287	-0.961805
H156	H	1.565677	0.274713	-0.461805
H157	H	1.100291	-0.189187	-0.885656
H158	H	1.600291	0.310813	-0.385656
H159	H	1.026114	-0.792621	-0.472007
H160	H	1.526114	-0.292621	0.027993
H161	H	0.507956	-0.451326	-0.277877
H162	H	1.007956	0.048674	0.222123
H163	H	1.149265	-0.450643	-0.793944
H164	H	1.649265	0.049357	-0.293944
H165	H	0.633743	-0.312604	-0.241661
H166	H	1.133743	0.187396	0.258339
N167	N	0.641965	-0.457503	-0.260487
N168	N	1.141965	0.042497	0.239513
H169	H	0.697708	-0.459684	-0.261526
H170	H	1.197708	0.040316	0.238474
H171	H	0.625498	-0.420228	-0.222396
H172	H	1.125498	0.079772	0.277604
N173	N	0.936712	-0.927883	-0.396982
N174	N	1.436712	-0.427883	0.103018
H175	H	0.900380	-0.907498	-0.434086
H176	H	1.400380	-0.407498	0.065914
H177	H	0.936670	-0.983617	-0.399556
H178	H	1.436670	-0.483617	0.100444
N179	N	1.102374	-0.786425	-0.220710
N180	N	1.602374	-0.286425	0.279290
H181	H	1.127421	-0.830122	-0.196708
H182	H	1.627421	-0.330122	0.303292
H183	H	1.140795	-0.753659	-0.244500
H184	H	1.640795	-0.253659	0.255500
N185	N	0.970257	-0.259168	-0.926295
N186	N	1.470257	0.240832	-0.426295
H187	H	0.960289	-0.226307	-0.882335
H188	H	1.460289	0.273693	-0.382335
H189	H	1.011462	-0.237294	-0.956944
H190	H	1.511462	0.262706	-0.456944
H191	H	0.507708	-0.378878	-0.477766
H192	H	1.007708	0.121122	0.022234
H193	H	0.633959	-0.277852	-0.450989
H194	H	1.133959	0.222148	0.049011
N195	N	0.641961	-0.386690	-0.494126
N196	N	1.141961	0.113310	0.005874
H197	H	0.675523	-0.424860	-0.471125
H198	H	1.175523	0.075140	0.028875
H199	H	0.598872	-0.412205	-0.518719
H200	H	1.098872	0.087795	-0.018719
N201	N	0.500523	-0.493183	-0.387722
N202	N	1.000523	0.006817	0.112278
H203	H	0.469577	-0.530264	-0.359729
H204	H	0.969577	-0.030264	0.140271
H205	H	0.469578	-0.469406	-0.427588
H206	H	0.969578	0.030594	0.072412
H207	H	1.167859	-0.920523	-0.432895
H208	H	1.667859	-0.420523	0.067105
H209	H	0.633978	-0.478814	-0.375763
H210	H	1.133978	0.021186	0.124237
H211	H	1.053046	-0.479420	-0.792829
H212	H	1.553046	0.020580	-0.292829
H213	H	1.026255	-0.919850	-0.472374
H214	H	1.526255	-0.419850	0.027626
H215	H	1.088451	-0.919770	-0.235023
H216	H	1.588451	-0.419770	0.264977
H217	H	0.954826	-0.793261	-0.400884
H218	H	1.454826	-0.293261	0.099116
N219	N	0.972822	-0.925599	-0.256778
N220	N	1.472822	-0.425599	0.243222
H221	H	0.939937	-0.881668	-0.246756
H222	H	1.439937	-0.381668	0.253244
H223	H	0.950938	-0.956221	-0.297946
H224	H	1.450938	-0.456221	0.202054
H225	H	1.164068	-0.792961	-0.436103
H226	H	1.664068	-0.292961	0.063897
N227	N	1.207461	-0.784972	-0.327361
N228	N	1.707461	-0.284972	0.172639
H229	H	1.184539	-0.751430	-0.289132
H230	H	1.684539	-0.251430	0.210868
H231	H	1.232134	-0.828056	-0.301911
H232	H	1.732134	-0.328056	0.198089
H233	H	0.948309	-0.374782	-0.920516
H234	H	1.448309	0.125218	-0.420516
H235	H	0.948259	-0.375737	-0.793784
H236	H	1.448259	0.124263	-0.293784
N237	N	1.204937	-0.925804	-0.321611
N238	N	1.704937	-0.425804	0.178389
H239	H	1.179880	-0.958300	-0.283765
H240	H	1.679880	-0.458300	0.216235
H241	H	1.244444	-0.955023	-0.348021
H242	H	1.744444	-0.455023	0.151979
H243	H	1.185396	-0.312720	-0.793559
H244	H	1.685396	0.187280	-0.293559
H245	H	0.975078	-0.278826	-0.792724
H246	H	1.475078	0.221174	-0.292724
