data_functionalizedCrystal
_audit_creation_method	'MofGen! by Chris Wilmer'
_symmetry_space_group_name_H-M	'P1'
_symmetry_Int_Tables_number	1
_symmetry_cell_setting	triclinic
loop_
_symmetry_equiv_pos_as_xyz
  x,y,z
_cell_length_a	12.837943
_cell_length_b	10.489741
_cell_length_c	11.892095
_cell_angle_alpha	93.929268
_cell_angle_beta	85.689438
_cell_angle_gamma	89.684057
loop_
_atom_site_label
_atom_site_type_symbol
_atom_site_fract_x
_atom_site_fract_y
_atom_site_fract_z
O1	O	1.384503	0.324530	-0.093982
O2	O	1.082575	0.308135	-0.093989
O3	O	1.240409	0.131493	-0.093979
O4	O	1.226669	0.501172	-0.093992
O5	O	1.227249	0.146196	0.094028
O6	O	1.069415	0.322838	0.094018
O7	O	1.371343	0.339233	0.094024
Zn8	Zn	1.218290	0.333370	0.123871
Zn9	Zn	1.235629	0.313998	-0.123836
O10	O	1.213509	0.515875	0.094014
C11	C	1.037334	0.309948	0.000014
C12	C	0.922133	0.293430	0.000011
C13	C	0.682657	0.492006	0.000020
C14	C	0.574415	0.476492	0.000019
C15	C	0.597406	0.246889	0.000015
C16	C	0.705648	0.262403	0.000016
C17	C	0.748269	0.384966	0.000017
C18	C	0.856513	0.400478	0.000011
C19	C	0.879501	0.170877	0.000015
C20	C	0.771260	0.155363	0.000014
C21	C	1.232791	0.091198	0.000024
C22	C	1.229687	-0.050774	0.000022
C23	C	1.129262	-0.129987	0.000011
C24	C	1.170213	-0.209630	0.092709
C25	C	1.183212	-0.224098	-0.092650
C26	C	1.270674	-0.128541	0.092796
C27	C	1.283664	-0.143007	-0.092647
C28	C	1.324687	-0.222613	0.000074
C29	C	1.416585	0.337420	0.000019
C30	C	1.531786	0.353937	0.000014
C31	C	1.221127	0.556170	0.000009
C32	C	1.224233	0.698141	0.000004
N33	N	1.206464	0.346591	0.292925
N34	N	1.247463	0.300768	-0.292889
C35	C	1.329751	0.208698	0.529580
C36	C	1.321493	0.217950	0.647922
C37	C	1.181684	0.374338	0.647951
C38	C	1.189943	0.365086	0.529609
C39	C	1.263980	0.282265	0.470428
C40	C	1.272243	0.273021	0.352085
C41	C	1.132429	0.429402	0.352116
C42	C	1.124171	0.438653	0.470457
H43	H	0.717359	0.591801	0.000019
N44	N	1.025670	-0.079121	0.000129
N45	N	0.959497	-0.098274	0.079600
H46	H	0.886335	-0.062350	0.079687
H47	H	1.146193	-0.265877	-0.171027
N48	N	1.388659	0.142793	0.708357
N49	N	1.350530	0.064687	0.774394
H50	H	1.397965	0.011598	0.817077
N51	N	0.727701	0.030185	0.000021
N52	N	0.631056	0.016347	0.000025
H53	H	0.600292	-0.072062	0.000028
H54	H	0.520997	0.563656	0.000024
N55	N	1.347813	0.188342	0.291647
N56	N	1.406488	0.122607	0.344482
H57	H	1.459837	0.062765	0.301802
H58	H	1.122235	-0.239197	0.171077
N59	N	0.900069	0.525659	0.000028
N60	N	0.996713	0.539500	0.000033
H61	H	1.027473	0.627912	0.000050
N62	N	1.317047	-0.076285	0.191214
N63	N	1.326883	0.041923	0.207124
H64	H	1.359631	0.078833	0.276631
N65	N	1.428360	-0.273168	0.000145
N66	N	1.483248	-0.241807	0.079808
H67	H	1.556466	-0.277511	0.079864
H68	H	1.331606	-0.113411	-0.171018
N69	N	1.405277	0.124012	0.469077
N70	N	1.401940	0.006873	0.482298
H71	H	1.455245	-0.052971	0.439546
H72	H	0.562678	0.147112	0.000108
H73	H	1.078877	0.489309	0.303941
N74	N	0.946539	0.061542	0.000004
N75	N	1.043182	0.075405	-0.000003
H76	H	1.090530	-0.001810	-0.000015
N77	N	1.106058	0.458909	0.708431
N78	N	1.098692	0.467143	0.814092
H79	H	1.045279	0.526871	0.856808
H80	H	1.063888	0.506081	0.518656
