data_functionalizedCrystal
_audit_creation_method	'MofGen! by Chris Wilmer'
_symmetry_space_group_name_H-M	'P1'
_symmetry_Int_Tables_number	1
_symmetry_cell_setting	triclinic
loop_
_symmetry_equiv_pos_as_xyz
  x,y,z
_cell_length_a	13.339070
_cell_length_b	13.339070
_cell_length_c	11.295483
_cell_angle_alpha	95.212346
_cell_angle_beta	84.780254
_cell_angle_gamma	115.629294
loop_
_atom_site_label
_atom_site_type_symbol
_atom_site_fract_x
_atom_site_fract_y
_atom_site_fract_z
O1	O	1.502130	0.545206	-0.099056
O2	O	1.187320	0.472946	-0.099051
O3	O	1.308595	0.351671	-0.099050
O4	O	1.380855	0.666480	-0.099058
O5	O	1.297937	0.362300	0.099001
O6	O	1.176662	0.483575	0.099000
O7	O	1.491472	0.555835	0.098994
Cu8	Cu	1.333094	0.520675	0.117081
Cu9	Cu	1.345698	0.508105	-0.117137
O10	O	1.370197	0.677109	0.098993
C11	C	1.140876	0.466054	-0.000025
C12	C	1.018362	0.429671	-0.000023
C13	C	1.291060	0.315871	-0.000026
C14	C	1.254676	0.193356	-0.000030
C15	C	0.732975	0.712569	-0.000049
C16	C	0.848084	0.746756	-0.000055
C17	C	0.890660	0.667487	-0.000046
C18	C	0.818114	0.554026	-0.000033
C19	C	0.702994	0.519835	-0.000037
C20	C	0.860678	0.474754	-0.000034
C21	C	0.788133	0.361293	-0.000021
C22	C	0.673025	0.327107	-0.000023
C23	C	0.630450	0.406376	-0.000032
C24	C	0.975798	0.508945	-0.000030
C25	C	0.945817	0.316212	-0.000018
C26	C	0.830708	0.282024	-0.000012
C27	C	1.537576	-0.092032	-0.000034
C28	C	1.571762	0.023078	-0.000023
C29	C	1.492494	0.065653	-0.000025
C30	C	1.379032	-0.006892	-0.000037
C31	C	1.344842	-0.122012	-0.000039
C32	C	1.299760	0.035672	-0.000030
C33	C	1.186298	-0.036873	-0.000042
C34	C	1.152113	-0.151981	-0.000044
C35	C	1.231382	-0.194557	-0.000042
C36	C	1.333951	0.150792	-0.000029
C37	C	1.141217	0.120812	-0.000033
C38	C	1.107030	0.005702	-0.000044
C39	C	1.537916	0.562726	-0.000034
C40	C	1.660431	0.599109	-0.000044
C41	C	1.387732	0.712910	-0.000034
C42	C	1.424116	0.835424	-0.000037
N43	N	1.324236	0.529518	0.281817
N44	N	1.354562	0.499256	-0.281873
C45	C	1.418306	0.435541	0.531107
C46	C	1.411623	0.442233	0.655771
C47	C	1.304179	0.549588	0.655810
C48	C	1.310862	0.542896	0.531146
C49	C	1.367930	0.485872	0.468799
C50	C	1.374620	0.479186	0.344133
C51	C	1.267169	0.586534	0.344175
C52	C	1.260485	0.593226	0.468838
H53	H	1.034854	0.601326	-0.000036
H54	H	1.664142	0.082136	-0.000012
H55	H	1.426332	0.209848	-0.000019
H56	H	1.602103	-0.126708	-0.000023
H57	H	0.984387	0.695330	-0.000054
H58	H	1.257706	0.596006	0.706589
H59	H	1.520336	0.159381	-0.000017
H60	H	0.698299	0.777096	-0.000066
H61	H	1.076669	0.155475	-0.000029
H62	H	0.536720	0.378546	-0.000027
H63	H	1.452643	0.401247	0.706499
H64	H	1.203552	-0.288287	-0.000055
H65	H	1.059725	-0.211046	-0.000044
H66	H	0.613961	0.234719	-0.000026
H67	H	0.907144	0.839135	-0.000075
H68	H	1.014647	-0.053380	-0.000053
H69	H	1.421090	0.432758	0.293372
H70	H	1.214019	0.639651	0.519615
H71	H	1.464782	0.389119	0.480344
H72	H	1.226153	0.627521	0.293429
H73	H	0.771626	0.189641	-0.000011
H74	H	0.980480	0.251664	-0.000016
