data_functionalizedCrystal
_audit_creation_method	'MofGen! by Chris Wilmer'
_symmetry_space_group_name_H-M	'P1'
_symmetry_Int_Tables_number	1
_symmetry_cell_setting	triclinic
loop_
_symmetry_equiv_pos_as_xyz
  x,y,z
_cell_length_a	21.295417
_cell_length_b	12.827893
_cell_length_c	12.827885
_cell_angle_alpha	89.978811
_cell_angle_beta	90.038100
_cell_angle_gamma	89.971474
loop_
_atom_site_label
_atom_site_type_symbol
_atom_site_fract_x
_atom_site_fract_y
_atom_site_fract_z
Zn1	Zn	-0.250612	-1.597560	0.590842
Zn2	Zn	-0.355894	-1.597408	0.416077
Zn3	Zn	-0.250639	-1.422801	0.416109
Zn4	Zn	-0.355844	-1.422740	0.590771
O5	O	-0.303247	-1.510127	0.503450
O6	O	-0.264588	-1.743776	0.567675
O7	O	-0.341964	-1.574208	0.269845
O8	O	-0.162546	-1.446072	0.439332
O9	O	-0.341938	-1.743664	0.439276
O10	O	-0.162526	-1.574467	0.567707
O11	O	-0.264634	-1.445925	0.269869
O12	O	-0.264585	-1.276557	0.439263
O13	O	-0.341852	-1.445969	0.737016
O14	O	-0.341878	-1.276512	0.567586
O15	O	-0.264539	-1.574408	0.737068
O16	O	-0.443977	-1.574149	0.439207
O17	O	-0.443940	-1.445821	0.567554
C18	C	-0.303229	-1.238617	0.503421
C19	C	-0.303237	-1.122464	0.503433
C20	C	-0.341543	-1.070685	0.566832
C21	C	-0.341552	-0.950635	0.566846
C22	C	-0.466799	-1.509990	0.503392
C23	C	-0.536767	-1.510027	0.503402
C24	C	-0.569632	-1.576907	0.436640
C25	C	-0.635374	-1.576956	0.436664
C26	C	-0.668249	-1.510107	0.503438
C27	C	-0.635376	-1.443222	0.570213
C28	C	-0.569635	-1.443183	0.570195
N29	N	-0.771513	-1.418690	0.511395
N30	N	-0.833964	-1.418731	0.511406
C31	C	-0.866324	-1.510224	0.503498
N32	N	-0.833873	-1.601676	0.495558
N33	N	-0.771416	-1.601635	0.495542
C34	C	-0.739535	-1.510143	0.503465
C35	C	-0.970475	-1.577162	0.436758
C36	C	-1.036218	-1.577213	0.436789
C37	C	-1.036219	-1.443470	0.570333
C38	C	-0.970477	-1.443429	0.570307
C39	C	-0.937608	-1.510273	0.503514
C40	C	-0.139057	-1.510293	0.503531
C41	C	-0.069089	-1.510364	0.503565
C42	C	-0.303187	-1.510198	0.776020
C43	C	-0.303161	-1.510229	0.892173
C44	C	-0.303260	-0.782697	0.503471
C45	C	-0.303253	-0.898851	0.503459
C46	C	-0.303262	-1.510117	0.231940
C47	C	-0.303110	-1.510289	0.115787
C48	C	-0.264896	-1.573791	0.943984
C49	C	-0.264869	-1.573824	1.064034
H50	H	-0.270446	-1.077918	0.449170
O51	O	-0.342290	-1.445485	0.945320
C52	C	-0.382891	-1.505016	1.008461
H53	H	-0.386807	-1.587279	0.975510
H54	H	-0.431334	-1.467178	1.009777
H55	H	-0.363366	-1.508730	1.091151
H56	H	-0.542876	-1.388721	0.624562
O57	O	-0.225851	-1.638897	1.117134
C58	C	-0.239594	-1.743052	1.090524
H59	H	-0.289873	-1.748300	1.060427
H60	H	-0.234198	-1.794639	1.162360
H61	H	-0.205825	-1.770441	1.027271
H62	H	-0.232155	-1.628182	0.899464
O63	O	-0.264213	-0.952073	0.438647
C64	C	-0.300035	-1.015132	0.371074
H65	H	-0.347775	-1.031362	0.407796
H66	H	-0.274423	-1.091938	0.357207
H67	H	-0.306876	-0.973088	0.293577
O68	O	-0.342169	-1.445220	1.062767
C69	C	-0.328407	-1.341061	1.089335
H70	H	-0.304229	-1.338865	1.168616
H71	H	-0.373838	-1.294160	1.092938
H72	H	-0.296027	-1.305931	1.027934
H73	H	-0.374329	-1.115232	0.621103
H74	H	-0.943712	-1.631594	0.382374
H75	H	-0.662138	-1.631421	0.382298
O76	O	-0.380587	-0.897473	0.631715
C77	C	-0.344766	-0.834371	0.699249
H78	H	-0.295207	-0.867364	0.705881
H79	H	-0.367588	-0.833048	0.779601
H80	H	-0.342535	-0.751678	0.666878
O81	O	-0.537802	-1.641946	0.371737
C82	C	-0.580913	-1.700971	0.312799
H83	H	-0.627753	-1.704586	0.355617
H84	H	-0.561884	-1.783304	0.301727
H85	H	-0.587961	-1.662753	0.233397
H86	H	-0.662147	-1.388795	0.624583
O87	O	-1.068048	-1.642218	0.371835
C88	C	-1.024937	-1.701220	0.312901
H89	H	-0.978099	-1.658387	0.309231
H90	H	-1.043969	-1.712419	0.230581
H91	H	-1.017882	-1.780565	0.351232
H92	H	-1.062985	-1.389045	0.624706
O93	O	-0.938645	-1.378352	0.635183
C94	C	-0.981756	-1.319376	0.694145
H95	H	-1.028643	-1.315812	0.651353
H96	H	-0.962799	-1.237021	0.705207
H97	H	-0.988686	-1.357601	0.773551
