data_functionalizedCrystal
_audit_creation_method	'MofGen! by Chris Wilmer'
_symmetry_space_group_name_H-M	'P1'
_symmetry_Int_Tables_number	1
_symmetry_cell_setting	triclinic
loop_
_symmetry_equiv_pos_as_xyz
  x,y,z
_cell_length_a	10.654549
_cell_length_b	19.288865
_cell_length_c	9.130313
_cell_angle_alpha	89.990258
_cell_angle_beta	89.997498
_cell_angle_gamma	83.810512
loop_
_atom_site_label
_atom_site_type_symbol
_atom_site_fract_x
_atom_site_fract_y
_atom_site_fract_z
O1	O	1.665751	0.097553	-0.121784
O2	O	2.165751	0.597553	0.378216
O3	O	1.300074	0.106848	-0.121797
O4	O	1.800074	0.606848	0.378203
O5	O	1.493479	0.001140	-0.121761
O6	O	1.993479	0.501140	0.378239
O7	O	1.472346	0.203262	-0.121820
O8	O	1.972346	0.703262	0.378180
O9	O	1.493466	0.001136	0.121838
O10	O	1.993466	0.501136	0.621838
O11	O	1.300061	0.106845	0.121802
O12	O	1.800061	0.606845	0.621802
O13	O	1.665738	0.097550	0.121814
O14	O	2.165738	0.597550	0.621814
Cu15	Cu	1.482898	0.102197	0.144051
Cu16	Cu	1.982898	0.602197	0.644051
Cu17	Cu	1.482914	0.102201	-0.144033
Cu18	Cu	1.982914	0.602201	0.355967
O19	O	1.472333	0.203259	0.121779
O20	O	1.972333	0.703259	0.621779
C21	C	1.253284	0.106164	0.000002
C22	C	1.753284	0.606164	0.500002
C23	C	1.113885	0.104122	-0.000002
C24	C	1.613885	0.604122	0.499998
C25	C	0.902079	0.164438	-0.000013
C26	C	1.402079	0.664438	0.499987
C27	C	1.033058	0.166362	-0.000023
C28	C	1.533058	0.666362	0.499977
C29	C	1.063726	0.039955	0.000014
C30	C	1.563726	0.539955	0.500014
C31	C	0.932749	0.038032	0.000013
C32	C	1.432749	0.538032	0.500013
C33	C	1.492793	-0.024743	0.000043
C34	C	1.992793	0.475257	0.500043
C35	C	1.490751	-0.101860	0.000055
C36	C	1.990751	0.398140	0.500055
C37	C	1.604233	-0.145813	0.000066
C38	C	2.104233	0.354187	0.500066
C39	C	1.602315	-0.218273	0.000043
C40	C	2.102315	0.281727	0.500043
C41	C	1.486910	-0.246776	0.000038
C42	C	1.986910	0.253224	0.500038
C43	C	1.373413	-0.202813	0.000019
C44	C	1.873413	0.297187	0.500019
C45	C	1.375334	-0.130355	0.000028
C46	C	1.875334	0.369645	0.500028
C47	C	1.396183	-0.355658	0.085363
C48	C	1.896183	0.144342	0.585363
C49	C	1.394267	-0.428115	0.085363
C50	C	1.894267	0.071885	0.585363
C51	C	1.480980	-0.470260	0.000005
C52	C	1.980980	0.029740	0.500005
C53	C	1.569631	-0.439941	-0.085334
C54	C	2.069631	0.060059	0.414666
C55	C	1.571552	-0.367483	-0.085326
C56	C	2.071552	0.132517	0.414674
C57	C	1.484814	-0.325344	0.000028
C58	C	1.984814	0.174656	0.500028
C59	C	1.592390	-0.592783	-0.000011
C60	C	2.092390	-0.092783	0.499989
C61	C	1.590468	-0.665244	-0.000043
C62	C	2.090468	-0.165244	0.499957
C63	C	1.361563	-0.649782	-0.000052
C64	C	1.861563	-0.149782	0.499948
C65	C	1.363488	-0.577323	-0.000035
C66	C	1.863488	-0.077323	0.499965
C67	C	1.478905	-0.548828	-0.000007
C68	C	1.978905	-0.048828	0.499993
C69	C	1.712528	0.098234	0.000013
C70	C	2.212528	0.598234	0.500013
C71	C	1.851928	0.100276	0.000007
C72	C	2.351928	0.600276	0.500007
C73	C	1.473020	0.229141	-0.000028
C74	C	1.973020	0.729141	0.499972
C75	C	1.475061	0.306258	-0.000050
C76	C	1.975061	0.806258	0.499950
N77	N	1.482897	0.102194	0.346673
N78	N	1.982897	0.602194	0.846673
N79	N	1.482926	0.102199	-0.346656
N80	N	1.982926	0.602199	0.153344
C81	C	1.568565	0.055407	0.423341
C82	C	2.068565	0.555407	0.923341
C83	C	1.568577	0.055407	0.576678
C84	C	2.068577	0.555407	1.076678
C85	C	1.397248	0.148989	0.576666
C86	C	1.897248	0.648989	1.076666
C87	C	1.397231	0.148985	0.423332
C88	C	1.897231	0.648985	0.923332
H89	H	0.891917	-0.014220	0.000024
H90	H	1.391917	0.485780	0.500024
H91	H	1.129545	-0.010721	0.000022
H92	H	1.629545	0.489279	0.500022
Cl93	Cl	1.749328	-0.109995	0.000060
Cl94	Cl	2.249328	0.390005	0.500060
Cl95	Cl	0.800480	0.242687	-0.000028
Cl96	Cl	1.300480	0.742687	0.499972
H97	H	1.694728	-0.254066	0.000046
H98	H	2.194728	0.245934	0.500046
Cl99	Cl	1.216480	-0.685608	-0.000067
Cl100	Cl	1.716480	-0.185608	0.499933
Cl101	Cl	1.682986	-0.329368	-0.192614
Cl102	Cl	2.182986	0.170632	0.307386
H103	H	1.327464	0.187085	0.360905
H104	H	1.827464	0.687085	0.860905
H105	H	1.640241	-0.474254	-0.154841
H106	H	2.140241	0.025746	0.345159
Cl107	Cl	1.737482	-0.556957	0.000032
Cl108	Cl	2.237482	-0.056957	0.500032
Cl109	Cl	1.289564	0.207811	0.673044
Cl110	Cl	1.789564	0.707811	1.173044
H111	H	1.279449	-0.226025	0.000012
H112	H	1.779449	0.273975	0.500012
H113	H	1.282921	-0.094567	0.000019
H114	H	1.782921	0.405433	0.500019
H115	H	1.073884	0.218609	-0.000040
H116	H	1.573884	0.718609	0.499960
H117	H	1.682882	-0.701031	-0.000042
H118	H	2.182882	-0.201031	0.499958
Cl119	Cl	1.676254	-0.003418	0.326976
Cl120	Cl	2.176254	0.496582	0.826976
H121	H	1.271079	-0.541535	-0.000036
H122	H	1.771079	-0.041535	0.499964
Cl123	Cl	1.282826	-0.466224	0.192651
Cl124	Cl	1.782826	0.033776	0.692651
Cl125	Cl	1.287163	-0.302683	0.192685
Cl126	Cl	1.787163	0.197317	0.692685
H127	H	1.638334	0.017307	0.639096
H128	H	2.138334	0.517307	1.139096
