data_functionalizedCrystal
_audit_creation_method	'MofGen! by Chris Wilmer'
_symmetry_space_group_name_H-M	'P1'
_symmetry_Int_Tables_number	1
_symmetry_cell_setting	triclinic
loop_
_symmetry_equiv_pos_as_xyz
  x,y,z
_cell_length_a	16.974829
_cell_length_b	18.266242
_cell_length_c	16.974813
_cell_angle_alpha	93.659691
_cell_angle_beta	83.162295
_cell_angle_gamma	93.664256
loop_
_atom_site_label
_atom_site_type_symbol
_atom_site_fract_x
_atom_site_fract_y
_atom_site_fract_z
O1	O	1.049047	0.129005	0.100807
O2	O	0.818826	0.116126	0.113637
O3	O	0.940354	0.116122	-0.007888
O4	O	0.927519	0.129008	0.222332
O5	O	0.940333	-0.005641	-0.007892
O6	O	0.818805	-0.005637	0.113633
O7	O	1.049026	0.007241	0.100804
Zn8	Zn	0.933912	-0.018531	0.107218
Zn9	Zn	0.933940	0.141898	0.107222
O10	O	0.927498	0.007245	0.222329
C11	C	0.789357	0.053470	0.113146
C12	C	0.701582	0.048184	0.111679
N13	N	0.933900	-0.128019	0.107214
C14	C	0.207494	0.011301	0.103449
C15	C	0.289969	0.016270	0.104827
C16	C	0.331218	0.085128	0.105512
C17	C	0.289988	0.149023	0.104827
C18	C	0.207514	0.144053	0.103454
C19	C	0.577878	0.107108	0.109622
C20	C	0.660358	0.112073	0.110992
C21	C	0.660333	-0.020681	0.110993
C22	C	0.577858	-0.025644	0.109616
C23	C	0.536635	0.038250	0.108935
N24	N	0.415520	0.090209	0.106918
N25	N	0.452333	0.033169	0.107535
C26	C	0.981795	-0.160642	0.155152
C27	C	0.981808	-0.237287	0.155150
C28	C	0.933911	-0.281304	0.107219
C29	C	0.886012	-0.248672	0.059272
C30	C	0.886007	-0.172029	0.059269
N31	N	0.864658	-0.405883	0.105133
N32	N	0.864666	-0.478691	0.105140
C33	C	0.933927	-0.512226	0.107222
N34	N	1.003181	-0.470202	0.109313
N35	N	1.003172	-0.397388	0.109310
C36	C	0.933912	-0.364412	0.107216
C37	C	0.981841	-0.627956	0.155160
C38	C	0.981856	-0.704601	0.155152
C39	C	0.886052	-0.715986	0.059278
C40	C	0.886045	-0.639341	0.059282
C41	C	0.933938	-0.595331	0.107227
C42	C	1.078495	0.069899	0.101294
C43	C	1.166270	0.075190	0.102761
C44	C	0.939855	0.053467	-0.037348
C45	C	0.938390	0.048182	-0.125123
N46	N	0.933959	0.251386	0.107220
C47	C	0.937715	0.112072	-0.166354
C48	C	0.936333	0.107103	-0.248828
C49	C	0.935632	0.038244	-0.290070
C50	C	0.936305	-0.025650	-0.248833
C51	C	0.937681	-0.020681	-0.166360
C52	C	0.931511	0.016266	-0.536727
C53	C	0.930137	0.011302	-0.619206
C54	C	0.930164	0.144056	-0.619194
C55	C	0.931544	0.149019	-0.536721
C56	C	0.932213	0.085124	-0.495491
N57	N	0.934223	0.033164	-0.374371
N58	N	0.933617	0.090205	-0.411190
C59	C	0.927997	0.069902	0.251788
C60	C	0.929462	0.075192	0.339564
H61	H	0.173914	-0.044771	0.102894
H62	H	1.020839	-0.592120	0.194199
H63	H	1.020864	-0.731162	0.194186
H64	H	0.938290	0.168144	-0.132781
N65	N	0.332067	-0.049000	0.105515
N66	N	0.295231	-0.110477	0.104887
H67	H	0.324963	-0.156577	0.105368
H68	H	1.020797	-0.124813	0.194189
H69	H	0.173950	0.196079	0.102897
H70	H	0.847054	-0.751825	0.020251
H71	H	0.932116	0.205091	-0.503147
H72	H	0.932071	-0.035761	-0.503169
H73	H	0.544324	0.159136	0.109064
N74	N	0.535739	-0.095988	0.108910
N75	N	0.572557	-0.153028	0.109522
H76	H	0.542811	-0.202711	0.109019
N77	N	0.929482	0.209312	-0.661323
N78	N	0.928256	0.204870	-0.734959
H79	H	0.927773	0.250959	-0.764713
N80	N	0.702455	-0.085936	0.111688
N81	N	0.776091	-0.081493	0.112912
H82	H	0.805841	-0.127582	0.113404
H83	H	0.847015	-0.284517	0.020245
H84	H	0.929563	-0.044774	-0.652782
H85	H	0.693940	0.168149	0.111556
H86	H	0.935730	-0.081717	-0.282418
N87	N	1.030742	-0.270610	0.204122
N88	N	1.073500	-0.231306	0.246922
H89	H	1.108060	-0.254838	0.281509
H90	H	0.323579	0.205089	0.105389
H91	H	0.847003	-0.145468	0.020232
H92	H	0.847040	-0.612779	0.020249
H93	H	0.935787	0.159129	-0.282394
N94	N	0.938362	-0.085951	-0.124252
N95	N	0.937733	-0.147429	-0.161082
H96	H	0.938209	-0.193529	-0.131344
