data_functionalizedCrystal
_audit_creation_method	'MofGen! by Chris Wilmer'
_symmetry_space_group_name_H-M	'P1'
_symmetry_Int_Tables_number	1
_symmetry_cell_setting	triclinic
loop_
_symmetry_equiv_pos_as_xyz
  x,y,z
_cell_length_a	12.645331
_cell_length_b	12.594516
_cell_length_c	12.645324
_cell_angle_alpha	89.969158
_cell_angle_beta	89.977038
_cell_angle_gamma	90.015032
loop_
_atom_site_label
_atom_site_type_symbol
_atom_site_fract_x
_atom_site_fract_y
_atom_site_fract_z
Zn1	Zn	1.620746	-0.423690	-0.599453
Zn2	Zn	1.620632	-0.601715	-0.422196
Zn3	Zn	1.443460	-0.423748	-0.422197
Zn4	Zn	1.443448	-0.601624	-0.599411
O5	O	1.532072	-0.512694	-0.510814
O6	O	1.769078	-0.447320	-0.575956
O7	O	1.597087	-0.578169	-0.273849
O8	O	1.467030	-0.274794	-0.445729
O9	O	1.768995	-0.578114	-0.445726
O10	O	1.597282	-0.274752	-0.575958
O11	O	1.466920	-0.447417	-0.273850
O12	O	1.295111	-0.447329	-0.445688
O13	O	1.467009	-0.577959	-0.747764
O14	O	1.295102	-0.578014	-0.575887
O15	O	1.597270	-0.447231	-0.747795
O16	O	1.597075	-0.750649	-0.445686
O17	O	1.466899	-0.750582	-0.575885
C18	C	1.256642	-0.512669	-0.510784
C19	C	1.138812	-0.512684	-0.510796
C20	C	1.532002	-0.789235	-0.510804
C21	C	1.532069	-0.907541	-0.510835
C22	C	0.971218	-0.430092	-0.429340
C23	C	1.093778	-0.430305	-0.428981
C24	C	1.094295	-0.624812	-0.480283
C25	C	0.971696	-0.624361	-0.479727
C26	C	0.971662	-0.484215	-0.623079
C27	C	1.094268	-0.481710	-0.622456
C28	C	1.461259	-0.976796	-0.581601
C29	C	1.435427	-1.047669	-0.484868
C30	C	1.557998	-1.047467	-0.607585
C31	C	1.506186	-0.976855	-0.414051
C32	C	1.628802	-0.976647	-0.536833
C33	C	1.603007	-1.047488	-0.440033
C34	C	1.808577	-0.512720	-0.510846
C35	C	1.926407	-0.512731	-0.510859
C36	C	1.532151	-0.512578	-0.787320
C37	C	1.532185	-0.512529	-0.905150
C38	C	1.532170	-0.235073	-0.510848
C39	C	1.532212	-0.116768	-0.510862
C40	C	1.614451	-0.430527	-1.072734
C41	C	1.614187	-0.430231	-0.950174
C42	C	1.420502	-0.482047	-0.949628
C43	C	1.421001	-0.481424	-1.072226
C44	C	1.560696	-0.625134	-1.072350
C45	C	1.563139	-0.624567	-0.949744
C46	C	1.532053	-0.512733	-0.235385
C47	C	1.532225	-0.512482	-0.117555
H48	H	1.123876	-0.347158	-0.448106
H49	H	1.484219	-0.945966	-0.332220
H50	H	1.595336	-0.346781	-0.920859
N51	N	1.387949	-0.374180	-0.908984
H52	H	1.315987	-0.355273	-0.938044
H53	H	1.384867	-0.375797	-0.829190
H54	H	1.640712	-0.652884	-1.103336
N55	N	1.381802	-0.935655	-0.660745
H56	H	1.419311	-0.891442	-0.715867
H57	H	1.345344	-0.997520	-0.696115
N58	N	1.132918	-0.708536	-0.556489
H59	H	1.212720	-0.711354	-0.554773
H60	H	1.103261	-0.779924	-0.535340
H61	H	1.697540	-0.449377	-1.102227
H62	H	1.710522	-0.945430	-0.558846
H63	H	1.396868	-0.399077	-1.100834
H64	H	0.940763	-0.403878	-0.650830
N65	N	1.134872	-0.657400	-0.372772
H66	H	1.176515	-0.725501	-0.379331
H67	H	1.182041	-0.599642	-0.343734
H68	H	1.123370	-0.399196	-0.645464
H69	H	1.579871	-1.078484	-0.689393
N70	N	1.337093	-0.557050	-1.111510
H71	H	1.299941	-0.590641	-1.049183
H72	H	1.284067	-0.516820	-1.155789
H73	H	1.662949	-1.078331	-0.380132
N74	N	0.933736	-0.656373	-0.371059
H75	H	0.889244	-0.722743	-0.376627
H76	H	0.996696	-0.670590	-0.324023
N77	N	1.134864	-0.555622	-0.707221
H78	H	1.214608	-0.551893	-0.709839
H79	H	1.112169	-0.630679	-0.690552
H80	H	1.645328	-0.647553	-0.920674
N81	N	0.932177	-0.319620	-0.454380
H82	H	0.885062	-0.322065	-0.518809
H83	H	0.890826	-0.291222	-0.392182
H84	H	1.357570	-0.539905	-0.920462
H85	H	1.507603	-0.688916	-0.919093
N86	N	1.481369	-0.706025	-1.110736
H87	H	1.427247	-0.669937	-1.157180
H88	H	1.519098	-0.762800	-1.152634
H89	H	1.697002	-0.449321	-0.920103
H90	H	1.595842	-0.347538	-1.103556
N91	N	1.132560	-0.455271	-0.318825
H92	H	1.105542	-0.527377	-0.296577
H93	H	1.212425	-0.455452	-0.318204
N94	N	0.929975	-0.454480	-0.319911
H95	H	0.882435	-0.518860	-0.322903
H96	H	0.991305	-0.469126	-0.270893
H97	H	0.942685	-0.544406	-0.683818
N98	N	0.932408	-0.708681	-0.554934
H99	H	0.959154	-0.693050	-0.628586
H100	H	0.959221	-0.780413	-0.531355
N101	N	1.327153	-1.088982	-0.455731
H102	H	1.273658	-1.063272	-0.509214
H103	H	1.328273	-1.169163	-0.455262
