data_functionalizedCrystal
_audit_creation_method	'MofGen! by Chris Wilmer'
_symmetry_space_group_name_H-M	'P1'
_symmetry_Int_Tables_number	1
_symmetry_cell_setting	triclinic
loop_
_symmetry_equiv_pos_as_xyz
  x,y,z
_cell_length_a	18.050589
_cell_length_b	12.759401
_cell_length_c	12.759393
_cell_angle_alpha	89.980324
_cell_angle_beta	89.970454
_cell_angle_gamma	90.028647
loop_
_atom_site_label
_atom_site_type_symbol
_atom_site_fract_x
_atom_site_fract_y
_atom_site_fract_z
Zn1	Zn	-0.295615	1.606168	-0.593992
Zn2	Zn	0.204385	2.106168	-0.093992
Zn3	Zn	-0.419823	1.606017	-0.418315
Zn4	Zn	0.080177	2.106017	0.081685
Zn5	Zn	-0.295652	1.430466	-0.418331
Zn6	Zn	0.204348	1.930466	0.081669
Zn7	Zn	-0.419769	1.430417	-0.593956
Zn8	Zn	0.080231	1.930417	-0.093956
O9	O	-0.357715	1.518267	-0.506148
O10	O	0.142285	2.018267	-0.006148
O11	O	-0.312099	1.753169	-0.570696
O12	O	0.187901	2.253169	-0.070696
O13	O	-0.403390	1.582688	-0.271296
O14	O	0.096610	2.082688	0.228704
O15	O	-0.191723	1.453857	-0.441654
O16	O	0.308277	1.953857	0.058346
O17	O	-0.403354	1.753058	-0.441627
O18	O	0.096646	2.253058	0.058373
O19	O	-0.191695	1.582944	-0.570712
O20	O	0.308305	2.082944	-0.070712
O21	O	-0.312162	1.453711	-0.271307
O22	O	0.187838	1.953711	0.228693
O23	O	-0.312109	1.283439	-0.441619
O24	O	0.187891	1.783439	0.058381
O25	O	-0.403261	1.453773	-0.740982
O26	O	0.096739	1.953773	-0.240982
O27	O	-0.403297	1.283402	-0.570650
O28	O	0.096703	1.783402	-0.070650
O29	O	-0.312046	1.582896	-0.741008
O30	O	0.187954	2.082896	-0.241008
O31	O	-0.523740	1.582640	-0.441592
O32	O	-0.023740	2.082640	0.058408
O33	O	-0.523700	1.453627	-0.570635
O34	O	-0.023700	1.953627	-0.070635
C35	C	-0.357702	1.245300	-0.506133
C36	C	0.142298	1.745300	-0.006133
C37	C	-0.357714	1.128523	-0.506152
C38	C	0.142286	1.628523	-0.006152
C39	C	-0.310284	1.073719	-0.573462
C40	C	0.189716	1.573719	-0.073462
C41	C	-0.310291	0.963995	-0.573469
C42	C	0.189709	1.463995	-0.073469
C43	C	-0.405167	0.963888	-0.438853
C44	C	0.094833	1.463888	0.061147
C45	C	-0.405155	1.073610	-0.438841
C46	C	0.094845	1.573610	0.061159
C47	C	-0.550667	1.518140	-0.506131
C48	C	-0.050667	2.018140	-0.006131
C49	C	-0.633213	1.518182	-0.506158
C50	C	-0.133213	2.018182	-0.006158
C51	C	-0.832669	1.448094	-0.576307
C52	C	-0.332669	1.948094	-0.076307
C53	C	-0.882116	1.422478	-0.480439
C54	C	-0.382116	1.922478	0.019561
C55	C	-0.784343	1.518285	-0.506172
C56	C	-0.284343	2.018285	-0.006172
C57	C	-0.881977	1.543953	-0.602051
C58	C	-0.381977	2.043953	-0.102051
C59	C	-0.930328	1.518383	-0.506194
C60	C	-0.430328	2.018383	-0.006194
C61	C	-0.832703	1.492619	-0.410253
C62	C	-0.332703	1.992619	0.089747
C63	C	-0.832560	1.614138	-0.531930
C64	C	-0.332560	2.114138	-0.031930
C65	C	-0.881985	1.588559	-0.435996
C66	C	-0.381985	2.088559	0.064004
C67	C	-0.700245	1.518226	-0.506161
C68	C	-0.200245	2.018226	-0.006161
C69	C	-1.014425	1.518442	-0.506194
C70	C	-0.514425	2.018442	-0.006194
C71	C	-0.164009	1.518423	-0.506189
C72	C	0.335991	2.018423	-0.006189
C73	C	-0.081463	1.518489	-0.506206
C74	C	0.418537	2.018489	-0.006206
C75	C	-0.357643	1.518346	-0.780182
C76	C	0.142357	2.018346	-0.280182
C77	C	-0.357613	1.518379	-0.896958
C78	C	0.142387	2.018379	-0.396958
C79	C	-0.357728	1.792300	-0.506164
C80	C	0.142272	2.292300	-0.006164
C81	C	-0.357734	1.909077	-0.506170
C82	C	0.142266	2.409077	-0.006170
C83	C	-0.310110	1.585619	-0.951836
C84	C	0.189890	2.085619	-0.451836
C85	C	-0.310078	1.585637	-1.061560
C86	C	0.189922	2.085637	-0.561560
C87	C	-0.405059	1.451172	-1.061520
C88	C	0.094941	1.951172	-0.561520
C89	C	-0.405086	1.451150	-0.951797
C90	C	0.094914	1.951150	-0.451797
C91	C	-0.357732	1.518249	-0.233181
C92	C	0.142268	2.018249	0.266819
C93	C	-0.357553	1.518419	-0.116405
C94	C	0.142447	2.018419	0.383595
H95	H	-0.443791	0.919165	-0.384052
H96	H	0.056209	1.419165	0.115948
Br97	Br	-0.469519	1.147994	-0.347471
Br98	Br	0.030481	1.647994	0.152529
H99	H	-0.443769	1.396388	-0.907115
H100	H	0.056231	1.896388	-0.407115
H101	H	-0.811014	1.388648	-0.635534
H102	H	-0.311014	1.888648	-0.135534
H103	H	-0.903900	1.341464	-0.458672
H104	H	-0.403900	1.841464	0.041328
Br105	Br	-0.796783	1.456348	-0.275081
Br106	Br	-0.296783	1.956348	0.224919
H107	H	-0.443711	1.396439	-1.106183
H108	H	0.056289	1.896439	-0.606183
Br109	Br	-0.245899	1.148241	-0.664808
Br110	Br	0.254101	1.648241	-0.164808
Br111	Br	-0.245915	0.889622	-0.664818
Br112	Br	0.254085	1.389622	-0.164818
H113	H	-0.903503	1.647959	-0.376625
H114	H	-0.403503	2.147959	0.123375
H115	H	-0.271452	1.640358	-0.907189
H116	H	0.228548	2.140358	-0.407189
Br117	Br	-0.918059	1.580070	-0.737179
Br118	Br	-0.418059	2.080070	-0.237179
Br119	Br	-0.796253	1.749140	-0.568284
Br120	Br	-0.296253	2.249140	-0.068284
H121	H	-0.271395	1.640388	-1.106236
H122	H	0.228605	2.140388	-0.606236
