data_functionalizedCrystal
_audit_creation_method	'MofGen! by Chris Wilmer'
_symmetry_space_group_name_H-M	'P1'
_symmetry_Int_Tables_number	1
_symmetry_cell_setting	triclinic
loop_
_symmetry_equiv_pos_as_xyz
  x,y,z
_cell_length_a	17.019282
_cell_length_b	17.019448
_cell_length_c	16.776229
_cell_angle_alpha	93.868189
_cell_angle_beta	93.874081
_cell_angle_gamma	83.132058
loop_
_atom_site_label
_atom_site_type_symbol
_atom_site_fract_x
_atom_site_fract_y
_atom_site_fract_z
O1	O	1.046574	0.100440	0.012465
O2	O	0.816896	0.113267	-0.002429
O3	O	0.938135	-0.007983	-0.002410
O4	O	0.925335	0.221690	0.012446
O5	O	0.938119	-0.007990	0.130165
O6	O	0.816880	0.113260	0.130146
O7	O	1.046558	0.100432	0.145040
Zn8	Zn	0.931716	0.106845	0.158642
Zn9	Zn	0.931737	0.106855	-0.016031
O10	O	0.925319	0.221682	0.145021
C11	C	0.787499	0.112779	0.061807
C12	C	0.699931	0.111327	0.055694
C13	C	0.937639	-0.037374	0.061829
C14	C	0.936175	-0.124940	0.055724
C15	C	0.658787	0.110638	0.125090
C16	C	0.576508	0.109261	0.119347
C17	C	0.535375	0.108577	0.044208
C18	C	0.576525	0.109264	-0.025194
C19	C	0.658802	0.110635	-0.019451
C20	C	0.286951	0.104431	0.023252
C21	C	0.204667	0.103061	0.017514
C22	C	0.204657	0.103057	0.162056
C23	C	0.286935	0.104434	0.167792
C24	C	0.328078	0.105115	0.098390
C25	C	0.451273	0.107172	0.038336
C26	C	0.412180	0.106515	0.104262
C27	C	0.927971	-0.620203	0.017490
C28	C	0.929339	-0.537924	0.023242
C29	C	0.930007	-0.496805	0.098384
C30	C	0.929317	-0.537969	0.167779
C31	C	0.927955	-0.620247	0.162027
C32	C	0.934123	-0.248382	0.119367
C33	C	0.935482	-0.166098	0.125114
C34	C	0.935506	-0.166059	-0.019424
C35	C	0.934139	-0.248338	-0.025170
C36	C	0.933453	-0.289495	0.044226
C37	C	0.931402	-0.412703	0.104265
C38	C	0.932064	-0.373596	0.038344
C39	C	1.075955	0.100920	0.080802
C40	C	1.163523	0.102373	0.086910
C41	C	0.925815	0.251074	0.080780
C42	C	0.927278	0.338639	0.086880
N43	N	0.931708	0.106838	0.277852
N44	N	0.931752	0.106856	-0.135241
C45	C	0.985409	0.053170	0.319580
C46	C	0.985413	0.053169	0.403033
C47	C	0.931720	0.106841	0.444756
C48	C	0.878013	0.160511	0.403022
C49	C	0.878005	0.160507	0.319570
C50	C	0.878041	0.160526	0.739572
C51	C	0.878055	0.160527	0.823030
C52	C	0.985449	0.053189	0.823034
C53	C	0.985441	0.053185	0.739583
C54	C	0.931732	0.106852	0.697856
C55	C	0.931727	0.106851	0.607367
C56	C	0.931728	0.106846	0.535244
H57	H	0.543014	0.108687	0.175856
N58	N	0.931398	-0.415596	-0.038409
N59	N	0.986221	-0.468828	-0.054423
H60	H	0.985750	-0.498497	-0.108631
N61	N	1.040306	-0.001650	0.865645
N62	N	1.088242	-0.049566	0.828381
H63	H	1.126986	-0.088295	0.858472
N64	N	0.823172	0.215344	0.445637
N65	N	0.824168	0.288255	0.441370
H66	H	0.785436	0.326984	0.471465
N67	N	1.040259	-0.001678	0.445633
N68	N	1.039243	-0.074583	0.431227
H69	H	1.077978	-0.113330	0.461305
H70	H	1.029166	0.009483	0.705615
H71	H	0.931945	-0.379214	0.165446
H72	H	0.933565	-0.281882	0.175874
H73	H	0.834276	0.204208	0.285596
N74	N	0.927250	-0.662279	0.232915
N75	N	0.927847	-0.625559	0.300003
H76	H	0.927351	-0.655243	0.350071
N77	N	0.328974	0.105105	-0.047638
N78	N	0.382208	0.050279	-0.063859
H79	H	0.411888	0.050747	-0.113931
N80	N	0.823200	0.215360	0.865638
N81	N	0.775249	0.263272	0.828374
H82	H	0.736510	0.301997	0.858466
N83	N	1.040245	-0.001656	0.276952
N84	N	1.040232	-0.001656	0.202442
H85	H	1.078959	-0.040380	0.172335
H86	H	0.834311	0.204225	0.705605
N87	N	0.409253	0.106495	-0.038415
N88	N	0.411105	0.162231	-0.082856
H89	H	0.381427	0.161751	-0.137062
N90	N	0.700801	0.111360	0.201843
N91	N	0.684271	0.166787	0.252888
H92	H	0.713943	0.167299	0.307097
N93	N	0.328940	0.105111	0.244551
N94	N	0.292196	0.104480	0.306507
H95	H	0.321863	0.104952	0.360719
N96	N	0.930030	-0.495878	-0.047638
N97	N	0.875216	-0.442632	-0.063868
H98	H	0.875704	-0.412935	-0.113929
N99	N	0.162617	0.102362	0.232935
N100	N	0.089155	0.101139	0.227802
H101	H	0.059464	0.100646	0.277863
N102	N	0.933495	-0.290355	-0.101918
N103	N	0.932298	-0.363818	-0.107042
H104	H	0.931851	-0.393496	-0.161245
N105	N	0.162661	0.102362	-0.059250
N106	N	0.199404	0.102969	-0.121209
H107	H	0.169738	0.102475	-0.175421
H108	H	0.543028	0.108702	-0.086374
N109	N	0.927280	-0.662188	-0.059274
N110	N	0.927899	-0.625426	-0.121223
H111	H	0.927412	-0.655075	-0.175440
H112	H	0.692300	0.111197	-0.075960
H113	H	0.936065	-0.132540	-0.075922
N114	N	0.454208	0.107225	0.181005
N115	N	0.492786	0.163569	0.203620
H116	H	0.522477	0.164074	0.257819
N117	N	0.936155	-0.124105	0.201880
N118	N	0.935536	-0.160860	0.263834
H119	H	0.936007	-0.131202	0.318047
N120	N	0.930010	-0.495959	0.244530
N121	N	0.931226	-0.422497	0.249658
H122	H	0.931714	-0.392827	0.303864
