data_functionalizedCrystal
_audit_creation_method	'MofGen! by Chris Wilmer'
_symmetry_space_group_name_H-M	'P1'
_symmetry_Int_Tables_number	1
_symmetry_cell_setting	triclinic
loop_
_symmetry_equiv_pos_as_xyz
  x,y,z
_cell_length_a	8.497374
_cell_length_b	13.033808
_cell_length_c	13.032721
_cell_angle_alpha	103.361820
_cell_angle_beta	97.169095
_cell_angle_gamma	97.168694
loop_
_atom_site_label
_atom_site_type_symbol
_atom_site_fract_x
_atom_site_fract_y
_atom_site_fract_z
Zn1	Zn	0.632907	-1.569941	0.216484
Zn2	Zn	1.132907	-1.069941	0.716484
Zn3	Zn	0.407474	-1.547310	0.394083
Zn4	Zn	0.907474	-1.047310	0.894083
Zn5	Zn	0.407453	-1.392368	0.239060
Zn6	Zn	0.907453	-0.892368	0.739060
Zn7	Zn	0.709529	-1.369719	0.416670
Zn8	Zn	1.209529	-0.869719	0.916670
O9	O	0.539341	-1.469834	0.316574
O10	O	1.039341	-0.969834	0.816574
O11	O	0.570944	-1.715575	0.221142
O12	O	1.070944	-1.215575	0.721142
O13	O	0.186706	-1.526764	0.373514
O14	O	0.686706	-1.026764	0.873514
O15	O	0.405284	-1.434874	0.087410
O16	O	0.905284	-0.934874	0.587410
O17	O	0.405320	-1.698948	0.351623
O18	O	0.905320	-1.198948	0.851623
O19	O	0.570924	-1.565335	0.070823
O20	O	1.070924	-1.065335	0.570823
O21	O	0.186691	-1.412929	0.259620
O22	O	0.686691	-0.912929	0.759620
O23	O	0.479582	-1.240727	0.281521
O24	O	0.979582	-0.740727	0.781521
O25	O	0.920130	-1.396271	0.390119
O26	O	1.420130	-0.896271	0.890119
O27	O	0.701516	-1.224087	0.412010
O28	O	1.201516	-0.724087	0.912010
O29	O	0.863835	-1.543373	0.243044
O30	O	1.363835	-1.043373	0.743044
O31	O	0.479618	-1.504802	0.545735
O32	O	0.979618	-1.004802	1.045735
O33	O	0.701537	-1.374327	0.562329
O34	O	1.201537	-0.874327	1.062329
C35	C	0.598863	-1.193867	0.351667
C36	C	1.098863	-0.693867	0.851667
C37	C	0.624369	-1.075803	0.366706
C38	C	1.124369	-0.575803	0.866706
C39	C	0.598922	-1.434680	0.592573
C40	C	1.098922	-0.934680	1.092573
C41	C	0.624443	-1.419737	0.710634
C42	C	1.124443	-0.919737	1.210634
C43	C	0.479587	-1.746879	0.281345
C44	C	0.979587	-1.246879	0.781345
C45	C	0.454124	-1.864940	0.266332
C46	C	0.954124	-1.364940	0.766332
C47	C	0.950823	-1.469826	0.316577
C48	C	1.450823	-0.969826	0.816577
C49	C	1.129469	-1.469827	0.316588
C50	C	1.629469	-0.969827	0.816588
C51	C	0.479554	-1.505155	0.039494
C52	C	0.979554	-1.005155	0.539494
C53	C	0.454077	-1.520207	-0.078581
C54	C	0.954077	-1.020207	0.421419
C55	C	0.552424	-0.909361	0.324286
C56	C	1.052424	-0.409361	0.824286
C57	C	0.526056	-1.031386	0.308744
C58	C	1.026056	-0.531386	0.808744
C59	C	0.526080	-1.477689	0.755017
C60	C	1.026080	-0.977689	1.255017
C61	C	0.552455	-1.462247	0.877039
C62	C	1.052455	-0.962247	1.377039
H63	H	0.656097	-0.857053	0.385414
H64	H	1.156097	-0.357053	0.885414
H65	H	0.350440	-0.917246	0.205212
H66	H	0.850440	-0.417246	0.705212
Br67	Br	0.353224	-1.118553	0.206868
Br68	Br	0.853224	-0.618553	0.706868
Br69	Br	0.797367	-1.317993	0.797857
Br70	Br	1.297367	-0.817993	1.297857
H71	H	0.728054	-1.023501	0.427836
H72	H	1.228054	-0.523501	0.927836
Br73	Br	0.353180	-1.579453	0.667792
Br74	Br	0.853180	-1.079453	1.167792
Br75	Br	0.281166	-1.621973	0.834200
Br76	Br	0.781166	-1.121973	1.334200
H77	H	0.656206	-1.401200	0.929374
H78	H	1.156206	-0.901200	1.429374
