data_functionalizedCrystal
_audit_creation_method	'MofGen! by Chris Wilmer'
_symmetry_space_group_name_H-M	'P1'
_symmetry_Int_Tables_number	1
_symmetry_cell_setting	triclinic
loop_
_symmetry_equiv_pos_as_xyz
  x,y,z
_cell_length_a	12.811457
_cell_length_b	11.792241
_cell_length_c	11.295501
_cell_angle_alpha	94.573551
_cell_angle_beta	89.163056
_cell_angle_gamma	84.118185
loop_
_atom_site_label
_atom_site_type_symbol
_atom_site_fract_x
_atom_site_fract_y
_atom_site_fract_z
O1	O	1.390253	0.149328	-0.051112
O2	O	1.086866	0.168220	-0.018346
O3	O	1.245921	-0.006466	-0.035532
O4	O	1.231198	0.324015	-0.033925
O5	O	1.233303	-0.020075	-0.232221
O6	O	1.074248	0.154611	-0.215034
O7	O	1.377635	0.135719	-0.247801
Cu8	Cu	1.224789	0.143923	-0.249377
Cu9	Cu	1.239712	0.160017	-0.016770
O10	O	1.218580	0.310406	-0.230614
C11	C	1.041717	0.160775	-0.112495
C12	C	0.925986	0.158851	-0.099996
C13	C	0.694757	0.140376	-0.290964
C14	C	0.586017	0.138567	-0.279226
C15	C	0.599764	0.153417	-0.064784
C16	C	0.708504	0.155226	-0.076522
C17	C	0.755997	0.148706	-0.189615
C18	C	0.864738	0.150523	-0.201352
C19	C	0.878484	0.165365	0.013089
C20	C	0.769743	0.163556	0.024826
C21	C	1.238688	-0.055553	-0.133776
C22	C	1.235919	-0.181540	-0.133476
C23	C	1.230830	-0.412203	-0.132907
C24	C	1.233658	-0.283846	-0.133223
C25	C	1.422784	0.143165	-0.153648
C26	C	1.538516	0.145089	-0.166140
C27	C	1.225814	0.359493	-0.132367
C28	C	1.228583	0.485481	-0.132660
N29	N	1.214301	0.132602	-0.412981
C30	C	1.325696	0.252876	-0.674296
C31	C	1.317778	0.244311	-0.798105
C32	C	1.190554	0.106903	-0.784410
C33	C	1.198472	0.115468	-0.660602
C34	C	1.266044	0.188458	-0.605549
C35	C	1.273955	0.197027	-0.481737
C36	C	1.146738	0.059614	-0.468046
C37	C	1.138820	0.051049	-0.591854
N38	N	1.250208	0.171329	0.146834
H39	H	0.928356	0.172155	0.095614
H40	H	0.731061	0.168858	0.116904
C41	C	1.383388	0.315190	-0.873721
N42	N	1.432805	0.368583	-0.930675
C43	C	1.064490	-0.029231	-0.652427
N44	N	1.008499	-0.089694	-0.698048
C45	C	0.747001	0.133212	-0.415366
N46	N	0.786349	0.127814	-0.509068
C47	C	0.518656	0.129413	-0.390717
N48	N	0.467919	0.122520	-0.474697
H49	H	0.561078	0.158706	0.027291
H50	H	0.903404	0.145221	-0.293439
H51	H	1.135551	0.047466	-0.829258
H52	H	1.328971	0.256464	-0.436914
H53	H	1.380705	0.312318	-0.629470
C54	C	1.081048	-0.011177	-0.392406
N55	N	1.031546	-0.064465	-0.335430
