data_functionalizedCrystal
_audit_creation_method	'MofGen! by Chris Wilmer'
_symmetry_space_group_name_H-M	'P1'
_symmetry_Int_Tables_number	1
_symmetry_cell_setting	triclinic
loop_
_symmetry_equiv_pos_as_xyz
  x,y,z
_cell_length_a	17.038278
_cell_length_b	9.065218
_cell_length_c	7.540329
_cell_angle_alpha	90.001757
_cell_angle_beta	89.996922
_cell_angle_gamma	91.936807
loop_
_atom_site_label
_atom_site_type_symbol
_atom_site_fract_x
_atom_site_fract_y
_atom_site_fract_z
O1	O	1.039680	-0.320630	-0.147484
O2	O	0.812013	-0.315542	-0.147485
O3	O	0.930552	-0.103916	-0.147481
O4	O	0.921141	-0.532257	-0.147488
O5	O	0.930545	-0.103912	0.147484
O6	O	0.812006	-0.315539	0.147480
O7	O	1.039673	-0.320626	0.147481
Cu8	Cu	0.925839	-0.318082	0.174413
Cu9	Cu	0.925847	-0.318087	-0.174417
O10	O	0.921134	-0.532253	0.147477
C11	C	0.782848	-0.310910	-0.000003
C12	C	0.695955	-0.297096	-0.000003
C13	C	0.204930	-0.212226	-0.000008
C14	C	0.286575	-0.225217	0.000002
C15	C	0.319018	-0.365058	-0.000008
C16	C	0.269812	-0.491915	-0.000011
C17	C	0.188169	-0.478921	-0.000009
C18	C	0.565107	-0.410959	-0.000004
C19	C	0.646755	-0.423943	-0.000011
C20	C	0.663512	-0.157244	0.000005
C21	C	0.581868	-0.144264	-0.000003
C22	C	0.532669	-0.271120	0.000003
C23	C	0.402471	-0.378341	-0.000003
C24	C	0.449217	-0.257836	0.000011
C25	C	0.929644	-0.048837	-0.000001
C26	C	0.926940	0.115278	-0.000010
C27	C	1.068838	-0.325258	-0.000005
C28	C	1.155731	-0.339073	-0.000017
C29	C	0.922042	-0.587332	-0.000007
C30	C	0.924746	-0.751446	-0.000010
N31	N	0.925838	-0.318079	0.419762
N32	N	0.925854	-0.318079	-0.419766
H33	H	0.422799	-0.143979	-0.000001
C34	C	0.510999	-0.550504	-0.000006
C35	C	0.515317	-0.662294	-0.153182
C36	C	0.461207	-0.801849	-0.153182
C37	C	0.402779	-0.829613	-0.000006
C38	C	0.398458	-0.717820	0.153183
C39	C	0.452568	-0.578265	0.153183
H40	H	0.558571	-0.641744	-0.266583
H41	H	0.464406	-0.884606	-0.266583
H42	H	0.362723	-0.932920	-0.000006
H43	H	0.355204	-0.738370	0.266583
H44	H	0.449370	-0.495509	0.266584
C45	C	0.169248	-0.058396	0.000004
C46	C	0.115431	-0.012775	-0.153160
C47	C	0.079752	0.141059	-0.153142
C48	C	0.097888	0.249271	0.000041
C49	C	0.151707	0.203651	0.153216
C50	C	0.187387	0.049818	0.153197
H51	H	0.102003	-0.092882	-0.266565
H52	H	0.039911	0.174828	-0.266533
H53	H	0.071476	0.363147	0.000054
H54	H	0.165135	0.283759	0.266621
H55	H	0.227227	0.016048	0.266588
H56	H	0.673167	-0.537823	0.000006
H57	H	0.326630	-0.121924	0.000016
H58	H	0.555459	-0.030391	0.000006
C59	C	0.717632	-0.017710	0.000017
C60	C	0.776059	0.010027	0.153190
C61	C	0.830179	0.149569	0.153209
C62	C	0.825872	0.261373	0.000054
C63	C	0.767443	0.233639	-0.153131
C64	C	0.713323	0.094098	-0.153150
H65	H	0.779249	-0.072740	0.266575
H66	H	0.873432	0.170099	0.266608
H67	H	0.865935	0.364670	0.000068
H68	H	0.764253	0.316406	-0.266516
H69	H	0.670070	0.073568	-0.266548
H70	H	0.296234	-0.605776	-0.000009
H71	H	0.148111	-0.582215	-0.000009
H72	H	0.428895	-0.492200	-0.000017
