data_functionalizedCrystal
_audit_creation_method	'MofGen! by Chris Wilmer'
_symmetry_space_group_name_H-M	'P1'
_symmetry_Int_Tables_number	1
_symmetry_cell_setting	triclinic
loop_
_symmetry_equiv_pos_as_xyz
  x,y,z
_cell_length_a	23.532355
_cell_length_b	16.992695
_cell_length_c	15.455313
_cell_angle_alpha	87.152573
_cell_angle_beta	87.341931
_cell_angle_gamma	93.252139
loop_
_atom_site_label
_atom_site_type_symbol
_atom_site_fract_x
_atom_site_fract_y
_atom_site_fract_z
O1	O	0.762326	-0.091511	-0.072013
O2	O	1.012326	0.158489	0.177987
O3	O	1.262326	0.408489	0.427987
O4	O	1.512326	0.658489	0.677987
O5	O	0.597145	-0.105320	-0.072041
O6	O	0.847145	0.144680	0.177959
O7	O	1.097145	0.394680	0.427959
O8	O	1.347145	0.644680	0.677959
O9	O	0.679073	0.015722	-0.072020
O10	O	0.929073	0.265722	0.177980
O11	O	1.179073	0.515722	0.427980
O12	O	1.429073	0.765722	0.677980
O13	O	0.680398	-0.212552	-0.072033
O14	O	0.930398	0.037448	0.177967
O15	O	1.180398	0.287448	0.427967
O16	O	1.430398	0.537448	0.677967
O17	O	0.674387	0.008828	0.072241
O18	O	0.924387	0.258828	0.322241
O19	O	1.174387	0.508828	0.572241
O20	O	1.424387	0.758828	0.822241
O21	O	0.592458	-0.112213	0.072220
O22	O	0.842458	0.137787	0.322220
O23	O	1.092458	0.387787	0.572220
O24	O	1.342458	0.637787	0.822220
O25	O	0.757640	-0.098405	0.072248
O26	O	1.007640	0.151595	0.322248
O27	O	1.257640	0.401595	0.572248
O28	O	1.507640	0.651595	0.822248
Cu29	Cu	0.674621	-0.105938	0.085406
Cu30	Cu	0.924621	0.144062	0.335406
Cu31	Cu	1.174621	0.394062	0.585406
Cu32	Cu	1.424621	0.644062	0.835406
Cu33	Cu	0.680163	-0.097786	-0.085199
Cu34	Cu	0.930163	0.152214	0.164801
Cu35	Cu	1.180163	0.402214	0.414801
Cu36	Cu	1.430163	0.652214	0.664801
O37	O	0.675712	-0.219446	0.072227
O38	O	0.925712	0.030554	0.322227
O39	O	1.175712	0.280554	0.572227
O40	O	1.425712	0.530554	0.822227
C41	C	0.573568	-0.108421	0.000086
C42	C	0.823568	0.141579	0.250086
C43	C	1.073568	0.391579	0.500086
C44	C	1.323568	0.641579	0.750086
C45	C	0.510298	-0.107383	0.000076
C46	C	0.760298	0.142617	0.250076
C47	C	1.010298	0.392617	0.500076
C48	C	1.260298	0.642617	0.750076
C49	C	0.115405	-0.104621	0.078749
C50	C	0.365405	0.145379	0.328749
C51	C	0.615405	0.395379	0.578749
C52	C	0.865405	0.645379	0.828749
C53	C	0.055957	-0.103634	0.078753
C54	C	0.305957	0.146366	0.328753
C55	C	0.555957	0.396366	0.578753
C56	C	0.805957	0.646366	0.828753
O57	O	0.023039	-0.106292	0.145629
O58	O	0.273039	0.143708	0.395629
O59	O	0.523039	0.393708	0.645629
O60	O	0.773039	0.643708	0.895629
N61	N	0.028778	-0.099387	0.000117
N62	N	0.278778	0.150613	0.250117
N63	N	0.528778	0.400613	0.500117
N64	N	0.778778	0.650613	0.750117
C65	C	0.061052	-0.096119	-0.078528
C66	C	0.311052	0.153881	0.171472
C67	C	0.561052	0.403881	0.421472
C68	C	0.811052	0.653881	0.671472
O69	O	0.032476	-0.092415	-0.145414
O70	O	0.282476	0.157585	0.104586
O71	O	0.532476	0.407585	0.354586
O72	O	0.782476	0.657585	0.604586
C73	C	0.120500	-0.097100	-0.078531
C74	C	0.370500	0.152900	0.171469
C75	C	0.620500	0.402900	0.421469
C76	C	0.870500	0.652900	0.671469
C77	C	0.147675	-0.101356	0.000111
C78	C	0.397675	0.148644	0.250111
C79	C	0.647675	0.398644	0.500111
C80	C	0.897675	0.648644	0.750111
C81	C	0.142580	-0.108875	0.157384
C82	C	0.392580	0.141125	0.407384
C83	C	0.642580	0.391125	0.657384
C84	C	0.892580	0.641125	0.907384
C85	C	0.202024	-0.109864	0.157381
C86	C	0.452024	0.140136	0.407381
C87	C	0.702024	0.390136	0.657381
C88	C	0.952024	0.640136	0.907381
C89	C	0.234294	-0.106598	0.078742
C90	C	0.484294	0.143402	0.328742
C91	C	0.734294	0.393402	0.578742
C92	C	0.984294	0.643402	0.828742
C93	C	0.207119	-0.102344	0.000107
C94	C	0.457119	0.147656	0.250107
C95	C	0.707119	0.397656	0.500107
C96	C	0.957119	0.647656	0.750107
C97	C	0.152773	-0.093827	-0.157175
C98	C	0.402773	0.156173	0.092825
C99	C	0.652773	0.406173	0.342825
C100	C	0.902773	0.656173	0.592825
C101	C	0.212224	-0.094808	-0.157171
C102	C	0.462224	0.155192	0.092829
C103	C	0.712224	0.405192	0.342829
C104	C	0.962224	0.655192	0.592829
C105	C	0.239399	-0.099063	-0.078529
C106	C	0.489399	0.150937	0.171471
C107	C	0.739399	0.400937	0.421471
C108	C	0.989399	0.650937	0.671471
C109	C	0.298833	-0.100067	-0.078536
C110	C	0.548833	0.149933	0.171464
C111	C	0.798833	0.399933	0.421464
C112	C	1.048833	0.649933	0.671464
N113	N	0.326011	-0.104314	0.000101
N114	N	0.576011	0.145686	0.250101
N115	N	0.826011	0.395686	0.500101
N116	N	1.076011	0.645686	0.750101
C117	C	0.293742	-0.107580	0.078739
C118	C	0.543742	0.142420	0.328739
C119	C	0.793742	0.392420	0.578739
C120	C	1.043742	0.642420	0.828739
C121	C	-0.063792	-0.094056	-0.078517
C122	C	0.186208	0.155944	0.171483
C123	C	0.436208	0.405944	0.421483
C124	C	0.686208	0.655944	0.671483
C125	C	-0.123239	-0.093080	-0.078516
C126	C	0.126761	0.156920	0.171484
C127	C	0.376761	0.406920	0.421484
C128	C	0.626761	0.656920	0.671484
C129	C	-0.128330	-0.100594	0.078766
C130	C	0.121670	0.149406	0.328766
C131	C	0.371670	0.399406	0.578766
C132	C	0.621670	0.649406	0.828766
C133	C	-0.068883	-0.101575	0.078764
C134	C	0.181117	0.148425	0.328764
C135	C	0.431117	0.398425	0.578764
C136	C	0.681117	0.648425	0.828764
C137	C	-0.036614	-0.098303	0.000119
C138	C	0.213386	0.151697	0.250119
C139	C	0.463386	0.401697	0.500119
C140	C	0.713386	0.651697	0.750119
C141	C	0.418579	-0.109657	0.078726
C142	C	0.668579	0.140343	0.328726
C143	C	0.918579	0.390343	0.578726
C144	C	1.168579	0.640343	0.828726
C145	C	0.478029	-0.110648	0.078715
C146	C	0.728029	0.139352	0.328715
C147	C	0.978029	0.389352	0.578715
C148	C	1.228029	0.639352	0.828715
C149	C	0.483115	-0.103130	-0.078566
C150	C	0.733115	0.146870	0.171434
C151	C	0.983115	0.396870	0.421434
C152	C	1.233115	0.646870	0.671434
C153	C	0.423671	-0.102143	-0.078556
C154	C	0.673671	0.147857	0.171444
C155	C	0.923671	0.397857	0.421444
C156	C	1.173671	0.647857	0.671444
C157	C	0.391404	-0.105404	0.000097
C158	C	0.641404	0.144596	0.250097
C159	C	0.891404	0.394596	0.500097
C160	C	1.141404	0.644596	0.750097
O161	O	0.331787	-0.097408	-0.145378
O162	O	0.581787	0.152592	0.104622
O163	O	0.831787	0.402592	0.354622
O164	O	1.081787	0.652592	0.604622
O165	O	0.322326	-0.111273	0.145614
O166	O	0.572326	0.138727	0.395614
O167	O	0.822326	0.388727	0.645614
O168	O	1.072326	0.638727	0.895614
C169	C	0.675026	0.041474	0.000110
C170	C	0.925026	0.291474	0.250110
C171	C	1.175026	0.541474	0.500110
C172	C	1.425026	0.791474	0.750110
C173	C	0.669943	0.128477	0.000109
C174	C	0.919943	0.378477	0.250109
C175	C	1.169943	0.628477	0.500109
C176	C	1.419943	0.878477	0.750109
C177	C	0.781217	-0.095303	0.000119
C178	C	1.031217	0.154697	0.250119
C179	C	1.281217	0.404697	0.500119
C180	C	1.531217	0.654697	0.750119
C181	C	0.844487	-0.096341	0.000124
C182	C	1.094487	0.153659	0.250124
C183	C	1.344487	0.403659	0.500124
C184	C	1.594487	0.653659	0.750124
C185	C	0.679758	-0.245198	0.000095
C186	C	0.929758	0.004802	0.250095
C187	C	1.179758	0.254802	0.500095
C188	C	1.429758	0.504802	0.750095
C189	C	0.684842	-0.332201	0.000091
C190	C	0.934842	-0.082201	0.250091
C191	C	1.184842	0.167799	0.500091
C192	C	1.434842	0.417799	0.750091
N193	N	0.670727	-0.111672	0.205401
N194	N	0.920727	0.138328	0.455401
N195	N	1.170727	0.388328	0.705401
N196	N	1.420727	0.638328	0.955401
C197	C	0.718990	0.179112	0.000118
C198	C	0.968990	0.429112	0.250118
C199	C	1.218990	0.679112	0.500118
C200	C	1.468990	0.929112	0.750118
C201	C	0.714210	0.260860	0.000109
C202	C	0.964210	0.510860	0.250109
C203	C	1.214210	0.760860	0.500109
C204	C	1.464210	1.010860	0.750109
C205	C	0.660383	0.291972	0.000097
C206	C	0.910383	0.541972	0.250097
C207	C	1.160383	0.791972	0.500097
C208	C	1.410383	1.041972	0.750097
C209	C	0.611333	0.241331	0.000086
C210	C	0.861333	0.491331	0.250086
C211	C	1.111333	0.741331	0.500086
C212	C	1.361333	0.991331	0.750086
C213	C	0.616113	0.159585	0.000088
C214	C	0.866113	0.409585	0.250088
C215	C	1.116113	0.659585	0.500088
C216	C	1.366113	0.909585	0.750088
C217	C	0.640572	0.535411	0.000082
C218	C	0.890572	0.785411	0.250082
C219	C	1.140572	1.035411	0.500082
C220	C	1.390572	1.285411	0.750082
C221	C	0.635795	0.617164	0.000082
C222	C	0.885795	0.867164	0.250082
C223	C	1.135795	1.117164	0.500082
C224	C	1.385795	1.367164	0.750082
C225	C	0.738673	0.636688	0.000104
C226	C	0.988673	0.886688	0.250104
C227	C	1.238673	1.136688	0.500104
C228	C	1.488673	1.386688	0.750104
C229	C	0.743448	0.554938	0.000112
C230	C	0.993448	0.804938	0.250112
C231	C	1.243448	1.054938	0.500112
C232	C	1.493448	1.304938	0.750112
C233	C	0.694398	0.504305	0.000096
C234	C	0.944398	0.754305	0.250096
C235	C	1.194398	1.004305	0.500096
C236	C	1.444398	1.254305	0.750096
N237	N	0.655497	0.375532	0.000091
N238	N	0.905497	0.625532	0.250091
N239	N	1.155497	0.875532	0.500091
N240	N	1.405497	1.125532	0.750091
N241	N	0.699285	0.420747	0.000096
N242	N	0.949285	0.670747	0.250096
N243	N	1.199285	0.920747	0.500096
N244	N	1.449285	1.170747	0.750096
N245	N	0.684061	-0.092047	-0.205193
N246	N	0.934061	0.157953	0.044807
N247	N	1.184061	0.407953	0.294807
N248	N	1.434061	0.657953	0.544807
C249	C	0.705547	-0.060268	0.250804
C250	C	0.955547	0.189732	0.500804
C251	C	1.205547	0.439732	0.750804
C252	C	1.455547	0.689732	1.000804
C253	C	0.702608	-0.064611	0.341611
C254	C	0.952608	0.185389	0.591611
C255	C	1.202608	0.435389	0.841611
C256	C	1.452608	0.685389	1.091611
C257	C	0.664851	-0.120362	0.387014
C258	C	0.914851	0.129638	0.637014
C259	C	1.164851	0.379638	0.887014
C260	C	1.414851	0.629638	1.137014
C261	C	0.630028	-0.171768	0.341604
C262	C	0.880028	0.078232	0.591604
C263	C	1.130028	0.328232	0.841604
C264	C	1.380028	0.578232	1.091604
C265	C	0.632965	-0.167421	0.250799
C266	C	0.882965	0.082579	0.500799
C267	C	1.132965	0.332579	0.750799
C268	C	1.382965	0.582579	1.000799
C269	C	0.652175	-0.139105	0.658592
C270	C	0.902175	0.110895	0.908592
C271	C	1.152175	0.360895	1.158592
C272	C	1.402175	0.610895	1.408592
C273	C	0.649242	-0.143450	0.749404
C274	C	0.899242	0.106550	0.999404
C275	C	1.149242	0.356550	1.249404
C276	C	1.399242	0.606550	1.499404
C277	C	0.721821	-0.036292	0.749404
C278	C	0.971821	0.213708	0.999404
C279	C	1.221821	0.463708	1.249404
C280	C	1.471821	0.713708	1.499404
C281	C	0.724757	-0.031952	0.658597
C282	C	0.974757	0.218048	0.908597
C283	C	1.224757	0.468048	1.158597
C284	C	1.474757	0.718048	1.408597
C285	C	0.689931	-0.083356	0.613196
C286	C	0.939931	0.166644	0.863196
C287	C	1.189931	0.416644	1.113196
C288	C	1.439931	0.666644	1.363196
N289	N	0.661847	-0.124804	0.479833
N290	N	0.911847	0.125196	0.729833
N291	N	1.161847	0.375196	0.979833
N292	N	1.411847	0.625196	1.229833
N293	N	0.692933	-0.078909	0.520378
N294	N	0.942933	0.171091	0.770378
N295	N	1.192933	0.421091	1.020378
N296	N	1.442933	0.671091	1.270378
H297	H	-0.145360	-0.089627	-0.142553
H298	H	0.104640	0.160373	0.107447
H299	H	0.354640	0.410373	0.357447
H300	H	0.604640	0.660373	0.607447
H301	H	0.730960	-0.022753	0.378578
H302	H	0.980960	0.227247	0.628578
H303	H	1.230960	0.477247	0.878578
H304	H	1.480960	0.727247	1.128578
H305	H	0.599283	-0.217159	0.378576
H306	H	0.849283	0.032841	0.628576
H307	H	1.099283	0.282841	0.878576
H308	H	1.349283	0.532841	1.128576
H309	H	0.755501	0.013445	0.621632
H310	H	1.005501	0.263445	0.871632
H311	H	1.255501	0.513445	1.121632
H312	H	1.505501	0.763445	1.371632
H313	H	0.736295	-0.014872	0.213843
H314	H	0.986295	0.235128	0.463843
H315	H	1.236295	0.485128	0.713843
H316	H	1.486295	0.735128	0.963843
H317	H	0.778607	0.677922	0.000115
H318	H	1.028607	0.927922	0.250115
H319	H	1.278607	1.177922	0.500115
H320	H	1.528607	1.427922	0.750115
H321	H	0.623819	-0.180962	0.621633
H322	H	0.873819	0.069038	0.871633
H323	H	1.123819	0.319038	1.121633
H324	H	1.373819	0.569038	1.371633
H325	H	0.787279	0.529614	0.000122
H326	H	1.037279	0.779614	0.250122
H327	H	1.287279	1.029614	0.500122
H328	H	1.537279	1.279614	0.750122
H329	H	-0.046761	-0.105041	0.142800
H330	H	0.203239	0.144959	0.392800
H331	H	0.453239	0.394959	0.642800
H332	H	0.703239	0.644959	0.892800
H333	H	0.750174	0.005559	0.786378
H334	H	1.000174	0.255559	1.036378
H335	H	1.250174	0.505559	1.286378
H336	H	1.500174	0.755559	1.536378
H337	H	0.604610	-0.209278	0.213833
H338	H	0.854610	0.040722	0.463833
H339	H	1.104610	0.290722	0.713833
H340	H	1.354610	0.540722	0.963833
H341	H	0.224145	-0.113324	0.221419
H342	H	0.474145	0.136676	0.471419
H343	H	0.724145	0.386676	0.721419
H344	H	0.974145	0.636676	0.971419
H345	H	0.591960	0.642491	0.000086
H346	H	0.841960	0.892491	0.250086
H347	H	1.091960	1.142491	0.500086
H348	H	1.341960	1.392491	0.750086
H349	H	0.500151	-0.114116	0.142757
H350	H	0.750151	0.135884	0.392757
H351	H	1.000151	0.385884	0.642757
H352	H	1.250151	0.635884	0.892757
H353	H	0.600631	0.494195	0.000069
H354	H	0.850631	0.744195	0.250069
H355	H	1.100631	0.994195	0.500069
H356	H	1.350631	1.244195	0.750069
H357	H	0.754149	0.302084	0.000118
H358	H	1.004149	0.552084	0.250118
H359	H	1.254149	0.802084	0.500118
H360	H	1.504149	1.052084	0.750118
H361	H	0.392314	-0.112319	0.142772
H362	H	0.642314	0.137681	0.392772
H363	H	0.892314	0.387681	0.642772
H364	H	1.142314	0.637681	0.892772
H365	H	0.401543	-0.098690	-0.142592
H366	H	0.651543	0.151310	0.107408
H367	H	0.901543	0.401310	0.357408
H368	H	1.151543	0.651310	0.607408
H369	H	-0.037522	-0.091398	-0.142563
H370	H	0.212478	0.158602	0.107437
H371	H	0.462478	0.408602	0.357437
H372	H	0.712478	0.658602	0.607437
H373	H	-0.154615	-0.103251	0.142798
H374	H	0.095385	0.146749	0.392798
H375	H	0.345385	0.396749	0.642798
H376	H	0.595385	0.646749	0.892798
H377	H	0.567506	0.266669	0.000070
H378	H	0.817506	0.516669	0.250070
H379	H	1.067506	0.766669	0.500070
H380	H	1.317506	1.016669	0.750070
H381	H	0.130658	-0.090360	-0.221213
H382	H	0.380658	0.159640	0.028787
H383	H	0.630658	0.409640	0.278787
H384	H	0.880658	0.659640	0.528787
H385	H	0.238495	-0.092144	-0.221214
H386	H	0.488495	0.157856	0.028786
H387	H	0.738495	0.407856	0.278786
H388	H	0.988495	0.657856	0.528786
H389	H	0.762821	0.153787	0.000133
H390	H	1.012821	0.403787	0.250133
H391	H	1.262821	0.653787	0.500133
H392	H	1.512821	0.903787	0.750133
H393	H	0.576174	0.118358	0.000081
H394	H	0.826174	0.368358	0.250081
H395	H	1.076174	0.618358	0.500081
H396	H	1.326174	0.868358	0.750081
H397	H	0.116312	-0.111533	0.221425
H398	H	0.366312	0.138467	0.471425
H399	H	0.616312	0.388467	0.721425
H400	H	0.866312	0.638467	0.971425
H401	H	0.509400	-0.100475	-0.142592
H402	H	0.759400	0.149525	0.107408
H403	H	1.009400	0.399525	0.357408
H404	H	1.259400	0.649525	0.607408
H405	H	0.618494	-0.188853	0.786366
H406	H	0.868494	0.061147	1.036366
H407	H	1.118494	0.311147	1.286366
H408	H	1.368494	0.561147	1.536366
