data_functionalizedCrystal
_audit_creation_method	'MofGen! by Chris Wilmer'
_symmetry_space_group_name_H-M	'P1'
_symmetry_Int_Tables_number	1
_symmetry_cell_setting	triclinic
loop_
_symmetry_equiv_pos_as_xyz
  x,y,z
_cell_length_a	16.109301
_cell_length_b	10.868271
_cell_length_c	11.792241
_cell_angle_alpha	89.998441
_cell_angle_beta	96.172552
_cell_angle_gamma	90.001623
loop_
_atom_site_label
_atom_site_type_symbol
_atom_site_fract_x
_atom_site_fract_y
_atom_site_fract_z
O1	O	1.103819	0.102245	-0.145881
O2	O	0.861842	0.102264	-0.164036
O3	O	0.988703	0.102246	0.010263
O4	O	0.976958	0.102264	-0.320181
O5	O	0.988691	-0.102399	0.010258
O6	O	0.861831	-0.102380	-0.164042
O7	O	1.103807	-0.102400	-0.145887
Zn8	Zn	0.982817	-0.134882	-0.154965
Zn9	Zn	0.982832	0.134746	-0.154958
O10	O	0.976947	-0.102381	-0.320186
C11	C	0.830858	-0.000055	-0.163304
C12	C	0.738552	-0.000048	-0.161099
C13	C	0.516743	-0.000057	-0.259398
C14	C	0.430012	-0.000065	-0.257318
C15	C	0.448914	-0.000071	-0.050517
C16	C	0.535642	-0.000072	-0.052599
C17	C	0.569554	-0.000059	-0.157043
C18	C	0.396095	-0.000066	-0.152880
C19	C	0.302059	-0.000075	-0.150624
C20	C	0.663597	-0.000052	-0.159300
N21	N	0.982813	-0.318896	-0.154970
C22	C	0.982819	-0.430233	-0.154970
C23	C	0.982830	-0.569911	-0.154959
C24	C	1.134791	-0.000077	-0.146619
C25	C	1.227097	-0.000076	-0.148824
C26	C	0.987959	-0.000076	0.052545
C27	C	0.985751	-0.000075	0.178539
N28	N	0.982843	0.318761	-0.154944
C29	C	0.977690	-0.000056	-0.362468
C30	C	0.979898	-0.000050	-0.488462
C31	C	0.981691	-0.000054	0.409216
C32	C	0.983947	-0.000065	0.280850
H33	H	0.578644	-0.000077	0.030757
C34	C	0.412205	0.000122	0.062955
C35	C	0.439025	0.105391	0.124838
C36	C	0.405236	0.105608	0.229382
H37	H	0.352991	0.000191	0.049698
H38	H	0.430321	-0.071205	0.105164
H39	H	0.420904	0.176700	0.082638
H40	H	0.498234	0.105345	0.138126
H41	H	0.423352	0.034281	0.271591
H42	H	0.346024	0.105673	0.216113
H43	H	0.423435	0.177026	0.271386
H44	H	0.544351	-0.000055	-0.344443
H45	H	0.387016	-0.000066	-0.340666
