data_functionalizedCrystal
_audit_creation_method	'MofGen! by Chris Wilmer'
_symmetry_space_group_name_H-M	'P1'
_symmetry_Int_Tables_number	1
_symmetry_cell_setting	triclinic
loop_
_symmetry_equiv_pos_as_xyz
  x,y,z
_cell_length_a	16.625547
_cell_length_b	16.625545
_cell_length_c	16.625539
_cell_angle_alpha	90.028234
_cell_angle_beta	90.027058
_cell_angle_gamma	90.023223
loop_
_atom_site_label
_atom_site_type_symbol
_atom_site_fract_x
_atom_site_fract_y
_atom_site_fract_z
Zn1	Zn	-1.232672	0.321018	-0.456049
Zn2	Zn	-0.982672	0.571018	-0.206049
Zn3	Zn	-0.732672	0.821018	0.043951
Zn4	Zn	-0.482672	1.071018	0.293951
Zn5	Zn	-1.232571	0.455861	-0.321217
Zn6	Zn	-0.982571	0.705861	-0.071217
Zn7	Zn	-0.732571	0.955861	0.178783
Zn8	Zn	-0.482571	1.205861	0.428783
Zn9	Zn	-1.097834	0.321044	-0.321215
Zn10	Zn	-0.847834	0.571044	-0.071215
Zn11	Zn	-0.597834	0.821044	0.178785
Zn12	Zn	-0.347834	1.071044	0.428785
Zn13	Zn	-1.097800	0.455810	-0.455991
Zn14	Zn	-0.847800	0.705810	-0.205991
Zn15	Zn	-0.597800	0.955810	0.044009
Zn16	Zn	-0.347800	1.205810	0.294009
O17	O	-1.165219	0.388433	-0.388618
O18	O	-0.915219	0.638433	-0.138618
O19	O	-0.665219	0.888433	0.111382
O20	O	-0.415219	1.138433	0.361382
O21	O	-1.345491	0.338915	-0.438189
O22	O	-1.095491	0.588915	-0.188189
O23	O	-0.845491	0.838915	0.061811
O24	O	-0.595491	1.088915	0.311811
O25	O	-1.214670	0.438009	-0.208384
O26	O	-0.964670	0.688009	0.041616
O27	O	-0.714670	0.938009	0.291616
O28	O	-0.464670	1.188009	0.541616
O29	O	-1.115776	0.208208	-0.339124
O30	O	-0.865776	0.458208	-0.089124
O31	O	-0.615776	0.708208	0.160876
O32	O	-0.365776	0.958208	0.410876
O33	O	-1.345417	0.437984	-0.339128
O34	O	-1.095417	0.687984	-0.089128
O35	O	-0.845417	0.937984	0.160872
O36	O	-0.595417	1.187984	0.410872
O37	O	-1.214841	0.208189	-0.438187
O38	O	-0.964841	0.458189	-0.188187
O39	O	-0.714841	0.708189	0.061813
O40	O	-0.464841	0.958189	0.311813
O41	O	-1.115679	0.338960	-0.208382
O42	O	-0.865679	0.588960	0.041618
O43	O	-0.615679	0.838960	0.291618
O44	O	-0.365679	1.088960	0.541618
O45	O	-0.984997	0.338911	-0.339068
O46	O	-0.734997	0.588911	-0.089068
O47	O	-0.484997	0.838911	0.160932
O48	O	-0.234997	1.088911	0.410932
O49	O	-1.115719	0.437897	-0.568831
O50	O	-0.865719	0.687897	-0.318831
O51	O	-0.615719	0.937897	-0.068831
O52	O	-0.365719	1.187897	0.181169
O53	O	-0.984972	0.437923	-0.438088
O54	O	-0.734972	0.687923	-0.188088
O55	O	-0.484972	0.937923	0.061912
O56	O	-0.234972	1.187923	0.311912
O57	O	-1.214809	0.338866	-0.568874
O58	O	-0.964809	0.588866	-0.318874
O59	O	-0.714809	0.838866	-0.068874
O60	O	-0.464809	1.088866	0.181126
O61	O	-1.214638	0.568686	-0.339071
O62	O	-0.964638	0.818686	-0.089071
O63	O	-0.714638	1.068686	0.160929
O64	O	-0.464638	1.318686	0.410929
O65	O	-1.115622	0.568649	-0.438090
O66	O	-0.865622	0.818649	-0.188090
O67	O	-0.615622	1.068649	0.061910
O68	O	-0.365622	1.318649	0.311910
C69	C	-0.955728	0.388415	-0.388572
C70	C	-0.705728	0.638415	-0.138572
C71	C	-0.455728	0.888415	0.111428
C72	C	-0.205728	1.138415	0.361428
C73	C	-0.866107	0.388426	-0.388571
C74	C	-0.616107	0.638426	-0.138571
C75	C	-0.366107	0.888426	0.111429
C76	C	-0.116107	1.138426	0.361429
C77	C	-0.793325	0.388427	-0.388578
C78	C	-0.543325	0.638427	-0.138578
C79	C	-0.293325	0.888427	0.111422
C80	C	-0.043325	1.138427	0.361422
C81	C	-0.702016	0.388430	-0.388595
C82	C	-0.452016	0.638430	-0.138595
C83	C	-0.202016	0.888430	0.111405
C84	C	0.047984	1.138430	0.361405
C85	C	-0.629240	0.388436	-0.388612
C86	C	-0.379240	0.638436	-0.138612
C87	C	-0.129240	0.888436	0.111388
C88	C	0.120760	1.138436	0.361388
C89	C	-0.537926	0.388441	-0.388628
C90	C	-0.287926	0.638441	-0.138628
C91	C	-0.037926	0.888441	0.111372
C92	C	0.212074	1.138441	0.361372
C93	C	-1.165137	0.597924	-0.388592
C94	C	-0.915137	0.847924	-0.138592
C95	C	-0.665137	1.097924	0.111408
C96	C	-0.415137	1.347924	0.361408
C97	C	-1.165176	0.687545	-0.388608
C98	C	-0.915176	0.937545	-0.138608
C99	C	-0.665176	1.187545	0.111392
C100	C	-0.415176	1.437545	0.361392
C101	C	-0.375528	0.388449	-0.388655
C102	C	-0.125528	0.638449	-0.138655
C103	C	0.124472	0.888449	0.111345
C104	C	0.374472	1.138449	0.361345
C105	C	-0.465149	0.388447	-0.388646
C106	C	-0.215149	0.638447	-0.138646
C107	C	0.034851	0.888447	0.111354
C108	C	0.284851	1.138447	0.361354
C109	C	-1.165308	1.015721	-0.388704
C110	C	-0.915308	1.265721	-0.138704
C111	C	-0.665308	1.515721	0.111296
C112	C	-0.415308	1.765721	0.361296
C113	C	-1.165268	0.924412	-0.388680
C114	C	-0.915268	1.174412	-0.138680
C115	C	-0.665268	1.424412	0.111320
C116	C	-0.415268	1.674412	0.361320
C117	C	-1.165241	0.851636	-0.388656
C118	C	-0.915241	1.101636	-0.138656
C119	C	-0.665241	1.351636	0.111344
C120	C	-0.415241	1.601636	0.361344
C121	C	-1.165203	0.760321	-0.388632
C122	C	-0.915203	1.010321	-0.138632
C123	C	-0.665203	1.260321	0.111368
C124	C	-0.415203	1.510321	0.361368
C125	C	-1.165272	0.388373	-0.598927
C126	C	-0.915272	0.638373	-0.348927
C127	C	-0.665272	0.888373	-0.098927
C128	C	-0.415272	1.138373	0.151073
C129	C	-1.165294	0.388347	-0.688548
C130	C	-0.915294	0.638347	-0.438548
C131	C	-0.665294	0.888347	-0.188548
C132	C	-0.415294	1.138347	0.061452
C133	C	-1.165317	1.178124	-0.388671
C134	C	-0.915317	1.428124	-0.138671
C135	C	-0.665317	1.678124	0.111329
C136	C	-0.415317	1.928124	0.361329
C137	C	-1.165341	1.088503	-0.388718
C138	C	-0.915341	1.338503	-0.138718
C139	C	-0.665341	1.588503	0.111282
C140	C	-0.415341	1.838503	0.361282
C141	C	-1.165331	0.388257	-1.016724
C142	C	-0.915331	0.638257	-0.766724
C143	C	-0.665331	0.888257	-0.516724
C144	C	-0.415331	1.138257	-0.266724
C145	C	-1.165319	0.388285	-0.925416
C146	C	-0.915319	0.638285	-0.675416
C147	C	-0.665319	0.888285	-0.425416
C148	C	-0.415319	1.138285	-0.175416
C149	C	-1.165313	0.388303	-0.852639
C150	C	-0.915313	0.638303	-0.602639
C151	C	-0.665313	0.888303	-0.352639
C152	C	-0.415313	1.138303	-0.102639
C153	C	-1.165300	0.388329	-0.761325
C154	C	-0.915300	0.638329	-0.511325
C155	C	-0.665300	0.888329	-0.261325
C156	C	-0.415300	1.138329	-0.011325
C157	C	-1.165213	0.388435	-0.179127
C158	C	-0.915213	0.638435	0.070873
C159	C	-0.665213	0.888435	0.320873
C160	C	-0.415213	1.138435	0.570873
C161	C	-1.165347	0.388233	-0.089507
C162	C	-0.915347	0.638233	0.160493
C163	C	-0.665347	0.888233	0.410493
C164	C	-0.415347	1.138233	0.660493
