data_functionalizedCrystal
_audit_creation_method	'MofGen! by Chris Wilmer'
_symmetry_space_group_name_H-M	'P1'
_symmetry_Int_Tables_number	1
_symmetry_cell_setting	triclinic
loop_
_symmetry_equiv_pos_as_xyz
  x,y,z
_cell_length_a	14.519709
_cell_length_b	14.519709
_cell_length_c	13.596369
_cell_angle_alpha	90.000816
_cell_angle_beta	90.000208
_cell_angle_gamma	83.680144
loop_
_atom_site_label
_atom_site_type_symbol
_atom_site_fract_x
_atom_site_fract_y
_atom_site_fract_z
O1	O	-0.120893	-1.223868	0.081637
O2	O	0.212441	-0.890535	0.414971
O3	O	0.545774	-0.557202	0.748304
O4	O	-0.135129	-0.955392	0.081668
O5	O	0.198204	-0.622058	0.415002
O6	O	0.531537	-0.288725	0.748335
O7	O	0.006227	-1.096748	0.081661
O8	O	0.339561	-0.763415	0.414994
O9	O	0.672894	-0.430082	0.748328
O10	O	-0.262249	-1.082512	0.081645
O11	O	0.071084	-0.749178	0.414978
O12	O	0.404417	-0.415845	0.748311
O13	O	0.006235	-1.096734	-0.081922
O14	O	0.339568	-0.763401	0.251412
O15	O	0.672902	-0.430067	0.584745
O16	O	-0.135122	-0.955377	-0.081914
O17	O	0.198212	-0.622044	0.251419
O18	O	0.531545	-0.288711	0.584752
O19	O	-0.120885	-1.223854	-0.081946
O20	O	0.212448	-0.890521	0.251388
O21	O	0.545781	-0.557188	0.584721
Zn22	Zn	-0.128002	-1.089614	-0.107902
Zn23	Zn	0.205331	-0.756280	0.225431
Zn24	Zn	0.538664	-0.422947	0.558764
Zn25	Zn	-0.128012	-1.089632	0.107625
Zn26	Zn	0.205321	-0.756299	0.440959
Zn27	Zn	0.538654	-0.422966	0.774292
O28	O	-0.262242	-1.082498	-0.081938
O29	O	0.071091	-0.749164	0.251395
O30	O	0.404425	-0.415831	0.584729
C31	C	-0.134462	-0.921025	-0.000119
C32	C	0.198871	-0.587691	0.333215
C33	C	0.532205	-0.254358	0.666548
C34	C	-0.132474	-0.818643	-0.000106
C35	C	0.200859	-0.485310	0.333227
C36	C	0.534193	-0.151977	0.666560
C37	C	-0.125154	-0.443748	-0.000147
C38	C	0.208179	-0.110414	0.333186
C39	C	0.541512	0.222919	0.666520
C40	C	-0.127187	-0.548056	-0.000135
C41	C	0.206146	-0.214722	0.333198
C42	C	0.539480	0.118611	0.666531
C43	C	-0.128814	-0.631192	-0.000126
C44	C	0.204519	-0.297859	0.333208
C45	C	0.537853	0.035474	0.666541
C46	C	-0.130847	-0.735507	-0.000116
C47	C	0.202486	-0.402173	0.333217
C48	C	0.535820	-0.068840	0.666551
C49	C	-0.296605	-1.083168	-0.000149
C50	C	0.036728	-0.749835	0.333184
C51	C	0.370061	-0.416501	0.666518
C52	C	-0.398987	-1.085156	-0.000156
C53	C	-0.065653	-0.751823	0.333177
C54	C	0.267680	-0.418490	0.666511
C55	C	-0.773883	-1.092476	-0.000118
C56	C	-0.440549	-0.759142	0.333216
C57	C	-0.107216	-0.425809	0.666549
C58	C	-0.669575	-1.090443	-0.000129
C59	C	-0.336241	-0.757110	0.333205
C60	C	-0.002908	-0.423777	0.666538
C61	C	-0.586438	-1.088816	-0.000138
C62	C	-0.253105	-0.755483	0.333196
C63	C	0.080229	-0.422150	0.666529
C64	C	-0.482123	-1.086783	-0.000147
C65	C	-0.148790	-0.753450	0.333187
C66	C	0.184543	-0.420117	0.666520
C67	C	0.040591	-1.096078	-0.000126
C68	C	0.373924	-0.762744	0.333207
C69	C	0.707258	-0.429411	0.666541
C70	C	0.142972	-1.094090	-0.000113
C71	C	0.476306	-0.760756	0.333221
C72	C	0.809639	-0.427423	0.666554
N73	N	-0.127995	-1.089608	-0.254994
N74	N	0.205338	-0.756274	0.078339
N75	N	0.538672	-0.422941	0.411673
C76	C	-0.121553	-0.258221	-0.000154
C77	C	0.211781	0.075112	0.333180
C78	C	0.545114	0.408446	0.666513
C79	C	-0.123541	-0.360602	-0.000152
C80	C	0.209793	-0.027269	0.333181
C81	C	0.543126	0.306064	0.666514
C82	C	-0.128013	-1.089631	-0.656285
C83	C	0.205320	-0.756298	-0.322952
C84	C	0.538653	-0.422964	0.010382
C85	C	-0.128011	-1.089622	-0.544634
C86	C	0.205322	-0.756288	-0.211300
C87	C	0.538655	-0.422955	0.122033
C88	C	-0.128005	-1.089620	-0.455643
C89	C	0.205329	-0.756286	-0.122310
C90	C	0.538662	-0.422953	0.211024
C91	C	-0.128001	-1.089610	-0.343985
C92	C	0.205332	-0.756276	-0.010651
C93	C	0.538665	-0.422943	0.322682
N94	N	-0.128012	-1.089645	0.254717
N95	N	0.205321	-0.756312	0.588050
N96	N	0.538654	-0.422979	0.921384
