data_functionalizedCrystal
_audit_creation_method	'MofGen! by Chris Wilmer'
_symmetry_space_group_name_H-M	'P1'
_symmetry_Int_Tables_number	1
_symmetry_cell_setting	triclinic
loop_
_symmetry_equiv_pos_as_xyz
  x,y,z
_cell_length_a	15.625950
_cell_length_b	27.731996
_cell_length_c	14.185569
_cell_angle_alpha	76.953602
_cell_angle_beta	120.545593
_cell_angle_gamma	83.475320
loop_
_atom_site_label
_atom_site_type_symbol
_atom_site_fract_x
_atom_site_fract_y
_atom_site_fract_z
O1	O	1.290466	0.012525	0.385841
O2	O	1.002005	0.033797	0.280939
O3	O	1.155227	-0.047631	0.336681
O4	O	1.137244	0.093953	0.330098
O5	O	1.200490	-0.071683	0.519983
O6	O	1.047268	0.009745	0.464240
O7	O	1.335729	-0.011527	0.569142
Cu8	Cu	1.195631	-0.003087	0.533428
Cu9	Cu	1.142102	0.025357	0.316653
O10	O	1.182507	0.069901	0.513400
C11	C	0.987744	0.023190	0.359173
C12	C	0.877816	0.027411	0.319198
C13	C	0.639515	-0.024218	0.687176
C14	C	0.536205	-0.020235	0.649562
C15	C	0.486912	0.005983	0.449752
C16	C	0.590219	0.002006	0.487350
C17	C	0.666513	-0.013096	0.606064
C18	C	0.617217	0.013128	0.406237
C19	C	0.720515	0.009147	0.443833
C20	C	0.796815	-0.005955	0.562541
C21	C	0.769811	-0.017076	0.643659
C22	C	0.540922	0.028225	0.287525
C23	C	0.567921	0.039347	0.206412
C24	C	0.671219	0.035371	0.244007
C25	C	0.747519	0.020269	0.362715
C26	C	0.698223	0.046492	0.162889
C27	C	0.801522	0.042512	0.200485
C28	C	0.850817	0.016289	0.400311
C29	C	1.177491	-0.077649	0.428202
C30	C	1.176381	-0.131258	0.427808
C31	C	1.144699	-0.450553	0.325293
C32	C	1.140471	-0.652025	0.323738
O33	O	1.118899	-0.666920	0.238547
N34	N	1.164620	-0.690330	0.423464
C35	C	1.189820	-0.678264	0.523583
O36	O	1.210253	-0.715467	0.608367
C37	C	1.194040	-0.476792	0.525134
C38	C	1.169900	-0.438490	0.425406
C39	C	1.120560	-0.412251	0.225572
C40	C	1.121622	-0.361887	0.225963
C41	C	1.146824	-0.349824	0.326076
C42	C	1.170963	-0.388125	0.425797
C43	C	1.219233	-0.464726	0.625250
C44	C	1.220284	-0.414353	0.625628
C45	C	1.196144	-0.376051	0.525899
C46	C	1.197227	-0.325698	0.526302
N47	N	1.173078	-0.287393	0.426576
C48	C	1.147877	-0.299456	0.326463
C49	C	1.187605	-0.784039	0.522762
C50	C	1.186552	-0.834407	0.522376
C51	C	1.137201	-0.808165	0.322529
C52	C	1.138262	-0.757796	0.322920
C53	C	1.163457	-0.745734	0.423037
C54	C	1.150111	-0.193688	0.327294
C55	C	1.151180	-0.143321	0.327696
C56	C	1.200525	-0.169568	0.527539
C57	C	1.199462	-0.219931	0.527140
C58	C	1.174249	-0.231989	0.427007
O59	O	1.218777	-0.310765	0.611444
O60	O	1.127426	-0.262244	0.241684
C61	C	1.143636	-0.500917	0.324901
C62	C	1.167775	-0.539218	0.424622
C63	C	1.192977	-0.527155	0.524735
C64	C	1.166722	-0.589586	0.424235
C65	C	1.141521	-0.601649	0.324123
C66	C	1.117372	-0.563344	0.224397
C67	C	1.118435	-0.512980	0.224788
C68	C	1.217125	-0.565460	0.624461
C69	C	1.216062	-0.615824	0.624061
C70	C	1.190860	-0.627887	0.523949
C71	C	1.349990	-0.000919	0.490905
C72	C	1.459916	-0.005139	0.530873
C73	C	1.160243	0.099919	0.421877
C74	C	1.161350	0.153530	0.422263
N75	N	1.233288	-0.023094	0.685899
N76	N	1.104454	0.045360	0.164185
C77	C	0.993819	0.104120	0.966429
C78	C	1.022350	0.088967	1.081830
C79	C	1.158055	0.016886	1.131161
C80	C	1.129532	0.032031	1.015761
C81	C	1.047414	0.075648	0.933403
C82	C	1.183128	0.003559	0.982735
C83	C	1.154610	0.018704	0.867346
C84	C	1.072497	0.062321	0.784982
C85	C	1.018896	0.090793	0.818014
C86	C	1.265250	-0.040056	1.065096
C87	C	1.318846	-0.068527	1.032070
C88	C	1.290323	-0.053384	0.916677
C89	C	1.208210	-0.009768	0.834314
C90	C	1.343924	-0.081857	0.883646
C91	C	1.315406	-0.066712	0.768256
C92	C	1.179693	0.005377	0.718925
H93	H	0.505790	0.051641	0.109755
H94	H	1.288469	-0.052384	1.159053
Cl95	Cl	0.835467	0.056493	0.098514
Cl96	Cl	1.447165	-0.136684	0.987194
Cl97	Cl	1.076445	0.060208	0.615380
H98	H	1.359051	-0.089896	0.741369
H99	H	0.831933	-0.029366	0.740327
Cl100	Cl	0.735433	-0.043197	0.836419
H101	H	0.514228	-0.029282	0.715622
Cl102	Cl	1.232205	-0.154393	0.653389
H103	H	0.424781	0.018277	0.353096
H104	H	0.456811	0.031468	0.256918
Cl105	Cl	1.105513	-0.823338	0.196672
H106	H	1.049282	0.074653	0.691027
H107	H	1.129576	-0.203498	0.245754
Cl108	Cl	1.216920	-0.882555	0.647761
Cl109	Cl	0.915649	0.145624	0.714469
H110	H	0.912940	0.003999	0.496978
Cl111	Cl	0.926679	-0.010963	0.609808
Cl112	Cl	1.088084	-0.464835	0.099407
Cl113	Cl	0.602307	0.065456	0.013658
Cl114	Cl	1.229828	-0.268086	0.652521
H115	H	1.131524	-0.112136	0.246482
Cl116	Cl	1.091264	-0.313741	0.100579
Cl117	Cl	1.261289	-0.037945	1.234703
Cl118	Cl	1.088875	-0.427405	0.099699
Cl119	Cl	1.107910	-0.709649	0.197541
H120	H	1.208128	-0.774226	0.604296
Cl121	Cl	1.249576	-0.512865	0.750630
H122	H	1.240786	-0.404535	0.707152
Cl123	Cl	0.954962	0.124768	1.123338
Cl124	Cl	1.422079	-0.123358	1.135612
H125	H	1.096857	-0.573175	0.142883
Cl126	Cl	1.246417	-0.663971	0.749450
Cl127	Cl	1.248803	-0.550304	0.750328
Cl128	Cl	0.890571	0.158950	0.862885
