data_functionalizedCrystal
_audit_creation_method	'MofGen! by Chris Wilmer'
_symmetry_space_group_name_H-M	'P1'
_symmetry_Int_Tables_number	1
_symmetry_cell_setting	triclinic
loop_
_symmetry_equiv_pos_as_xyz
  x,y,z
_cell_length_a	17.077404
_cell_length_b	19.805405
_cell_length_c	17.077396
_cell_angle_alpha	89.971037
_cell_angle_beta	89.981638
_cell_angle_gamma	90.024696
loop_
_atom_site_label
_atom_site_type_symbol
_atom_site_fract_x
_atom_site_fract_y
_atom_site_fract_z
Zn1	Zn	1.200034	-0.269500	-0.443816
Zn2	Zn	1.199932	-0.382693	-0.312549
Zn3	Zn	1.068765	-0.269519	-0.312567
Zn4	Zn	1.068725	-0.382648	-0.443775
O5	O	1.134364	-0.326090	-0.378177
O6	O	1.309867	-0.284526	-0.426413
O7	O	1.182507	-0.367707	-0.202704
O8	O	1.086238	-0.174800	-0.330002
O9	O	1.309792	-0.367688	-0.329972
O10	O	1.182680	-0.174786	-0.426430
O11	O	1.086139	-0.284559	-0.202717
O12	O	0.958913	-0.284515	-0.329962
O13	O	1.086169	-0.367612	-0.553628
O14	O	0.958883	-0.367631	-0.426360
O15	O	1.182641	-0.284482	-0.553658
O16	O	1.182467	-0.477404	-0.329932
O17	O	1.086070	-0.477371	-0.426343
C18	C	0.930416	-0.326071	-0.378159
C19	C	0.843166	-0.326079	-0.378170
C20	C	0.802216	-0.282853	-0.428464
C21	C	0.720235	-0.282858	-0.428468
C22	C	0.679207	-0.326092	-0.378181
C23	C	0.720163	-0.369319	-0.327882
C24	C	0.802142	-0.369311	-0.327875
C25	C	0.549293	-0.369335	-0.327901
C26	C	0.467308	-0.369344	-0.327909
C27	C	0.467386	-0.282881	-0.428494
C28	C	0.549365	-0.282873	-0.428487
C29	C	0.590316	-0.326102	-0.378189
C30	C	1.134274	-0.501946	-0.378148
C31	C	1.134308	-0.577178	-0.378163
C32	C	1.184496	-0.612457	-0.428412
C33	C	1.184524	-0.683145	-0.428427
C34	C	1.134368	-0.718554	-0.378187
C35	C	1.084175	-0.683270	-0.327935
C36	C	1.084143	-0.612583	-0.327925
C37	C	1.084301	-0.968343	-0.327976
C38	C	1.084338	-1.039035	-0.327988
C39	C	1.184682	-1.038905	-0.428477
C40	C	1.184650	-0.968218	-0.428467
C41	C	1.134454	-0.932941	-0.378218
C42	C	1.134423	-0.856293	-0.378204
C43	C	1.134403	-0.795201	-0.378197
C44	C	1.339108	-0.326110	-0.378195
C45	C	1.426358	-0.326118	-0.378203
C46	C	1.134411	-0.326040	-0.582921
C47	C	1.134432	-0.326019	-0.670171
C48	C	1.134475	-0.149547	-0.378223
C49	C	1.134522	-0.074315	-0.378242
C50	C	1.184667	-0.282730	-0.711178
C51	C	1.184676	-0.282707	-0.793159
C52	C	1.134454	-0.325978	-0.834131
C53	C	1.084214	-0.369269	-0.793118
C54	C	1.084201	-0.369287	-0.711139
C55	C	1.084245	-0.369228	-0.963988
C56	C	1.084259	-0.369211	-1.045973
C57	C	1.184720	-0.282648	-1.046008
C58	C	1.184708	-0.282666	-0.964029
C59	C	1.134468	-0.325959	-0.923022
C60	C	1.134362	-0.326091	-0.174229
C61	C	1.134494	-0.325921	-0.086980
H62	H	0.835615	-0.247649	-0.469415
C63	C	0.594337	-0.416890	-0.272572
N64	N	0.628264	-0.452712	-0.230903
C65	C	1.029050	-0.722222	-0.272624
N66	N	0.987549	-0.751560	-0.230942
H67	H	0.686751	-0.404518	-0.286934
C68	C	1.239953	-0.235065	-0.918961
N69	N	1.281561	-0.199208	-0.885016
C70	C	0.847187	-0.416864	-0.272549
N71	N	0.881114	-0.452681	-0.230875
C72	C	0.422339	-0.235331	-0.483826
N73	N	0.388406	-0.199521	-0.525503
H74	H	0.433905	-0.404549	-0.286962
C75	C	1.028933	-0.573777	-0.272646
N76	N	0.987346	-0.544549	-0.231010
C77	C	1.239674	-0.573514	-0.483679
N78	N	1.281233	-0.544184	-0.525310
H79	H	1.043362	-0.404444	-1.079330
C80	C	1.239745	-0.721948	-0.483695
N81	N	1.281343	-0.751174	-0.525322
C82	C	1.028940	-0.416910	-0.666031
N83	N	0.987314	-0.452780	-0.632058
C84	C	1.029066	-0.929547	-0.272718
N85	N	0.987454	-0.900324	-0.231103
H86	H	1.225495	-0.939391	-0.469374
C87	C	1.029155	-1.077983	-0.272723
N88	N	0.987592	-1.107319	-0.231100
C89	C	0.675194	-0.235308	-0.483797
N90	N	0.641268	-0.199492	-0.525474
H91	H	1.225566	-0.247496	-0.677825
H92	H	1.225551	-1.067637	-0.469395
H93	H	1.043322	-0.404471	-0.930602
H94	H	1.225584	-0.247458	-0.826543
H95	H	1.225626	-0.247397	-1.079400
H96	H	1.043319	-0.404498	-0.826484
H97	H	0.582768	-0.247672	-0.469440
