data_functionalizedCrystal
_audit_creation_method	'MofGen! by Chris Wilmer'
_symmetry_space_group_name_H-M	'P1'
_symmetry_Int_Tables_number	1
_symmetry_cell_setting	triclinic
loop_
_symmetry_equiv_pos_as_xyz
  x,y,z
_cell_length_a	10.654562
_cell_length_b	10.654558
_cell_length_c	9.130313
_cell_angle_alpha	89.999661
_cell_angle_beta	89.996930
_cell_angle_gamma	84.489165
loop_
_atom_site_label
_atom_site_type_symbol
_atom_site_fract_x
_atom_site_fract_y
_atom_site_fract_z
O1	O	1.667830	0.176468	-0.121893
O2	O	1.302354	0.193258	-0.121874
O3	O	1.493490	0.002125	-0.121877
O4	O	1.476694	0.367601	-0.121889
O5	O	1.493487	0.002130	0.121721
O6	O	1.302352	0.193263	0.121725
O7	O	1.667828	0.176474	0.121706
Cu8	Cu	1.485089	0.184869	0.143958
Cu9	Cu	1.485092	0.184863	-0.144126
O10	O	1.476692	0.367607	0.121710
C11	C	1.255555	0.192024	-0.000072
C12	C	1.116112	0.188326	-0.000065
C13	C	1.050580	0.186604	0.132709
C14	C	0.919558	0.183139	0.132685
C15	C	0.919611	0.183124	-0.132900
C16	C	1.050632	0.186580	-0.132874
C17	C	1.050548	0.186618	0.286043
C18	C	0.919526	0.183153	0.286018
C19	C	1.492253	-0.044670	-0.000079
C20	C	1.488557	-0.184113	-0.000084
C21	C	1.486817	-0.249624	0.132700
C22	C	1.483355	-0.380647	0.132694
C23	C	1.483369	-0.380636	-0.132891
C24	C	1.486840	-0.249617	-0.132883
C25	C	1.488534	-0.184121	0.265500
C26	C	1.486793	-0.249631	0.398294
C27	C	1.483331	-0.380654	0.398288
C28	C	1.481611	-0.446166	0.265488
C29	C	1.714626	0.177707	-0.000099
C30	C	1.854069	0.181405	-0.000115
C31	C	1.477928	0.414402	-0.000092
C32	C	1.481624	0.553845	-0.000097
N33	N	1.485097	0.184872	0.346581
N34	N	1.485095	0.184849	-0.346748
C35	C	1.569753	0.100268	0.423231
C36	C	1.569750	0.100253	0.576568
C37	C	1.400429	0.269458	0.576590
C38	C	1.400427	0.269466	0.423256
C39	C	1.667513	0.002582	0.423219
C40	C	1.667510	0.002567	0.576556
H41	H	0.873242	0.269951	0.344881
H42	H	0.889935	0.091560	0.333601
H43	H	1.636994	-0.088657	0.624108
O44	O	1.481889	-0.444227	-0.261929
C45	C	1.591287	-0.425459	-0.342760
H46	H	1.668153	-0.398745	-0.265082
H47	H	1.568750	-0.346391	-0.425534
C48	C	1.542992	-0.580667	-0.519575
C49	C	1.637403	-0.547866	-0.424168
H50	H	1.571436	-0.656170	-0.569798
H51	H	1.469285	-0.593308	-0.465122
H52	H	1.524219	-0.514766	-0.588540
H53	H	1.656163	-0.613759	-0.355194
H54	H	1.711115	-0.535239	-0.478612
H55	H	1.646068	-0.093951	0.381604
H56	H	1.764021	0.024090	0.618167
H57	H	1.103985	0.187963	-0.240992
H58	H	1.491348	-0.077435	0.265519
O59	O	1.488312	-0.185984	-0.261894
C60	C	1.378912	-0.204724	-0.342721
H61	H	1.302053	-0.231481	-0.265049
H62	H	1.401452	-0.283753	-0.425547
C63	C	1.427185	-0.049428	-0.519448
C64	C	1.332782	-0.082282	-0.424048
H65	H	1.398731	0.026096	-0.569620
H66	H	1.500893	-0.036806	-0.464997
H67	H	1.445959	-0.115296	-0.588456
H68	H	1.314020	-0.016423	-0.355031
H69	H	1.259069	-0.094890	-0.478490
O70	O	1.481417	-0.444201	0.527320
C71	C	1.373694	-0.398887	0.608103
H72	H	1.298767	-0.353603	0.530393
H73	H	1.400245	-0.325827	0.690895
C74	C	1.413394	-0.564868	0.784925
C75	C	1.321364	-0.509260	0.689479
H76	H	1.381117	-0.632949	0.835128
H77	H	1.485972	-0.595395	0.730504
H78	H	1.435512	-0.503974	0.853905
H79	H	1.299259	-0.570150	0.620491
H80	H	1.248781	-0.478745	0.743891
H81	H	1.096805	0.099825	0.344929
O82	O	0.856115	0.181610	-0.261996
C83	C	0.874859	0.291047	-0.342761
H84	H	0.965560	0.329759	-0.304988
H85	H	0.791829	0.365130	-0.324368
C86	C	0.773568	0.210675	-0.553250
C87	C	0.884975	0.258216	-0.506865
H88	H	0.779803	0.190426	-0.654478
H89	H	0.760935	0.136947	-0.498837
H90	H	0.704388	0.272419	-0.537910
H91	H	0.954150	0.196466	-0.522188
H92	H	0.897620	0.331933	-0.561285
H93	H	1.080125	0.278214	0.333616
H94	H	1.488204	-0.196284	0.506415
H95	H	1.478802	-0.552855	0.265494
H96	H	1.331482	0.338347	0.360849
H97	H	1.331493	0.338331	0.639036
H98	H	1.758697	0.033174	0.375655
