data_functionalizedCrystal
_audit_creation_method	'MofGen! by Chris Wilmer'
_symmetry_space_group_name_H-M	'P1'
_symmetry_Int_Tables_number	1
_symmetry_cell_setting	triclinic
loop_
_symmetry_equiv_pos_as_xyz
  x,y,z
_cell_length_a	6.817900
_cell_length_b	15.301126
_cell_length_c	10.992410
_cell_angle_alpha	93.551656
_cell_angle_beta	108.764651
_cell_angle_gamma	104.177575
loop_
_atom_site_label
_atom_site_type_symbol
_atom_site_fract_x
_atom_site_fract_y
_atom_site_fract_z
V1	V	-4.090843	-0.124759	-0.400984
O2	O	-4.073501	0.005995	-0.392949
O3	O	-4.045418	-0.247376	-0.398628
O4	O	-4.068795	-0.122840	-0.575690
O5	O	-4.049962	-0.119403	-0.214660
V6	V	-4.570670	-0.109119	-0.378651
O7	O	-4.360207	-0.159066	-0.449972
O8	O	-4.751504	-0.074812	-0.329662
O9	O	-4.392889	0.013498	-0.381007
O10	O	-4.705409	-0.239873	-0.386686
O11	O	-4.728948	-0.114475	-0.564974
O12	O	-4.369512	-0.111038	-0.203944
C13	C	-3.890289	-0.277267	-0.392402
C14	C	-3.934612	-0.377508	-0.391640
C15	C	-4.138640	-0.429194	-0.397705
C16	C	-4.180278	-0.523382	-0.396997
C17	C	-4.017879	-0.565880	-0.390214
C18	C	-3.813835	-0.514188	-0.384153
C19	C	-3.772205	-0.420003	-0.384870
C20	C	-3.900616	-0.710499	-0.382654
C21	C	-3.942247	-0.804689	-0.381934
C22	C	-4.308689	-0.813877	-0.394781
C23	C	-4.267059	-0.719692	-0.395499
C24	C	-4.063016	-0.668006	-0.389434
C25	C	-3.920108	-0.118408	-0.618261
C26	C	-3.983385	-0.117650	-0.761087
C27	C	-3.851803	-0.110746	-0.956188
C28	C	-3.786035	-0.111908	-0.807709
C29	C	-4.164721	-0.206559	-0.838469
C30	C	-4.229182	-0.205773	-0.987033
C31	C	-4.139246	-0.033613	-0.948462
C32	C	-4.068616	-0.033192	-0.799448
C33	C	-4.211358	0.043384	-0.387229
C34	C	-4.146276	0.143624	-0.387999
C35	C	-4.181539	-0.115473	-0.161367
C36	C	-4.097501	-0.116226	-0.018540
H37	H	-4.346416	-0.565461	-0.401938
H38	H	-3.681614	-0.548798	-0.378638
H39	H	-4.399298	-0.685092	-0.401014
O40	O	-4.313812	-0.383359	-0.405043
H41	H	-4.462691	-0.435130	-0.409162
O42	O	-4.528776	-0.869618	-0.401334
H43	H	-4.530457	-0.942252	-0.399715
O44	O	-3.804009	-0.189372	-1.020000
H45	H	-3.630169	-0.184851	-0.975277
H46	H	-4.048998	0.033902	-0.968610
H47	H	-4.201884	-0.268325	-1.033499
H48	H	-3.606069	-0.377921	-0.379936
H49	H	-3.810024	-0.839293	-0.376450
H50	H	-3.734471	-0.668419	-0.377726
H51	H	-4.313706	-0.213971	-0.809689
H52	H	-3.746675	-0.046378	-0.974816
H53	H	-4.409733	-0.213504	-1.029689
H54	H	-4.107195	-0.269265	-0.813060
H55	H	-3.937701	0.032579	-0.746884
H56	H	-3.649573	-0.047979	-0.754168
O57	O	-3.695340	-0.191626	-0.775069
H58	H	-3.698360	-0.229503	-0.865401
H59	H	-4.210925	-0.032148	-0.766933
O60	O	-4.375513	-0.037874	-1.002582
H61	H	-4.462862	-0.098499	-1.079014
