data_functionalizedCrystal
_audit_creation_method	'MofGen! by Chris Wilmer'
_symmetry_space_group_name_H-M	'P1'
_symmetry_Int_Tables_number	1
_symmetry_cell_setting	triclinic
loop_
_symmetry_equiv_pos_as_xyz
  x,y,z
_cell_length_a	18.101398
_cell_length_b	19.120786
_cell_length_c	18.101389
_cell_angle_alpha	87.539356
_cell_angle_beta	89.975673
_cell_angle_gamma	92.460164
loop_
_atom_site_label
_atom_site_type_symbol
_atom_site_fract_x
_atom_site_fract_y
_atom_site_fract_z
Zn1	Zn	1.119565	-0.279790	-0.406239
Zn2	Zn	1.619565	0.220210	0.093761
Zn3	Zn	1.114191	-0.397230	-0.277109
Zn4	Zn	1.614191	0.102770	0.222891
Zn5	Zn	0.995724	-0.279782	-0.282401
Zn6	Zn	1.495724	0.220218	0.217599
Zn7	Zn	0.990406	-0.397200	-0.400899
Zn8	Zn	1.490406	0.102800	0.099101
O9	O	1.054972	-0.338501	-0.341662
O10	O	1.554972	0.161499	0.158338
O11	O	1.222484	-0.295384	-0.389130
O12	O	1.722484	0.204616	0.110870
O13	O	1.098453	-0.381660	-0.174178
O14	O	1.598453	0.118340	0.325822
O15	O	1.016627	-0.181494	-0.303278
O16	O	1.516627	0.318506	0.196722
O17	O	1.218536	-0.381667	-0.294259
O18	O	1.718536	0.118333	0.205741
O19	O	1.107612	-0.181499	-0.394261
O20	O	1.607612	0.318501	0.105739
O21	O	1.011416	-0.295372	-0.178066
O22	O	1.511416	0.204628	0.321934
O23	O	0.891387	-0.295342	-0.298100
O24	O	1.391387	0.204658	0.201900
O25	O	1.007563	-0.381616	-0.505241
O26	O	1.507563	0.118384	-0.005241
O27	O	0.887479	-0.381609	-0.385160
O28	O	1.387479	0.118391	0.114840
O29	O	1.102455	-0.295355	-0.509164
O30	O	1.602455	0.204645	-0.009164
O31	O	1.093295	-0.495516	-0.289081
O32	O	1.593295	0.004484	0.210919
O33	O	1.002351	-0.495494	-0.380029
O34	O	1.502351	0.004506	0.119971
C35	C	0.862562	-0.338472	-0.341625
C36	C	1.362562	0.161528	0.158375
C37	C	0.780248	-0.338477	-0.341626
C38	C	1.280248	0.161523	0.158374
C39	C	0.481155	-0.338521	-0.341686
C40	C	0.981155	0.161479	0.158314
C41	C	0.514926	-0.283973	-0.287201
C42	C	1.014926	0.216027	0.212799
C43	C	0.600538	-0.284119	-0.286952
C44	C	1.100538	0.215881	0.213048
C45	C	0.629539	-0.338498	-0.341656
C46	C	1.129539	0.161502	0.158344
C47	C	0.595100	-0.412484	-0.317000
C48	C	1.095100	0.087516	0.183000
C49	C	0.509469	-0.412181	-0.316618
C50	C	1.009469	0.087819	0.183382
C51	C	0.513613	-0.319726	-0.420932
C52	C	1.013613	0.180274	0.079068
C53	C	0.599338	-0.318078	-0.420578
C54	C	1.099338	0.181922	0.079422
C55	C	0.713398	-0.338490	-0.341640
C56	C	1.213398	0.161510	0.158360
C57	C	0.397295	-0.338534	-0.341700
C58	C	0.897295	0.161466	0.158300
C59	C	1.046683	-0.520990	-0.333418
C60	C	1.546683	-0.020990	0.166582
C61	C	1.043205	-0.599060	-0.329915
C62	C	1.543205	-0.099060	0.170085
C63	C	1.088907	-0.635679	-0.375679
C64	C	1.588907	-0.135679	0.124321
C65	C	1.085636	-0.709034	-0.372389
C66	C	1.585636	-0.209034	0.127611
C67	C	1.036666	-0.745768	-0.323332
C68	C	1.536666	-0.245768	0.176668
C69	C	0.990959	-0.709143	-0.277567
C70	C	1.490959	-0.209143	0.222433
C71	C	0.994227	-0.635790	-0.280860
C72	C	1.494227	-0.135790	0.219140
C73	C	1.024428	-0.967251	-0.311018
C74	C	1.524428	-0.467251	0.188982
C75	C	1.021165	-1.040609	-0.307726
C76	C	1.521165	-0.540609	0.192274
C77	C	1.115841	-1.040495	-0.402550
C78	C	1.615841	-0.540495	0.097450
C79	C	1.119108	-0.967141	-0.405836
C80	C	1.619108	-0.467141	0.094164
C81	C	1.073398	-0.930522	-0.360074
C82	C	1.573398	-0.430522	0.139926
C83	C	1.033323	-0.820748	-0.319966
C84	C	1.533323	-0.320748	0.180034
C85	C	1.076738	-0.855543	-0.363443
C86	C	1.576738	-0.355543	0.136557
C87	C	1.248132	-0.338530	-0.341700
C88	C	1.748132	0.161470	0.158300
C89	C	1.330446	-0.338542	-0.341716
C90	C	1.830446	0.161458	0.158284
C91	C	1.055015	-0.338483	-0.534825
C92	C	1.555015	0.161517	-0.034825
C93	C	1.055034	-0.338475	-0.617140
C94	C	1.555034	0.161525	-0.117140
C95	C	1.063313	-0.155299	-0.349956
C96	C	1.563313	0.344701	0.150044
C97	C	1.066867	-0.077229	-0.353490
C98	C	1.566867	0.422771	0.146510
C99	C	1.055083	-0.338344	-0.916237
C100	C	1.555083	0.161656	-0.416237
C101	C	0.995189	-0.392444	-0.882451
C102	C	1.495189	0.107556	-0.382451
C103	C	0.995333	-0.392695	-0.796821
C104	C	1.495333	0.107305	-0.296821
C105	C	1.055058	-0.338409	-0.767851
C106	C	1.555058	0.161591	-0.267851
C107	C	1.132181	-0.358507	-0.798052
C108	C	1.632181	0.141493	-0.298052
C109	C	1.131845	-0.358862	-0.883681
C110	C	1.631845	0.141138	-0.383681
C111	C	1.038537	-0.264025	-0.888008
C112	C	1.538537	0.235975	-0.388008
C113	C	1.036781	-0.264454	-0.802337
C114	C	1.536781	0.235546	-0.302337
C115	C	1.055049	-0.338445	-0.683990
C116	C	1.555049	0.161555	-0.183990
C117	C	1.055097	-0.338310	-1.000098
C118	C	1.555097	0.161690	-0.500098
C119	C	1.054973	-0.338468	-0.149253
C120	C	1.554973	0.161532	0.350747
C121	C	1.055107	-0.338277	-0.066948
C122	C	1.555107	0.161723	0.433052
H123	H	0.622125	-0.263633	-0.439109
H124	H	1.122125	0.236367	0.060891
H125	H	0.938039	-0.380118	-0.776355
H126	H	1.438039	0.119882	-0.276355
H127	H	1.158983	-0.937233	-0.445783
H128	H	1.658983	-0.437233	0.054217
H129	H	1.122857	-0.738847	-0.409649
H130	H	1.622857	-0.238847	0.090351
H131	H	1.146262	-0.413190	-0.901218
H132	H	1.646262	0.086810	-0.401218
Br133	Br	0.478075	-0.304428	-0.190019
Br134	Br	0.978075	0.195572	0.309981
H135	H	0.983451	-0.245715	-0.910418
H136	H	1.483451	0.254285	-0.410418
Br137	Br	1.156743	-0.448095	-0.758281
Br138	Br	1.656743	0.051905	-0.258281
Br139	Br	0.942205	-0.239195	-0.769600
Br140	Br	1.442205	0.260805	-0.269600
H141	H	0.624040	-0.229255	-0.302789
H142	H	1.124040	0.270745	0.197211
H143	H	1.128786	-0.605776	-0.415623
H144	H	1.628786	-0.105776	0.084377
H145	H	0.987211	-0.937442	-0.273755
H146	H	1.487211	-0.437442	0.226245
Br147	Br	0.481627	-0.231370	-0.457225
Br148	Br	0.981627	0.268630	0.042775
Br149	Br	1.177870	-1.090195	-0.464654
Br150	Br	1.677870	-0.590195	0.035346
H151	H	0.981285	-1.070516	-0.267777
H152	H	1.481285	-0.570516	0.232223
Br153	Br	0.625907	-0.482040	-0.380834
Br154	Br	1.125907	0.017960	0.119166
H155	H	0.620434	-0.296543	-0.228299
H156	H	1.120434	0.203457	0.271701
H157	H	0.951084	-0.739058	-0.237626
H158	H	1.451084	-0.239058	0.262374
H159	H	0.488742	-0.428121	-0.258586
H160	H	0.988742	0.071879	0.241414
H161	H	0.486861	-0.454199	-0.354390
H162	H	0.986861	0.045801	0.145610
Br163	Br	1.143189	-0.805689	-0.430025
Br164	Br	1.643189	-0.305689	0.069975
H165	H	1.077487	-0.222006	-0.782865
H166	H	1.577487	0.277994	-0.282865
Br167	Br	0.484760	-0.192245	-0.313362
Br168	Br	0.984760	0.307755	0.186638
H169	H	1.082201	-0.223717	-0.910099
H170	H	1.582201	0.276283	-0.410099
H171	H	0.491574	-0.359457	-0.461569
H172	H	0.991574	0.140543	0.038431
Br173	Br	0.629576	-0.439517	-0.221287
Br174	Br	1.129576	0.060483	0.278713
H175	H	1.177804	-0.321168	-0.906119
H176	H	1.677804	0.178832	-0.406119
H177	H	0.957011	-0.605975	-0.243596
H178	H	1.457011	-0.105975	0.256404
Br179	Br	1.208320	-0.294895	-0.767011
Br180	Br	1.708320	0.205105	-0.267011
H181	H	0.937715	-0.379996	-0.903597
H182	H	1.437715	0.120004	-0.403597
Br183	Br	0.632253	-0.379476	-0.492318
Br184	Br	1.132253	0.120524	0.007682
Br185	Br	1.012703	-0.483690	-0.914280
Br186	Br	1.512703	0.016310	-0.414280
Br187	Br	0.966859	-0.870607	-0.253397
Br188	Br	1.466859	-0.370607	0.246603
H189	H	1.005987	-0.447783	-0.773858
H190	H	1.505987	0.052217	-0.273858
