data_functionalizedCrystal
_audit_creation_method	'MofGen! by Chris Wilmer'
_symmetry_space_group_name_H-M	'P1'
_symmetry_Int_Tables_number	1
_symmetry_cell_setting	triclinic
loop_
_symmetry_equiv_pos_as_xyz
  x,y,z
_cell_length_a	14.971482
_cell_length_b	17.699092
_cell_length_c	16.176319
_cell_angle_alpha	89.994879
_cell_angle_beta	89.993143
_cell_angle_gamma	83.449488
loop_
_atom_site_label
_atom_site_type_symbol
_atom_site_fract_x
_atom_site_fract_y
_atom_site_fract_z
O1	O	1.186615	0.098620	-0.068733
O2	O	1.686615	0.598620	0.431267
O3	O	0.926174	0.110434	-0.068736
O4	O	1.426174	0.610434	0.431264
O5	O	1.063749	-0.005644	-0.068732
O6	O	1.563749	0.494356	0.431268
O7	O	1.049040	0.214698	-0.068736
O8	O	1.549040	0.714698	0.431264
O9	O	1.063730	-0.005651	0.068761
O10	O	1.563730	0.494349	0.568761
O11	O	0.926155	0.110427	0.068757
O12	O	1.426155	0.610427	0.568757
O13	O	1.186596	0.098612	0.068761
O14	O	1.686596	0.598612	0.568761
Cu15	Cu	1.056374	0.104519	0.081313
Cu16	Cu	1.556374	0.604519	0.581313
Cu17	Cu	1.056396	0.104528	-0.081289
Cu18	Cu	1.556396	0.604528	0.418711
O19	O	1.049021	0.214690	0.068757
O20	O	1.549021	0.714690	0.568757
C21	C	0.892842	0.109903	0.000010
C22	C	1.392842	0.609903	0.500010
C23	C	0.793550	0.108321	0.000008
C24	C	1.293550	0.608321	0.500008
C25	C	0.746897	0.107572	0.074957
C26	C	1.246897	0.607572	0.574957
C27	C	0.653604	0.106073	0.074958
C28	C	1.153604	0.606073	0.574958
C29	C	0.606964	0.105329	0.000009
C30	C	1.106964	0.605329	0.500009
C31	C	0.653623	0.106076	-0.074945
C32	C	1.153623	0.606076	0.425055
C33	C	0.746916	0.107569	-0.074945
C34	C	1.246916	0.607569	0.425055
C35	C	0.459172	0.102966	-0.074940
C36	C	0.959172	0.602966	0.425060
C37	C	0.365873	0.101475	-0.074940
C38	C	0.865873	0.601475	0.425060
C39	C	0.365860	0.101470	0.074963
C40	C	0.865860	0.601470	0.574963
C41	C	0.459153	0.102963	0.074963
C42	C	0.959153	0.602963	0.574963
C43	C	0.505805	0.103712	0.000009
C44	C	1.005805	0.603712	0.500009
C45	C	1.063211	-0.033846	0.000013
C46	C	1.563211	0.466154	0.500013
C47	C	1.061626	-0.117867	0.000009
C48	C	1.561626	0.382133	0.500009
C49	C	1.060894	-0.157333	-0.074939
C50	C	1.560894	0.342667	0.425061
C51	C	1.059399	-0.236279	-0.074940
C52	C	1.559399	0.263721	0.425060
C53	C	1.058643	-0.275760	0.000008
C54	C	1.558643	0.224240	0.500008
C55	C	1.059372	-0.236289	0.074962
C56	C	1.559372	0.263711	0.574962
C57	C	1.060861	-0.157343	0.074962
C58	C	1.560861	0.342657	0.574962
C59	C	1.053368	-0.554669	0.074963
C60	C	1.553368	-0.054669	0.574963
C61	C	1.051882	-0.633620	0.074957
C62	C	1.551882	-0.133620	0.574957
C63	C	1.051906	-0.633605	-0.074940
C64	C	1.551906	-0.133605	0.425060
C65	C	1.053395	-0.554659	-0.074939
C66	C	1.553395	-0.054659	0.425061
C67	C	1.054120	-0.515194	0.000014
C68	C	1.554120	-0.015194	0.500014
C69	C	1.055739	-0.429591	0.000015
C70	C	1.555739	0.070409	0.500015
C71	C	1.057030	-0.361362	0.000009
C72	C	1.557030	0.138638	0.500009
C73	C	1.219928	0.099144	0.000013
C74	C	1.719928	0.599144	0.500013
C75	C	1.319220	0.100726	0.000009
C76	C	1.819220	0.600726	0.500009
C77	C	1.049559	0.242892	0.000010
C78	C	1.549559	0.742892	0.500010
C79	C	1.051144	0.326914	0.000008
C80	C	1.551144	0.826914	0.500008
N81	N	1.056365	0.104512	0.195678
N82	N	1.556365	0.604512	0.695678
N83	N	1.056412	0.104528	-0.195654
N84	N	1.556412	0.604528	0.304346
C85	C	1.117301	0.053134	0.238944
C86	C	1.617301	0.553134	0.738944
C87	C	1.117305	0.053133	0.325491
C88	C	1.617305	0.553133	0.825491
C89	C	1.056377	0.104515	0.368771
C90	C	1.556377	0.604515	0.868771
C91	C	0.995434	0.155895	0.325499
C92	C	1.495434	0.655895	0.825499
C93	C	0.995426	0.155892	0.238953
C94	C	1.495426	0.655892	0.738953
C95	C	0.995465	0.155910	0.674527
C96	C	1.495465	0.655910	1.174527
C97	C	0.995480	0.155911	0.761079
C98	C	1.495480	0.655911	1.261079
C99	C	1.117344	0.053151	0.761065
C100	C	1.617344	0.553151	1.261065
C101	C	1.117336	0.053147	0.674519
C102	C	1.617336	0.553147	1.174519
C103	C	1.056390	0.104525	0.631255
C104	C	1.556390	0.604525	1.131255
C105	C	1.056385	0.104524	0.537411
C106	C	1.556385	0.604524	1.037411
C107	C	1.056386	0.104520	0.462613
C108	C	1.556386	0.604520	0.962613
H109	H	0.615626	0.105451	0.135988
H110	H	1.115626	0.605451	0.635988
C111	C	0.928445	0.212432	0.808685
C112	C	1.428445	0.712432	1.308685
N113	N	0.877956	0.255002	0.844541
N114	N	1.377956	0.755002	1.344541
C115	C	0.928404	0.212409	0.373110
C116	C	1.428404	0.712409	0.873110
N117	N	0.877915	0.254976	0.408969
N118	N	1.377915	0.754976	0.908969
H119	H	0.784899	0.108181	-0.135976
H120	H	1.284899	0.608181	0.364024
C121	C	1.058676	-0.279696	-0.157390
C122	C	1.558676	0.220304	0.342610
N123	N	1.058160	-0.312401	-0.219494
N124	N	1.558160	0.187599	0.280506
H125	H	1.166919	0.011296	0.203711
H126	H	1.666919	0.511296	0.703711
C127	C	1.061725	-0.113911	-0.157390
C128	C	1.561725	0.386089	0.342610
N129	N	1.062348	-0.081208	-0.219495
N130	N	1.562348	0.418792	0.280505
C131	C	1.061669	-0.113932	0.157411
C132	C	1.561669	0.386068	0.657411
N133	N	1.062275	-0.081236	0.219515
N134	N	1.562275	0.418764	0.719515
C135	C	0.510455	0.103783	0.157410
C136	C	1.010455	0.603783	0.657410
N137	N	0.549096	0.104397	0.219511
N138	N	1.049096	0.604397	0.719511
H139	H	0.945805	0.197728	0.203727
H140	H	1.445805	0.697728	0.703727
C141	C	1.054226	-0.511235	-0.157388
C142	C	1.554226	-0.011235	0.342612
N143	N	1.054848	-0.478528	-0.219491
N144	N	1.554848	0.021472	0.280509
C145	C	0.314541	0.100642	0.157414
C146	C	0.814541	0.600642	0.657414
N147	N	0.275884	0.100020	0.219514
N148	N	0.775884	0.600020	0.719514
C149	C	1.184319	-0.003405	0.373080
C150	C	1.684319	0.496595	0.873080
N151	N	1.234788	-0.046000	0.408923
N152	N	1.734788	0.454000	0.908923
H153	H	1.053976	-0.522548	0.135995
H154	H	1.553976	-0.022548	0.635995
C155	C	0.314571	0.100653	-0.157387
C156	C	0.814571	0.600653	0.342613
N157	N	0.275930	0.100034	-0.219487
N158	N	0.775930	0.600034	0.280513
C159	C	1.058534	-0.279720	0.157406
C160	C	1.558534	0.220280	0.657406
N161	N	1.057904	-0.312431	0.219505
N162	N	1.557904	0.187569	0.719505
C163	C	1.051098	-0.677022	-0.157391
C164	C	1.551098	-0.177022	0.342609
N165	N	1.050490	-0.709722	-0.219492
N166	N	1.550490	-0.209722	0.280508
C167	C	0.510487	0.103793	-0.157394
C168	C	1.010487	0.603793	0.342606
N169	N	0.549136	0.104422	-0.219497
N170	N	1.049136	0.604422	0.280503
C171	C	1.184360	-0.003378	0.626917
C172	C	1.684360	0.496622	1.126917
N173	N	1.234840	-0.045957	0.591063
N174	N	1.734840	0.454043	1.091063
H175	H	0.615642	0.105465	-0.135969
H176	H	1.115642	0.605465	0.364031
H177	H	1.166967	0.011314	0.796300
H178	H	1.666967	0.511314	1.296300
C179	C	0.928539	0.212525	0.626948
C180	C	1.428539	0.712525	1.126948
N181	N	0.878168	0.255206	0.591108
N182	N	1.378168	0.755206	1.091108
H183	H	0.784864	0.108184	0.135989
H184	H	1.284864	0.608184	0.635989
C185	C	1.051042	-0.677047	0.157410
C186	C	1.551042	-0.177047	0.657410
N187	N	1.050407	-0.709755	0.219511
N188	N	1.550407	-0.209755	0.719511
