data_functionalizedCrystal
_audit_creation_method	'MofGen! by Chris Wilmer'
_symmetry_space_group_name_H-M	'P1'
_symmetry_Int_Tables_number	1
_symmetry_cell_setting	triclinic
loop_
_symmetry_equiv_pos_as_xyz
  x,y,z
_cell_length_a	16.109301
_cell_length_b	16.109301
_cell_length_c	13.448316
_cell_angle_alpha	89.994921
_cell_angle_beta	89.997643
_cell_angle_gamma	83.461481
loop_
_atom_site_label
_atom_site_type_symbol
_atom_site_fract_x
_atom_site_fract_y
_atom_site_fract_z
O1	O	1.103133	0.106866	-0.082632
O2	O	1.603133	0.606866	0.417368
O3	O	0.861071	0.120165	-0.082648
O4	O	1.361071	0.620165	0.417352
O5	O	0.988751	-0.007516	-0.082630
O6	O	1.488751	0.492484	0.417370
O7	O	0.975452	0.234546	-0.082651
O8	O	1.475452	0.734546	0.417349
O9	O	0.988739	-0.007517	0.082754
O10	O	1.488739	0.492483	0.582754
O11	O	0.861058	0.120164	0.082735
O12	O	1.361058	0.620164	0.582735
O13	O	1.103120	0.106865	0.082752
O14	O	1.603120	0.606865	0.582752
Cu15	Cu	0.982088	0.113514	0.097844
Cu16	Cu	1.482088	0.613514	0.597844
Cu17	Cu	0.982103	0.113515	-0.097741
Cu18	Cu	1.482103	0.613515	0.402259
O19	O	0.975439	0.234545	0.082733
O20	O	1.475439	0.734545	0.582733
C21	C	0.830090	0.119626	0.000042
C22	C	1.330090	0.619626	0.500042
C23	C	0.737794	0.118011	0.000036
C24	C	1.237794	0.618011	0.500036
C25	C	0.515522	0.190018	0.000041
C26	C	1.015522	0.690018	0.500041
C27	C	0.428801	0.188494	0.000048
C28	C	0.928801	0.688494	0.500048
C29	C	0.448676	0.037006	0.000057
C30	C	0.948676	0.537006	0.500057
C31	C	0.535394	0.038530	0.000057
C32	C	1.035394	0.538530	0.500057
C33	C	0.568815	0.115039	0.000044
C34	C	1.068815	0.615039	0.500044
C35	C	0.395376	0.111990	0.000050
C36	C	0.895376	0.611990	0.500050
C37	C	0.301350	0.110337	0.000057
C38	C	0.801350	0.610337	0.500057
C39	C	0.662847	0.116693	0.000039
C40	C	1.162847	0.616693	0.500039
C41	C	0.988206	-0.038491	0.000063
C42	C	1.488206	0.461509	0.500063
C43	C	0.986591	-0.130786	0.000064
C44	C	1.486591	0.369214	0.500064
C45	C	1.058599	-0.353059	0.000053
C46	C	1.558599	0.146941	0.500053
C47	C	1.057075	-0.439779	0.000045
C48	C	1.557075	0.060221	0.500045
C49	C	0.905586	-0.419905	0.000039
C50	C	1.405586	0.080095	0.500039
C51	C	0.907111	-0.333186	0.000040
C52	C	1.407111	0.166814	0.500040
C53	C	0.983620	-0.299766	0.000052
C54	C	1.483620	0.200234	0.500052
C55	C	0.980571	-0.473205	0.000043
C56	C	1.480571	0.026795	0.500043
C57	C	0.978918	-0.567231	0.000034
C58	C	1.478918	-0.067231	0.500034
C59	C	0.985273	-0.205734	0.000059
C60	C	1.485273	0.294266	0.500059
C61	C	1.134101	0.107404	0.000060
C62	C	1.634101	0.607404	0.500060
C63	C	1.226397	0.109019	0.000059
C64	C	1.726397	0.609019	0.500059
C65	C	0.975984	0.265521	0.000038
C66	C	1.475984	0.765521	0.500038
C67	C	0.977600	0.357816	0.000031
C68	C	1.477600	0.857816	0.500031
N69	N	0.982083	0.113513	0.235409
N70	N	1.482083	0.613513	0.735409
N71	N	0.982114	0.113510	-0.235305
N72	N	1.482114	0.613510	0.264695
C73	C	1.032490	0.163956	0.287444
C74	C	1.532490	0.663956	0.787444
C75	C	1.032501	0.163952	0.391547
C76	C	1.532501	0.663952	0.891547
C77	C	0.982099	0.113509	0.443613
C78	C	1.482099	0.613509	0.943613
C79	C	0.931690	0.063061	0.391571
C80	C	1.431690	0.563061	0.891571
C81	C	0.931685	0.063060	0.287470
C82	C	1.431685	0.563060	0.787470
C83	C	0.931703	0.063066	0.608551
C84	C	1.431703	0.563066	1.108551
C85	C	0.931707	0.063067	0.712660
C86	C	1.431707	0.563067	1.212660
C87	C	1.032519	0.163958	0.712628
C88	C	1.532519	0.663958	1.212628
C89	C	1.032514	0.163958	0.608527
C90	C	1.532514	0.663958	1.108527
C91	C	0.982103	0.113510	0.556492
C92	C	1.482103	0.613510	1.056492
H93	H	0.421454	-0.025285	0.000073
H94	H	0.921454	0.474715	0.500073
C95	C	0.821431	-0.456676	0.000044
C96	C	1.321431	0.043324	0.500044
N97	N	0.758043	-0.484371	0.000056
N98	N	1.258043	0.015629	0.500056
H99	H	0.890665	0.021994	0.755049
H100	H	1.390665	0.521994	1.255049
C101	C	0.370182	0.270977	0.000049
C102	C	0.870182	0.770977	0.500049
N103	N	0.326030	0.333108	0.000052
N104	N	0.826030	0.833108	0.500052
C105	C	0.824624	-0.274560	0.000034
C106	C	1.324624	0.225440	0.500034
N107	N	0.762497	-0.230402	0.000025
N108	N	1.262497	0.269598	0.500025
C109	C	1.087937	0.219447	0.230180
C110	C	1.587937	0.719447	0.730180
N111	N	1.129705	0.261242	0.187052
N112	N	1.629705	0.761242	0.687052
C113	C	1.087919	0.219476	0.448781
C114	C	1.587919	0.719476	0.948781
N115	N	1.129651	0.261311	0.491888
N116	N	1.629651	0.761311	0.991888
H117	H	1.073551	0.205036	0.566137
H118	H	1.573551	0.705036	1.066137
C119	C	1.087975	0.219447	0.769869
C120	C	1.587975	0.719447	1.269869
N121	N	1.129741	0.261241	0.812987
N122	N	1.629741	0.761241	1.312987
C123	C	0.594021	-0.043957	0.000061
C124	C	1.094021	0.456043	0.500061
N125	N	0.638178	-0.106083	0.000067
N126	N	1.138178	0.393917	0.500067
H127	H	0.890655	0.021985	0.566187
H128	H	1.390655	0.521985	1.066187
C129	C	1.142761	-0.316300	0.000056
C130	C	1.642761	0.183700	0.500056
N131	N	1.206154	-0.288615	0.000053
N132	N	1.706154	0.211385	0.500053
H133	H	1.118130	-0.483168	0.000044
H134	H	1.618130	0.016832	0.500044
C135	C	0.876246	0.007575	0.448848
C136	C	1.376246	0.507575	0.948848
N137	N	0.834481	-0.034215	0.491988
N138	N	1.334481	0.465785	0.991988
C139	C	0.876231	0.007571	0.230232
C140	C	1.376231	0.507571	0.730232
N141	N	0.834463	-0.034227	0.187122
N142	N	1.334463	0.465773	0.687122
H143	H	0.542730	0.252317	0.000038
H144	H	1.042730	0.752317	0.500038
