data_functionalizedCrystal
_audit_creation_method	'MofGen! by Chris Wilmer'
_symmetry_space_group_name_H-M	'P1'
_symmetry_Int_Tables_number	1
_symmetry_cell_setting	triclinic
loop_
_symmetry_equiv_pos_as_xyz
  x,y,z
_cell_length_a	19.188930
_cell_length_b	16.109301
_cell_length_c	14.586319
_cell_angle_alpha	90.005214
_cell_angle_beta	90.017382
_cell_angle_gamma	83.303130
loop_
_atom_site_label
_atom_site_type_symbol
_atom_site_fract_x
_atom_site_fract_y
_atom_site_fract_z
O1	O	0.926386	0.103796	0.076538
O2	O	0.723108	0.117769	0.076476
O3	O	0.830331	-0.010267	0.076499
O4	O	0.819163	0.231832	0.076514
O5	O	0.830324	-0.010268	-0.075982
O6	O	0.723100	0.117767	-0.076005
O7	O	0.926379	0.103795	-0.075943
Cu8	Cu	0.824739	0.110781	-0.089897
Cu9	Cu	0.824748	0.110783	0.090429
O10	O	0.819155	0.231830	-0.075966
C11	C	0.697092	0.117316	0.000227
C12	C	0.619584	0.115958	0.000203
C13	C	0.829875	-0.041241	0.000258
C14	C	0.828519	-0.133532	0.000256
C15	C	0.888990	-0.356005	0.000290
C16	C	0.887710	-0.442721	0.000297
C17	C	0.760493	-0.422425	0.000254
C18	C	0.761773	-0.335710	0.000253
C19	C	0.826024	-0.302503	0.000267
C20	C	0.823463	-0.475933	0.000274
C21	C	0.822075	-0.569955	0.000282
C22	C	0.827412	-0.208475	0.000261
C23	C	0.574836	0.191085	0.000222
C24	C	0.502009	0.189809	0.000232
C25	C	0.473934	0.113401	0.000241
C26	C	0.518692	0.038264	0.000217
C27	C	0.591517	0.039542	0.000198
N28	N	0.365820	0.054998	0.052170
N29	N	0.296638	0.053788	0.052191
C30	C	0.254516	0.109545	0.000297
N31	N	0.284188	0.166569	-0.051606
N32	N	0.353375	0.167781	-0.051622
C33	C	0.394968	0.112007	0.000262
C34	C	0.130800	0.183294	0.000326
C35	C	0.057973	0.182015	0.000330
C36	C	0.074657	0.030468	0.000324
C37	C	0.147483	0.031749	0.000311
C38	C	0.175550	0.108165	0.000316
C39	C	0.952395	0.104248	0.000308
C40	C	1.029903	0.105606	0.000338
C41	C	0.819612	0.262805	0.000277
C42	C	0.820968	0.355096	0.000284
N43	N	0.824738	0.110779	-0.216728
C44	C	0.872232	0.054103	-0.451724
C45	C	0.872234	0.054101	-0.547706
C46	C	0.777255	0.167457	-0.547736
C47	C	0.777250	0.167454	-0.451757
C48	C	0.824743	0.110778	-0.403753
C49	C	0.824750	0.110779	-0.595714
C50	C	0.824751	0.110777	-0.699781
C51	C	0.824740	0.110779	-0.299679
N52	N	0.824754	0.110778	0.217261
H53	H	0.941306	-0.328970	0.000302
H54	H	0.465568	0.250988	0.000245
H55	H	0.938983	-0.486279	0.000317
C56	C	0.693427	-0.277576	0.000418
C57	C	0.690443	-0.227211	0.078878
C58	C	0.627493	-0.173656	0.079072
H59	H	0.691214	-0.243250	-0.052693
H60	H	0.654959	-0.309742	0.000454
H61	H	0.728901	-0.195047	0.078834
H62	H	0.692645	-0.261514	0.132002
H63	H	0.589025	-0.205823	0.079108
H64	H	0.625286	-0.139336	0.025958
H65	H	0.625458	-0.139483	0.132310
C66	C	0.196107	-0.049793	0.000116
C67	C	0.238363	-0.053500	-0.078353
C68	C	0.283158	-0.128612	-0.078572
H69	H	0.224948	-0.052521	0.053221
H70	H	0.168984	-0.095508	0.000075
H71	H	0.265484	-0.007797	-0.078303
H72	H	0.209542	-0.050786	-0.131470
H73	H	0.256035	-0.174327	-0.078613
H74	H	0.311994	-0.131332	-0.025464
H75	H	0.311829	-0.131140	-0.131816
H76	H	0.597683	0.253308	0.000228
H77	H	0.495829	-0.023948	0.000237
C78	C	0.161144	0.266340	0.000274
C79	C	0.106363	0.331863	0.000259
C80	C	0.134286	0.408377	0.000198
H81	H	0.189214	0.270110	0.053427
H82	H	0.189168	0.270031	-0.052926
H83	H	0.078350	0.328174	0.053454
H84	H	0.078289	0.328121	-0.052891
H85	H	0.162311	0.412068	-0.053002
H86	H	0.162356	0.412138	0.053353
H87	H	0.097122	0.452843	0.000180
C88	C	0.725777	0.228957	-0.600022
C89	C	0.735958	0.216847	-0.694345
C90	C	0.688557	0.273496	-0.742537
H91	H	0.679152	0.220123	-0.584430
H92	H	0.733353	0.284439	-0.584331
H93	H	0.728377	0.161378	-0.710029
H94	H	0.782575	0.225688	-0.709965
H95	H	0.696133	0.328979	-0.726846
H96	H	0.641935	0.264657	-0.726937
H97	H	0.695463	0.265293	-0.806539
C98	C	0.690809	-0.458643	0.000183
C99	C	0.703162	-0.546035	0.000161
C100	C	0.638985	-0.579425	0.000080
H101	H	0.664829	-0.440351	0.053332
H102	H	0.664877	-0.440312	-0.053022
H103	H	0.729082	-0.564359	0.053360
H104	H	0.729131	-0.564350	-0.052984
H105	H	0.613053	-0.561094	-0.053125
H106	H	0.613010	-0.561127	0.053230
H107	H	0.647358	-0.638723	0.000056
H108	H	0.627952	-0.021638	0.000183
C109	C	0.923820	-0.007528	-0.399771
C110	C	0.965396	-0.057177	-0.462331
C111	C	1.012919	-0.113971	-0.414508
H112	H	0.952942	0.022193	-0.362308
H113	H	0.898728	-0.042109	-0.362367
H114	H	0.990486	-0.022600	-0.499720
H115	H	0.936293	-0.086915	-0.499797
H116	H	0.987827	-0.148552	-0.377104
H117	H	1.042036	-0.084243	-0.377046
H118	H	1.041130	-0.147669	-0.456948
H119	H	0.910904	0.007950	-0.586761
C120	C	0.009304	0.263525	0.000496
C121	C	-0.032976	0.267202	0.078942
C122	C	-0.077824	0.342273	0.079121
H123	H	0.036367	0.309282	0.000546
H124	H	-0.019512	0.266190	-0.052644
H125	H	-0.004163	0.264545	0.132067
H126	H	-0.060053	0.221462	0.078908
H127	H	-0.106641	0.344937	0.025982
H128	H	-0.050756	0.388024	0.079169
H129	H	-0.106521	0.344774	0.132341
C130	C	0.725768	0.229127	-0.399716
C131	C	0.737083	0.310795	-0.423025
C132	C	0.689678	0.367624	-0.375096
H133	H	0.679145	0.220350	-0.415430
H134	H	0.732569	0.221062	-0.335671
H135	H	0.730277	0.318856	-0.487057
H136	H	0.783697	0.319598	-0.407309
H137	H	0.696479	0.359560	-0.311050
H138	H	0.643058	0.358840	-0.390813
H139	H	0.697353	0.423042	-0.390897
C140	C	0.044050	-0.052407	0.000383
C141	C	-0.029306	-0.037448	0.000425
C142	C	-0.057528	-0.113774	0.000489
H143	H	0.059315	-0.083397	-0.052779
H144	H	0.059393	-0.083334	0.053575
H145	H	-0.044642	-0.006534	-0.052761
H146	H	-0.044590	-0.006471	0.053583
H147	H	-0.042186	-0.144702	0.053681
H148	H	-0.042258	-0.144758	-0.052673
H149	H	-0.107303	-0.103635	0.000526
