data_functionalizedCrystal
_audit_creation_method	'MofGen! by Chris Wilmer'
_symmetry_space_group_name_H-M	'P1'
_symmetry_Int_Tables_number	1
_symmetry_cell_setting	triclinic
loop_
_symmetry_equiv_pos_as_xyz
  x,y,z
_cell_length_a	18.215407
_cell_length_b	16.959453
_cell_length_c	18.215399
_cell_angle_alpha	89.971976
_cell_angle_beta	89.982632
_cell_angle_gamma	90.017431
loop_
_atom_site_label
_atom_site_type_symbol
_atom_site_fract_x
_atom_site_fract_y
_atom_site_fract_z
Zn1	Zn	1.125097	-0.314744	-0.416067
Zn2	Zn	1.625097	0.185256	0.083933
Zn3	Zn	1.125016	-0.446929	-0.293001
Zn4	Zn	1.625016	0.053071	0.206999
Zn5	Zn	1.002030	-0.314763	-0.293020
Zn6	Zn	1.502030	0.185237	0.206980
Zn7	Zn	1.002006	-0.446878	-0.416031
Zn8	Zn	1.502006	0.053122	0.083969
O9	O	1.063537	-0.380828	-0.354530
O10	O	1.563537	0.119172	0.145470
O11	O	1.228070	-0.332292	-0.399749
O12	O	1.728070	0.167708	0.100251
O13	O	1.108677	-0.429426	-0.190019
O14	O	1.608677	0.070574	0.309981
O15	O	1.018398	-0.204149	-0.309365
O16	O	1.518398	0.295851	0.190635
O17	O	1.228011	-0.429408	-0.309333
O18	O	1.728011	0.070592	0.190667
O19	O	1.108816	-0.204135	-0.399768
O20	O	1.608816	0.295865	0.100232
O21	O	1.018320	-0.332324	-0.190033
O22	O	1.518320	0.167676	0.309967
O23	O	0.899042	-0.332275	-0.309330
O24	O	1.399042	0.167725	0.190670
O25	O	1.018358	-0.429321	-0.519020
O26	O	1.518358	0.070679	-0.019020
O27	O	0.899025	-0.429339	-0.399706
O28	O	1.399025	0.070661	0.100294
O29	O	1.108793	-0.332242	-0.519047
O30	O	1.608793	0.167758	-0.019047
O31	O	1.108655	-0.557533	-0.309298
O32	O	1.608655	-0.057533	0.190702
O33	O	1.018280	-0.557496	-0.399687
O34	O	1.518280	-0.057496	0.100313
C35	C	0.872331	-0.380804	-0.354517
C36	C	1.372331	0.119196	0.145483
C37	C	0.790532	-0.380813	-0.354529
C38	C	1.290532	0.119187	0.145471
C39	C	0.602368	-0.330348	-0.401683
C40	C	1.102368	0.169652	0.098317
C41	C	0.525509	-0.330355	-0.401685
C42	C	1.025509	0.169645	0.098315
C43	C	0.525458	-0.431330	-0.307389
C44	C	1.025458	0.068670	0.192611
C45	C	0.602315	-0.431319	-0.307384
C46	C	1.102315	0.068681	0.192616
C47	C	0.640768	-0.380829	-0.354535
C48	C	1.140768	0.119171	0.145465
C49	C	0.487052	-0.380847	-0.354543
C50	C	0.987052	0.119153	0.145457
C51	C	0.403719	-0.380855	-0.354545
C52	C	0.903719	0.119145	0.145455
C53	C	0.724107	-0.380820	-0.354531
C54	C	1.224107	0.119180	0.145469
C55	C	1.063476	-0.586195	-0.354503
C56	C	1.563476	-0.086195	0.145497
C57	C	1.063517	-0.674051	-0.354516
C58	C	1.563517	-0.174051	0.145484
C59	C	1.110678	-1.045461	-0.401691
C60	C	1.610678	-0.545461	0.098309
C61	C	1.016602	-1.045592	-0.307478
C62	C	1.516602	-0.545592	0.192522
C63	C	1.016575	-0.963047	-0.307461
C64	C	1.516575	-0.463047	0.192539
C65	C	1.063599	-0.921704	-0.354560
C66	C	1.563599	-0.421704	0.145440
C67	C	1.110650	-0.962907	-0.401677
C68	C	1.610650	-0.462907	0.098323
C69	C	0.969519	-0.921837	-0.260350
C70	C	1.469519	-0.421837	0.239650
C71	C	0.969489	-0.839286	-0.260332
C72	C	1.469489	-0.339286	0.239668
C73	C	1.016518	-0.797942	-0.307429
C74	C	1.516518	-0.297942	0.192571
C75	C	1.063571	-0.839151	-0.354546
C76	C	1.563571	-0.339151	0.145454
C77	C	1.110595	-0.797808	-0.401646
C78	C	1.610595	-0.297808	0.098354
C79	C	1.157653	-0.839015	-0.448761
C80	C	1.657653	-0.339015	0.051239
C81	C	1.157678	-0.921563	-0.448774
C82	C	1.657678	-0.421563	0.051226
C83	C	1.016493	-0.715394	-0.307416
C84	C	1.516493	-0.215394	0.192584
C85	C	1.110568	-0.715255	-0.401632
C86	C	1.610568	-0.215255	0.098368
C87	C	1.255490	-0.380853	-0.354543
C88	C	1.755490	0.119147	0.145457
C89	C	1.337289	-0.380864	-0.354549
C90	C	1.837289	0.119136	0.145451
C91	C	1.063582	-0.380774	-0.546483
C92	C	1.563582	0.119226	-0.046483
C93	C	1.063601	-0.380751	-0.628281
C94	C	1.563601	0.119249	-0.128281
C95	C	1.063619	-0.174660	-0.354573
C96	C	1.563619	0.325340	0.145427
C97	C	1.063654	-0.086803	-0.354591
C98	C	1.563654	0.413197	0.145409
C99	C	1.110707	-0.330154	-0.816491
C100	C	1.610707	0.169846	-0.316491
C101	C	1.110716	-0.330131	-0.893349
C102	C	1.610716	0.169869	-0.393349
C103	C	1.016547	-0.431224	-0.893310
C104	C	1.516547	0.068776	-0.393310
C105	C	1.016535	-0.431243	-0.816453
C106	C	1.516535	0.068757	-0.316453
C107	C	1.063619	-0.380709	-0.778045
C108	C	1.563619	0.119291	-0.278045
C109	C	1.063640	-0.380668	-0.931761
C110	C	1.563640	0.119332	-0.431761
C111	C	1.063649	-0.380643	-1.015095
C112	C	1.563649	0.119357	-0.515095
C113	C	1.063609	-0.380732	-0.694706
C114	C	1.563609	0.119268	-0.194706
C115	C	1.063535	-0.380826	-0.163323
C116	C	1.563535	0.119174	0.336677
C117	C	1.063658	-0.380626	-0.081525
C118	C	1.563658	0.119374	0.418475
H119	H	1.195938	-0.805344	-0.487113
H120	H	1.695938	-0.305344	0.012887
H121	H	0.978175	-0.681847	-0.269059
H122	H	1.478175	-0.181847	0.230941
O123	O	0.488174	-0.281237	-0.447383
O124	O	0.988174	0.218763	0.052617
C125	C	0.401389	-0.174576	-0.457471
C126	C	0.901389	0.325424	0.042529
C127	C	0.443638	-0.230142	-0.405633
C128	C	0.943638	0.269858	0.094367
H129	H	0.365360	-0.133263	-0.423738
H130	H	0.865360	0.366737	0.076262
H131	H	0.442044	-0.138432	-0.491155
H132	H	0.942044	0.361568	0.008845
H133	H	0.365447	-0.210941	-0.495907
H134	H	0.865447	0.289059	0.004093
H135	H	0.479582	-0.193838	-0.367152
H136	H	0.979582	0.306162	0.132848
H137	H	0.402944	-0.266289	-0.372000
H138	H	0.902944	0.233711	0.128000
O139	O	0.639642	-0.281340	-0.447581
O140	O	1.139642	0.218660	0.052419
C141	C	0.663243	-0.243165	-0.572827
C142	C	1.163243	0.256835	-0.072827
C143	C	0.620975	-0.298706	-0.520930
C144	C	1.120975	0.201294	-0.020930
H145	H	0.648178	-0.257197	-0.632140
H146	H	1.148178	0.242803	-0.132140
H147	H	0.648123	-0.179401	-0.560067
H148	H	1.148123	0.320599	-0.060067
H149	H	0.724768	-0.251815	-0.564688
H150	H	1.224768	0.248185	-0.064688
H151	H	0.559440	-0.290127	-0.529039
H152	H	1.059440	0.209873	-0.029039
H153	H	0.636156	-0.362450	-0.533702
H154	H	1.136156	0.137550	-0.033702
O155	O	0.487990	-0.480353	-0.261663
O156	O	0.987990	0.019647	0.238337
C157	C	0.369565	-0.525092	-0.219852
C158	C	0.869565	-0.025092	0.280148
C159	C	0.411903	-0.469544	-0.271685
C160	C	0.911903	0.030456	0.228315
H161	H	0.308041	-0.516360	-0.227925
H162	H	0.808041	-0.016360	0.272075
H163	H	0.384618	-0.588860	-0.232672
H164	H	0.884618	-0.088860	0.267328
H165	H	0.384699	-0.511138	-0.160539
H166	H	0.884699	-0.011138	0.339461
H167	H	0.396792	-0.483426	-0.331015
H168	H	0.896792	0.016574	0.168985
H169	H	0.396847	-0.405792	-0.258801
H170	H	0.896847	0.094208	0.241199
O171	O	0.923807	-0.799139	-0.214632
O172	O	1.423807	-0.299139	0.285368
C173	C	0.882108	-0.672029	-0.172815
C174	C	1.382108	-0.172029	0.327185
C175	C	0.933865	-0.717398	-0.224621
C176	C	1.433865	-0.217398	0.275379
H177	H	0.890233	-0.605933	-0.180862
H178	H	1.390233	-0.105933	0.319138
H179	H	0.822747	-0.688230	-0.185690
H180	H	1.322747	-0.188230	0.314310
H181	H	0.895064	-0.688345	-0.113498
H182	H	1.395064	-0.188345	0.386502
H183	H	0.920975	-0.701106	-0.283956
H184	H	1.420975	-0.201106	0.216044
H185	H	0.993211	-0.701193	-0.211683
H186	H	1.493211	-0.201193	0.288317
H187	H	0.633582	-0.472427	-0.268986
H188	H	1.133582	0.027573	0.231014
H189	H	1.149044	-0.289004	-0.785221
H190	H	1.649044	0.210996	-0.285221
O191	O	1.156528	-0.280999	-0.930581
O192	O	1.656528	0.219001	-0.430581
C193	C	1.249901	-0.180700	-0.922504
C194	C	1.749901	0.319300	-0.422504
C195	C	1.198067	-0.236319	-0.880248
C196	C	1.698067	0.263681	-0.380248
H197	H	1.283488	-0.144550	-0.881828
H198	H	1.783488	0.355450	-0.381828
H199	H	1.288422	-0.216946	-0.958465
H200	H	1.788422	0.283054	-0.458465
H201	H	1.216123	-0.139389	-0.958509
H202	H	1.716123	0.360611	-0.458509
H203	H	1.231786	-0.277641	-0.844203
H204	H	1.731786	0.222359	-0.344203
H205	H	1.159544	-0.200024	-0.844333
H206	H	1.659544	0.299976	-0.344333
O207	O	1.203481	-0.961549	-0.494475
O208	O	1.703481	-0.461549	0.005525
C209	C	1.328638	-0.986658	-0.530384
C210	C	1.828638	-0.486658	-0.030384
C211	C	1.276859	-0.941341	-0.478562
C212	C	1.776859	-0.441341	0.021438
H213	H	1.387973	-0.970324	-0.517547
H214	H	1.887973	-0.470324	-0.017547
H215	H	1.320642	-1.052770	-0.522314
H216	H	1.820642	-0.552770	-0.022314
H217	H	1.315620	-0.970388	-0.589700
H218	H	1.815620	-0.470388	-0.089700
H219	H	1.289844	-0.957544	-0.419226
H220	H	1.789844	-0.457544	0.080774
H221	H	1.284864	-0.875240	-0.486696
H222	H	1.784864	-0.375240	0.013304
H223	H	1.148864	-0.681598	-0.439984
H224	H	1.648864	-0.181598	0.060016
H225	H	0.978214	-0.472369	-0.924591
H226	H	1.478214	0.027631	-0.424591
H227	H	1.148993	-1.079015	-0.440049
H228	H	1.648993	-0.579015	0.059951
O229	O	0.970871	-0.480469	-0.779135
O230	O	1.470871	0.019531	-0.279135
C231	C	0.935066	-0.614922	-0.755605
C232	C	1.435066	-0.114922	-0.255605
C233	C	0.986836	-0.559270	-0.797900
C234	C	1.486836	-0.059270	-0.297900
H235	H	0.947945	-0.678643	-0.770773
H236	H	1.447945	-0.178643	-0.270773
H237	H	0.943148	-0.606319	-0.694067
H238	H	1.443148	-0.106319	-0.194067
H239	H	0.875736	-0.600992	-0.770701
H240	H	1.375736	-0.100992	-0.270701
H241	H	1.046186	-0.573165	-0.782866
H242	H	1.546186	-0.073165	-0.282866
H243	H	0.978690	-0.567883	-0.859428
H244	H	1.478690	-0.067883	-0.359428
O245	O	0.970996	-1.085871	-0.261750
O246	O	1.470996	-0.585871	0.238250
C247	C	0.929317	-1.213104	-0.220049
C248	C	1.429317	-0.713104	0.279951
C249	C	0.981015	-1.167583	-0.271865
C250	C	1.481015	-0.667583	0.228135
H251	H	0.937388	-1.279176	-0.228220
H252	H	1.437388	-0.779176	0.271780
H253	H	0.942275	-1.196968	-0.160701
H254	H	1.442275	-0.696968	0.339299
H255	H	0.869969	-1.196859	-0.232904
H256	H	1.369969	-0.696859	0.267096
H257	H	1.040379	-1.183804	-0.259076
H258	H	1.540379	-0.683804	0.240924
H259	H	0.967993	-1.183723	-0.331198
H260	H	1.467993	-0.683723	0.168802
H261	H	0.931233	-0.955504	-0.222006
H262	H	1.431233	-0.455504	0.277994
