data_functionalizedCrystal
_audit_creation_method	'MofGen! by Chris Wilmer'
_symmetry_space_group_name_H-M	'P1'
_symmetry_Int_Tables_number	1
_symmetry_cell_setting	triclinic
loop_
_symmetry_equiv_pos_as_xyz
  x,y,z
_cell_length_a	16.109301
_cell_length_b	15.995350
_cell_length_c	14.586319
_cell_angle_alpha	89.998440
_cell_angle_beta	89.999213
_cell_angle_gamma	83.476928
loop_
_atom_site_label
_atom_site_type_symbol
_atom_site_fract_x
_atom_site_fract_y
_atom_site_fract_z
O1	O	1.103160	0.107624	-0.076178
O2	O	1.603160	0.607624	0.423822
O3	O	0.861101	0.121018	-0.076192
O4	O	1.361101	0.621018	0.423808
O5	O	0.988747	-0.007569	-0.076184
O6	O	1.488747	0.492431	0.423816
O7	O	0.975514	0.236210	-0.076186
O8	O	1.475514	0.736210	0.423814
O9	O	0.988739	-0.007570	0.076297
O10	O	1.488739	0.492430	0.576297
O11	O	0.861093	0.121016	0.076289
O12	O	1.361093	0.621016	0.576289
O13	O	1.103151	0.107622	0.076303
O14	O	1.603151	0.607622	0.576303
Cu15	Cu	0.982121	0.114319	0.090219
Cu16	Cu	1.482121	0.614319	0.590219
Cu17	Cu	0.982131	0.114321	-0.090107
Cu18	Cu	1.482131	0.614321	0.409893
O19	O	0.975505	0.236208	0.076295
O20	O	1.475505	0.736208	0.576295
C21	C	0.830122	0.120474	0.000047
C22	C	1.330122	0.620474	0.500047
C23	C	0.737826	0.118848	0.000041
C24	C	1.237826	0.618848	0.500041
C25	C	0.515573	0.191366	0.000051
C26	C	1.015573	0.691366	0.500051
C27	C	0.428853	0.189831	0.000057
C28	C	0.928853	0.689831	0.500057
C29	C	0.448686	0.037268	0.000055
C30	C	0.948686	0.537268	0.500055
C31	C	0.535405	0.038804	0.000055
C32	C	1.035405	0.538804	0.500055
C33	C	0.568846	0.115855	0.000049
C34	C	1.068846	0.615855	0.500049
C35	C	0.395406	0.112785	0.000054
C36	C	0.895406	0.612785	0.500054
C37	C	0.301380	0.111120	0.000061
C38	C	0.801380	0.611120	0.500061
C39	C	0.662879	0.117520	0.000044
C40	C	1.162879	0.617520	0.500044
C41	C	0.988196	-0.038764	0.000055
C42	C	1.488196	0.461236	0.500055
C43	C	0.986556	-0.131714	0.000050
C44	C	1.486556	0.368286	0.500050
C45	C	0.980665	-0.469460	0.000053
C46	C	1.480665	0.030540	0.500053
C47	C	0.889758	-0.422001	-0.000295
C48	C	1.389758	0.077999	0.499705
C49	C	0.891399	-0.325311	0.000049
C50	C	1.391399	0.174689	0.500049
C51	C	0.983587	-0.301900	0.000051
C52	C	1.483587	0.198100	0.500051
C53	C	1.028421	-0.342991	0.087126
C54	C	1.528421	0.157009	0.587126
C55	C	1.026137	-0.439626	0.087198
C56	C	1.526137	0.060374	0.587198
C57	C	1.028025	-0.439983	-0.086201
C58	C	1.528025	0.060017	0.413799
C59	C	1.028003	-0.343037	-0.087351
C60	C	1.528003	0.156963	0.412649
C61	C	0.985243	-0.207203	0.000053
C62	C	1.485243	0.292797	0.500053
C63	C	0.979012	-0.564157	0.000057
C64	C	1.479012	-0.064157	0.500057
C65	C	1.134130	0.108166	0.000062
C66	C	1.634130	0.608166	0.500062
C67	C	1.226426	0.109792	0.000062
C68	C	1.726426	0.609792	0.500062
C69	C	0.976056	0.267404	0.000054
C70	C	1.476056	0.767404	0.500054
C71	C	0.977697	0.360354	0.000053
C72	C	1.477697	0.860354	0.500053
N73	N	0.982120	0.114317	0.217050
N74	N	1.482120	0.614317	0.717050
N75	N	0.982139	0.114317	-0.216939
N76	N	1.482139	0.614317	0.283061
C77	C	1.038660	0.057398	0.452061
C78	C	1.538660	0.557398	0.952061
C79	C	1.038662	0.057396	0.548042
C80	C	1.538662	0.557396	1.048042
C81	C	0.925593	0.171238	0.548044
C82	C	1.425593	0.671238	1.048044
C83	C	0.925587	0.171236	0.452064
C84	C	1.425587	0.671236	0.952064
C85	C	0.982125	0.114316	0.404075
C86	C	1.482125	0.614316	0.904075
C87	C	0.982134	0.114317	0.596036
C88	C	1.482134	0.614317	1.096036
C89	C	0.982136	0.114315	0.700103
C90	C	1.482136	0.614315	1.200103
C91	C	0.982122	0.114317	0.300001
C92	C	1.482122	0.614317	0.800001
H93	H	0.856156	-0.296879	-0.062370
H94	H	1.356156	0.203121	0.437630
H95	H	0.879546	0.217586	0.412992
H96	H	1.379546	0.717586	0.912992
N97	N	0.986979	-0.308758	-0.168177
N98	N	1.486979	0.191242	0.331823
N99	N	1.012866	-0.333312	-0.245482
N100	N	1.512866	0.166688	0.254518
H101	H	0.983900	-0.309089	-0.302566
H102	H	1.483900	0.190911	0.197434
H103	H	1.084696	0.011050	0.412990
H104	H	1.584696	0.511050	0.912990
N105	N	1.096399	-0.000747	0.597071
N106	N	1.596399	0.499253	1.097071
N107	N	1.096388	-0.000750	0.682766
N108	N	1.596388	0.499250	1.182766
H109	H	1.137160	-0.041822	0.717395
H110	H	1.637160	0.458178	1.217395
N111	N	0.549720	0.270076	0.000046
N112	N	1.049720	0.770076	0.500046
N113	N	0.502141	0.337490	0.000050
N114	N	1.002141	0.837490	0.500050
H115	H	0.526254	0.393083	0.000048
H116	H	1.026254	0.893083	0.500048
H117	H	1.095050	-0.471762	-0.086785
H118	H	1.595050	0.028238	0.413215
H119	H	0.385481	0.251320	0.000061
H120	H	0.885481	0.751320	0.500061
N121	N	0.414538	-0.041441	0.000044
N122	N	0.914538	0.458559	0.500044
N123	N	0.462116	-0.108856	0.000040
N124	N	0.962116	0.391144	0.500040
H125	H	0.438001	-0.164448	0.000030
H126	H	0.938001	0.335552	0.500030
H127	H	0.853427	-0.440522	-0.062738
H128	H	1.353427	0.059478	0.437262
N129	N	0.589816	-0.038341	0.000063
N130	N	1.089816	0.461659	0.500063
N131	N	0.559950	-0.107130	0.000064
N132	N	1.059950	0.392870	0.500064
H133	H	0.598377	-0.161612	0.000073
H134	H	1.098377	0.338388	0.500073
H135	H	0.853581	-0.441586	0.061797
H136	H	1.353581	0.058414	0.561797
N137	N	0.867849	0.229371	0.597080
N138	N	1.367849	0.729371	1.097080
N139	N	0.867861	0.229367	0.682775
N140	N	1.367861	0.729367	1.182775
H141	H	0.827078	0.270425	0.717407
H142	H	1.327078	0.770425	1.217407
H143	H	0.855912	-0.297438	0.062570
H144	H	1.355912	0.202562	0.562570
N145	N	0.989343	-0.307374	0.168408
N146	N	1.489343	0.192626	0.668408
N147	N	0.928484	-0.251740	0.162434
N148	N	1.428484	0.248260	0.662434
H149	H	0.900879	-0.226586	0.219837
H150	H	1.400879	0.273414	0.719837
N151	N	0.985114	-0.462568	0.168853
N152	N	1.485114	0.037432	0.668853
N153	N	0.958365	-0.407236	0.225389
N154	N	1.458365	0.092764	0.725389
H155	H	0.929390	-0.423433	0.283060
H156	H	1.429390	0.076567	0.783060
N157	N	1.109865	-0.480097	0.092168
N158	N	1.609865	0.019903	0.592168
N159	N	1.169798	-0.436945	0.095579
N160	N	1.669798	0.063055	0.595579
H161	H	1.228930	-0.465524	0.099095
H162	H	1.728930	0.034476	0.599095
H163	H	1.096149	-0.328884	0.090365
H164	H	1.596149	0.171116	0.590365
H165	H	0.998307	-0.460513	-0.152198
H166	H	1.498307	0.039487	0.347802
N167	N	1.112334	-0.323770	-0.093949
N168	N	1.612334	0.176230	0.406051
N169	N	1.141203	-0.279212	-0.034071
N170	N	1.641203	0.220788	0.465929
H171	H	1.200763	-0.265600	-0.038727
H172	H	1.700763	0.234400	0.461273
