data_functionalizedCrystal
_audit_creation_method	'MofGen! by Chris Wilmer'
_symmetry_space_group_name_H-M	'P1'
_symmetry_Int_Tables_number	1
_symmetry_cell_setting	triclinic
loop_
_symmetry_equiv_pos_as_xyz
  x,y,z
_cell_length_a	12.594516
_cell_length_b	18.215407
_cell_length_c	18.215399
_cell_angle_alpha	89.985640
_cell_angle_beta	89.975485
_cell_angle_gamma	90.013496
loop_
_atom_site_label
_atom_site_type_symbol
_atom_site_fract_x
_atom_site_fract_y
_atom_site_fract_z
Zn1	Zn	-0.423800	1.125095	-0.416097
Zn2	Zn	-0.601805	1.125029	-0.293044
Zn3	Zn	-0.423833	1.002034	-0.293050
Zn4	Zn	-0.601729	1.002013	-0.416074
O5	O	-0.512792	1.063543	-0.354566
O6	O	-0.447431	1.228071	-0.399781
O7	O	-0.578243	1.108695	-0.190060
O8	O	-0.274883	1.018395	-0.309385
O9	O	-0.578211	1.228022	-0.309374
O10	O	-0.274859	1.108808	-0.399787
O11	O	-0.447487	1.018331	-0.190065
O12	O	-0.447414	0.899047	-0.309362
O13	O	-0.578081	1.018358	-0.519061
O14	O	-0.578113	0.899031	-0.399747
O15	O	-0.447357	1.108787	-0.519079
O16	O	-0.750741	1.108674	-0.309351
O17	O	-0.750685	1.018294	-0.399741
C18	C	-0.512759	0.872337	-0.354553
C19	C	-0.512771	0.790538	-0.354565
C20	C	-0.444814	0.602368	-0.401715
C21	C	-0.444823	0.525509	-0.401717
C22	C	-0.580800	0.525470	-0.307431
C23	C	-0.580784	0.602327	-0.307425
C24	C	-0.512793	0.640774	-0.354571
C25	C	-0.512818	0.487058	-0.354579
C26	C	-0.512828	0.403724	-0.354582
C27	C	-0.512781	0.724113	-0.354568
C28	C	-0.789333	1.063495	-0.354559
C29	C	-0.907638	1.063541	-0.354581
C30	C	-0.976900	1.014379	-0.403709
C31	C	-1.047761	0.996453	-0.336557
C32	C	-1.047576	1.081534	-0.421744
C33	C	-0.976942	1.045580	-0.287393
C34	C	-0.976750	1.130692	-0.372625
C35	C	-1.047580	1.112792	-0.305427
C36	C	-0.235171	1.063611	-0.354590
C37	C	-0.116866	1.063640	-0.354599
C38	C	-0.512707	1.063578	-0.546519
C39	C	-0.512671	1.063592	-0.628318
C40	C	-0.512826	1.255496	-0.354580
C41	C	-0.512840	1.337295	-0.354585
C42	C	-0.444541	1.016580	-0.816515
C43	C	-0.444519	1.016593	-0.893374
C44	C	-0.580674	1.110693	-0.893359
C45	C	-0.580700	1.110676	-0.816501
C46	C	-0.512627	1.063620	-0.778082
C47	C	-0.512580	1.063650	-0.931798
C48	C	-0.512557	1.063664	-1.015132
C49	C	-0.512651	1.063605	-0.694743
C50	C	-0.512800	1.063551	-0.163360
C51	C	-0.512536	1.063678	-0.081561
H52	H	-0.389466	0.494242	-0.440105
H53	H	-0.636096	1.149004	-0.924649
H54	H	-0.636157	0.494157	-0.269047
C55	C	-0.723907	1.120848	-0.730052
C56	C	-0.655549	1.162387	-0.774250
H57	H	-0.770119	1.152770	-0.703972
H58	H	-0.683374	1.092827	-0.696176
H59	H	-0.764602	1.088785	-0.760038
H60	H	-0.614849	1.194446	-0.744263
H61	H	-0.696087	1.190421	-0.808130
C62	C	-1.200632	1.102507	-0.497437
C63	C	-1.089464	1.102028	-0.498409
H64	H	-1.226486	1.115150	-0.544770
H65	H	-1.224823	1.137517	-0.462608
H66	H	-1.225977	1.055172	-0.484287
H67	H	-1.064118	1.149364	-0.511554
H68	H	-1.065262	1.067016	-0.533250
C69	C	-0.393174	0.626071	-0.526389
C70	C	-0.370073	0.644630	-0.453532
H71	H	-0.347024	0.652157	-0.558377
H72	H	-0.464695	0.638669	-0.537073
H73	H	-0.383452	0.574799	-0.533128
H74	H	-0.379803	0.695901	-0.446792
H75	H	-0.298534	0.632036	-0.442844
C76	C	-0.715207	0.594574	-0.214230
C77	C	-0.655516	0.644549	-0.255603
H78	H	-0.761343	0.620642	-0.182241
H79	H	-0.668793	0.564592	-0.186134
H80	H	-0.755983	0.564603	-0.246257
H81	H	-0.614735	0.674516	-0.223576
H82	H	-0.701937	0.674543	-0.283701
H83	H	-0.945864	0.972730	-0.445195
C84	C	-1.054206	0.868401	-0.367462
C85	C	-1.089875	0.919852	-0.315956
H86	H	-1.080209	0.821112	-0.354749
H87	H	-0.978799	0.867701	-0.367741
H88	H	-1.079437	0.881493	-0.414827
H89	H	-1.064637	0.906763	-0.268591
H90	H	-1.165298	0.920550	-0.315669
H91	H	-0.946043	1.030336	-0.230585
H92	H	-1.078418	1.154409	-0.263841
C93	C	-0.970190	1.225954	-0.463633
C94	C	-0.934601	1.207272	-0.393251
H95	H	-0.944160	1.273230	-0.476372
H96	H	-1.045597	1.226440	-0.464229
H97	H	-0.944932	1.190868	-0.498031
H98	H	-0.959866	1.242356	-0.358852
H99	H	-0.859179	1.206792	-0.392650
C100	C	-0.384041	0.974821	-1.011196
C101	C	-0.369684	0.964879	-0.935622
H102	H	-0.337846	0.942888	-1.037276
H103	H	-0.368457	1.024266	-1.023797
H104	H	-0.455556	0.964040	-1.023769
H105	H	-0.298170	0.975666	-0.923047
H106	H	-0.385260	0.915423	-0.923016
C107	C	-0.309970	0.923558	-0.824254
C108	C	-0.369730	0.964848	-0.774284
H109	H	-0.263792	0.891616	-0.798181
H110	H	-0.269247	0.955636	-0.854234
H111	H	-0.356346	0.895411	-0.854227
H112	H	-0.323353	0.993000	-0.744314
H113	H	-0.410456	0.932766	-0.744291
