data_functionalizedCrystal
_audit_creation_method	'MofGen! by Chris Wilmer'
_symmetry_space_group_name_H-M	'P1'
_symmetry_Int_Tables_number	1
_symmetry_cell_setting	triclinic
loop_
_symmetry_equiv_pos_as_xyz
  x,y,z
_cell_length_a	11.792254
_cell_length_b	14.853566
_cell_length_c	13.930277
_cell_angle_alpha	89.995631
_cell_angle_beta	90.000099
_cell_angle_gamma	96.083494
loop_
_atom_site_label
_atom_site_type_symbol
_atom_site_fract_x
_atom_site_fract_y
_atom_site_fract_z
O1	O	-0.148173	1.196951	-0.079758
O2	O	-0.165827	0.934561	-0.079772
O3	O	0.008209	1.072118	-0.079769
O4	O	-0.322209	1.059395	-0.079761
O5	O	0.008212	1.072098	0.079893
O6	O	-0.165823	0.934542	0.079889
O7	O	-0.148170	1.196932	0.079904
Zn8	Zn	-0.156996	1.065734	0.105247
Zn9	Zn	-0.157001	1.065759	-0.105115
O10	O	-0.322205	1.059375	0.079901
C11	C	-0.165025	0.900960	0.000056
C12	C	-0.162629	0.800866	0.000050
C13	C	-0.152496	0.377652	-0.086965
C14	C	-0.152493	0.377653	0.087105
C15	C	-0.154743	0.471695	0.087102
C16	C	-0.155871	0.518721	0.000064
C17	C	-0.154750	0.471703	-0.086970
C18	C	-0.155876	0.518719	0.174135
C19	C	-0.158128	0.612767	0.174136
C20	C	-0.159248	0.659795	0.087097
C21	C	-0.158125	0.612772	0.000059
C22	C	-0.159254	0.659798	-0.086979
C23	C	-0.158123	0.612777	-0.174018
C24	C	-0.155870	0.518731	-0.174009
C25	C	-0.161501	0.753841	0.087088
C26	C	-0.161508	0.753849	-0.086984
C27	C	-0.364493	1.060186	0.000071
C28	C	-0.490491	1.062585	0.000074
C29	C	-0.592816	1.064534	0.000069
C30	C	-0.721187	1.066972	0.000058
C31	C	0.050496	1.071307	0.000059
C32	C	0.176495	1.068908	0.000049
C33	C	-0.148971	1.230534	0.000073
C34	C	-0.151367	1.330627	0.000073
N35	N	-0.156992	1.065723	0.248813
N36	N	-0.156996	1.065777	-0.248681
C37	C	-0.234033	1.004847	0.701080
C38	C	-0.079959	1.126697	0.701053
C39	C	-0.079956	1.126686	0.600557
C40	C	-0.156993	1.065756	0.550318
C41	C	-0.234034	1.004836	0.600575
C42	C	-0.002924	1.187611	0.550292
C43	C	-0.002918	1.187603	0.449791
C44	C	-0.079951	1.126667	0.399550
C45	C	-0.156994	1.065745	0.449813
C46	C	-0.234032	1.004814	0.399575
C47	C	-0.311071	0.943886	0.449836
C48	C	-0.311068	0.943900	0.550335
C49	C	-0.079954	1.126654	0.299051
C50	C	-0.234033	1.004803	0.299070
H51	H	-0.159049	0.651077	-0.244884
O52	O	-0.308710	0.945627	0.750005
C53	C	-0.247793	0.889703	0.808127
H54	H	-0.159062	0.925177	0.823175
H55	H	-0.295131	0.875676	0.878802
H56	H	-0.239928	0.823037	0.769404
H57	H	-0.373800	0.894280	0.408920
O58	O	-0.005174	1.185796	0.749999
C59	C	-0.021717	1.172761	0.849480
H60	H	-0.063974	1.101297	0.863220
H61	H	0.064211	1.182374	0.887678
H62	H	-0.078761	1.224069	0.877985
H63	H	-0.162433	0.792120	0.157954
H64	H	-0.017235	1.176264	0.258133
H65	H	-0.296763	0.955183	0.258171
H66	H	-0.154965	0.480423	0.244996
H67	H	-0.154948	0.480439	-0.244871
H68	H	-0.151582	0.339358	0.157967
O69	O	-0.151601	0.331920	-0.171485
C70	C	-0.248498	0.267774	-0.176678
H71	H	-0.317827	0.289312	-0.127288
H72	H	-0.281443	0.263443	-0.253655
H73	H	-0.224579	0.198698	-0.153293
H74	H	-0.159046	0.651044	0.245008
H75	H	-0.373791	0.894296	0.591264
O76	O	0.072016	1.246664	0.599143
C77	C	0.142121	1.198036	0.657298
H78	H	0.144204	1.126934	0.627010
H79	H	0.232251	1.234375	0.658447
H80	H	0.106602	1.193477	0.733462
O81	O	0.072030	1.246813	0.401120
C82	C	0.140002	1.300609	0.467014
H83	H	0.141363	1.263652	0.538663
H84	H	0.230614	1.313914	0.437979
H85	H	0.102996	1.367761	0.477683
H86	H	-0.162423	0.792131	-0.157862
