data_functionalizedCrystal
_audit_creation_method	'MofGen! by Chris Wilmer'
_symmetry_space_group_name_H-M	'P1'
_symmetry_Int_Tables_number	1
_symmetry_cell_setting	triclinic
loop_
_symmetry_equiv_pos_as_xyz
  x,y,z
_cell_length_a	23.532407
_cell_length_b	23.532361
_cell_length_c	22.610064
_cell_angle_alpha	89.996103
_cell_angle_beta	89.999397
_cell_angle_gamma	82.839173
loop_
_atom_site_label
_atom_site_type_symbol
_atom_site_fract_x
_atom_site_fract_y
_atom_site_fract_z
O1	O	0.069001	0.755281	-0.049131
O2	O	0.569001	1.255281	0.450869
O3	O	0.079032	0.589414	-0.049146
O4	O	0.579032	1.089414	0.450854
O5	O	-0.008916	0.677349	-0.049127
O6	O	0.491084	1.177349	0.450873
O7	O	0.156949	0.667345	-0.049150
O8	O	0.656949	1.167345	0.450850
O9	O	-0.008903	0.677333	0.049242
O10	O	0.491097	1.177333	0.549242
O11	O	0.079045	0.589398	0.049223
O12	O	0.579045	1.089398	0.549223
O13	O	0.069014	0.755265	0.049238
O14	O	0.569014	1.255265	0.549238
Zn15	Zn	0.074031	0.672329	0.064849
Zn16	Zn	0.574031	1.172329	0.564849
Zn17	Zn	0.074014	0.672350	-0.064757
Zn18	Zn	0.574014	1.172350	0.435243
O19	O	0.156962	0.667330	0.049219
O20	O	0.656962	1.167330	0.549219
C21	C	0.078787	0.568189	0.000037
C22	C	0.578787	1.068189	0.500037
C23	C	0.078032	0.504971	0.000031
C24	C	0.578032	1.004971	0.500031
C25	C	-0.030126	0.677086	0.000059
C26	C	0.469874	1.177086	0.500059
C27	C	-0.093343	0.676320	0.000063
C28	C	0.406657	1.176320	0.500063
C29	C	0.074721	0.231736	-0.053586
C30	C	0.574721	0.731736	0.446414
C31	C	0.075436	0.291135	-0.053587
C32	C	0.575436	0.791135	0.446413
O33	O	0.075780	0.321868	-0.099189
O34	O	0.575780	0.821868	0.400811
N35	N	0.075804	0.320832	0.000034
N36	N	0.575804	0.820832	0.500034
C37	C	0.075452	0.291128	0.053660
C38	C	0.575452	0.791128	0.553660
O39	O	0.075830	0.321842	0.099269
O40	O	0.575830	0.821842	0.599269
C41	C	0.074733	0.231730	0.053661
C42	C	0.574733	0.731730	0.553661
C43	C	0.074370	0.202035	0.000036
C44	C	0.574370	0.702035	0.500036
C45	C	0.074358	0.202041	-0.107206
C46	C	0.574358	0.702041	0.392794
C47	C	0.073644	0.142645	-0.107204
C48	C	0.573644	0.642645	0.392796
C49	C	0.073294	0.112944	-0.053582
C50	C	0.573294	0.612944	0.446418
C51	C	0.073657	0.142639	0.000038
C52	C	0.573657	0.642639	0.500038
C53	C	0.074376	0.202026	0.107287
C54	C	0.574376	0.702026	0.607287
C55	C	0.073656	0.142624	0.107283
C56	C	0.573656	0.642624	0.607283
C57	C	0.073294	0.112929	0.053658
C58	C	0.573294	0.612929	0.553658
C59	C	0.072592	0.053542	0.053662
C60	C	0.572592	0.553542	0.553662
N61	N	0.072224	0.023845	0.000041
N62	N	0.572224	0.523845	0.500041
C63	C	0.072575	0.053546	-0.053581
C64	C	0.572575	0.553546	0.446419
C65	C	0.076961	0.415868	0.053654
C66	C	0.576961	0.915868	0.553654
C67	C	0.077684	0.475264	0.053654
C68	C	0.577684	0.975264	0.553654
C69	C	0.077667	0.475268	-0.053594
C70	C	0.577667	0.975268	0.446406
C71	C	0.076948	0.415870	-0.053593
C72	C	0.576948	0.915870	0.446407
C73	C	0.076593	0.386171	0.000033
C74	C	0.576593	0.886171	0.500033
C75	C	0.071076	-0.071190	-0.053573
C76	C	0.571076	0.428810	0.446427
C77	C	0.070365	-0.130591	-0.053567
C78	C	0.570365	0.369409	0.446433
C79	C	0.070378	-0.130589	0.053680
C80	C	0.570378	0.369411	0.553680
C81	C	0.071093	-0.071193	0.053674
C82	C	0.571093	0.428807	0.553674
C83	C	0.071440	-0.041495	0.000043
C84	C	0.571440	0.458505	0.500043
O85	O	0.072245	0.022772	0.099240
O86	O	0.572245	0.522772	0.599240
O87	O	0.072189	0.022825	-0.099182
O88	O	0.572189	0.522825	0.400818
C89	C	-0.492454	0.723555	0.000035
C90	C	0.007546	1.223555	0.500035
C91	C	-0.551854	0.722844	0.000030
C92	C	-0.051854	1.222844	0.500030
O93	O	-0.588606	0.766630	0.000013
O94	O	-0.088606	1.266630	0.500013
N95	N	-0.574471	0.670566	0.000026
N96	N	-0.074471	1.170566	0.500026
C97	C	-0.537685	0.618997	0.000020
C98	C	-0.037685	1.118997	0.500020
O99	O	-0.562377	0.574465	0.000016
O100	O	-0.062377	1.074465	0.500016
C101	C	-0.478286	0.619709	0.000021
C102	C	0.021714	1.119709	0.500021
C103	C	-0.455672	0.671990	0.000031
C104	C	0.044328	1.171990	0.500031
C105	C	-0.469839	0.775832	0.000045
C106	C	0.030161	1.275832	0.500045
C107	C	-0.410443	0.776543	0.000050
C108	C	0.089557	1.276543	0.500050
C109	C	-0.373662	0.724977	0.000046
C110	C	0.126338	1.224977	0.500046
C111	C	-0.396276	0.672701	0.000037
C112	C	0.103724	1.172701	0.500037
C113	C	-0.441501	0.568140	0.000011
C114	C	0.058499	1.068140	0.500011
C115	C	-0.382099	0.568857	0.000011
C116	C	0.117901	1.068857	0.500011
C117	C	-0.359485	0.621137	0.000021
C118	C	0.140515	1.121137	0.500021
C119	C	-0.300099	0.621847	0.000038
C120	C	0.199901	1.121847	0.500038
N121	N	-0.277481	0.674124	0.000043
N122	N	0.222519	1.174124	0.500043
C123	C	-0.314263	0.725690	0.000047
C124	C	0.185737	1.225690	0.500047
C125	C	-0.662427	0.617505	0.000019
C126	C	-0.162427	1.117505	0.500019
C127	C	-0.721825	0.616793	0.000023
C128	C	-0.221825	1.116793	0.500023
C129	C	-0.735990	0.720640	0.000032
C130	C	-0.235990	1.220640	0.500032
C131	C	-0.676591	0.721352	0.000032
C132	C	-0.176591	1.221352	0.500032
C133	C	-0.639810	0.669783	0.000023
C134	C	-0.139810	1.169783	0.500023
C135	C	-0.189526	0.727179	0.000059
C136	C	0.310474	1.227179	0.500059
C137	C	-0.130124	0.727886	0.000067
C138	C	0.369876	1.227886	0.500067
C139	C	-0.115965	0.624039	0.000055
C140	C	0.384035	1.124039	0.500055
C141	C	-0.175361	0.623332	0.000050
C142	C	0.324639	1.123332	0.500050
C143	C	-0.212141	0.674907	0.000050
C144	C	0.287859	1.174907	0.500050
O145	O	-0.263312	0.578083	0.000054
O146	O	0.236688	1.078083	0.500054
O147	O	-0.289562	0.770214	0.000043
O148	O	0.210438	1.270214	0.500043
C149	C	0.178171	0.667592	0.000032
C150	C	0.678171	1.167592	0.500032
C151	C	0.241388	0.668358	0.000023
C152	C	0.741388	1.168358	0.500023
C153	C	0.069258	0.776489	0.000054
C154	C	0.569258	1.276489	0.500054
C155	C	0.070014	0.839708	0.000055
C156	C	0.570014	1.339708	0.500055
N157	N	0.074042	0.672319	0.153301
N158	N	0.574042	1.172319	0.653301
N159	N	0.073998	0.672364	-0.153209
N160	N	0.573998	1.172364	0.346791
C161	C	0.035077	0.711289	0.561951
C162	C	0.535077	1.211289	1.061951
C163	C	0.035073	0.711292	0.623871
C164	C	0.535073	1.211292	1.123871
O165	O	0.001951	0.744401	0.655897
O166	O	0.501951	1.244401	1.155897
N167	N	0.074002	0.672349	0.654838
N168	N	0.574002	1.172349	1.154838
C169	C	0.112935	0.633397	0.623883
C170	C	0.612935	1.133397	1.123883
O171	O	0.146047	0.600273	0.655909
O172	O	0.646047	1.100273	1.155909
C173	C	0.112936	0.633392	0.561964
C174	C	0.612936	1.133392	1.061964
C175	C	0.074007	0.672341	0.531000
C176	C	0.574007	1.172341	1.031000
C177	C	-0.003849	0.750235	0.530986
C178	C	0.496151	1.250235	1.030986
C179	C	-0.003844	0.750232	0.469071
C180	C	0.496156	1.250232	0.969071
C181	C	0.035087	0.711284	0.438120
C182	C	0.535087	1.211284	0.938120
C183	C	0.074013	0.672339	0.469084
C184	C	0.574013	1.172339	0.969084
C185	C	0.151865	0.594438	0.531009
C186	C	0.651865	1.094438	1.031009
C187	C	0.151863	0.594435	0.469086
C188	C	0.651863	1.094435	0.969086
C189	C	0.112934	0.633385	0.438122
C190	C	0.612934	1.133385	0.938122
C191	C	0.112948	0.633388	0.376217
C192	C	0.612948	1.133388	0.876217
N193	N	0.074018	0.672331	0.345250
N194	N	0.574018	1.172331	0.845250
C195	C	0.035088	0.711279	0.376201
C196	C	0.535088	1.211279	0.876201
C197	C	0.112929	0.633410	0.753916
C198	C	0.612929	1.133410	1.253916
C199	C	0.112932	0.633418	0.815834
C200	C	0.612932	1.133418	1.315834
C201	C	0.035068	0.711312	0.815818
C202	C	0.535068	1.211312	1.315818
C203	C	0.035069	0.711307	0.753899
C204	C	0.535069	1.211307	1.253899
C205	C	0.074000	0.672353	0.722949
C206	C	0.574000	1.172353	1.222949
C207	C	0.035102	0.711272	0.246173
C208	C	0.535102	1.211272	0.746173
C209	C	0.035112	0.711267	0.184252
C210	C	0.535112	1.211267	0.684252
C211	C	0.112973	0.633371	0.184274
C212	C	0.612973	1.133371	0.684274
C213	C	0.112965	0.633377	0.246190
C214	C	0.612965	1.133377	0.746190
C215	C	0.074024	0.672330	0.277138
C216	C	0.574024	1.172330	0.777138
O217	O	0.146051	0.600295	0.344152
O218	O	0.646051	1.100295	0.844152
O219	O	0.001976	0.744393	0.344167
O220	O	0.501976	1.244393	0.844167
H221	H	0.070071	-0.154766	-0.097237
H222	H	0.570071	0.345234	0.402763
H223	H	0.077988	0.499436	0.097321
H224	H	0.577988	0.999436	0.597321
H225	H	-0.392037	0.819115	0.000056
H226	H	0.107963	1.319115	0.500056
H227	H	-0.765949	0.762627	0.000032
H228	H	-0.265949	1.262627	0.500032
N229	N	-0.344527	0.516179	-0.000011
N230	N	0.155473	1.016179	0.499989
N231	N	-0.346418	0.481346	-0.041485
N232	N	0.153582	0.981346	0.458515
H233	H	-0.319884	0.444143	-0.041501
H234	H	0.180116	0.944143	0.458499
H235	H	-0.035544	0.781946	0.443863
H236	H	0.464456	1.281946	0.943863
N237	N	-0.227090	0.779861	0.000076
N238	N	0.272910	1.279861	0.500076
N239	N	-0.261813	0.791044	0.041544
N240	N	0.238187	1.291044	0.541544
H241	H	-0.288342	0.828250	0.041561
H242	H	0.211658	1.328250	0.541561
H243	H	0.144636	0.601691	0.728720
H244	H	0.644636	1.101691	1.228720
N245	N	-0.507397	0.828515	0.000045
N246	N	-0.007397	1.328515	0.500045
N247	N	-0.487186	0.875182	0.000051
N248	N	0.012814	1.375182	0.500051
H249	H	-0.513708	0.912393	0.000055
H250	H	-0.013708	1.412393	0.500055
N251	N	-0.744911	0.563384	0.000026
N252	N	-0.244911	1.063384	0.500026
N253	N	-0.712057	0.517350	0.000026
N254	N	-0.212057	1.017350	0.500026
H255	H	-0.728359	0.479628	0.000026
H256	H	-0.228359	0.979628	0.500026
H257	H	-0.658183	0.763923	0.000040
H258	H	-0.158183	1.263923	0.500040
N259	N	0.070023	-0.160927	0.108457
N260	N	0.570023	0.339073	0.608457
N261	N	0.110255	-0.159780	0.144360
N262	N	0.610255	0.340220	0.644360
H263	H	0.110001	-0.181206	0.183047
H264	H	0.610001	0.318794	0.683047
H265	H	0.073372	0.118445	0.150953
H266	H	0.573372	0.618445	0.650953
H267	H	0.073347	0.118473	-0.150871
H268	H	0.573347	0.618473	0.349129
H269	H	0.076653	0.391696	-0.097259
H270	H	0.576653	0.891696	0.402741
N271	N	-0.004680	0.751062	0.277771
N272	N	0.495320	1.251062	0.777771
N273	N	-0.039430	0.785828	0.250107
N274	N	0.460570	1.285828	0.750107
H275	H	-0.067524	0.813932	0.272422
H276	H	0.432476	1.313932	0.772422
N277	N	-0.004715	0.751080	0.847443
N278	N	0.495285	1.251080	1.347443
N279	N	-0.039971	0.733197	0.881987
N280	N	0.460029	1.233197	1.381987
H281	H	-0.068071	0.761278	0.904321
H282	H	0.431929	1.261278	1.404321
H283	H	0.144637	0.601708	0.841041
H284	H	0.644637	1.101708	1.341041
H285	H	0.183564	0.562721	0.556212
H286	H	0.683564	1.062721	1.056212
N287	N	0.071427	-0.040868	-0.108361
N288	N	0.571427	0.459132	0.391639
N289	N	0.071103	-0.067397	-0.156229
N290	N	0.571103	0.432603	0.343771
H291	H	0.071353	-0.045983	-0.194923
H292	H	0.571353	0.454017	0.305077
H293	H	-0.632483	0.575509	0.000016
H294	H	-0.132483	1.075509	0.500016
H295	H	-0.459902	0.525567	-0.000001
H296	H	0.040098	1.025567	0.499999
N297	N	0.152731	0.593601	0.277829
N298	N	0.652731	1.093601	0.777829
N299	N	0.187987	0.611463	0.312384
N300	N	0.687987	1.111463	0.812384
H301	H	0.216070	0.583367	0.334726
H302	H	0.716070	1.083367	0.834726
H303	H	-0.086007	0.582056	0.000054
H304	H	0.413993	1.082056	0.500054
N305	N	0.074713	0.232365	-0.161990
N306	N	0.574713	0.732365	0.338010
N307	N	0.074386	0.205834	-0.209856
N308	N	0.574386	0.705834	0.290144
H309	H	0.074640	0.227246	-0.248552
H310	H	0.574640	0.727246	0.251448
H311	H	-0.035554	0.781951	0.556182
H312	H	0.464446	1.281951	1.056182
N313	N	0.191632	0.554638	0.437482
N314	N	0.691632	1.054638	0.937482
N315	N	0.226383	0.519868	0.465141
N316	N	0.726383	1.019868	0.965141
H317	H	0.254471	0.491761	0.442822
H318	H	0.754471	0.991761	0.942822
H319	H	-0.193774	0.580761	0.000058
H320	H	0.306226	1.080761	0.500058
N321	N	-0.004728	0.751067	0.722282
N322	N	0.495272	1.251067	1.222282
N323	N	-0.039500	0.785819	0.749932
N324	N	0.460500	1.285819	1.249932
H325	H	-0.067621	0.813890	0.727605
H326	H	0.432379	1.313890	1.227605
H327	H	0.003411	0.742986	0.159043
H328	H	0.503411	1.242986	0.659043
H329	H	0.076678	0.391689	0.097326
H330	H	0.576678	0.891689	0.597326
N331	N	0.078017	0.505623	-0.108364
N332	N	0.578017	1.005623	0.391636
N333	N	0.078651	0.558658	-0.108351
N334	N	0.578651	1.058658	0.391649
H335	H	0.078896	0.580099	-0.147030
H336	H	0.578896	1.080099	0.352970
N337	N	0.074738	0.232341	0.162070
N338	N	0.574738	0.732341	0.662070
N339	N	0.074415	0.205805	0.209937
N340	N	0.574415	0.705805	0.709937
H341	H	0.074666	0.227215	0.248631
H342	H	0.574666	0.727215	0.748631
H343	H	0.071399	-0.047016	0.097340
H344	H	0.571399	0.452984	0.597340
N345	N	0.152744	0.593596	0.152651
N346	N	0.652744	1.093596	0.652651
N347	N	0.188002	0.611461	0.118097
N348	N	0.688002	1.111461	0.618097
H349	H	0.216089	0.583367	0.095761
H350	H	0.716089	1.083367	0.595761
N351	N	-0.107035	0.781297	0.000082
N352	N	0.392965	1.281297	0.500082
N353	N	-0.139887	0.827332	0.000086
N354	N	0.360113	1.327332	0.500086
H355	H	-0.123583	0.865054	0.000096
H356	H	0.376417	1.365054	0.500096
