data_functionalizedCrystal
_audit_creation_method	'MofGen! by Chris Wilmer'
_symmetry_space_group_name_H-M	'P1'
_symmetry_Int_Tables_number	1
_symmetry_cell_setting	triclinic
loop_
_symmetry_equiv_pos_as_xyz
  x,y,z
_cell_length_a	6.817900
_cell_length_b	11.102237
_cell_length_c	12.200875
_cell_angle_alpha	92.493878
_cell_angle_beta	107.143593
_cell_angle_gamma	108.604801
loop_
_atom_site_label
_atom_site_type_symbol
_atom_site_fract_x
_atom_site_fract_y
_atom_site_fract_z
V1	V	-4.094466	-0.176128	-0.357663
O2	O	-4.053827	0.008167	-0.350852
O3	O	-4.071357	-0.348947	-0.355219
O4	O	-4.063806	-0.173549	-0.513652
O5	O	-4.061429	-0.168445	-0.191324
V6	V	-4.572518	-0.154069	-0.337767
O7	O	-4.367725	-0.224517	-0.401306
O8	O	-4.749456	-0.105680	-0.294124
O9	O	-4.372421	0.018750	-0.340211
O10	O	-4.730554	-0.338364	-0.344578
O11	O	-4.722952	-0.161752	-0.504107
O12	O	-4.379971	-0.156648	-0.181779
C13	C	-3.921936	-0.391072	-0.349578
C14	C	-3.984446	-0.532354	-0.348619
C15	C	-3.912303	-0.167333	-0.551672
C16	C	-3.968687	-0.166368	-0.679193
C17	C	-4.068980	-0.616959	-0.453220
C18	C	-4.127707	-0.749708	-0.452318
C19	C	-4.017365	-0.713235	-0.242207
C20	C	-3.958625	-0.580488	-0.243109
C21	C	-4.132694	-0.638018	-0.574526
C22	C	-4.191421	-0.770768	-0.573625
C23	C	-4.071876	-0.164603	-0.912668
C24	C	-4.014446	-0.165585	-0.782746
C25	C	-4.185185	0.060868	-0.345850
C26	C	-4.101914	0.202149	-0.346816
C27	C	-4.194816	-0.162868	-0.143753
C28	C	-4.117671	-0.163826	-0.016230
H29	H	-3.889773	-0.511605	-0.157933
H30	H	-4.000158	-0.605111	-0.616956
H31	H	-4.083894	-0.813351	-0.606481
O32	O	-4.308355	-0.602935	-0.625063
C33	C	-4.458411	-0.638646	-0.563509
H34	H	-4.432155	-0.720169	-0.514261
H35	H	-4.431875	-0.552511	-0.499424
C36	C	-4.725885	-0.583755	-0.709850
C37	C	-4.693649	-0.683891	-0.649371
H38	H	-4.870992	-0.611659	-0.762811
H39	H	-4.624788	-0.559691	-0.751318
H40	H	-4.703758	-0.511985	-0.656435
H41	H	-4.715750	-0.755652	-0.702785
H42	H	-4.794756	-0.707968	-0.607913
O43	O	-3.992535	-0.760213	-0.139825
C44	C	-4.062448	-0.895520	-0.161454
H45	H	-4.181691	-0.931573	-0.253604
H46	H	-3.914789	-0.926627	-0.151179
C47	C	-4.030749	-0.908320	0.038700
C48	C	-4.177219	-0.952601	-0.074477
H49	H	-4.101536	-0.943531	0.092354
H50	H	-3.983638	-0.817161	0.053273
H51	H	-3.907709	-0.934245	0.047246
H52	H	-4.300241	-0.926661	-0.083025
H53	H	-4.224353	-1.043757	-0.089050
O54	O	-4.407849	-0.829543	-0.634132
C55	C	-4.466628	-0.963201	-0.633089
H56	H	-4.314798	-0.991411	-0.616534
H57	H	-4.541265	-0.989768	-0.561414
C58	C	-4.821593	-1.000558	-0.771465
C59	C	-4.635115	-1.035208	-0.751142
H60	H	-4.925531	-1.044977	-0.844283
H61	H	-4.781997	-0.910510	-0.772165
H62	H	-4.883762	-1.022699	-0.711728
H63	H	-4.572934	-1.013052	-0.810870
H64	H	-4.674705	-1.125254	-0.750455
