data_functionalizedCrystal
_audit_creation_method	'MofGen! by Chris Wilmer'
_symmetry_space_group_name_H-M	'P1'
_symmetry_Int_Tables_number	1
_symmetry_cell_setting	triclinic
loop_
_symmetry_equiv_pos_as_xyz
  x,y,z
_cell_length_a	18.050589
_cell_length_b	18.050591
_cell_length_c	11.169409
_cell_angle_alpha	90.019364
_cell_angle_beta	89.967150
_cell_angle_gamma	89.971884
loop_
_atom_site_label
_atom_site_type_symbol
_atom_site_fract_x
_atom_site_fract_y
_atom_site_fract_z
Zn1	Zn	-0.295601	-1.135353	-0.678524
Zn2	Zn	-0.419816	-1.135246	-0.477839
Zn3	Zn	-0.295645	-1.011154	-0.477860
Zn4	Zn	-0.419754	-1.011120	-0.678485
O5	O	-0.357704	-1.073218	-0.578177
O6	O	-0.312087	-1.239263	-0.651910
O7	O	-0.403389	-1.118754	-0.309892
O8	O	-0.191714	-1.027689	-0.504503
O9	O	-0.403347	-1.239185	-0.504467
O10	O	-0.191683	-1.118937	-0.651930
O11	O	-0.312160	-1.027585	-0.309907
O12	O	-0.312100	-0.907225	-0.504466
O13	O	-0.403241	-1.027631	-0.846440
O14	O	-0.403282	-0.907200	-0.651864
O15	O	-0.312026	-1.118904	-0.846468
O16	O	-0.523733	-1.118721	-0.504430
O17	O	-0.523687	-1.027527	-0.651844
C18	C	-0.357689	-0.880266	-0.578164
C19	C	-0.357701	-0.797720	-0.578187
C20	C	-0.407393	-0.548903	-0.658229
C21	C	-0.425481	-0.598263	-0.548685
C22	C	-0.357730	-0.500600	-0.578180
C23	C	-0.339663	-0.598322	-0.687721
C24	C	-0.357718	-0.646585	-0.578189
C25	C	-0.375852	-0.548873	-0.468578
C26	C	-0.290004	-0.548927	-0.607688
C27	C	-0.308065	-0.598265	-0.498068
C28	C	-0.357739	-0.416502	-0.578176
C29	C	-0.357709	-0.730682	-0.578180
C30	C	-0.550656	-1.073129	-0.578157
C31	C	-0.633202	-1.073158	-0.578189
C32	C	-0.832655	-1.023615	-0.658324
C33	C	-0.882106	-1.005508	-0.548809
C34	C	-0.784332	-1.073231	-0.578204
C35	C	-0.881963	-1.091375	-0.687732
C36	C	-0.930317	-1.073300	-0.578229
C37	C	-0.832696	-1.055088	-0.468631
C38	C	-0.832549	-1.140987	-0.607627
C39	C	-0.881978	-1.122905	-0.498037
C40	C	-0.700234	-1.073190	-0.578191
C41	C	-1.014414	-1.073342	-0.578229
C42	C	-0.163998	-1.073329	-0.578223
C43	C	-0.081453	-1.073376	-0.578243
C44	C	-0.357622	-1.073275	-0.891219
C45	C	-0.357586	-1.073300	-1.024620
C46	C	-0.357724	-0.266924	-0.578187
C47	C	-0.357744	-0.349470	-0.578181
C48	C	-0.357733	-1.073204	-0.266352
C49	C	-0.357559	-1.073324	-0.132953
H50	H	-0.266061	-0.619802	-0.430299
H51	H	-0.449430	-0.527229	-0.725835
H52	H	-0.232750	-0.527239	-0.632682
N53	N	-0.320509	-0.625570	-0.803931
N54	N	-0.359983	-0.609751	-0.892217
H55	H	-0.346461	-0.628993	-0.974294
N56	N	-0.805476	-0.970918	-0.743219
N57	N	-0.822140	-0.976981	-0.851384
H58	H	-0.802943	-0.939764	-0.911338
N59	N	-0.805229	-1.212812	-0.638894
N60	N	-0.820957	-1.240441	-0.738308
H61	H	-0.801662	-1.291169	-0.760403
H62	H	-0.482751	-0.619934	-0.523722
H63	H	-0.391197	-0.527244	-0.375919
H64	H	-0.903890	-0.948241	-0.523945
N65	N	-0.908996	-1.175581	-0.412976
N66	N	-0.948529	-1.228379	-0.446975
H67	H	-0.967613	-1.265579	-0.386899
N68	N	-0.909114	-1.110583	-0.803919
N69	N	-0.893296	-1.071134	-0.892256
H70	H	-0.912470	-1.084693	-0.974317
N71	N	-0.805655	-1.035778	-0.352422
N72	N	-0.737467	-1.032600	-0.333670
H73	H	-0.718367	-1.018955	-0.251602
