data_functionalizedCrystal
_audit_creation_method	'MofGen! by Chris Wilmer'
_symmetry_space_group_name_H-M	'P1'
_symmetry_Int_Tables_number	1
_symmetry_cell_setting	triclinic
loop_
_symmetry_equiv_pos_as_xyz
  x,y,z
_cell_length_a	17.077404
_cell_length_b	12.759400
_cell_length_c	12.759393
_cell_angle_alpha	90.030210
_cell_angle_beta	90.021296
_cell_angle_gamma	90.014910
loop_
_atom_site_label
_atom_site_type_symbol
_atom_site_fract_x
_atom_site_fract_y
_atom_site_fract_z
Zn1	Zn	1.200113	-0.418212	0.594068
Zn2	Zn	1.200035	-0.593927	0.418388
Zn3	Zn	1.068841	-0.418263	0.418398
Zn4	Zn	1.068832	-0.593850	0.594020
O5	O	1.134455	-0.506063	0.506219
O6	O	1.309950	-0.441532	0.570780
O7	O	1.182603	-0.570678	0.271368
O8	O	1.086291	-0.271235	0.441725
O9	O	1.309892	-0.570628	0.441708
O10	O	1.182736	-0.271198	0.570789
O11	O	1.086215	-0.441619	0.271376
O12	O	0.958993	-0.441544	0.441679
O13	O	1.086276	-0.570498	0.741048
O14	O	0.958986	-0.570548	0.570708
O15	O	1.182727	-0.441457	0.741083
O16	O	1.182594	-0.740938	0.441662
O17	O	1.086200	-0.740881	0.570698
C18	C	0.930507	-0.506044	0.506190
C19	C	0.843258	-0.506061	0.506202
C20	C	0.802285	-0.573334	0.573280
C21	C	0.720304	-0.573337	0.573297
C22	C	0.679298	-0.506070	0.506230
C23	C	0.720277	-0.438790	0.439149
C24	C	0.802256	-0.438783	0.439138
C25	C	0.549407	-0.438810	0.439174
C26	C	0.467422	-0.438818	0.439183
C27	C	0.467455	-0.573364	0.573333
C28	C	0.549434	-0.573357	0.573322
C29	C	0.590407	-0.506078	0.506240
C30	C	1.134409	-0.779030	0.506197
C31	C	1.134461	-0.895807	0.506222
C32	C	1.184709	-0.950663	0.439108
C33	C	1.184757	-1.060387	0.439140
C34	C	1.084302	-1.060389	0.573405
C35	C	1.084258	-0.950667	0.573377
C36	C	1.234911	-0.895803	0.371953
C37	C	1.285163	-0.950660	0.304832
C38	C	1.285211	-1.060384	0.304864
C39	C	1.235008	-1.115251	0.372018
C40	C	1.339200	-0.506083	0.506248
C41	C	1.426449	-0.506091	0.506261
C42	C	1.134509	-0.505963	0.780252
C43	C	1.134532	-0.505921	0.897029
C44	C	1.134523	-0.232030	0.506264
C45	C	1.134552	-0.115253	0.506283
C46	C	1.134447	-0.506086	0.233251
C47	C	1.134576	-0.505833	0.116475
C48	C	1.184750	-0.573046	1.061616
C49	C	1.184726	-0.573093	0.951892
C50	C	1.084353	-0.438705	0.951896
C51	C	1.084373	-0.438664	1.061618
C52	C	1.234953	-0.640215	1.116473
C53	C	1.285132	-0.707433	1.061614
C54	C	1.285108	-0.707480	0.951890
C55	C	1.234906	-0.640310	0.897025
H56	H	0.686884	-0.384015	0.384547
O57	O	1.030056	-0.891499	0.645761
H58	H	1.065149	-0.841437	0.699249
H59	H	0.434038	-0.384031	0.384584
O60	O	1.235059	-1.233598	0.372048
H61	H	1.250909	-1.262451	0.451316
H62	H	1.234980	-0.640182	1.205816
H63	H	1.326001	-0.762126	1.106292
H64	H	1.325962	-0.762218	0.907227
H65	H	0.434091	-0.628143	0.627956
H66	H	1.043519	-0.383930	1.106285
O67	O	0.846455	-0.366237	0.366779
H68	H	0.804170	-0.319473	0.320134
O69	O	1.339324	-0.891491	0.232423
H70	H	1.330850	-0.805978	0.243673
H71	H	1.234882	-0.640366	0.807680
O72	O	1.030219	-0.366251	0.892719
H73	H	0.995329	-0.319508	0.949300
O74	O	1.234862	-0.777459	0.371899
H75	H	1.175651	-0.748621	0.350578
H76	H	0.686947	-0.628118	0.627917
H77	H	0.582765	-0.384015	0.384558
H78	H	0.835666	-0.628114	0.627890
O79	O	0.593667	-0.645903	0.645659
H80	H	0.551405	-0.692679	0.692316
H81	H	1.326134	-1.105045	0.250219
H82	H	1.043428	-1.105071	0.628077
