data_functionalizedCrystal
_audit_creation_method	'MofGen! by Chris Wilmer'
_symmetry_space_group_name_H-M	'P1'
_symmetry_Int_Tables_number	1
_symmetry_cell_setting	triclinic
loop_
_symmetry_equiv_pos_as_xyz
  x,y,z
_cell_length_a	19.077269
_cell_length_b	12.594516
_cell_length_c	19.076919
_cell_angle_alpha	87.724265
_cell_angle_beta	85.330942
_cell_angle_gamma	87.714783
loop_
_atom_site_label
_atom_site_type_symbol
_atom_site_fract_x
_atom_site_fract_y
_atom_site_fract_z
Zn1	Zn	1.061729	-0.509834	0.355289
Zn2	Zn	1.561729	-0.009834	0.855289
Zn3	Zn	1.066408	-0.680951	0.237415
Zn4	Zn	1.566408	-0.180951	0.737415
Zn5	Zn	0.948584	-0.496119	0.242156
Zn6	Zn	1.448584	0.003881	0.742156
Zn7	Zn	0.943839	-0.680897	0.359998
Zn8	Zn	1.443839	-0.180897	0.859998
O9	O	1.005140	-0.591950	0.298714
O10	O	1.505140	-0.091950	0.798714
O11	O	1.160997	-0.538296	0.335698
O12	O	1.660997	-0.038296	0.835698
O13	O	1.054723	-0.650715	0.139396
O14	O	1.554723	-0.150715	0.639396
O15	O	0.963620	-0.348995	0.257177
O16	O	1.463620	0.151005	0.757177
O17	O	1.164435	-0.664014	0.249096
O18	O	1.664435	-0.164014	0.749096
O19	O	1.046747	-0.359072	0.340296
O20	O	1.546747	0.140928	0.840296
O21	O	0.968158	-0.514920	0.142879
O22	O	1.468158	-0.014920	0.642879
O23	O	0.849307	-0.514868	0.261743
O24	O	1.349307	-0.014868	0.761743
O25	O	0.955533	-0.663923	0.458021
O26	O	1.455533	-0.163923	0.958021
O27	O	0.845822	-0.650624	0.348320
O28	O	1.345822	-0.150624	0.848320
O29	O	1.042146	-0.538244	0.454562
O30	O	1.542146	-0.038244	0.954562
O31	O	1.050122	-0.829887	0.253662
O32	O	1.550122	-0.329887	0.753662
O33	O	0.960071	-0.829848	0.343723
O34	O	1.460071	-0.329848	0.843723
C35	C	0.821986	-0.581253	0.306058
C36	C	1.321986	-0.081253	0.806058
C37	C	0.743632	-0.576703	0.309216
C38	C	1.243632	-0.076703	0.809216
C39	C	0.708610	-0.639905	0.265543
C40	C	1.208610	-0.139905	0.765543
C41	C	0.634987	-0.635631	0.268520
C42	C	1.134987	-0.135631	0.768520
C43	C	0.596387	-0.568147	0.315166
C44	C	1.096387	-0.068147	0.815166
C45	C	0.631414	-0.504942	0.358843
C46	C	1.131414	-0.004942	0.858843
C47	C	0.705035	-0.509223	0.355869
C48	C	1.205035	-0.009223	0.855869
C49	C	0.376011	-0.548343	0.328905
C50	C	0.876011	-0.048343	0.828905
C51	C	0.302384	-0.544065	0.331874
C52	C	0.802384	-0.044065	0.831874
C53	C	0.305963	-0.674756	0.241552
C54	C	0.805963	-0.174756	0.741552
C55	C	0.379586	-0.679026	0.238579
C56	C	0.879586	-0.179026	0.738579
C57	C	0.414606	-0.615825	0.282259
C58	C	0.914606	-0.115825	0.782259
N59	N	0.521133	-0.563774	0.318208
N60	N	1.021133	-0.063774	0.818208
N61	N	0.489859	-0.620204	0.279220
N62	N	0.989859	-0.120204	0.779220
C63	C	1.005108	-0.868489	0.298703
C64	C	1.505108	-0.368489	0.798703
C65	C	1.005158	-0.986798	0.298720
C66	C	1.505158	-0.486798	0.798720
C67	C	1.054189	-1.056040	0.249784
C68	C	1.554189	-0.556040	0.749784
C69	C	1.068827	-1.131502	0.313434
C70	C	1.568827	-0.631502	0.813434
C71	C	0.990606	-1.122143	0.235106
C72	C	1.490606	-0.622143	0.735106
C73	C	1.019827	-1.060705	0.362403
C74	C	1.519827	-0.560705	0.862403
C75	C	0.941578	-1.051336	0.284033
C76	C	1.441578	-0.551336	0.784033
C77	C	0.956190	-1.126767	0.347729
C78	C	1.456190	-0.626767	0.847729
C79	C	1.189009	-0.602691	0.291343
C80	C	1.689009	-0.102691	0.791343
C81	C	1.267363	-0.607268	0.288202
C82	C	1.767363	-0.107268	0.788202
C83	C	0.997789	-0.602607	0.482585
C84	C	1.497789	-0.102607	0.982585
C85	C	0.994656	-0.607149	0.560939
C86	C	1.494656	-0.107149	1.060939
C87	C	1.005191	-0.314334	0.298740
C88	C	1.505191	0.185666	0.798740
C89	C	1.005213	-0.196031	0.298751
C90	C	1.505213	0.303969	0.798751
C91	C	1.012503	-0.581260	0.115558
C92	C	1.512503	-0.081260	0.615558
C93	C	1.015773	-0.576427	0.037198
C94	C	1.515773	-0.076427	0.537198
C95	C	1.038277	-0.543851	0.595950
C96	C	1.538277	-0.043851	1.095950
C97	C	1.035325	-0.548114	0.669573
C98	C	1.535325	-0.048114	1.169573
C99	C	0.988755	-0.615680	0.708183
C100	C	1.488755	-0.115680	1.208183
C101	C	0.945129	-0.678981	0.673167
C102	C	1.445129	-0.178981	1.173167
C103	C	0.948078	-0.674712	0.599546
C104	C	1.448078	-0.174712	1.099546
C105	C	0.975096	-0.635459	0.928561
C106	C	1.475096	-0.135459	1.428561
C107	C	0.972152	-0.639725	1.002187
C108	C	1.472152	-0.139725	1.502187
C109	C	1.062347	-0.508856	0.998588
C110	C	1.562347	-0.008856	1.498588
C111	C	1.065294	-0.504598	0.924965
C112	C	1.565294	-0.004598	1.424965
C113	C	1.021666	-0.567894	0.889956
C114	C	1.521666	-0.067894	1.389956
N115	N	0.985738	-0.620041	0.783438
N116	N	1.485738	-0.120041	1.283438
N117	N	1.024680	-0.563527	0.814703
N118	N	1.524680	-0.063527	1.314703
H119	H	0.606476	-0.687097	0.232957
H120	H	1.106476	-0.187097	0.732957
N121	N	1.079884	-0.483473	0.705347
N122	N	1.579884	0.016527	1.205347
N123	N	1.077245	-0.487288	0.771080
N124	N	1.577245	0.012712	1.271080
H125	H	1.108716	-0.441632	0.796346
H126	H	1.608716	0.058368	1.296346
N127	N	1.035395	-1.026838	0.429919
N128	N	1.535395	-0.526838	0.929919
N129	N	1.092470	-1.055139	0.454064
N130	N	1.592470	-0.555139	0.954064
H131	H	1.103469	-1.031219	0.501746
H132	H	1.603469	-0.531219	1.001746
N133	N	0.930540	-0.700107	0.892794
N134	N	1.430540	-0.200107	1.392794
N135	N	0.933169	-0.696285	0.827062
N136	N	1.433169	-0.196285	1.327062
H137	H	0.901697	-0.741942	0.801798
H138	H	1.401697	-0.241942	1.301798
H139	H	1.095658	-1.024990	0.208436
H140	H	1.595658	-0.524990	0.708436
H141	H	0.914748	-1.157628	0.389172
H142	H	1.414748	-0.657628	0.889172
H143	H	1.097865	-0.457322	1.027101
H144	H	1.597865	0.042678	1.527101
N145	N	0.874125	-1.007314	0.268388
N146	N	1.374125	-0.507314	0.768388
N147	N	0.868792	-0.945791	0.215889
N148	N	1.368792	-0.445791	0.715889
H149	H	0.821153	-0.914698	0.204831
H150	H	1.321153	-0.414698	0.704831
N151	N	0.975144	-1.156191	0.167601
N152	N	1.475144	-0.656191	0.667601
N153	N	1.014665	-1.132689	0.114206
N154	N	1.514665	-0.632689	0.614206
H155	H	1.003750	-1.156732	0.066528
H156	H	1.503750	-0.656732	0.566528
N157	N	0.591998	-0.436017	0.406504
N158	N	1.091998	0.063983	0.906504
N159	N	0.623278	-0.379603	0.445501
N160	N	1.123278	0.120397	0.945501
H161	H	0.595442	-0.330927	0.479167
H162	H	1.095442	0.169073	0.979167
H163	H	1.122618	-1.166561	0.325875
H164	H	1.622618	-0.666561	0.825875
H165	H	0.411009	-0.733977	0.200594
H166	H	0.911009	-0.233977	0.700594
N167	N	0.897548	-0.747973	0.712611
N168	N	1.397548	-0.247973	1.212611
N169	N	0.850994	-0.710265	0.755493
N170	N	1.350994	-0.210265	1.255493
H171	H	0.817388	-0.758990	0.783353
H172	H	1.317388	-0.258990	1.283353
H173	H	1.076201	-0.488834	0.564519
H174	H	1.576201	0.011166	1.064519
N175	N	1.112875	-0.435583	0.885539
N176	N	1.612875	0.064417	1.385539
N177	N	1.151822	-0.379076	0.916808
N178	N	1.651822	0.120924	1.416808
H179	H	1.185431	-0.330338	0.888964
H180	H	1.685431	0.169662	1.388964
N181	N	0.903511	-0.739369	0.563791
N182	N	1.403511	-0.239369	1.063791
N183	N	0.861932	-0.799690	0.598271
N184	N	1.361932	-0.299690	1.098271
H185	H	0.830452	-0.845353	0.573021
H186	H	1.330452	-0.345353	1.073021
H187	H	0.934227	-0.694749	1.033622
H188	H	1.434227	-0.194749	1.533622
H189	H	0.740033	-0.694853	0.227557
H190	H	1.240033	-0.194853	0.727557
H191	H	0.277442	-0.726212	0.205991
H192	H	0.777442	-0.226212	0.705991
H193	H	0.404515	-0.496882	0.364473
H194	H	0.904515	0.003118	0.864473
N195	N	0.262964	-0.475157	0.379550
N196	N	0.762964	0.024843	0.879550
N197	N	0.294238	-0.418758	0.418561
N198	N	0.794238	0.081242	0.918561
H199	H	0.266398	-0.370106	0.452239
H200	H	0.766398	0.129894	0.952239
H201	H	0.733549	-0.457756	0.391432
H202	H	1.233549	0.042244	0.891432
