data_functionalizedCrystal
_audit_creation_method	'MofGen! by Chris Wilmer'
_symmetry_space_group_name_H-M	'P1'
_symmetry_Int_Tables_number	1
_symmetry_cell_setting	triclinic
loop_
_symmetry_equiv_pos_as_xyz
  x,y,z
_cell_length_a	19.077236
_cell_length_b	16.120531
_cell_length_c	19.076919
_cell_angle_alpha	95.042833
_cell_angle_beta	90.112677
_cell_angle_gamma	84.663528
loop_
_atom_site_label
_atom_site_type_symbol
_atom_site_fract_x
_atom_site_fract_y
_atom_site_fract_z
Zn1	Zn	1.044748	0.303871	0.452976
Zn2	Zn	1.544748	0.803871	0.952976
Zn3	Zn	1.043409	0.438022	0.340958
Zn4	Zn	1.543409	0.938022	0.840958
Zn5	Zn	0.931983	0.303432	0.330738
Zn6	Zn	1.431983	0.803432	0.830738
Zn7	Zn	0.920730	0.449190	0.454154
Zn8	Zn	1.420730	0.949190	0.954154
O9	O	0.985218	0.373629	0.394706
O10	O	1.485218	0.873629	0.894706
O11	O	1.143104	0.317176	0.441901
O12	O	1.643104	0.817176	0.941901
O13	O	1.032777	0.415311	0.241073
O14	O	1.532777	0.915311	0.741073
O15	O	0.952211	0.186347	0.342183
O16	O	1.452211	0.686347	0.842183
O17	O	1.142120	0.415737	0.359602
O18	O	1.642120	0.915737	0.859602
O19	O	1.035059	0.186669	0.431990
O20	O	1.535059	0.686669	0.931990
O21	O	0.950913	0.316428	0.233564
O22	O	1.450913	0.816428	0.733564
O23	O	0.831957	0.327257	0.343325
O24	O	1.331957	0.827257	0.843325
O25	O	0.933033	0.434771	0.552527
O26	O	1.433033	0.934771	1.052527
O27	O	0.823689	0.434345	0.433998
O28	O	1.323689	0.934345	0.933998
O29	O	1.024148	0.328005	0.551662
O30	O	1.524148	0.828005	1.051662
O31	O	1.021866	0.556647	0.360744
O32	O	1.521866	1.056647	0.860744
O33	O	0.931734	0.564852	0.443908
O34	O	1.431734	1.064852	0.943908
C35	C	0.802274	0.381966	0.387680
C36	C	1.302274	0.881966	0.887680
C37	C	0.724009	0.385553	0.384692
C38	C	1.224009	0.885553	0.884692
C39	C	0.687745	0.336012	0.426209
C40	C	1.187745	0.836012	0.926209
C41	C	0.614207	0.339379	0.423395
C42	C	1.114207	0.839379	0.923395
C43	C	0.576933	0.392292	0.379067
C44	C	1.076933	0.892292	0.879067
C45	C	0.613201	0.441835	0.337546
C46	C	1.113201	0.941835	0.837546
C47	C	0.686739	0.438463	0.340357
C48	C	1.186739	0.938463	0.840357
C49	C	0.356945	0.407865	0.366055
C50	C	0.856945	0.907865	0.866055
C51	C	0.283403	0.411234	0.363249
C52	C	0.783403	0.911234	0.863249
C53	C	0.284414	0.308777	0.449098
C54	C	0.784414	0.808777	0.949098
C55	C	0.357952	0.305413	0.451908
C56	C	0.857952	0.805413	0.951908
C57	C	0.394214	0.354953	0.410383
C58	C	0.894214	0.854953	0.910383
N59	N	0.501764	0.395736	0.376192
N60	N	1.001764	0.895736	0.876192
N61	N	0.469382	0.351504	0.413256
N62	N	0.969382	0.851504	0.913256
C63	C	0.975452	0.591123	0.403579
C64	C	1.475452	1.091123	0.903579
C65	C	0.971338	0.684167	0.407401
C66	C	1.471338	1.184167	0.907401
C67	C	0.963830	0.854518	0.414393
C68	C	1.463830	1.354518	0.914393
C69	C	1.006634	0.891896	0.374981
C70	C	1.506634	1.391896	0.874981
C71	C	1.002456	0.986685	0.378871
C72	C	1.502456	1.486685	0.878871
C73	C	0.968006	0.759720	0.410504
C74	C	1.468006	1.259720	0.910504
C75	C	1.168875	0.365259	0.401760
C76	C	1.668875	0.865259	0.901760
C77	C	1.247139	0.361693	0.404766
C78	C	1.747139	0.861693	0.904766
C79	C	0.995015	1.155285	0.385801
C80	C	1.495015	1.655285	0.885801
C81	C	0.999128	1.062241	0.381971
C82	C	1.499128	1.562241	0.881971
C83	C	0.977485	0.382682	0.578356
C84	C	1.477485	0.882682	1.078356
C85	C	0.974189	0.386541	0.656617
C86	C	1.474189	0.886541	1.156617
C87	C	0.992964	0.364548	0.211770
C88	C	1.492964	0.864548	0.711770
C89	C	0.996406	0.360447	0.133506
C90	C	1.496406	0.860447	0.633506
C91	C	1.020077	0.332769	0.692934
C92	C	1.520077	0.832769	1.192934
C93	C	1.016972	0.336391	0.766468
C94	C	1.516972	0.836391	1.266468
C95	C	0.967982	0.393790	0.803683
C96	C	1.467982	0.893790	1.303683
C97	C	0.922089	0.447564	0.767360
C98	C	1.422089	0.947564	1.267360
C99	C	0.925191	0.443937	0.693828
C100	C	1.425191	0.943937	1.193828
C101	C	0.953615	0.410595	1.023650
C102	C	1.453615	0.910595	1.523650
C103	C	0.950518	0.414219	1.097188
C104	C	1.450518	0.914219	1.597188
C105	C	1.045401	0.303044	1.096291
C106	C	1.545401	0.803044	1.596291
C107	C	1.048501	0.299426	1.022757
C108	C	1.548501	0.799426	1.522757
C109	C	1.002606	0.353197	0.986440
C110	C	1.502606	0.853197	1.486440
N111	N	0.964809	0.397496	0.878846
N112	N	1.464809	0.897496	1.378846
N113	N	1.005776	0.349487	0.911278
N114	N	1.505776	0.849487	1.411278
H115	H	0.386461	0.448204	0.332244
H116	H	0.886461	0.948204	0.832244
Br117	Br	0.738324	0.264204	0.486376
Br118	Br	1.238324	0.764204	0.986376
Br119	Br	0.897524	0.919832	0.475499
Br120	Br	1.397524	1.419832	0.975499
Br121	Br	1.086572	0.254872	0.642436
Br122	Br	1.586572	0.754872	1.142436
Br123	Br	1.079283	0.263449	0.815757
Br124	Br	1.579283	0.763449	1.315757
Br125	Br	1.114992	0.221527	0.972256
Br126	Br	1.614992	0.721527	1.472256
Br127	Br	1.107683	0.230072	1.145581
Br128	Br	1.607683	0.730072	1.645581
H129	H	0.388296	0.262329	0.488007
H130	H	0.888296	0.762329	0.988007
H131	H	0.916254	0.454391	0.994091
H132	H	1.416254	0.954391	1.494091
H133	H	0.882198	0.494297	0.797666
H134	H	1.382198	0.994297	1.297666
Br135	Br	0.884025	0.492120	1.147694
Br136	Br	1.384025	0.992120	1.647694
H137	H	0.887817	0.487716	0.664258
H138	H	1.387817	0.987716	1.164258
Br139	Br	0.235197	0.241547	0.505449
Br140	Br	0.735197	0.741547	1.005449
H141	H	0.584685	0.299039	0.457204
H142	H	1.084685	0.799039	0.957204
H143	H	0.253056	0.454327	0.327152
H144	H	0.753056	0.954327	0.827152
Br145	Br	0.562616	0.513639	0.277380
Br146	Br	1.062616	1.013639	0.777380
H147	H	0.716263	0.478805	0.306549
H148	H	1.216263	0.978805	0.806549
Br149	Br	1.072941	0.826583	0.313869
Br150	Br	1.572941	1.326583	0.813869
