data_functionalizedCrystal
_audit_creation_method	'MofGen! by Chris Wilmer'
_symmetry_space_group_name_H-M	'P1'
_symmetry_Int_Tables_number	1
_symmetry_cell_setting	triclinic
loop_
_symmetry_equiv_pos_as_xyz
  x,y,z
_cell_length_a	19.121063
_cell_length_b	17.077404
_cell_length_c	17.077396
_cell_angle_alpha	90.021457
_cell_angle_beta	92.408800
_cell_angle_gamma	87.531824
loop_
_atom_site_label
_atom_site_type_symbol
_atom_site_fract_x
_atom_site_fract_y
_atom_site_fract_z
Zn1	Zn	-0.279630	-1.186696	-0.457193
Zn2	Zn	0.220370	-0.686696	0.042807
Zn3	Zn	-0.397087	-1.180992	-0.331518
Zn4	Zn	0.102913	-0.680992	0.168482
Zn5	Zn	-0.279653	-1.055427	-0.325938
Zn6	Zn	0.220347	-0.555427	0.174062
Zn7	Zn	-0.397043	-1.049787	-0.462735
Zn8	Zn	0.102957	-0.549787	0.037265
O9	O	-0.338354	-1.118226	-0.394346
O10	O	0.161646	-0.618226	0.105654
O11	O	-0.295220	-1.295786	-0.440538
O12	O	0.204780	-0.795786	0.059462
O13	O	-0.381537	-1.164309	-0.220932
O14	O	0.118463	-0.664309	0.279068
O15	O	-0.181365	-1.077588	-0.338695
O16	O	0.318635	-0.577588	0.161305
O17	O	-0.381516	-1.291595	-0.348205
O18	O	0.118484	-0.791595	0.151795
O19	O	-0.181349	-1.174031	-0.435127
O20	O	0.318651	-0.674031	0.064873
O21	O	-0.295259	-1.072057	-0.216832
O22	O	0.204741	-0.572057	0.283168
O23	O	-0.295216	-0.944832	-0.344068
O24	O	0.204784	-0.444832	0.155932
O25	O	-0.381441	-1.067975	-0.571845
O26	O	0.118559	-0.567975	-0.071845
O27	O	-0.381462	-0.940689	-0.444572
O28	O	0.118538	-0.440689	0.055428
O29	O	-0.295178	-1.168562	-0.567774
O30	O	0.204822	-0.668562	-0.067774
O31	O	-0.495366	-1.158840	-0.353578
O32	O	0.004634	-0.658840	0.146422
O33	O	-0.495334	-1.062444	-0.449983
O34	O	0.004666	-0.562444	0.050017
C35	C	-0.338337	-0.914279	-0.394316
C36	C	0.161663	-0.414279	0.105684
C37	C	-0.338347	-0.827028	-0.394323
C38	C	0.161653	-0.327028	0.105677
C39	C	-0.383323	-0.783898	-0.446577
C40	C	0.116677	-0.283898	0.053423
C41	C	-0.383323	-0.701918	-0.446587
C42	C	0.116677	-0.201918	0.053413
C43	C	-0.338350	-0.663069	-0.394338
C44	C	0.161650	-0.163069	0.105662
C45	C	-0.293370	-0.706205	-0.342082
C46	C	0.206630	-0.206205	0.157918
C47	C	-0.293367	-0.788184	-0.342077
C48	C	0.206633	-0.288184	0.157923
C49	C	-0.293381	-0.535335	-0.342096
C50	C	0.206619	-0.035335	0.157904
C51	C	-0.293385	-0.453350	-0.342100
C52	C	0.206615	0.046650	0.157900
C53	C	-0.383337	-0.449068	-0.446606
C54	C	0.116663	0.050932	0.053394
C55	C	-0.383334	-0.531047	-0.446600
C56	C	0.116666	-0.031047	0.053400
C57	C	-0.338354	-0.574178	-0.394343
C58	C	0.161646	-0.074178	0.105657
C59	C	-0.520834	-1.109433	-0.403004
C60	C	-0.020834	-0.609433	0.096996
C61	C	-0.598900	-1.105743	-0.406735
C62	C	-0.098900	-0.605743	0.093265
C63	C	-0.635569	-1.154236	-0.358336
C64	C	-0.135569	-0.654236	0.141664
C65	C	-0.708920	-1.150771	-0.361850
C66	C	-0.208920	-0.650771	0.138150
C67	C	-0.745601	-1.098807	-0.413758
C68	C	-0.245601	-0.598807	0.086242
C69	C	-0.708927	-1.050311	-0.462162
C70	C	-0.208927	-0.550311	0.037838
C71	C	-0.635577	-1.053781	-0.458652
C72	C	-0.135577	-0.553781	0.041348
C73	C	-0.967071	-1.085820	-0.426868
C74	C	-0.467071	-0.585820	0.073132
C75	C	-1.040426	-1.082352	-0.430372
C76	C	-0.540426	-0.582352	0.069628
C77	C	-1.040414	-1.182813	-0.330061
C78	C	-0.540414	-0.682813	0.169939
C79	C	-0.967063	-1.186275	-0.326552
C80	C	-0.467063	-0.686275	0.173448
C81	C	-0.930395	-1.137782	-0.374959
C82	C	-0.430395	-0.637782	0.125041
C83	C	-0.820578	-1.095261	-0.417348
C84	C	-0.320578	-0.595261	0.082652
C85	C	-0.855419	-1.141332	-0.371372
C86	C	-0.355419	-0.641332	0.128628
C87	C	-0.155161	-1.127075	-0.385670
C88	C	0.344839	-0.627075	0.114330
C89	C	-0.077095	-1.130845	-0.381973
C90	C	0.422905	-0.630845	0.118027
C91	C	-0.338302	-1.118276	-0.599088
C92	C	0.161698	-0.618276	-0.099088
C93	C	-0.338280	-1.118297	-0.686336
C94	C	0.161720	-0.618297	-0.186336
C95	C	-0.338366	-0.322969	-0.394367
C96	C	0.161634	0.177031	0.105633
C97	C	-0.338360	-0.410219	-0.394354
C98	C	0.161640	0.089781	0.105646
C99	C	-0.293359	-1.170674	-0.725208
C100	C	0.206641	-0.670674	-0.225208
C101	C	-0.293336	-1.170685	-0.807187
C102	C	0.206664	-0.670685	-0.307187
C103	C	-0.338237	-1.118321	-0.850294
C104	C	0.161763	-0.618321	-0.350294
C105	C	-0.383160	-1.065938	-0.811417
C106	C	0.116840	-0.565938	-0.311417
C107	C	-0.383179	-1.065924	-0.729439
C108	C	0.116821	-0.565924	-0.229439
C109	C	-0.383118	-1.065972	-0.982285
C110	C	0.116882	-0.565972	-0.482285
C111	C	-0.383099	-1.065986	-1.064269
C112	C	0.116901	-0.565986	-0.564269
C113	C	-0.293274	-1.170732	-1.060033
C114	C	0.206726	-0.670732	-0.560033
C115	C	-0.293293	-1.170719	-0.978055
C116	C	0.206707	-0.670719	-0.478055
C117	C	-0.338217	-1.118336	-0.939184
C118	C	0.161783	-0.618336	-0.439184
C119	C	-0.338354	-1.118224	-0.190398
C120	C	0.161646	-0.618224	0.309602
C121	C	-0.338179	-1.118364	-0.103140
C122	C	0.161821	-0.618364	0.396860
H123	H	-0.256756	-0.421722	-0.299563
H124	H	0.243244	0.078278	0.200437
O125	O	-0.431835	-0.572951	-0.502957
O126	O	0.068165	-0.072951	-0.002957
H127	H	-0.486945	-0.554557	-0.492018
H128	H	0.013055	-0.054557	0.007982
H129	H	-0.738798	-1.008004	-0.504430
H130	H	-0.238798	-0.508004	-0.004430
O131	O	-0.431954	-0.402611	-0.502912
O132	O	0.068046	0.097389	-0.002912
H133	H	-0.420063	-0.418939	-0.563999
H134	H	0.079937	0.081061	-0.063999
H135	H	-0.605708	-1.196547	-0.316064
H136	H	-0.105708	-0.696547	0.183936
O137	O	-0.244864	-0.834703	-0.285706
O138	O	0.255136	-0.334703	0.214294
H139	H	-0.189757	-0.821623	-0.296648
H140	H	0.310243	-0.321623	0.203352
O141	O	-0.244875	-0.581859	-0.285727
O142	O	0.255125	-0.081859	0.214273
H143	H	-0.213610	-0.541073	-0.249387
H144	H	0.286390	-0.041073	0.250613
O145	O	-0.431571	-1.009474	-0.940358
O146	O	0.068429	-0.509474	-0.440358
H147	H	-0.400138	-0.971046	-0.901518
H148	H	0.099862	-0.471046	-0.401518
O149	O	-0.431585	-1.009452	-0.857907
O150	O	0.068415	-0.509452	-0.357907
H151	H	-0.467319	-1.042861	-0.896952
H152	H	0.032681	-0.542861	-0.396952
H153	H	-0.256797	-1.213317	-0.690116
H154	H	0.243203	-0.713317	-0.190116
O155	O	-0.860150	-1.039210	-0.473323
O156	O	-0.360150	-0.539210	0.026677
H157	H	-0.846034	-1.053301	-0.534272
H158	H	-0.346034	-0.553301	-0.034272
O159	O	-0.244887	-1.227180	-0.849115
O160	O	0.255113	-0.727180	-0.349115
H161	H	-0.256952	-1.288201	-0.833970
H162	H	0.243048	-0.788201	-0.333970
O163	O	-0.244881	-0.664296	-0.285716
O164	O	0.255119	-0.164296	0.214284
H165	H	-0.209194	-0.628664	-0.319211
H166	H	0.290806	-0.128664	0.180789
H167	H	-0.738773	-1.190259	-0.322438
H168	H	-0.238773	-0.690259	0.177562
H169	H	-0.937198	-1.228588	-0.284284
H170	H	-0.437198	-0.728588	0.215716
O171	O	-0.431898	-0.655477	-0.502943
O172	O	0.068102	-0.155477	-0.002943
H173	H	-0.400585	-0.619642	-0.541519
H174	H	0.099415	-0.119642	-0.041519
O175	O	-1.079960	-1.235137	-0.277875
O176	O	-0.579960	-0.735137	0.222125
H177	H	-1.137128	-1.224007	-0.289044
H178	H	-0.637128	-0.724007	0.210956
H179	H	-1.070289	-1.040046	-0.472656
H180	H	-0.570289	-0.540046	0.027344
O181	O	-0.927525	-1.033496	-0.479051
O182	O	-0.427525	-0.533496	0.020949
H183	H	-0.965357	-0.996767	-0.515720
H184	H	-0.465357	-0.496767	-0.015720
O185	O	-0.431622	-1.009420	-0.687513
O186	O	0.068378	-0.509420	-0.187513
H187	H	-0.486746	-1.020214	-0.705850
H188	H	0.013254	-0.520214	-0.205850
O189	O	-0.431826	-0.825799	-0.502934
O190	O	0.068174	-0.325799	-0.002934
H191	H	-0.463094	-0.782031	-0.539277
H192	H	0.036906	-0.282031	-0.039277
O193	O	-0.244865	-1.227198	-0.931561
O194	O	0.255135	-0.727198	-0.431561
H195	H	-0.276318	-1.265611	-0.895715
H196	H	0.223682	-0.765611	-0.395715
O197	O	-0.596021	-1.001469	-0.510843
O198	O	-0.096021	-0.501469	-0.010843
H199	H	-0.633849	-0.964745	-0.547521
H200	H	-0.133849	-0.464745	-0.047521
O201	O	-0.815857	-1.197388	-0.315398
O202	O	-0.315857	-0.697388	0.184602
H203	H	-0.782487	-1.163858	-0.273831
H204	H	-0.282487	-0.663858	0.226169
H205	H	-0.256694	-1.213383	-1.091686
H206	H	0.243306	-0.713383	-0.591686
H207	H	-0.419661	-1.023346	-1.099364
H208	H	0.080339	-0.523346	-0.599364
