data_functionalizedCrystal
_audit_creation_method	'MofGen! by Chris Wilmer'
_symmetry_space_group_name_H-M	'P1'
_symmetry_Int_Tables_number	1
_symmetry_cell_setting	triclinic
loop_
_symmetry_equiv_pos_as_xyz
  x,y,z
_cell_length_a	12.645331
_cell_length_b	18.050589
_cell_length_c	12.645323
_cell_angle_alpha	89.974557
_cell_angle_beta	89.977324
_cell_angle_gamma	90.027200
loop_
_atom_site_label
_atom_site_type_symbol
_atom_site_fract_x
_atom_site_fract_y
_atom_site_fract_z
Zn1	Zn	1.620654	-0.295674	-0.599442
Zn2	Zn	1.620503	-0.419873	-0.422180
Zn3	Zn	1.443368	-0.295699	-0.422186
Zn4	Zn	1.443317	-0.419824	-0.599396
O5	O	1.531961	-0.357767	-0.510801
O6	O	1.768981	-0.312159	-0.575945
O7	O	1.596964	-0.403432	-0.273834
O8	O	1.466970	-0.191771	-0.445722
O9	O	1.768870	-0.403407	-0.445711
O10	O	1.597221	-0.191753	-0.575951
O11	O	1.466824	-0.312202	-0.273838
O12	O	1.295014	-0.312155	-0.445677
O13	O	1.466883	-0.403325	-0.747749
O14	O	1.294977	-0.403349	-0.575872
O15	O	1.597172	-0.312112	-0.747783
O16	O	1.596914	-0.523791	-0.445666
O17	O	1.466737	-0.523755	-0.575866
C18	C	1.256531	-0.357750	-0.510770
C19	C	1.138701	-0.357760	-0.510783
C20	C	0.971125	-0.300126	-0.429329
C21	C	1.093685	-0.300275	-0.428970
C22	C	1.094160	-0.435993	-0.480267
C23	C	0.971562	-0.435678	-0.479711
C24	C	0.971557	-0.337906	-0.623067
C25	C	1.094163	-0.336158	-0.622443
C26	C	1.531833	-0.550720	-0.510784
C27	C	1.531875	-0.633265	-0.510811
C28	C	1.461154	-0.832724	-0.581589
C29	C	1.435307	-0.882166	-0.484854
C30	C	1.531979	-0.784396	-0.510825
C31	C	1.557878	-0.882035	-0.607571
C32	C	1.532078	-0.930381	-0.510847
C33	C	1.506082	-0.832751	-0.414039
C34	C	1.628697	-0.832616	-0.536821
C35	C	1.602887	-0.882036	-0.440020
C36	C	1.531919	-0.700297	-0.510814
C37	C	1.532137	-1.014477	-0.510847
C38	C	1.808466	-0.357786	-0.510832
C39	C	1.926296	-0.357793	-0.510846
C40	C	1.532039	-0.357710	-0.787307
C41	C	1.532072	-0.357686	-0.905137
C42	C	1.532118	-0.164062	-0.510842
C43	C	1.532185	-0.081516	-0.510859
C44	C	1.449855	-0.414797	-1.072679
C45	C	1.450070	-0.415080	-0.950119
C46	C	1.643766	-0.378927	-0.949656
C47	C	1.643315	-0.379285	-1.072254
C48	C	1.503651	-0.279014	-1.072336
C49	C	1.501159	-0.279485	-0.949729
C50	C	1.531944	-0.357771	-0.235371
C51	C	1.532116	-0.357586	-0.117542
H52	H	1.123318	-0.480108	-0.537776
C53	C	1.135556	-0.388767	-0.708885
N54	N	1.166731	-0.428400	-0.773990
H55	H	1.484121	-0.811191	-0.332209
C56	C	0.929847	-0.262178	-0.660554
N57	N	0.898434	-0.205135	-0.688776
H58	H	1.423623	-0.259652	-1.103240
C59	C	1.576175	-0.218851	-0.908343
N60	N	1.632680	-0.173182	-0.877164
C61	C	1.390136	-0.257826	-0.910374
N62	N	1.306521	-0.241508	-0.880711
H63	H	1.401172	-0.811071	-0.641347
H64	H	1.667445	-0.436723	-1.100864
H65	H	1.563566	-0.236389	-1.101350
H66	H	0.941905	-0.480100	-0.536495
H67	H	1.668310	-0.435763	-0.918967
C68	C	1.683855	-0.911109	-0.359096
N69	N	1.744835	-0.933010	-0.298141
H70	H	1.468859	-0.473329	-0.920805
C71	C	1.133238	-0.318037	-0.316624
N72	N	1.163028	-0.331419	-0.232001
C73	C	1.133487	-0.258377	-0.653525
N74	N	1.163110	-0.199791	-0.676932
C75	C	1.587419	-0.911282	-0.718089
N76	N	1.609662	-0.933307	-0.801334
C77	C	1.134372	-0.221899	-0.454795
N78	N	1.165013	-0.162862	-0.474240
H79	H	1.124811	-0.453148	-0.399108
H80	H	0.942911	-0.452544	-0.397672
C81	C	1.337624	-0.397009	-1.112487
N82	N	1.253089	-0.383610	-1.142478
C83	C	0.931336	-0.221515	-0.454885
N84	N	0.901360	-0.162304	-0.474136
H85	H	1.710423	-0.810837	-0.558835
C86	C	1.474999	-0.493001	-1.114297
N87	N	1.493946	-0.551905	-1.145638
H88	H	1.367244	-0.401788	-0.920018
C89	C	1.324868	-0.911569	-0.455154
N90	N	1.241683	-0.933714	-0.432791
C91	C	1.728937	-0.325448	-1.112353
N92	N	1.793434	-0.284905	-1.142550
C93	C	0.929430	-0.317676	-0.317646
N94	N	0.898022	-0.330895	-0.233527
H95	H	0.942567	-0.379909	-0.683804
C96	C	1.728790	-0.324418	-0.910292
N97	N	1.792830	-0.283361	-0.880639
