data_functionalizedCrystal
_audit_creation_method	'MofGen! by Chris Wilmer'
_symmetry_space_group_name_H-M	'P1'
_symmetry_Int_Tables_number	1
_symmetry_cell_setting	triclinic
loop_
_symmetry_equiv_pos_as_xyz
  x,y,z
_cell_length_a	16.625548
_cell_length_b	13.897449
_cell_length_c	13.897441
_cell_angle_alpha	89.978378
_cell_angle_beta	89.978130
_cell_angle_gamma	90.003688
loop_
_atom_site_label
_atom_site_type_symbol
_atom_site_fract_x
_atom_site_fract_y
_atom_site_fract_z
Zn1	Zn	1.232802	-0.383957	-0.545471
Zn2	Zn	1.732802	0.116043	-0.045471
Zn3	Zn	1.232749	-0.545278	-0.384197
Zn4	Zn	1.732749	-0.045278	0.115803
Zn5	Zn	1.097961	-0.384002	-0.384186
Zn6	Zn	1.597961	0.115998	0.115814
Zn7	Zn	1.097981	-0.545214	-0.545447
Zn8	Zn	1.597981	-0.045214	-0.045447
O9	O	1.165373	-0.464613	-0.464825
O10	O	1.665373	0.035387	0.035175
O11	O	1.345627	-0.405364	-0.524092
O12	O	1.845627	0.094636	-0.024092
O13	O	1.214838	-0.523930	-0.249214
O14	O	1.714838	-0.023930	0.250786
O15	O	1.115862	-0.249014	-0.405586
O16	O	1.615862	0.250986	0.094414
O17	O	1.345588	-0.523886	-0.405605
O18	O	1.845588	-0.023886	0.094395
O19	O	1.214929	-0.248981	-0.524081
O20	O	1.714929	0.251019	-0.024081
O21	O	1.115810	-0.405441	-0.249206
O22	O	1.615810	0.094559	0.250794
O23	O	0.985131	-0.405379	-0.405563
O24	O	1.485131	0.094621	0.094437
O25	O	1.115896	-0.523777	-0.680432
O26	O	1.615896	-0.023777	-0.180432
O27	O	0.985146	-0.523821	-0.524040
O28	O	1.485146	-0.023821	-0.024040
O29	O	1.214948	-0.405302	-0.680449
O30	O	1.714948	0.094698	-0.180449
O31	O	1.214858	-0.680251	-0.405582
O32	O	1.714858	-0.180251	0.094418
O33	O	1.115844	-0.680204	-0.524051
O34	O	1.615844	-0.180204	-0.024051
C35	C	0.955882	-0.464599	-0.464798
C36	C	1.455882	0.035401	0.035202
C37	C	0.866261	-0.464616	-0.464810
C38	C	1.366261	0.035384	0.035190
C39	C	1.165369	-0.715227	-0.464837
C40	C	1.665369	-0.215227	0.035163
C41	C	1.165442	-0.822441	-0.464874
C42	C	1.665442	-0.322441	0.035126
C43	C	1.165430	-0.464527	-0.716418
C44	C	1.665430	0.035473	-0.216418
C45	C	1.165455	-0.464491	-0.823632
C46	C	1.665455	0.035509	-0.323632
C47	C	0.538086	-0.464623	-0.464851
C48	C	1.038086	0.035377	0.035149
C49	C	0.629394	-0.464618	-0.464836
C50	C	1.129394	0.035382	0.035164
C51	C	0.702170	-0.464620	-0.464829
C52	C	1.202170	0.035380	0.035171
C53	C	0.793485	-0.464615	-0.464816
C54	C	1.293485	0.035385	0.035184
C55	C	1.375682	-0.464627	-0.464853
C56	C	1.875682	0.035373	0.035147
C57	C	1.465303	-0.464633	-0.464865
C58	C	1.965303	0.035367	0.035135
C59	C	1.165399	-0.213020	-0.464835
C60	C	1.665399	0.286980	0.035165
C61	C	1.165410	-0.105806	-0.464839
C62	C	1.665410	0.394194	0.035161
C63	C	1.165434	0.090489	-0.464870
C64	C	1.665434	0.590489	0.035130
C65	C	1.165423	-0.018743	-0.464856
C66	C	1.665423	0.481257	0.035144
C67	C	1.165477	-0.464426	-1.019927
C68	C	1.665477	0.035574	-0.519927
C69	C	1.165462	-0.464465	-0.910695
C70	C	1.665462	0.035535	-0.410695
C71	C	1.165363	-0.464628	-0.214211
C72	C	1.665363	0.035372	0.285789
C73	C	1.165494	-0.464393	-0.106997
C74	C	1.665494	0.035607	0.393003
