data_functionalizedCrystal
_audit_creation_method	'MofGen! by Chris Wilmer'
_symmetry_space_group_name_H-M	'P1'
_symmetry_Int_Tables_number	1
_symmetry_cell_setting	triclinic
loop_
_symmetry_equiv_pos_as_xyz
  x,y,z
_cell_length_a	10.723023
_cell_length_b	10.723023
_cell_length_c	17.766277
_cell_angle_alpha	89.994693
_cell_angle_beta	89.990796
_cell_angle_gamma	84.467548
loop_
_atom_site_label
_atom_site_type_symbol
_atom_site_fract_x
_atom_site_fract_y
_atom_site_fract_z
O1	O	1.657197	0.175025	-0.062590
O2	O	1.294045	0.191779	-0.062592
O3	O	1.483998	0.001826	-0.062588
O4	O	1.467244	0.364978	-0.062594
O5	O	1.483964	0.001815	0.062600
O6	O	1.294011	0.191769	0.062596
O7	O	1.657163	0.175015	0.062598
Cu8	Cu	1.475584	0.183391	0.074028
Cu9	Cu	1.475624	0.183403	-0.074022
O10	O	1.467210	0.364968	0.062594
C11	C	1.247528	0.190555	0.000002
C12	C	1.108974	0.186908	0.000001
C13	C	1.047220	0.185287	-0.064850
C14	C	0.904017	0.181517	-0.064853
C15	C	1.482762	-0.044679	0.000005
C16	C	1.479115	-0.183233	0.000003
C17	C	1.477506	-0.244994	-0.064850
C18	C	1.473737	-0.388197	-0.064854
C19	C	1.703680	0.176239	0.000002
C20	C	1.842234	0.179886	-0.000002
C21	C	1.468446	0.411473	-0.000001
C22	C	1.472093	0.550027	-0.000003
N23	N	1.475565	0.183382	0.178158
N24	N	1.475653	0.183402	-0.178152
C25	C	1.559704	0.099312	0.217547
C26	C	1.559711	0.099306	0.296349
C27	C	1.475591	0.183392	0.335759
C28	C	1.391436	0.267468	0.296361
C29	C	1.391423	0.267463	0.217560
C30	C	1.460213	0.296904	0.460595
C31	C	1.460235	0.296911	0.539394
C32	C	1.475625	0.183407	0.578805
C33	C	1.491019	0.069892	0.539408
C34	C	1.491006	0.069887	0.460608
C35	C	1.475596	0.183406	0.421205
C36	C	1.559777	0.099325	0.703640
C37	C	1.559775	0.099317	0.782443
C38	C	1.391506	0.267489	0.782453
C39	C	1.391501	0.267486	0.703652
C40	C	1.475643	0.183405	0.664250
H41	H	0.895334	0.181274	0.055523
O42	O	1.477239	-0.253607	0.073552
H43	H	1.562789	-0.239079	0.106296
O44	O	1.300748	0.358167	0.661166
H45	H	1.314861	0.344029	0.599751
O46	O	1.117598	0.187148	-0.138401
H47	H	1.103072	0.101592	-0.171143
H48	H	0.850910	0.180120	-0.120374
O49	O	1.038582	0.185056	0.073547
H50	H	1.105600	0.186827	0.121053
H51	H	1.447708	0.389342	0.571465
H52	H	1.322905	0.335923	0.185489
O53	O	1.479375	-0.174620	-0.138398
H54	H	1.482049	-0.073186	-0.126853
O55	O	1.471898	-0.458533	-0.138406
H56	H	1.469214	-0.559971	-0.126867
H57	H	1.628286	0.030857	0.671557
O58	O	1.650437	0.008614	0.175047
H59	H	1.708936	-0.049856	0.215681
H60	H	1.628287	0.030851	0.814514
H61	H	1.628230	0.030844	0.328425
H62	H	1.503537	-0.022541	0.428534
O63	O	1.507609	-0.052546	0.581902
H64	H	1.505015	-0.033479	0.643315
H65	H	1.323009	0.335948	0.814540
H66	H	1.447659	0.389339	0.428512
O67	O	1.473933	-0.379647	0.073553
H68	H	1.390584	-0.309939	0.076779
H69	H	1.322942	0.335929	0.328452
