data_functionalizedCrystal
_audit_creation_method	'MofGen! by Chris Wilmer'
_symmetry_space_group_name_H-M	'P1'
_symmetry_Int_Tables_number	1
_symmetry_cell_setting	triclinic
loop_
_symmetry_equiv_pos_as_xyz
  x,y,z
_cell_length_a	14.908571
_cell_length_b	21.295417
_cell_length_c	14.908858
_cell_angle_alpha	86.665490
_cell_angle_beta	89.795097
_cell_angle_gamma	86.726349
loop_
_atom_site_label
_atom_site_type_symbol
_atom_site_fract_x
_atom_site_fract_y
_atom_site_fract_z
Zn1	Zn	1.345252	-0.281183	-0.587550
Zn2	Zn	1.845252	0.218817	-0.087550
Zn3	Zn	1.353799	-0.392860	-0.437169
Zn4	Zn	1.853799	0.107140	0.062831
Zn5	Zn	1.203561	-0.281898	-0.428544
Zn6	Zn	1.703561	0.218102	0.071456
Zn7	Zn	1.194836	-0.380704	-0.578826
Zn8	Zn	1.694836	0.119296	-0.078826
O9	O	1.274362	-0.334161	-0.508022
O10	O	1.774362	0.165839	-0.008022
O11	O	1.472211	-0.300785	-0.574863
O12	O	1.972211	0.199215	-0.074863
O13	O	1.341098	-0.383527	-0.310196
O14	O	1.841098	0.116473	0.189804
O15	O	1.222431	-0.193715	-0.449679
O16	O	1.722431	0.306285	0.050321
O17	O	1.478490	-0.382834	-0.464378
O18	O	1.978490	0.117166	0.035622
O19	O	1.326531	-0.193189	-0.566500
O20	O	1.826531	0.306811	-0.066500
O21	O	1.230718	-0.302004	-0.303860
O22	O	1.730718	0.197996	0.196140
O23	O	1.076578	-0.290216	-0.441219
O24	O	1.576578	0.209784	0.058781
O25	O	1.207561	-0.362115	-0.705812
O26	O	1.707561	0.137885	-0.205812
O27	O	1.070168	-0.362809	-0.551630
O28	O	1.570168	0.137191	-0.051630
O29	O	1.318071	-0.288998	-0.712222
O30	O	1.818071	0.211002	-0.212222
O31	O	1.332638	-0.479336	-0.455918
O32	O	1.832638	0.020664	0.044082
O33	O	1.215848	-0.470404	-0.559993
O34	O	1.715848	0.029596	-0.059993
C35	C	1.040748	-0.325271	-0.494542
C36	C	1.540748	0.174729	0.005458
C37	C	0.940806	-0.321483	-0.488797
C38	C	1.440806	0.178517	0.011203
C39	C	0.746386	-0.390085	-0.592817
C40	C	1.246386	0.109915	-0.092817
C41	C	0.652481	-0.386527	-0.587422
C42	C	1.152481	0.113473	-0.087422
C43	C	0.659089	-0.310805	-0.472616
C44	C	1.159089	0.189195	0.027384
C45	C	0.752994	-0.314363	-0.478011
C46	C	1.252994	0.185637	0.021989
C47	C	0.796639	-0.354005	-0.538113
C48	C	1.296639	0.145995	-0.038113
C49	C	0.890546	-0.357566	-0.543503
C50	C	1.390546	0.142434	-0.043503
C51	C	0.897152	-0.281842	-0.428703
C52	C	1.397152	0.218158	0.071297
C53	C	0.803247	-0.278284	-0.423307
C54	C	1.303247	0.221716	0.076693
C55	C	1.274247	-0.497710	-0.507966
C56	C	1.774247	0.002290	-0.007966
C57	C	1.274278	-0.567679	-0.507976
C58	C	1.774278	-0.067679	-0.007976
C59	C	1.335138	-0.605175	-0.453846
C60	C	1.835138	-0.105175	0.046154
C61	C	1.335179	-0.670918	-0.453869
C62	C	1.835179	-0.170918	0.046131
C63	C	1.274345	-0.699163	-0.508011
C64	C	1.774345	-0.199163	-0.008011
C65	C	1.213480	-0.661659	-0.562152
C66	C	1.713480	-0.161659	-0.062152
C67	C	1.213447	-0.595917	-0.562135
C68	C	1.713447	-0.095917	-0.062135
N69	N	1.195292	-0.799147	-0.510327
N70	N	1.695292	-0.299147	-0.010327
N71	N	1.195326	-0.861600	-0.510339
N72	N	1.695326	-0.361600	-0.010339
C73	C	1.274442	-0.897239	-0.508069
C74	C	1.774442	-0.397239	-0.008069
N75	N	1.353525	-0.868068	-0.505769
N76	N	1.853525	-0.368068	-0.005769
N77	N	1.353490	-0.805610	-0.505753
N78	N	1.853490	-0.305610	-0.005753
C79	C	1.274374	-0.770449	-0.508037
C80	C	1.774374	-0.270449	-0.008037
C81	C	1.335352	-1.006022	-0.453961
C82	C	1.835352	-0.506022	0.046039
C83	C	1.335394	-1.071766	-0.453990
C84	C	1.835394	-0.571766	0.046010
C85	C	1.213687	-1.062505	-0.562267
C86	C	1.713687	-0.562505	-0.062267
C87	C	1.213653	-0.996762	-0.562244
C88	C	1.713653	-0.496762	-0.062244
C89	C	1.274484	-0.968525	-0.508085
C90	C	1.774484	-0.468525	-0.008085
C91	C	1.508888	-0.343086	-0.521556
C92	C	2.008888	0.156914	-0.021556
C93	C	1.608829	-0.346889	-0.527323
C94	C	2.108829	0.153111	-0.027323
C95	C	1.260889	-0.324121	-0.742555
C96	C	1.760889	0.175879	-0.242555
C97	C	1.255148	-0.319842	-0.842499
C98	C	1.755148	0.180158	-0.342499
C99	C	1.274501	-0.169973	-0.508100
C100	C	1.774501	0.330027	-0.008100
C101	C	1.274560	-0.100006	-0.508133
C102	C	1.774560	0.399994	-0.008133
C103	C	1.189594	-0.271368	-0.980066
C104	C	1.689594	0.228632	-0.480066
C105	C	1.194985	-0.275387	-0.886159
C106	C	1.694985	0.224613	-0.386159
C107	C	1.309926	-0.360280	-0.892751
C108	C	1.809926	0.139720	-0.392751
C109	C	1.304535	-0.356261	-0.986658
C110	C	1.804535	0.143739	-0.486658
C111	C	1.244366	-0.311804	-1.030311
C112	C	1.744366	0.188196	-0.530311
C113	C	1.238971	-0.307789	-1.124219
C114	C	1.738971	0.192211	-0.624219
C115	C	1.353917	-0.392678	-1.130810
C116	C	1.853917	0.107322	-0.630810
C117	C	1.359308	-0.396697	-1.036904
C118	C	1.859308	0.103303	-0.536904
C119	C	1.287834	-0.344119	-0.274405
C120	C	1.787834	0.155881	0.225595
C121	C	1.293749	-0.348227	-0.174472
C122	C	1.793749	0.151773	0.325528
H123	H	0.938078	-0.252464	-0.384156
H124	H	1.438078	0.247536	0.115844
N125	N	0.614501	-0.270320	-0.411221
N126	N	1.114501	0.229680	0.088779
N127	N	0.629724	-0.278355	-0.328839
N128	N	1.129724	0.221645	0.171161
H129	H	0.598235	-0.249761	-0.285477
H130	H	1.098235	0.250239	0.214523
N131	N	0.758646	-0.237792	-0.361928
N132	N	1.258646	0.262208	0.138072
N133	N	0.674803	-0.234618	-0.357121
N134	N	1.174803	0.265382	0.142879
H135	H	0.643304	-0.206021	-0.313770
H136	H	1.143304	0.293979	0.186230
N137	N	1.397280	-0.576342	-0.398522
N138	N	1.897280	-0.076342	0.101478
N139	N	1.451618	-0.609834	-0.350196
N140	N	1.951618	-0.109834	0.149804
H141	H	1.495507	-0.589470	-0.311123
H142	H	1.995507	-0.089470	0.188877
H143	H	1.384742	-0.701453	-0.409790
H144	H	1.884742	-0.201453	0.090210
N145	N	1.151350	-0.690517	-0.617458
N146	N	1.651350	-0.190517	-0.117458
N147	N	1.151386	-0.749215	-0.617466
N148	N	1.651386	-0.249215	-0.117466
H149	H	1.107508	-0.769597	-0.656530
H150	H	1.607508	-0.269597	-0.156530
N151	N	1.409865	-0.433996	-1.182124
N152	N	1.909865	0.066004	-0.682124
N153	N	1.404447	-0.492302	-1.171255
N154	N	1.904447	0.007698	-0.671255
H155	H	1.443955	-0.521486	-1.207495
H156	H	1.943955	-0.021486	-0.707495
N157	N	1.371389	-0.405680	-0.848146
N158	N	1.871389	0.094320	-0.348146
N159	N	1.431711	-0.387953	-0.799060
N160	N	1.931711	0.112047	-0.299060
H161	H	1.475118	-0.420017	-0.767554
H162	H	1.975118	0.079983	-0.267554
H163	H	1.163886	-0.565387	-0.606215
H164	H	1.663886	-0.065387	-0.106215
H165	H	0.926080	-0.389846	-0.592440
H166	H	1.426080	0.110154	-0.092440
N167	N	1.397493	-0.977183	-0.398637
N168	N	1.897493	-0.477183	0.101363
N169	N	1.451835	-1.010672	-0.350315
N170	N	1.951835	-0.510672	0.149685
H171	H	1.495723	-0.990307	-0.311241
H172	H	1.995723	-0.490307	0.188759
N173	N	1.397581	-1.110060	-0.398700
N174	N	1.897581	-0.610060	0.101300
N175	N	1.451890	-1.084836	-0.350357
N176	N	1.951890	-0.584836	0.149643
H177	H	1.495813	-1.111881	-0.311309
H178	H	1.995813	-0.611881	0.188691
N179	N	1.151533	-1.091338	-0.617572
N180	N	1.651533	-0.591338	-0.117572
N181	N	1.097191	-1.057848	-0.665894
N182	N	1.597191	-0.557848	-0.165894
H183	H	1.053293	-1.078213	-0.704958
H184	H	1.553293	-0.578213	-0.204958
N185	N	1.151477	-0.958467	-0.617541
N186	N	1.651477	-0.458467	-0.117541
N187	N	1.097167	-0.983690	-0.665882
N188	N	1.597167	-0.483690	-0.165882
H189	H	1.053254	-0.956645	-0.704942
H190	H	1.553254	-0.456645	-0.204942
N191	N	1.177503	-0.262380	-1.168798
N192	N	1.677503	0.237620	-0.668798
N193	N	1.128605	-0.226280	-1.123921
N194	N	1.628605	0.273720	-0.623921
H195	H	1.085193	-0.194207	-1.155401
H196	H	1.585193	0.305793	-0.655401
N197	N	1.128135	-0.225955	-1.024649
N198	N	1.628135	0.274045	-0.524649
N199	N	1.134743	-0.168545	-1.014532
N200	N	1.634743	0.331455	-0.514532
H201	H	1.091336	-0.136470	-1.046017
H202	H	1.591336	0.363530	-0.546017
N203	N	1.139050	-0.234075	-0.834833
N204	N	1.639050	0.265925	-0.334833
N205	N	1.144466	-0.175769	-0.845693
N206	N	1.644466	0.324231	-0.345693
H207	H	1.104963	-0.146589	-0.809443
H208	H	1.604963	0.353411	-0.309443
N209	N	0.790961	-0.430587	-0.654198
N210	N	1.290961	0.069413	-0.154198
N211	N	0.746081	-0.462805	-0.703030
N212	N	1.246081	0.037195	-0.203030
H213	H	0.777559	-0.491412	-0.746381
H214	H	1.277559	0.008588	-0.246381
N215	N	0.601162	-0.423382	-0.643311
N216	N	1.101162	0.076618	-0.143311
N217	N	0.640146	-0.458770	-0.696969
N218	N	1.140146	0.041230	-0.196969
H219	H	0.603902	-0.484800	-0.736446
H220	H	1.103902	0.015200	-0.236446
N221	N	1.420764	-0.442100	-0.992295
N222	N	1.920764	0.057900	-0.492295
N223	N	1.425572	-0.445682	-0.908450
N224	N	1.925572	0.054318	-0.408450
H225	H	1.468975	-0.477750	-0.876945
H226	H	1.968975	0.022250	-0.376945
