data_functionalizedCrystal
_audit_creation_method	'MofGen! by Chris Wilmer'
_symmetry_space_group_name_H-M	'P1'
_symmetry_Int_Tables_number	1
_symmetry_cell_setting	triclinic
loop_
_symmetry_equiv_pos_as_xyz
  x,y,z
_cell_length_a	19.188930
_cell_length_b	14.472310
_cell_length_c	15.995350
_cell_angle_alpha	90.001162
_cell_angle_beta	83.318578
_cell_angle_gamma	89.973109
loop_
_atom_site_label
_atom_site_type_symbol
_atom_site_fract_x
_atom_site_fract_y
_atom_site_fract_z
O1	O	0.926420	-0.077134	0.104528
O2	O	0.723145	-0.077070	0.118600
O3	O	0.830339	-0.077103	-0.010344
O4	O	0.819226	-0.077101	0.233472
O5	O	0.830312	0.076580	-0.010337
O6	O	0.723117	0.076612	0.118607
O7	O	0.926393	0.076548	0.104535
Cu8	Cu	0.824752	0.090613	0.111572
Cu9	Cu	0.824785	-0.091134	0.111563
O10	O	0.819198	0.076581	0.233479
C11	C	0.697119	-0.000221	0.118148
C12	C	0.619611	-0.000196	0.116780
N13	N	0.824735	0.218444	0.111578
N14	N	0.824808	-0.218965	0.111551
C15	C	0.574880	-0.000210	0.192440
C16	C	0.502052	-0.000220	0.191155
C17	C	0.473960	-0.000235	0.114205
C18	C	0.518701	-0.000216	0.038535
C19	C	0.591526	-0.000197	0.039823
N20	N	0.365839	-0.052577	0.055384
N21	N	0.296658	-0.052598	0.054167
C22	C	0.254541	-0.000292	0.110322
N23	N	0.284219	0.052024	0.167754
N24	N	0.353407	0.052040	0.168974
C25	C	0.394994	-0.000256	0.112801
C26	C	0.130842	-0.000315	0.184594
C27	C	0.058014	-0.000320	0.183306
C28	C	0.074664	-0.000325	0.030684
C29	C	0.147491	-0.000311	0.031974
C30	C	0.175575	-0.000311	0.108932
C31	C	0.952419	-0.000303	0.104987
C32	C	1.029927	-0.000333	0.106355
C33	C	0.829866	-0.000263	-0.041533
C34	C	0.828489	-0.000268	-0.134479
C35	C	0.824784	0.592535	0.111560
C36	C	0.767234	0.553387	0.180325
C37	C	0.767367	0.446299	0.180575
C38	C	0.824759	0.406944	0.111569
C39	C	0.897609	0.445758	0.130384
C40	C	0.897286	0.552880	0.130872
C41	C	0.810134	0.553069	0.023774
C42	C	0.808463	0.445943	0.024366
C43	C	0.824749	0.302056	0.111572
C44	C	0.824799	0.697423	0.111558
C45	C	0.823542	-0.000263	-0.472208
C46	C	0.747200	-0.000584	-0.424495
C47	C	0.748578	-0.000238	-0.327809
C48	C	0.825996	-0.000266	-0.304657
C49	C	0.863634	0.087480	-0.345868
C50	C	0.861717	0.087555	-0.442496
C51	C	0.863325	-0.087211	-0.442869
C52	C	0.863307	-0.088371	-0.345924
C53	C	0.827386	-0.000265	-0.209964
C54	C	0.822153	-0.000259	-0.566901
C55	C	0.819671	-0.000260	0.264669
C56	C	0.821049	-0.000261	0.357614
H57	H	0.597741	-0.000212	0.255105
H58	H	0.834247	0.153166	-0.460694
Cl59	Cl	0.683749	0.405784	0.163383
Cl60	Cl	0.948248	0.093684	-0.492605
Cl61	Cl	0.445808	-0.000236	0.286278
Cl62	Cl	0.951448	0.092493	-0.324382
H63	H	0.910828	0.418916	0.193666
Cl64	Cl	0.483386	-0.000229	-0.058201
Cl65	Cl	0.702896	-0.097349	-0.283761
H66	H	0.758165	0.580154	0.005616
Cl67	Cl	0.824800	-0.189895	-0.474431
H68	H	0.716698	-0.063507	-0.442918
Cl69	Cl	0.917216	0.591437	0.229704
Cl70	Cl	0.821169	-0.188608	-0.303215
Cl71	Cl	0.203728	-0.000299	-0.063147
H72	H	0.847657	0.419157	-0.029183
H73	H	0.919764	-0.093690	-0.330769
Cl74	Cl	0.725725	0.406782	0.002307
H75	H	0.837470	0.152798	-0.317387
Cl76	Cl	0.647763	-0.000180	-0.055301
Cl77	Cl	0.950226	-0.088157	-0.492225
H78	H	0.153710	-0.000302	0.247257
H79	H	0.021594	-0.000326	0.244920
H80	H	0.941457	0.420261	0.081620
Cl81	Cl	0.874928	0.592152	-0.055229
Cl82	Cl	0.700151	0.095768	-0.454926
H83	H	0.718768	0.062787	-0.299832
H84	H	0.712908	0.579192	0.169342
Cl85	Cl	0.039355	-0.000332	-0.066054
H86	H	0.776460	0.580293	0.245109
Cl87	Cl	0.781783	0.406709	0.281171
H88	H	0.941448	0.578772	0.082747
