data_functionalizedCrystal
_audit_creation_method	'MofGen! by Chris Wilmer'
_symmetry_space_group_name_H-M	'P1'
_symmetry_Int_Tables_number	1
_symmetry_cell_setting	triclinic
loop_
_symmetry_equiv_pos_as_xyz
  x,y,z
_cell_length_a	16.625547
_cell_length_b	13.897447
_cell_length_c	13.897441
_cell_angle_alpha	89.970673
_cell_angle_beta	89.973876
_cell_angle_gamma	90.019467
loop_
_atom_site_label
_atom_site_type_symbol
_atom_site_fract_x
_atom_site_fract_y
_atom_site_fract_z
Zn1	Zn	1.232707	-0.383986	-0.545528
Zn2	Zn	1.232614	-0.545307	-0.384233
Zn3	Zn	1.097866	-0.384028	-0.384232
Zn4	Zn	1.097846	-0.545240	-0.545471
O5	O	1.165259	-0.464640	-0.464866
O6	O	1.345527	-0.405396	-0.524157
O7	O	1.214709	-0.523959	-0.249251
O8	O	1.115800	-0.249041	-0.405651
O9	O	1.345459	-0.523918	-0.405654
O10	O	1.214867	-0.249010	-0.524155
O11	O	1.115710	-0.405468	-0.249250
O12	O	0.985031	-0.405403	-0.405596
O13	O	1.115767	-0.523804	-0.680460
O14	O	0.985017	-0.523845	-0.524057
O15	O	1.214848	-0.405331	-0.680503
O16	O	1.214690	-0.680280	-0.405599
O17	O	1.115677	-0.680231	-0.524059
C18	C	1.165193	-0.715255	-0.464844
C19	C	1.165239	-0.822469	-0.464866
C20	C	0.955768	-0.464622	-0.464821
C21	C	0.866147	-0.464637	-0.464824
C22	C	1.165278	-0.909538	-0.464888
C23	C	1.165334	-1.018771	-0.464913
C24	C	0.793364	-0.464639	-0.464836
C25	C	0.702056	-0.464644	-0.464860
C26	C	0.629279	-0.464653	-0.464884
C27	C	0.537965	-0.464659	-0.464908
C28	C	1.375567	-0.464660	-0.464912
C29	C	1.465189	-0.464668	-0.464932
C30	C	1.165316	-0.464555	-0.716459
C31	C	1.165340	-0.464519	-0.823673
C32	C	1.165346	-0.213047	-0.464910
C33	C	1.165384	-0.105833	-0.464928
C34	C	1.165362	-0.464453	-1.019968
C35	C	1.165347	-0.464492	-0.910736
C36	C	1.165248	-0.464656	-0.214252
C37	C	1.165380	-0.464420	-0.107038
