data_functionalizedCrystal
_audit_creation_method	'MofGen! by Chris Wilmer'
_symmetry_space_group_name_H-M	'P1'
_symmetry_Int_Tables_number	1
_symmetry_cell_setting	triclinic
loop_
_symmetry_equiv_pos_as_xyz
  x,y,z
_cell_length_a	23.532407
_cell_length_b	14.853567
_cell_length_c	13.330367
_cell_angle_alpha	90.000844
_cell_angle_beta	89.989993
_cell_angle_gamma	96.758196
loop_
_atom_site_label
_atom_site_type_symbol
_atom_site_fract_x
_atom_site_fract_y
_atom_site_fract_z
O1	O	0.755740	-0.109438	-0.083472
O2	O	1.255740	0.390562	0.416528
O3	O	0.589945	-0.125272	-0.083460
O4	O	1.089945	0.374728	0.416540
O5	O	0.677271	0.013923	-0.083470
O6	O	1.177271	0.513923	0.416530
O7	O	0.668414	-0.248633	-0.083463
O8	O	1.168414	0.251367	0.416537
O9	O	0.677259	0.013926	0.083378
O10	O	1.177259	0.513926	0.583378
O11	O	0.589933	-0.125269	0.083387
O12	O	1.089933	0.374731	0.583387
O13	O	0.755727	-0.109435	0.083375
O14	O	1.255727	0.390565	0.583375
Cu15	Cu	0.672829	-0.117352	0.098615
Cu16	Cu	1.172829	0.382648	0.598615
Cu17	Cu	0.672844	-0.117355	-0.098701
Cu18	Cu	1.172844	0.382645	0.401299
O19	O	0.668401	-0.248630	0.083384
O20	O	1.168401	0.251370	0.583384
C21	C	0.568721	-0.124868	-0.000035
C22	C	1.068721	0.375132	0.499965
C23	C	0.505499	-0.123655	-0.000031
C24	C	1.005499	0.376345	0.499969
C25	C	0.676864	0.047509	-0.000049
C26	C	1.176864	0.547509	0.499951
C27	C	0.675661	0.147580	-0.000057
C28	C	1.175661	0.647580	0.499943
C29	C	0.776951	-0.109839	-0.000052
C30	C	1.276951	0.390161	0.499948
C31	C	0.840174	-0.111052	-0.000063
C32	C	1.340174	0.388948	0.499937
C33	C	1.238950	-0.036283	-0.000030
C34	C	1.738950	0.463717	0.499970
C35	C	1.298355	-0.037409	-0.000025
C36	C	1.798355	0.462591	0.499975
O37	O	1.334797	0.031903	0.000009
O38	O	1.834797	0.531903	0.500009
N39	N	1.321343	-0.120161	-0.000026
N40	N	1.821343	0.379839	0.499974
C41	C	1.284921	-0.201791	-0.000021
C42	C	1.784921	0.298209	0.499979
O43	O	1.309929	-0.272282	-0.000020
O44	O	1.809929	0.227718	0.499980
C45	C	1.225517	-0.200664	-0.000018
C46	C	1.725517	0.299336	0.499982
C47	C	1.202534	-0.117907	-0.000028
C48	C	1.702534	0.382093	0.499972
C49	C	1.215966	0.046468	-0.000038
C50	C	1.715966	0.546468	0.499962
C51	C	1.156565	0.047594	-0.000044
C52	C	1.656565	0.547594	0.499956
C53	C	1.120148	-0.034031	-0.000042
C54	C	1.620148	0.465969	0.499958
C55	C	1.143133	-0.116781	-0.000034
C56	C	1.643133	0.383219	0.499966
C57	C	1.189097	-0.282294	-0.000006
C58	C	1.689097	0.217706	0.499994
C59	C	1.129690	-0.281160	-0.000003
C60	C	1.629690	0.218840	0.499997
C61	C	1.106706	-0.198403	-0.000012
C62	C	1.606706	0.301597	0.499988
C63	C	1.047315	-0.197280	-0.000039
C64	C	1.547315	0.302720	0.499961
N65	N	1.024328	-0.114528	-0.000038
N66	N	1.524328	0.385472	0.499962
C67	C	1.060744	-0.032904	-0.000040
C68	C	1.560744	0.467096	0.499960
C69	C	1.409674	-0.204152	-0.000025
C70	C	1.909674	0.295848	0.499975
C71	C	1.469077	-0.205280	-0.000035
C72	C	1.969077	0.294720	0.499965
C73	C	1.482507	-0.040897	-0.000037
C74	C	1.982507	0.459103	0.499963
C75	C	1.423103	-0.039770	-0.000034
C76	C	1.923103	0.460230	0.499966
C77	C	1.386687	-0.121400	-0.000024
C78	C	1.886687	0.378600	0.499976
C79	C	0.935997	-0.030546	-0.000054
C80	C	1.435997	0.469454	0.499946
C81	C	0.876590	-0.029427	-0.000064
C82	C	1.376590	0.470573	0.499936
C83	C	0.863166	-0.193810	-0.000057
C84	C	1.363166	0.306190	0.499943
C85	C	0.922567	-0.194929	-0.000052
C86	C	1.422567	0.305071	0.499948
C87	C	0.958982	-0.113289	-0.000047
C88	C	1.458982	0.386711	0.499953
O89	O	1.010838	-0.266555	-0.000069
O90	O	1.510838	0.233445	0.499931
O91	O	1.035729	0.037575	-0.000027
O92	O	1.535729	0.537575	0.499973
C93	C	0.668809	-0.282216	-0.000039
C94	C	1.168809	0.217784	0.499961
C95	C	0.670012	-0.382286	-0.000037
C96	C	1.170012	0.117714	0.499963
N97	N	0.672822	-0.117349	0.237397
N98	N	1.172822	0.382651	0.737397
C99	C	0.618704	0.559490	-0.000034
C100	C	1.118704	1.059490	0.499966
C101	C	0.722449	0.581906	-0.000042
C102	C	1.222449	1.081906	0.499958
C103	C	0.723580	0.487885	-0.000048
C104	C	1.223580	0.987885	0.499952
C105	C	0.672272	0.429662	-0.000046
C106	C	1.172272	0.929662	0.499954
C107	C	0.619833	0.465460	-0.000037
C108	C	1.119833	0.965460	0.499963
C109	C	0.776017	0.452079	-0.000046
C110	C	1.276017	0.952079	0.499954
C111	C	0.777150	0.358053	-0.000051
C112	C	1.277150	0.858053	0.499949
C113	C	0.725842	0.299828	-0.000056
C114	C	1.225842	0.799828	0.499944
C115	C	0.673401	0.335631	-0.000048
C116	C	1.173401	0.835631	0.499952
C117	C	0.622093	0.277408	-0.000046
C118	C	1.122093	0.777408	0.499954
C119	C	0.569652	0.313210	-0.000046
C120	C	1.069652	0.813210	0.499954
C121	C	0.568524	0.407235	-0.000042
C122	C	1.068524	0.907235	0.499958
C123	C	0.726969	0.205803	-0.000060
C124	C	1.226969	0.705803	0.499940
C125	C	0.623222	0.183378	-0.000049
C126	C	1.123222	0.683378	0.499951
N127	N	0.672855	-0.117351	-0.237482
N128	N	1.172855	0.382649	0.262518
C129	C	0.634174	-0.178967	0.710024
C130	C	1.134174	0.321033	1.210024
C131	C	0.711529	-0.055736	0.709984
C132	C	1.211529	0.444264	1.209984
C133	C	0.711522	-0.055733	0.604965
C134	C	1.211522	0.444267	1.104965
C135	C	0.672842	-0.117349	0.552471
C136	C	1.172842	0.382651	1.052471
C137	C	0.634168	-0.178968	0.604996
C138	C	1.134168	0.321032	1.104996
C139	C	0.750199	0.005878	0.552433
C140	C	1.250199	0.505878	1.052433
C141	C	0.750195	0.005882	0.447408
C142	C	1.250195	0.505882	0.947408
C143	C	0.711511	-0.055730	0.394913
C144	C	1.211511	0.444270	0.894913
C145	C	0.672835	-0.117350	0.447443
C146	C	1.172835	0.382650	0.947443
C147	C	0.634155	-0.178966	0.394949
C148	C	1.134155	0.321034	0.894949
C149	C	0.595476	-0.240583	0.447478
C150	C	1.095476	0.259417	0.947478
C151	C	0.595484	-0.240580	0.552500
C152	C	1.095484	0.259420	1.052500
C153	C	0.711503	-0.055733	0.289891
C154	C	1.211503	0.444267	0.789891
C155	C	0.634148	-0.178967	0.289921
C156	C	1.134148	0.321033	0.789921
H157	H	0.857880	0.037967	-0.000075
H158	H	1.357880	0.537967	0.499925
H159	H	0.563993	-0.290747	0.595275
H160	H	1.063993	0.209253	1.095275
H161	H	0.742997	-0.005569	0.247127
H162	H	1.242997	0.494431	0.747127
H163	H	0.527877	0.265793	-0.000038
H164	H	1.027877	0.765793	0.499962
H165	H	1.100042	-0.347635	0.000010
H166	H	1.600042	0.152365	0.500010
H167	H	0.576007	0.588645	-0.000038
H168	H	1.076007	1.088645	0.499962
C169	C	0.976045	0.059262	-0.000056
C170	C	1.476045	0.559262	0.499944
N171	N	1.006209	0.126905	-0.000066
N172	N	1.506209	0.626905	0.499934
C173	C	0.510844	0.446625	-0.000022
C174	C	1.010844	0.946625	0.499978
N175	N	0.467400	0.476297	0.000003
N176	N	0.967400	0.976297	0.500003
H177	H	0.563984	-0.290755	0.404726
H178	H	1.063984	0.209245	0.904726
H179	H	0.764221	0.629316	-0.000035
H180	H	1.264221	1.129316	0.499965
H181	H	0.769666	0.176657	-0.000053
H182	H	1.269666	0.676657	0.499947
H183	H	0.581440	0.135978	-0.000052
H184	H	1.081440	0.635978	0.499948
C185	C	0.832452	0.516129	-0.000041
C186	C	1.332452	1.016129	0.499959
N187	N	0.874960	0.564376	-0.000039
N188	N	1.374960	1.064376	0.499961
H189	H	0.819851	0.328911	-0.000052
H190	H	1.319851	0.828911	0.499948
H191	H	0.602648	-0.229139	0.247187
H192	H	1.102648	0.270861	0.747187
H193	H	0.602681	-0.229132	0.752795
H194	H	1.102681	0.270868	1.252795
H195	H	0.743024	-0.005575	0.752728
H196	H	1.243024	0.494425	1.252728
H197	H	1.137857	0.114983	-0.000048
H198	H	1.637857	0.614983	0.499952
C199	C	0.792738	0.073668	0.389636
C200	C	1.292738	0.573668	0.889636
N201	N	0.824780	0.124729	0.346121
N202	N	1.324780	0.624729	0.846121
H203	H	0.941281	-0.262316	-0.000045
H204	H	1.441281	0.237684	0.499955
C205	C	1.256016	0.136270	-0.000044
C206	C	1.756016	0.636270	0.499956
N207	N	1.286178	0.203915	-0.000057
N208	N	1.786178	0.703915	0.499943
H209	H	1.404394	0.027618	-0.000041
H210	H	1.904394	0.527618	0.499959
H211	H	1.512169	0.025566	-0.000038
H212	H	2.012169	0.525566	0.499962
H213	H	1.487785	-0.272669	-0.000041
H214	H	1.987785	0.227331	0.499959
C215	C	1.369621	-0.293958	-0.000025
C216	C	1.869621	0.206042	0.499975
N217	N	1.339456	-0.361600	-0.000023
N218	N	1.839456	0.138400	0.499977
H219	H	0.781695	0.056039	0.595177
H220	H	1.281695	0.556039	1.095177
H221	H	1.207800	-0.349684	-0.000003
H222	H	1.707800	0.150316	0.499997
H223	H	0.833505	-0.260266	-0.000060
H224	H	1.333505	0.239734	0.499940
