data_functionalizedCrystal
_audit_creation_method	'MofGen! by Chris Wilmer'
_symmetry_space_group_name_H-M	'P1'
_symmetry_Int_Tables_number	1
_symmetry_cell_setting	triclinic
loop_
_symmetry_equiv_pos_as_xyz
  x,y,z
_cell_length_a	12.759401
_cell_length_b	19.121063
_cell_length_c	12.759393
_cell_angle_alpha	92.402917
_cell_angle_beta	89.981504
_cell_angle_gamma	92.469017
loop_
_atom_site_label
_atom_site_type_symbol
_atom_site_fract_x
_atom_site_fract_y
_atom_site_fract_z
Zn1	Zn	1.588321	-0.279568	-0.611771
Zn2	Zn	1.580680	-0.397037	-0.443567
Zn3	Zn	1.412621	-0.279605	-0.436113
Zn4	Zn	1.405080	-0.396983	-0.619205
O5	O	1.496676	-0.338298	-0.527664
O6	O	1.734328	-0.295158	-0.589467
O7	O	1.558345	-0.381497	-0.295559
O8	O	1.442282	-0.181316	-0.453184
O9	O	1.728714	-0.381462	-0.465888
O10	O	1.571368	-0.181289	-0.582240
O11	O	1.434872	-0.295221	-0.290083
O12	O	1.264600	-0.295168	-0.460392
O13	O	1.429429	-0.381370	-0.765237
O14	O	1.259060	-0.381405	-0.594909
O15	O	1.564056	-0.295106	-0.759776
O16	O	1.551032	-0.495314	-0.473095
O17	O	1.422020	-0.495274	-0.602136
C18	C	1.223709	-0.338285	-0.527649
C19	C	1.106932	-0.338297	-0.527668
C20	C	1.049208	-0.383272	-0.597605
C21	C	0.939483	-0.383281	-0.597616
C22	C	0.945216	-0.293337	-0.457747
C23	C	1.054939	-0.293325	-0.457741
C24	C	1.101200	-0.428244	-0.667532
C25	C	1.043476	-0.473224	-0.737473
C26	C	0.933751	-0.473233	-0.737485
C27	C	0.881751	-0.428262	-0.667556
C28	C	1.484907	-0.520778	-0.539254
C29	C	1.479969	-0.598844	-0.544247
C30	C	1.544871	-0.635516	-0.479464
C31	C	1.540233	-0.708867	-0.484167
C32	C	1.470686	-0.745544	-0.553648
C33	C	1.405781	-0.708866	-0.618438
C34	C	1.410426	-0.635517	-0.613740
C35	C	1.453305	-0.967013	-0.571195
C36	C	1.448663	-1.040368	-0.575886
C37	C	1.583116	-1.040364	-0.441616
C38	C	1.587750	-0.967013	-0.436920
C39	C	1.522849	-0.930341	-0.501714
C40	C	1.465941	-0.820521	-0.558454
C41	C	1.527600	-0.855366	-0.496912
C42	C	1.770708	-0.338312	-0.527680
C43	C	1.887484	-0.338318	-0.527686
C44	C	1.496754	-0.338227	-0.801693
C45	C	1.496787	-0.338197	-0.918468
C46	C	1.508518	-0.155106	-0.516052
C47	C	1.513565	-0.077040	-0.511103
C48	C	1.566897	-0.293275	-0.970488
C49	C	1.566923	-0.293250	-1.080210
C50	C	1.426727	-0.383075	-1.085884
C51	C	1.426696	-0.383096	-0.976163
C52	C	1.636987	-0.248377	-0.912792
C53	C	1.707103	-0.203452	-0.964812
C54	C	1.707130	-0.203426	-1.074535
C55	C	1.637040	-0.248326	-1.132237
C56	C	1.496661	-0.338318	-0.254698
C57	C	1.496844	-0.338151	-0.137911
H58	H	1.190543	-0.428243	-0.667528
C59	C	1.636961	-0.248398	-0.792095
N60	N	1.636940	-0.248415	-0.701186
H61	H	0.902869	-0.256725	-0.400813
C62	C	1.784193	-0.154061	-0.901337
N63	N	1.842258	-0.116860	-0.853529
C64	C	1.118439	-0.243852	-0.380804
N65	N	1.166267	-0.206587	-0.322855
H66	H	1.369663	-0.419629	-1.132874
C67	C	1.372160	-1.080711	-0.652330
N68	N	1.314542	-1.111097	-0.709906
C69	C	1.637069	-0.248292	-1.252936
N70	N	1.637095	-0.248268	-1.343845
H71	H	1.400458	-0.937161	-0.623951
H72	H	1.764214	-0.166841	-1.116886
H73	H	1.369591	-0.419664	-0.933807
H74	H	1.085822	-0.509833	-0.794413
C75	C	1.604097	-0.815019	-0.420484
N76	N	1.661711	-0.784624	-0.362913
C77	C	1.664230	-0.926673	-0.360459
N78	N	1.721823	-0.896290	-0.302854
H79	H	1.635956	-1.070229	-0.388866
C80	C	1.389429	-0.860873	-0.634869
N81	N	1.331799	-0.891268	-0.692423
C82	C	1.329275	-0.749214	-0.694864
N83	N	1.271645	-0.779602	-0.752425
H84	H	0.886755	-0.509852	-0.794441
H85	H	0.792406	-0.428267	-0.667580
H86	H	1.593082	-0.738723	-0.431413
C87	C	1.621376	-0.595179	-0.403027
N88	N	1.679004	-0.564798	-0.345454
C89	C	1.339028	-0.595177	-0.685007
N90	N	1.285252	-0.564794	-0.738690
