data_functionalizedCrystal
_audit_creation_method	'MofGen! by Chris Wilmer'
_symmetry_space_group_name_H-M	'P1'
_symmetry_Int_Tables_number	1
_symmetry_cell_setting	triclinic
loop_
_symmetry_equiv_pos_as_xyz
  x,y,z
_cell_length_a	12.837943
_cell_length_b	14.185569
_cell_length_c	15.625325
_cell_angle_alpha	94.303044
_cell_angle_beta	90.728783
_cell_angle_gamma	75.423762
loop_
_atom_site_label
_atom_site_type_symbol
_atom_site_fract_x
_atom_site_fract_y
_atom_site_fract_z
O1	O	1.376280	-0.001730	-0.234008
O2	O	1.073358	0.002174	-0.223292
O3	O	1.220505	0.044175	-0.107814
O4	O	1.229134	-0.043730	-0.349485
O5	O	1.263973	-0.110254	-0.073705
O6	O	1.116827	-0.152254	-0.189183
O7	O	1.419749	-0.156159	-0.199899
Cu8	Cu	1.272257	-0.168307	-0.191426
Cu9	Cu	1.220850	0.014323	-0.231764
O10	O	1.272602	-0.198159	-0.315376
C11	C	1.056095	-0.073722	-0.202617
C12	C	0.939895	-0.069792	-0.191819
C13	C	0.712439	-0.117024	-0.321631
C14	C	0.603258	-0.113333	-0.311489
C15	C	0.612352	-0.058727	-0.161393
C16	C	0.721533	-0.062417	-0.171535
C17	C	0.771572	-0.091566	-0.251657
C18	C	0.880753	-0.095249	-0.261799
C19	C	0.889847	-0.040650	-0.111703
C20	C	0.780666	-0.036959	-0.101561
N21	N	1.308421	-0.296759	-0.163055
C22	C	1.078439	-0.730020	-0.343448
C23	C	1.105841	-0.827227	-0.321964
C24	C	1.236172	-0.790013	-0.219753
C25	C	1.208777	-0.692800	-0.241226
C26	C	1.129911	-0.662812	-0.303075
C27	C	1.260249	-0.625591	-0.200853
C28	C	1.232860	-0.528387	-0.222328
C29	C	1.154000	-0.498392	-0.284176
C30	C	1.102522	-0.565608	-0.324550
C31	C	1.339121	-0.655583	-0.139008
C32	C	1.390593	-0.588374	-0.098635
C33	C	1.363199	-0.491167	-0.120105
C34	C	1.284338	-0.461171	-0.181954
C35	C	1.414676	-0.423951	-0.079731
C36	C	1.387288	-0.326747	-0.101206
C37	C	1.256949	-0.363967	-0.203428
C38	C	1.437011	-0.080260	-0.220574
C39	C	1.553210	-0.084184	-0.231373
C40	C	1.238318	-0.021708	-0.059613
C41	C	1.226620	0.012057	0.033197
N42	N	1.184694	0.142777	-0.260130
C43	C	1.254789	-0.132274	-0.363579
C44	C	1.266485	-0.166033	-0.456390
C45	C	1.306656	-0.297803	0.431400
C46	C	1.295665	-0.266060	0.518605
C47	C	1.248279	-0.097711	0.481412
C48	C	1.259261	-0.129440	0.394201
C49	C	1.288451	-0.229487	0.369203
C50	C	1.241055	-0.061124	0.332004
C51	C	1.252042	-0.092851	0.244801
C52	C	1.281234	-0.192894	0.219796
C53	C	1.299438	-0.261214	0.282000
C54	C	1.211873	0.038922	0.357004
C55	C	1.193667	0.107238	0.294807
C56	C	1.204646	0.075511	0.207603
C57	C	1.233839	-0.024531	0.182597
C58	C	1.186443	0.143831	0.145398
C59	C	1.197430	0.112104	0.058195
C60	C	1.244826	-0.056258	0.095394
H61	H	0.739912	-0.013238	-0.036326
H62	H	1.131704	-0.419243	-0.301663
C63	C	1.276928	-0.166308	0.067885
H64	H	1.280856	-0.175415	0.007042
H65	H	1.345112	-0.195138	0.091375
H66	H	1.224601	-0.196259	0.088256
C67	C	1.161587	0.217283	0.322308
H68	H	1.152332	0.253425	0.272774
H69	H	1.096071	0.232612	0.354003
H70	H	1.216590	0.233707	0.357102
H71	H	1.224515	-0.016252	0.501778
H72	H	0.555116	-0.134067	-0.368469
H73	H	1.290184	-0.218724	0.148789
H74	H	1.478898	-0.448382	-0.029379
C75	C	1.477335	-0.621361	-0.030600
H76	H	1.504069	-0.567410	-0.009633
H77	H	1.446807	-0.645566	0.015499
H78	H	1.534655	-0.671448	-0.055699
C79	C	1.177403	0.187248	-0.010224
H80	H	1.158436	0.251375	0.017153
H81	H	1.240955	0.178936	-0.043457
H82	H	1.120447	0.177801	-0.046572
H83	H	1.323173	-0.342682	0.261645
C84	C	1.015768	-0.532614	-0.392582
H85	H	0.989034	-0.586562	-0.413556
H86	H	0.958461	-0.482522	-0.367483
H87	H	1.046301	-0.508416	-0.438687
C88	C	1.199798	0.073827	0.452925
H89	H	1.179824	0.143194	0.458906
H90	H	1.145813	0.049357	0.477972
H91	H	1.266326	0.050476	0.481071
C92	C	1.443893	-0.252808	-0.056794
H93	H	1.416290	-0.190625	-0.078447
H94	H	1.431238	-0.248149	0.003326
H95	H	1.519081	-0.274031	-0.067876
H96	H	1.361421	-0.734735	-0.121529
C97	C	1.338756	-0.407853	0.403895
H98	H	1.348027	-0.444001	0.453426
H99	H	1.283775	-0.424288	0.369090
H100	H	1.404285	-0.423164	0.372210
H101	H	1.310489	-0.321698	0.569246
H102	H	1.162686	0.225290	0.165766
H103	H	0.938004	-0.019913	-0.054726
C104	C	0.557300	-0.026677	-0.073267
H105	H	0.483806	-0.028126	-0.077254
H106	H	0.592223	-0.069916	-0.032199
H107	H	0.561890	0.037796	-0.055989
H108	H	1.192720	-0.339549	-0.253786
C109	C	1.049164	-0.901140	-0.366337
H110	H	0.998254	-0.869349	-0.406230
H111	H	1.101018	-0.952803	-0.395690
H112	H	1.013224	-0.926852	-0.324450
C113	C	0.935796	-0.127313	-0.349927
H114	H	0.884939	-0.141955	-0.390145
H115	H	0.963040	-0.076038	-0.368904
H116	H	0.993357	-0.183746	-0.345101
H117	H	1.300389	-0.814442	-0.169397
C118	C	0.767482	-0.149076	-0.409760
H119	H	0.716627	-0.163712	-0.449982
H120	H	0.794726	-0.097797	-0.428727
H121	H	0.825044	-0.205510	-0.404940
C122	C	0.991684	-0.697026	-0.411480
H123	H	0.964951	-0.750975	-0.432454
H124	H	0.934378	-0.646934	-0.386382
H125	H	1.022218	-0.672828	-0.457586
