data_functionalizedCrystal
_audit_creation_method	'MofGen! by Chris Wilmer'
_symmetry_space_group_name_H-M	'P1'
_symmetry_Int_Tables_number	1
_symmetry_cell_setting	triclinic
loop_
_symmetry_equiv_pos_as_xyz
  x,y,z
_cell_length_a	10.686285
_cell_length_b	18.215407
_cell_length_c	18.215399
_cell_angle_alpha	89.982223
_cell_angle_beta	94.390852
_cell_angle_gamma	94.372642
loop_
_atom_site_label
_atom_site_type_symbol
_atom_site_fract_x
_atom_site_fract_y
_atom_site_fract_z
Zn1	Zn	-0.502509	-1.147646	0.393655
Zn2	Zn	-0.713527	-1.157035	0.261174
Zn3	Zn	-0.502533	-1.024580	0.270606
Zn4	Zn	-0.713439	-1.034021	0.384207
O5	O	-0.608002	-1.090820	0.327411
O6	O	-0.530528	-1.251877	0.376088
O7	O	-0.685584	-1.139442	0.159439
O8	O	-0.325954	-1.033025	0.294830
O9	O	-0.685562	-1.258775	0.278755
O10	O	-0.325936	-1.123442	0.385234
O11	O	-0.530568	-1.042129	0.166369
O12	O	-0.530483	-0.922847	0.285669
O13	O	-0.685412	-1.049115	0.488447
O14	O	-0.685434	-0.929783	0.369131
O15	O	-0.530443	-1.132596	0.495388
O16	O	-0.890091	-1.148596	0.269594
O17	O	-0.890026	-1.058219	0.359986
C18	C	-0.607953	-0.899612	0.327399
C19	C	-0.607962	-0.817814	0.327410
C20	C	-0.527392	-0.626034	0.378157
C21	C	-0.527399	-0.549176	0.378159
C22	C	-0.688593	-0.556358	0.276671
C23	C	-0.688579	-0.633215	0.276667
C24	C	-0.607980	-0.668051	0.327414
C25	C	-0.608001	-0.514336	0.327420
C26	C	-0.608009	-0.431002	0.327421
C27	C	-0.607970	-0.751389	0.327412
C28	C	-0.935843	-1.105471	0.312757
C29	C	-1.076095	-1.111805	0.306513
C30	C	-0.278881	-1.076133	0.342138
C31	C	-0.138629	-1.069874	0.348414
C32	C	-0.607915	-1.090861	0.519368
C33	C	-0.607878	-1.090879	0.601168
C34	C	-0.608038	-0.282775	0.327422
C35	C	-0.608019	-0.364573	0.327424
C36	C	-0.607997	-1.090818	0.136205
C37	C	-0.607679	-1.090927	0.054420
C38	C	-0.527110	-1.134361	0.792981
C39	C	-0.527073	-1.134368	0.869842
C40	C	-0.688450	-1.047440	0.862602
C41	C	-0.688480	-1.047430	0.785743
C42	C	-0.607812	-1.090894	0.750935
C43	C	-0.607745	-1.090912	0.904654
C44	C	-0.607706	-1.090919	0.987989
C45	C	-0.607849	-1.090886	0.667594
H46	H	-0.461773	-0.514969	0.419478
O47	O	-0.766849	-0.522401	0.227453
C48	C	-0.838262	-0.407181	0.182455
C49	C	-0.749589	-0.445540	0.238245
H50	H	-0.824320	-0.345032	0.191150
H51	H	-0.940061	-0.426802	0.190734
H52	H	-0.815988	-0.421316	0.124136
H53	H	-0.771750	-0.431423	0.296585
H54	H	-0.647817	-0.425917	0.229901
O55	O	-0.448922	-1.176658	0.759126
C56	C	-0.431975	-1.275214	0.673089
C57	C	-0.520675	-1.227380	0.711389
H58	H	-0.489951	-1.316224	0.634474
H59	H	-0.374306	-1.306335	0.716311
H60	H	-0.365984	-1.238454	0.640090
H61	H	-0.586743	-1.264086	0.744386
H62	H	-0.578255	-1.196252	0.668131
O63	O	-0.448643	-1.176661	0.910573
C64	C	-0.288533	-1.262849	0.909640
C65	C	-0.377318	-1.214999	0.863423
H66	H	-0.230825	-1.293846	0.871539
H67	H	-0.346397	-1.303966	0.943020
H68	H	-0.222583	-1.226111	0.948587
H69	H	-0.443286	-1.251678	0.824434
H70	H	-0.319375	-1.173876	0.830092
O71	O	-0.766987	-0.673926	0.227343
C72	C	-0.926817	-0.672944	0.126652
C73	C	-0.838116	-0.626751	0.182480
H74	H	-0.984328	-0.634821	0.090355
H75	H	-0.992944	-0.711881	0.157385
H76	H	-0.868771	-0.706332	0.090851
H77	H	-0.896060	-0.593318	0.218296
H78	H	-0.771985	-0.587860	0.151701
H79	H	-1.129860	-1.152547	0.265854
H80	H	-1.084871	-1.029130	0.389065
H81	H	-0.754130	-1.012055	0.890952
O82	O	-0.767061	-1.005292	0.744919
C83	C	-0.981695	-0.979118	0.711812
C84	C	-0.892857	-1.026902	0.758072
H85	H	-1.083418	-0.996562	0.722442
H86	H	-0.967963	-0.986584	0.650887
H87	H	-0.959455	-0.918790	0.727900
H88	H	-0.915042	-1.087247	0.742048
H89	H	-0.906606	-1.019373	0.818986
O90	O	-0.448978	-0.659755	0.427477
C91	C	-0.289150	-0.644518	0.528167
C92	C	-0.377872	-0.606237	0.472342
H93	H	-0.231657	-0.601267	0.564465
H94	H	-0.223008	-0.677508	0.497432
H95	H	-0.347179	-0.683132	0.563967
H96	H	-0.319945	-0.567588	0.436526
H97	H	-0.444018	-0.573294	0.503122
