data_functionalizedCrystal
_audit_creation_method	'MofGen! by Chris Wilmer'
_symmetry_space_group_name_H-M	'P1'
_symmetry_Int_Tables_number	1
_symmetry_cell_setting	triclinic
loop_
_symmetry_equiv_pos_as_xyz
  x,y,z
_cell_length_a	11.026607
_cell_length_b	11.026607
_cell_length_c	9.482900
_cell_angle_alpha	101.400185
_cell_angle_beta	78.636152
_cell_angle_gamma	108.586017
loop_
_atom_site_label
_atom_site_type_symbol
_atom_site_fract_x
_atom_site_fract_y
_atom_site_fract_z
O1	O	1.742236	0.518010	-0.120892
O2	O	1.375656	0.457246	-0.120894
O3	O	1.528564	0.304339	-0.120888
O4	O	1.589328	0.670917	-0.120898
O5	O	1.497539	0.335557	0.120903
O6	O	1.344632	0.488465	0.120897
O7	O	1.711212	0.549228	0.120899
Cu8	Cu	1.525089	0.521697	0.142976
Cu9	Cu	1.561779	0.484778	-0.142971
O10	O	1.558304	0.702136	0.120893
C11	C	1.312485	0.461645	0.000001
C12	C	1.170471	0.428228	0.000000
C13	C	1.116822	0.520498	-0.000003
C14	C	0.970043	0.485962	-0.000004
C15	C	1.501842	0.272288	0.000006
C16	C	1.468426	0.130273	0.000000
C17	C	1.560695	0.076624	-0.000001
C18	C	1.526161	-0.070155	-0.000007
C19	C	1.774384	0.544829	0.000001
C20	C	1.916399	0.578244	-0.000008
C21	C	1.585026	0.734186	-0.000004
C22	C	1.618444	0.876199	-0.000008
N23	N	1.499293	0.547665	0.344095
N24	N	1.587583	0.458801	-0.344090
C25	C	1.554160	0.492428	0.416296
C26	C	1.532708	0.514046	0.583713
H27	H	1.665257	0.139358	0.000009
H28	H	1.421592	-0.132886	-0.000017
H29	H	1.723028	-0.061087	-0.000117
C30	C	1.764190	0.459267	0.369185
C31	C	1.639039	0.406990	0.332482
H32	H	1.816594	0.406517	0.317461
H33	H	1.799986	0.544119	0.344284
H34	H	1.760863	0.462597	0.470701
H35	H	1.642365	0.403669	0.230966
H36	H	1.603234	0.322115	0.357373
C37	C	1.322676	0.547245	0.630912
C38	C	1.447845	0.599494	0.667566
H39	H	1.270287	0.599992	0.682690
H40	H	1.325969	0.543940	0.529419
H41	H	1.286879	0.462374	0.655794
H42	H	1.483646	0.684362	0.642675
H43	H	1.444557	0.602814	0.769082
C44	C	1.320376	-0.083417	-0.000005
C45	C	1.327265	0.045598	-0.000002
H46	H	1.233225	-0.135686	0.000003
H47	H	1.372420	-0.111916	-0.084319
H48	H	1.350793	-0.090147	0.084318
H49	H	1.296856	0.052329	-0.084330
H50	H	1.275202	0.074105	0.084322
C51	C	1.797575	0.425376	0.608335
C52	C	1.672326	0.373292	0.571887
H53	H	1.849851	0.372564	0.556415
H54	H	1.833415	0.510248	0.583499
H55	H	1.794399	0.428618	0.709809
H56	H	1.675501	0.370059	0.470414
H57	H	1.636477	0.288397	0.596713
C58	C	1.330512	0.668548	-0.000002
C59	C	1.201497	0.661659	-0.000004
H60	H	1.382782	0.755697	-0.000010
H61	H	1.337308	0.638207	0.084312
H62	H	1.358945	0.616426	-0.084325
H63	H	1.173060	0.713773	0.084325
H64	H	1.194695	0.692017	-0.084327
C65	C	0.756359	0.337904	-0.000014
C66	C	0.885373	0.344793	-0.000008
H67	H	0.704090	0.250752	-0.000026
H68	H	0.727922	0.390011	0.084300
H69	H	0.749568	0.368257	-0.084336
H70	H	0.892165	0.314448	0.084320
H71	H	0.913818	0.292667	-0.084331
C72	C	1.127750	0.210263	-0.124291
C73	C	1.085799	0.287066	0.000002
H74	H	1.075483	0.123112	-0.124282
H75	H	1.120933	0.240609	-0.208592
H76	H	1.215282	0.214966	-0.124275
H77	H	0.998270	0.282371	-0.000019
H78	H	1.092604	0.256711	0.084326
H79	H	1.436432	0.610955	0.406222
H80	H	0.979125	0.682816	-0.000001
