data_functionalizedCrystal
_audit_creation_method	'MofGen! by Chris Wilmer'
_symmetry_space_group_name_H-M	'P1'
_symmetry_Int_Tables_number	1
_symmetry_cell_setting	triclinic
loop_
_symmetry_equiv_pos_as_xyz
  x,y,z
_cell_length_a	12.811438
_cell_length_b	12.784890
_cell_length_c	11.295498
_cell_angle_alpha	93.662384
_cell_angle_beta	80.460318
_cell_angle_gamma	78.600071
loop_
_atom_site_label
_atom_site_type_symbol
_atom_site_fract_x
_atom_site_fract_y
_atom_site_fract_z
O1	O	1.399117	0.125115	-0.250105
O2	O	1.089505	0.143080	-0.216674
O3	O	1.266968	-0.020706	-0.235830
O4	O	1.221654	0.288902	-0.230949
O5	O	1.251381	-0.006341	-0.036096
O6	O	1.073918	0.157446	-0.016941
O7	O	1.383530	0.139480	-0.050371
Cu8	Cu	1.227301	0.149775	-0.015419
Cu9	Cu	1.245734	0.132786	-0.251626
O10	O	1.206067	0.303267	-0.031216
C11	C	1.042356	0.149697	-0.112558
C12	C	0.925089	0.147996	-0.099896
C13	C	1.262122	-0.053133	-0.136282
C14	C	1.270892	-0.171157	-0.137232
C15	C	0.751310	0.153430	0.026819
C16	C	0.861493	0.155029	0.014927
C17	C	0.878495	0.139368	-0.202834
C18	C	0.768312	0.137769	-0.190942
C19	C	0.704724	0.144799	-0.076112
C20	C	0.594542	0.143192	-0.064222
C21	C	0.611544	0.127539	-0.281981
C22	C	0.721726	0.129138	-0.293873
C23	C	1.430680	0.132864	-0.154490
C24	C	1.547947	0.134564	-0.167160
C25	C	1.380796	-0.350505	-0.149101
C26	C	1.372564	-0.239612	-0.148210
C27	C	1.177446	-0.213602	-0.127141
C28	C	1.185679	-0.324495	-0.128033
C29	C	1.287358	-0.392943	-0.139015
C30	C	1.295590	-0.503839	-0.139914
C31	C	1.100473	-0.477825	-0.118838
C32	C	1.092240	-0.366932	-0.117946
C33	C	1.210913	0.335694	-0.130766
C34	C	1.202144	0.453717	-0.129824
N35	N	1.214344	0.161723	0.150716
C36	C	1.351960	0.034777	0.385151
C37	C	1.342175	0.043814	0.510871
C38	C	1.184985	0.188828	0.527879
C39	C	1.194770	0.179791	0.402159
C40	C	1.278261	0.102764	0.330799
C41	C	1.288050	0.093733	0.205076
C42	C	1.130856	0.238741	0.222087
C43	C	1.121071	0.247778	0.347806
N44	N	1.258691	0.120838	0.582239
H45	H	0.542768	0.148924	0.029279
H46	H	1.117002	0.251534	0.585996
H47	H	0.773513	0.123418	-0.387364
H48	H	0.899418	0.162060	0.098744
H49	H	1.448651	-0.205065	-0.156421
H50	H	0.573601	0.120514	-0.365795
H51	H	1.402187	-0.011550	0.555121
H52	H	1.024388	-0.512389	-0.110629
H53	H	0.699534	0.159160	0.120318
H54	H	1.419948	-0.027935	0.327048
H55	H	1.356035	0.031016	0.146976
H56	H	1.009456	-0.311187	-0.109001
H57	H	1.053092	0.310489	0.405922
H58	H	0.930285	0.133654	-0.296323
H59	H	1.463589	-0.406239	-0.158058
H60	H	1.378383	-0.559569	-0.148863
H61	H	1.094664	-0.157852	-0.118193
H62	H	1.070848	0.294104	0.177819
