data_functionalizedCrystal
_audit_creation_method	'MofGen! by Chris Wilmer'
_symmetry_space_group_name_H-M	'P1'
_symmetry_Int_Tables_number	1
_symmetry_cell_setting	triclinic
loop_
_symmetry_equiv_pos_as_xyz
  x,y,z
_cell_length_a	19.288840
_cell_length_b	27.731996
_cell_length_c	17.766277
_cell_angle_alpha	89.987644
_cell_angle_beta	89.983415
_cell_angle_gamma	82.873701
loop_
_atom_site_label
_atom_site_type_symbol
_atom_site_fract_x
_atom_site_fract_y
_atom_site_fract_z
O1	O	0.920972	0.060244	-0.062730
O2	O	1.420972	0.560244	0.437270
O3	O	0.718656	0.068391	-0.062705
O4	O	1.218656	0.568391	0.437295
O5	O	0.826116	-0.006063	-0.062702
O6	O	1.326116	0.493937	0.437298
O7	O	0.813512	0.134697	-0.062733
O8	O	1.313512	0.634697	0.437267
O9	O	0.826098	-0.006066	0.062487
O10	O	1.326098	0.493934	0.562487
O11	O	0.718637	0.068387	0.062484
O12	O	1.218637	0.568387	0.562484
O13	O	0.920953	0.060240	0.062459
O14	O	1.420953	0.560240	0.562459
Cu15	Cu	0.819794	0.064313	0.073902
Cu16	Cu	1.319794	0.564313	0.573902
Cu17	Cu	0.819816	0.064318	-0.074148
Cu18	Cu	1.319816	0.564318	0.425852
O19	O	0.813493	0.134693	0.062456
O20	O	1.313493	0.634693	0.562456
C21	C	0.692772	0.068129	-0.000107
C22	C	1.192772	0.568129	0.499893
C23	C	0.615672	0.067348	-0.000097
C24	C	1.115672	0.567348	0.499903
C25	C	0.579481	0.066975	-0.068339
C26	C	1.079481	0.566975	0.431661
C27	C	0.507039	0.066236	-0.068348
C28	C	1.007039	0.566236	0.431652
C29	C	0.470793	0.065860	-0.000111
C30	C	0.970793	0.565860	0.499889
C31	C	0.506992	0.066236	0.068140
C32	C	1.006992	0.566236	0.568140
C33	C	0.579432	0.066980	0.068147
C34	C	1.079432	0.566980	0.568147
C35	C	0.361649	0.036367	0.052164
C36	C	0.861649	0.536367	0.552164
C37	C	0.289211	0.035620	0.052154
C38	C	0.789211	0.535620	0.552154
C39	C	0.247364	0.063568	-0.000130
C40	C	0.747364	0.563568	0.499870
C41	C	0.277965	0.092256	-0.052417
C42	C	0.777965	0.592256	0.447583
C43	C	0.350404	0.093000	-0.052410
C44	C	0.850404	0.593000	0.447590
C45	C	0.392244	0.065054	-0.000111
C46	C	0.892244	0.565054	0.499889
C47	C	0.132623	0.062394	-0.068387
C48	C	0.632623	0.562394	0.431613
C49	C	0.060179	0.061658	-0.068393
C50	C	0.560179	0.561658	0.431607
C51	C	0.060134	0.061653	0.068097
C52	C	0.560134	0.561653	0.568097
C53	C	0.132576	0.062394	0.068101
C54	C	0.632576	0.562394	0.568101
C55	C	0.168816	0.062762	-0.000143
C56	C	0.668816	0.562762	0.499857
C57	C	0.825848	-0.024073	-0.000105
C58	C	1.325848	0.475927	0.499895
C59	C	0.825068	-0.077731	-0.000097
C60	C	1.325068	0.422269	0.499903
C61	C	0.820172	-0.410460	-0.068374
C62	C	1.320172	0.089540	0.431626
C63	C	0.817210	-0.612127	-0.068386
C64	C	1.317210	-0.112127	0.431614
O65	O	0.816806	-0.638197	-0.126423
O66	O	1.316806	-0.138197	0.373577
N67	N	0.816832	-0.637347	-0.000147
N68	N	1.316832	-0.137347	0.499853
C69	C	0.817190	-0.612147	0.068101
C70	C	1.317190	-0.112147	0.568101
O71	O	0.816793	-0.638225	0.126143
O72	O	1.316793	-0.138225	0.626143
C73	C	0.820146	-0.410481	0.068113
C74	C	1.320146	0.089519	0.568113
C75	C	0.820532	-0.385264	-0.000131
C76	C	1.320532	0.114736	0.499869
C77	C	0.820556	-0.385243	-0.136612
C78	C	1.320556	0.114757	0.363388
C79	C	0.821300	-0.334829	-0.136608
C80	C	1.321300	0.165171	0.363392
C81	C	0.821660	-0.309633	-0.068366
C82	C	1.321660	0.190367	0.431634
C83	C	0.821276	-0.334850	-0.000127
C84	C	1.321276	0.165150	0.499873
C85	C	0.820499	-0.385281	0.136360
C86	C	1.320499	0.114719	0.636360
C87	C	0.821237	-0.334861	0.136357
C88	C	1.321237	0.165139	0.636357
C89	C	0.821622	-0.309644	0.068113
C90	C	1.321622	0.190356	0.568113
C91	C	0.822380	-0.259241	0.068119
C92	C	1.322380	0.240759	0.568119
N93	N	0.822758	-0.234020	-0.000120
N94	N	1.322758	0.265980	0.499880
C95	C	0.822398	-0.259217	-0.068363
C96	C	1.322398	0.240783	0.431637
C97	C	0.815639	-0.718025	0.068090
C98	C	1.315639	-0.218025	0.568090
C99	C	0.814901	-0.768442	0.068087
C100	C	1.314901	-0.268442	0.568087
C101	C	0.814920	-0.768418	-0.068401
C102	C	1.314920	-0.268418	0.431599
C103	C	0.815663	-0.718001	-0.068397
C104	C	1.315663	-0.218001	0.431603
C105	C	0.816017	-0.692805	-0.000150
C106	C	1.316017	-0.192805	0.499850
C107	C	0.823961	-0.153345	-0.068350
C108	C	1.323961	0.346655	0.431650
C109	C	0.824708	-0.102927	-0.068340
C110	C	1.324708	0.397073	0.431660
C111	C	0.824686	-0.102955	0.068148
C112	C	1.324686	0.397045	0.568148
C113	C	0.823942	-0.153369	0.068138
C114	C	1.323942	0.346631	0.568138
C115	C	0.823578	-0.178562	-0.000117
C116	C	1.323578	0.321438	0.499883
O117	O	0.822776	-0.233139	0.126125
O118	O	1.322776	0.266861	0.626125
O119	O	0.822779	-0.233128	-0.126396
O120	O	1.322779	0.266872	0.373604
C121	C	0.819428	-0.460873	-0.068377
C122	C	1.319428	0.039127	0.431623
C123	C	0.819043	-0.486090	-0.000139
C124	C	1.319043	0.013910	0.499861
C125	C	0.819403	-0.460894	0.068104
C126	C	1.319403	0.039106	0.568104
C127	C	0.818305	-0.536507	-0.000142
C128	C	1.318305	-0.036507	0.499858
C129	C	0.817945	-0.561703	-0.068384
C130	C	1.317945	-0.061703	0.431616
C131	C	0.818323	-0.536483	-0.136624
C132	C	1.318323	-0.036483	0.363376
C133	C	0.819068	-0.486070	-0.136620
C134	C	1.319068	0.013930	0.363380
C135	C	0.819025	-0.486114	0.136343
C136	C	1.319025	0.013886	0.636343
C137	C	0.818282	-0.536528	0.136334
C138	C	1.318282	-0.036528	0.636334
C139	C	0.817922	-0.561724	0.068091
C140	C	1.317922	-0.061724	0.568091
C141	C	0.946838	0.060502	-0.000140
C142	C	1.446838	0.560502	0.499860
C143	C	1.023937	0.061283	-0.000156
C144	C	1.523937	0.561283	0.499844
C145	C	0.813761	0.152703	-0.000143
C146	C	1.313761	0.652703	0.499857
C147	C	0.814541	0.206362	-0.000155
C148	C	1.314541	0.706362	0.499845
N149	N	0.819783	0.064310	0.178032
N150	N	1.319783	0.564310	0.678032
N151	N	0.819832	0.064317	-0.178278
N152	N	1.319832	0.564317	0.321722
C153	C	0.867382	0.031358	0.217421
C154	C	1.367382	0.531358	0.717421
C155	C	0.867386	0.031356	0.296222
C156	C	1.367386	0.531356	0.796222
C157	C	0.819798	0.064314	0.335633
C158	C	1.319798	0.564314	0.835633
C159	C	0.772190	0.097268	0.296235
C160	C	1.272190	0.597268	0.796235
C161	C	0.772183	0.097266	0.217435
C162	C	1.272183	0.597266	0.717435
C163	C	0.810212	0.108358	0.460462
C164	C	1.310212	0.608358	0.960462
C165	C	0.810224	0.108360	0.539261
C166	C	1.310224	0.608360	1.039261
C167	C	0.819816	0.064319	0.578679
C168	C	1.319816	0.564319	1.078679
C169	C	0.829411	0.020274	0.539289
C170	C	1.329411	0.520274	1.039289
C171	C	0.829404	0.020272	0.460489
C172	C	1.329404	0.520272	0.960489
C173	C	0.819800	0.064319	0.421079
C174	C	1.319800	0.564319	0.921079
C175	C	0.867422	0.031362	0.703513
C176	C	1.367422	0.531362	1.203513
C177	C	0.867421	0.031359	0.782317
C178	C	1.367421	0.531359	1.282317
C179	C	0.772229	0.097276	0.782328
C180	C	1.272229	0.597276	1.282328
C181	C	0.772226	0.097275	0.703526
C182	C	1.272226	0.597275	1.203526
C183	C	0.819827	0.064318	0.664124
C184	C	1.319827	0.564318	1.164124
H185	H	0.608984	0.067275	-0.123909
H186	H	1.108984	0.567275	0.376091
H187	H	0.477567	0.065933	-0.123921
H188	H	0.977567	0.565933	0.376079
H189	H	0.906148	0.004521	0.328298
H190	H	1.406148	0.504521	0.828298
Br191	Br	0.825176	-0.068751	0.160758
Br192	Br	1.325176	0.431249	0.660758
Br193	Br	0.391933	0.131934	-0.123365
Br194	Br	0.891933	0.631934	0.376635
Br195	Br	0.819505	-0.451927	0.228968
Br196	Br	1.319505	0.048073	0.728968
Br197	Br	0.931978	-0.013369	0.163945
Br198	Br	1.431978	0.486631	0.663945
H199	H	0.030713	0.061357	-0.123966
H200	H	0.530713	0.561357	0.376034
Br201	Br	0.707628	0.141999	0.650064
Br202	Br	1.207628	0.641999	1.150064
H203	H	0.814628	-0.788941	-0.123966
H204	H	1.314628	-0.288941	0.376034
H205	H	0.477475	0.065931	0.123699
H206	H	0.977475	0.565931	0.623699
Br207	Br	0.797211	0.168135	0.592711
Br208	Br	1.297211	0.668135	1.092711
H209	H	0.243893	0.115016	-0.094990
H210	H	0.743893	0.615016	0.405010
Br211	Br	0.932019	-0.013365	0.650037
Br212	Br	1.432019	0.486635	1.150037
Br213	Br	0.821716	-0.300669	0.228984
Br214	Br	1.321716	0.199331	0.728984
Br215	Br	0.797264	0.168135	0.406973
Br216	Br	1.297264	0.668135	0.906973
H217	H	0.733442	0.124102	0.328327
H218	H	1.233442	0.624102	0.828327
H219	H	0.608898	0.067284	0.123720
H220	H	1.108898	0.567284	0.623720
Br221	Br	0.819591	-0.451854	-0.229242
Br222	Br	1.319591	0.048146	0.270758
H223	H	0.814598	-0.788970	0.123658
H224	H	1.314598	-0.288970	0.623658
Br225	Br	0.825235	-0.068708	-0.160963
Br226	Br	1.325235	0.431292	0.339037
Br227	Br	0.817765	-0.570745	0.228960
Br228	Br	1.317765	-0.070745	0.728960
Br229	Br	0.707579	0.141989	0.163974
Br230	Br	1.207579	0.641989	0.663974
Br231	Br	0.247687	-0.003302	0.123128
Br232	Br	0.747687	0.496698	0.623128
H233	H	0.815931	-0.697516	0.123668
H234	H	1.315931	-0.197516	0.623668
Br235	Br	0.842417	-0.039501	0.407033
Br236	Br	1.342417	0.460499	0.907033
Br237	Br	0.823436	-0.187595	0.160756
Br238	Br	1.323436	0.312405	0.660756
Br239	Br	0.181696	0.062899	0.160721
Br240	Br	0.681696	0.562899	0.660721
Br241	Br	0.842438	-0.039501	0.592775
Br242	Br	1.342438	0.460499	1.092775
Br243	Br	0.932018	-0.013369	0.835777
Br244	Br	1.432018	0.486631	1.335777
H245	H	0.823661	-0.173851	-0.123929
H246	H	1.323661	0.326149	0.376071
H247	H	0.162131	0.062699	-0.123955
H248	H	0.662131	0.562699	0.376045
Br249	Br	0.821818	-0.300614	-0.229230
Br250	Br	1.321818	0.199386	0.270770
H251	H	0.733479	0.124109	0.814415
H252	H	1.233479	0.624109	1.314415
H253	H	0.030622	0.061350	0.123657
H254	H	0.530622	0.561350	0.623657
Br255	Br	0.816185	-0.683783	-0.161017
Br256	Br	1.316185	-0.183783	0.338983
Br257	Br	0.418435	-0.001564	0.123130
Br258	Br	0.918435	0.498436	0.623130
Br259	Br	0.817841	-0.570688	-0.229238
Br260	Br	1.317841	-0.070688	0.270762
H261	H	0.820260	-0.405752	-0.192186
H262	H	1.320260	0.094248	0.307814
H263	H	0.820187	-0.405804	0.191932
H264	H	1.320187	0.094196	0.691932
