data_functionalizedCrystal
_audit_creation_method	'MofGen! by Chris Wilmer'
_symmetry_space_group_name_H-M	'P1'
_symmetry_Int_Tables_number	1
_symmetry_cell_setting	triclinic
loop_
_symmetry_equiv_pos_as_xyz
  x,y,z
_cell_length_a	23.096457
_cell_length_b	14.628931
_cell_length_c	14.628931
_cell_angle_alpha	90.000000
_cell_angle_beta	60.000465
_cell_angle_gamma	60.001579
loop_
_atom_site_label
_atom_site_type_symbol
_atom_site_fract_x
_atom_site_fract_y
_atom_site_fract_z
Zr1	Zr	0.633728	-0.119917	0.880644
O2	O	0.754514	-0.265871	0.734688
O3	O	0.512942	-0.075181	0.925384
O4	O	0.633728	-0.265878	0.925389
O5	O	0.633728	0.075259	0.734683
O6	O	0.633728	-0.265878	1.075821
O7	O	0.633728	-0.075173	0.734683
O8	O	0.417663	0.075245	1.075813
O9	O	0.849792	-0.265864	0.734692
O10	O	0.562622	-0.056094	1.056735
O11	O	0.562622	0.056172	0.944470
O12	O	0.704833	-0.168350	0.944475
O13	O	0.704833	-0.056085	0.832209
Zr14	Zr	0.633727	0.120005	1.120566
Zr15	Zr	0.633727	-0.119917	1.120566
Zr16	Zr	0.633727	0.120004	0.880645
Zr17	Zr	0.785685	-0.119907	0.880650
Zr18	Zr	0.481770	0.119995	1.120560
O19	O	0.754513	0.075268	1.075826
O20	O	0.754514	-0.265870	1.075826
O21	O	0.754514	0.075267	0.734688
O22	O	0.512941	0.265958	1.266523
O23	O	0.512941	-0.075180	1.266522
O24	O	0.512941	0.265957	0.925385
O25	O	0.633727	-0.075172	1.266527
O26	O	0.633727	0.265966	1.075822
O27	O	0.633727	0.265966	0.925390
O28	O	0.633727	0.075260	1.266527
O29	O	0.849792	-0.265864	0.925398
O30	O	0.417663	0.265951	1.075813
O31	O	0.417663	0.265952	1.266519
O32	O	0.417663	0.075246	1.266519
O33	O	0.849792	-0.075158	0.734692
O34	O	0.849791	-0.075158	0.925398
O35	O	0.562622	0.168438	1.056736
O36	O	0.562622	0.056172	1.169001
O37	O	0.704832	-0.056084	1.056741
O38	O	0.704832	0.056181	0.944475
C39	C	0.443652	0.000031	1.000598
C40	C	0.379142	0.000027	1.000595
C41	C	0.633728	0.000043	0.700500
C42	C	0.633728	0.000043	0.598647
C43	C	0.633727	0.300149	1.000606
C44	C	0.633727	0.402002	1.000606
C45	C	0.348841	-0.058579	1.059189
C46	C	0.288219	-0.058570	1.059200
C47	C	0.257911	0.000030	1.000595
C48	C	0.288216	0.058648	0.941999
C49	C	0.348832	0.058647	0.941999
N50	N	0.195516	-0.008096	0.905227
N51	N	0.137935	-0.008101	0.905229
C52	C	0.075279	0.000040	1.000594
N53	N	0.072387	0.008164	1.095955
N54	N	0.129976	0.008163	1.095951
C55	C	0.192184	0.000039	1.000589
C56	C	-0.020756	-0.058558	1.059205
C57	C	-0.081383	-0.058541	1.059219
C58	C	-0.081379	0.058670	0.942007
C59	C	-0.020758	0.058660	0.942004
C60	C	0.009552	0.000040	1.000600
C61	C	0.823803	0.000056	1.000613
C62	C	0.888313	0.000061	1.000616
C63	C	0.633728	-0.300062	1.000605
C64	C	0.633728	-0.401915	1.000605
C65	C	0.704272	0.391725	0.944917
C66	C	0.704274	0.496994	0.944916
C67	C	0.563182	0.055730	0.608926
C68	C	0.563181	0.055731	0.503657
C69	C	0.633727	0.000044	1.300711
C70	C	0.633727	0.000044	1.402564
C71	C	0.443651	0.000031	1.300703
C72	C	0.379141	0.000027	1.402554
C73	C	0.443651	0.300137	1.000598
C74	C	0.379141	0.401986	1.000596
C75	C	0.443651	0.300137	1.300704
C76	C	0.379140	0.401986	1.402554
C77	C	0.823804	-0.300050	0.700507
C78	C	0.888314	-0.401899	0.598656
C79	C	0.823803	0.000056	0.700507
C80	C	0.888313	0.000060	0.598657
C81	C	0.823803	-0.300049	1.000613
C82	C	0.888313	-0.401898	1.000615
C83	C	0.348847	-0.058586	1.391782
C84	C	0.288241	-0.058613	1.487473
C85	C	0.257927	-0.000018	1.593933
C86	C	0.288227	0.058597	1.604703
C87	C	0.348836	0.058616	1.509014
C88	C	0.348846	0.508427	1.059196
C89	C	0.288241	0.604133	1.059190
C90	C	0.257927	0.593397	1.000589
C91	C	0.288228	0.486945	0.941981
C92	C	0.348836	0.391240	0.941981
C93	C	0.348846	0.391214	1.508996
C94	C	0.288240	0.486903	1.604705
C95	C	0.257926	0.593363	1.593969
C96	C	0.288227	0.604133	1.487517
C97	C	0.348835	0.508445	1.391810
C98	C	0.918616	-0.391127	0.492214
C99	C	0.979241	-0.486815	0.396506
C100	C	1.009558	-0.593275	0.407241
C101	C	0.979254	-0.604045	0.513694
C102	C	0.918634	-0.508357	0.609400
C103	C	0.918614	0.058664	0.609428
C104	C	0.979237	0.058664	0.513738
C105	C	1.009553	0.000066	0.407277
C106	C	0.979250	-0.058545	0.396508
C107	C	0.918633	-0.058551	0.492197
C108	C	0.918608	-0.391126	1.059228
C109	C	0.979214	-0.486814	1.059252
C110	C	1.009528	-0.593274	1.000656
C111	C	0.979228	-0.604044	0.942042
C112	C	0.918619	-0.508357	0.942025
H113	H	0.263543	-0.106295	1.106916
H114	H	0.893935	0.106389	0.696105
H115	H	0.208576	0.671335	1.000597
H116	H	0.373494	0.106353	1.517800
C117	C	0.382150	0.274159	0.877530
H118	H	0.422592	0.218689	0.885911
H119	H	0.338626	0.265782	0.906474
H120	H	0.405799	0.265769	0.800428
C121	C	0.254878	0.721239	1.475716
H122	H	0.281601	0.713961	1.398617
H123	H	0.197651	0.760999	1.510624
H124	H	0.264820	0.760998	1.510617
C125	C	0.481587	0.120146	0.726088
H126	H	0.437327	0.155092	0.718886
H127	H	0.478540	0.069537	0.765835
H128	H	0.478550	0.175573	0.765817
C129	C	0.715323	-0.064362	0.481485
H130	H	0.759583	-0.099292	0.488686
H131	H	0.718368	-0.119781	0.441740
H132	H	0.718363	-0.013733	0.441752
C133	C	1.012586	-0.721153	0.877581
H134	H	1.053028	-0.776589	0.885981
H135	H	0.969085	-0.729575	0.906502
H136	H	1.036246	-0.729551	0.800476
C137	C	1.076199	-0.698524	1.000677
H138	H	1.089914	-0.763476	0.957393
H139	H	1.123486	-0.698516	0.969312
H140	H	1.056317	-0.698517	1.075350
C141	C	0.382183	0.274121	1.520827
H142	H	0.355460	0.281426	1.597934
H143	H	0.372247	0.234347	1.485938
H144	H	0.439412	0.234359	1.485929
H145	H	0.573331	0.488735	1.048276
C146	C	1.012597	-0.721151	0.525495
H147	H	0.985874	-0.713874	0.602594
H148	H	1.002663	-0.760907	0.490581
H149	H	1.069826	-0.760915	0.490600
C150	C	0.785870	0.485327	0.880509
H151	H	0.830129	0.408248	0.845579
H152	H	0.788917	0.520263	0.825088
H153	H	0.788911	0.520259	0.931137
C154	C	0.382187	-0.123047	1.274686
H155	H	0.422619	-0.114643	1.219228
H156	H	0.405836	-0.200144	1.266294
H157	H	0.338669	-0.094110	1.266291
C158	C	0.254876	0.475143	0.877529
H159	H	0.281599	0.398044	0.842618
H160	H	0.197650	0.510050	0.928120
H161	H	0.264817	0.510043	0.822072
H162	H	0.502784	0.103399	0.512283
C163	C	0.382191	0.520259	1.123646
H164	H	0.355470	0.597364	1.158526
H165	H	0.372260	0.485371	1.179109
H166	H	0.439420	0.485361	1.073046
C167	C	0.885312	-0.520214	0.877527
H168	H	0.844872	-0.447986	0.885903
H169	H	0.928840	-0.559984	0.800438
H170	H	0.861663	-0.559982	0.906465
H171	H	0.263577	0.690802	1.106919
H172	H	1.003878	-0.478023	1.106981
C173	C	0.552129	0.609760	1.065012
H174	H	0.507870	0.686839	1.099954
H175	H	0.549088	0.574823	1.014393
H176	H	0.549081	0.574829	1.120443
H177	H	0.373503	0.106371	0.894282
H178	H	0.694127	-0.047638	0.393930
C179	C	0.382150	0.520302	1.274728
H180	H	0.422592	0.448073	1.219257
H181	H	0.338627	0.560072	1.266351
H182	H	0.405798	0.560068	1.266339
H183	H	0.893935	-0.304449	1.106943
H184	H	0.263575	0.478114	1.691375
H185	H	0.263578	-0.106344	1.478682
H186	H	0.893963	-0.517142	0.696067
C187	C	0.254869	0.123056	1.721812
H188	H	0.214428	0.114655	1.777250
H189	H	0.298371	0.094137	1.730232
H190	H	0.231209	0.200161	1.730211
C191	C	0.191252	-0.000036	1.699181
H192	H	0.177549	-0.043330	1.677509
H193	H	0.211108	-0.031409	1.742486
H194	H	0.143952	0.074627	1.742469
H195	H	0.208574	0.671268	1.671909
H196	H	0.893935	-0.304450	0.483452
H197	H	1.003905	-0.478024	0.309837
C198	C	1.076227	-0.698522	0.301958
H199	H	1.089919	-0.676849	0.237031
H200	H	1.123527	-0.741827	0.301933
H201	H	1.056351	-0.741808	0.301947
H202	H	1.003899	0.106396	0.522529
H203	H	1.058911	0.000080	0.329370
H204	H	1.003943	-0.106254	0.309815
C205	C	0.885298	-0.123003	0.480335
H206	H	0.912032	-0.157886	0.403224
H207	H	0.895223	-0.178464	0.515226
H208	H	0.828071	-0.072411	0.515217
H209	H	0.263535	0.106362	0.894283
C210	C	0.382172	-0.123047	1.123653
H211	H	0.355435	-0.157942	1.158559
H212	H	0.439397	-0.178500	1.073075
H213	H	0.372231	-0.072459	1.179116
H214	H	0.003921	-0.106286	1.106922
C215	C	0.785867	0.274565	0.880502
H216	H	0.830127	0.281768	0.845556
H217	H	0.788913	0.234820	0.931113
H218	H	0.788907	0.234834	0.825074
C219	C	-0.114714	-0.123012	1.123675
H220	H	-0.087972	-0.157930	1.158561
H221	H	-0.171938	-0.072437	1.179134
H222	H	-0.104777	-0.178465	1.073081
H223	H	0.003916	0.106378	0.894286
C224	C	-0.114709	0.123129	0.877543
H225	H	-0.155147	0.114732	0.885930
H226	H	-0.138352	0.200224	0.906479
H227	H	-0.071192	0.094181	0.800441
