data_functionalizedCrystal
_audit_creation_method	'MofGen! by Chris Wilmer'
_symmetry_space_group_name_H-M	'P1'
_symmetry_Int_Tables_number	1
_symmetry_cell_setting	triclinic
loop_
_symmetry_equiv_pos_as_xyz
  x,y,z
_cell_length_a	10.654545
_cell_length_b	14.519709
_cell_length_c	9.730223
_cell_angle_alpha	89.994652
_cell_angle_beta	89.997167
_cell_angle_gamma	84.081612
loop_
_atom_site_label
_atom_site_type_symbol
_atom_site_fract_x
_atom_site_fract_y
_atom_site_fract_z
O1	O	1.666597	0.129512	-0.114279
O2	O	1.300999	0.141858	-0.114286
O3	O	1.493491	0.001497	-0.114270
O4	O	1.474105	0.269873	-0.114295
O5	O	1.493479	0.001493	0.114310
O6	O	1.300987	0.141854	0.114294
O7	O	1.666585	0.129508	0.114300
Zn8	Zn	1.483784	0.135680	0.150589
Zn9	Zn	1.483800	0.135686	-0.150575
O10	O	1.474092	0.269869	0.114285
C11	C	1.254204	0.140950	0.000004
C12	C	1.114786	0.138241	0.000002
C13	C	1.049287	0.136963	0.124602
C14	C	0.918292	0.134402	0.124602
C15	C	0.918306	0.134400	-0.124608
C16	C	1.049300	0.136955	-0.124607
C17	C	1.492582	-0.032870	0.000020
C18	C	1.489874	-0.135265	0.000021
C19	C	1.479907	-0.510212	-0.000015
C20	C	1.482675	-0.405890	-0.000005
C21	C	1.484890	-0.322742	0.000004
C22	C	1.487659	-0.218413	0.000012
C23	C	1.713380	0.130416	0.000008
C24	C	1.852798	0.133125	0.000001
C25	C	1.475002	0.304236	-0.000008
C26	C	1.477710	0.406631	-0.000018
N27	N	1.483782	0.135676	0.356126
N28	N	1.483812	0.135682	-0.356111
C29	C	1.569046	0.073551	0.428059
C30	C	1.569059	0.073551	0.571942
C31	C	1.398538	0.197811	0.571946
C32	C	1.398521	0.197805	0.428066
H33	H	0.864969	0.133362	0.226064
H34	H	1.638469	0.022961	0.369488
H35	H	1.329122	0.248396	0.630534
H36	H	0.864971	0.133354	-0.226061
H37	H	1.102631	0.137992	-0.226078
H38	H	1.329082	0.248395	0.369494
O39	O	1.112717	0.138158	0.245764
C40	C	1.098863	0.137933	0.492946
C41	C	1.026882	0.136561	0.355826
H42	H	1.029493	0.136662	0.581967
H43	H	1.171513	0.074686	0.499276
H44	H	1.148873	0.203541	0.499101
H45	H	0.976796	0.070995	0.349579
H46	H	0.954303	0.199852	0.349554
O47	O	1.652009	0.013171	0.641604
C48	C	1.821092	-0.110113	0.626405
C49	C	1.727237	-0.041762	0.547344
H50	H	1.881921	-0.154557	0.550231
H51	H	1.884003	-0.069912	0.693710
H52	H	1.766762	-0.156516	0.693822
H53	H	1.781465	0.004657	0.479853
H54	H	1.664327	-0.082021	0.480125
