data_functionalizedCrystal
_audit_creation_method	'MofGen! by Chris Wilmer'
_symmetry_space_group_name_H-M	'P1'
_symmetry_Int_Tables_number	1
_symmetry_cell_setting	triclinic
loop_
_symmetry_equiv_pos_as_xyz
  x,y,z
_cell_length_a	15.944551
_cell_length_b	11.295471
_cell_length_c	12.837938
_cell_angle_alpha	94.530277
_cell_angle_beta	90.836311
_cell_angle_gamma	94.104829
loop_
_atom_site_label
_atom_site_type_symbol
_atom_site_fract_x
_atom_site_fract_y
_atom_site_fract_z
O1	O	1.130316	0.098892	-0.126729
O2	O	1.630316	0.598892	0.373271
O3	O	0.887086	0.098921	-0.143210
O4	O	1.387086	0.598921	0.356790
O5	O	1.003308	0.098908	0.015934
O6	O	1.503308	0.598908	0.515934
O7	O	1.014094	0.098905	-0.285873
O8	O	1.514094	0.598905	0.214127
O9	O	0.993089	-0.099142	0.001986
O10	O	1.493089	0.400858	0.501986
O11	O	0.876867	-0.099129	-0.157158
O12	O	1.376867	0.400871	0.342842
O13	O	1.120097	-0.099158	-0.140677
O14	O	1.620097	0.400842	0.359323
Cu15	Cu	0.997549	-0.117227	-0.150191
Cu16	Cu	1.497549	0.382773	0.349809
Cu17	Cu	1.009634	0.116990	-0.133696
Cu18	Cu	1.509634	0.616990	0.366304
O19	O	1.003875	-0.099145	-0.299821
O20	O	1.503875	0.400855	0.200179
C21	C	0.850628	-0.000101	-0.149500
C22	C	1.350628	0.499899	0.350500
C23	C	0.757219	-0.000089	-0.147447
C24	C	1.257219	0.499911	0.352553
N25	N	0.989055	-0.281963	-0.161793
N26	N	1.489055	0.218037	0.338207
C27	C	0.927972	-0.468978	-0.245412
C28	C	1.427972	0.031022	0.254588
C29	C	0.934375	-0.344315	-0.236629
C30	C	1.434375	0.155685	0.263371
C31	C	1.037335	-0.344283	-0.095733
C32	C	1.537335	0.155717	0.404267
C33	C	1.030933	-0.468946	-0.104516
C34	C	1.530933	0.031054	0.395484
C35	C	0.976251	-0.531289	-0.179359
C36	C	1.476251	-0.031289	0.320641
C37	C	0.969853	-0.655955	-0.188146
C38	C	1.469853	-0.155955	0.311854
C39	C	1.072809	-0.655920	-0.047246
C40	C	1.572809	-0.155920	0.452754
C41	C	1.079211	-0.531257	-0.038463
C42	C	1.579211	-0.031257	0.461537
C43	C	0.534078	-0.000112	-0.043900
C44	C	1.034078	0.499888	0.456100
C45	C	0.481942	0.097537	-0.085107
C46	C	0.981942	0.597537	0.414893
C47	C	0.586195	-0.000103	-0.143737
C48	C	1.086195	0.499897	0.356263
C49	C	0.471892	-0.097725	-0.098883
C50	C	0.971892	0.402275	0.401117
C51	C	0.420994	-0.000122	-0.140146
C52	C	0.920994	0.499878	0.359854
C53	C	0.535294	0.097626	-0.184966
C54	C	1.035294	0.597626	0.315034
C55	C	0.525244	-0.097724	-0.198734
C56	C	1.025244	0.402276	0.301266
C57	C	0.473134	-0.000051	-0.240012
C58	C	0.973134	0.499949	0.259988
C59	C	0.681363	-0.000092	-0.145803
C60	C	1.181363	0.499908	0.354197
C61	C	0.325828	-0.000126	-0.138087
C62	C	0.825828	0.499874	0.361913
C63	C	1.156555	-0.000134	-0.134387
C64	C	1.656555	0.499866	0.365613
C65	C	1.249965	-0.000138	-0.136439
C66	C	1.749965	0.499862	0.363561
C67	C	0.994555	-0.000114	0.047581
C68	C	1.494555	0.499886	0.547581
C69	C	0.983688	-0.000105	0.162659
C70	C	1.483688	0.499895	0.662659
N71	N	1.018133	0.281725	-0.122086
N72	N	1.518133	0.781725	0.377914
C73	C	1.114342	-0.000083	0.403610
C74	C	1.614342	0.499917	0.903610
C75	C	1.104135	-0.000074	0.511737
C76	C	1.604135	0.499926	1.011737
C77	C	0.953068	-0.000070	0.487044
C78	C	1.453068	0.499930	0.987044
C79	C	0.963275	-0.000079	0.378916
C80	C	1.463275	0.499921	0.878916
C81	C	1.043914	-0.000087	0.337204
C82	C	1.543914	0.499913	0.837204
C83	C	1.054120	-0.000105	0.229074
C84	C	1.554120	0.499895	0.729074
C85	C	0.903054	-0.000092	0.204383
C86	C	1.403054	0.499908	0.704383
C87	C	0.892848	-0.000083	0.312510
C88	C	1.392848	0.499917	0.812510
C89	C	1.012629	-0.000107	0.668533
C90	C	1.512629	0.499893	1.168533
C91	C	1.023501	-0.000069	0.553458
C92	C	1.523501	0.499931	1.053458
H93	H	0.925331	-0.706714	-0.249090
H94	H	1.425331	-0.206714	0.250910
H95	H	1.081850	-0.293507	-0.034790
H96	H	1.581850	0.206493	0.465210
H97	H	0.887416	-0.000050	0.521026
H98	H	1.387416	0.499950	1.021026
H99	H	1.123731	-0.480483	0.022476
H100	H	1.623731	0.019517	0.522476
H101	H	1.112123	-0.706668	0.006536
H102	H	1.612123	-0.206668	0.506536
H103	H	0.883454	-0.519739	-0.306359
H104	H	1.383454	-0.019739	0.193641
H105	H	1.161485	-0.000067	0.565803
H106	H	1.661485	0.499933	1.065803
H107	H	0.562921	0.180270	-0.221341
H108	H	1.062921	0.680270	0.278659
H109	H	0.446613	0.000003	-0.322951
H110	H	0.946613	0.500003	0.177049
H111	H	0.895061	-0.293585	-0.290415
H112	H	1.395061	0.206415	0.209585
H113	H	0.560789	0.000010	0.038966
H114	H	1.060789	0.500010	0.538966
H115	H	0.462714	0.180093	-0.037066
H116	H	0.962714	0.680093	0.462934
H117	H	0.544491	-0.180283	-0.246741
H118	H	1.044491	0.319717	0.253259
H119	H	1.119780	-0.000116	0.195114
H120	H	1.619780	0.499884	0.695114
H121	H	0.444167	-0.180276	-0.062451
H122	H	0.944167	0.319724	0.437549
H123	H	1.180001	-0.000102	0.369647
H124	H	1.680001	0.499898	0.869647
H125	H	0.827194	-0.000071	0.346488
H126	H	1.327194	0.499929	0.846488
H127	H	0.845707	-0.000104	0.150302
H128	H	1.345707	0.499896	0.650302
