data_functionalizedCrystal
_audit_creation_method	'MofGen! by Chris Wilmer'
_symmetry_space_group_name_H-M	'P1'
_symmetry_Int_Tables_number	1
_symmetry_cell_setting	triclinic
loop_
_symmetry_equiv_pos_as_xyz
  x,y,z
_cell_length_a	10.489746
_cell_length_b	12.811468
_cell_length_c	11.295689
_cell_angle_alpha	89.160004
_cell_angle_beta	94.550032
_cell_angle_gamma	84.292854
loop_
_atom_site_label
_atom_site_type_symbol
_atom_site_fract_x
_atom_site_fract_y
_atom_site_fract_z
O1	O	1.684326	0.140770	-0.114137
O2	O	1.312933	0.154567	-0.115646
O3	O	1.509237	-0.003998	-0.098512
O4	O	1.488023	0.299335	-0.131271
O5	O	1.524490	0.008652	0.098166
O6	O	1.328186	0.167218	0.081032
O7	O	1.699579	0.153420	0.082542
Cu8	Cu	1.515275	0.161474	0.099745
Cu9	Cu	1.497237	0.146514	-0.132850
O10	O	1.503276	0.311986	0.065408
C11	C	1.273043	0.159849	-0.017197
C12	C	1.131458	0.156727	-0.016867
C13	C	0.980065	0.053990	-0.005755
C14	C	1.064247	0.111592	0.085667
C15	C	1.049164	0.099144	-0.108245
C16	C	0.963377	0.208827	0.075259
C17	C	0.948282	0.196359	-0.118739
C18	C	1.032417	0.254034	-0.027300
C19	C	1.516141	-0.036515	0.004019
C20	C	1.513972	-0.152252	0.016510
C21	C	1.739469	0.148138	-0.015910
C22	C	1.881054	0.151260	-0.016248
C23	C	1.496372	0.344502	-0.037126
C24	C	1.498540	0.460239	-0.049625
N25	N	1.527972	0.171996	0.263340
C26	C	1.519221	0.691519	0.141329
C27	C	1.521258	0.800264	0.129591
C28	C	1.504643	0.786478	-0.084839
C29	C	1.502606	0.677733	-0.073101
C30	C	1.509897	0.630257	0.039987
C31	C	1.507869	0.521509	0.051725
C32	C	1.491244	0.507726	-0.162705
C33	C	1.493282	0.616471	-0.174443
C34	C	1.619580	0.247772	0.442140
C35	C	1.609945	0.239816	0.318339
C36	C	1.455625	0.112130	0.332151
C37	C	1.465260	0.120086	0.455951
C38	C	1.547242	0.187908	0.510941
C39	C	1.556883	0.195858	0.634745
C40	C	1.402557	0.068179	0.648554
C41	C	1.392922	0.060222	0.524753
N42	N	1.484536	0.135992	0.703555
H43	H	1.114667	0.075803	0.172085
O44	O	0.918838	0.263987	0.168030
C45	C	0.979448	0.219486	0.275493
H46	H	1.074665	0.173823	0.257661
H47	H	0.914666	0.164153	0.315143
C48	C	0.887597	0.363386	0.385308
C49	C	1.004550	0.307310	0.363409
H50	H	0.903076	0.417558	0.439542
H51	H	0.846758	0.393366	0.312910
H52	H	0.833624	0.317265	0.418344
H53	H	1.058514	0.353429	0.330360
H54	H	1.045398	0.277340	0.435804
H55	H	1.513808	0.482856	0.143807
O56	O	1.060148	0.355042	-0.037941
C57	C	1.016224	0.412521	0.058926
H58	H	1.007902	0.356467	0.136614
H59	H	0.918039	0.456353	0.031833
C60	C	1.122341	0.560666	0.000977
C61	C	1.112130	0.491820	0.096398
H62	H	1.181496	0.609585	0.024089
H63	H	1.151930	0.521944	-0.064287
H64	H	1.040514	0.597182	-0.021592
H65	H	1.193953	0.455296	0.118955
H66	H	1.082557	0.530538	0.161667
H67	H	1.483655	0.457834	-0.245225
O68	O	0.952085	-0.046904	0.005463
C69	C	1.011708	-0.091240	0.113384
H70	H	1.031203	-0.026037	0.177943
H71	H	1.106362	-0.138106	0.096161
C72	C	0.898699	-0.244520	0.088036
C73	C	0.922633	-0.164438	0.167332
H74	H	0.843757	-0.289676	0.121313
H75	H	0.858533	-0.214653	0.015326
H76	H	0.977584	-0.283564	0.073690
H77	H	0.843750	-0.125387	0.181665
H78	H	0.962784	-0.194300	0.240047
H79	H	1.388873	0.056918	0.287356
O80	O	1.313106	-0.005536	0.471370
C81	C	1.185921	0.024232	0.498663
H82	H	1.175973	0.110383	0.523636
H83	H	1.162083	-0.026038	0.576453
C84	C	1.104848	-0.097534	0.358989
C85	C	1.092627	0.008281	0.389651
H86	H	1.047298	-0.107377	0.291748
H87	H	1.190535	-0.117592	0.340603
H88	H	1.084985	-0.139413	0.423823
H89	H	1.112505	0.050158	0.324824
H90	H	1.006941	0.028347	0.408024
O91	O	1.636343	0.261805	0.688289
C92	C	1.563926	0.336929	0.752280
H93	H	1.470842	0.304922	0.774431
H94	H	1.540443	0.412064	0.696129
C95	C	1.756614	0.400045	0.840903
C96	C	1.642291	0.360729	0.868118
H97	H	1.804954	0.414730	0.912355
H98	H	1.805403	0.349435	0.797789
H99	H	1.737028	0.462652	0.794108
H100	H	1.661878	0.298116	0.914899
H101	H	1.593507	0.411329	0.911244
H102	H	0.897839	0.232111	-0.205155
H103	H	1.086834	0.052790	-0.185791
H104	H	1.525166	0.652863	0.233410
O105	O	1.530373	0.859615	0.228158
C106	C	1.536331	0.794391	0.330482
H107	H	1.572819	0.710843	0.307860
H108	H	1.436371	0.795106	0.363578
C109	C	1.583765	0.937655	0.455894
C110	C	1.628591	0.835041	0.428111
H111	H	1.640670	0.962731	0.516119
H112	H	1.579747	0.981599	0.386957
H113	H	1.500465	0.938237	0.483468
H114	H	1.711882	0.834462	0.400525
H115	H	1.632626	0.791097	0.497046
O116	O	1.486057	0.662735	-0.284226
C117	C	1.376298	0.736186	-0.298658
H118	H	1.346976	0.762115	-0.207735
H119	H	1.294094	0.698567	-0.347904
C120	C	1.443071	0.800364	-0.482393
C121	C	1.407063	0.832218	-0.370720
H122	H	1.462045	0.859600	-0.526849
H123	H	1.517016	0.750877	-0.472673
H124	H	1.374561	0.769014	-0.523417
H125	H	1.475578	0.863555	-0.329693
H126	H	1.333131	0.881714	-0.380435
O127	O	1.699368	0.313493	0.495636
C128	C	1.792133	0.255225	0.574041
H129	H	1.803171	0.169989	0.545670
H130	H	1.760026	0.259180	0.668097
C131	C	1.908368	0.406061	0.605804
C132	C	1.921933	0.301374	0.570951
H133	H	1.988434	0.434530	0.603903
H134	H	1.845868	0.445319	0.552984
H135	H	1.881608	0.409343	0.684181
H136	H	1.948676	0.298095	0.492571
H137	H	1.984440	0.262117	0.623758
H138	H	1.498703	0.825153	-0.176910
H139	H	1.668848	0.288566	0.262324
H140	H	1.343653	0.019434	0.704586
