data_functionalizedCrystal
_audit_creation_method	'MofGen! by Chris Wilmer'
_symmetry_space_group_name_H-M	'P1'
_symmetry_Int_Tables_number	1
_symmetry_cell_setting	triclinic
loop_
_symmetry_equiv_pos_as_xyz
  x,y,z
_cell_length_a	23.096457
_cell_length_b	18.426585
_cell_length_c	23.096457
_cell_angle_alpha	59.999558
_cell_angle_beta	90.003973
_cell_angle_gamma	59.998757
loop_
_atom_site_label
_atom_site_type_symbol
_atom_site_fract_x
_atom_site_fract_y
_atom_site_fract_z
Zr1	Zr	0.557748	0.794378	-0.075984
O2	O	0.465282	0.945795	-0.168434
O3	O	0.586094	0.642973	-0.047647
O4	O	0.586071	0.794398	-0.168443
O5	O	0.465322	0.794350	0.047651
O6	O	0.681352	0.794400	-0.168446
O7	O	0.465304	0.794370	-0.047638
O8	O	0.681392	0.523528	0.047635
O9	O	0.465281	1.065221	-0.168430
O10	O	0.669289	0.705245	-0.035560
O11	O	0.598196	0.705228	0.035556
O12	O	0.598169	0.883512	-0.106666
O13	O	0.527075	0.883495	-0.035550
Zr14	Zr	0.709737	0.794349	0.075985
Zr15	Zr	0.709709	0.794381	-0.075990
Zr16	Zr	0.557775	0.794346	0.075991
Zr17	Zr	0.557747	0.984849	-0.075979
Zr18	Zr	0.709737	0.603877	0.075980
O19	O	0.681390	0.945754	0.047648
O20	O	0.681351	0.945800	-0.168442
O21	O	0.465321	0.945749	0.047656
O22	O	0.802202	0.642932	0.168435
O23	O	0.802163	0.642978	-0.047655
O24	O	0.586133	0.642927	0.168442
O25	O	0.802162	0.794377	-0.047650
O26	O	0.681413	0.794329	0.168443
O27	O	0.586133	0.794327	0.168447
O28	O	0.802180	0.794357	0.047639
O29	O	0.586070	1.065224	-0.168435
O30	O	0.681414	0.523503	0.168435
O31	O	0.802203	0.523505	0.168431
O32	O	0.802181	0.523531	0.047631
O33	O	0.465303	1.065196	-0.047630
O34	O	0.586092	1.065198	-0.047634
O35	O	0.669315	0.705215	0.106666
O36	O	0.740409	0.705231	0.035551
O37	O	0.669289	0.883498	-0.035555
O38	O	0.598195	0.883482	0.035561
C39	C	0.633743	0.556113	-0.000007
C40	C	0.633743	0.475252	-0.000009
C41	C	0.443662	0.794359	0.000007
C42	C	0.379150	0.794358	0.000010
C43	C	0.633739	0.179143	0.000012
C44	C	0.633739	0.261530	0.000007
C45	C	0.633741	0.327196	0.000001
C46	C	0.633741	0.409586	-0.000002
C47	C	0.385969	0.701307	0.037119
C48	C	0.325353	0.701306	0.037122
C49	C	0.257920	0.794360	0.000002
C50	C	0.251104	0.887423	-0.037109
C51	C	0.311719	0.887422	-0.037105
N52	N	0.135113	0.863633	-0.060412
N53	N	0.077533	0.863628	-0.060414
C54	C	0.075287	0.794370	-0.000010
N55	N	0.132802	0.725101	0.060395
N56	N	0.190388	0.725103	0.060395
C57	C	0.192188	0.794372	-0.000006
C58	C	0.016382	0.701311	0.037106
C59	C	-0.044236	0.701313	0.037111
C60	C	-0.118486	0.887433	-0.037128
C61	C	-0.057868	0.887428	-0.037126
C62	C	0.009563	0.794364	-0.000011
C63	C	0.823822	0.794367	-0.000007
C64	C	0.888334	0.794369	-0.000009
C65	C	0.633707	0.794404	-0.190098
C66	C	0.633696	0.794417	-0.254615
C67	C	0.633741	1.032614	0.000008
C68	C	0.633741	1.113474	0.000010
C69	C	0.686188	0.794420	-0.284911
C70	C	0.686204	0.794399	-0.345518
C71	C	0.633716	0.794396	-0.375836
C72	C	0.581219	0.794388	-0.345531
C73	C	0.581209	0.794398	-0.284921
N74	N	0.571480	0.852485	-0.494191
N75	N	0.571492	0.852477	-0.551769
C76	C	0.633746	0.794362	-0.558452
N77	N	0.695990	0.736269	-0.505386
N78	N	0.695977	0.736281	-0.447804
C79	C	0.633722	0.794384	-0.441558
C80	C	0.686260	0.794341	-0.654465
C81	C	0.686276	0.794314	-0.715071
C82	C	0.581286	0.794313	-0.715087
C83	C	0.581275	0.794330	-0.654477
C84	C	0.633762	0.794349	-0.624172
C85	C	0.633777	0.794323	0.190098
C86	C	0.633788	0.794309	0.254616
C87	C	0.823823	0.556117	-0.000014
C88	C	0.888335	0.475258	-0.000018
C89	C	0.633778	0.556072	0.190091
C90	C	0.633790	0.475198	0.254606
C91	C	0.823858	0.556076	0.190084
C92	C	0.888382	0.475204	0.254597
C93	C	0.443626	1.032650	-0.190084
C94	C	0.379103	1.113523	-0.254596
C95	C	0.443661	1.032610	0.000014
C96	C	0.379149	1.113469	0.000019
C97	C	0.633706	1.032654	-0.190090
C98	C	0.633694	1.113528	-0.254606
C99	C	0.881507	0.437293	-0.037146
C100	C	0.942117	0.361328	-0.037165
C101	C	1.009554	0.323324	-0.000051
C102	C	1.016381	0.361297	0.037078
C103	C	0.955772	0.437266	0.037092
C104	C	0.670919	0.437212	0.322029
C105	C	0.670928	0.361233	0.382654
C106	C	0.633811	0.323237	0.375854
C107	C	0.596677	0.361231	0.308425
C108	C	0.596664	0.437213	0.247802
C109	C	0.955799	0.437234	0.247771
C110	C	1.016432	0.361256	0.308382
C111	C	1.009645	0.323245	0.375818
C112	C	0.942221	0.361222	0.382643
C113	C	0.881589	0.437203	0.322032
C114	C	0.311685	1.151502	-0.247770
C115	C	0.251052	1.227503	-0.308381
C116	C	0.257839	1.265519	-0.375817
C117	C	0.325264	1.227537	-0.382642
C118	C	0.385895	1.151542	-0.322032
C119	C	0.385977	1.151442	0.037141
C120	C	0.325367	1.227428	0.037143
C121	C	0.257930	1.265434	0.000027
C122	C	0.251103	1.227458	-0.037099
C123	C	0.311712	1.151479	-0.037105
C124	C	0.670819	1.151501	-0.247784
C125	C	0.670821	1.227480	-0.308397
C126	C	0.633695	1.265491	-0.375831
C127	C	0.596569	1.227511	-0.382652
C128	C	0.596572	1.151528	-0.322039
H129	H	0.440870	0.625527	0.067337
O130	O	0.192560	1.347355	0.000058
H131	H	0.208645	1.367352	0.032122
O132	O	0.556542	1.268479	-0.455381
H133	H	0.499490	1.303091	-0.461558
H134	H	0.728999	0.794352	-0.629787
O135	O	1.089149	0.320291	0.301014
H136	H	1.083676	0.359477	0.243938
O137	O	0.524659	0.794328	-0.747776
H138	H	0.549896	0.724753	-0.747638
O139	O	0.089116	0.600944	0.077138
H140	H	0.095294	0.556318	0.134191
H141	H	0.196187	1.258414	-0.067318
O142	O	0.332697	0.600941	0.077141
H143	H	0.389769	0.536229	0.102944
O144	O	0.808777	0.478279	-0.077189
H145	H	0.767770	0.537483	-0.070945
H146	H	0.701051	1.120564	-0.192881
H147	H	0.566432	0.468132	0.192905
H148	H	0.306143	1.120563	-0.067331
O149	O	0.710862	1.268439	-0.301033
H150	H	0.736666	1.229250	-0.243957
H151	H	0.936544	0.330420	-0.067399
O152	O	0.710986	0.320257	0.455376
H153	H	0.752010	0.236439	0.484770
O154	O	0.633685	1.347458	-0.441204
H155	H	0.665731	1.367480	-0.425124
H156	H	1.071297	0.330343	0.067294
H157	H	0.440787	1.120620	-0.327598
O158	O	0.742802	0.794433	-0.252224
H159	H	0.733975	0.794448	-0.204990
O160	O	0.808874	0.478147	0.329397
H161	H	0.779482	0.463565	0.303557
H162	H	0.330781	1.258499	-0.437555
H163	H	0.566337	1.120619	-0.327604
H164	H	-0.038678	0.625537	0.067335
H165	H	0.961338	0.468172	0.192867
H166	H	0.196195	0.963189	-0.067332
H167	H	1.059021	0.261375	0.425165
H168	H	1.058900	0.261465	-0.000068
H169	H	0.936705	0.330262	0.437557
H170	H	0.306146	1.120554	-0.192866
H171	H	0.633827	0.261367	0.425223
H172	H	0.196158	1.258416	-0.302811
H173	H	0.440883	1.120503	0.067369
H174	H	0.701144	0.468140	0.327579
O175	O	0.304370	0.987787	-0.077139
H176	H	0.247297	1.052497	-0.102956
O177	O	-0.191210	0.987805	-0.077170
H178	H	-0.232215	0.972175	-0.070942
O179	O	0.963140	0.478197	0.077151
H180	H	1.020218	0.438992	0.102960
H181	H	-0.063423	0.963200	-0.067349
H182	H	0.566457	0.330283	0.302899
H183	H	0.330940	1.258335	0.067378
O184	O	0.742816	0.794418	-0.378212
H185	H	0.779307	0.794442	-0.346960
H186	H	0.538463	0.794396	-0.260253
O187	O	0.524602	0.794393	-0.378229
H188	H	0.533423	0.794399	-0.425471
O189	O	0.192437	1.347496	-0.441184
H190	H	0.160428	1.318337	-0.441142
O191	O	0.742889	0.794333	-0.747758
H192	H	0.779375	0.794364	-0.716506
O193	O	0.524651	0.794344	-0.621802
H194	H	0.488150	0.794348	-0.653068
