data_functionalizedCrystal
_audit_creation_method	'MofGen! by Chris Wilmer'
_symmetry_space_group_name_H-M	'P1'
_symmetry_Int_Tables_number	1
_symmetry_cell_setting	triclinic
loop_
_symmetry_equiv_pos_as_xyz
  x,y,z
_cell_length_a	23.532407
_cell_length_b	23.532407
_cell_length_c	22.610064
_cell_angle_alpha	90.003642
_cell_angle_beta	89.994072
_cell_angle_gamma	97.151322
loop_
_atom_site_label
_atom_site_type_symbol
_atom_site_fract_x
_atom_site_fract_y
_atom_site_fract_z
O1	O	0.069122	-0.755259	0.049117
O2	O	0.079125	-0.589395	0.049135
O3	O	-0.008808	-0.677329	0.049114
O4	O	0.157056	-0.667325	0.049137
O5	O	-0.008785	-0.677323	-0.049255
O6	O	0.079148	-0.589389	-0.049234
O7	O	0.069145	-0.755253	-0.049252
Zn8	Zn	0.074150	-0.672320	-0.064862
Zn9	Zn	0.074120	-0.672328	0.064744
O10	O	0.157078	-0.667319	-0.049232
C11	C	0.078882	-0.568176	-0.000048
C12	C	0.078116	-0.504959	-0.000041
C13	C	-0.030013	-0.677071	-0.000072
C14	C	-0.093230	-0.676305	-0.000076
C15	C	0.069388	-0.776472	-0.000069
C16	C	0.070154	-0.839689	-0.000071
C17	C	-0.492333	-0.723539	-0.000049
C18	C	-0.551733	-0.722827	-0.000044
O19	O	-0.588478	-0.766613	-0.000027
N20	N	-0.574359	-0.670551	-0.000039
C21	C	-0.537582	-0.618983	-0.000032
O22	O	-0.562281	-0.574452	-0.000027
C23	C	-0.478182	-0.619695	-0.000033
C24	C	-0.455560	-0.671974	-0.000044
C25	C	-0.469710	-0.775814	-0.000060
C26	C	-0.410313	-0.776525	-0.000065
C27	C	-0.373540	-0.724961	-0.000060
C28	C	-0.396164	-0.672685	-0.000050
C29	C	-0.441406	-0.568127	-0.000022
C30	C	-0.382004	-0.568844	-0.000021
C31	C	-0.359381	-0.621123	-0.000033
C32	C	-0.299995	-0.621832	-0.000050
N33	N	-0.277368	-0.674109	-0.000056
C34	C	-0.314141	-0.725673	-0.000061
C35	C	-0.662324	-0.617491	-0.000031
C36	C	-0.721722	-0.616778	-0.000034
C37	C	-0.735869	-0.720623	-0.000045
C38	C	-0.676470	-0.721335	-0.000046
C39	C	-0.639698	-0.669767	-0.000036
C40	C	-0.189405	-0.727163	-0.000073
C41	C	-0.130003	-0.727869	-0.000081
C42	C	-0.115860	-0.624025	-0.000067
C43	C	-0.175257	-0.623318	-0.000062
C44	C	-0.212029	-0.674891	-0.000063
O45	O	-0.263215	-0.578070	-0.000065
O46	O	-0.289433	-0.770196	-0.000058
C47	C	0.178283	-0.667577	-0.000045
C48	C	0.241500	-0.668343	-0.000036
N49	N	0.074170	-0.672319	-0.153314
C50	C	0.125350	-0.105856	-0.000061
C51	C	0.124638	-0.046456	-0.000065
O52	O	0.168424	-0.009711	-0.000081
N53	N	0.072362	-0.023830	-0.000071
C54	C	0.020794	-0.060607	-0.000080
O55	O	-0.023737	-0.035908	-0.000086
C56	C	0.021506	-0.120006	-0.000080
C57	C	0.073785	-0.142629	-0.000068
C58	C	0.177625	-0.128479	-0.000050
C59	C	0.178336	-0.187876	-0.000045
C60	C	0.126772	-0.224649	-0.000052
C61	C	0.074497	-0.202025	-0.000063
C62	C	-0.030062	-0.156783	-0.000093
C63	C	-0.029345	-0.216185	-0.000094
C64	C	0.022934	-0.238808	-0.000082
C65	C	0.023643	-0.298194	-0.000065
N66	N	0.075920	-0.320820	-0.000059
C67	C	0.127484	-0.284048	-0.000052
C68	C	0.019302	0.064135	-0.000080
C69	C	0.018589	0.123533	-0.000075
C70	C	0.122434	0.137680	-0.000061
C71	C	0.123146	0.078281	-0.000062
C72	C	0.071578	0.041509	-0.000074
C73	C	0.128974	-0.408784	-0.000042
C74	C	0.129680	-0.468186	-0.000034
C75	C	0.025836	-0.482329	-0.000051
C76	C	0.025129	-0.422932	-0.000055
C77	C	0.076702	-0.386160	-0.000052
O78	O	-0.020119	-0.334974	-0.000052
O79	O	0.172007	-0.308755	-0.000054
C80	C	0.113059	-0.633369	-0.438153
C81	C	0.113065	-0.633368	-0.376233
O82	O	0.146156	-0.600234	-0.344207
N83	N	0.074147	-0.672315	-0.345266
C84	C	0.035217	-0.711262	-0.376223
O85	O	0.002114	-0.744389	-0.344197
C86	C	0.035209	-0.711260	-0.438141
C87	C	0.074134	-0.672315	-0.469105
C88	C	0.151980	-0.594426	-0.469117
C89	C	0.151975	-0.594429	-0.531032
C90	C	0.113050	-0.633374	-0.561984
C91	C	0.074129	-0.672317	-0.531021
C92	C	-0.003723	-0.750205	-0.469097
C93	C	-0.003728	-0.750199	-0.531020
C94	C	0.035197	-0.711254	-0.561983
C95	C	0.035198	-0.711265	-0.623888
N96	N	0.074116	-0.672318	-0.654855
C97	C	0.113042	-0.633373	-0.623903
C98	C	0.035235	-0.711262	-0.246189
C99	C	0.035245	-0.711266	-0.184271
C100	C	0.113093	-0.633371	-0.184286
C101	C	0.113085	-0.633370	-0.246205
C102	C	0.074154	-0.672315	-0.277156
C103	C	0.113029	-0.633381	-0.753930
C104	C	0.113022	-0.633388	-0.815852
C105	C	0.035173	-0.711281	-0.815831
C106	C	0.035181	-0.711276	-0.753916
C107	C	0.074111	-0.672321	-0.722967
O108	O	0.002122	-0.744380	-0.655954
O109	O	0.146134	-0.600246	-0.655936
N110	N	0.074096	-0.672334	0.153196
H111	H	-0.111587	-0.770443	-0.000092
C112	C	-0.007096	-0.753463	-0.279822
C113	C	-0.041825	-0.723333	-0.315347
C114	C	-0.080832	-0.762188	-0.346329
H115	H	0.013201	-0.777069	-0.304031
H116	H	-0.030303	-0.776649	-0.252526
H117	H	-0.018621	-0.700157	-0.342640
H118	H	-0.062135	-0.699729	-0.291153
H119	H	-0.104039	-0.785374	-0.319033
H120	H	-0.060530	-0.785791	-0.370535
H121	H	-0.104404	-0.741750	-0.370432
H122	H	0.144721	-0.601674	-0.841060
H123	H	0.220908	-0.206289	-0.000035
H124	H	-0.391900	-0.819097	-0.000072
H125	H	0.164421	0.167632	-0.000059
C126	C	-0.465846	-0.511306	0.000024
C127	C	-0.420918	-0.466308	0.000048
C128	C	-0.443409	-0.413953	0.000099
H129	H	-0.488712	-0.508777	-0.034267
H130	H	-0.488708	-0.508840	0.034344
H131	H	-0.398067	-0.468772	-0.034269
H132	H	-0.398048	-0.468819	0.034337
H133	H	-0.466270	-0.411488	0.034419
H134	H	-0.466275	-0.411430	-0.034193
H135	H	-0.412929	-0.383416	0.000121
H136	H	-0.085909	-0.582043	-0.000065
C137	C	0.194313	-0.552115	-0.435625
C138	C	0.228401	-0.518025	-0.476007
C139	C	0.267415	-0.479047	-0.445182
H140	H	0.174024	-0.528466	-0.411460
H141	H	0.217955	-0.572451	-0.411494
H142	H	0.204762	-0.497690	-0.500128
H143	H	0.248703	-0.541658	-0.500174
H144	H	0.291057	-0.499383	-0.421051
H145	H	0.247120	-0.455402	-0.421017
H146	H	0.290551	-0.455916	-0.472576
H147	H	0.183670	-0.562714	-0.556239
C148	C	-0.045987	-0.792376	-0.435356
C149	C	-0.015972	-0.827100	-0.399703
C150	C	-0.054930	-0.865882	-0.368573
H151	H	-0.069501	-0.771906	-0.411221
H152	H	-0.069255	-0.815608	-0.462563
H153	H	0.007286	-0.803872	-0.372499
H154	H	0.007540	-0.847583	-0.423823
H155	H	-0.078198	-0.889114	-0.395781
H156	H	-0.078442	-0.845408	-0.344442
H157	H	-0.034570	-0.889451	-0.344384
H158	H	-0.035433	-0.781913	-0.556217
H159	H	-0.632386	-0.575496	-0.000028
H160	H	-0.022693	0.034198	-0.000084
C161	C	-0.006943	-0.753710	-0.720312
C162	C	0.023283	-0.788397	-0.684837
C163	C	-0.015487	-0.827533	-0.653906
H164	H	-0.030611	-0.733513	-0.696073
H165	H	-0.030072	-0.776933	-0.747638
H166	H	0.046403	-0.765177	-0.657515
H167	H	0.046949	-0.808607	-0.709062
H168	H	-0.038617	-0.850756	-0.681232
H169	H	-0.039154	-0.807331	-0.629670
H170	H	0.005015	-0.851076	-0.629837
H171	H	0.003481	-0.742992	-0.841042
H172	H	-0.219337	-0.769159	-0.000071
C173	C	-0.086883	-0.132343	-0.000143
C174	C	-0.131881	-0.177271	-0.000170
C175	C	-0.184236	-0.154780	-0.000226
H176	H	-0.089420	-0.109471	0.034148
H177	H	-0.089341	-0.109486	-0.034464
H178	H	-0.129424	-0.200117	0.034147
H179	H	-0.129363	-0.200146	-0.034458
H180	H	-0.186693	-0.131924	-0.034547
H181	H	-0.186767	-0.131909	0.034065
H182	H	-0.214773	-0.185260	-0.000250
C183	C	-0.775707	-0.776671	-0.000075
C184	C	-0.743187	-0.822610	-0.000096
C185	C	-0.779867	-0.874245	-0.000131
H186	H	-0.799187	-0.778629	0.034221
H187	H	-0.799164	-0.778579	-0.034391
H188	H	-0.719740	-0.820702	0.034217
H189	H	-0.719708	-0.820670	-0.034389
H190	H	-0.803323	-0.876154	-0.034447
H191	H	-0.803345	-0.876198	0.034165
H192	H	-0.757807	-0.905421	-0.000151
H193	H	-0.071339	-0.246123	-0.000104
H194	H	-0.499645	-0.817806	-0.000061
C195	C	-0.038231	0.147980	-0.000111
C196	C	-0.083232	0.103055	-0.000130
C197	C	-0.135584	0.125551	-0.000174
H198	H	-0.040759	0.170851	0.034181
H199	H	-0.040693	0.170837	-0.034430
H200	H	-0.080771	0.080208	0.034186
H201	H	-0.080722	0.080180	-0.034419
H202	H	-0.138046	0.148408	-0.034494
H203	H	-0.138106	0.148422	0.034118
H204	H	-0.166123	0.095074	-0.000193
H205	H	-0.658056	-0.763906	-0.000054
H206	H	0.170970	-0.378851	-0.000041
H207	H	-0.352066	-0.526850	-0.000013
C208	C	-0.007118	-0.753424	-0.150629
C209	C	-0.041812	-0.723228	-0.115118
C210	C	-0.080878	-0.762025	-0.084136
H211	H	-0.030350	-0.776591	-0.177906
H212	H	0.013150	-0.777053	-0.126413
H213	H	-0.062079	-0.699609	-0.139333
H214	H	-0.018596	-0.700063	-0.087830
H215	H	-0.060610	-0.785655	-0.059920
H216	H	-0.104106	-0.785191	-0.111418
H217	H	-0.104419	-0.741543	-0.060035
C218	C	0.186503	-0.492636	-0.000053
C219	C	0.231506	-0.447714	-0.000066
C220	C	0.283857	-0.470213	-0.000093
H221	H	0.189015	-0.515501	0.034243
H222	H	0.188979	-0.515500	-0.034369
H223	H	0.229032	-0.424859	0.034246
H224	H	0.229013	-0.424845	-0.034360
H225	H	0.286333	-0.493077	-0.034408
H226	H	0.286363	-0.493077	0.034204
H227	H	0.314398	-0.439737	-0.000107
C228	C	-0.199903	-0.566601	0.000037
C229	C	-0.233600	-0.563169	0.050645
C230	C	-0.256315	-0.510933	0.050758
H231	H	-0.169553	-0.535943	0.000067
H232	H	-0.222815	-0.564157	-0.034244
H233	H	-0.210689	-0.565607	0.084917
H234	H	-0.263959	-0.593815	0.050625
H235	H	-0.279227	-0.508490	0.016477
H236	H	-0.225962	-0.480279	0.050787
H237	H	-0.279185	-0.508600	0.085092
C238	C	0.233676	-0.088655	-0.000009
C239	C	0.279602	-0.121193	0.000015
C240	C	0.331248	-0.084531	0.000066
H241	H	0.235655	-0.065174	-0.034301
H242	H	0.235582	-0.065198	0.034310
H243	H	0.277697	-0.144640	-0.034301
H244	H	0.277642	-0.144673	0.034305
H245	H	0.333154	-0.061075	0.034385
H246	H	0.333221	-0.061052	-0.034227
H247	H	0.362414	-0.106603	0.000088
C248	C	-0.031613	-0.398332	0.000058
C249	C	-0.035075	-0.364646	0.050667
C250	C	-0.087340	-0.341986	0.050789
H251	H	-0.034096	-0.375422	-0.034210
H252	H	-0.062239	-0.428725	0.000088
H253	H	-0.004458	-0.334257	0.050631
H254	H	-0.032602	-0.387544	0.084943
H255	H	-0.117966	-0.372380	0.050819
H256	H	-0.089818	-0.319079	0.016519
H257	H	-0.089698	-0.319132	0.085129
C258	C	0.155363	-0.591065	-0.720442
C259	C	0.189453	-0.556976	-0.760821
C260	C	0.228465	-0.517997	-0.729994
H261	H	0.135071	-0.567416	-0.696279
H262	H	0.179002	-0.611400	-0.696308
H263	H	0.165817	-0.536642	-0.784945
H264	H	0.209758	-0.580609	-0.784986
H265	H	0.252105	-0.538333	-0.705860
H266	H	0.208168	-0.494352	-0.705832
H267	H	0.251603	-0.494867	-0.757387
C268	C	0.155251	-0.591055	-0.279896
C269	C	0.125086	-0.556373	-0.315441
C270	C	0.163910	-0.517388	-0.346488
H271	H	0.178451	-0.567807	-0.252658
H272	H	0.178846	-0.611387	-0.304095
H273	H	0.101501	-0.536043	-0.291245
H274	H	0.101888	-0.579604	-0.342691
H275	H	0.187505	-0.537720	-0.370687
H276	H	0.187108	-0.494145	-0.319245
H277	H	0.143449	-0.493856	-0.370613
H278	H	0.144788	-0.601659	-0.159074
H279	H	-0.740136	-0.574207	-0.000035
H280	H	0.165717	0.059867	-0.000055
H281	H	-0.016146	-0.512280	-0.000054
