data_functionalizedCrystal
_audit_creation_method	'MofGen! by Chris Wilmer'
_symmetry_space_group_name_H-M	'P1'
_symmetry_Int_Tables_number	1
_symmetry_cell_setting	triclinic
loop_
_symmetry_equiv_pos_as_xyz
  x,y,z
_cell_length_a	23.532355
_cell_length_b	23.532407
_cell_length_c	13.596369
_cell_angle_alpha	89.989360
_cell_angle_beta	90.000488
_cell_angle_gamma	82.838088
loop_
_atom_site_label
_atom_site_type_symbol
_atom_site_fract_x
_atom_site_fract_y
_atom_site_fract_z
O1	O	0.755279	0.068995	-0.081668
O2	O	1.255279	0.568995	0.418332
O3	O	0.589412	0.079029	-0.081700
O4	O	1.089412	0.579029	0.418300
O5	O	0.677347	-0.008921	-0.081665
O6	O	1.177347	0.491079	0.418335
O7	O	0.667344	0.156945	-0.081703
O8	O	1.167344	0.656945	0.418297
O9	O	0.677339	-0.008925	0.081918
O10	O	1.177339	0.491075	0.581918
O11	O	0.589403	0.079025	0.081883
O12	O	1.089403	0.579025	0.581883
O13	O	0.755271	0.068990	0.081915
O14	O	1.255271	0.568990	0.581915
Zn15	Zn	0.672335	0.074007	0.107871
Zn16	Zn	1.172335	0.574007	0.607871
Zn17	Zn	0.672347	0.074013	-0.107656
Zn18	Zn	1.172347	0.574013	0.392344
O19	O	0.667335	0.156940	0.081880
O20	O	1.167335	0.656940	0.581880
C21	C	0.568191	0.078776	0.000087
C22	C	1.068191	0.578776	0.500087
C23	C	0.504972	0.078022	0.000076
C24	C	1.004972	0.578022	0.500076
C25	C	0.112954	0.073281	0.089287
C26	C	0.612954	0.573281	0.589287
C27	C	0.053554	0.072564	0.089291
C28	C	0.553554	0.572564	0.589291
O29	O	0.022832	0.072171	0.165125
O30	O	0.522832	0.572171	0.665125
N31	N	0.023850	0.072211	0.000122
N32	N	0.523850	0.572211	0.500122
C33	C	0.053550	0.072569	-0.089056
C34	C	0.553550	0.572569	0.410944
O35	O	0.022830	0.072202	-0.164901
O36	O	0.522830	0.572202	0.335099
C37	C	0.112949	0.073282	-0.089059
C38	C	0.612949	0.573282	0.410941
C39	C	0.142649	0.073641	0.000115
C40	C	0.642649	0.573641	0.500115
C41	C	0.142654	0.073640	0.178454
C42	C	0.642654	0.573640	0.678454
C43	C	0.202049	0.074358	0.178450
C44	C	0.702049	0.574358	0.678450
C45	C	0.231744	0.074718	0.089278
C46	C	0.731744	0.574718	0.589278
C47	C	0.202044	0.074360	0.000111
C48	C	0.702044	0.574360	0.500111
C49	C	0.142648	0.073637	-0.178237
C50	C	0.642648	0.573637	0.321763
C51	C	0.202051	0.074350	-0.178232
C52	C	0.702051	0.574350	0.321768
C53	C	0.231751	0.074709	-0.089057
C54	C	0.731751	0.574709	0.410943
C55	C	0.291134	0.075439	-0.089065
C56	C	0.791134	0.575439	0.410935
N57	N	0.320838	0.075792	0.000104
N58	N	0.820838	0.575792	0.500104
C59	C	0.291143	0.075432	0.089275
C60	C	0.791143	0.575432	0.589275
C61	C	-0.071192	0.071070	-0.089043
C62	C	0.428808	0.571070	0.410957
C63	C	-0.130590	0.070361	-0.089041
C64	C	0.369410	0.570361	0.410959
C65	C	-0.130581	0.070355	0.089306
C66	C	0.369419	0.570355	0.589306
C67	C	-0.071183	0.071068	0.089303
C68	C	0.428817	0.571068	0.589303
C69	C	-0.041488	0.071423	0.000125
C70	C	0.458512	0.571423	0.500125
C71	C	0.415877	0.076941	0.089259
C72	C	0.915877	0.576941	0.589259
C73	C	0.475277	0.077662	0.089247
C74	C	0.975277	0.577662	0.589247
C75	C	0.475264	0.077665	-0.089100
C76	C	0.975264	0.577665	0.410900
C77	C	0.415868	0.076947	-0.089088
C78	C	0.915868	0.576947	0.410912
C79	C	0.386177	0.076583	0.000100
C80	C	0.886177	0.576583	0.500100
O81	O	0.321895	0.075829	-0.164860
O82	O	0.821895	0.575829	0.335140
O83	O	0.321871	0.075791	0.165107
O84	O	0.821871	0.575791	0.665107
C85	C	0.677088	-0.030139	0.000129
C86	C	1.177088	0.469861	0.500129
C87	C	0.676322	-0.093356	0.000136
C88	C	1.176322	0.406644	0.500136
C89	C	0.723557	-0.492468	0.000092
C90	C	1.223557	0.007532	0.500092
C91	C	0.722845	-0.551868	0.000084
C92	C	1.222845	-0.051868	0.500084
O93	O	0.766632	-0.588620	0.000057
O94	O	1.266632	-0.088620	0.500057
N95	N	0.670568	-0.574484	0.000075
N96	N	1.170568	-0.074484	0.500075
C97	C	0.618998	-0.537697	0.000063
C98	C	1.118998	-0.037697	0.500063
O99	O	0.574467	-0.562388	0.000053
O100	O	1.074467	-0.062388	0.500053
C101	C	0.619710	-0.478298	0.000063
C102	C	1.119710	0.021702	0.500063
C103	C	0.671991	-0.455685	0.000083
C104	C	1.171991	0.044315	0.500083
C105	C	0.775834	-0.469854	0.000110
C106	C	1.275834	0.030146	0.500110
C107	C	0.776545	-0.410458	0.000120
C108	C	1.276545	0.089542	0.500120
C109	C	0.724979	-0.373676	0.000111
C110	C	1.224979	0.126324	0.500111
C111	C	0.672703	-0.396289	0.000092
C112	C	1.172703	0.103711	0.500092
C113	C	0.568141	-0.441512	0.000044
C114	C	1.068141	0.058488	0.500044
C115	C	0.568858	-0.382110	0.000044
C116	C	1.068858	0.117890	0.500044
C117	C	0.621139	-0.359497	0.000064
C118	C	1.121139	0.140503	0.500064
C119	C	0.621848	-0.300110	0.000093
C120	C	1.121848	0.199890	0.500093
N121	N	0.674126	-0.277494	0.000102
N122	N	1.174126	0.222506	0.500102
C123	C	0.725691	-0.314277	0.000111
C124	C	1.225691	0.185723	0.500111
C125	C	0.617507	-0.662439	0.000060
C126	C	1.117507	-0.162439	0.500060
C127	C	0.616794	-0.721837	0.000066
C128	C	1.116794	-0.221837	0.500066
C129	C	0.720642	-0.736004	0.000086
C130	C	1.220642	-0.236004	0.500086
C131	C	0.721354	-0.676605	0.000087
C132	C	1.221354	-0.176605	0.500087
C133	C	0.669784	-0.639823	0.000069
C134	C	1.169784	-0.139823	0.500069
C135	C	0.727181	-0.189540	0.000132
C136	C	1.227181	0.310460	0.500132
C137	C	0.727888	-0.130138	0.000145
C138	C	1.227888	0.369862	0.500145
C139	C	0.624041	-0.115977	0.000121
C140	C	1.124041	0.384023	0.500121
C141	C	0.623334	-0.175373	0.000112
C142	C	1.123334	0.324627	0.500112
C143	C	0.674909	-0.212154	0.000115
C144	C	1.174909	0.287846	0.500115
O145	O	0.578084	-0.263323	0.000116
O146	O	1.078084	0.236677	0.500116
O147	O	0.770216	-0.289577	0.000108
O148	O	1.270216	0.210423	0.500108
C149	C	0.776492	0.069244	0.000126
C150	C	1.276492	0.569244	0.500126
C151	C	0.839710	0.069998	0.000131
C152	C	1.339710	0.569998	0.500131
C153	C	0.667594	0.178158	0.000084
C154	C	1.167594	0.678158	0.500084
C155	C	0.668360	0.241375	0.000070
C156	C	1.168360	0.741375	0.500070
N157	N	0.672332	0.074002	0.254963
N158	N	1.172332	0.574002	0.754963
N159	N	0.672355	0.074013	-0.254748
N160	N	1.172355	0.574013	0.245252
C161	C	0.672346	0.074013	0.656254
C162	C	1.172346	0.574013	1.156254
C163	C	0.672340	0.074012	0.544603
C164	C	1.172340	0.574012	1.044603
C165	C	0.672339	0.074008	0.455612
C166	C	1.172339	0.574008	0.955612
C167	C	0.672333	0.074006	0.343954
C168	C	1.172333	0.574006	0.843954
H169	H	0.226226	0.074647	0.251065
H170	H	0.726226	0.574647	0.751065
Br171	Br	0.498867	-0.332194	0.000016
Br172	Br	0.998867	0.167806	0.500016
Br173	Br	0.790624	-0.785934	0.000094
Br174	Br	1.290624	-0.285934	0.500094
H175	H	0.819117	-0.392053	0.000132
H176	H	1.319117	0.107947	0.500132
H177	H	-0.154770	0.070060	0.161915
H178	H	0.345230	0.570060	0.661915
H179	H	0.574222	-0.740243	0.000067
H180	H	1.074222	-0.240243	0.500067
Br181	Br	0.797176	-0.239448	0.000134
Br182	Br	1.297176	0.260552	0.500134
Br183	Br	0.102364	0.073153	0.299490
Br184	Br	0.602364	0.573153	0.799490
H185	H	-0.154768	0.070078	-0.161656
H186	H	0.345232	0.570078	0.338344
H187	H	0.575510	-0.632494	0.000054
H188	H	1.075510	-0.132494	0.500054
Br189	Br	0.497184	-0.472185	0.000014
Br190	Br	0.997184	0.027815	0.500014
Br191	Br	0.554062	-0.066047	0.000109
Br192	Br	1.054062	0.433953	0.500109
H193	H	0.391684	0.076664	-0.161701
H194	H	0.891684	0.576664	0.338299
Br195	Br	-0.030898	0.071557	-0.210082
Br196	Br	0.469102	0.571557	0.289918
Br197	Br	0.798845	-0.099453	0.000173
Br198	Br	1.298845	0.400547	0.500173
Br199	Br	0.375590	0.076445	0.210300
Br200	Br	0.875590	0.576445	0.710300
H201	H	0.817827	-0.499797	0.000114
H202	H	1.317827	0.000203	0.500114
H203	H	0.118476	0.073344	-0.250852
H204	H	0.618476	0.573344	0.249148
Br205	Br	0.515576	0.078151	-0.210112
Br206	Br	1.015576	0.578151	0.289888
Br207	Br	0.242348	0.074829	-0.299266
Br208	Br	0.742348	0.574829	0.200734
Br209	Br	0.552381	-0.206064	0.000108
Br210	Br	1.052381	0.293936	0.500108
Br211	Br	0.515580	0.078153	0.210278
Br212	Br	1.015580	0.578153	0.710278
Br213	Br	-0.030882	0.071555	0.210329
Br214	Br	0.469118	0.571555	0.710329
H215	H	0.763925	-0.658198	0.000102
H216	H	1.263925	-0.158198	0.500102
