data_functionalizedCrystal
_audit_creation_method	'MofGen! by Chris Wilmer'
_symmetry_space_group_name_H-M	'P1'
_symmetry_Int_Tables_number	1
_symmetry_cell_setting	triclinic
loop_
_symmetry_equiv_pos_as_xyz
  x,y,z
_cell_length_a	18.101398
_cell_length_b	16.625546
_cell_length_c	16.625539
_cell_angle_alpha	89.971468
_cell_angle_beta	89.977600
_cell_angle_gamma	90.017734
loop_
_atom_site_label
_atom_site_type_symbol
_atom_site_fract_x
_atom_site_fract_y
_atom_site_fract_z
Zn1	Zn	1.132151	-0.321117	-0.456013
Zn2	Zn	1.465485	0.012217	-0.122679
Zn3	Zn	1.798818	0.345550	0.210654
Zn4	Zn	1.132070	-0.455956	-0.321175
Zn5	Zn	1.465403	-0.122622	0.012159
Zn6	Zn	1.798737	0.210711	0.345492
Zn7	Zn	1.008314	-0.321129	-0.321180
Zn8	Zn	1.341648	0.012204	0.012153
Zn9	Zn	1.674981	0.345537	0.345486
Zn10	Zn	1.008280	-0.455900	-0.455952
Zn11	Zn	1.341613	-0.122567	-0.122619
Zn12	Zn	1.674946	0.210767	0.210715
O13	O	1.070204	-0.388525	-0.388580
O14	O	1.403537	-0.055192	-0.055247
O15	O	1.736871	0.278141	0.278087
O16	O	1.235773	-0.339021	-0.438149
O17	O	1.569107	-0.005688	-0.104816
O18	O	1.902440	0.327645	0.228518
O19	O	1.115634	-0.438099	-0.208343
O20	O	1.448967	-0.104766	0.124990
O21	O	1.782301	0.228568	0.458324
O22	O	1.024790	-0.208295	-0.339094
O23	O	1.358124	0.125038	-0.005761
O24	O	1.691457	0.458371	0.327573
O25	O	1.235714	-0.438087	-0.339084
O26	O	1.569047	-0.104753	-0.005751
O27	O	1.902380	0.228580	0.327582
O28	O	1.115773	-0.208286	-0.438154
O29	O	1.449106	0.125047	-0.104821
O30	O	1.782439	0.458381	0.228512
O31	O	1.024711	-0.339043	-0.208347
O32	O	1.358045	-0.005710	0.124986
O33	O	1.691378	0.327624	0.458319
O34	O	0.904677	-0.338989	-0.339035
O35	O	1.238010	-0.005656	-0.005702
O36	O	1.571344	0.327678	0.327631
O37	O	1.024731	-0.437992	-0.568793
O38	O	1.358064	-0.104659	-0.235459
O39	O	1.691398	0.228675	0.097874
O40	O	0.904651	-0.438004	-0.438051
O41	O	1.237985	-0.104671	-0.104718
O42	O	1.571318	0.228662	0.228615
O43	O	1.115739	-0.338968	-0.568837
O44	O	1.449072	-0.005634	-0.235504
O45	O	1.782406	0.327699	0.097830
O46	O	1.115600	-0.568781	-0.339026
O47	O	1.448934	-0.235447	-0.005692
O48	O	1.782267	0.097886	0.327641
O49	O	1.024652	-0.568740	-0.438046
O50	O	1.357986	-0.235406	-0.104713
O51	O	1.691319	0.097927	0.228621
C52	C	1.070134	-0.598016	-0.388546
C53	C	1.403467	-0.264683	-0.055213
C54	C	1.736800	0.068650	0.278120
C55	C	1.070172	-0.687637	-0.388559
C56	C	1.403505	-0.354304	-0.055225
C57	C	1.736838	-0.020971	0.278108
C58	C	0.877793	-0.388493	-0.388538
C59	C	1.211127	-0.055159	-0.055205
C60	C	1.544460	0.278174	0.278129
C61	C	0.795479	-0.388498	-0.388539
C62	C	1.128813	-0.055165	-0.055206
C63	C	1.462146	0.278169	0.278128
C64	C	1.070301	-1.015813	-0.388643
C65	C	1.403634	-0.682480	-0.055309
C66	C	1.736967	-0.349146	0.278024
C67	C	1.070262	-0.924505	-0.388622
C68	C	1.403596	-0.591171	-0.055288
C69	C	1.736929	-0.257838	0.278045
C70	C	1.070236	-0.851728	-0.388600
C71	C	1.403569	-0.518395	-0.055267
C72	C	1.736902	-0.185061	0.278066
C73	C	1.070198	-0.760414	-0.388580
C74	C	1.403532	-0.427081	-0.055247
C75	C	1.736865	-0.093747	0.278087
C76	C	0.496388	-0.388548	-0.388607
C77	C	0.829722	-0.055215	-0.055273
C78	C	1.163055	0.278118	0.278060
C79	C	0.527705	-0.325939	-0.326612
C80	C	0.861038	0.007394	0.006721
C81	C	1.194372	0.340727	0.340054
C82	C	0.613323	-0.326107	-0.326348
C83	C	0.946656	0.007226	0.006985
C84	C	1.279990	0.340559	0.340319
C85	C	0.644771	-0.388523	-0.388573
C86	C	0.978104	-0.055189	-0.055240
C87	C	1.311438	0.278144	0.278094
C88	C	0.613665	-0.473459	-0.365354
C89	C	0.946999	-0.140126	-0.032021
C90	C	1.280332	0.193208	0.301313
C91	C	0.528020	-0.473111	-0.364923
C92	C	0.861353	-0.139778	-0.031590
C93	C	1.194687	0.193555	0.301744
C94	C	0.527997	-0.366960	-0.473966
C95	C	0.861331	-0.033626	-0.140633
C96	C	1.194664	0.299707	0.192700
C97	C	0.613648	-0.365068	-0.473500
C98	C	0.946981	-0.031735	-0.140167
C99	C	1.280315	0.301598	0.193166
C100	C	0.728630	-0.388514	-0.388556
C101	C	1.061964	-0.055180	-0.055222
C102	C	1.395297	0.278153	0.278111
C103	C	0.412529	-0.388563	-0.388622
C104	C	0.745862	-0.055230	-0.055289
C105	C	1.079196	0.278103	0.278044
C106	C	1.263366	-0.388559	-0.388623
C107	C	1.596699	-0.055226	-0.055289
C108	C	1.930032	0.278108	0.278044
C109	C	1.345680	-0.388573	-0.388641
C110	C	1.679013	-0.055240	-0.055308
C111	C	2.012347	0.278094	0.278026
C112	C	1.070240	-0.388472	-0.598889
C113	C	1.403574	-0.055139	-0.265556
C114	C	1.736907	0.278194	0.067778
C115	C	1.070256	-0.388450	-0.688510
C116	C	1.403589	-0.055116	-0.355177
C117	C	1.736922	0.278217	-0.021843
C118	C	1.070294	-0.178217	-0.388632
C119	C	1.403628	0.155117	-0.055298
C120	C	1.736961	0.488450	0.278035
C121	C	1.070333	-0.088595	-0.388654
C122	C	1.403666	0.244738	-0.055320
C123	C	1.737000	0.578071	0.278013
C124	C	1.070268	-0.388432	-0.761293
C125	C	1.403601	-0.055098	-0.427959
C126	C	1.736934	0.278235	-0.094626
C127	C	1.070285	-0.388402	-0.852601
C128	C	1.403618	-0.055068	-0.519268
C129	C	1.736952	0.278265	-0.185935
C130	C	1.070302	-0.388373	-0.925378
C131	C	1.403636	-0.055040	-0.592044
C132	C	1.736969	0.278293	-0.258711
C133	C	1.070321	-0.388344	-1.016692
C134	C	1.403654	-0.055011	-0.683359
C135	C	1.736988	0.278322	-0.350025
C136	C	1.070210	-0.388520	-0.179089
C137	C	1.403544	-0.055187	0.154244
C138	C	1.736877	0.278146	0.487577
C139	C	1.070338	-0.388316	-0.089469
C140	C	1.403672	-0.054983	0.243865
C141	C	1.737005	0.278351	0.577198
H142	H	0.507125	-0.262763	-0.341007
H143	H	0.840459	0.070570	-0.007673
H144	H	1.173792	0.403904	0.325660
H145	H	0.635057	-0.407346	-0.522166
H146	H	0.968391	-0.074013	-0.188833
H147	H	1.301724	0.259320	0.144501
O148	O	0.640581	-0.282276	-0.496701
O149	O	0.973914	0.051057	-0.163367
O150	O	1.307248	0.384391	0.169966
H151	H	0.701869	-0.282119	-0.498795
H152	H	1.035203	0.051214	-0.165462
H153	H	1.368536	0.384548	0.167872
O154	O	0.500575	-0.536999	-0.422118
O155	O	0.833908	-0.203666	-0.088784
O156	O	1.167242	0.129668	0.244549
H157	H	0.439257	-0.537226	-0.422242
H158	H	0.772591	-0.203893	-0.088908
H159	H	1.105924	0.129441	0.244425
O160	O	0.641191	-0.242675	-0.345600
O161	O	0.974525	0.090658	-0.012266
O162	O	1.307858	0.423992	0.321067
H163	H	0.593496	-0.201842	-0.355182
H164	H	0.926829	0.131491	-0.021848
H165	H	1.260162	0.464824	0.311485
O166	O	0.640432	-0.344974	-0.242560
O167	O	0.973766	-0.011641	0.090773
O168	O	1.307099	0.321693	0.424107
H169	H	0.592370	-0.354027	-0.202075
H170	H	0.925703	-0.020694	0.131259
H171	H	1.259036	0.312640	0.464592
O172	O	0.501508	-0.497350	-0.282264
O173	O	0.834841	-0.164017	0.051069
O174	O	1.168175	0.169316	0.384402
H175	H	0.549859	-0.509207	-0.242974
H176	H	0.883192	-0.175873	0.090359
H177	H	1.216526	0.157460	0.423692
O178	O	0.499160	-0.344621	-0.243318
O179	O	0.832493	-0.011287	0.090016
O180	O	1.165826	0.322046	0.423349
H181	H	0.521594	-0.300072	-0.200030
H182	H	0.854927	0.033261	0.133304
H183	H	1.188260	0.366594	0.466637
H184	H	0.507746	-0.412562	-0.520158
H185	H	0.841079	-0.079228	-0.186824
H186	H	1.174412	0.254105	0.146509
O187	O	0.640644	-0.536915	-0.423285
O188	O	0.973977	-0.203582	-0.089952
O189	O	1.307311	0.129752	0.243382
H190	H	0.676598	-0.508521	-0.469348
H191	H	1.009932	-0.175187	-0.136015
H192	H	1.343265	0.158146	0.197319
H193	H	0.506416	-0.306102	-0.495077
H194	H	0.839750	0.027231	-0.161743
H195	H	1.173083	0.360564	0.171590
O196	O	0.642024	-0.498137	-0.283584
O197	O	0.975357	-0.164804	0.049749
O198	O	1.308690	0.168530	0.383082
H199	H	0.678263	-0.450050	-0.259351
H200	H	1.011596	-0.116717	0.073983
H201	H	1.344929	0.216616	0.407316
