data_functionalizedCrystal
_audit_creation_method	'MofGen! by Chris Wilmer'
_symmetry_space_group_name_H-M	'P1'
_symmetry_Int_Tables_number	1
_symmetry_cell_setting	triclinic
loop_
_symmetry_equiv_pos_as_xyz
  x,y,z
_cell_length_a	16.992694
_cell_length_b	11.295483
_cell_length_c	16.992695
_cell_angle_alpha	85.625069
_cell_angle_beta	90.668223
_cell_angle_gamma	94.379711
loop_
_atom_site_label
_atom_site_type_symbol
_atom_site_fract_x
_atom_site_fract_y
_atom_site_fract_z
O1	O	1.055813	0.098876	0.161955
O2	O	0.827415	0.098911	0.160122
O3	O	0.940698	0.098884	0.046839
O4	O	0.942530	0.098903	0.275238
O5	O	0.930747	-0.099164	0.056773
O6	O	0.817464	-0.099137	0.170056
O7	O	1.045862	-0.099172	0.171889
Cu8	Cu	0.930755	-0.117238	0.171879
Cu9	Cu	0.942523	0.116977	0.160132
O10	O	0.932579	-0.099146	0.285172
C11	C	0.793080	-0.000109	0.162733
C12	C	0.705596	-0.000096	0.155703
N13	N	0.922483	-0.281973	0.180142
C14	C	0.659605	-0.000091	0.223521
C15	C	0.577403	-0.000108	0.216913
C16	C	0.541194	-0.000121	0.142486
C17	C	0.587191	-0.000129	0.074664
C18	C	0.669391	-0.000121	0.081273
C19	C	0.295878	-0.000155	0.115093
C20	C	0.213673	-0.000160	0.108489
C21	C	0.203891	-0.000141	0.250739
C22	C	0.286093	-0.000125	0.257342
C23	C	0.332082	-0.000140	0.189519
N24	N	0.457172	-0.000135	0.135730
N25	N	0.416103	-0.000135	0.196277
C26	C	1.010339	-0.531283	0.092341
C27	C	1.004094	-0.655945	0.098591
C28	C	0.903745	-0.655961	0.198887
C29	C	0.909990	-0.531299	0.192637
C30	C	0.963290	-0.468964	0.139363
C31	C	0.969538	-0.344300	0.133118
C32	C	0.869186	-0.344319	0.233409
C33	C	0.862941	-0.468981	0.239659
C34	C	1.080198	-0.000150	0.169278
C35	C	1.167682	-0.000155	0.176307
C36	C	0.933367	-0.000139	0.022446
C37	C	0.926338	-0.000138	-0.065039
N38	N	0.950800	0.281711	0.151863
C39	C	0.994156	-0.000150	-0.111029
C40	C	0.987547	-0.000137	-0.193231
C41	C	0.913120	-0.000122	-0.229440
C42	C	0.845298	-0.000107	-0.183444
C43	C	0.851908	-0.000111	-0.101244
C44	C	0.885727	-0.000101	-0.474755
C45	C	0.879122	-0.000101	-0.556960
C46	C	1.021372	-0.000130	-0.566742
C47	C	1.027975	-0.000141	-0.484540
C48	C	0.960153	-0.000119	-0.438552
N49	N	0.906364	-0.000113	-0.313462
N50	N	0.966911	-0.000119	-0.354531
C51	C	0.939911	-0.000119	0.309565
C52	C	0.946940	-0.000113	0.397049
H53	H	0.539961	-0.000103	0.272138
H54	H	0.830877	-0.293565	0.271700
N55	N	1.054848	-0.723163	0.047883
H56	H	1.043374	-0.701473	-0.009649
H57	H	1.112349	-0.701421	0.059464
H58	H	0.784698	-0.000087	-0.212932
N59	N	0.846252	-0.723204	0.256332
H60	H	0.849435	-0.811632	0.253150
H61	H	0.859931	-0.701422	0.311662
H62	H	0.315569	-0.000101	0.317947
N63	N	0.154289	-0.000128	0.323887
H64	H	0.096722	-0.000136	0.308410
H65	H	0.162841	-0.073543	0.359783
H66	H	0.819543	-0.519748	0.283032
N67	N	0.548139	-0.000132	-0.005612
H68	H	0.589750	-0.000135	-0.047571
H69	H	0.510564	-0.073552	-0.007771
N70	N	1.060692	-0.000157	-0.242835
H71	H	1.108843	-0.000178	-0.207423
H72	H	1.057352	-0.073576	-0.273474
H73	H	1.053743	-0.480529	0.048969
H74	H	1.054762	-0.000170	-0.081554
H75	H	0.706836	-0.000124	0.026048
H76	H	0.333313	-0.000168	0.059867
N77	N	1.108249	-0.000164	-0.445487
H78	H	1.150210	-0.000170	-0.487096
H79	H	1.117781	0.073250	-0.415272
H80	H	1.076589	-0.000145	-0.604195
H81	H	0.818511	-0.000108	-0.586438
H82	H	0.830501	-0.000084	-0.437321
N83	N	0.174627	-0.000193	0.028206
H84	H	0.137059	-0.073613	0.025984
H85	H	0.144467	0.073268	0.018647
N86	N	0.778768	-0.000103	-0.051627
H87	H	0.750211	0.073318	-0.067469
H88	H	0.742892	-0.073564	-0.060128
N89	N	0.698650	-0.000066	0.303799
H90	H	0.678525	-0.073482	0.337426
H91	H	0.757695	-0.000012	0.297633
N92	N	1.027025	-0.277062	0.075665
H93	H	1.055881	-0.335462	0.046824
H94	H	0.997298	-0.225345	0.036367
