data_functionalizedCrystal
_audit_creation_method	'MofGen! by Chris Wilmer'
_symmetry_space_group_name_H-M	'P1'
_symmetry_Int_Tables_number	1
_symmetry_cell_setting	triclinic
loop_
_symmetry_equiv_pos_as_xyz
  x,y,z
_cell_length_a	11.792241
_cell_length_b	11.792241
_cell_length_c	11.295487
_cell_angle_alpha	94.120228
_cell_angle_beta	85.866312
_cell_angle_gamma	84.193416
loop_
_atom_site_label
_atom_site_type_symbol
_atom_site_fract_x
_atom_site_fract_y
_atom_site_fract_z
O1	O	1.514505	0.147984	-0.098909
O2	O	2.014505	0.647984	0.401091
O3	O	1.184166	0.164015	-0.098937
O4	O	1.684166	0.664015	0.401063
O5	O	1.357351	-0.009170	-0.098914
O6	O	1.857351	0.490830	0.401086
O7	O	1.341320	0.321169	-0.098932
O8	O	1.841320	0.821169	0.401068
O9	O	1.342126	0.006009	0.099135
O10	O	1.842126	0.506009	0.599135
O11	O	1.168941	0.179195	0.099112
O12	O	1.668941	0.679195	0.599112
O13	O	1.499280	0.163164	0.099140
O14	O	1.999280	0.663164	0.599140
Cu15	Cu	1.332720	0.172565	0.117209
Cu16	Cu	1.832720	0.672565	0.617209
Cu17	Cu	1.350726	0.154613	-0.117007
Cu18	Cu	1.850726	0.654613	0.382993
O19	O	1.326095	0.336349	0.099117
O20	O	1.826095	0.836349	0.599117
C21	C	1.134263	0.170597	0.000084
C22	C	1.634263	0.670597	0.500084
C23	C	1.008250	0.167582	0.000074
C24	C	1.508250	0.667582	0.500074
C25	C	0.777535	0.162042	0.000108
C26	C	1.277535	0.662042	0.500108
C27	C	0.905922	0.165120	0.000089
C28	C	1.405922	0.665120	0.500089
C29	C	1.348732	-0.043872	0.000110
C30	C	1.848732	0.456128	0.500110
C31	C	1.345717	-0.169885	0.000108
C32	C	1.845717	0.330115	0.500108
C33	C	1.340176	-0.400599	0.000088
C34	C	1.840176	0.099401	0.500088
C35	C	1.343255	-0.272213	0.000099
C36	C	1.843255	0.227787	0.500099
C37	C	1.549183	0.156581	0.000116
C38	C	2.049183	0.656581	0.500116
C39	C	1.675197	0.159596	0.000119
C40	C	2.175197	0.659596	0.500119
C41	C	1.334714	0.371050	0.000090
C42	C	1.834714	0.871050	0.500090
C43	C	1.337729	0.497063	0.000084
C44	C	1.837729	0.997063	0.500084
N45	N	1.320064	0.185191	0.281944
N46	N	1.820064	0.685191	0.781944
C47	C	1.229043	0.276189	0.468954
C48	C	1.729043	0.776189	0.968954
C49	C	1.238586	0.266630	0.344292
C50	C	1.738586	0.766630	0.844292
C51	C	1.392002	0.113303	0.344268
C52	C	1.892002	0.613303	0.844268
C53	C	1.382458	0.122862	0.468931
C54	C	1.882458	0.622862	0.968931
C55	C	1.300977	0.204309	0.531270
C56	C	1.800977	0.704309	1.031270
C57	C	1.291440	0.213872	0.655934
C58	C	1.791440	0.713872	1.155934
C59	C	1.444849	0.060540	0.655909
C60	C	1.944849	0.560540	1.155909
C61	C	1.454392	0.050981	0.531246
C62	C	1.954392	0.550981	1.031246
N63	N	1.363377	0.141984	0.718258
N64	N	1.863377	0.641984	1.218258
H65	H	1.225097	0.280193	0.706690
H66	H	1.725097	0.780193	1.206690
H67	H	1.458334	0.046983	0.293496
H68	H	1.958334	0.546983	0.793496
H69	H	1.180009	0.325161	0.293558
H70	H	1.680009	0.825161	0.793558
Br71	Br	1.542489	-0.037005	0.740490
Br72	Br	2.042489	0.462995	1.240490
H73	H	1.520730	-0.015334	0.480476
H74	H	2.020730	0.484666	0.980476
Br75	Br	1.118480	0.386736	0.553560
Br76	Br	1.618480	0.886736	1.053560
