data_functionalizedCrystal
_audit_creation_method	'MofGen! by Chris Wilmer'
_symmetry_space_group_name_H-M	'P1'
_symmetry_Int_Tables_number	1
_symmetry_cell_setting	triclinic
loop_
_symmetry_equiv_pos_as_xyz
  x,y,z
_cell_length_a	19.121112
_cell_length_b	19.121063
_cell_length_c	18.101389
_cell_angle_alpha	92.419391
_cell_angle_beta	87.543370
_cell_angle_gamma	90.126867
loop_
_atom_site_label
_atom_site_type_symbol
_atom_site_fract_x
_atom_site_fract_y
_atom_site_fract_z
Zn1	Zn	1.059842	-0.324984	-0.480932
Zn2	Zn	1.393175	0.008350	-0.147598
Zn3	Zn	1.726508	0.341683	0.185735
Zn4	Zn	1.054750	-0.442202	-0.362126
Zn5	Zn	1.388083	-0.108869	-0.028793
Zn6	Zn	1.721416	0.224464	0.304540
Zn7	Zn	0.942606	-0.319976	-0.351614
Zn8	Zn	1.275940	0.013357	-0.018281
Zn9	Zn	1.609273	0.346691	0.315053
Zn10	Zn	0.937567	-0.437174	-0.480438
Zn11	Zn	1.270900	-0.103841	-0.147104
Zn12	Zn	1.604234	0.229493	0.186229
O13	O	0.998691	-0.381084	-0.418777
O14	O	1.332024	-0.047751	-0.085444
O15	O	1.665358	0.285583	0.247889
O16	O	1.157271	-0.344733	-0.469778
O17	O	1.490605	-0.011400	-0.136445
O18	O	1.823938	0.321933	0.196888
O19	O	1.039851	-0.425997	-0.257098
O20	O	1.373185	-0.092664	0.076235
O21	O	1.706518	0.240669	0.409568
O22	O	0.962398	-0.222536	-0.364576
O23	O	1.295731	0.110797	-0.031242
O24	O	1.629064	0.444131	0.302091
O25	O	1.153530	-0.430853	-0.382493
O26	O	1.486863	-0.097520	-0.049159
O27	O	1.820197	0.235813	0.284174
O28	O	1.048530	-0.226215	-0.459585
O29	O	1.381864	0.107118	-0.126251
O30	O	1.715197	0.440451	0.207082
O31	O	0.957460	-0.336198	-0.249375
O32	O	1.290793	-0.002865	0.083958
O33	O	1.624127	0.330469	0.417292
O34	O	0.843833	-0.331322	-0.364096
O35	O	1.177166	0.002011	-0.030763
O36	O	1.510499	0.335344	0.302570
O37	O	0.953809	-0.422283	-0.584137
O38	O	1.287142	-0.088950	-0.250803
O39	O	1.620476	0.244384	0.082530
O40	O	0.840130	-0.417427	-0.458743
O41	O	1.173464	-0.084094	-0.125409
O42	O	1.506797	0.249239	0.207924
O43	O	1.043644	-0.339857	-0.584500
O44	O	1.376977	-0.006524	-0.251166
O45	O	1.710311	0.326809	0.082167
O46	O	1.034965	-0.539639	-0.382013
O47	O	1.368298	-0.206306	-0.048680
O48	O	1.701632	0.127027	0.284653
O49	O	0.948871	-0.535945	-0.468936
O50	O	1.282205	-0.202612	-0.135603
O51	O	1.615538	0.130722	0.197731
C52	C	0.816544	-0.373286	-0.410226
C53	C	1.149877	-0.039953	-0.076892
C54	C	1.483211	0.293380	0.256441
C55	C	0.738620	-0.369967	-0.406585
C56	C	1.071953	-0.036634	-0.073252
C57	C	1.405287	0.296700	0.260081
C58	C	0.990838	-0.563230	-0.426579
C59	C	1.324171	-0.229897	-0.093246
C60	C	1.657504	0.103436	0.240088
C61	C	0.987542	-0.641156	-0.429944
C62	C	1.320876	-0.307823	-0.096611
C63	C	1.654209	0.025511	0.236722
C64	C	0.297995	-0.348910	-0.383528
C65	C	0.631328	-0.015577	-0.050194
C66	C	0.964661	0.317756	0.283139
C67	C	0.371212	-0.352033	-0.386952
C68	C	0.704546	-0.018699	-0.053619
C69	C	1.037879	0.314634	0.279715
C70	C	0.405907	-0.398498	-0.437868
C71	C	0.739240	-0.065165	-0.104535
C72	C	1.072573	0.268169	0.228799
C73	C	0.367379	-0.441838	-0.485367
C74	C	0.700713	-0.108505	-0.152034
C75	C	1.034046	0.224828	0.181299
C76	C	0.294163	-0.438712	-0.481946
C77	C	0.627496	-0.105378	-0.148612
C78	C	0.960830	0.227955	0.184721
C79	C	0.626877	-0.410181	-0.450663
C80	C	0.960210	-0.076848	-0.117330
C81	C	1.293543	0.256486	0.216003
C82	C	0.700098	-0.413306	-0.454080
C83	C	1.033431	-0.079972	-0.120746
C84	C	1.366765	0.253361	0.212587
C85	C	0.703926	-0.323499	-0.355665
C86	C	1.037260	0.009834	-0.022332
C87	C	1.370593	0.343168	0.311002
C88	C	0.630708	-0.320379	-0.352245
C89	C	0.964042	0.012954	-0.018912
C90	C	1.297375	0.346287	0.314422
C91	C	0.592187	-0.363717	-0.399747
C92	C	0.925521	-0.030384	-0.066414
C93	C	1.258854	0.302949	0.266920
C94	C	0.480747	-0.401692	-0.441368
C95	C	0.814080	-0.068359	-0.108035
C96	C	1.147413	0.264974	0.225299
C97	C	0.517349	-0.360519	-0.396250
C98	C	0.850682	-0.027186	-0.062917
C99	C	1.184016	0.306148	0.270417
C100	C	1.030853	-0.679667	-0.386310
C101	C	1.364187	-0.346334	-0.052977
C102	C	1.697520	-0.013001	0.280357
C103	C	1.027758	-0.752887	-0.389480
C104	C	1.361091	-0.419554	-0.056146
C105	C	1.694425	-0.086220	0.277187
C106	C	0.981348	-0.787594	-0.436280
C107	C	1.314681	-0.454260	-0.102947
C108	C	1.648014	-0.120927	0.230387
C109	C	0.938035	-0.749077	-0.479919
C110	C	1.271368	-0.415744	-0.146586
C111	C	1.604702	-0.082411	0.186748
C112	C	0.941134	-0.675859	-0.476753
C113	C	1.274468	-0.342526	-0.143419
C114	C	1.607801	-0.009192	0.189914
C115	C	0.969749	-1.008570	-0.448105
C116	C	1.303082	-0.675237	-0.114772
C117	C	1.636415	-0.341903	0.218561
C118	C	0.966651	-1.081793	-0.451267
C119	C	1.299984	-0.748460	-0.117933
C120	C	1.633318	-0.415127	0.215400
C121	C	1.056375	-1.085598	-0.360828
C122	C	1.389709	-0.752265	-0.027495
C123	C	1.723042	-0.418931	0.305839
C124	C	1.059468	-1.012378	-0.357663
C125	C	1.392801	-0.679045	-0.024329
C126	C	1.726134	-0.345711	0.309004
C127	C	1.016158	-0.973868	-0.401304
C128	C	1.349491	-0.640535	-0.067971
C129	C	1.682824	-0.307201	0.265362
C130	C	0.978181	-0.862436	-0.439519
C131	C	1.311514	-0.529102	-0.106186
C132	C	1.644848	-0.195769	0.227148
C133	C	1.019328	-0.899028	-0.398069
C134	C	1.352661	-0.565694	-0.064735
C135	C	1.685995	-0.232361	0.268598
C136	C	1.181549	-0.388913	-0.427363
C137	C	1.514883	-0.055579	-0.094030
C138	C	1.848216	0.277754	0.239303
C139	C	1.259473	-0.392249	-0.431022
C140	C	1.592806	-0.058916	-0.097689
C141	C	1.926139	0.274418	0.235645
C142	C	0.998732	-0.381068	-0.611941
C143	C	1.332066	-0.047735	-0.278607
C144	C	1.665399	0.285599	0.054726
C145	C	0.998750	-0.381061	-0.694255
C146	C	1.332083	-0.047728	-0.360922
C147	C	1.665417	0.285606	-0.027589
C148	C	1.006594	-0.198227	-0.410963
C149	C	1.339928	0.135106	-0.077629
C150	C	1.673261	0.468440	0.255704
C151	C	1.009962	-0.120304	-0.407632
C152	C	1.343295	0.213029	-0.074299
C153	C	1.676629	0.546362	0.259034
C154	C	0.998796	-0.380932	-0.993343
C155	C	1.332130	-0.047598	-0.660009
C156	C	1.665463	0.285735	-0.326676
C157	C	0.942095	-0.432611	-0.961773
C158	C	1.275429	-0.099278	-0.628439
C159	C	1.608762	0.234055	-0.295106
C160	C	0.942232	-0.432868	-0.876172
C161	C	1.275565	-0.099535	-0.542839
C162	C	1.608898	0.233799	-0.209505
C163	C	0.998773	-0.380996	-0.844962
C164	C	1.332106	-0.047663	-0.511628
C165	C	1.665439	0.285671	-0.178295
C166	C	1.071782	-0.404207	-0.880382
C167	C	1.405115	-0.070874	-0.547049
C168	C	1.738449	0.262460	-0.213715
C169	C	1.071464	-0.404549	-0.966028
C170	C	1.404797	-0.071215	-0.632695
C171	C	1.738130	0.262118	-0.299361
C172	C	0.983135	-0.305948	-0.957697
C173	C	1.316469	0.027385	-0.624364
C174	C	1.649802	0.360719	-0.291031
C175	C	0.981474	-0.306306	-0.871988
C176	C	1.314807	0.027027	-0.538655
C177	C	1.648140	0.360360	-0.205321
C178	C	0.998764	-0.381031	-0.761103
C179	C	1.332097	-0.047698	-0.427770
C180	C	1.665431	0.285635	-0.094437
C181	C	0.998810	-0.380898	-1.077201
C182	C	1.332143	-0.047565	-0.743868
C183	C	1.665477	0.285769	-0.410535
C184	C	0.998693	-0.381051	-0.226366
C185	C	1.332026	-0.047718	0.106968
C186	C	1.665359	0.285616	0.440301
C187	C	0.998819	-0.380866	-0.144049
C188	C	1.332153	-0.047533	0.189284
C189	C	1.665486	0.285800	0.522617
H190	H	0.269752	-0.311074	-0.342066
H191	H	0.603086	0.022259	-0.008732
H192	H	0.936419	0.355593	0.324601
H193	H	0.735298	-0.288215	-0.316993
H194	H	1.068631	0.045118	0.016341
H195	H	1.401964	0.378452	0.349674
Br196	Br	0.423490	-0.293206	-0.322500
Br197	Br	0.756824	0.040128	0.010833
Br198	Br	1.090157	0.373461	0.344167
H199	H	0.940392	-0.890702	-0.477623
H200	H	1.273726	-0.557369	-0.144289
H201	H	1.607059	-0.224035	0.189044
H202	H	0.395633	-0.479668	-0.526827
H203	H	0.728966	-0.146335	-0.193494
H204	H	1.062300	0.186998	0.139840
H205	H	1.097258	-0.984122	-0.319554
H206	H	1.430592	-0.650788	0.013779
H207	H	1.763925	-0.317455	0.347113
H208	H	0.728344	-0.451144	-0.495545
H209	H	1.061677	-0.117810	-0.162212
H210	H	1.395010	0.215523	0.171121
Br211	Br	0.583628	-0.257314	-0.283146
Br212	Br	0.916962	0.076019	0.050187
Br213	Br	1.250295	0.409353	0.383521
Br214	Br	0.959080	-0.525390	-0.846937
Br215	Br	1.292413	-0.192056	-0.513604
Br216	Br	1.625746	0.141277	-0.180270
Br217	Br	0.896219	-0.271725	-0.988240
Br218	Br	1.229553	0.061609	-0.654907
Br219	Br	1.562886	0.394942	-0.321573
H220	H	0.905867	-0.644504	-0.512285
H221	H	1.239200	-0.311170	-0.178952
H222	H	1.572533	0.022163	0.154381
Br223	Br	0.851832	-0.408045	-0.835946
Br224	Br	1.185166	-0.074711	-0.502613
Br225	Br	1.518499	0.258622	-0.169279
Br226	Br	1.094207	-0.496064	-1.004469
Br227	Br	1.427540	-0.162731	-0.671135
Br228	Br	1.760873	0.170603	-0.337802
H229	H	0.900250	-0.777341	-0.518028
H230	H	1.233583	-0.444008	-0.184695
H231	H	1.566916	-0.110675	0.148639
Br232	Br	0.241882	-0.497526	-0.546410
Br233	Br	0.575215	-0.164193	-0.213077
Br234	Br	0.908549	0.169141	0.120257
Br235	Br	0.910971	-0.956315	-0.507334
Br236	Br	1.244304	-0.622982	-0.174001
Br237	Br	1.577637	-0.289649	0.159332
Br238	Br	0.851405	-0.407993	-0.990904
Br239	Br	1.184738	-0.074660	-0.657570
Br240	Br	1.518072	0.258674	-0.324237
H241	H	1.057118	-0.870767	-0.359967
H242	H	1.390451	-0.537434	-0.026633
H243	H	1.723785	-0.204101	0.306700
Br244	Br	0.574607	-0.468999	-0.515128
Br245	Br	0.907941	-0.135666	-0.181795
Br246	Br	1.241274	0.197667	0.151538
H247	H	0.928867	-1.110049	-0.489390
H248	H	1.262200	-0.776716	-0.156057
H249	H	1.595533	-0.443383	0.177276
H250	H	0.952070	-0.487785	-0.986223
H251	H	1.285403	-0.154452	-0.652890
H252	H	1.618736	0.178881	-0.319557
H253	H	1.114973	-0.368712	-0.987109
H254	H	1.448306	-0.035379	-0.653775
H255	H	1.781640	0.297954	-0.320442
Br256	Br	1.093835	-0.632572	-0.322785
Br257	Br	1.427169	-0.299239	0.010548
Br258	Br	1.760502	0.034094	0.343882
Br259	Br	1.143862	-0.343672	-0.846988
Br260	Br	1.477195	-0.010339	-0.513655
Br261	Br	1.810529	0.322994	-0.180322
Br262	Br	1.086544	-0.805150	-0.330264
Br263	Br	1.419877	-0.471817	0.003070
Br264	Br	1.753211	-0.138484	0.336403
Br265	Br	1.115153	-1.137865	-0.301607
Br266	Br	1.448487	-0.804532	0.031726
Br267	Br	1.781820	-0.471198	0.365060
Br268	Br	1.095031	-0.494782	-0.849755
Br269	Br	1.428364	-0.161449	-0.516422
Br270	Br	1.761697	0.171884	-0.183089
H271	H	0.927761	-0.288860	-0.848465
H272	H	1.261094	0.044473	-0.515132
H273	H	1.594428	0.377807	-0.181799
H274	H	1.020010	-0.265504	-0.850498
H275	H	1.353344	0.067830	-0.517165
H276	H	1.686677	0.401163	-0.183832
H277	H	0.489098	-0.322684	-0.354798
H278	H	0.822431	0.010649	-0.021464
H279	H	1.155765	0.343982	0.311869
H280	H	0.509003	-0.439526	-0.482822
H281	H	0.842336	-0.106193	-0.149488
H282	H	1.175669	0.227140	0.183845
Br283	Br	1.052033	-0.241707	-0.991691
Br284	Br	1.385366	0.091626	-0.658358
Br285	Br	1.718700	0.424959	-0.325024
