data_functionalizedCrystal
_audit_creation_method	'MofGen! by Chris Wilmer'
_symmetry_space_group_name_H-M	'P1'
_symmetry_Int_Tables_number	1
_symmetry_cell_setting	triclinic
loop_
_symmetry_equiv_pos_as_xyz
  x,y,z
_cell_length_a	13.635800
_cell_length_b	27.923496
_cell_length_c	9.514088
_cell_angle_alpha	86.314436
_cell_angle_beta	118.843545
_cell_angle_gamma	81.036054
loop_
_atom_site_label
_atom_site_type_symbol
_atom_site_fract_x
_atom_site_fract_y
_atom_site_fract_z
V1	V	2.097737	-0.067987	0.501771
O2	O	2.101066	0.002382	0.491175
O3	O	2.062167	-0.133956	0.499344
O4	O	2.115232	-0.067330	0.720153
O5	O	2.047634	-0.064706	0.268838
V6	V	2.335621	-0.059524	0.473789
O7	O	2.236871	-0.086551	0.563154
O8	O	2.421586	-0.040960	0.412406
O9	O	2.259588	0.006444	0.476215
O10	O	2.390990	-0.129894	0.484385
O11	O	2.444423	-0.062806	0.706722
O12	O	2.206523	-0.060182	0.255407
V13	V	2.597737	-0.067987	0.501771
O14	O	2.601066	0.002382	0.491175
O15	O	2.562167	-0.133956	0.499344
O16	O	2.615232	-0.067330	0.720153
O17	O	2.547634	-0.064706	0.268838
V18	V	2.835621	-0.059524	0.473789
O19	O	2.736871	-0.086551	0.563154
O20	O	2.921586	-0.040960	0.412406
O21	O	2.759588	0.006444	0.476215
O22	O	2.890990	-0.129894	0.484385
O23	O	2.944423	-0.062806	0.706722
O24	O	2.706523	-0.060182	0.255407
C25	C	1.980553	-0.150026	0.491688
C26	C	1.992392	-0.203959	0.491159
C27	C	2.158151	-0.540895	0.496107
C28	C	2.202725	-0.743601	0.494196
O29	O	2.286905	-0.771928	0.500866
N30	N	2.116115	-0.766461	0.485898
C31	C	2.018357	-0.738643	0.478089
O32	O	1.945717	-0.762739	0.471005
C33	C	1.973788	-0.535938	0.480012
C34	C	2.060400	-0.513080	0.488294
C35	C	2.244756	-0.518036	0.504390
C36	C	2.233610	-0.467362	0.504859
C37	C	2.135858	-0.439547	0.497045
C38	C	2.049253	-0.462406	0.488762
C39	C	1.876035	-0.508121	0.472215
C40	C	1.864902	-0.457443	0.472700
C41	C	1.951514	-0.434584	0.480982
C42	C	1.940355	-0.383917	0.481418
N43	N	2.026966	-0.361057	0.489715
C44	C	2.124717	-0.388872	0.497529
C45	C	2.041762	-0.845065	0.477077
C46	C	2.052903	-0.895741	0.476593
C47	C	2.237272	-0.900696	0.492703
C48	C	2.226126	-0.850019	0.493175
C49	C	2.128372	-0.822205	0.485374
C50	C	2.101301	-0.282453	0.498511
C51	C	2.090143	-0.231774	0.498973
C52	C	1.905779	-0.226824	0.482872
C53	C	1.916932	-0.277498	0.482402
C54	C	2.014703	-0.305312	0.490228
O55	O	1.856215	-0.355560	0.474770
O56	O	2.197355	-0.364768	0.504648
C57	C	2.169298	-0.591569	0.495638
C58	C	2.082693	-0.614428	0.487356
C59	C	1.984941	-0.586613	0.479542
C60	C	2.093834	-0.665103	0.486872
C61	C	2.191585	-0.692918	0.494686
C62	C	2.278196	-0.670058	0.502983
C63	C	2.267049	-0.619384	0.503452
C64	C	1.898331	-0.609473	0.471245
C65	C	1.909484	-0.660147	0.470775
C66	C	2.007236	-0.687962	0.478588
C67	C	2.048242	-0.065037	0.773349
C68	C	2.103112	-0.064936	0.951883
C69	C	2.172872	0.022512	0.483868
C70	C	2.150654	0.076444	0.484407
C71	C	2.105183	-0.062477	0.202203
C72	C	2.039931	-0.062575	0.023666
C73	C	2.480553	-0.150026	0.491688
C74	C	2.492392	-0.203959	0.491159
C75	C	2.548242	-0.065037	0.773349
C76	C	2.603112	-0.064936	0.951883
C77	C	2.672872	0.022512	0.483868
C78	C	2.650654	0.076444	0.484407
C79	C	2.605183	-0.062477	0.202203
C80	C	2.539931	-0.062575	0.023666
C81	C	2.590143	-0.231774	0.498973
C82	C	2.601289	-0.282451	0.498501
C83	C	2.514679	-0.305311	0.490204
C84	C	2.416921	-0.277493	0.482394
C85	C	2.405780	-0.226817	0.482878
C86	C	2.725397	0.104259	0.476597
C87	C	2.704524	0.154935	0.477077
C88	C	2.608913	0.177796	0.485378
C89	C	2.534163	0.149978	0.493183
C90	C	2.555031	0.099302	0.492692
H91	H	2.160676	-0.213165	0.505711
H92	H	2.180915	-0.305093	0.504886
H93	H	2.443863	-0.060636	0.948541
H94	H	2.699190	-0.066881	1.027020
H95	H	2.324361	-0.540679	0.510759
N96	N	2.327044	-0.442714	0.513842
H97	H	2.390660	-0.468031	0.518739
H98	H	2.358370	-0.426683	0.614504
H99	H	2.680894	-0.305094	0.504856
N100	N	2.431046	0.174635	0.502152
H101	H	2.380033	0.200435	0.402631
H102	H	2.457261	0.190634	0.602877
H103	H	2.199190	-0.066881	1.027020
H104	H	1.805500	-0.526723	0.465459
H105	H	2.316861	-0.923351	0.499048
H106	H	2.523765	-0.346575	0.489811
H107	H	2.326176	-0.204173	0.476507
N108	N	2.319545	-0.825366	0.502120
H109	H	2.383157	-0.850681	0.506996
H110	H	2.350885	-0.809333	0.602774
N111	N	2.474408	0.069307	0.501125
H112	H	2.472103	0.072164	0.604829
H113	H	2.502173	0.033749	0.499489
N114	N	1.959475	-0.920391	0.467627
H115	H	1.895864	-0.895077	0.462753
H116	H	1.992018	-0.946190	0.567172
H117	H	1.826187	-0.204167	0.476502
N118	N	2.323496	-0.302151	0.473401
H119	H	2.345392	-0.338472	0.474259
H120	H	2.249368	-0.287324	0.369854
H121	H	2.660674	-0.213167	0.505719
H122	H	2.803256	0.085653	0.469840
H123	H	1.962156	-0.822423	0.470721
H124	H	1.785301	-0.434799	0.466356
N125	N	1.912675	-0.060002	0.924176
H126	H	1.898972	-0.090178	0.870268
H127	H	1.875560	-0.029675	0.838234
N128	N	2.785164	0.184932	0.468685
H129	H	2.848906	0.162756	0.463378
H130	H	2.818766	0.201180	0.568643
N131	N	1.816054	-0.684795	0.461840
H132	H	1.848510	-0.710587	0.561383
H133	H	1.784649	-0.700802	0.361134
N134	N	1.823511	-0.302155	0.473442
H135	H	1.759892	-0.276842	0.468556
H136	H	1.856061	-0.327950	0.572998
N137	N	2.586413	0.232452	0.485925
H138	H	2.576277	0.250517	0.382795
H139	H	2.653418	0.240700	0.583049
N140	N	2.360476	-0.594734	0.512412
H141	H	2.370785	-0.599760	0.415765
H142	H	2.434590	-0.609536	0.616009
N143	N	2.383566	-0.700053	0.511207
H144	H	2.377453	-0.735621	0.509586
H145	H	2.453887	-0.697183	0.614847
N146	N	1.792899	-0.579477	0.462830
H147	H	1.739733	-0.601653	0.457507
H148	H	1.752309	-0.553464	0.362578
