data_functionalizedCrystal
_audit_creation_method	'MofGen! by Chris Wilmer'
_symmetry_space_group_name_H-M	'P1'
_symmetry_Int_Tables_number	1
_symmetry_cell_setting	triclinic
loop_
_symmetry_equiv_pos_as_xyz
  x,y,z
_cell_length_a	6.817900
_cell_length_b	13.167930
_cell_length_c	13.167973
_cell_angle_alpha	103.890684
_cell_angle_beta	105.756014
_cell_angle_gamma	105.754568
loop_
_atom_site_label
_atom_site_type_symbol
_atom_site_fract_x
_atom_site_fract_y
_atom_site_fract_z
V1	V	-4.096532	-0.184236	-0.353934
O2	O	-4.060598	-0.025971	-0.331743
O3	O	-4.068846	-0.331816	-0.366376
O4	O	-4.068855	-0.196682	-0.501516
O5	O	-4.060588	-0.162040	-0.195668
V6	V	-4.574791	-0.163500	-0.333199
O7	O	-4.369338	-0.229721	-0.399419
O8	O	-4.752182	-0.118014	-0.287714
O9	O	-4.379271	-0.015919	-0.320756
O10	O	-4.728122	-0.321765	-0.355390
O11	O	-4.728131	-0.185695	-0.491465
O12	O	-4.379261	-0.151054	-0.185617
C13	C	-3.918215	-0.367315	-0.364628
C14	C	-3.977003	-0.488063	-0.375785
C15	C	-3.974210	-0.664032	-0.194541
C16	C	-4.029444	-0.777484	-0.205018
C17	C	-4.142719	-0.828419	-0.407217
C18	C	-4.087485	-0.714968	-0.396739
C19	C	-4.003228	-0.632777	-0.290398
C20	C	-3.947979	-0.519324	-0.279921
C21	C	-4.061269	-0.570261	-0.482119
C22	C	-4.116503	-0.683712	-0.492596
C23	C	-3.918225	-0.194937	-0.537011
C24	C	-3.977017	-0.206090	-0.657757
C25	C	-3.974163	-0.024836	-0.833718
C26	C	-4.029400	-0.035310	-0.947169
C27	C	-4.142714	-0.237510	-0.998111
C28	C	-4.087477	-0.227036	-0.884660
C29	C	-4.003204	-0.120695	-0.802467
C30	C	-3.947981	-0.110223	-0.689014
C31	C	-4.061281	-0.312422	-0.739958
C32	C	-4.116519	-0.322895	-0.853409
C33	C	-4.193244	0.019575	-0.322502
C34	C	-4.113695	0.140320	-0.311352
C35	C	-4.193232	-0.152801	-0.150117
C36	C	-4.113679	-0.141643	-0.029368
H37	H	-4.211358	-0.895357	-0.493796
H38	H	-4.005812	-0.802925	-0.126961
H39	H	-3.905563	0.061750	-0.766794
C40	C	-4.314042	-0.584493	-0.656892
C41	C	-4.093178	-0.535915	-0.587501
H42	H	-4.333728	-0.563294	-0.721951
H43	H	-4.399199	-0.559312	-0.617466
H44	H	-4.358972	-0.663822	-0.678335
H45	H	-4.048251	-0.456585	-0.566051
H46	H	-4.007991	-0.561090	-0.626934
H47	H	-4.211319	-0.324086	-1.065051
H48	H	-3.879370	-0.023635	-0.622093
H49	H	-4.185131	-0.409474	-0.920346
C50	C	-3.993379	-0.367917	-0.156491
C51	C	-3.855372	-0.428972	-0.163036
H52	H	-3.936201	-0.312136	-0.084332
H53	H	-4.134764	-0.417123	-0.168607
H54	H	-4.002733	-0.333071	-0.212088
H55	H	-3.846030	-0.463826	-0.107445
H56	H	-3.713949	-0.379759	-0.150909
H57	H	-4.005755	0.042749	-0.972607
H58	H	-4.084927	-0.390478	-0.714504
H59	H	-4.185119	-0.750646	-0.579177
H60	H	-3.905576	-0.597110	-0.107952
