data_functionalizedCrystal
_audit_creation_method	'MofGen! by Chris Wilmer'
_symmetry_space_group_name_H-M	'P1'
_symmetry_Int_Tables_number	1
_symmetry_cell_setting	triclinic
loop_
_symmetry_equiv_pos_as_xyz
  x,y,z
_cell_length_a	14.971486
_cell_length_b	15.538191
_cell_length_c	13.448316
_cell_angle_alpha	89.995865
_cell_angle_beta	89.998199
_cell_angle_gamma	65.443111
loop_
_atom_site_label
_atom_site_type_symbol
_atom_site_fract_x
_atom_site_fract_y
_atom_site_fract_z
O1	O	1.146981	0.122716	-0.082571
O2	O	0.881795	0.137412	-0.082598
O3	O	1.066009	-0.007007	-0.082584
O4	O	0.962767	0.267135	-0.082585
O5	O	1.065994	-0.007016	0.082800
O6	O	0.881781	0.137403	0.082786
O7	O	1.146967	0.122707	0.082812
Cu8	Cu	1.014372	0.130054	0.097900
Cu9	Cu	1.014389	0.130065	-0.097685
O10	O	0.962753	0.267127	0.082799
C11	C	0.848677	0.136750	0.000091
C12	C	0.750021	0.134781	0.000080
C13	C	0.665165	0.219623	0.000082
C14	C	0.572470	0.217767	0.000096
C15	C	0.564634	0.131067	0.000103
C16	C	0.649500	0.046219	0.000105
C17	C	0.742193	0.048076	0.000097
C18	C	0.456296	0.042354	0.000119
C19	C	0.363597	0.040496	0.000124
C20	C	0.286573	0.212045	0.000118
C21	C	0.379266	0.213902	0.000110
C22	C	0.464126	0.129053	0.000110
C23	C	1.076803	-0.042095	0.000106
C24	C	1.108978	-0.146632	0.000099
C25	C	0.789329	-0.434783	0.000088
C26	C	0.819585	-0.533015	0.000094
C27	C	0.989766	-0.555266	0.000110
C28	C	0.959525	-0.457034	0.000100
C29	C	0.859305	-0.396800	0.000090
C30	C	1.029501	-0.419051	0.000102
C31	C	0.999261	-0.320828	0.000097
C32	C	0.899046	-0.260588	0.000090
C33	C	0.829066	-0.298577	0.000085
C34	C	1.129720	-0.479287	0.000119
C35	C	1.199696	-0.441304	0.000121
C36	C	1.169457	-0.343079	0.000109
C37	C	1.069242	-0.282839	0.000102
C38	C	1.239438	-0.305090	0.000113
C39	C	1.209198	-0.206867	0.000109
C40	C	1.039002	-0.184615	0.000097
C41	C	1.180085	0.123369	0.000122
C42	C	1.278740	0.125339	0.000126
C43	C	0.951958	0.302214	0.000107
C44	C	0.919784	0.406752	0.000107
N45	N	1.014367	0.130046	0.235464
N46	N	1.014404	0.130065	-0.235250
C47	C	1.095947	0.066124	0.287511
C48	C	1.095953	0.066123	0.391614
C49	C	1.014381	0.130050	0.443669
C50	C	0.932793	0.193976	0.391615
C51	C	0.932785	0.193971	0.287514
C52	C	0.932816	0.193982	0.608595
C53	C	0.932824	0.193988	0.712704
C54	C	1.095984	0.066134	0.712695
C55	C	1.095976	0.066130	0.608594
C56	C	1.014389	0.130057	0.556548
H57	H	0.874427	-0.180608	0.000092
H58	H	0.357223	-0.030102	0.000131
H59	H	0.866377	0.246035	0.566223
H60	H	0.866372	0.246023	0.434004
H61	H	0.866354	0.246022	0.245139
H62	H	1.162401	0.014080	0.566211
H63	H	1.071366	-0.604322	0.000122
C64	C	0.579711	0.389003	0.000087
C65	C	0.673772	0.314927	0.000077
H66	H	0.585024	0.447840	0.000092
H67	H	0.545158	0.384715	-0.057580
H68	H	0.545165	0.384698	0.057766
H69	H	0.708315	0.319229	-0.057607
H70	H	0.708339	0.319217	0.057749
H71	H	0.503380	0.286854	0.000096
H72	H	1.154338	-0.559266	0.000114
C73	C	0.523127	-0.127406	0.000104
C74	C	0.549576	-0.050913	0.000108
H75	H	0.580715	-0.184982	0.000086
H76	H	0.485384	-0.124572	0.057780
H77	H	0.485356	-0.124545	-0.057567
H78	H	0.587341	-0.053770	0.057783
H79	H	0.587336	-0.053748	-0.057574
H80	H	1.266180	-0.175941	0.000111
C81	C	0.707143	-0.138123	0.000064
C82	C	0.718901	-0.232356	0.000067
H83	H	0.639135	-0.097243	0.000047
H84	H	0.737140	-0.126606	0.057738
H85	H	0.737166	-0.126609	-0.057609
H86	H	0.688884	-0.243871	0.057744
H87	H	0.688891	-0.243878	-0.057613
C88	C	0.891122	-0.049347	-0.084926
C89	C	0.835475	-0.045183	0.000092
H90	H	0.948713	-0.106921	-0.084920
H91	H	0.853360	-0.046511	-0.142586
H92	H	0.909044	0.002560	-0.084919
H93	H	0.817546	-0.097087	0.000082
H94	H	0.873243	-0.048029	0.057768
H95	H	0.643113	-0.024374	0.000124
C96	C	0.683839	-0.544296	-0.084944
C97	C	0.742663	-0.574771	0.000081
H98	H	0.636358	-0.570082	-0.084952
H99	H	0.651488	-0.477185	-0.084939
H100	H	0.723778	-0.564967	-0.142606
H101	H	0.702725	-0.554094	0.057743
H102	H	0.775016	-0.641896	0.000084
H103	H	0.385640	0.284500	0.000095
C104	C	1.201440	-0.096799	0.744738
C105	C	1.185671	-0.004139	0.769894
H106	H	1.256813	-0.140176	0.780048
H107	H	1.145115	-0.107133	0.761817
H108	H	1.213102	-0.105932	0.675287
H109	H	1.174002	0.004997	0.839345
H110	H	1.242009	0.006199	0.752822
C111	C	0.137644	0.309483	-0.084891
C112	C	0.193298	0.305315	0.000120
H113	H	0.080057	0.367060	-0.084889
H114	H	0.175403	0.306641	-0.142556
H115	H	0.119715	0.257580	-0.084869
H116	H	0.211234	0.357214	0.000094
H117	H	0.155532	0.308166	0.057800
H118	H	1.281296	-0.490360	0.000132
H119	H	0.957393	-0.135569	0.000082
H120	H	0.707720	-0.385736	0.000073
H121	H	1.321037	-0.354147	0.000131
C122	C	1.257218	-0.060260	0.297970
C123	C	1.185615	-0.004150	0.230297
H124	H	1.312572	-0.103650	0.262648
H125	H	1.276647	-0.021004	0.338560
H126	H	1.230998	-0.094191	0.338586
H127	H	1.211833	0.029787	0.189686
H128	H	1.166186	-0.043410	0.189690
H129	H	1.162381	0.014072	0.433990
H130	H	0.866399	0.246043	0.755082
