data_functionalizedCrystal
_audit_creation_method	'MofGen! by Chris Wilmer'
_symmetry_space_group_name_H-M	'P1'
_symmetry_Int_Tables_number	1
_symmetry_cell_setting	triclinic
loop_
_symmetry_equiv_pos_as_xyz
  x,y,z
_cell_length_a	16.109301
_cell_length_b	16.109301
_cell_length_c	8.140239
_cell_angle_alpha	89.995060
_cell_angle_beta	89.999998
_cell_angle_gamma	83.461481
loop_
_atom_site_label
_atom_site_type_symbol
_atom_site_fract_x
_atom_site_fract_y
_atom_site_fract_z
O1	O	1.103130	0.106866	-0.136515
O2	O	1.353130	0.356866	0.113485
O3	O	1.603130	0.606866	0.363485
O4	O	1.853130	0.856866	0.613485
O5	O	0.861068	0.120165	-0.136542
O6	O	1.111068	0.370165	0.113458
O7	O	1.361068	0.620165	0.363458
O8	O	1.611068	0.870165	0.613458
O9	O	0.988749	-0.007515	-0.136511
O10	O	1.238749	0.242485	0.113489
O11	O	1.488749	0.492485	0.363489
O12	O	1.738749	0.742485	0.613489
O13	O	0.975449	0.234547	-0.136546
O14	O	1.225449	0.484547	0.113454
O15	O	1.475449	0.734547	0.363454
O16	O	1.725449	0.984547	0.613454
O17	O	0.988742	-0.007517	0.136716
O18	O	1.238742	0.242483	0.386716
O19	O	1.488742	0.492483	0.636716
O20	O	1.738742	0.742483	0.886716
O21	O	0.861061	0.120164	0.136686
O22	O	1.111061	0.370164	0.386686
O23	O	1.361061	0.620164	0.636686
O24	O	1.611061	0.870164	0.886686
O25	O	1.103123	0.106864	0.136712
O26	O	1.353123	0.356864	0.386712
O27	O	1.603123	0.606864	0.636712
O28	O	1.853123	0.856864	0.886712
Zn29	Zn	0.982091	0.113514	0.180080
Zn30	Zn	1.232091	0.363514	0.430080
Zn31	Zn	1.482091	0.613514	0.680080
Zn32	Zn	1.732091	0.863514	0.930080
Zn33	Zn	0.982100	0.113516	-0.179909
Zn34	Zn	1.232100	0.363516	0.070091
Zn35	Zn	1.482100	0.613516	0.320091
Zn36	Zn	1.732100	0.863516	0.570091
O37	O	0.975442	0.234545	0.136681
O38	O	1.225442	0.484545	0.386681
O39	O	1.475442	0.734545	0.636681
O40	O	1.725442	0.984545	0.886681
C41	C	0.830090	0.119626	0.000069
C42	C	1.080090	0.369626	0.250069
C43	C	1.330090	0.619626	0.500069
C44	C	1.580090	0.869626	0.750069
C45	C	0.737794	0.118011	0.000059
C46	C	0.987794	0.368011	0.250059
C47	C	1.237794	0.618011	0.500059
C48	C	1.487794	0.868011	0.750059
C49	C	0.515522	0.190018	0.000068
C50	C	0.765522	0.440018	0.250068
C51	C	1.015522	0.690018	0.500068
C52	C	1.265522	0.940018	0.750068
C53	C	0.428801	0.188494	0.000078
C54	C	0.678801	0.438494	0.250078
C55	C	0.928801	0.688494	0.500078
C56	C	1.178801	0.938494	0.750078
C57	C	0.448676	0.037006	0.000094
C58	C	0.698676	0.287006	0.250094
C59	C	0.948676	0.537006	0.500094
C60	C	1.198676	0.787006	0.750094
C61	C	0.535394	0.038530	0.000094
C62	C	0.785394	0.288530	0.250094
C63	C	1.035394	0.538530	0.500094
C64	C	1.285394	0.788530	0.750094
C65	C	0.568815	0.115039	0.000073
C66	C	0.818815	0.365039	0.250073
C67	C	1.068815	0.615039	0.500073
C68	C	1.318815	0.865039	0.750073
C69	C	0.395376	0.111990	0.000083
C70	C	0.645376	0.361990	0.250083
C71	C	0.895376	0.611990	0.500083
C72	C	1.145376	0.861990	0.750083
C73	C	0.301350	0.110337	0.000095
C74	C	0.551350	0.360337	0.250095
C75	C	0.801350	0.610337	0.500095
C76	C	1.051350	0.860337	0.750095
C77	C	0.662847	0.116693	0.000065
C78	C	0.912847	0.366693	0.250065
C79	C	1.162847	0.616693	0.500065
C80	C	1.412847	0.866693	0.750065
C81	C	0.988206	-0.038491	0.000104
C82	C	1.238206	0.211509	0.250104
C83	C	1.488206	0.461509	0.500104
C84	C	1.738206	0.711509	0.750104
C85	C	0.986591	-0.130786	0.000106
C86	C	1.236591	0.119214	0.250106
C87	C	1.486591	0.369214	0.500106
C88	C	1.736591	0.619214	0.750106
C89	C	1.058599	-0.353059	0.000088
C90	C	1.308599	-0.103059	0.250088
C91	C	1.558599	0.146941	0.500088
C92	C	1.808599	0.396941	0.750088
C93	C	1.057075	-0.439779	0.000074
C94	C	1.307075	-0.189779	0.250074
C95	C	1.557075	0.060221	0.500074
C96	C	1.807075	0.310221	0.750074
C97	C	0.905586	-0.419905	0.000064
C98	C	1.155586	-0.169905	0.250064
C99	C	1.405586	0.080095	0.500064
C100	C	1.655586	0.330095	0.750064
C101	C	0.907111	-0.333186	0.000066
C102	C	1.157111	-0.083186	0.250066
C103	C	1.407111	0.166814	0.500066
C104	C	1.657111	0.416814	0.750066
C105	C	0.983620	-0.299766	0.000086
C106	C	1.233620	-0.049766	0.250086
C107	C	1.483620	0.200234	0.500086
C108	C	1.733620	0.450234	0.750086
C109	C	0.980571	-0.473205	0.000070
C110	C	1.230571	-0.223205	0.250070
C111	C	1.480571	0.026795	0.500070
C112	C	1.730571	0.276795	0.750070
C113	C	0.978918	-0.567231	0.000056
C114	C	1.228918	-0.317231	0.250056
C115	C	1.478918	-0.067231	0.500056
C116	C	1.728918	0.182769	0.750056
C117	C	0.985273	-0.205734	0.000098
C118	C	1.235273	0.044266	0.250098
C119	C	1.485273	0.294266	0.500098
C120	C	1.735273	0.544266	0.750098
C121	C	1.134101	0.107404	0.000098
C122	C	1.384101	0.357404	0.250098
C123	C	1.634101	0.607404	0.500098
C124	C	1.884101	0.857404	0.750098
C125	C	1.226397	0.109019	0.000097
C126	C	1.476397	0.359019	0.250097
C127	C	1.726397	0.609019	0.500097
C128	C	1.976397	0.859019	0.750097
C129	C	0.975984	0.265521	0.000064
C130	C	1.225984	0.515521	0.250064
C131	C	1.475984	0.765521	0.500064
C132	C	1.725984	1.015521	0.750064
C133	C	0.977600	0.357816	0.000051
C134	C	1.227600	0.607816	0.250051
C135	C	1.477600	0.857816	0.500051
C136	C	1.727600	1.107816	0.750051
N137	N	0.982090	0.113512	0.425762
N138	N	1.232090	0.363512	0.675762
N139	N	1.482090	0.613512	0.925762
N140	N	1.732090	0.863512	1.175762
N141	N	0.982107	0.113511	-0.425591
N142	N	1.232107	0.363511	-0.175591
N143	N	1.482107	0.613511	0.074409
N144	N	1.732107	0.863511	0.324409
H145	H	0.385413	0.249550	0.000077
H146	H	0.635413	0.499550	0.250077
H147	H	0.885413	0.749550	0.500077
H148	H	1.135413	0.999550	0.750077
Cl149	Cl	1.154781	-0.311047	0.000109
Cl150	Cl	1.404781	-0.061047	0.250109
Cl151	Cl	1.654781	0.188953	0.500109
Cl152	Cl	1.904781	0.438953	0.750109
Cl153	Cl	0.557533	0.286200	0.000051
Cl154	Cl	0.807533	0.536200	0.250051
Cl155	Cl	1.057533	0.786200	0.500051
Cl156	Cl	1.307533	1.036200	0.750051
Cl157	Cl	0.406655	-0.059172	0.000109
Cl158	Cl	0.656655	0.190828	0.250109
Cl159	Cl	0.906655	0.440828	0.500109
Cl160	Cl	1.156655	0.690828	0.750109
Cl161	Cl	0.812844	-0.266184	0.000049
Cl162	Cl	1.062844	-0.016184	0.250049
Cl163	Cl	1.312844	0.233816	0.500049
Cl164	Cl	1.562844	0.483816	0.750049
Cl165	Cl	0.602397	-0.055737	0.000115
Cl166	Cl	0.852397	0.194263	0.250115
Cl167	Cl	1.102397	0.444263	0.500115
Cl168	Cl	1.352397	0.694263	0.750115
Cl169	Cl	0.809409	-0.461926	0.000039
Cl170	Cl	1.059409	-0.211926	0.250039
Cl171	Cl	1.309409	0.038074	0.500039
Cl172	Cl	1.559409	0.288074	0.750039
Cl173	Cl	1.151339	-0.506773	0.000073
Cl174	Cl	1.401339	-0.256773	0.250073
Cl175	Cl	1.651339	-0.006773	0.500073
Cl176	Cl	1.901339	0.243227	0.750073
