data_functionalizedCrystal
_audit_creation_method	'MofGen! by Chris Wilmer'
_symmetry_space_group_name_H-M	'P1'
_symmetry_Int_Tables_number	1
_symmetry_cell_setting	triclinic
loop_
_symmetry_equiv_pos_as_xyz
  x,y,z
_cell_length_a	10.654550
_cell_length_b	15.944551
_cell_length_c	9.130313
_cell_angle_alpha	89.997799
_cell_angle_beta	89.996220
_cell_angle_gamma	83.991820
loop_
_atom_site_label
_atom_site_type_symbol
_atom_site_fract_x
_atom_site_fract_y
_atom_site_fract_z
O1	O	1.666308	0.117973	-0.121923
O2	O	1.300684	0.129213	-0.121900
O3	O	1.493480	0.001376	-0.121899
O4	O	1.473511	0.245810	-0.121924
O5	O	1.493478	0.001379	0.121700
O6	O	1.300681	0.129216	0.121699
O7	O	1.666305	0.117976	0.121676
Cu8	Cu	1.483493	0.123596	0.143930
Cu9	Cu	1.483496	0.123592	-0.144154
O10	O	1.473509	0.245813	0.121675
C11	C	1.253895	0.128389	-0.000098
C12	C	1.114484	0.125920	-0.000088
C13	C	1.034024	0.201188	-0.000117
C14	C	0.903034	0.198863	-0.000142
C15	C	0.932975	0.045995	-0.000116
C16	C	1.063963	0.048321	-0.000080
C17	C	1.016737	0.289446	-0.000139
C18	C	0.885746	0.287121	-0.000164
C19	C	1.492650	-0.029921	-0.000099
C20	C	1.490165	-0.123182	-0.000098
C21	C	1.364720	-0.338765	-0.000111
C22	C	1.422971	-0.399443	0.119995
C23	C	1.485668	-0.293934	-0.000109
C24	C	1.423002	-0.399430	-0.120175
C25	C	1.481317	-0.458872	-0.000126
C26	C	1.543953	-0.353384	0.120095
C27	C	1.543967	-0.353364	-0.120182
C28	C	1.602306	-0.414024	-0.000048
C29	C	1.488172	-0.198917	-0.000098
C30	C	1.478822	-0.553887	-0.000127
C31	C	1.713094	0.118800	-0.000130
C32	C	1.852505	0.121269	-0.000149
C33	C	1.474339	0.277110	-0.000128
C34	C	1.476824	0.370371	-0.000139
N35	N	1.483500	0.123599	0.346552
N36	N	1.483499	0.123583	-0.346777
C37	C	1.568892	0.067012	0.423205
C38	C	1.568889	0.067002	0.576542
C39	C	1.398098	0.180173	0.576560
C40	C	1.398096	0.180178	0.423226
C41	C	1.667501	0.001676	0.423195
C42	C	1.667498	0.001666	0.576532
H43	H	1.052030	0.317547	-0.105314
O44	O	1.314970	0.235048	0.650980
C45	C	1.096615	0.282931	0.697844
C46	C	1.190619	0.220723	0.613502
H47	H	0.996057	0.271383	0.667551
H48	H	1.111171	0.273205	0.820621
H49	H	1.113038	0.350307	0.667723
H50	H	1.174254	0.153323	0.643501
H51	H	1.176041	0.230523	0.490746
H52	H	0.891824	-0.017184	-0.000131
O53	O	1.050998	0.330612	0.121587
C54	C	0.981800	0.403382	0.343246
C55	C	0.942828	0.356765	0.205474
H56	H	0.894364	0.424555	0.411091
H57	H	1.049835	0.359287	0.411345
H58	H	1.030056	0.460871	0.309235
H59	H	0.894520	0.299277	0.239355
H60	H	0.874850	0.400917	0.137409
H61	H	1.702787	-0.446602	0.000014
O62	O	1.632234	-0.071121	0.633471
C63	C	1.690839	-0.192827	0.784629
C64	C	1.730920	-0.110412	0.720255
H65	H	1.770615	-0.224626	0.854782
H66	H	1.602921	-0.178052	0.855016
H67	H	1.669330	-0.236846	0.691644
H68	H	1.752495	-0.066354	0.813146
H69	H	1.818798	-0.125250	0.649829
O70	O	1.604762	-0.329014	-0.241476
C71	C	1.609783	-0.324648	-0.505204
C72	C	1.540807	-0.352257	-0.367947
H73	H	1.558119	-0.343445	-0.607491
H74	H	1.611847	-0.253312	-0.503554
H75	H	1.710517	-0.356803	-0.506174
H76	H	1.440045	-0.320162	-0.366889
H77	H	1.538846	-0.423601	-0.369652
H78	H	1.129470	-0.012970	-0.000035
H79	H	1.328553	0.226248	0.360817
O80	O	0.835347	0.326904	-0.121643
C81	C	0.691310	0.440339	-0.217195
C82	C	0.748311	0.395380	-0.079509
H83	H	0.620910	0.495700	-0.183179
H84	H	0.769792	0.464464	-0.285177
H85	H	0.640965	0.394089	-0.285174
H86	H	0.798644	0.441580	-0.011417
H87	H	0.669776	0.371239	-0.011636
O88	O	1.362068	-0.423702	0.241288
C89	C	1.355694	-0.426739	0.505035
C90	C	1.424778	-0.399204	0.367803
H91	H	1.406381	-0.406959	0.607357
H92	H	1.254426	-0.395504	0.505013
H93	H	1.355176	-0.498200	0.504321
H94	H	1.425392	-0.327753	0.368427
H95	H	1.526009	-0.430500	0.367878
H96	H	0.839729	0.313795	0.105001
H97	H	1.763823	0.016057	0.618141
O98	O	1.244935	-0.299754	0.000290
C99	C	1.045870	-0.278894	0.127334
C100	C	1.181497	-0.323112	0.127072
H101	H	0.994533	-0.297776	0.229811
H102	H	1.048802	-0.207627	0.126381
H103	H	0.993840	-0.298589	0.025932
H104	H	1.233606	-0.303486	0.228458
H105	H	1.178474	-0.394370	0.127949
O106	O	1.605048	-0.329098	0.241216
C107	C	1.779653	-0.261043	0.335774
C108	C	1.710576	-0.288485	0.198485
H109	H	1.865001	-0.228218	0.301276
H110	H	1.712829	-0.215735	0.403165
H111	H	1.812314	-0.318923	0.404533
H112	H	1.677910	-0.230656	0.129614
H113	H	1.777445	-0.333821	0.131204
H114	H	1.371831	-0.419804	-0.221721
H115	H	1.646893	-0.062886	0.381583
O116	O	1.776065	0.026059	0.366677
C117	C	1.979997	0.071994	0.417549
C118	C	1.857127	0.044373	0.481752
H119	H	2.045558	0.086826	0.510555
H120	H	2.028375	0.018998	0.347319
H121	H	1.956975	0.130669	0.347223
H122	H	1.880040	-0.014283	0.552143
H123	H	1.808783	0.097419	0.551898
