data_functionalizedCrystal
_audit_creation_method	'MofGen! by Chris Wilmer'
_symmetry_space_group_name_H-M	'P1'
_symmetry_Int_Tables_number	1
_symmetry_cell_setting	triclinic
loop_
_symmetry_equiv_pos_as_xyz
  x,y,z
_cell_length_a	16.974800
_cell_length_b	27.731996
_cell_length_c	16.053802
_cell_angle_alpha	92.537600
_cell_angle_beta	91.074188
_cell_angle_gamma	83.006863
loop_
_atom_site_label
_atom_site_type_symbol
_atom_site_fract_x
_atom_site_fract_y
_atom_site_fract_z
O1	O	1.048309	0.061616	0.001418
O2	O	0.818755	0.069015	-0.014101
O3	O	0.940682	-0.005041	-0.005840
O4	O	0.926382	0.135671	-0.006843
O5	O	0.933971	-0.000981	0.132564
O6	O	0.812044	0.073074	0.124303
O7	O	1.041598	0.065675	0.139823
Zn8	Zn	0.925755	0.070019	0.154038
Zn9	Zn	0.934597	0.064671	-0.028316
O10	O	0.919671	0.139731	0.131561
C11	C	0.786041	0.070689	0.053117
C12	C	0.698561	0.069623	0.047203
C13	C	0.653810	0.071334	0.119871
C14	C	0.571615	0.070325	0.114317
C15	C	0.534173	0.067608	0.036095
C16	C	0.578931	0.065896	-0.036579
C17	C	0.661124	0.066902	-0.031024
C18	C	0.288743	0.064360	0.011392
C19	C	0.206543	0.063356	0.005843
C20	C	0.199233	0.067784	0.156740
C21	C	0.281428	0.068792	0.162287
C22	C	0.326179	0.067077	0.089614
N23	N	0.450157	0.066578	0.030416
N24	N	0.410195	0.068104	0.095294
C25	C	0.937032	-0.021020	0.063345
C26	C	0.936147	-0.074681	0.063294
C27	C	0.934240	-0.409644	-0.012567
C28	C	0.930880	-0.611323	-0.012809
O29	O	0.933523	-0.639278	-0.077004
N30	N	0.926805	-0.634329	0.062606
C31	C	0.923564	-0.606913	0.138087
O32	O	0.920012	-0.631109	0.202226
C33	C	0.926917	-0.405235	0.138327
C34	C	0.931001	-0.382232	0.062908
C35	C	0.938322	-0.386640	-0.087981
C36	C	0.939166	-0.336224	-0.087919
C37	C	0.935928	-0.308812	-0.012444
C38	C	0.931845	-0.331815	0.062969
C39	C	0.923671	-0.377819	0.213807
C40	C	0.924508	-0.327397	0.213860
C41	C	0.928591	-0.304393	0.138440
C42	C	0.929451	-0.253987	0.138506
N43	N	0.933527	-0.230980	0.063090
C44	C	0.936765	-0.258392	-0.012385
C45	C	0.921804	-0.712797	0.137955
C46	C	0.920967	-0.763216	0.137895
C47	C	0.928282	-0.767622	-0.013001
C48	C	0.929125	-0.717203	-0.012940
C49	C	0.925880	-0.689790	0.062540
C50	C	0.938538	-0.152514	-0.012250
C51	C	0.939385	-0.102094	-0.012181
C52	C	0.932066	-0.097692	0.138714
C53	C	0.931223	-0.148108	0.138647
C54	C	0.934457	-0.175518	0.063158
O55	O	0.926802	-0.226001	0.202666
O56	O	0.940299	-0.234186	-0.076515
C57	C	0.933395	-0.460060	-0.012629
C58	C	0.929313	-0.483064	0.062785
C59	C	0.926075	-0.455652	0.138260
C60	C	0.928476	-0.533483	0.062725
C61	C	0.931714	-0.560896	-0.012750
C62	C	0.935790	-0.537889	-0.088165
C63	C	0.936634	-0.487473	-0.088104
C64	C	0.921999	-0.478658	0.213675
C65	C	0.921156	-0.529075	0.213607
C66	C	0.924395	-0.556488	0.138132
C67	C	1.074312	0.064001	0.072603
C68	C	1.161791	0.065067	0.078511
C69	C	0.923320	0.155710	0.062374
C70	C	0.924206	0.209371	0.062420
N71	N	0.919726	0.073669	0.278489
N72	N	0.940632	0.061017	-0.152767
C73	C	0.971625	0.042170	0.325700
C74	C	0.967415	0.044727	0.412821
C75	C	0.911310	0.078787	0.452731
C76	C	0.859406	0.110288	0.405514
C77	C	0.863612	0.107728	0.318394
C78	C	0.892935	0.089958	0.712896
C79	C	0.888733	0.092517	0.800022
C80	C	0.996743	0.026955	0.807323
C81	C	1.000947	0.024399	0.720201
C82	C	0.949040	0.055899	0.672992
N83	N	0.907007	0.081404	0.541783
N84	N	0.953340	0.053280	0.583941
H85	H	0.325170	0.062962	-0.047784
H86	H	0.176060	0.061145	-0.057858
H87	H	0.927905	-0.166839	0.200060
C88	C	0.916662	-0.554373	0.296581
N89	N	0.913268	-0.573424	0.359074
H90	H	0.548439	0.063681	-0.100269
C91	C	0.835936	0.124671	0.660983
N92	N	0.793039	0.150841	0.621883
C93	C	0.943650	-0.310927	-0.170888
N94	N	0.947023	-0.291875	-0.233385
C95	C	1.033346	0.004700	0.281807
N96	N	1.079833	-0.023524	0.248750
H97	H	1.009675	0.019078	0.451260
H98	H	1.046633	-0.003335	0.687709
C99	C	0.710351	0.065020	-0.110965
N100	N	0.747427	0.063602	-0.171179
H101	H	1.039002	0.001309	0.845769
C102	C	0.827008	0.129986	0.843921
N103	N	0.780519	0.158206	0.876985
C104	C	0.943875	-0.076793	-0.095152
N105	N	0.947255	-0.057738	-0.157645
H106	H	0.939959	-0.468748	-0.149518
H107	H	0.919363	-0.456344	0.275137
C108	C	0.942109	-0.182659	-0.095290
N109	N	0.944807	-0.205365	-0.157836
C110	C	0.797682	0.147750	0.449418
N111	N	0.751190	0.175967	0.482485
C112	C	0.941919	-0.416789	-0.171015
N113	N	0.944646	-0.439496	-0.233560
H114	H	0.535184	0.071710	0.173492
C115	C	0.322609	0.071778	0.248338
N116	N	0.353626	0.074028	0.313153
C117	C	0.933610	-0.691903	-0.095907
N118	N	0.936986	-0.672850	-0.158402
C119	C	0.931838	-0.797785	-0.096025
N120	N	0.934509	-0.820505	-0.158555
C121	C	0.806526	0.142384	0.266463
N122	N	0.763527	0.168488	0.227350
H123	H	0.919165	-0.690482	0.199424
C124	C	0.916483	-0.788515	0.220863
N125	N	0.913099	-0.807567	0.283358
H126	H	0.684288	0.073550	0.183568
C127	C	0.919168	-0.403111	0.296775
N128	N	0.915772	-0.422159	0.359272
H129	H	0.162788	0.069180	0.215906
H130	H	0.921853	-0.305079	0.275326
H131	H	0.929433	-0.075364	0.200164
H132	H	0.938430	-0.560218	-0.149620
