data_functionalizedCrystal
_audit_creation_method	'MofGen! by Chris Wilmer'
_symmetry_space_group_name_H-M	'P1'
_symmetry_Int_Tables_number	1
_symmetry_cell_setting	triclinic
loop_
_symmetry_equiv_pos_as_xyz
  x,y,z
_cell_length_a	19.805407
_cell_length_b	19.805405
_cell_length_c	19.805399
_cell_angle_alpha	89.969291
_cell_angle_beta	89.984884
_cell_angle_gamma	90.023727
loop_
_atom_site_label
_atom_site_type_symbol
_atom_site_fract_x
_atom_site_fract_y
_atom_site_fract_z
Zn1	Zn	1.034718	-0.269518	-0.382680
Zn2	Zn	1.034638	-0.382709	-0.269488
Zn3	Zn	0.921538	-0.269534	-0.269508
Zn4	Zn	0.921496	-0.382665	-0.382638
O5	O	0.978097	-0.326107	-0.326078
O6	O	1.129424	-0.284545	-0.367674
O7	O	1.019619	-0.367721	-0.174774
O8	O	0.936602	-0.174815	-0.284546
O9	O	1.129365	-0.367706	-0.284512
O10	O	1.019755	-0.174804	-0.367693
O11	O	0.936525	-0.284572	-0.174788
O12	O	0.826816	-0.284529	-0.284506
O13	O	0.936531	-0.367631	-0.477360
O14	O	0.826785	-0.367646	-0.367622
O15	O	1.019715	-0.284502	-0.477391
O16	O	1.019578	-0.477420	-0.284472
O17	O	0.936453	-0.477387	-0.367603
C18	C	0.802241	-0.326085	-0.326062
C19	C	0.727009	-0.326093	-0.326071
C20	C	0.691696	-0.282867	-0.369439
C21	C	0.621008	-0.282871	-0.369442
C22	C	0.585634	-0.326104	-0.326079
C23	C	0.620952	-0.369331	-0.282706
C24	C	0.691639	-0.369323	-0.282701
C25	C	0.335878	-0.369361	-0.282727
C26	C	0.265186	-0.369367	-0.282737
C27	C	0.265247	-0.282909	-0.369468
C28	C	0.335935	-0.282901	-0.369462
C29	C	0.371246	-0.326126	-0.326087
C30	C	0.447895	-0.326120	-0.326084
C31	C	0.508987	-0.326113	-0.326085
C32	C	0.978021	-0.501963	-0.326046
C33	C	0.978050	-0.577195	-0.326054
C34	C	1.021376	-0.612533	-0.282813
C35	C	1.021404	-0.683222	-0.282828
C36	C	0.978104	-0.718570	-0.326081
C37	C	0.934777	-0.683227	-0.369327
C38	C	0.934752	-0.612540	-0.369315
C39	C	0.934877	-0.968300	-0.369377
C40	C	0.934903	-1.038992	-0.369384
C41	C	1.021529	-1.038982	-0.282890
C42	C	1.021504	-0.968295	-0.282878
C43	C	0.978180	-0.932957	-0.326126
C44	C	0.978150	-0.856309	-0.326110
C45	C	0.978130	-0.795217	-0.326094
C46	C	1.154640	-0.326128	-0.326095
C47	C	1.229872	-0.326138	-0.326102
C48	C	0.978127	-0.326060	-0.502621
C49	C	0.978140	-0.326040	-0.577853
C50	C	0.978192	-0.149564	-0.326126
C51	C	0.978233	-0.074332	-0.326146
C52	C	0.934885	-0.282740	-0.613204
C53	C	0.934894	-0.282727	-0.683893
C54	C	0.978162	-0.326010	-0.719229
C55	C	1.021419	-0.369315	-0.683873
C56	C	1.021406	-0.369331	-0.613185
C57	C	1.021473	-0.369252	-0.968946
C58	C	1.021484	-0.369231	-1.039638
C59	C	0.934961	-0.282647	-1.039653
C60	C	0.934948	-0.282663	-0.968966
C61	C	0.978202	-0.325970	-0.933616
C62	C	0.978190	-0.325985	-0.856968
C63	C	0.978178	-0.325993	-0.795876
C64	C	0.978107	-0.326104	-0.150222
C65	C	0.978225	-0.325934	-0.074991
H66	H	0.236386	-0.404574	-0.247424
H67	H	0.899717	-0.247415	-0.940199
N68	N	0.227161	-0.236284	-0.416251
H69	H	0.177014	-0.242844	-0.409676
H70	H	0.239531	-0.187929	-0.405806
N71	N	1.068208	-0.930169	-0.236229
H72	H	1.095662	-0.963282	-0.208840
H73	H	1.099500	-0.900799	-0.263810
H74	H	0.364621	-0.404558	-0.247409
H75	H	0.720390	-0.404522	-0.247386
H76	H	1.056633	-0.583757	-0.247589
H77	H	1.056685	-0.404522	-0.940173
N78	N	0.888015	-0.574423	-0.415947
H79	H	0.894570	-0.524280	-0.409377
H80	H	0.898521	-0.586737	-0.464299
H81	H	0.899644	-1.067771	-0.404611
N82	N	0.888294	-0.235948	-1.077781
H83	H	0.894860	-0.242508	-1.127923
H84	H	0.839950	-0.246488	-1.065409
H85	H	1.056720	-0.404480	-1.068407
N86	N	1.068092	-0.416000	-0.721976
H87	H	1.057550	-0.464362	-0.709659
H88	H	1.061521	-0.409364	-0.772110
N89	N	0.374088	-0.236276	-0.416235
H90	H	0.340991	-0.208891	-0.443709
H91	H	0.403417	-0.204915	-0.388737
H92	H	1.056633	-0.404585	-0.584403
H93	H	0.899524	-0.712013	-0.404547
H94	H	0.720493	-0.247664	-0.404752
H95	H	1.056808	-1.067762	-0.247678
N96	N	0.888145	-0.930191	-0.416015
H97	H	0.860716	-0.963312	-0.443412
H98	H	0.856831	-0.900907	-0.388427
N99	N	0.888239	-0.236027	-0.722022
H100	H	0.860829	-0.208607	-0.688911
H101	H	0.915812	-0.204703	-0.751365
H102	H	1.056684	-0.711991	-0.247617
N103	N	0.582802	-0.415955	-0.235929
H104	H	0.532663	-0.409402	-0.242512
H105	H	0.595146	-0.464308	-0.246370
H106	H	0.899655	-0.247489	-0.584439
N107	N	0.582919	-0.236236	-0.416204
H108	H	0.616055	-0.208847	-0.443671
H109	H	0.553584	-0.263819	-0.447481
