data_functionalizedCrystal
_audit_creation_method	'MofGen! by Chris Wilmer'
_symmetry_space_group_name_H-M	'P1'
_symmetry_Int_Tables_number	1
_symmetry_cell_setting	triclinic
loop_
_symmetry_equiv_pos_as_xyz
  x,y,z
_cell_length_a	16.109301
_cell_length_b	19.188924
_cell_length_c	14.586319
_cell_angle_alpha	89.994146
_cell_angle_beta	89.998857
_cell_angle_gamma	83.301774
loop_
_atom_site_label
_atom_site_type_symbol
_atom_site_fract_x
_atom_site_fract_y
_atom_site_fract_z
O1	O	1.102831	0.089745	-0.076194
O2	O	1.602831	0.589745	0.423806
O3	O	0.860731	0.100913	-0.076208
O4	O	1.360731	0.600913	0.423792
O5	O	0.988770	-0.006310	-0.076190
O6	O	1.488770	0.493690	0.423810
O7	O	0.974792	0.196969	-0.076212
O8	O	1.474792	0.696969	0.423788
O9	O	0.988762	-0.006312	0.076291
O10	O	1.488762	0.493688	0.576291
O11	O	0.860722	0.100912	0.076273
O12	O	1.360722	0.600912	0.576273
O13	O	1.102822	0.089743	0.076287
O14	O	1.602822	0.589743	0.576287
Cu15	Cu	0.981771	0.095328	0.090203
Cu16	Cu	1.481771	0.595328	0.590203
Cu17	Cu	0.981782	0.095329	-0.090124
Cu18	Cu	1.481782	0.595329	0.409876
O19	O	0.974783	0.196967	0.076269
O20	O	1.474783	0.696967	0.576269
C21	C	0.829754	0.100460	0.000031
C22	C	1.329754	0.600460	0.500031
C23	C	0.737463	0.099104	0.000026
C24	C	1.237463	0.599104	0.500026
C25	C	0.428267	0.158294	0.000036
C26	C	0.928267	0.658294	0.500036
C27	C	0.514983	0.159575	0.000030
C28	C	1.014983	0.659575	0.500030
C29	C	0.535281	0.032358	0.000032
C30	C	1.035281	0.532358	0.500032
C31	C	0.448567	0.031077	0.000031
C32	C	0.948567	0.531077	0.500031
C33	C	0.395061	0.094048	0.000038
C34	C	0.895061	0.594048	0.500038
C35	C	0.568492	0.096609	0.000033
C36	C	1.068492	0.596609	0.500033
C37	C	0.662513	0.097997	0.000027
C38	C	1.162513	0.597997	0.500027
C39	C	0.301034	0.092660	0.000042
C40	C	0.801034	0.592660	0.500042
C41	C	0.988314	-0.032323	0.000051
C42	C	1.488314	0.467677	0.500051
C43	C	0.986958	-0.109831	0.000054
C44	C	1.486958	0.390169	0.500054
C45	C	0.986330	-0.146231	-0.083064
C46	C	1.486330	0.353769	0.416936
C47	C	0.985044	-0.219057	-0.083071
C48	C	1.485044	0.280943	0.416929
C49	C	0.984403	-0.255482	0.000045
C50	C	1.484403	0.244518	0.500045
C51	C	0.985027	-0.219073	0.083173
C52	C	1.485027	0.280927	0.583173
C53	C	0.986304	-0.146248	0.083178
C54	C	1.486304	0.353752	0.583178
N55	N	1.029706	-0.375040	0.061908
N56	N	1.529706	0.124960	0.561908
N57	N	1.028494	-0.444221	0.061898
N58	N	1.528494	0.055779	0.561898
C59	C	0.980552	-0.474900	0.000035
C60	C	1.480552	0.025100	0.500035
N61	N	0.933878	-0.433786	-0.061830
N62	N	1.433878	0.066214	0.438170
N63	N	0.935094	-0.364598	-0.061823
N64	N	1.435094	0.135402	0.438177
C65	C	0.983017	-0.334448	0.000049
C66	C	1.483017	0.165552	0.500049
C67	C	0.978528	-0.590265	-0.083095
C68	C	1.478528	-0.090265	0.416905
C69	C	0.977237	-0.663092	-0.083099
C70	C	1.477237	-0.163092	0.416901
C71	C	0.977228	-0.663108	0.083147
C72	C	1.477228	-0.163108	0.583147
C73	C	0.978511	-0.590282	0.083148
C74	C	1.478511	-0.090282	0.583148
C75	C	0.979165	-0.553865	0.000024
C76	C	1.479165	-0.053865	0.500024
C77	C	1.133800	0.090197	0.000046
C78	C	1.633800	0.590197	0.500046
C79	C	1.226090	0.091553	0.000044
C80	C	1.726090	0.591553	0.500044
C81	C	0.975239	0.222980	0.000025
C82	C	1.475239	0.722980	0.500025
C83	C	0.976595	0.300488	0.000017
C84	C	1.476595	0.800488	0.500017
N85	N	0.981770	0.095326	0.217034
N86	N	1.481770	0.595326	0.717034
N87	N	0.981790	0.095326	-0.216955
N88	N	1.481790	0.595326	0.283045
C89	C	1.038484	0.047863	0.452049
C90	C	1.538484	0.547863	0.952049
C91	C	1.038487	0.047861	0.548030
C92	C	1.538487	0.547861	1.048030
C93	C	0.925069	0.142791	0.548024
C94	C	1.425069	0.642791	1.048024
C95	C	0.925064	0.142788	0.452044
C96	C	1.425064	0.642788	0.952044
C97	C	0.981776	0.095325	0.404059
C98	C	1.481776	0.595325	0.904059
C99	C	0.981784	0.095326	0.596020
C100	C	1.481784	0.595326	1.096020
C101	C	0.981786	0.095324	0.700087
C102	C	1.481786	0.595324	1.200087
C103	C	0.981773	0.095326	0.299985
C104	C	1.481773	0.595326	0.799985
H105	H	0.986860	-0.116585	-0.150750
H106	H	1.486860	0.383415	0.349250
H107	H	0.878897	0.181435	0.587102
H108	H	1.378897	0.681435	1.087102
H109	H	0.878881	0.181438	0.412968
H110	H	1.378881	0.681438	0.912968
N111	N	0.548899	0.225202	0.000053
N112	N	1.048899	0.725202	0.500053
N113	N	0.595019	0.240103	0.064331
N114	N	1.095019	0.740103	0.564331
H115	H	0.618972	0.286455	0.064349
H116	H	1.118972	0.786455	0.564349
H117	H	0.421532	-0.021243	0.000030
H118	H	0.921532	0.478757	0.500030
H119	H	0.984528	-0.248698	-0.150757
H120	H	1.484528	0.251302	0.349243
N121	N	0.976583	-0.700296	0.168057
N122	N	1.476583	-0.200296	0.668057
N123	N	0.977153	-0.667784	0.242266
N124	N	1.477153	-0.167784	0.742266
H125	H	0.976696	-0.694051	0.302237
H126	H	1.476696	-0.194051	0.802237
H127	H	1.084662	0.009215	0.412982
H128	H	1.584662	0.509215	0.912982
N129	N	0.373624	0.222620	0.000044
N130	N	0.873624	0.722620	0.500044
N131	N	0.403287	0.279978	0.000043
N132	N	0.903287	0.779978	0.500043
H133	H	0.364698	0.325412	0.000047
H134	H	0.864698	0.825412	0.500047
N135	N	1.096396	-0.000631	0.597055
N136	N	1.596396	0.499369	1.097055
N137	N	1.070169	-0.043980	0.650608
N138	N	1.570169	0.456020	1.150608
H139	H	1.111066	-0.078236	0.685230
H140	H	1.611066	0.421764	1.185230
H141	H	0.984502	-0.248735	0.150846
H142	H	1.484502	0.251265	0.650846
H143	H	0.578855	-0.018910	0.000029
H144	H	1.078855	0.481090	0.500029
H145	H	0.986812	-0.116611	0.150864
H146	H	1.486812	0.383389	0.650864
H147	H	0.979056	-0.560613	-0.150780
H148	H	1.479056	-0.060613	0.349220
N149	N	0.976606	-0.700261	-0.168018
N150	N	1.476606	-0.200261	0.331982
N151	N	1.035352	-0.698568	-0.223658
N152	N	1.535352	-0.198568	0.276342
H153	H	1.034909	-0.724818	-0.283636
H154	H	1.534909	-0.224818	0.216364
N155	N	0.979155	-0.553107	0.168060
N156	N	1.479155	-0.053107	0.668060
N157	N	0.978578	-0.585635	0.242266
N158	N	1.478578	-0.085635	0.742266
H159	H	0.979030	-0.559381	0.302240
H160	H	1.479030	-0.059381	0.802240
