data_functionalizedCrystal
_audit_creation_method	'MofGen! by Chris Wilmer'
_symmetry_space_group_name_H-M	'P1'
_symmetry_Int_Tables_number	1
_symmetry_cell_setting	triclinic
loop_
_symmetry_equiv_pos_as_xyz
  x,y,z
_cell_length_a	14.853567
_cell_length_b	14.971486
_cell_length_c	13.448316
_cell_angle_alpha	90.006461
_cell_angle_beta	89.995674
_cell_angle_gamma	96.375470
loop_
_atom_site_label
_atom_site_type_symbol
_atom_site_fract_x
_atom_site_fract_y
_atom_site_fract_z
O1	O	1.196347	-0.116781	-0.082624
O2	O	0.933885	-0.130692	-0.082641
O3	O	1.072150	0.006462	-0.082625
O4	O	1.058081	-0.253935	-0.082640
O5	O	1.072131	0.006470	0.082759
O6	O	0.933866	-0.130685	0.082743
O7	O	1.196328	-0.116774	0.082760
Cu8	Cu	1.065095	-0.123729	0.097852
Cu9	Cu	1.065117	-0.123737	-0.097733
O10	O	1.058062	-0.253928	0.082744
C11	C	0.900287	-0.130058	0.000049
C12	C	0.800203	-0.128169	0.000043
N13	N	1.065086	-0.123722	0.235417
C14	C	1.071512	0.039791	0.000067
C15	C	1.069626	0.139088	0.000066
C16	C	0.387686	-0.038712	0.000070
C17	C	0.366375	-0.201655	0.000060
C18	C	0.460408	-0.203431	0.000056
C19	C	0.518085	-0.122846	0.000058
C20	C	0.481728	-0.040486	0.000064
C21	C	0.496772	-0.285790	0.000041
C22	C	0.590811	-0.287569	0.000036
C23	C	0.648490	-0.206984	0.000046
C24	C	0.612127	-0.124620	0.000052
C25	C	0.669804	-0.044035	0.000054
C26	C	0.633444	0.038330	0.000068
C27	C	0.539407	0.040100	0.000073
C28	C	0.742527	-0.208754	0.000040
C29	C	0.763847	-0.045809	0.000048
C30	C	1.229926	-0.117408	0.000068
C31	C	1.330009	-0.119297	0.000068
C32	C	1.058701	-0.287257	0.000050
C33	C	1.060586	-0.386554	0.000045
C34	C	1.150854	0.196299	0.000072
C35	C	1.149076	0.289598	0.000062
C36	C	1.066071	0.325686	0.000053
C37	C	0.984838	0.268468	0.000044
C38	C	0.986616	0.175170	0.000047
C39	C	0.981137	0.462931	0.000040
C40	C	0.979359	0.556235	0.000039
C41	C	1.143598	0.577360	0.000055
C42	C	1.145376	0.484062	0.000058
C43	C	1.064142	0.426850	0.000051
C44	C	1.126328	-0.063015	0.287464
C45	C	1.126333	-0.063015	0.391567
C46	C	1.065099	-0.123727	0.443621
C47	C	1.003850	-0.184436	0.391566
C48	C	1.003841	-0.184431	0.287465
C49	C	1.003873	-0.184444	0.608547
C50	C	1.003882	-0.184450	0.712655
C51	C	1.126364	-0.063028	0.712649
C52	C	1.126356	-0.063023	0.608547
C53	C	1.065108	-0.123734	0.556500
N54	N	1.065124	-0.123743	0.764703
H55	H	0.680417	0.103941	0.000063
H56	H	0.810802	0.019814	0.000053
H57	H	0.953995	-0.233878	0.566173
O58	O	0.503937	0.120024	0.000036
C59	C	0.368508	0.194964	0.000100
C60	C	0.408562	0.104390	0.000122
H61	H	0.291393	0.182355	0.000191
H62	H	0.392190	0.234803	-0.069128
H63	H	0.392301	0.234796	0.069298
H64	H	0.384788	0.064486	-0.069029
H65	H	0.384885	0.064620	0.069395
O66	O	0.944329	-0.243288	0.442241
C67	C	0.821209	-0.262106	0.559753
C68	C	0.888577	-0.195356	0.502447
H69	H	0.776104	-0.223379	0.608428
H70	H	0.860132	-0.306852	0.608541
H71	H	0.777473	-0.305512	0.504652
H72	H	0.932330	-0.151890	0.557476
H73	H	0.849599	-0.150672	0.453645
H74	H	0.449806	-0.351397	0.000029
H75	H	1.218446	0.166924	0.000085
O76	O	0.310388	-0.279953	-0.000122
C77	C	0.263432	-0.418704	-0.085780
C78	C	0.326880	-0.330053	-0.085711
H79	H	0.276757	-0.459244	-0.154961
H80	H	0.189959	-0.403339	-0.085843
H81	H	0.276653	-0.459189	-0.016538
H82	H	0.313740	-0.289525	-0.154941
H83	H	0.400332	-0.345481	-0.085596
O84	O	0.625978	-0.367651	0.000076
C85	C	0.594907	-0.529083	0.000012
C86	C	0.554960	-0.438454	-0.000014
H87	H	0.537509	-0.586350	-0.000081
H88	H	0.638362	-0.534044	0.069242
H89	H	0.638437	-0.533944	-0.069184
H90	H	0.511389	-0.433531	0.069135
H91	H	0.511557	-0.433532	-0.069289
O92	O	0.777698	-0.288830	0.000069
C93	C	0.746631	-0.450262	-0.000018
C94	C	0.706681	-0.359633	-0.000028
H95	H	0.689234	-0.507530	-0.000117
H96	H	0.790088	-0.455230	0.069209
H97	H	0.790159	-0.455114	-0.069217
H98	H	0.663113	-0.354720	0.069124
H99	H	0.663277	-0.354704	-0.069301
H100	H	1.215220	0.336176	0.000069
H101	H	1.212967	0.454683	0.000072
O102	O	0.902169	0.407444	-0.000100
C103	C	0.762373	0.360785	-0.085817
C104	C	0.851757	0.423690	-0.085776
H105	H	0.721599	0.373884	-0.155089
H106	H	0.721458	0.373935	-0.016654
H107	H	0.777925	0.287912	-0.085766
H108	H	0.836287	0.496585	-0.085862
H109	H	0.892646	0.410462	-0.154933
H110	H	0.358077	0.028347	0.000085
O111	O	0.944319	-0.243491	0.237057
C112	C	0.822798	-0.363890	0.248043
C113	C	0.890178	-0.297070	0.305252
H114	H	0.778995	-0.407213	0.303154
H115	H	0.861713	-0.408705	0.199315
H116	H	0.777761	-0.325168	0.199296
H117	H	0.935232	-0.335719	0.354053
H118	H	0.851207	-0.252255	0.353917
O119	O	0.904149	0.303413	0.000164
C120	C	0.763240	0.313947	0.085859
C121	C	0.854581	0.274300	0.085832
H122	H	0.723147	0.290440	0.155124
H123	H	0.723043	0.290360	0.016688
H124	H	0.775940	0.390456	0.085811
H125	H	0.841964	0.197790	0.085914
H126	H	0.894749	0.297958	0.154996
H127	H	1.209742	0.623946	0.000058
H128	H	1.176196	-0.013581	0.245089
H129	H	0.954018	-0.233887	0.755032
H130	H	0.911769	0.585614	0.000047
H131	H	0.920472	0.128589	0.000042
H132	H	1.176201	-0.013583	0.433944
H133	H	1.176222	-0.013591	0.566165
H134	H	1.176234	-0.013595	0.755032
