data_functionalizedCrystal
_audit_creation_method	'MofGen! by Chris Wilmer'
_symmetry_space_group_name_H-M	'P1'
_symmetry_Int_Tables_number	1
_symmetry_cell_setting	triclinic
loop_
_symmetry_equiv_pos_as_xyz
  x,y,z
_cell_length_a	17.699077
_cell_length_b	15.944493
_cell_length_c	16.776229
_cell_angle_alpha	89.999222
_cell_angle_beta	89.993415
_cell_angle_gamma	83.377810
loop_
_atom_site_label
_atom_site_type_symbol
_atom_site_fract_x
_atom_site_fract_y
_atom_site_fract_z
O1	O	1.004243	0.106201	-0.066267
O2	O	1.254243	0.356201	0.183733
O3	O	1.504243	0.606201	0.433733
O4	O	1.754243	0.856201	0.683733
O5	O	0.783885	0.120026	-0.066270
O6	O	1.033885	0.370026	0.183730
O7	O	1.283885	0.620026	0.433730
O8	O	1.533885	0.870026	0.683730
O9	O	0.900104	-0.009177	-0.066275
O10	O	1.150104	0.240823	0.183725
O11	O	1.400104	0.490823	0.433725
O12	O	1.650104	0.740823	0.683725
O13	O	0.888023	0.235405	-0.066262
O14	O	1.138023	0.485405	0.183738
O15	O	1.388023	0.735405	0.433738
O16	O	1.638023	0.985405	0.683738
O17	O	0.900089	-0.009185	0.066301
O18	O	1.150089	0.240815	0.316301
O19	O	1.400089	0.490815	0.566301
O20	O	1.650089	0.740815	0.816301
O21	O	0.783869	0.120018	0.066307
O22	O	1.033869	0.370018	0.316307
O23	O	1.283869	0.620018	0.566307
O24	O	1.533869	0.870018	0.816307
O25	O	1.004227	0.106193	0.066309
O26	O	1.254227	0.356193	0.316309
O27	O	1.504227	0.606193	0.566309
O28	O	1.754227	0.856193	0.816309
Zn29	Zn	0.894046	0.113104	0.087357
Zn30	Zn	1.144046	0.363104	0.337357
Zn31	Zn	1.394046	0.613104	0.587357
Zn32	Zn	1.644046	0.863104	0.837357
Zn33	Zn	0.894066	0.113115	-0.087318
Zn34	Zn	1.144066	0.363115	0.162682
Zn35	Zn	1.394066	0.613115	0.412682
Zn36	Zn	1.644066	0.863115	0.662682
O37	O	0.888008	0.235397	0.066314
O38	O	1.138008	0.485397	0.316314
O39	O	1.388008	0.735397	0.566314
O40	O	1.638008	0.985397	0.816314
C41	C	0.755679	0.119528	0.000018
C42	C	1.005679	0.369528	0.250018
C43	C	1.255679	0.619528	0.500018
C44	C	1.505679	0.869528	0.750018
C45	C	0.671659	0.118044	0.000016
C46	C	0.921659	0.368044	0.250016
C47	C	1.171659	0.618044	0.500016
C48	C	1.421659	0.868044	0.750016
C49	C	0.632182	0.117341	0.072285
C50	C	0.882182	0.367341	0.322285
C51	C	1.132182	0.617341	0.572285
C52	C	1.382182	0.867341	0.822285
C53	C	0.553237	0.115933	0.072285
C54	C	0.803237	0.365933	0.322285
C55	C	1.053237	0.615933	0.572285
C56	C	1.303237	0.865933	0.822285
C57	C	0.513770	0.115235	0.000017
C58	C	0.763770	0.365235	0.250017
C59	C	1.013770	0.615235	0.500017
C60	C	1.263770	0.865235	0.750017
C61	C	0.553253	0.115936	-0.072257
C62	C	0.803253	0.365936	0.177743
C63	C	1.053253	0.615936	0.427743
C64	C	1.303253	0.865936	0.677743
C65	C	0.632197	0.117338	-0.072257
C66	C	0.882197	0.367338	0.177743
C67	C	1.132197	0.617338	0.427743
C68	C	1.382197	0.867338	0.677743
C69	C	0.234881	0.110283	-0.072259
C70	C	0.484881	0.360283	0.177741
C71	C	0.734881	0.610283	0.427741
C72	C	0.984881	0.860283	0.677741
C73	C	0.155931	0.108885	-0.072253
C74	C	0.405931	0.358885	0.177747
C75	C	0.655931	0.608885	0.427747
C76	C	0.905931	0.858885	0.677747
C77	C	0.155921	0.108879	0.072284
C78	C	0.405921	0.358879	0.322284
C79	C	0.655921	0.608879	0.572284
C80	C	0.905921	0.858879	0.822284
C81	C	0.234865	0.110281	0.072284
C82	C	0.484865	0.360281	0.322284
C83	C	0.734865	0.610281	0.572284
C84	C	0.984865	0.860281	0.822284
C85	C	0.274342	0.110977	0.000010
C86	C	0.524342	0.360977	0.250010
C87	C	0.774342	0.610977	0.500010
C88	C	1.024342	0.860977	0.750010
C89	C	0.359943	0.112501	0.000010
C90	C	0.609943	0.362501	0.250010
C91	C	0.859943	0.612501	0.500010
C92	C	1.109943	0.862501	0.750010
C93	C	0.428170	0.113717	0.000016
C94	C	0.678170	0.363717	0.250016
C95	C	0.928170	0.613717	0.500016
C96	C	1.178170	0.863717	0.750016
C97	C	0.899603	-0.040475	0.000010
C98	C	1.149603	0.209525	0.250010
C99	C	1.399603	0.459525	0.500010
C100	C	1.649603	0.709525	0.750010
C101	C	0.898122	-0.133721	-0.000000
C102	C	1.148122	0.116279	0.250000
C103	C	1.398122	0.366279	0.500000
C104	C	1.648122	0.616279	0.750000
C105	C	0.966532	-0.369626	0.000015
C106	C	1.216532	-0.119626	0.250015
C107	C	1.466532	0.130374	0.500015
C108	C	1.716532	0.380374	0.750015
C109	C	0.929649	-0.420112	-0.065352
C110	C	1.179649	-0.170112	0.184648
C111	C	1.429649	0.079888	0.434648
C112	C	1.679649	0.329888	0.684648
C113	C	0.895379	-0.304436	0.000009
C114	C	1.145379	-0.054436	0.250009
C115	C	1.395379	0.195564	0.500009
C116	C	1.645379	0.445564	0.750009
C117	C	0.929617	-0.420096	0.065358
C118	C	1.179617	-0.170096	0.315358
C119	C	1.429617	0.079904	0.565358
C120	C	1.679617	0.329904	0.815358
C121	C	0.892735	-0.469340	0.000022
C122	C	1.142735	-0.219340	0.250022
C123	C	1.392735	0.030660	0.500022
C124	C	1.642735	0.280660	0.750022
C125	C	0.858516	-0.353693	-0.065412
C126	C	1.108516	-0.103693	0.184588
C127	C	1.358516	0.146307	0.434588
C128	C	1.608516	0.396307	0.684588
C129	C	0.858494	-0.353674	0.065357
C130	C	1.108494	-0.103674	0.315357
C131	C	1.358494	0.146326	0.565357
C132	C	1.608494	0.396326	0.815357
C133	C	0.821559	-0.404126	-0.000026
C134	C	1.071559	-0.154126	0.249974
C135	C	1.321559	0.095874	0.499974
C136	C	1.571559	0.345874	0.749974
C137	C	0.896905	-0.209439	0.000001
C138	C	1.146905	0.040561	0.250001
C139	C	1.396905	0.290561	0.500001
C140	C	1.646905	0.540561	0.750001
C141	C	0.891204	-0.564334	0.000025
C142	C	1.141204	-0.314334	0.250025
C143	C	1.391204	-0.064334	0.500025
C144	C	1.641204	0.185666	0.750025
C145	C	1.032433	0.106691	0.000020
C146	C	1.282433	0.356691	0.250020
C147	C	1.532433	0.606691	0.500020
C148	C	1.782433	0.856691	0.750020
C149	C	1.116453	0.108175	0.000016
C150	C	1.366453	0.358175	0.250016
C151	C	1.616453	0.608175	0.500016
C152	C	1.866453	0.858175	0.750016
C153	C	0.888509	0.266694	0.000028
C154	C	1.138509	0.516694	0.250028
C155	C	1.388509	0.766694	0.500028
C156	C	1.638509	1.016694	0.750028
C157	C	0.889990	0.359940	0.000033
C158	C	1.139990	0.609940	0.250033
C159	C	1.389990	0.859940	0.500033
C160	C	1.639990	1.109940	0.750033
N161	N	0.894038	0.113097	0.206569
N162	N	1.144038	0.363097	0.456569
N163	N	1.394038	0.613097	0.706569
N164	N	1.644038	0.863097	0.956569
N165	N	0.894081	0.113116	-0.206529
N166	N	1.144081	0.363116	0.043471
N167	N	1.394081	0.613116	0.293471
N168	N	1.644081	0.863116	0.543471
C169	C	0.945515	0.055909	0.248283
C170	C	1.195515	0.305909	0.498283
C171	C	1.445515	0.555909	0.748283
C172	C	1.695515	0.805909	0.998283
C173	C	0.945519	0.055908	0.331735
C174	C	1.195519	0.305908	0.581735
C175	C	1.445519	0.555908	0.831735
C176	C	1.695519	0.805908	1.081735
C177	C	0.894049	0.113100	0.373471
C178	C	1.144049	0.363100	0.623471
C179	C	1.394049	0.613100	0.873471
C180	C	1.644049	0.863100	1.123471
C181	C	0.842566	0.170291	0.331751
C182	C	1.092566	0.420291	0.581751
C183	C	1.342566	0.670291	0.831751
C184	C	1.592566	0.920291	1.081751
C185	C	0.842559	0.170287	0.248300
C186	C	1.092559	0.420287	0.498300
C187	C	1.342559	0.670287	0.748300
C188	C	1.592559	0.920287	0.998300
C189	C	0.842593	0.170307	0.668298
C190	C	1.092593	0.420307	0.918298
C191	C	1.342593	0.670307	1.168298
C192	C	1.592593	0.920307	1.418298
C193	C	0.842606	0.170308	0.751755
C194	C	1.092606	0.420308	1.001755
C195	C	1.342606	0.670308	1.251755
C196	C	1.592606	0.920308	1.501755
C197	C	0.945554	0.055929	0.751733
C198	C	1.195554	0.305929	1.001733
C199	C	1.445554	0.555929	1.251733
C200	C	1.695554	0.805929	1.501733
C201	C	0.945547	0.055925	0.668283
C202	C	1.195547	0.305925	0.918283
C203	C	1.445547	0.555925	1.168283
C204	C	1.695547	0.805925	1.418283
C205	C	0.894061	0.113112	0.626569
C206	C	1.144061	0.363112	0.876569
C207	C	1.394061	0.613112	1.126569
C208	C	1.644061	0.863112	1.376569
C209	C	0.894056	0.113111	0.536081
C210	C	1.144056	0.363111	0.786081
C211	C	1.394056	0.613111	1.036081
C212	C	1.644056	0.863111	1.286081
C213	C	0.894057	0.113106	0.463958
C214	C	1.144057	0.363106	0.713958
C215	C	1.394057	0.613106	0.963958
C216	C	1.644057	0.863106	1.213958
H217	H	0.266995	0.110853	0.131132
H218	H	0.516995	0.360853	0.381132
H219	H	0.766995	0.610853	0.631132
H220	H	1.016995	0.860853	0.881132
H221	H	0.521113	0.115362	-0.131099
H222	H	0.771113	0.365362	0.118901
H223	H	1.021113	0.615362	0.368901
H224	H	1.271113	0.865362	0.618901
F225	F	1.000331	-0.004943	0.623868
F226	F	1.250331	0.245057	0.873868
F227	F	1.500331	0.495057	1.123868
F228	F	1.750331	0.745057	1.373868
H229	H	0.987436	0.009341	0.365699
H230	H	1.237436	0.259341	0.615699
H231	H	1.487436	0.509341	0.865699
H232	H	1.737436	0.759341	1.115699
H233	H	0.959674	-0.449094	0.120618
H234	H	1.209674	-0.199094	0.370618
H235	H	1.459674	0.050906	0.620618
H236	H	1.709674	0.300906	0.870618
F237	F	0.787783	0.231156	0.376170
F238	F	1.037783	0.481156	0.626170
F239	F	1.287783	0.731156	0.876170
F240	F	1.537783	0.981156	1.126170
H241	H	0.664309	0.117916	0.131134
H242	H	0.914309	0.367916	0.381134
H243	H	1.164309	0.617916	0.631134
H244	H	1.414309	0.867916	0.881134
H245	H	1.027820	-0.354128	-0.000050
H246	H	1.277820	-0.104128	0.249950
H247	H	1.527820	0.145872	0.499950
H248	H	1.777820	0.395872	0.749950
F249	F	1.000348	-0.004939	0.796134
F250	F	1.250348	0.245061	1.046134
F251	F	1.500348	0.495061	1.296134
F252	F	1.750348	0.745061	1.546134
F253	F	0.968932	-0.458027	-0.137584
F254	F	1.218932	-0.208027	0.112416
F255	F	1.468932	0.041973	0.362416
F256	F	1.718932	0.291973	0.612416
F257	F	0.741389	-0.424174	-0.000072
F258	F	0.991389	-0.174174	0.249928
F259	F	1.241389	0.075826	0.499928
F260	F	1.491389	0.325826	0.749928
H261	H	0.800690	0.216883	0.785735
H262	H	1.050690	0.466883	1.035735
H263	H	1.300690	0.716883	1.285735
H264	H	1.550690	0.966883	1.535735
H265	H	0.800673	0.216873	0.634342
H266	H	1.050673	0.466873	0.884342
H267	H	1.300673	0.716873	1.134342
H268	H	1.550673	0.966873	1.384342
F269	F	0.819273	-0.315940	-0.137724
F270	F	1.069273	-0.065940	0.112276
F271	F	1.319273	0.184060	0.362276
F272	F	1.569273	0.434060	0.612276
F273	F	0.511225	0.115196	0.149203
F274	F	0.761225	0.365196	0.399203
F275	F	1.011225	0.615196	0.649203
F276	F	1.261225	0.865196	0.899203
F277	F	0.787767	0.231152	0.203905
F278	F	1.037767	0.481152	0.453905
F279	F	1.287767	0.731152	0.703905
F280	F	1.537767	0.981152	0.953905
F281	F	0.113902	0.108134	0.149204
F282	F	0.363902	0.358134	0.399204
F283	F	0.613902	0.608134	0.649204
F284	F	0.863902	0.858134	0.899204
F285	F	0.276884	0.111025	-0.149178
F286	F	0.526884	0.361025	0.100822
F287	F	0.776884	0.611025	0.350822
F288	F	1.026884	0.861025	0.600822
F289	F	0.674211	0.118083	-0.149175
F290	F	0.924211	0.368083	0.100825
F291	F	1.174211	0.618083	0.350825
F292	F	1.424211	0.868083	0.600825
F293	F	0.113929	0.108141	-0.149175
F294	F	0.363929	0.358141	0.100825
F295	F	0.613929	0.608141	0.350825
F296	F	0.863929	0.858141	0.600825
H297	H	0.828465	-0.324652	0.120622
H298	H	1.078465	-0.074652	0.370622
H299	H	1.328465	0.175348	0.620622
H300	H	1.578465	0.425348	0.870622
H301	H	0.987431	0.009340	0.214307
H302	H	1.237431	0.259340	0.464307
H303	H	1.487431	0.509340	0.714307
H304	H	1.737431	0.759340	0.964307
