data_functionalizedCrystal
_audit_creation_method	'MofGen! by Chris Wilmer'
_symmetry_space_group_name_H-M	'P1'
_symmetry_Int_Tables_number	1
_symmetry_cell_setting	triclinic
loop_
_symmetry_equiv_pos_as_xyz
  x,y,z
_cell_length_a	19.377625
_cell_length_b	14.560438
_cell_length_c	19.376995
_cell_angle_alpha	52.465057
_cell_angle_beta	61.014498
_cell_angle_gamma	52.464040
loop_
_atom_site_label
_atom_site_type_symbol
_atom_site_fract_x
_atom_site_fract_y
_atom_site_fract_z
Zr1	Zr	0.761707	1.005265	-0.290391
O2	O	0.671267	1.196882	-0.380838
O3	O	0.789437	0.813655	-0.262665
O4	O	0.830625	1.005265	-0.422021
O5	O	0.597583	1.005270	-0.095779
O6	O	0.956323	1.005257	-0.454504
O7	O	0.630078	1.005272	-0.221483
O8	O	0.882645	0.662502	-0.169446
O9	O	0.671261	1.348025	-0.380837
O10	O	0.895064	0.892459	-0.275081
O11	O	0.777006	0.892463	-0.157027
O12	O	0.825500	1.118059	-0.344648
O13	O	0.707441	1.118063	-0.226594
Zr14	Zr	0.910355	1.005250	-0.141715
Zr15	Zr	0.962182	1.005253	-0.342199
Zr16	Zr	0.709880	1.005262	-0.089907
Zr17	Zr	0.761698	1.246321	-0.290389
Zr18	Zr	0.910364	0.764194	-0.141718
O19	O	0.882625	1.196860	-0.169441
O20	O	0.956316	1.196864	-0.454503
O21	O	0.597576	1.196877	-0.095777
O22	O	1.000795	0.813633	-0.051268
O23	O	1.074486	0.813638	-0.336329
O24	O	0.715746	0.813651	0.022397
O25	O	1.074479	1.005245	-0.336327
O26	O	0.841437	1.005250	-0.010086
O27	O	0.715738	1.005258	0.022398
O28	O	1.041983	1.005243	-0.210623
O29	O	0.830612	1.348015	-0.422017
O30	O	0.841450	0.662500	-0.010089
O31	O	1.000801	0.662490	-0.051269
O32	O	1.041996	0.662493	-0.210626
O33	O	0.630066	1.348022	-0.221480
O34	O	0.789416	1.348013	-0.262660
O35	O	0.846562	0.892456	-0.087458
O36	O	0.964621	0.892452	-0.205512
O37	O	0.895056	1.118052	-0.275079
O38	O	0.776997	1.118056	-0.157025
C39	C	0.836042	0.703734	-0.216056
C40	C	0.836046	0.601399	-0.216057
C41	C	0.585267	1.005273	-0.151249
C42	C	0.500160	1.005278	-0.129255
C43	C	0.887372	0.373900	-0.164693
C44	C	0.887390	0.470042	-0.164699
C45	C	0.784688	0.636615	-0.267419
C46	C	0.784676	0.540473	-0.267418
C47	C	0.938712	0.242543	-0.113325
C48	C	0.990071	0.207320	-0.061964
C49	C	0.990089	0.303462	-0.061970
C50	C	0.938748	0.434827	-0.113337
C51	C	0.309744	1.005249	-0.403125
C52	C	0.229770	1.005244	-0.382430
C53	C	0.193988	1.005242	-0.243936
C54	C	0.273959	1.005253	-0.264622
C55	C	0.331832	1.005256	-0.344217
C56	C	0.296047	1.005260	-0.205713
C57	C	0.376013	1.005265	-0.226395
C58	C	0.433891	1.005263	-0.305985
C59	C	0.411798	1.005260	-0.364898
C60	C	0.238176	1.005248	-0.126116
C61	C	0.260264	1.005255	-0.067208
C62	C	0.340228	1.005269	-0.087892
C63	C	0.398106	1.005267	-0.167482
C64	C	0.362322	1.005271	-0.028979
C65	C	0.442288	1.005276	-0.049660
C66	C	0.478072	1.005272	-0.188164
C67	C	1.086794	1.005242	-0.280857
C68	C	1.171901	1.005237	-0.302851
C69	C	0.900858	1.005261	-0.466827
C70	C	0.922860	1.005263	-0.551937
C71	C	0.836019	1.306782	-0.216050
C72	C	0.836016	1.409116	-0.216049
C73	C	1.023116	1.005259	-0.689792
C74	C	1.002433	1.005258	-0.609816
C75	C	0.863939	1.005261	-0.574016
C76	C	0.884612	1.005255	-0.653989
C77	C	0.964201	1.005256	-0.711871
C78	C	0.825697	1.005252	-0.676068
C79	C	0.846367	1.005253	-0.756036
C80	C	0.925950	1.005258	-0.813924
C81	C	0.984870	1.005257	-0.791839
C82	C	0.746106	1.005261	-0.618187
C83	C	0.687192	1.005258	-0.640267
C84	C	0.707863	1.005250	-0.720233
C85	C	0.787447	1.005254	-0.778121
C86	C	0.648944	1.005251	-0.742318
C87	C	0.669613	1.005252	-0.822286
C88	C	0.808116	1.005255	-0.858089
C89	C	0.771203	1.005254	0.034721
C90	C	0.749202	1.005252	0.119831
C91	C	1.086806	0.703718	-0.280860
C92	C	1.171917	0.601378	-0.302854
C93	C	0.771215	0.703730	0.034718
C94	C	0.749217	0.601394	0.119828
C95	C	1.021978	0.703714	-0.030086
C96	C	1.085087	0.601373	0.033030
C97	C	0.650083	1.306801	-0.402020
C98	C	0.586974	1.409142	-0.465136
C99	C	0.585256	1.306797	-0.151247
C100	C	0.500145	1.409137	-0.129252
C101	C	0.900847	1.306785	-0.466824
C102	C	0.922845	1.409121	-0.551934
C103	C	1.175580	0.553322	-0.349506
C104	C	1.255548	0.457177	-0.370189
C105	C	1.331850	0.409082	-0.344214
C106	C	1.328184	0.457148	-0.297561
C107	C	1.248219	0.553298	-0.276884
C108	C	0.775192	0.553332	0.196119
C109	C	0.754517	0.457190	0.276097
C110	C	0.707872	0.409105	0.279780
C111	C	0.681894	0.457176	0.203481
C112	C	0.702563	0.553323	0.123507
C113	C	1.176358	0.553311	0.001045
C114	C	1.235665	0.457164	0.060339
C115	C	1.203700	0.409075	0.151618
C116	C	1.112421	0.457147	0.183604
C117	C	1.053115	0.553299	0.124310
C118	C	0.495704	1.457216	-0.433151
C119	C	0.436397	1.553393	-0.492445
C120	C	0.468362	1.601487	-0.583724
C121	C	0.559641	1.553409	-0.615710
C122	C	0.618947	1.457240	-0.556416
C123	C	0.496484	1.457203	-0.082608
C124	C	0.416522	1.553375	-0.061947
C125	C	0.340221	1.601473	-0.087925
C126	C	0.343885	1.553403	-0.134575
C127	C	0.423848	1.457239	-0.155241
C128	C	0.969491	1.457176	-0.555590
C129	C	0.990177	1.553318	-0.635556
C130	C	0.964210	1.601411	-0.711864
C131	C	0.917562	1.553347	-0.708206
C132	C	0.896882	1.457200	-0.628242
H133	H	1.031876	0.100360	-0.020147
H134	H	0.896423	1.592519	-0.770347
H135	H	0.799136	1.005266	-0.526881
H136	H	0.693264	1.418099	-0.582470
O137	O	1.324335	0.410613	0.029293
C138	C	1.362325	0.434105	0.059902
H139	H	1.309475	0.518365	0.077017
H140	H	1.417481	0.459607	0.006051
H141	H	1.390739	0.343344	0.121388
O142	O	0.726067	1.005432	-0.540583
C143	C	0.722627	1.117329	-0.558183
H144	H	0.763477	1.154628	-0.626218
H145	H	0.750600	1.092159	-0.505719
H146	H	0.651025	1.195682	-0.556843
O147	O	0.427232	1.410643	-0.200513
C148	C	0.342741	1.473745	-0.219021
H149	H	0.290178	1.513378	-0.169592
H150	H	0.330897	1.401627	-0.213494
H151	H	0.338825	1.557254	-0.288940
O152	O	1.035510	1.600107	-0.639259
C153	C	1.048185	1.695303	-0.726191
H154	H	1.043874	1.679521	-0.774552
H155	H	1.116112	1.687483	-0.742900
H156	H	0.994821	1.795880	-0.731418
O157	O	0.734687	0.764171	-0.317253
C158	C	0.644889	0.791365	-0.289933
H159	H	0.639961	0.697884	-0.255812
H160	H	0.611079	0.864267	-0.350083
H161	H	0.611016	0.833934	-0.241814
H162	H	0.643913	0.418011	0.206494
H163	H	0.978798	0.592419	0.150366
H164	H	1.031915	0.274778	-0.020155
O165	O	0.464681	1.410316	-0.344478
C166	C	0.495297	1.275577	-0.306472
H167	H	0.512398	1.249249	-0.359308
H168	H	0.441456	1.247954	-0.251298
H169	H	0.556792	1.220576	-0.278079
O170	O	1.258932	0.410591	-0.415472
C171	C	1.174438	0.473675	-0.433967
H172	H	1.121877	0.513287	-0.384527
H173	H	1.162605	0.401550	-0.428445
H174	H	1.170507	0.557196	-0.503881
O175	O	0.306120	1.005437	0.048311
C176	C	0.280244	1.117344	0.050877
H177	H	0.331884	1.154659	0.004668
H178	H	0.274371	1.092181	0.121282
H179	H	0.213556	1.195682	0.028759
H180	H	1.252000	0.330782	0.199889
H181	H	0.981054	1.679701	-0.776970
O182	O	0.994823	1.410569	-0.481563
C183	C	1.040413	1.473635	-0.501952
H184	H	1.068552	1.513254	-0.575819
H185	H	1.096723	1.401495	-0.462983
H186	H	0.992832	1.557149	-0.483540
O187	O	0.851440	1.410596	-0.624567
C188	C	0.771495	1.434175	-0.563512
H189	H	0.778009	1.446085	-0.514313
H190	H	0.756341	1.348821	-0.526494
H191	H	0.715492	1.526684	-0.600358
O192	O	0.885355	1.005416	-0.914440
C193	C	0.866962	1.117318	-0.996265
H194	H	0.798429	1.154632	-1.004212
H195	H	0.918567	1.092146	-1.052312
H196	H	0.869017	1.195658	-0.998438
O197	O	0.534250	1.005515	-0.265547
C198	C	0.547085	1.117389	-0.316138
H199	H	0.488716	1.195584	-0.294716
H200	H	0.552234	1.154955	-0.389204
H201	H	0.610684	1.092094	-0.305404
H202	H	1.396957	0.330789	-0.361056
O203	O	0.590536	1.600229	-0.704406
C204	C	0.518611	1.695433	-0.749869
H205	H	0.457556	1.679638	-0.704988
H206	H	0.535411	1.687638	-0.811762
H207	H	0.504704	1.796005	-0.769620
O208	O	0.511624	1.005212	-0.326199
C209	C	0.557954	1.005247	-0.409092
H210	H	0.534614	0.964343	-0.423774
H211	H	0.631882	0.942532	-0.407799
H212	H	0.544830	1.108892	-0.462733
H213	H	0.813171	0.592472	0.193136
O214	O	0.160540	1.005055	-0.105912
C215	C	0.158479	0.893201	-0.026500
H216	H	0.228988	0.814962	-0.015524
H217	H	0.124233	0.855690	-0.030915
H218	H	0.120550	0.918501	0.031154
H219	H	0.621638	1.005251	-0.840262
H220	H	0.938701	0.164250	-0.113313
O221	O	1.081228	0.410612	0.272246
C222	C	0.987951	0.473620	0.287777
H223	H	0.963726	0.571090	0.227448
H224	H	0.961994	0.490174	0.348015
H225	H	0.962704	0.410549	0.300427
O226	O	0.347725	1.600279	-0.461406
C227	C	0.309719	1.735016	-0.492013
H228	H	0.362555	1.761341	-0.509115
H229	H	0.254550	1.762631	-0.438164
H230	H	0.281319	1.790026	-0.553506
H231	H	0.356863	1.005265	-0.467944
O232	O	0.410711	1.694735	-0.641281
C233	C	0.357084	1.647745	-0.627258
H234	H	0.392357	1.537036	-0.594181
H235	H	0.343947	1.685528	-0.693475
H236	H	0.291588	1.682675	-0.582779
H237	H	0.681412	0.592442	0.061390
O238	O	0.734765	0.574487	-0.317195
C239	C	0.673121	0.523892	-0.261744
H240	H	0.698152	0.437213	-0.197613
H241	H	0.664600	0.491485	-0.296654
H242	H	0.606764	0.602064	-0.246127
H243	H	0.460271	1.005279	-0.001690
H244	H	0.558603	1.418049	-0.061445
O245	O	0.262565	1.695051	-0.068002
C246	C	0.232923	1.806292	-0.146810
H247	H	0.291529	1.806164	-0.204073
H248	H	0.200800	1.897168	-0.139422
H249	H	0.182473	1.805498	-0.160659
H250	H	0.458917	1.005276	-0.429717
H251	H	0.413554	1.592498	-0.023960
H252	H	0.938772	0.513105	-0.113343
O253	O	1.244530	0.599933	-0.231452
C254	C	1.183468	0.576382	-0.151511
H255	H	1.134280	0.564447	-0.158015
H256	H	1.146440	0.661763	-0.136380
H257	H	1.220307	0.483897	-0.095495
O258	O	0.208433	1.005293	-0.439775
C259	C	0.276675	1.005257	-0.514446
H260	H	0.315817	1.046167	-0.521503
H261	H	0.246744	1.067966	-0.576246
H262	H	0.322646	0.901611	-0.505973
H263	H	0.622389	1.005263	-0.593132
H264	H	0.775679	0.418062	0.338213
H265	H	0.146861	1.005235	-0.179128
O266	O	0.204060	1.005431	0.010079
C267	C	0.178191	1.117343	0.012635
H268	H	0.229837	1.154646	-0.033575
H269	H	0.172315	1.092191	0.083038
H270	H	0.111506	1.195686	-0.009489
H271	H	0.942776	1.005265	-0.879040
H272	H	0.281750	1.592579	-0.155722
H273	H	1.049684	1.005243	-0.838967
H274	H	1.087929	1.005245	-0.736919
H275	H	0.584138	1.005263	-0.695184
O276	O	1.059786	1.005199	-0.588485
C277	C	1.134451	1.005236	-0.656736
H278	H	1.141496	0.964335	-0.695880
H279	H	1.196255	0.942517	-0.626811
H280	H	1.125978	1.108880	-0.702704
O281	O	1.101409	0.599914	-0.374592
C282	C	1.035961	0.576446	-0.299021
H283	H	1.068775	0.492163	-0.238651
H284	H	0.997235	0.550992	-0.308830
H285	H	0.988952	0.667203	-0.288473
H286	H	1.390320	0.417975	-0.276417
H287	H	1.202401	0.592451	-0.073277
O288	O	0.687646	0.315865	0.357484
C289	C	0.595029	0.362832	0.381288
H290	H	0.561582	0.473542	0.347724
H291	H	0.574769	0.325067	0.456142
H292	H	0.573842	0.327865	0.359249
