data_functionalizedCrystal
_audit_creation_method	'MofGen! by Chris Wilmer'
_symmetry_space_group_name_H-M	'P1'
_symmetry_Int_Tables_number	1
_symmetry_cell_setting	triclinic
loop_
_symmetry_equiv_pos_as_xyz
  x,y,z
_cell_length_a	18.215405
_cell_length_b	18.215407
_cell_length_c	12.759393
_cell_angle_alpha	89.981102
_cell_angle_beta	89.962431
_cell_angle_gamma	90.022344
loop_
_atom_site_label
_atom_site_type_symbol
_atom_site_fract_x
_atom_site_fract_y
_atom_site_fract_z
Zn1	Zn	-0.292991	1.125086	-0.593949
Zn2	Zn	-0.416077	1.124991	-0.418250
Zn3	Zn	-0.293024	1.002015	-0.418287
Zn4	Zn	-0.416015	1.001985	-0.593891
O5	O	-0.354527	1.063519	-0.506094
O6	O	-0.309331	1.228058	-0.570651
O7	O	-0.399794	1.108650	-0.271234
O8	O	-0.190035	1.018393	-0.441628
O9	O	-0.399762	1.227988	-0.441566
O10	O	-0.190011	1.108813	-0.570686
O11	O	-0.309387	1.018300	-0.271261
O12	O	-0.309326	0.899027	-0.441572
O13	O	-0.399655	1.018342	-0.740919
O14	O	-0.399687	0.899005	-0.570587
O15	O	-0.309270	1.108784	-0.740962
O16	O	-0.519053	1.108621	-0.441510
O17	O	-0.519007	1.018249	-0.570552
C18	C	-0.354504	0.872313	-0.506078
C19	C	-0.354512	0.790514	-0.506096
C20	C	-0.401655	0.525464	-0.573180
C21	C	-0.401649	0.602323	-0.573175
C22	C	-0.307415	0.602315	-0.439027
C23	C	-0.307425	0.525458	-0.439027
C24	C	-0.354544	0.487034	-0.506110
C25	C	-0.354527	0.640750	-0.506104
C26	C	-0.354520	0.724084	-0.506098
C27	C	-0.354553	0.403695	-0.506115
C28	C	-0.545733	1.063441	-0.506044
C29	C	-0.627532	1.063476	-0.506057
C30	C	-0.815725	1.110643	-0.438989
C31	C	-0.892584	1.110675	-0.439014
C32	C	-0.892576	1.016490	-0.573275
C33	C	-0.815719	1.016461	-0.573254
C34	C	-0.777295	1.063536	-0.506105
C35	C	-0.931011	1.063598	-0.506151
C36	C	-1.014345	1.063633	-0.506179
C37	C	-0.693956	1.063502	-0.506078
C38	C	-0.162574	1.063617	-0.506168
C39	C	-0.080775	1.063659	-0.506199
C40	C	-0.354452	1.063571	-0.780128
C41	C	-0.354421	1.063593	-0.896904
C42	C	-0.354550	1.255472	-0.506111
C43	C	-0.354560	1.337271	-0.506118
C44	C	-0.307353	1.110692	-0.951790
C45	C	-0.307326	1.110710	-1.061514
C46	C	-0.401442	1.016526	-1.061457
C47	C	-0.401464	1.016505	-0.951735
C48	C	-0.253018	1.165071	-0.951824
C49	C	-0.252991	1.165089	-1.061549
C50	C	-0.354547	1.063510	-0.233127
C51	C	-0.354372	1.063631	-0.116351
H52	H	-0.440011	0.633609	-0.627789
O53	O	-0.261741	0.488009	-0.373886
C54	C	-0.271853	0.411934	-0.388278
H55	H	-0.328668	0.401439	-0.422574
H56	H	-0.228236	0.390134	-0.444310
C57	C	-0.195287	0.385348	-0.239862
C58	C	-0.265071	0.372458	-0.281975
H59	H	-0.191100	0.360996	-0.174291
H60	H	-0.188472	0.436601	-0.230167
H61	H	-0.158948	0.367181	-0.286564
H62	H	-0.301408	0.390632	-0.235279
H63	H	-0.271891	0.321207	-0.291660
H64	H	-0.440022	0.494182	-0.627803
O65	O	-0.188386	1.140675	-1.102057
C66	C	-0.175473	1.068216	-1.067846
H67	H	-0.207391	1.057684	-0.992441
H68	H	-0.194276	1.027988	-1.130784
C69	C	-0.053650	1.070570	-1.139930
C70	C	-0.092848	1.057637	-1.047311
H71	H	-0.002683	1.064042	-1.127267
H72	H	-0.062351	1.119386	-1.162982
H73	H	-0.069327	1.037045	-1.192369
H74	H	-0.077177	1.091167	-0.994878
H75	H	-0.084143	1.008826	-1.024249
H76	H	-0.273452	1.219194	-0.917786
H77	H	-0.784442	1.148975	-0.384313
H78	H	-0.439741	0.978187	-1.106113
H79	H	-0.784427	0.978102	-0.627914
H80	H	-0.439789	0.978149	-0.907051
O81	O	-0.261665	0.639755	-0.373972
C82	C	-0.271767	0.715833	-0.388335
H83	H	-0.295932	0.726342	-0.469354
H84	H	-0.310905	0.737621	-0.325918
C85	C	-0.167612	0.742399	-0.279389
C86	C	-0.197286	0.755307	-0.378901
H87	H	-0.121670	0.766750	-0.273565
H88	H	-0.160807	0.691144	-0.269708
H89	H	-0.200234	0.760556	-0.227386
H90	H	-0.164668	0.737142	-0.430901
H91	H	-0.204084	0.806560	-0.388590
H92	H	-0.268259	1.222084	-1.091325
O93	O	-0.929870	0.970838	-0.638645
C94	C	-0.911003	0.986859	-0.743372
H95	H	-0.889827	1.045641	-0.748749
H96	H	-0.866405	0.947376	-0.770773
C97	C	-1.005253	0.906095	-0.806890
C98	C	-0.979250	0.978294	-0.813495
H99	H	-1.047349	0.900808	-0.850147
H100	H	-1.017963	0.895299	-0.736334
H101	H	-0.968082	0.873200	-0.829722
H102	H	-1.016418	1.011187	-0.790651
H103	H	-0.966549	0.989096	-0.884050
O104	O	-0.929801	1.156456	-0.373715
C105	C	-0.879403	1.198011	-0.314468
H106	H	-0.824643	1.167845	-0.310776
H107	H	-0.871160	1.253885	-0.353009
C108	C	-0.976714	1.245723	-0.207206
C109	C	-0.909459	1.208670	-0.202665
H110	H	-0.995255	1.252302	-0.138242
H111	H	-1.010669	1.217729	-0.247124
H112	H	-0.969836	1.292281	-0.239329
H113	H	-0.916339	1.162110	-0.170555
H114	H	-0.875506	1.236656	-0.162739
O115	O	-0.185084	1.146800	-0.916200
C116	C	-0.189822	1.082579	-0.854851
H117	H	-0.248134	1.076336	-0.823588
H118	H	-0.175297	1.032865	-0.904993
C119	C	-0.064231	1.095681	-0.800729
C120	C	-0.135848	1.088017	-0.762324
H121	H	-0.030935	1.099033	-0.743657
H122	H	-0.061037	1.138947	-0.842064
H123	H	-0.052136	1.054251	-0.842514
H124	H	-0.147945	1.129450	-0.720551
H125	H	-0.139043	1.044758	-0.720980
