data_functionalizedCrystal
_audit_creation_method	'MofGen! by Chris Wilmer'
_symmetry_space_group_name_H-M	'P1'
_symmetry_Int_Tables_number	1
_symmetry_cell_setting	triclinic
loop_
_symmetry_equiv_pos_as_xyz
  x,y,z
_cell_length_a	10.268362
_cell_length_b	8.559649
_cell_length_c	8.559649
_cell_angle_alpha	110.221336
_cell_angle_beta	90.003615
_cell_angle_gamma	89.995584
loop_
_atom_site_label
_atom_site_type_symbol
_atom_site_fract_x
_atom_site_fract_y
_atom_site_fract_z
O1	O	0.108280	-2.126881	-0.055034
O2	O	0.608280	-1.626881	0.444966
O3	O	0.108285	-1.651397	0.028747
O4	O	0.608285	-1.151397	0.528747
O5	O	0.108281	-1.931030	-0.250886
O6	O	0.608281	-1.431030	0.249114
O7	O	0.108284	-1.847248	0.224599
O8	O	0.608284	-1.347248	0.724599
O9	O	-0.108320	-1.931009	-0.250893
O10	O	0.391680	-1.431009	0.249107
O11	O	-0.108316	-1.651376	0.028740
O12	O	0.391684	-1.151376	0.528740
O13	O	-0.108321	-2.126861	-0.055041
O14	O	0.391679	-1.626861	0.444959
Cu15	Cu	-0.128096	-1.889117	-0.013151
Cu16	Cu	0.371904	-1.389117	0.486849
Cu17	Cu	0.128060	-1.889141	-0.013143
Cu18	Cu	0.628060	-1.389141	0.486857
O19	O	-0.108317	-1.847228	0.224592
O20	O	0.391683	-1.347228	0.724592
C21	C	-0.000015	-1.591077	0.035093
C22	C	0.499985	-1.091077	0.535093
C23	C	-0.000013	-1.411378	0.053992
C24	C	0.499987	-0.911378	0.553992
N25	N	-0.308262	-1.889112	-0.013160
N26	N	0.191738	-1.389112	0.486840
C27	C	-0.000017	-1.937369	-0.311198
C28	C	0.499983	-1.437369	0.188802
C29	C	-0.000010	-1.956268	-0.490898
C30	C	0.499990	-1.456268	0.009102
C31	C	-0.573932	-1.889133	-0.013145
C32	C	-0.073932	-1.389133	0.486855
C33	C	-0.426094	-1.889115	-0.013148
C34	C	0.073906	-1.389115	0.486852
N35	N	0.308226	-1.889160	-0.013148
N36	N	0.808226	-1.389160	0.486852
C37	C	-0.000018	-2.187180	-0.061387
C38	C	0.499982	-1.687180	0.438613
C39	C	-0.000012	-2.366879	-0.080286
C40	C	0.499988	-1.866879	0.419714
C41	C	-0.000016	-1.840889	0.284904
C42	C	0.499984	-1.340889	0.784904
C43	C	-0.000014	-1.821990	0.464604
C44	C	0.499986	-1.321990	0.964604
H45	H	-0.000005	-1.311990	0.183420
H46	H	0.499995	-0.811990	0.683420
H47	H	-0.000006	-1.466258	-0.209705
H48	H	0.499994	-0.966258	0.290295
H49	H	-0.000017	-1.692570	-0.436018
H50	H	0.499983	-1.192570	0.063982
H51	H	-0.000022	-2.085696	-0.590286
H52	H	0.499978	-1.585696	-0.090286
