data_functionalizedCrystal
_audit_creation_method	'MofGen! by Chris Wilmer'
_symmetry_space_group_name_H-M	'P1'
_symmetry_Int_Tables_number	1
_symmetry_cell_setting	triclinic
loop_
_symmetry_equiv_pos_as_xyz
  x,y,z
_cell_length_a	25.639239
_cell_length_b	25.639234
_cell_length_c	16.120530
_cell_angle_alpha	92.917284
_cell_angle_beta	92.865376
_cell_angle_gamma	89.974540
loop_
_atom_site_label
_atom_site_type_symbol
_atom_site_fract_x
_atom_site_fract_y
_atom_site_fract_z
Zn1	Zn	-0.248769	-0.336094	-1.274445
Zn2	Zn	0.084564	-0.002761	-0.941112
Zn3	Zn	0.417897	0.330572	-0.607779
Zn4	Zn	-0.336193	-0.248653	-1.274304
Zn5	Zn	-0.002860	0.084680	-0.940971
Zn6	Zn	0.330474	0.418013	-0.607638
Zn7	Zn	-0.244338	-0.244244	-1.135028
Zn8	Zn	0.088996	0.089089	-0.801695
Zn9	Zn	0.422329	0.422423	-0.468361
Zn10	Zn	-0.331733	-0.331631	-1.134957
Zn11	Zn	0.001600	0.001702	-0.801623
Zn12	Zn	0.334933	0.335036	-0.468290
O13	O	-0.290258	-0.290156	-1.204684
O14	O	0.043075	0.043178	-0.871350
O15	O	0.376408	0.376511	-0.538017
O16	O	-0.264087	-0.328208	-1.391091
O17	O	0.069246	0.005125	-1.057758
O18	O	0.402580	0.338458	-0.724424
O19	O	-0.324020	-0.174902	-1.255800
O20	O	0.009313	0.158431	-0.922467
O21	O	0.342647	0.491764	-0.589133
O22	O	-0.171763	-0.256451	-1.153611
O23	O	0.161570	0.076883	-0.820278
O24	O	0.494903	0.410216	-0.486944
O25	O	-0.328317	-0.263966	-1.390987
O26	O	0.005016	0.069367	-1.057654
O27	O	0.338350	0.402701	-0.724321
O28	O	-0.175019	-0.323933	-1.256040
O29	O	0.158314	0.009401	-0.922707
O30	O	0.491648	0.342734	-0.589374
O31	O	-0.256534	-0.171663	-1.153474
O32	O	0.076799	0.161671	-0.820141
O33	O	0.410132	0.495004	-0.486808
O34	O	-0.252210	-0.252123	-1.018354
O35	O	0.081123	0.081211	-0.685021
O36	O	0.414457	0.414544	-0.351688
O37	O	-0.320716	-0.405389	-1.153489
O38	O	0.012617	-0.072056	-0.820156
O39	O	0.345951	0.261277	-0.486822
O40	O	-0.316419	-0.316326	-1.018302
O41	O	0.016914	0.017008	-0.684968
O42	O	0.350248	0.350341	-0.351635
O43	O	-0.259763	-0.408668	-1.255971
O44	O	0.073571	-0.075335	-0.922638
O45	O	0.406904	0.257998	-0.589304
O46	O	-0.408764	-0.259638	-1.255731
O47	O	-0.075430	0.073695	-0.922397
O48	O	0.257903	0.407029	-0.589064
O49	O	-0.405487	-0.320601	-1.153352
O50	O	-0.072154	0.012732	-0.820019
O51	O	0.261179	0.346065	-0.486686
C52	C	-0.283350	-0.283262	-0.988078
C53	C	0.049983	0.050072	-0.654745
C54	C	0.383317	0.383405	-0.321412
C55	C	-0.280407	-0.280325	-0.895414
C56	C	0.052926	0.053009	-0.562080
C57	C	0.386259	0.386342	-0.228747
C58	C	-0.426096	-0.290126	-1.204541
C59	C	-0.092763	0.043207	-0.871208
C60	C	0.240570	0.376541	-0.537874
C61	C	-0.484211	-0.290133	-1.204556
C62	C	-0.150878	0.043200	-0.871223
C63	C	0.182456	0.376534	-0.537890
C64	C	-0.733714	-0.321888	-1.151365
C65	C	-0.400381	0.011445	-0.818032
C66	C	-0.067048	0.344778	-0.484698
C67	C	-0.679109	-0.321881	-1.151334
C68	C	-0.345776	0.011452	-0.818001
C69	C	-0.012442	0.344785	-0.484668
O70	O	-0.649431	-0.348859	-1.105972
O71	O	-0.316098	-0.015526	-0.772639
O72	O	0.017235	0.317808	-0.439305
N73	N	-0.653488	-0.290164	-1.204661
N74	N	-0.320155	0.043170	-0.871328
N75	N	0.013179	0.376503	-0.537995
C76	C	-0.682475	-0.258455	-1.258029
C77	C	-0.349142	0.074878	-0.924695
C78	C	-0.015809	0.408212	-0.591362
O79	O	-0.655669	-0.231477	-1.303385
O80	O	-0.322335	0.101857	-0.970052
O81	O	0.010998	0.435190	-0.636719
C82	C	-0.737080	-0.258465	-1.258063
C83	C	-0.403747	0.074868	-0.924730
C84	C	-0.070413	0.408201	-0.591397
C85	C	-0.762698	-0.290181	-1.204727
C86	C	-0.429364	0.043152	-0.871393
C87	C	-0.096031	0.376486	-0.538060
C88	C	-0.759332	-0.353602	-1.098034
C89	C	-0.425999	-0.020268	-0.764700
C90	C	-0.092666	0.313065	-0.431367
C91	C	-0.813934	-0.353608	-1.098064
C92	C	-0.480601	-0.020275	-0.764730
C93	C	-0.147267	0.313059	-0.431397
C94	C	-0.842917	-0.321901	-1.151425
C95	C	-0.509584	0.011433	-0.818092
C96	C	-0.176251	0.344766	-0.484758
C97	C	-0.817299	-0.290187	-1.204757
C98	C	-0.483966	0.043146	-0.871423
C99	C	-0.150633	0.376480	-0.538090
C100	C	-0.766066	-0.226760	-1.311434
C101	C	-0.432733	0.106573	-0.978101
C102	C	-0.099400	0.439907	-0.644768
C103	C	-0.820674	-0.226773	-1.311465
C104	C	-0.487341	0.106560	-0.978131
C105	C	-0.154008	0.439894	-0.644798
C106	C	-0.846292	-0.258489	-1.258128
C107	C	-0.512959	0.074845	-0.924795
C108	C	-0.179626	0.408178	-0.591461
C109	C	-0.900884	-0.258486	-1.258148
C110	C	-0.567551	0.074847	-0.924815
C111	C	-0.234217	0.408181	-0.591482
N112	N	-0.926505	-0.290204	-1.204821
N113	N	-0.593172	0.043130	-0.871488
N114	N	-0.259838	0.376463	-0.538154
C115	C	-0.897522	-0.321911	-1.151460
C116	C	-0.564188	0.011422	-0.818126
C117	C	-0.230855	0.344756	-0.484793
C118	C	-0.567802	-0.258437	-1.257953
C119	C	-0.234469	0.074897	-0.924620
C120	C	0.098864	0.408230	-0.591287
C121	C	-0.513199	-0.258423	-1.257915
C122	C	-0.179866	0.074910	-0.924582
C123	C	0.153468	0.408243	-0.591249
C124	C	-0.509836	-0.321850	-1.151222
C125	C	-0.176503	0.011483	-0.817888
C126	C	0.156830	0.344816	-0.484555
C127	C	-0.564441	-0.321861	-1.151256
C128	C	-0.231107	0.011473	-0.817923
C129	C	0.102226	0.344806	-0.484589
C130	C	-0.593423	-0.290154	-1.204626
C131	C	-0.260090	0.043179	-0.871293
C132	C	0.073243	0.376512	-0.537960
C133	C	-1.012189	-0.321921	-1.151526
C134	C	-0.678856	0.011412	-0.818193
C135	C	-0.345522	0.344746	-0.484859
C136	C	-1.066795	-0.321923	-1.151558
C137	C	-0.733462	0.011410	-0.818225
C138	C	-0.400129	0.344744	-0.484892
C139	C	-1.070153	-0.258498	-1.258255
C140	C	-0.736820	0.074835	-0.924921
C141	C	-0.403487	0.408168	-0.591588
C142	C	-1.015551	-0.258494	-1.258220
C143	C	-0.682218	0.074839	-0.924886
C144	C	-0.348885	0.408172	-0.591553
C145	C	-0.986571	-0.290210	-1.204853
C146	C	-0.653237	0.043124	-0.871519
C147	C	-0.319904	0.376457	-0.538186
O148	O	-0.930596	-0.231524	-1.303490
O149	O	-0.597263	0.101810	-0.970156
O150	O	-0.263929	0.435143	-0.636823
O151	O	-0.924336	-0.348890	-1.106118
O152	O	-0.591002	-0.015557	-0.772785
O153	O	-0.257669	0.317777	-0.439452
C154	C	-0.290236	-0.426530	-1.204738
C155	C	0.043097	-0.093197	-0.871404
C156	C	0.376431	0.240136	-0.538071
C157	C	-0.290227	-0.484645	-1.204761
C158	C	0.043107	-0.151312	-0.871428
C159	C	0.376440	0.182021	-0.538094
C160	C	-0.153891	-0.290198	-1.204849
C161	C	0.179443	0.043136	-0.871516
C162	C	0.512776	0.376469	-0.538183
C163	C	-0.095779	-0.290216	-1.204920
C164	C	0.237555	0.043118	-0.871587
C165	C	0.570888	0.376451	-0.538253
C166	C	-0.255025	-0.843328	-1.151503
C167	C	0.078308	-0.509994	-0.818170
C168	C	0.411641	-0.176661	-0.484837
C169	C	-0.255016	-0.897932	-1.151508
C170	C	0.078317	-0.564599	-0.818174
C171	C	0.411651	-0.231266	-0.484841
O172	O	-0.225143	-0.924739	-1.106184
O173	O	0.108190	-0.591405	-0.772851
O174	O	0.441524	-0.258072	-0.439517
N175	N	-0.290146	-0.926929	-1.204789
N176	N	0.043188	-0.593595	-0.871455
N177	N	0.376521	-0.260262	-0.538122
C178	C	-0.325290	-0.901318	-1.258062
C179	C	0.008043	-0.567985	-0.924729
C180	C	0.341376	-0.234651	-0.591396
O181	O	-0.355170	-0.930996	-1.303382
O182	O	-0.021837	-0.597662	-0.970048
O183	O	0.311497	-0.264329	-0.636715
C184	C	-0.325302	-0.846714	-1.258053
C185	C	0.008032	-0.513381	-0.924720
C186	C	0.341365	-0.180048	-0.591386
C187	C	-0.290166	-0.817721	-1.204775
C188	C	0.043167	-0.484387	-0.871441
C189	C	0.376500	-0.151054	-0.538108
C190	C	-0.219893	-0.814334	-1.098229
C191	C	0.113440	-0.481001	-0.764895
C192	C	0.446773	-0.147668	-0.431562
C193	C	-0.219902	-0.759734	-1.098225
C194	C	0.113431	-0.426400	-0.764892
C195	C	0.446764	-0.093067	-0.431559
C196	C	-0.255043	-0.734126	-1.151497
C197	C	0.078290	-0.400793	-0.818164
C198	C	0.411624	-0.067460	-0.484830
C199	C	-0.290175	-0.763120	-1.204772
C200	C	0.043158	-0.429787	-0.871438
C201	C	0.376492	-0.096453	-0.538105
C202	C	-0.360448	-0.821104	-1.311322
C203	C	-0.027115	-0.487771	-0.977989
C204	C	0.306218	-0.154437	-0.644655
C205	C	-0.360457	-0.766497	-1.311308
C206	C	-0.027124	-0.433163	-0.977974
C207	C	0.306210	-0.099830	-0.644641
C208	C	-0.325322	-0.737503	-1.258029
C209	C	0.008012	-0.404170	-0.924696
C210	C	0.341345	-0.070836	-0.591363
C211	C	-0.325325	-0.682912	-1.258040
C212	C	0.008009	-0.349579	-0.924706
C213	C	0.341342	-0.016245	-0.591373
N214	N	-0.290195	-0.653916	-1.204759
N215	N	0.043138	-0.320582	-0.871426
N216	N	0.376471	0.012751	-0.538092
C217	C	-0.255055	-0.679523	-1.151488
C218	C	0.078279	-0.346189	-0.818154
C219	C	0.411612	-0.012856	-0.484821
C220	C	-0.325264	-1.015989	-1.258077
C221	C	0.008069	-0.682656	-0.924744
C222	C	0.341403	-0.349322	-0.591410
C223	C	-0.325251	-1.070592	-1.258091
C224	C	0.008083	-0.737258	-0.924758
C225	C	0.341416	-0.403925	-0.591424
C226	C	-0.254977	-1.067202	-1.151535
C227	C	0.078356	-0.733869	-0.818202
C228	C	0.411690	-0.400536	-0.484868
C229	C	-0.254989	-1.012599	-1.151526
C230	C	0.078345	-0.679265	-0.818192
C231	C	0.411678	-0.345932	-0.484859
C232	C	-0.290135	-0.986993	-1.204796
C233	C	0.043199	-0.653659	-0.871463
C234	C	0.376532	-0.320326	-0.538129
C235	C	-0.255075	-0.564858	-1.151485
C236	C	0.078258	-0.231524	-0.818152
C237	C	0.411591	0.101809	-0.484819
C238	C	-0.255086	-0.510252	-1.151489
C239	C	0.078247	-0.176919	-0.818156
C240	C	0.411581	0.156414	-0.484823
C241	C	-0.325361	-0.513646	-1.258042
C242	C	0.007972	-0.180313	-0.924709
C243	C	0.341306	0.153020	-0.591375
C244	C	-0.325349	-0.568247	-1.258041
C245	C	0.007984	-0.234914	-0.924708
C246	C	0.341318	0.098420	-0.591375
C247	C	-0.290204	-0.593851	-1.204756
C248	C	0.043129	-0.260518	-0.871423
C249	C	0.376462	0.072816	-0.538090
O250	O	-0.355184	-0.656070	-1.303338
O251	O	-0.021851	-0.322737	-0.970005
O252	O	0.311483	0.010596	-0.636671
O253	O	-0.225184	-0.649838	-1.106168
O254	O	0.108149	-0.316505	-0.772835
O255	O	0.441482	0.016828	-0.439501
C256	C	-0.290244	-0.154313	-1.204678
C257	C	0.043089	0.179020	-0.871344
C258	C	0.376423	0.512354	-0.538011
C259	C	-0.290111	-0.096204	-1.204816
C260	C	0.043222	0.237130	-0.871483
C261	C	0.376555	0.570463	-0.538149
C262	C	-0.297194	-0.297077	-1.422135
C263	C	0.036140	0.036256	-1.088801
C264	C	0.369473	0.369590	-0.755468
C265	C	-0.300149	-0.300026	-1.514799
C266	C	0.033184	0.033307	-1.181466
C267	C	0.366517	0.366640	-0.848133
C268	C	-0.275023	-0.274967	-0.725754
C269	C	0.058311	0.058366	-0.392421
C270	C	0.391644	0.391699	-0.059088
C271	C	-0.305532	-0.305382	-0.684453
C272	C	0.027801	0.027951	-0.351120
C273	C	0.361134	0.361284	-0.017787
C274	C	-0.302536	-0.302401	-0.590049
C275	C	0.030797	0.030932	-0.256716
C276	C	0.364130	0.364265	0.076618
C277	C	-0.278018	-0.277947	-0.820167
C278	C	0.055315	0.055386	-0.486834
C279	C	0.388649	0.388719	-0.153500
H280	H	-1.087651	-0.347751	-1.108124
H281	H	-0.754317	-0.014418	-0.774790
H282	H	-0.420984	0.318916	-0.441457
H283	H	-0.333902	-0.333661	-0.719995
H284	H	-0.000569	-0.000327	-0.386661
H285	H	0.332764	0.333006	-0.053328
H286	H	-0.226472	-0.486648	-1.108104
H287	H	0.106861	-0.153315	-0.774770
H288	H	0.440195	0.180019	-0.441437
O289	O	-0.237459	-0.237494	-0.678687
O290	O	0.095874	0.095839	-0.345353
O291	O	0.429207	0.429172	-0.012020
H292	H	-0.240984	-0.240996	-0.610850
H293	H	0.092349	0.092338	-0.277517
H294	H	0.425682	0.425671	0.055816
O295	O	-0.987926	-0.224291	-1.315762
O296	O	-0.654592	0.109042	-0.982428
O297	O	-0.321259	0.442375	-0.649095
H298	H	-0.964366	-0.249071	-1.358140
H299	H	-0.631032	0.084263	-1.024807
H300	H	-0.297699	0.417596	-0.691473
O301	O	-0.363240	-0.599522	-1.315512
O302	O	-0.029906	-0.266189	-0.982179
O303	O	0.303427	0.067144	-0.648845
H304	H	-0.388644	-0.623198	-1.278165
H305	H	-0.055311	-0.289865	-0.944832
H306	H	0.278023	0.043468	-0.611498
O307	O	-0.478573	-0.356048	-1.093657
O308	O	-0.145239	-0.022715	-0.760324
O309	O	0.188094	0.310618	-0.426990
H310	H	-0.489474	-0.397547	-1.107915
H311	H	-0.156141	-0.064213	-0.774582
H312	H	0.177192	0.269120	-0.441248
O313	O	-0.485570	-0.224216	-1.315442
O314	O	-0.152236	0.109117	-0.982109
O315	O	0.181097	0.442450	-0.648775
H316	H	-0.495631	-0.182722	-1.301194
H317	H	-0.162298	0.150612	-0.967861
H318	H	0.171036	0.483945	-0.634527
O319	O	-0.599066	-0.224235	-1.315511
O320	O	-0.265733	0.109099	-0.982178
O321	O	0.067601	0.442432	-0.648845
H322	H	-0.588168	-0.182737	-1.301236
H323	H	-0.254835	0.150596	-0.967902
H324	H	0.078498	0.483930	-0.634569
H325	H	-0.745216	-0.200934	-1.354866
H326	H	-0.411883	0.132399	-1.021533
H327	H	-0.078549	0.465732	-0.688199
H328	H	-1.093761	-0.232681	-1.301697
H329	H	-0.760428	0.100652	-0.968364
H330	H	-0.427095	0.433986	-0.635031
O331	O	-0.851935	-0.192572	-1.369024
O332	O	-0.518602	0.140762	-1.035691
O333	O	-0.185269	0.474095	-0.702357
H334	H	-0.824944	-0.170516	-1.406097
H335	H	-0.491611	0.162818	-1.072764
H336	H	-0.158277	0.496151	-0.739430
H337	H	-0.988599	-0.347748	-1.108071
H338	H	-0.655265	-0.014414	-0.774737
H339	H	-0.321932	0.318919	-0.441404
H340	H	-0.834787	-0.379433	-1.054630
H341	H	-0.501454	-0.046100	-0.721297
H342	H	-0.168120	0.287233	-0.387963
O343	O	-0.363262	-0.486024	-1.315499
O344	O	-0.029929	-0.152690	-0.982166
O345	O	0.303404	0.180643	-0.648832
H346	H	-0.388676	-0.459950	-1.278142
H347	H	-0.055343	-0.126617	-0.944809
H348	H	0.277991	0.206716	-0.611476
O349	O	-0.728081	-0.387796	-1.040457
O350	O	-0.394747	-0.054463	-0.707123
O351	O	-0.061414	0.278871	-0.373790
H352	H	-0.738986	-0.429294	-1.054709
H353	H	-0.405653	-0.095961	-0.721376
H354	H	-0.072319	0.237373	-0.388042
O355	O	-0.592071	-0.356072	-1.093737
O356	O	-0.258738	-0.022739	-0.760404
O357	O	0.074595	0.310595	-0.427070
H358	H	-0.562738	-0.378119	-1.056632
H359	H	-0.229405	-0.044785	-0.723299
H360	H	0.103928	0.288548	-0.389966
O361	O	-0.217166	-0.592471	-1.094024
O362	O	0.116167	-0.259137	-0.760690
O363	O	0.449501	0.074196	-0.427357
H364	H	-0.192737	-0.563129	-1.056989
H365	H	0.140596	-0.229796	-0.723656
H366	H	0.473930	0.103537	-0.390323
H367	H	-0.226364	-1.088062	-1.108158
H368	H	0.106970	-0.754728	-0.774825
H369	H	0.440303	-0.421395	-0.441491
H370	H	-0.191277	-0.835177	-1.054844
H371	H	0.142056	-0.501844	-0.721511
H372	H	0.475390	-0.168511	-0.388178
O373	O	-0.182004	-0.728464	-1.040765
O374	O	0.151329	-0.395131	-0.707432
O375	O	0.484663	-0.061798	-0.374098
H376	H	-0.157571	-0.755452	-1.003726
H377	H	0.175762	-0.422118	-0.670393
H378	H	0.509095	-0.088785	-0.337059
O379	O	-0.217094	-0.981328	-1.094062
O380	O	0.116239	-0.647994	-0.760728
O381	O	0.449573	-0.314661	-0.427395
H382	H	-0.192659	-1.008313	-1.057022
H383	H	0.140674	-0.674980	-0.723689
H384	H	0.474007	-0.341646	-0.390356
H385	H	-0.353856	-1.094194	-1.301485
H386	H	-0.020522	-0.760861	-0.968152
H387	H	0.312811	-0.427528	-0.634818
H388	H	-0.353882	-0.995144	-1.301466
H389	H	-0.020548	-0.661811	-0.968133
H390	H	0.312785	-0.328478	-0.634800
O391	O	-0.398365	-0.738883	-1.368774
O392	O	-0.065031	-0.405550	-1.035441
O393	O	0.268302	-0.072217	-0.702107
H394	H	-0.423783	-0.712809	-1.331429
H395	H	-0.090450	-0.379475	-0.998096
H396	H	0.242883	-0.046142	-0.664763
O397	O	-0.398357	-0.852368	-1.368766
O398	O	-0.065024	-0.519034	-1.035433
O399	O	0.268310	-0.185701	-0.702099
H400	H	-0.422799	-0.825379	-1.405787
H401	H	-0.089466	-0.492046	-1.072454
H402	H	0.243868	-0.158712	-0.739120
