data_functionalizedCrystal
_audit_creation_method	'MofGen! by Chris Wilmer'
_symmetry_space_group_name_H-M	'P1'
_symmetry_Int_Tables_number	1
_symmetry_cell_setting	triclinic
loop_
_symmetry_equiv_pos_as_xyz
  x,y,z
_cell_length_a	14.971486
_cell_length_b	10.540539
_cell_length_c	14.048226
_cell_angle_alpha	89.995726
_cell_angle_beta	89.998499
_cell_angle_gamma	84.069810
loop_
_atom_site_label
_atom_site_type_symbol
_atom_site_fract_x
_atom_site_fract_y
_atom_site_fract_z
O1	O	1.187879	0.165423	-0.079046
O2	O	0.927591	0.185233	-0.079072
O3	O	1.063673	-0.009446	-0.079057
O4	O	1.051796	0.360102	-0.079061
O5	O	1.063657	-0.009457	0.079264
O6	O	0.927574	0.185221	0.079249
O7	O	1.187862	0.165412	0.079275
Zn8	Zn	1.057716	0.175315	0.104399
Zn9	Zn	1.057737	0.175330	-0.104196
O10	O	1.051780	0.360090	0.079260
C11	C	0.894253	0.184341	0.000085
C12	C	0.794940	0.181686	0.000076
C13	C	0.738360	0.296055	0.000076
C14	C	0.645046	0.293553	0.000090
C15	C	0.608315	0.176681	0.000097
C16	C	0.664903	0.062303	0.000100
C17	C	0.758215	0.064807	0.000092
C18	C	0.470412	0.057094	0.000113
C19	C	0.377093	0.054590	0.000119
C20	C	0.357242	0.285839	0.000111
C21	C	0.450554	0.288343	0.000103
C22	C	0.507136	0.173965	0.000104
C23	C	1.062774	-0.056745	0.000101
C24	C	1.060109	-0.197662	0.000096
C25	C	0.958001	-0.379931	-0.000269
C26	C	0.960702	-0.233343	0.000087
C27	C	1.107939	-0.259870	0.090510
C28	C	1.104547	-0.406376	0.090586
C29	C	1.106587	-0.406904	-0.089455
C30	C	1.107503	-0.259932	-0.090650
C31	C	1.221200	0.166303	0.000115
C32	C	1.320512	0.168958	0.000119
C33	C	1.052679	0.407389	0.000099
C34	C	1.055344	0.548307	0.000099
N35	N	1.057707	0.175303	0.246760
N36	N	1.057753	0.175331	-0.246557
C37	C	1.117984	0.089135	0.296584
C38	C	1.117990	0.089135	0.396242
C39	C	1.057723	0.175309	0.446073
C40	C	0.997440	0.261481	0.396242
C41	C	0.997430	0.261475	0.296586
C42	C	0.997466	0.261491	0.603956
C43	C	0.997476	0.261499	0.703619
C44	C	1.118025	0.089150	0.703612
C45	C	1.118016	0.089144	0.603956
C46	C	1.057733	0.175318	0.554132
H47	H	0.480457	0.383510	0.000088
H48	H	1.167064	0.018968	0.256018
H49	H	1.176039	-0.455156	0.094694
C50	C	1.060270	-0.204118	-0.181014
N51	N	1.024685	-0.162083	-0.249074
C52	C	0.931137	0.356262	0.451060
N53	N	0.881196	0.427653	0.492348
C54	C	1.184333	-0.005647	0.758421
N55	N	1.234276	-0.077044	0.799707
C56	C	0.931128	0.356277	0.241780
N57	N	0.881188	0.427685	0.200501
C58	C	0.909486	-0.176353	0.087785
N59	N	0.870909	-0.133429	0.153844
H60	H	0.918739	-0.408080	-0.065107
C61	C	0.931174	0.356288	0.758431
N62	N	0.881233	0.427682	0.799716
H63	H	1.179979	-0.236533	-0.096103
C64	C	0.624496	-0.066257	0.000110
N65	N	0.594063	-0.163092	0.000113
H66	H	1.178389	-0.454944	-0.090056
C67	C	0.295001	0.411657	0.000115
N68	N	0.248116	0.506418	0.000115
H69	H	0.768258	0.391225	0.000069
C70	C	1.184278	-0.005688	0.451044
N71	N	1.234200	-0.077124	0.492321
H72	H	1.167094	0.018981	0.563384
H73	H	0.598981	0.386683	0.000089
H74	H	0.347191	-0.040578	0.000126
H75	H	0.516479	-0.036045	0.000115
H76	H	0.804283	-0.028324	0.000092
C77	C	1.063031	-0.201828	0.181399
N78	N	1.029200	-0.158113	0.249855
C79	C	0.909851	-0.175200	-0.087467
N80	N	0.871542	-0.131412	-0.153414
C81	C	0.905167	-0.420106	0.086843
N82	N	0.865379	-0.450355	0.152464
C83	C	1.056763	-0.443938	0.181877
N84	N	1.020768	-0.472222	0.250637
H85	H	1.180941	-0.238344	0.093879
H86	H	1.074421	-0.438087	-0.157982
H87	H	0.948374	0.331659	0.563392
