data_functionalizedCrystal
_audit_creation_method	'MofGen! by Chris Wilmer'
_symmetry_space_group_name_H-M	'P1'
_symmetry_Int_Tables_number	1
_symmetry_cell_setting	triclinic
loop_
_symmetry_equiv_pos_as_xyz
  x,y,z
_cell_length_a	25.639239
_cell_length_b	16.959455
_cell_length_c	16.959447
_cell_angle_alpha	90.020374
_cell_angle_beta	90.033076
_cell_angle_gamma	90.035706
loop_
_atom_site_label
_atom_site_type_symbol
_atom_site_fract_x
_atom_site_fract_y
_atom_site_fract_z
Zn1	Zn	-0.208182	1.208282	0.447021
Zn2	Zn	0.125151	1.541615	0.780354
Zn3	Zn	0.458485	1.874948	1.113688
Zn4	Zn	-0.295623	1.208161	0.314836
Zn5	Zn	0.037711	1.541494	0.648170
Zn6	Zn	0.371044	1.874828	0.981503
Zn7	Zn	-0.208199	1.076110	0.314845
Zn8	Zn	0.125135	1.409443	0.648178
Zn9	Zn	0.458468	1.742777	0.981511
Zn10	Zn	-0.295584	1.076032	0.446961
Zn11	Zn	0.037750	1.409365	0.780294
Zn12	Zn	0.371083	1.742698	1.113628
O13	O	-0.251897	1.142146	0.380916
O14	O	0.081437	1.475479	0.714249
O15	O	0.414770	1.808813	1.047582
O16	O	-0.219791	1.318876	0.429508
O17	O	0.113543	1.652210	0.762842
O18	O	0.446876	1.985543	1.096175
O19	O	-0.284049	1.190627	0.204226
O20	O	0.049284	1.523960	0.537560
O21	O	0.382618	1.857293	0.870893
O22	O	-0.135031	1.093726	0.332407
O23	O	0.198302	1.427059	0.665740
O24	O	0.531636	1.760393	0.999074
O25	O	-0.284033	1.318788	0.332393
O26	O	0.049300	1.652121	0.665726
O27	O	0.382634	1.985455	0.999059
O28	O	-0.135019	1.190832	0.429516
O29	O	0.198314	1.524165	0.762850
O30	O	0.531648	1.857499	1.096183
O31	O	-0.219819	1.093609	0.204233
O32	O	0.113515	1.426943	0.537566
O33	O	0.446848	1.760276	0.870899
O34	O	-0.219781	0.965489	0.332348
O35	O	0.113552	1.298822	0.665682
O36	O	0.446886	1.632155	0.999015
O37	O	-0.283966	1.093593	0.557580
O38	O	0.049367	1.426926	0.890913
O39	O	0.382700	1.760259	1.224246
O40	O	-0.283982	0.965431	0.429414
O41	O	0.049351	1.298765	0.762747
O42	O	0.382684	1.632098	1.096080
O43	O	-0.219753	1.190756	0.557624
O44	O	0.113581	1.524089	0.890957
O45	O	0.446914	1.857423	1.224291
O46	O	-0.368783	1.190551	0.332334
O47	O	-0.035449	1.523884	0.665667
O48	O	0.297884	1.857217	0.999001
O49	O	-0.368754	1.093476	0.429405
O50	O	-0.035421	1.426809	0.762739
O51	O	0.297913	1.760143	1.096072
C52	C	-0.251880	0.936780	0.380876
C53	C	0.081454	1.270113	0.714209
C54	C	0.414787	1.603447	1.047543
C55	C	-0.251885	0.848923	0.380878
C56	C	0.081448	1.182257	0.714211
C57	C	0.414782	1.515590	1.047544
C58	C	-0.285315	0.477391	0.330322
C59	C	0.048019	0.810724	0.663655
C60	C	0.381352	1.144058	0.996988
C61	C	-0.218522	0.477504	0.431606
C62	C	0.114811	0.810838	0.764939
C63	C	0.448144	1.144171	1.098273
C64	C	-0.218514	0.560050	0.431587
C65	C	0.114820	0.893384	0.764920
C66	C	0.448153	1.226717	1.098253
C67	C	-0.251907	0.601270	0.380935
C68	C	0.081427	0.934604	0.714268
C69	C	0.414760	1.267937	1.047602
C70	C	-0.285308	0.559945	0.330303
C71	C	0.048025	0.893278	0.663636
C72	C	0.381359	1.226611	0.996969
C73	C	-0.185117	0.601382	0.482224
C74	C	0.148217	0.934716	0.815557
C75	C	0.481550	1.268049	1.148890
C76	C	-0.185107	0.683933	0.482207
C77	C	0.148226	1.017267	0.815541
C78	C	0.481560	1.350600	1.148874
C79	C	-0.218498	0.725155	0.431551
C80	C	0.114836	1.058488	0.764884
C81	C	0.448169	1.391821	1.098218
C82	C	-0.251900	0.683824	0.380916
C83	C	0.081433	1.017157	0.714249
C84	C	0.414767	1.350491	1.047583
C85	C	-0.285293	0.725044	0.330264
C86	C	0.048040	1.058377	0.663598
C87	C	0.381374	1.391711	0.996931
C88	C	-0.318693	0.683714	0.279625
C89	C	0.014640	1.017048	0.612958
C90	C	0.347974	1.350381	0.946291
C91	C	-0.318699	0.601166	0.279646
C92	C	0.014635	0.934499	0.612980
C93	C	0.347968	1.267833	0.946313
C94	C	-0.218492	0.807703	0.431529
C95	C	0.114841	1.141037	0.764863
C96	C	0.448175	1.474370	1.098196
C97	C	-0.285286	0.807597	0.330245
C98	C	0.048047	1.140931	0.663579
C99	C	0.381380	1.474264	0.996912
C100	C	-0.387739	1.142013	0.380880
C101	C	-0.054406	1.475347	0.714213
C102	C	0.278927	1.808680	1.047546
C103	C	-0.445853	1.142029	0.380890
C104	C	-0.112520	1.475362	0.714224
C105	C	0.220813	1.808695	1.047557
C106	C	-0.806219	1.192825	0.330457
C107	C	-0.472885	1.526158	0.663790
C108	C	-0.139552	1.859492	0.997123
C109	C	-0.860823	1.192856	0.330467
C110	C	-0.527490	1.526189	0.663801
C111	C	-0.194156	1.859522	0.997134
O112	O	-0.889062	1.235906	0.287547
O113	O	-0.555728	1.569240	0.620880
O114	O	-0.222395	1.902573	0.954214
N115	N	-0.888136	1.142285	0.380968
N116	N	-0.554802	1.475618	0.714301
N117	N	-0.221469	1.808952	1.047635
C118	C	-0.860841	1.091686	0.431467
C119	C	-0.527508	1.425020	0.764801
C120	C	-0.194175	1.758353	1.098134
O121	O	-0.889087	1.048676	0.474424
O122	O	-0.555754	1.382009	0.807757
O123	O	-0.222420	1.715342	1.141090
C124	C	-0.806238	1.091660	0.431460
C125	C	-0.472905	1.424994	0.764793
C126	C	-0.139571	1.758327	1.098127
C127	C	-0.778928	1.142228	0.380950
C128	C	-0.445595	1.475562	0.714284
C129	C	-0.112261	1.808895	1.047617
C130	C	-0.778909	1.243390	0.279952
C131	C	-0.445575	1.576723	0.613285
C132	C	-0.112242	1.910056	0.946618
C133	C	-0.724308	1.243358	0.279940
C134	C	-0.390975	1.576691	0.613274
C135	C	-0.057642	1.910024	0.946607
C136	C	-0.697018	1.192761	0.330434
C137	C	-0.363684	1.526094	0.663767
C138	C	-0.030351	1.859428	0.997101
C139	C	-0.724328	1.142197	0.380939
C140	C	-0.390994	1.475530	0.714272
C141	C	-0.057661	1.808863	1.047606
C142	C	-0.778945	1.041066	0.481963
C143	C	-0.445611	1.374399	0.815296
C144	C	-0.112278	1.707733	1.148629
C145	C	-0.724338	1.041045	0.481952
C146	C	-0.391004	1.374378	0.815285
C147	C	-0.057671	1.707711	1.148618
C148	C	-0.697028	1.091613	0.431442
C149	C	-0.363694	1.424946	0.764775
C150	C	-0.030361	1.758280	1.098108
C151	C	-0.642437	1.091568	0.431421
C152	C	-0.309103	1.424901	0.764754
C153	C	0.024230	1.758235	1.098088
N154	N	-0.615124	1.142139	0.380920
N155	N	-0.281790	1.475472	0.714254
N156	N	0.051543	1.808805	1.047587
C157	C	-0.642414	1.192735	0.330427
C158	C	-0.309081	1.526068	0.663760
C159	C	0.024252	1.859402	0.997093
C160	C	-0.975512	1.091746	0.431479
C161	C	-0.642179	1.425079	0.764813
C162	C	-0.308845	1.758413	1.098146
C163	C	-1.030114	1.091767	0.431483
C164	C	-0.696781	1.425101	0.764817
C165	C	-0.363448	1.758434	1.098150
C166	C	-1.030092	1.192938	0.330484
C167	C	-0.696759	1.526271	0.663818
C168	C	-0.363425	1.859604	0.997151
C169	C	-0.975489	1.192912	0.330477
C170	C	-0.642156	1.526245	0.663810
C171	C	-0.308822	1.859578	0.997144
C172	C	-0.948199	1.142316	0.380979
C173	C	-0.614866	1.475650	0.714312
C174	C	-0.281533	1.808983	1.047645
C175	C	-0.527749	1.192664	0.330406
C176	C	-0.194416	1.525997	0.663739
C177	C	0.138917	1.859331	0.997073
C178	C	-0.473144	1.192625	0.330397
C179	C	-0.139811	1.525958	0.663730
C180	C	0.193523	1.859292	0.997064
C181	C	-0.473171	1.091458	0.431399
C182	C	-0.139837	1.424791	0.764732
C183	C	0.193496	1.758125	1.098065
C184	C	-0.527771	1.091493	0.431405
C185	C	-0.194438	1.424827	0.764739
C186	C	0.138895	1.758160	1.098072
C187	C	-0.555059	1.142103	0.380906
C188	C	-0.221726	1.475436	0.714240
C189	C	0.111607	1.808769	1.047573
O190	O	-0.614163	1.048541	0.474322
O191	O	-0.280830	1.381875	0.807655
O192	O	0.052504	1.715208	1.140988
O193	O	-0.614162	1.235746	0.287485
O194	O	-0.280829	1.569079	0.620818
O195	O	0.052505	1.902413	0.954152
C196	C	-0.115524	1.142301	0.380969
C197	C	0.217810	1.475634	0.714303
C198	C	0.551143	1.808968	1.047636
C199	C	-0.057410	1.142367	0.380992
C200	C	0.275924	1.475700	0.714326
C201	C	0.609257	1.809034	1.047659
C202	C	-0.251853	1.142179	0.587084
C203	C	0.081480	1.475512	0.920417
C204	C	0.414813	1.808846	1.253751
C205	C	-0.251835	1.142193	0.674941
C206	C	0.081498	1.475526	1.008274
C207	C	0.414832	1.808860	1.341607
C208	C	-0.251914	1.348314	0.380956
C209	C	0.081419	1.681648	0.714289
C210	C	0.414752	2.014981	1.047623
C211	C	-0.251922	1.436171	0.380973
C212	C	0.081412	1.769504	0.714307
C213	C	0.414745	2.102838	1.047640
C214	C	-0.251902	1.142159	0.175549
C215	C	0.081431	1.475492	0.508883
C216	C	0.414765	1.808826	0.842216
C217	C	-0.251773	1.142298	0.087693
C218	C	0.081560	1.475631	0.421027
C219	C	0.414893	1.808965	0.754360
C220	C	-0.285213	1.091699	1.046396
C221	C	0.048120	1.425032	1.379729
C222	C	0.381454	1.758366	1.713063
C223	C	-0.218347	1.192876	1.046437
C224	C	0.114987	1.526209	1.379770
C225	C	0.448320	1.859543	1.713104
C226	C	-0.218358	1.192855	0.963891
C227	C	0.114975	1.526188	1.297225
C228	C	0.448309	1.859522	1.630558
C229	C	-0.251798	1.142256	0.922594
C230	C	0.081536	1.475589	1.255927
C231	C	0.414869	1.808923	1.589260
C232	C	-0.285226	1.091678	0.963842
C233	C	0.048107	1.425011	1.297176
C234	C	0.381441	1.758345	1.630509
C235	C	-0.184934	1.243438	0.922636
C236	C	0.148400	1.576771	1.255970
C237	C	0.481733	1.910104	1.589303
C238	C	-0.184944	1.243419	0.840085
C239	C	0.148390	1.576753	1.173419
C240	C	0.481723	1.910086	1.506752
C241	C	-0.218381	1.192816	0.798787
C242	C	0.114952	1.526149	1.132120
C243	C	0.448285	1.859482	1.465453
C244	C	-0.251811	1.142235	0.840040
C245	C	0.081523	1.475568	1.173374
C246	C	0.414856	1.808902	1.506707
C247	C	-0.285250	1.091636	0.798743
C248	C	0.048083	1.424969	1.132076
C249	C	0.381416	1.758303	1.465409
C250	C	-0.318678	1.041051	0.839995
C251	C	0.014656	1.374384	1.173328
C252	C	0.347989	1.707717	1.506662
C253	C	-0.318664	1.041074	0.922543
C254	C	0.014670	1.374408	1.255877
C255	C	0.348003	1.707741	1.589210
C256	C	-0.218395	1.192792	0.716238
C257	C	0.114938	1.526125	1.049571
C258	C	0.448271	1.859459	1.382905
C259	C	-0.285264	1.091615	0.716189
C260	C	0.048070	1.424948	1.049523
C261	C	0.381403	1.758282	1.382856
H262	H	-0.312478	0.841153	0.288995
H263	H	0.020856	1.174486	0.622329
H264	H	0.354189	1.507820	0.955662
H265	H	-0.549961	1.233877	0.289287
H266	H	-0.216627	1.567210	0.622620
H267	H	0.116706	1.900543	0.955954
Br268	Br	-1.067140	1.261602	0.261953
Br269	Br	-0.733806	1.594935	0.595286
Br270	Br	-0.400473	1.928269	0.928620
H271	H	-0.450942	1.050260	0.472508
H272	H	-0.117609	1.383594	0.805841
H273	H	0.215724	1.716927	1.139174
H274	H	-1.052345	1.050582	0.472606
H275	H	-0.719012	1.383916	0.805939
H276	H	-0.385679	1.717249	1.139273
H277	H	-0.345880	0.999893	0.956138
H278	H	-0.012547	1.333227	1.289472
H279	H	0.320787	1.666560	1.622805
H280	H	-0.157712	1.284638	0.956267
H281	H	0.175621	1.617971	1.289600
H282	H	0.508955	1.951304	1.622934
H283	H	-0.345884	0.717287	0.238388
H284	H	-0.012551	1.050620	0.571722
H285	H	0.320782	1.383953	0.905055
H286	H	-0.801123	1.284596	0.238834
H287	H	-0.467790	1.617929	0.572167
H288	H	-0.134456	1.951262	0.905500
H289	H	-0.953256	1.234089	0.289348
H290	H	-0.619923	1.567422	0.622682
H291	H	-0.286590	1.900756	0.956015
Br292	Br	-0.172972	1.261551	1.102484
Br293	Br	0.160361	1.594884	1.435817
Br294	Br	0.493695	1.928218	1.769150
H295	H	-0.953295	1.050538	0.472602
H296	H	-0.619962	1.383872	0.805935
H297	H	-0.286629	1.717205	1.139268
Br298	Br	-0.815994	0.972442	0.550525
Br299	Br	-0.482661	1.305775	0.883858
Br300	Br	-0.149328	1.639108	1.217191
Br301	Br	-0.436084	1.261256	0.261842
Br302	Br	-0.102750	1.594590	0.595175
Br303	Br	0.230583	1.927923	0.928508
Br304	Br	-0.687305	0.972378	0.550497
Br305	Br	-0.353972	1.305712	0.883830
Br306	Br	-0.020638	1.639045	1.217163
H307	H	-0.157910	0.717577	0.523441
H308	H	0.175423	1.050910	0.856774
H309	H	0.508756	1.384243	1.190107
H310	H	-0.191299	0.841350	0.472761
H311	H	0.142034	1.174683	0.806094
H312	H	0.475367	1.508017	1.139427
H313	H	-0.345907	0.999857	0.806360
H314	H	-0.012573	1.333190	1.139693
H315	H	0.320760	1.666523	1.473027
Br316	Br	-0.687253	1.312001	0.211399
Br317	Br	-0.353920	1.645335	0.544733
Br318	Br	-0.020586	1.978668	0.878066
H319	H	-0.312490	1.050404	0.682571
H320	H	0.020843	1.383737	1.015904
H321	H	0.354177	1.717070	1.349237
H322	H	-0.550008	1.050319	0.472537
H323	H	-0.216675	1.383652	0.805870
H324	H	0.116658	1.716986	1.139203
H325	H	-0.345891	0.567508	0.238418
H326	H	-0.012558	0.900842	0.571751
H327	H	0.320776	1.234175	0.905085
H328	H	-0.312427	1.050512	1.079987
H329	H	0.020906	1.383845	1.413320
H330	H	0.354240	1.717178	1.746654
H331	H	-0.312507	0.443737	0.289090
H332	H	0.020827	0.777070	0.622423
H333	H	0.354160	1.110404	0.955757
Br334	Br	-0.173213	0.421563	0.500355
Br335	Br	0.160120	0.754896	0.833688
Br336	Br	0.493454	1.088230	1.167022
H337	H	-0.157725	1.284608	0.806505
H338	H	0.175608	1.617942	1.139838
H339	H	0.508942	1.951275	1.473172
H340	H	-0.157933	0.567815	0.523466
H341	H	0.175400	0.901148	0.856800
H342	H	0.508733	1.234482	1.190133
Br343	Br	-0.173039	1.261445	0.660256
Br344	Br	0.160295	1.594778	0.993589
Br345	Br	0.493628	1.928111	1.326923
