data_functionalizedCrystal
_audit_creation_method	'MofGen! by Chris Wilmer'
_symmetry_space_group_name_H-M	'P1'
_symmetry_Int_Tables_number	1
_symmetry_cell_setting	triclinic
loop_
_symmetry_equiv_pos_as_xyz
  x,y,z
_cell_length_a	27.732048
_cell_length_b	13.339070
_cell_length_c	12.376457
_cell_angle_alpha	104.398083
_cell_angle_beta	78.807411
_cell_angle_gamma	99.135975
loop_
_atom_site_label
_atom_site_type_symbol
_atom_site_fract_x
_atom_site_fract_y
_atom_site_fract_z
O1	O	0.664111	0.100655	-0.093852
O2	O	0.525834	0.118912	-0.093885
O3	O	0.579103	-0.037232	-0.093868
O4	O	0.610842	0.256799	-0.093868
O5	O	0.565785	0.001751	0.094140
O6	O	0.512517	0.157896	0.094124
O7	O	0.650793	0.139638	0.094157
Zn8	Zn	0.579540	0.154956	0.123990
Zn9	Zn	0.597087	0.103594	-0.123718
O10	O	0.597525	0.295783	0.094140
C11	C	0.567083	-0.055346	0.000133
C12	C	0.551102	-0.167400	0.000124
C13	C	0.501116	0.138020	0.000115
C14	C	0.447303	0.136863	0.000102
C15	C	0.675362	-0.534129	0.000155
C16	C	0.690378	-0.428848	0.000169
C17	C	0.655560	-0.363481	0.000157
C18	C	0.605724	-0.403405	0.000132
C19	C	0.590706	-0.508694	0.000127
C20	C	0.570904	-0.338046	0.000130
C21	C	0.521068	-0.377970	0.000105
C22	C	0.506053	-0.483250	0.000099
C23	C	0.540871	-0.548617	0.000110
C24	C	0.585922	-0.232757	0.000135
C25	C	0.501266	-0.207322	0.000107
C26	C	0.486251	-0.312603	0.000093
C27	C	0.120189	0.221878	0.000151
C28	C	-0.082061	0.217597	0.000161
O29	O	-0.102617	0.295338	0.000211
N30	N	-0.113933	0.125007	0.000159
C31	C	-0.095241	0.033483	0.000162
O32	O	-0.126992	-0.045366	0.000172
C33	C	0.107008	0.037767	0.000160
C34	C	0.138879	0.130360	0.000151
C35	C	0.152059	0.314464	0.000143
C36	C	0.202619	0.315532	0.000135
C37	C	0.221309	0.224014	0.000134
C38	C	0.189439	0.131428	0.000142
C39	C	0.125699	-0.053754	0.000171
C40	C	0.176265	-0.052674	0.000173
C41	C	0.208135	0.039919	0.000164
C42	C	0.258688	0.040978	0.000133
N43	N	0.290560	0.133568	0.000135
C44	C	0.271871	0.225086	0.000136
C45	C	-0.201424	0.031240	0.000161
C46	C	-0.251986	0.030168	0.000159
C47	C	-0.238802	0.214283	0.000161
C48	C	-0.188239	0.215352	0.000154
C49	C	-0.169551	0.123830	0.000163
C50	C	0.378050	0.227321	0.000116
C51	C	0.428614	0.228380	0.000103
C52	C	0.415426	0.044268	0.000107
C53	C	0.364866	0.043207	0.000115
C54	C	0.346180	0.134743	0.000123
O55	O	0.279277	-0.036719	0.000096
O56	O	0.303628	0.303928	0.000151
C57	C	0.069629	0.220810	0.000160
C58	C	0.037759	0.128224	0.000168
C59	C	0.056449	0.036706	0.000167
C60	C	-0.012803	0.127152	0.000166
C61	C	-0.031492	0.218670	0.000167
C62	C	0.000380	0.311260	0.000170
C63	C	0.050940	0.312328	0.000161
C64	C	0.024576	-0.055883	0.000165
C65	C	-0.025983	-0.056944	0.000172
C66	C	-0.044673	0.034574	0.000173
C67	C	0.675511	0.120531	0.000154
C68	C	0.729325	0.121686	0.000160
C69	C	0.609545	0.313896	0.000137
C70	C	0.625526	0.425949	0.000138
N71	N	0.567569	0.190009	0.293045
N72	N	0.609061	0.068534	-0.292773
C73	C	0.636848	-0.012854	0.648051
C74	C	0.645225	-0.037387	0.529714
C75	C	0.625811	0.019459	0.470541
C76	C	0.598021	0.100844	0.529717
C77	C	0.589647	0.125385	0.648066
C78	C	0.578610	0.157699	0.470555
C79	C	0.550819	0.239083	0.529731
C80	C	0.542446	0.263620	0.648069
C81	C	0.561860	0.206773	0.707242
C82	C	0.586983	0.133157	0.352206
C83	C	0.539782	0.271397	0.352221
C84	C	0.531406	0.295930	0.470558
H85	H	0.626499	-0.200262	0.000156
H86	H	0.465473	-0.515750	0.000087
H87	H	0.555038	0.226745	0.803602
H88	H	0.609611	0.066894	0.304036
H89	H	0.528647	-0.634347	0.000094
H90	H	-0.014846	0.385776	0.000166
H91	H	0.472914	-0.154099	0.000104
H92	H	0.519822	0.329896	0.696250
H93	H	0.730954	-0.396350	0.000191
H94	H	0.454562	0.303784	0.000095
H95	H	0.136848	0.388994	0.000148
H96	H	0.076885	0.387727	0.000155
H97	H	0.445673	-0.345124	0.000073
H98	H	0.667852	-0.103649	0.481537
H99	H	0.362841	0.301860	0.000127
H100	H	-0.277930	-0.045234	0.000149
H101	H	0.703704	-0.587357	0.000173
H102	H	0.508778	0.362196	0.518754
H103	H	0.632632	-0.000520	0.374185
H104	H	0.228565	0.390930	0.000127
H105	H	0.667789	-0.277757	0.000169
H106	H	-0.162293	0.290750	0.000153
H107	H	0.523975	0.317689	0.304043
H108	H	-0.254028	0.288800	0.000162
H109	H	-0.186214	-0.043293	0.000168
H110	H	0.099757	-0.129153	0.000179
H111	H	0.191476	-0.127205	0.000181
H112	H	0.338917	-0.032193	0.000106
H113	H	-0.051928	-0.132352	0.000171
H114	H	0.430652	-0.030244	0.000102
H115	H	0.039787	-0.130409	0.000167
H116	H	0.652655	-0.059126	0.696237
