data_functionalizedCrystal
_audit_creation_method	'MofGen! by Chris Wilmer'
_symmetry_space_group_name_H-M	'P1'
_symmetry_Int_Tables_number	1
_symmetry_cell_setting	triclinic
loop_
_symmetry_equiv_pos_as_xyz
  x,y,z
_cell_length_a	14.044191
_cell_length_b	14.044190
_cell_length_c	12.503572
_cell_angle_alpha	93.853158
_cell_angle_beta	93.844747
_cell_angle_gamma	86.808223
loop_
_atom_site_label
_atom_site_type_symbol
_atom_site_fract_x
_atom_site_fract_y
_atom_site_fract_z
O1	O	-1.272126	0.235248	0.089292
O2	O	-0.995453	0.226936	0.089305
O3	O	-1.129634	0.092755	0.089278
O4	O	-1.137945	0.369430	0.089320
O5	O	-1.139729	0.082651	-0.089366
O6	O	-1.005548	0.216832	-0.089339
O7	O	-1.282221	0.225144	-0.089352
Cu8	Cu	-1.144806	0.220065	-0.105657
Cu9	Cu	-1.132868	0.232015	0.105610
O10	O	-1.148039	0.359326	-0.089324
C11	C	-0.964878	0.218248	-0.000016
C12	C	-0.858734	0.207401	-0.000012
C13	C	-1.131045	0.052080	-0.000047
C14	C	-1.120198	-0.054063	-0.000056
C15	C	-1.177297	-0.299518	-0.000017
C16	C	-1.100381	-0.248395	-0.000021
C17	C	-1.111410	-0.140259	-0.000040
C18	C	-1.166269	-0.407664	0.000003
C19	C	-1.312795	0.233833	-0.000029
C20	C	-1.418939	0.244680	-0.000026
C21	C	-0.613277	0.264501	-0.000014
C22	C	-0.664402	0.187584	-0.000023
C23	C	-0.772538	0.198613	-0.000017
C24	C	-0.505131	0.253474	-0.000020
C25	C	-1.146628	0.400000	0.000003
C26	C	-1.157475	0.506144	0.000019
N27	N	-1.124471	0.240413	0.254204
N28	N	-1.153210	0.211661	-0.254251
C29	C	-1.112111	0.252766	0.473322
C30	C	-1.165567	0.199311	0.526638
C31	C	-1.158690	0.206184	0.648563
C32	C	-1.118987	0.245893	0.351386
H33	H	-1.026247	-0.285840	-0.000011
O34	O	-1.275491	-0.249927	-0.000032
H35	H	-1.318930	-0.275074	-0.072841
H36	H	-0.626953	0.113455	0.000041
O37	O	-0.662864	0.362698	0.000015
H38	H	-0.741247	0.356059	0.000028
O39	O	-1.233024	0.131840	0.465822
H40	H	-1.227902	0.136949	0.378213
O41	O	-1.044622	0.320195	0.534138
H42	H	-1.049727	0.315059	0.621745
