data_functionalizedCrystal
_audit_creation_method	'MofGen! by Chris Wilmer'
_symmetry_space_group_name_H-M	'P1'
_symmetry_Int_Tables_number	1
_symmetry_cell_setting	triclinic
loop_
_symmetry_equiv_pos_as_xyz
  x,y,z
_cell_length_a	10.654554
_cell_length_b	10.540510
_cell_length_c	9.730223
_cell_angle_alpha	89.998884
_cell_angle_beta	90.000386
_cell_angle_gamma	84.500077
loop_
_atom_site_label
_atom_site_type_symbol
_atom_site_fract_x
_atom_site_fract_y
_atom_site_fract_z
O1	O	1.667874	0.178326	0.114288
O2	O	1.302401	0.195307	0.114288
O3	O	1.493495	0.002105	0.114287
O4	O	1.476780	0.371528	0.114288
O5	O	1.493493	0.002110	-0.114293
O6	O	1.302399	0.195312	-0.114292
O7	O	1.667872	0.178331	-0.114292
Zn8	Zn	1.485135	0.186822	-0.150584
Zn9	Zn	1.485138	0.186816	0.150580
O10	O	1.476778	0.371533	-0.114291
C11	C	1.255602	0.194062	-0.000002
C12	C	1.116158	0.190328	-0.000001
C13	C	0.933566	0.069551	0.000010
C14	C	1.064589	0.073059	0.000000
C15	C	1.036697	0.304096	-0.000006
C16	C	0.905677	0.300587	-0.000006
C17	C	0.882005	-0.047725	0.000026
C18	C	0.961457	-0.161494	0.000028
C19	C	1.092479	-0.157986	0.000019
C20	C	1.144050	-0.040709	0.000006
C21	C	1.492248	-0.045196	0.000000
C22	C	1.488522	-0.186144	0.000009
C23	C	1.621274	-0.403645	-0.000515
C24	C	1.625249	-0.257051	0.000007
C25	C	1.418532	-0.230882	0.130536
C26	C	1.415525	-0.377642	0.130638
C27	C	1.412675	-0.377444	-0.129300
C28	C	1.419160	-0.231105	-0.131018
C29	C	1.714672	0.179577	0.000000
C30	C	1.854115	0.183311	0.000009
C31	C	1.478025	0.418834	-0.000001
C32	C	1.481751	0.559783	-0.000001
N33	N	1.485142	0.186826	-0.356120
C34	C	1.569781	0.101305	-0.428047
C35	C	1.569777	0.101290	-0.571930
C36	C	1.400493	0.272327	-0.571947
C37	C	1.400491	0.272335	-0.428067
C38	C	1.654432	0.015796	-0.356100
C39	C	1.739078	-0.069731	-0.428027
C40	C	1.739075	-0.069746	-0.571910
C41	C	1.654425	0.015765	-0.643866
N42	N	1.485141	0.186802	0.356116
H43	H	0.919459	-0.256976	0.000050
Br44	Br	1.285620	0.388373	-0.669600
H45	H	1.456125	-0.419638	-0.228240
Br46	Br	1.710065	-0.473595	-0.156539
H47	H	1.331570	0.341973	-0.369504
H48	H	1.463358	-0.417876	0.228210
H49	H	1.157166	-0.250622	0.000008
Br50	Br	0.704190	-0.052492	0.000055
Br51	Br	0.797842	0.454977	-0.000026
H52	H	1.680012	-0.227724	-0.093558
H53	H	1.807990	-0.139359	-0.369433
Br54	Br	1.709556	-0.476189	0.154618
Br55	Br	1.245085	-0.415919	0.140520
Br56	Br	1.321868	-0.035952	-0.000118
H57	H	1.807988	-0.139394	-0.630471
H58	H	1.654421	0.015736	-0.761026
H59	H	1.680332	-0.228667	0.093735
Br60	Br	1.106686	0.463246	-0.000017
H61	H	1.317875	-0.183459	0.135390
H62	H	1.310019	-0.399559	-0.130179
H63	H	1.467139	-0.200044	0.227675
Br64	Br	1.504031	-0.183433	-0.291970
Br65	Br	1.654448	0.015822	-0.160831
H66	H	1.319338	-0.182004	-0.138900
