data_functionalizedCrystal
_audit_creation_method	'MofGen! by Chris Wilmer'
_symmetry_space_group_name_H-M	'P1'
_symmetry_Int_Tables_number	1
_symmetry_cell_setting	triclinic
loop_
_symmetry_equiv_pos_as_xyz
  x,y,z
_cell_length_a	15.995350
_cell_length_b	15.995350
_cell_length_c	16.776229
_cell_angle_alpha	89.995580
_cell_angle_beta	89.996506
_cell_angle_gamma	83.492375
loop_
_atom_site_label
_atom_site_type_symbol
_atom_site_fract_x
_atom_site_fract_y
_atom_site_fract_z
O1	O	1.110989	0.107929	-0.066217
O2	O	0.867213	0.121256	-0.066233
O3	O	0.995765	-0.007295	-0.066223
O4	O	0.982437	0.236480	-0.066226
O5	O	0.995748	-0.007303	0.066353
O6	O	0.867196	0.121248	0.066344
O7	O	1.110971	0.107921	0.066360
Zn8	Zn	0.989081	0.114583	0.087401
Zn9	Zn	0.989104	0.114594	-0.087274
O10	O	0.982420	0.236472	0.066351
C11	C	0.836010	0.120701	0.000054
C12	C	0.743060	0.119049	0.000047
C13	C	0.405312	0.113117	0.000064
C14	C	0.452746	0.021565	0.000361
C15	C	0.549436	0.023217	0.000056
C16	C	0.572873	0.116060	0.000056
C17	C	0.531795	0.161221	-0.075649
C18	C	0.435159	0.158921	-0.075707
C19	C	0.434801	0.160803	0.075058
C20	C	0.531747	0.160782	0.076053
C21	C	0.667570	0.117727	0.000049
C22	C	0.310614	0.111452	0.000066
C23	C	0.995205	-0.038494	0.000063
C24	C	0.993553	-0.131444	0.000059
C25	C	0.987621	-0.469192	0.000061
C26	C	0.896069	-0.421758	-0.000242
C27	C	0.897721	-0.325068	0.000057
C28	C	0.990564	-0.301631	0.000059
C29	C	1.035711	-0.342713	0.075769
C30	C	1.033411	-0.439349	0.075832
C31	C	1.035321	-0.439698	-0.074932
C32	C	1.035300	-0.342753	-0.075933
C33	C	0.992231	-0.206934	0.000061
C34	C	0.985956	-0.563890	0.000065
C35	C	1.142175	0.108476	0.000072
C36	C	1.235125	0.110127	0.000073
C37	C	0.982980	0.267671	0.000062
C38	C	0.984631	0.360621	0.000062
N39	N	0.989072	0.114576	0.206612
N40	N	0.989119	0.114595	-0.206485
C41	C	1.046012	0.057676	0.248334
C42	C	1.046016	0.057676	0.331786
C43	C	0.989085	0.114579	0.373515
C44	C	0.932139	0.171481	0.331788
C45	C	0.932131	0.171477	0.248338
C46	C	0.932169	0.171497	0.668336
C47	C	0.932183	0.171498	0.751792
C48	C	1.046055	0.057696	0.751784
C49	C	1.046047	0.057692	0.668333
C50	C	0.989098	0.114591	0.626613
C51	C	0.989093	0.114590	0.536125
C52	C	0.989093	0.114584	0.464002
H53	H	0.577301	-0.012515	-0.054306
Br54	Br	0.555362	0.274899	-0.080363
Br55	Br	1.149398	-0.319175	0.080470
Br56	Br	1.123318	-0.019531	0.611702
Br57	Br	0.980746	-0.296792	-0.169299
H58	H	0.414258	0.130869	0.132440
H59	H	0.885779	0.217810	0.365769
Br60	Br	0.838144	-0.278621	0.090656
H61	H	1.005396	-0.460235	-0.132315
H62	H	1.092381	0.011344	0.365755
H63	H	1.092423	0.011363	0.785761
Br64	Br	0.854914	0.248730	0.808425
H65	H	0.577858	-0.012281	0.054325
Br66	Br	0.577146	0.105740	0.169401
Br67	Br	0.978513	-0.469863	0.170153
H68	H	0.885801	0.217827	0.634374
H69	H	0.885763	0.217809	0.214369
Br70	Br	0.579096	0.108955	-0.169558
Br71	Br	0.421860	-0.039438	0.090851
Br72	Br	0.420095	-0.039153	-0.089620
H73	H	1.103005	-0.327391	-0.080502
H74	H	0.416858	0.125994	-0.132298
Br75	Br	1.123287	-0.019548	0.191709
H76	H	0.547111	0.228485	0.080625
H77	H	0.402911	0.226137	-0.079142
H78	H	0.862232	-0.296642	-0.054215
Br79	Br	0.381867	0.273309	0.075911
H80	H	0.859484	-0.440286	-0.054535
H81	H	0.859632	-0.441355	0.053743
Br82	Br	1.145437	-0.493103	0.081571
Br83	Br	0.983427	-0.295419	0.169673
H84	H	1.102822	-0.471459	-0.075439
