data_functionalizedCrystal
_audit_creation_method	'MofGen! by Chris Wilmer'
_symmetry_space_group_name_H-M	'P1'
_symmetry_Int_Tables_number	1
_symmetry_cell_setting	triclinic
loop_
_symmetry_equiv_pos_as_xyz
  x,y,z
_cell_length_a	10.489741
_cell_length_b	16.956995
_cell_length_c	15.455313
_cell_angle_alpha	87.515363
_cell_angle_beta	92.692689
_cell_angle_gamma	80.296823
loop_
_atom_site_label
_atom_site_type_symbol
_atom_site_fract_x
_atom_site_fract_y
_atom_site_fract_z
O1	O	0.046882	1.061804	-0.072190
O2	O	0.546882	1.561804	0.427810
O3	O	0.091634	0.829903	-0.072179
O4	O	0.591634	1.329903	0.427821
O5	O	-0.116973	0.951130	-0.072180
O6	O	0.383027	1.451130	0.427820
O7	O	0.255489	0.940577	-0.072190
O8	O	0.755489	1.440577	0.427810
O9	O	-0.105090	0.944198	0.072082
O10	O	0.394910	1.444198	0.572082
O11	O	0.103517	0.822971	0.072083
O12	O	0.603517	1.322971	0.572083
O13	O	0.058765	1.054872	0.072072
O14	O	0.558765	1.554872	0.572072
Cu15	Cu	0.082226	0.938288	0.085250
Cu16	Cu	0.582226	1.438288	0.585250
Cu17	Cu	0.068173	0.946487	-0.085357
Cu18	Cu	0.568173	1.446487	0.414643
O19	O	0.267372	0.933645	0.072072
O20	O	0.767372	1.433645	0.572072
C21	C	0.099867	0.796742	-0.000046
C22	C	0.599867	1.296742	0.499954
C23	C	0.106679	0.708261	-0.000042
C24	C	0.606679	1.208261	0.499958
C25	C	0.157638	0.209255	-0.000076
C26	C	0.657638	0.709255	0.499924
C27	C	0.151227	0.292393	-0.000075
C28	C	0.651227	0.792393	0.499925
C29	C	0.030897	0.342790	-0.000065
C30	C	0.530897	0.842790	0.499935
C31	C	-0.083030	0.310045	-0.000065
C32	C	0.416970	0.810045	0.499935
C33	C	-0.076619	0.226908	-0.000072
C34	C	0.423381	0.726908	0.499928
C35	C	-0.000837	0.592379	-0.000049
C36	C	0.499163	1.092379	0.499951
C37	C	-0.007240	0.675521	-0.000039
C38	C	0.492760	1.175521	0.499961
C39	C	0.227018	0.657863	-0.000051
C40	C	0.727018	1.157863	0.499949
C41	C	0.233419	0.574725	-0.000053
C42	C	0.733419	1.074725	0.499947
C43	C	0.119492	0.541988	-0.000057
C44	C	0.619492	1.041988	0.499943
N45	N	0.024342	0.427771	-0.000061
N46	N	0.524342	0.927771	0.499939
N47	N	0.126048	0.457009	-0.000067
N48	N	0.626048	0.957009	0.499933
C49	C	-0.158468	0.946867	-0.000049
C50	C	0.341532	1.446867	0.499951
C51	C	-0.299811	0.944482	-0.000051
C52	C	0.200189	1.444482	0.499949
C53	C	-0.358685	0.867349	-0.000053
C54	C	0.141315	1.367349	0.499947
C55	C	-0.449326	0.900368	0.071074
C56	C	0.050674	1.400368	0.571074
C57	C	-0.461019	0.907221	-0.071157
C58	C	0.038981	1.407221	0.428843
C59	C	-0.388585	0.977530	0.071135
C60	C	0.111415	1.477530	0.571135
C61	C	-0.400272	0.984376	-0.071160
C62	C	0.099728	1.484376	0.428840
C63	C	-0.490891	1.017450	-0.000016
C64	C	0.009109	1.517450	0.499984
C65	C	0.308867	0.937908	-0.000060
C66	C	0.808867	1.437908	0.499940
C67	C	0.450209	0.940293	-0.000064
C68	C	0.950209	1.440293	0.499936
C69	C	0.050532	1.088033	-0.000063
C70	C	0.550532	1.588033	0.499937
C71	C	0.043719	1.176515	-0.000073
C72	C	0.543719	1.676515	0.499927
N73	N	0.092109	0.932528	0.205245
N74	N	0.592109	1.432528	0.705245
N75	N	0.058279	0.952254	-0.205353
N76	N	0.558279	1.452254	0.294647
C77	C	0.003514	0.984047	0.250639
C78	C	0.503514	1.484047	0.750639
C79	C	0.010998	0.979698	0.341447
C80	C	0.510998	1.479698	0.841447
C81	C	0.107085	0.923833	0.386859
C82	C	0.607085	1.423833	0.886859
C83	C	0.195684	0.872308	0.341459
C84	C	0.695684	1.372308	0.841459
C85	C	0.188193	0.876653	0.250653
C86	C	0.688193	1.376653	0.750653
C87	C	0.139387	0.905074	0.658441
C88	C	0.639387	1.405074	1.158441
C89	C	0.146874	0.900734	0.749254
C90	C	0.646874	1.400734	1.249254
C91	C	-0.037814	1.008124	0.749235
C92	C	0.462186	1.508124	1.249235
C93	C	-0.045292	1.012468	0.658427
C94	C	0.454708	1.512468	1.158427
C95	C	0.043303	0.960940	0.613035
C96	C	0.543303	1.460940	1.113035
N97	N	0.114741	0.919388	0.479680
N98	N	0.614741	1.419388	0.979680
N99	N	0.035641	0.965382	0.520216
N100	N	0.535641	1.465382	1.020216
H101	H	-0.093605	0.565735	-0.000050
H102	H	0.406395	1.065735	0.499950
H103	H	0.211527	0.863120	0.621490
H104	H	0.711527	1.363120	1.121490
H105	H	-0.356712	1.007246	0.131335
H106	H	0.143288	1.507246	0.631335
Br107	Br	-0.263225	0.761643	0.000063
Br108	Br	0.236775	1.261643	0.500063
H109	H	-0.169384	0.200254	-0.000072
H110	H	0.330616	0.700254	0.499928
Br111	Br	0.326082	0.796482	0.403087
Br112	Br	0.826082	1.296482	0.903087
Br113	Br	0.381625	0.702297	-0.000050
Br114	Br	0.881625	1.202297	0.499950
H115	H	-0.547937	1.080924	0.000021
H116	H	-0.047937	1.580924	0.500021
Br117	Br	-0.486223	0.841159	0.171306
Br118	Br	0.013777	1.341159	0.671306
H119	H	0.225125	0.855239	0.786224
H120	H	0.725125	1.355239	1.286224
Br121	Br	-0.246338	0.378440	-0.000057
Br122	Br	0.253662	0.878440	0.499943
Br123	Br	-0.158046	1.078050	0.810842
Br124	Br	0.341954	1.578050	1.310842
Br125	Br	-0.363312	1.043546	-0.171396
Br126	Br	0.136688	1.543546	0.328604
H127	H	0.260335	0.834700	0.213694
H128	H	0.760335	1.334700	0.713694
Br129	Br	-0.514385	0.857618	-0.171375
Br130	Br	-0.014385	1.357618	0.328625
H131	H	-0.074725	1.029542	0.213670
H132	H	0.425275	1.529542	0.713670
H133	H	-0.061143	1.021649	0.378406
H134	H	0.438857	1.521649	0.878406
Br135	Br	-0.175691	1.088289	0.596794
Br136	Br	0.324309	1.588289	1.096794
H137	H	0.255624	0.168226	-0.000077
H138	H	0.755624	0.668226	0.499923
H139	H	0.331405	0.533697	-0.000063
H140	H	0.831405	1.033697	0.499937
Br141	Br	0.305838	0.336823	-0.000087
Br142	Br	0.805838	0.836823	0.499913
H143	H	-0.105232	0.716553	-0.000036
H144	H	0.394768	1.216553	0.499964
