data_functionalizedCrystal
_audit_creation_method	'MofGen! by Chris Wilmer'
_symmetry_space_group_name_H-M	'P1'
_symmetry_Int_Tables_number	1
_symmetry_cell_setting	triclinic
loop_
_symmetry_equiv_pos_as_xyz
  x,y,z
_cell_length_a	19.077409
_cell_length_b	18.101397
_cell_length_c	19.076919
_cell_angle_alpha	87.731459
_cell_angle_beta	85.523525
_cell_angle_gamma	92.322373
loop_
_atom_site_label
_atom_site_type_symbol
_atom_site_fract_x
_atom_site_fract_y
_atom_site_fract_z
Zn1	Zn	1.061691	-0.264951	0.355435
Zn2	Zn	1.066354	-0.383615	0.237548
Zn3	Zn	0.948546	-0.264976	0.242283
Zn4	Zn	0.943784	-0.393942	0.360110
O5	O	1.005094	-0.326871	0.298844
O6	O	1.160957	-0.276360	0.335859
O7	O	1.054671	-0.363565	0.139530
O8	O	0.963597	-0.161339	0.257318
O9	O	1.164383	-0.363541	0.249248
O10	O	1.046724	-0.161321	0.340450
O11	O	0.968119	-0.276402	0.143008
O12	O	0.849267	-0.286416	0.261851
O13	O	0.955480	-0.381143	0.458136
O14	O	0.845768	-0.381166	0.348418
O15	O	1.042106	-0.286374	0.454701
O16	O	1.050053	-0.488618	0.253781
O17	O	0.960001	-0.496205	0.343827
C18	C	0.821939	-0.334915	0.306156
C19	C	0.743584	-0.338375	0.309301
C20	C	0.302333	-0.363132	0.331890
C21	C	0.375956	-0.359887	0.328922
C22	C	0.414564	-0.308859	0.282442
C23	C	0.379544	-0.261080	0.238923
C24	C	0.305922	-0.264330	0.241888
C25	C	0.634943	-0.293845	0.268746
C26	C	0.708570	-0.290597	0.265786
C27	C	0.704977	-0.389406	0.355785
C28	C	0.631353	-0.392648	0.358749
C29	C	0.596340	-0.344871	0.315227
N30	N	0.489819	-0.305539	0.279409
N31	N	0.521087	-0.348196	0.318257
C32	C	1.005035	-0.519283	0.298812
C33	C	1.005073	-0.601595	0.298820
C34	C	1.005161	-0.900685	0.298880
C35	C	1.061673	-0.864556	0.242086
C36	C	1.061855	-0.778935	0.242220
C37	C	1.005117	-0.752303	0.298850
C38	C	1.022268	-0.785693	0.372349
C39	C	1.022700	-0.871307	0.372035
C40	C	0.931327	-0.871639	0.282824
C41	C	0.931762	-0.785900	0.281150
C42	C	1.005092	-0.668444	0.298837
C43	C	1.005188	-0.984544	0.298898
C44	C	1.188964	-0.318796	0.291504
C45	C	1.267318	-0.315355	0.288376
C46	C	0.997741	-0.334908	0.482712
C47	C	0.994608	-0.338332	0.561066
C48	C	1.005172	-0.133708	0.298890
C49	C	1.005205	-0.051393	0.298910
C50	C	1.012458	-0.318810	0.115689
C51	C	1.015728	-0.315171	0.037331
C52	C	1.038236	-0.290602	0.596089
C53	C	1.035283	-0.293818	0.669711
C54	C	0.988706	-0.344767	0.708308
C55	C	0.945074	-0.392499	0.673280
C56	C	0.948024	-0.389280	0.599659
C57	C	0.975045	-0.359683	0.928682
C58	C	0.972101	-0.362901	1.002307
C59	C	1.062309	-0.264218	0.998734
C60	C	1.065257	-0.261006	0.925112
C61	C	1.021623	-0.308736	0.890090
N62	N	0.985689	-0.348057	0.783562
N63	N	1.024637	-0.305442	0.814838
H64	H	0.404462	-0.398794	0.364355
H65	H	0.599924	-0.434202	0.396597
H66	H	0.733492	-0.428304	0.391218
N67	N	1.088477	-0.235654	0.554462
H68	H	1.115665	-0.205905	0.587824
H69	H	1.061021	-0.201306	0.525068
N70	N	0.909891	-0.898290	0.213268
H71	H	0.947828	-0.929468	0.191460
H72	H	0.903153	-0.854270	0.180657
N73	N	0.970336	-0.903423	0.429788
H74	H	0.995494	-0.934681	0.464078
H75	H	0.933373	-0.935113	0.408587
N76	N	1.115495	-0.206043	0.883500
H77	H	1.104048	-0.154175	0.896771
H78	H	1.110731	-0.211299	0.831558
N79	N	0.268152	-0.212805	0.194950
H80	H	0.280530	-0.159823	0.205470
H81	H	0.215667	-0.222676	0.203903
N82	N	1.048110	-0.748685	0.169907
H83	H	1.041877	-0.790978	0.137656
H84	H	1.089291	-0.715191	0.150506
H85	H	0.907148	-0.433981	0.704711
N86	N	0.421177	-0.206041	0.188788
H87	H	0.453016	-0.233302	0.154837
H88	H	0.450548	-0.171688	0.216318
H89	H	0.889258	-0.895436	0.324226
H90	H	0.740002	-0.249036	0.227942
H91	H	0.606444	-0.254945	0.233305
N92	N	1.048130	-0.889392	0.169541
H93	H	1.005233	-0.924309	0.172784
H94	H	1.090292	-0.915588	0.149136
H95	H	1.116129	-0.884154	0.252341
N96	N	1.134378	-0.749227	0.255980
H97	H	1.166352	-0.791766	0.261986
H98	H	1.131313	-0.720312	0.300238
H99	H	1.076580	-0.889536	0.385982
H100	H	0.912491	-0.428139	0.571144
H101	H	0.982236	-0.768860	0.415674
N102	N	0.873296	-0.762220	0.332242
H103	H	0.838246	-0.734191	0.305741
H104	H	0.893674	-0.729256	0.367739
N105	N	0.260691	-0.418169	0.382021
H106	H	0.271509	-0.408392	0.431893
H107	H	0.273948	-0.469992	0.370399
N108	N	0.914553	-0.756768	0.209524
H109	H	0.954103	-0.721951	0.188621
H110	H	0.869443	-0.729414	0.214344
H111	H	1.097833	-0.225359	1.027257
H112	H	1.075527	-0.762535	0.386594
N113	N	1.082324	-0.242324	0.707488
H114	H	1.112276	-0.209559	0.671866
H115	H	1.113713	-0.272360	0.736735
H116	H	0.934170	-0.404392	1.033731
H117	H	0.939525	-0.398558	0.900175
