data_functionalizedCrystal
_audit_creation_method	'MofGen! by Chris Wilmer'
_symmetry_space_group_name_H-M	'P1'
_symmetry_Int_Tables_number	1
_symmetry_cell_setting	triclinic
loop_
_symmetry_equiv_pos_as_xyz
  x,y,z
_cell_length_a	14.853558
_cell_length_b	14.853567
_cell_length_c	9.730223
_cell_angle_alpha	90.002458
_cell_angle_beta	90.000319
_cell_angle_gamma	83.633032
loop_
_atom_site_label
_atom_site_type_symbol
_atom_site_fract_x
_atom_site_fract_y
_atom_site_fract_z
O1	O	1.196365	0.117660	-0.114261
O2	O	0.933904	0.131691	-0.114266
O3	O	1.072145	-0.006555	-0.114268
O4	O	1.058124	0.255905	-0.114260
O5	O	1.072144	-0.006551	0.114312
O6	O	0.933903	0.131694	0.114314
O7	O	1.196363	0.117664	0.114319
Zn8	Zn	1.065133	0.124680	0.150608
Zn9	Zn	1.065135	0.124675	-0.150556
O10	O	1.058122	0.255909	0.114320
C11	C	0.900314	0.131058	0.000023
C12	C	0.800230	0.129158	0.000020
C13	C	1.071509	-0.040141	0.000018
C14	C	1.069605	-0.140225	0.000006
C15	C	0.753211	0.128264	-0.124584
C16	C	0.753208	0.128257	0.124623
C17	C	0.659174	0.126467	0.124625
C18	C	0.612155	0.125574	0.000021
C19	C	0.659169	0.126471	-0.124585
C20	C	0.612154	0.125561	0.249229
C21	C	0.518114	0.123769	0.249236
C22	C	0.471093	0.122882	0.124631
C23	C	0.518113	0.123781	0.000019
C24	C	0.471093	0.122887	-0.124585
C25	C	0.518111	0.123792	-0.249198
C26	C	0.612147	0.125584	-0.249191
C27	C	0.377056	0.121090	0.124624
C28	C	0.377051	0.121094	-0.124586
C29	C	0.979439	-0.552756	0.000031
C30	C	1.143673	-0.574042	0.000034
C31	C	1.145463	-0.480009	0.000026
C32	C	1.064240	-0.422344	0.000022
C33	C	0.981227	-0.458713	0.000027
C34	C	1.228474	-0.443632	0.000035
C35	C	1.230268	-0.349593	0.000029
C36	C	1.149044	-0.291927	0.000015
C37	C	1.066027	-0.328301	0.000018
C38	C	0.984805	-0.270637	0.000015
C39	C	0.901787	-0.307009	0.000008
C40	C	0.900003	-0.401047	0.000013
C41	C	1.150828	-0.197890	0.000010
C42	C	0.986592	-0.176594	0.000011
C43	C	1.229953	0.118296	0.000027
C44	C	1.330037	0.120197	0.000020
C45	C	1.058758	0.289496	0.000031
C46	C	1.060662	0.389580	0.000034
N47	N	1.065138	0.124682	0.356145
N48	N	1.065137	0.124665	-0.356092
C49	C	1.126366	0.063488	0.428070
C50	C	1.126364	0.063477	0.571953
C51	C	1.003901	0.185862	0.571972
C52	C	1.003900	0.185868	0.428092
C53	C	1.197072	-0.007168	0.428060
C54	C	1.197070	-0.007179	0.571943
H55	H	0.338774	0.120372	-0.226056
H56	H	0.835656	-0.260047	0.000015
F57	F	0.938731	0.250977	0.648555
F58	F	0.811658	-0.439764	0.000002
F59	F	1.239175	-0.159183	0.000039
H60	H	1.266238	0.007750	0.610996
H61	H	0.911848	-0.582375	0.000020
H62	H	0.650445	0.126280	0.350675
H63	H	0.791496	0.129005	-0.226040
H64	H	0.479841	0.123031	0.350704
H65	H	1.209801	-0.620998	0.000048
F66	F	0.662193	0.126538	-0.381801
F67	F	1.282412	0.020902	0.369726
H68	H	1.175653	-0.072502	0.616556
F69	F	1.314911	-0.505006	0.000064
F70	F	1.318621	-0.310891	0.000019
F71	F	1.177627	-0.097593	0.377003
F72	F	0.468061	0.122824	-0.381806
F73	F	0.803251	0.129205	0.257227
H74	H	0.338778	0.120362	0.226082
H75	H	0.920449	-0.129649	0.000002
F76	F	0.938723	0.250988	0.351544
