data_functionalizedCrystal
_audit_creation_method	'MofGen! by Chris Wilmer'
_symmetry_space_group_name_H-M	'P1'
_symmetry_Int_Tables_number	1
_symmetry_cell_setting	triclinic
loop_
_symmetry_equiv_pos_as_xyz
  x,y,z
_cell_length_a	19.288864
_cell_length_b	9.198806
_cell_length_c	19.288865
_cell_angle_alpha	90.008409
_cell_angle_beta	83.136245
_cell_angle_gamma	90.017783
loop_
_atom_site_label
_atom_site_type_symbol
_atom_site_fract_x
_atom_site_fract_y
_atom_site_fract_z
O1	O	0.921348	0.121375	0.086646
O2	O	0.719087	0.121278	0.098335
O3	O	0.826062	0.121301	-0.008640
O4	O	0.814373	0.121353	0.193621
O5	O	0.826054	-0.120484	-0.008640
O6	O	0.719079	-0.120507	0.098335
O7	O	0.921339	-0.120410	0.086646
Cu8	Cu	0.820208	-0.142535	0.092490
Cu9	Cu	0.820218	0.143403	0.092491
O10	O	0.814365	-0.120432	0.193621
C11	C	0.693207	0.000373	0.097959
C12	C	0.616103	0.000334	0.096830
N13	N	0.820206	-0.343649	0.092490
C14	C	0.571407	0.000373	0.159598
C15	C	0.498960	0.000389	0.158537
C16	C	0.471212	0.000395	0.094705
C17	C	0.515918	0.000348	0.031929
C18	C	0.588364	0.000317	0.032991
C19	C	0.362953	0.085139	0.044526
C20	C	0.290509	0.085178	0.043466
C21	C	0.247767	0.000482	0.091425
C22	C	0.277476	-0.084235	0.140456
C23	C	0.349922	-0.084265	0.141519
C24	C	0.392658	0.000427	0.093546
C25	C	0.124514	0.000536	0.153047
C26	C	0.052066	0.000543	0.151984
C27	C	0.069026	0.000516	0.025374
C28	C	0.141473	0.000495	0.026439
C29	C	0.169212	0.000512	0.090278
C30	C	0.865124	-0.415837	0.047378
C31	C	0.865135	-0.583249	0.047376
C32	C	0.947220	0.000499	0.087022
C33	C	1.024324	0.000547	0.088151
C34	C	0.825682	0.000404	-0.034516
C35	C	0.824553	0.000390	-0.111620
N36	N	0.820226	0.344517	0.092486
C37	C	0.887321	0.000413	-0.156316
C38	C	0.886260	0.000436	-0.228763
C39	C	0.822428	0.000406	-0.256511
C40	C	0.759652	0.000391	-0.211805
C41	C	0.760714	0.000383	-0.139359
C42	C	0.772245	-0.084310	-0.364798
C43	C	0.771185	-0.084311	-0.437243
C44	C	0.819148	0.000437	-0.479956
C45	C	0.868182	0.085167	-0.450218
C46	C	0.869245	0.085160	-0.377773
C47	C	0.821269	0.000416	-0.335065
C48	C	0.880770	0.000486	-0.603209
C49	C	0.879707	0.000518	-0.675657
C50	C	0.753097	0.000459	-0.658697
C51	C	0.754162	0.000442	-0.586250
C52	C	0.818000	0.000449	-0.558511
C53	C	0.814745	0.000468	0.219497
C54	C	0.815874	0.000491	0.296601
H55	H	0.593987	0.000390	0.211580
H56	H	0.462561	0.000417	0.209652
H57	H	0.937375	0.000460	-0.265162
Br58	Br	0.390241	-0.199235	0.208055
H59	H	0.266324	0.154166	0.003545
H60	H	0.242677	-0.153204	0.179509
Br61	Br	0.933280	0.200190	-0.508178
H62	H	0.781756	-0.405786	0.131107
H63	H	0.147101	0.000529	0.205028
Br64	Br	0.707147	-0.199337	-0.306836
Br65	Br	0.704644	-0.199310	-0.477595
Br66	Br	0.756130	-0.552032	0.156869
H67	H	0.930822	0.000545	-0.712049
H68	H	0.932751	0.000499	-0.580622
H69	H	0.909169	0.154153	-0.353563
H70	H	0.903570	-0.353703	0.008756
Br71	Br	0.929240	-0.686709	-0.016995
Br72	Br	0.031377	0.000500	-0.061257
H73	H	0.939303	0.000424	-0.133736
H74	H	0.015674	0.000566	0.203099
Br75	Br	0.666466	0.000433	-0.696346
Br76	Br	0.668972	0.000409	-0.525587
Br77	Br	0.202136	0.000446	-0.058751
H78	H	0.707679	0.000370	-0.234401
H79	H	0.493322	0.000373	-0.020044
H80	H	0.397749	0.154118	0.005470
H81	H	0.709599	0.000364	-0.102967
H82	H	0.624756	0.000287	-0.018124
