data_functionalizedCrystal
_audit_creation_method	'MofGen! by Chris Wilmer'
_symmetry_space_group_name_H-M	'P1'
_symmetry_Int_Tables_number	1
_symmetry_cell_setting	triclinic
loop_
_symmetry_equiv_pos_as_xyz
  x,y,z
_cell_length_a	12.811438
_cell_length_b	12.837942
_cell_length_c	14.048226
_cell_angle_alpha	89.994377
_cell_angle_beta	95.426223
_cell_angle_gamma	89.413151
loop_
_atom_site_label
_atom_site_type_symbol
_atom_site_fract_x
_atom_site_fract_y
_atom_site_fract_z
O1	O	1.406630	0.139702	0.042289
O2	O	1.102569	0.154888	0.016035
O3	O	1.247857	-0.003637	0.028586
O4	O	1.261341	0.298227	0.029738
O5	O	1.247837	-0.003647	0.186905
O6	O	1.102548	0.154878	0.174354
O7	O	1.406609	0.139693	0.200609
Zn8	Zn	1.254576	0.147284	0.212618
Zn9	Zn	1.254602	0.147296	0.004025
O10	O	1.261321	0.298217	0.188058
C11	C	1.063370	0.154031	0.091811
C12	C	0.946598	0.151481	0.081728
C13	C	0.782023	0.147892	-0.018772
C14	C	0.891740	0.150287	-0.009307
C15	C	0.891733	0.150277	0.163303
C16	C	0.782016	0.147882	0.153837
C17	C	0.727164	0.146691	0.062797
C18	C	0.617445	0.144303	0.053332
C19	C	0.617440	0.144285	0.225941
C20	C	0.727157	0.146680	0.235407
C21	C	1.243291	-0.042282	0.107352
C22	C	1.229706	-0.157418	0.106177
C23	C	1.393033	-0.397670	0.120260
C24	C	1.380273	-0.505851	0.119156
C25	C	1.191426	-0.481963	0.102860
C26	C	1.204186	-0.373782	0.103963
C27	C	1.304993	-0.331640	0.112665
C28	C	1.317752	-0.223457	0.113775
C29	C	1.128906	-0.199571	0.097472
C30	C	1.116146	-0.307752	0.096368
C31	C	1.445808	0.140549	0.124831
C32	C	1.562579	0.143099	0.134907
C33	C	1.265886	0.336862	0.109290
C34	C	1.279472	0.451998	0.110458
N35	N	1.254565	0.147275	0.354978
N36	N	1.254620	0.147297	-0.138334
C37	C	1.318924	0.077109	0.410356
C38	C	1.318931	0.077109	0.510014
C39	C	1.254584	0.147279	0.554293
C40	C	1.190217	0.217448	0.498908
C41	C	1.190206	0.217443	0.399251
C42	C	1.190248	0.217456	0.706624
C43	C	1.190261	0.217463	0.806288
C44	C	1.318974	0.077121	0.817388
C45	C	1.318962	0.077116	0.717731
C46	C	1.254597	0.147287	0.662352
H47	H	1.475114	-0.363358	0.127354
H48	H	0.936401	0.151266	-0.075729
H49	H	1.451965	-0.559610	0.125338
H50	H	0.737362	0.146934	-0.092901
O51	O	0.945149	0.151293	0.251681
C52	C	1.011501	0.062951	0.262573
H53	H	1.028897	0.033406	0.189140
H54	H	1.088006	0.084803	0.305688
H55	H	0.971258	-0.000790	0.301699
H56	H	0.771832	0.147646	0.309529
H57	H	0.572763	0.143312	0.292361
H58	H	1.371327	0.019972	0.374311
O59	O	1.093455	-0.522784	0.094520
C60	C	1.039122	-0.489125	0.171837
H61	H	1.075229	-0.413982	0.202304
H62	H	0.953183	-0.474494	0.145971
H63	H	1.045019	-0.551682	0.229755
O64	O	1.415618	-0.182393	0.122092
C65	C	1.428659	-0.120541	0.041211
H66	H	1.348590	-0.093960	0.006970
H67	H	1.477595	-0.049526	0.063874
H68	H	1.470336	-0.168120	-0.012613
H69	H	1.034071	-0.342079	0.089280
H70	H	0.572787	0.143339	-0.020798
O71	O	1.127693	0.285474	0.849408
C72	C	1.057368	0.229598	0.900986
H73	H	1.091094	0.148654	0.918818
H74	H	1.045096	0.272796	0.970008
H75	H	0.979049	0.222163	0.855843
H76	H	1.057217	-0.145797	0.091295
H77	H	1.371336	0.019974	0.555103
O78	O	1.381498	0.008855	0.674867
C79	C	1.438330	-0.053062	0.745114
H80	H	1.395175	-0.054446	0.812437
H81	H	1.446066	-0.135805	0.716992
H82	H	1.519701	-0.019004	0.762714
O83	O	1.127698	0.285721	0.652974
C84	C	1.070889	0.347644	0.713421
H85	H	1.114064	0.349026	0.788179
H86	H	1.063151	0.430387	0.683951
H87	H	0.989518	0.313592	0.717013
H88	H	1.371381	0.019986	0.862483
H89	H	1.137819	0.274579	0.534965
H90	H	1.137797	0.274578	0.354162
