data_functionalizedCrystal
_audit_creation_method	'MofGen! by Chris Wilmer'
_symmetry_space_group_name_H-M	'P1'
_symmetry_Int_Tables_number	1
_symmetry_cell_setting	triclinic
loop_
_symmetry_equiv_pos_as_xyz
  x,y,z
_cell_length_a	16.992694
_cell_length_b	26.809956
_cell_length_c	16.992695
_cell_angle_alpha	89.995583
_cell_angle_beta	90.668223
_cell_angle_gamma	90.003736
loop_
_atom_site_label
_atom_site_type_symbol
_atom_site_fract_x
_atom_site_fract_y
_atom_site_fract_z
O1	O	1.050856	0.041418	0.166906
O2	O	0.822456	0.041432	0.165075
O3	O	0.935740	0.041421	0.051790
O4	O	0.937572	0.041429	0.280190
O5	O	0.935719	-0.041538	0.051807
O6	O	0.822434	-0.041527	0.165092
O7	O	1.050834	-0.041542	0.166923
Zn8	Zn	0.936631	-0.054706	0.166010
Zn9	Zn	0.936660	0.054596	0.165988
O10	O	0.937550	-0.041530	0.280207
C11	C	0.793085	-0.000046	0.162727
C12	C	0.705600	-0.000040	0.155699
N13	N	0.936617	-0.129302	0.166025
C14	C	0.659610	-0.000038	0.223517
C15	C	0.577409	-0.000045	0.216908
C16	C	0.541201	-0.000051	0.142480
C17	C	0.587198	-0.000054	0.074657
C18	C	0.669397	-0.000051	0.081267
C19	C	0.295886	-0.000065	0.115086
C20	C	0.213681	-0.000067	0.108481
C21	C	0.203898	-0.000059	0.250732
C22	C	0.286099	-0.000053	0.257336
C23	C	0.332089	-0.000059	0.189512
N24	N	0.457178	-0.000056	0.135723
N25	N	0.416110	-0.000056	0.196270
C26	C	0.986816	-0.473933	0.115838
C27	C	0.986834	-0.682811	0.115827
O28	O	1.029483	-0.709819	0.073159
N29	N	0.936663	-0.708929	0.165971
C30	C	0.886480	-0.682825	0.216116
O31	O	0.843801	-0.709833	0.258760
C32	C	0.886459	-0.473948	0.216123
C33	C	0.936639	-0.447832	0.165982
C34	C	1.036991	-0.447817	0.065701
C35	C	1.036989	-0.395601	0.065707
C36	C	0.986812	-0.369500	0.115851
C37	C	0.936637	-0.395616	0.165988
C38	C	0.836272	-0.447845	0.266264
C39	C	0.836270	-0.395622	0.266260
C40	C	0.886450	-0.369507	0.216119
C41	C	0.886458	-0.317299	0.216138
N42	N	0.936629	-0.291181	0.165995
C43	C	0.986806	-0.317281	0.115851
C44	C	0.886496	-0.792488	0.216111
C45	C	0.886502	-0.844707	0.216110
C46	C	0.986855	-0.844689	0.115820
C47	C	0.986852	-0.792469	0.115825
C48	C	0.936667	-0.766370	0.165967
C49	C	0.986798	-0.207623	0.115868
C50	C	0.986794	-0.155402	0.115881
C51	C	0.886439	-0.155425	0.216169
C52	C	0.886446	-0.207641	0.216159
C53	C	0.936628	-0.233739	0.166002
O54	O	0.843825	-0.290259	0.258777
O55	O	1.029466	-0.290264	0.073201
C56	C	0.986818	-0.526149	0.115832
C57	C	0.936642	-0.552265	0.165969
C58	C	0.886465	-0.526164	0.216113
C59	C	0.936649	-0.604484	0.165969
C60	C	0.986826	-0.630584	0.115825
C61	C	1.036997	-0.604466	0.065682
C62	C	1.036995	-0.552250	0.065688
C63	C	0.836294	-0.552283	0.266256
C64	C	0.836301	-0.604499	0.266246
C65	C	0.886478	-0.630600	0.216103
C66	C	1.080205	-0.000063	0.169270
C67	C	1.167690	-0.000065	0.176299
C68	C	0.933374	-0.000058	0.022439
C69	C	0.926345	-0.000058	-0.065046
N70	N	0.936679	0.129192	0.165967
C71	C	0.994163	-0.000063	-0.111037
C72	C	0.987554	-0.000058	-0.193238
C73	C	0.913127	-0.000051	-0.229446
C74	C	0.845303	-0.000045	-0.183449
C75	C	0.851913	-0.000046	-0.101250
C76	C	0.885732	-0.000042	-0.474760
C77	C	0.879127	-0.000042	-0.556966
C78	C	1.021379	-0.000054	-0.566749
C79	C	1.027982	-0.000059	-0.484547
C80	C	0.960159	-0.000050	-0.438558
N81	N	0.906369	-0.000047	-0.313468
N82	N	0.966917	-0.000050	-0.354537
C83	C	0.939917	-0.000050	0.309559
C84	C	0.946945	-0.000047	0.397044
H85	H	0.689084	-0.000033	0.284124
H86	H	1.027661	-0.228867	0.075025
C87	C	1.041306	-0.127139	0.061351
C88	C	1.085231	-0.161178	0.017422
C89	C	1.135444	-0.135162	-0.032826
H90	H	1.075917	-0.106767	0.091654
H91	H	1.010954	-0.106778	0.026750
H92	H	1.115580	-0.181530	0.052019
H93	H	1.050640	-0.181551	-0.012897
H94	H	1.105092	-0.114801	-0.067427
H95	H	1.170050	-0.114792	-0.002517
H96	H	1.165247	-0.158254	-0.062643
C97	C	0.325261	-0.000075	0.338215
C98	C	0.267389	-0.000088	0.396194
C99	C	0.303436	-0.000114	0.470709
H100	H	0.357119	0.028848	0.343855
H101	H	0.357103	-0.029015	0.343796
H102	H	0.235560	0.028849	0.390616
H103	H	0.235527	-0.029009	0.390580
H104	H	0.335278	-0.029054	0.476291
H105	H	0.335293	0.028809	0.476341
H106	H	0.264176	-0.000128	0.510057
C107	C	1.061162	0.000041	-0.243207
C108	C	1.061551	0.042731	-0.290667
C109	C	1.129355	0.042843	-0.336699
H110	H	1.061606	-0.028853	-0.275547
H111	H	1.106453	0.000061	-0.209893
H112	H	1.016272	0.042705	-0.323977
H113	H	1.061119	0.071631	-0.258347
H114	H	1.174646	0.042864	-0.303384
H115	H	1.129793	0.013948	-0.369034
H116	H	1.129632	0.071810	-0.368900
H117	H	0.539966	-0.000043	0.272133
H118	H	1.088589	-0.000064	-0.455073
H119	H	0.830505	-0.000035	-0.437325
H120	H	0.333322	-0.000070	0.059859
H121	H	1.077848	-0.374341	0.024876
H122	H	0.557710	-0.000066	0.014056
H123	H	1.077856	-0.530990	0.024859
C124	C	1.091564	-0.476059	0.011227
C125	C	1.135510	-0.442001	-0.032660
C126	C	1.185807	-0.467995	-0.082840
H127	H	1.061296	-0.496434	-0.023410
H128	H	1.126153	-0.496415	0.041600
H129	H	1.100926	-0.421654	-0.063031
H130	H	1.165794	-0.421625	0.001956
H131	H	1.220396	-0.488351	-0.052467
H132	H	1.155533	-0.488369	-0.117472
H133	H	1.215636	-0.444891	-0.112618
C134	C	1.041358	-0.764208	0.061295
C135	C	1.085286	-0.798249	0.017373
C136	C	1.135498	-0.772236	-0.032879
H137	H	1.075967	-0.743833	0.091594
H138	H	1.011005	-0.743851	0.026689
H139	H	1.115636	-0.818598	0.051975
H140	H	1.050698	-0.818625	-0.012942
H141	H	1.105146	-0.751878	-0.067485
H142	H	1.170102	-0.751861	-0.002574
H143	H	1.165304	-0.795329	-0.062691
H144	H	0.706842	-0.000052	0.026042
H145	H	0.184203	-0.000071	0.047870
C146	C	1.091341	-0.632838	0.011139
C147	C	1.046380	-0.662804	-0.039709
C148	C	1.096406	-0.688945	-0.089971
H149	H	1.125895	-0.653251	0.041437
H150	H	1.121212	-0.609826	-0.018775
H151	H	1.016522	-0.685814	-0.009798
H152	H	1.011828	-0.642403	-0.070024
H153	H	1.126278	-0.665933	-0.119886
H154	H	1.130958	-0.709356	-0.059667
H155	H	1.065908	-0.709277	-0.124482
H156	H	0.795440	-0.625759	0.307084
C157	C	0.798245	-0.000004	-0.596132
C158	C	0.740262	0.000019	-0.538263
C159	C	0.665749	0.000062	-0.574314
H160	H	0.792585	-0.028925	-0.627987
H161	H	0.792687	0.028939	-0.627978
H162	H	0.745817	-0.028920	-0.506431
H163	H	0.745896	0.028938	-0.506405
H164	H	0.660191	0.029004	-0.606160
H165	H	0.660097	-0.028859	-0.606168
H166	H	0.626398	0.000082	-0.535056
C167	C	0.831940	-0.872968	0.270585
C168	C	0.787983	-0.838927	0.314479
C169	C	0.737700	-0.864940	0.364659
H170	H	0.862218	-0.893340	0.305217
H171	H	0.797357	-0.893328	0.240212
H172	H	0.822562	-0.818575	0.344850
H173	H	0.757689	-0.818553	0.279867
H174	H	0.703117	-0.885300	0.334286
H175	H	0.767985	-0.885311	0.399286
H176	H	0.707865	-0.841847	0.394442
C177	C	0.832060	-0.127106	0.270738
C178	C	0.849672	-0.139797	0.348906
C179	C	0.799597	-0.113714	0.399193
H180	H	0.778961	-0.135643	0.258966
H181	H	0.839255	-0.092262	0.263606
H182	H	0.842470	-0.174633	0.356034
H183	H	0.902761	-0.131259	0.360703
H184	H	0.806792	-0.078870	0.392060
H185	H	0.746502	-0.122253	0.387413
H186	H	0.811545	-0.122317	0.452235
C187	C	1.041198	-0.873059	0.061274
C188	C	0.996236	-0.903028	0.010430
C189	C	1.046261	-0.929166	-0.039837
H190	H	1.075756	-0.893471	0.091569
H191	H	1.071064	-0.850046	0.031357
H192	H	0.966383	-0.926039	0.040343
H193	H	0.961679	-0.882628	-0.019882
H194	H	1.076128	-0.906153	-0.069754
H195	H	1.080817	-0.949575	-0.009536
H196	H	1.015762	-0.949499	-0.074346
C197	C	0.832140	-0.764093	0.270612
C198	C	0.877086	-0.734107	0.321443
C199	C	0.827045	-0.707941	0.371659
H200	H	0.802252	-0.787075	0.300548
H201	H	0.797601	-0.743694	0.240255
H202	H	0.911611	-0.754504	0.351798
H203	H	0.906973	-0.711115	0.291530
H204	H	0.792506	-0.687541	0.341302
H205	H	0.797159	-0.730927	0.401589
H206	H	0.857533	-0.687589	0.406149
C207	C	0.781701	-0.476100	0.320732
C208	C	0.737746	-0.442055	0.364620
C209	C	0.687456	-0.468064	0.414799
H210	H	0.811974	-0.496473	0.355367
H211	H	0.747117	-0.496459	0.290358
H212	H	0.772326	-0.421705	0.394992
H213	H	0.707457	-0.421681	0.330005
H214	H	0.652872	-0.488423	0.384425
H215	H	0.717736	-0.488436	0.449430
H216	H	0.657622	-0.444969	0.444578
C217	C	0.764565	-0.000063	-0.222906
C218	C	0.773290	-0.000078	-0.304736
C219	C	0.698930	-0.000103	-0.341107
H220	H	0.736366	0.028860	-0.207519
H221	H	0.736407	-0.029003	-0.207464
H222	H	0.801435	0.028859	-0.320172
H223	H	0.801476	-0.028999	-0.320146
H224	H	0.670772	-0.029043	-0.325665
H225	H	0.670736	0.028821	-0.325714
H226	H	0.704839	-0.000118	-0.396633
C227	C	0.781912	-0.367222	0.320752
C228	C	0.826854	-0.337236	0.371586
C229	C	0.776809	-0.311063	0.421789
H230	H	0.752013	-0.390200	0.350685
H231	H	0.747382	-0.346822	0.290385
H232	H	0.861370	-0.357635	0.401950
H233	H	0.856751	-0.314249	0.341674
H234	H	0.742279	-0.290663	0.391422
H235	H	0.746913	-0.334045	0.451717
H236	H	0.807294	-0.290711	0.456281
C237	C	0.778188	-0.000066	-0.051450
C238	C	0.711592	-0.000073	-0.100751
C239	C	0.643661	-0.000095	-0.054904
H240	H	0.777709	0.028856	-0.019174
H241	H	0.777756	-0.029007	-0.019190
H242	H	0.712024	0.028865	-0.132997
H243	H	0.712045	-0.028993	-0.133026
H244	H	0.643228	-0.029036	-0.022644
H245	H	0.643190	0.028828	-0.022630
H246	H	0.598468	-0.000104	-0.088348
H247	H	1.054770	-0.000071	-0.081563
H248	H	0.795433	-0.531036	0.307088
H249	H	0.845593	-0.228905	0.256996
H250	H	0.166444	-0.000055	0.305950
H251	H	1.076596	-0.000061	-0.604202
