data_functionalizedCrystal
_audit_creation_method	'MofGen! by Chris Wilmer'
_symmetry_space_group_name_H-M	'P1'
_symmetry_Int_Tables_number	1
_symmetry_cell_setting	triclinic
loop_
_symmetry_equiv_pos_as_xyz
  x,y,z
_cell_length_a	9.065218
_cell_length_b	13.339070
_cell_length_c	7.540329
_cell_angle_alpha	89.998761
_cell_angle_beta	89.996962
_cell_angle_gamma	100.322590
loop_
_atom_site_label
_atom_site_type_symbol
_atom_site_fract_x
_atom_site_fract_y
_atom_site_fract_z
O1	O	2.018453	0.148888	-0.147480
O2	O	1.593930	0.161101	-0.147482
O3	O	1.757470	0.007285	-0.147476
O4	O	1.854913	0.302705	-0.147487
O5	O	1.757455	0.007283	0.147489
O6	O	1.593915	0.161099	0.147483
O7	O	2.018438	0.148886	0.147485
Cu8	Cu	1.806176	0.154992	0.174416
Cu9	Cu	1.806193	0.154995	-0.174414
O10	O	1.854898	0.302702	0.147479
C11	C	1.538478	0.159926	-0.000000
C12	C	1.373267	0.156417	-0.000001
C13	C	1.741002	-0.030556	0.000004
C14	C	1.691939	-0.143308	-0.000004
C15	C	2.073430	-0.504605	-0.000001
C16	C	2.119533	-0.398670	0.000016
C17	C	2.012638	-0.334824	0.000010
C18	C	1.859634	-0.376924	-0.000011
C19	C	1.813527	-0.482870	-0.000014
C20	C	1.752734	-0.313089	-0.000003
C21	C	1.599730	-0.355188	-0.000024
C22	C	1.553631	-0.461124	-0.000028
C23	C	1.660525	-0.524969	-0.000022
C24	C	1.798841	-0.207143	0.000000
C25	C	1.538938	-0.185408	-0.000012
C26	C	1.492836	-0.291343	-0.000029
C27	C	2.073890	0.150061	-0.000002
C28	C	2.239101	0.153570	-0.000012
C29	C	1.871366	0.340544	-0.000005
C30	C	1.920429	0.453295	-0.000010
N31	N	1.806174	0.154990	0.419765
N32	N	1.806202	0.154989	-0.419763
H33	H	1.923418	-0.172877	0.000018
O34	O	1.435143	-0.123358	-0.000339
C35	C	1.336435	0.008915	-0.153107
C36	C	1.454024	-0.061321	-0.152984
H37	H	1.351679	0.059105	-0.276488
H38	H	1.219124	-0.039321	-0.153223
H39	H	1.351514	0.059009	-0.029609
H40	H	1.439084	-0.111428	-0.276460
H41	H	1.571290	-0.013024	-0.152776
H42	H	2.244108	-0.364400	0.000036
O43	O	2.057605	-0.231935	0.000254
C44	C	2.194985	-0.085870	0.153127
C45	C	2.144181	-0.202406	0.153061
H46	H	2.264965	-0.061958	0.276678
H47	H	2.265209	-0.061878	0.029776
H48	H	2.092285	-0.047491	0.153026
H49	H	2.246795	-0.240867	0.153225
H50	H	2.073906	-0.226323	0.276402
H51	H	1.622996	-0.611232	-0.000043
O52	O	1.405047	-0.502138	-0.000276
C53	C	1.202156	-0.609072	-0.153163
C54	C	1.370456	-0.562715	-0.153079
H55	H	1.174130	-0.658041	-0.276710
H56	H	1.174007	-0.658197	-0.029808
H57	H	1.133710	-0.545227	-0.153084
H58	H	1.439016	-0.626493	-0.153221
H59	H	1.398486	-0.513564	-0.276424
O60	O	2.177312	-0.566579	0.000320
C61	C	2.385382	-0.617540	0.153093
C62	C	2.267781	-0.547313	0.152968
H63	H	2.458577	-0.601973	0.276476
H64	H	2.326226	-0.700507	0.153206
H65	H	2.458474	-0.602078	0.029597
H66	H	2.194654	-0.562683	0.276443
H67	H	2.327031	-0.464368	0.152763
H68	H	1.368256	-0.325636	-0.000046
