data_functionalizedCrystal
_audit_creation_method	'MofGen! by Chris Wilmer'
_symmetry_space_group_name_H-M	'P1'
_symmetry_Int_Tables_number	1
_symmetry_cell_setting	triclinic
loop_
_symmetry_equiv_pos_as_xyz
  x,y,z
_cell_length_a	16.974829
_cell_length_b	10.489741
_cell_length_c	16.053802
_cell_angle_alpha	92.592148
_cell_angle_beta	83.771117
_cell_angle_gamma	83.967515
loop_
_atom_site_label
_atom_site_type_symbol
_atom_site_fract_x
_atom_site_fract_y
_atom_site_fract_z
O1	O	1.056776	0.151708	-0.140830
O2	O	0.825945	0.173611	-0.125236
O3	O	0.946612	-0.023052	-0.133383
O4	O	0.936108	0.348371	-0.132683
O5	O	0.939970	-0.012272	0.005925
O6	O	0.819303	0.184392	0.014072
O7	O	1.050133	0.162488	-0.001523
Zn8	Zn	0.933664	0.175152	0.028393
Zn9	Zn	0.942415	0.160948	-0.155151
O10	O	0.929466	0.359151	0.006624
C11	C	0.793066	0.178367	-0.053585
C12	C	0.704993	0.176462	-0.047635
C13	C	0.208841	0.166409	-0.005990
C14	C	0.291595	0.168199	-0.011583
C15	C	0.336594	0.163208	-0.090317
C16	C	0.298833	0.156439	-0.163463
C17	C	0.216080	0.154659	-0.157870
C18	C	0.584478	0.167912	-0.115188
C19	C	0.667238	0.169690	-0.120776
C20	C	0.659994	0.181452	0.031105
C21	C	0.577240	0.179663	0.036692
C22	C	0.539486	0.172901	-0.036454
N23	N	0.421183	0.165034	-0.096035
N24	N	0.454898	0.171085	-0.030735
C25	C	0.942498	-0.065176	-0.063676
C26	C	0.940124	-0.206754	-0.063517
C27	C	0.863347	-0.273228	-0.058336
C28	C	0.896341	-0.360823	0.007899
C29	C	0.902908	-0.371427	-0.129448
C30	C	0.973147	-0.292480	0.002773
C31	C	0.979706	-0.303078	-0.134635
C32	C	1.012755	-0.390645	-0.068387
C33	C	1.083013	0.157732	-0.073175
C34	C	1.171086	0.159637	-0.079131
C35	C	0.933580	0.401276	-0.063084
C36	C	0.935954	0.542853	-0.063249
N37	N	0.927697	0.184844	0.153656
N38	N	0.948388	0.151245	-0.280414
C39	C	0.979060	0.101193	0.193882
C40	C	0.974894	0.107986	0.281570
C41	C	0.919367	0.198436	0.329030
C42	C	0.867999	0.282091	0.288798
C43	C	0.872162	0.275291	0.201112
C44	C	0.901182	0.228100	0.591667
C45	C	0.897024	0.234896	0.679359
C46	C	1.003919	0.060788	0.672125
C47	C	1.008081	0.054002	0.584437
C48	C	0.956709	0.137652	0.544213
N49	N	0.915109	0.205384	0.418661
N50	N	0.960964	0.130698	0.454584
H51	H	0.703873	0.165635	-0.184894
H52	H	0.322331	0.173711	0.047977
C53	C	1.060418	-0.031230	0.716379
N54	N	1.102972	-0.100548	0.749712
H55	H	0.690742	0.186959	0.090657
C56	C	0.159349	0.171903	0.080624
N57	N	0.122074	0.176049	0.145865
C58	C	0.542962	0.160447	-0.195652
N59	N	0.511690	0.154816	-0.256261
C60	C	0.527744	0.185188	0.123306
N61	N	0.490464	0.189357	0.188544
H62	H	0.851806	0.308557	0.717998
C63	C	0.348335	0.150946	-0.250072
N64	N	0.385620	0.146802	-0.315307
H65	H	0.185341	0.149148	-0.217429
C66	C	1.031379	0.015932	0.325815
N67	N	1.073919	-0.053419	0.359141
H68	H	1.053295	-0.019649	0.545797
C69	C	0.844775	0.320284	0.547426
N70	N	0.802324	0.389780	0.514097
H71	H	0.800218	-0.222202	-0.054002
H72	H	0.822784	0.355733	0.327446
H73	H	0.861086	-0.386635	0.068163
C74	C	0.815664	0.367324	0.156864
N75	N	0.773109	0.436648	0.123537
H76	H	1.002833	-0.257853	0.058714
C77	C	1.098107	-0.459277	-0.074100
N78	N	1.162391	-0.510974	-0.078397
C79	C	1.027297	-0.268156	-0.216051
N80	N	1.063136	-0.241849	-0.277380
C81	C	0.862745	-0.418394	-0.204930
N82	N	0.832488	-0.453762	-0.261780
H83	H	1.024279	0.027545	0.155245
