data_functionalizedCrystal
_audit_creation_method	'MofGen! by Chris Wilmer'
_symmetry_space_group_name_H-M	'P1'
_symmetry_Int_Tables_number	1
_symmetry_cell_setting	triclinic
loop_
_symmetry_equiv_pos_as_xyz
  x,y,z
_cell_length_a	14.519709
_cell_length_b	27.731996
_cell_length_c	13.596369
_cell_angle_alpha	89.988048
_cell_angle_beta	90.000291
_cell_angle_gamma	83.150767
loop_
_atom_site_label
_atom_site_type_symbol
_atom_site_fract_x
_atom_site_fract_y
_atom_site_fract_z
O1	O	1.222743	0.063364	-0.081677
O2	O	1.556077	0.396697	0.251657
O3	O	1.889410	0.730030	0.584990
O4	O	0.954134	0.070825	-0.081708
O5	O	1.287467	0.404159	0.251625
O6	O	1.620801	0.737492	0.584958
O7	O	1.096806	-0.003264	-0.081670
O8	O	1.430140	0.330069	0.251663
O9	O	1.763473	0.663403	0.584996
O10	O	1.080071	0.137453	-0.081715
O11	O	1.413405	0.470786	0.251618
O12	O	1.746738	0.804120	0.584952
O13	O	1.096792	-0.003268	0.081913
O14	O	1.430126	0.330065	0.415246
O15	O	1.763459	0.663399	0.748579
O16	O	0.954120	0.070822	0.081874
O17	O	1.287453	0.404155	0.415208
O18	O	1.620787	0.737488	0.748541
O19	O	1.222729	0.063360	0.081906
O20	O	1.556063	0.396693	0.415239
O21	O	1.889396	0.730026	0.748573
Zn22	Zn	1.088422	0.067090	0.107863
Zn23	Zn	1.421756	0.400423	0.441196
Zn24	Zn	1.755089	0.733757	0.774529
Zn25	Zn	1.088441	0.067095	-0.107665
Zn26	Zn	1.421774	0.400429	0.225668
Zn27	Zn	1.755108	0.733762	0.559002
O28	O	1.080057	0.137449	0.081868
O29	O	1.413391	0.470783	0.415201
O30	O	1.746724	0.804116	0.748535
C31	C	0.919773	0.070476	0.000079
C32	C	1.253107	0.403809	0.333413
C33	C	1.586440	0.737142	0.666746
C34	C	0.817411	0.069434	0.000068
C35	C	1.150744	0.402767	0.333401
C36	C	1.484077	0.736100	0.666735
C37	C	1.096455	-0.021275	0.000124
C38	C	1.429789	0.312058	0.333458
C39	C	1.763122	0.645392	0.666791
C40	C	1.095420	-0.074936	0.000134
C41	C	1.428753	0.258397	0.333468
C42	C	1.762087	0.591730	0.666801
C43	C	0.442583	0.065597	0.000114
C44	C	0.775916	0.398931	0.333447
C45	C	1.109250	0.732264	0.666781
C46	C	0.546872	0.066663	0.000101
C47	C	0.880205	0.399996	0.333434
C48	C	1.213539	0.733329	0.666768
C49	C	0.629994	0.067515	0.000090
C50	C	0.963327	0.400849	0.333424
C51	C	1.296660	0.734182	0.666757
C52	C	0.734289	0.068581	0.000079
C53	C	1.067622	0.401914	0.333412
C54	C	1.400956	0.735248	0.666746
C55	C	1.088913	-0.407681	-0.089084
C56	C	1.422246	-0.074348	0.244250
C57	C	1.755580	0.258985	0.577583
C58	C	1.084981	-0.609358	-0.089101
C59	C	1.418314	-0.276025	0.244232
C60	C	1.751648	0.057308	0.577565
O61	O	1.084439	-0.635430	-0.164937
O62	O	1.417773	-0.302097	0.168396
O63	O	1.751106	0.031237	0.501730
N64	N	1.084485	-0.634580	0.000067
N65	N	1.417818	-0.301247	0.333400
N66	N	1.751152	0.032087	0.666733
C67	C	1.084966	-0.609379	0.089246
C68	C	1.418299	-0.276046	0.422579
C69	C	1.751633	0.057288	0.755912
O70	O	1.084444	-0.635458	0.165088
O71	O	1.417778	-0.302125	0.498422
O72	O	1.751111	0.031208	0.831755
C73	C	1.088891	-0.407702	0.089262
C74	C	1.422225	-0.074369	0.422596
C75	C	1.755558	0.258964	0.755929
C76	C	1.089397	-0.382484	0.000088
C77	C	1.422730	-0.049151	0.333422
C78	C	1.756063	0.284183	0.666755
C79	C	1.089417	-0.382463	-0.178250
C80	C	1.422751	-0.049130	0.155083
C81	C	1.756084	0.284204	0.488416
C82	C	1.090405	-0.332047	-0.178245
C83	C	1.423739	0.001286	0.155088
C84	C	1.757072	0.334620	0.488422
C85	C	1.090889	-0.306850	-0.089073
C86	C	1.424222	0.026484	0.244260
C87	C	1.757556	0.359817	0.577594
C88	C	1.090385	-0.332068	0.000094
C89	C	1.423718	0.001265	0.333427
C90	C	1.757051	0.334599	0.666760
C91	C	1.089366	-0.382502	0.178440
C92	C	1.422699	-0.049168	0.511774
C93	C	1.756032	0.284165	0.845107
C94	C	1.090345	-0.332079	0.178437
C95	C	1.423678	0.001254	0.511770
C96	C	1.757011	0.334587	0.845103
C97	C	1.090850	-0.306861	0.089263
C98	C	1.424183	0.026472	0.422596
C99	C	1.757517	0.359806	0.755929
C100	C	1.091856	-0.256455	0.089271
C101	C	1.425190	0.076878	0.422605
C102	C	1.758523	0.410212	0.755938
N103	N	1.092352	-0.231233	0.000103
N104	N	1.425686	0.102100	0.333436
N105	N	1.759019	0.435433	0.666770
C106	C	1.091869	-0.256431	-0.089069
C107	C	1.425202	0.076903	0.244264
C108	C	1.758535	0.410236	0.577598
C109	C	1.082907	-0.715262	0.089231
C110	C	1.416240	-0.381929	0.422564
C111	C	1.749574	-0.048596	0.755897
C112	C	1.081927	-0.765681	0.089227
C113	C	1.415261	-0.432348	0.422560
C114	C	1.748594	-0.099015	0.755893
C115	C	1.081941	-0.765657	-0.089121
C116	C	1.415274	-0.432324	0.244213
C117	C	1.748607	-0.098990	0.577546
C118	C	1.082927	-0.715238	-0.089116
C119	C	1.416260	-0.381904	0.244218
C120	C	1.749594	-0.048571	0.577551
C121	C	1.083403	-0.690041	0.000063
C122	C	1.416736	-0.356707	0.333396
C123	C	1.750070	-0.023374	0.666729
C124	C	1.093944	-0.150554	-0.089051
C125	C	1.427278	0.182780	0.244282
C126	C	1.760611	0.516113	0.577616
C127	C	1.094936	-0.100134	-0.089038
C128	C	1.428270	0.233200	0.244296
C129	C	1.761603	0.566533	0.577629
C130	C	1.094918	-0.100162	0.089309
C131	C	1.428251	0.233172	0.422642
C132	C	1.761585	0.566505	0.755976
C133	C	1.093931	-0.150578	0.089296
C134	C	1.427264	0.182756	0.422630
C135	C	1.760598	0.516089	0.755963
C136	C	1.093441	-0.175772	0.000108
C137	C	1.426774	0.157561	0.333442
C138	C	1.760108	0.490894	0.666775
O139	O	1.092388	-0.230352	0.165067
O140	O	1.425721	0.102982	0.498400
O141	O	1.759055	0.436315	0.831734
O142	O	1.092370	-0.230341	-0.164900
O143	O	1.425703	0.102992	0.168433
O144	O	1.759037	0.436326	0.501766
C145	C	1.087925	-0.458097	-0.089089
C146	C	1.421258	-0.124764	0.244244
C147	C	1.754592	0.208569	0.577578
C148	C	1.087421	-0.483316	0.000078
C149	C	1.420754	-0.149983	0.333411
C150	C	1.754087	0.183351	0.666744
C151	C	1.087904	-0.458118	0.089250
C152	C	1.421238	-0.124785	0.422583
C153	C	1.754571	0.208548	0.755917
C154	C	1.086441	-0.533735	0.000074
C155	C	1.419774	-0.200402	0.333407
C156	C	1.753108	0.132932	0.666741
C157	C	1.085957	-0.558932	-0.089098
C158	C	1.419291	-0.225599	0.244235
C159	C	1.752624	0.107734	0.577568
C160	C	1.086453	-0.533711	-0.178266
C161	C	1.419787	-0.200377	0.155067
C162	C	1.753120	0.132956	0.488400
C163	C	1.087441	-0.483295	-0.178261
C164	C	1.420775	-0.149961	0.155072
C165	C	1.754108	0.183372	0.488406
C166	C	1.087408	-0.483340	0.178418
C167	C	1.420742	-0.150007	0.511751
C168	C	1.754075	0.183327	0.845085
C169	C	1.086421	-0.533756	0.178405
C170	C	1.419755	-0.200423	0.511739
C171	C	1.753088	0.132911	0.845072
C172	C	1.085938	-0.558953	0.089233
C173	C	1.419271	-0.225620	0.422567
C174	C	1.752604	0.107713	0.755900
C175	C	1.257090	0.063709	0.000116
C176	C	1.590423	0.397043	0.333450
C177	C	1.923757	0.730376	0.666783
C178	C	1.359453	0.064752	0.000121
C179	C	1.692786	0.398085	0.333454
C180	C	2.026119	0.731418	0.666788
C181	C	1.080408	0.155460	0.000071
C182	C	1.413741	0.488794	0.333404
C183	C	1.747075	0.822127	0.666738
C184	C	1.081443	0.209121	0.000055
C185	C	1.414777	0.542455	0.333388
C186	C	1.748110	0.875788	0.666721
N187	N	1.088417	0.067086	0.254954
N188	N	1.421750	0.400420	0.588288
N189	N	1.755083	0.733753	0.921621
N190	N	1.088454	0.067095	-0.254757
N191	N	1.421788	0.400429	0.078577
N192	N	1.755121	0.733762	0.411910
C193	C	1.088440	0.067096	0.656245
C194	C	1.421773	0.400429	0.989579
C195	C	1.755106	0.733762	1.322912
C196	C	1.088431	0.067095	0.544594
C197	C	1.421764	0.400428	0.877927
C198	C	1.755097	0.733761	1.211261
C199	C	1.088429	0.067091	0.455603
C200	C	1.421762	0.400425	0.788937
C201	C	1.755095	0.733758	1.122270
C202	C	1.088419	0.067090	0.343945
C203	C	1.421752	0.400423	0.677278
C204	C	1.755085	0.733756	1.010612
H205	H	1.095350	-0.079603	-0.161657
H206	H	1.428683	0.253730	0.171676
H207	H	1.762017	0.587063	0.505010
O208	O	1.087721	-0.458836	0.265020
O209	O	1.421054	-0.125503	0.598354
O210	O	1.754387	0.207830	0.931687
C211	C	1.008408	-0.424252	0.270360
C212	C	1.341741	-0.090918	0.603693
C213	C	1.675074	0.242415	0.937027
H214	H	0.952262	-0.435650	0.219749
H215	H	1.285595	-0.102317	0.553083
H216	H	1.618929	0.231016	0.886416
H217	H	0.981601	-0.421880	0.349228
H218	H	1.314934	-0.088547	0.682561
H219	H	1.648267	0.244787	1.015895
H220	H	1.027224	-0.387259	0.246423
H221	H	1.360557	-0.053926	0.579756
H222	H	1.693891	0.279407	0.913089
O223	O	1.081300	-0.790149	-0.175718
O224	O	1.414634	-0.456816	0.157615
O225	O	1.747967	-0.123482	0.490948
C226	C	1.000842	-0.813913	-0.181033
C227	C	1.334176	-0.480579	0.152300
C228	C	1.667509	-0.147246	0.485633
H229	H	0.945297	-0.794940	-0.130432
H230	H	1.278630	-0.461606	0.202901
H231	H	1.611964	-0.128273	0.536234
H232	H	0.974007	-0.812665	-0.259900
H233	H	1.307340	-0.479332	0.073434
H234	H	1.640673	-0.145999	0.406767
H235	H	1.018162	-0.853348	-0.157067
H236	H	1.351496	-0.520015	0.176266
H237	H	1.684829	-0.186682	0.509599
O238	O	1.085813	-0.558206	-0.264860
O239	O	1.419146	-0.224872	0.068473
O240	O	1.752480	0.108461	0.401807
C241	C	1.005352	-0.581967	-0.270171
C242	C	1.338685	-0.248633	0.063162
C243	C	1.672018	0.084700	0.396495
H244	H	0.949806	-0.562989	-0.219577
H245	H	1.283140	-0.229655	0.113757
H246	H	1.616473	0.103678	0.447090
H247	H	0.978519	-0.580723	-0.349039
H248	H	1.311852	-0.247390	-0.015706
H249	H	1.645186	0.085943	0.317628
H250	H	1.022665	-0.621401	-0.246195
H251	H	1.355999	-0.288068	0.087138
H252	H	1.689332	0.045265	0.420472
H253	H	1.081530	-0.786211	0.161841
H254	H	1.414863	-0.452877	0.495175
H255	H	1.748196	-0.119544	0.828508
O256	O	1.090932	-0.307561	0.265008
O257	O	1.424265	0.025772	0.598341
O258	O	1.757598	0.359105	0.931674
C259	C	1.171411	-0.283818	0.270386
C260	C	1.504744	0.049515	0.603719
C261	C	1.838078	0.382849	0.937053
H262	H	1.198210	-0.278053	0.192973
H263	H	1.531544	0.055280	0.526306
H264	H	1.864877	0.388613	0.859640
H265	H	1.154127	-0.247154	0.308137
H266	H	1.487460	0.086179	0.641471
H267	H	1.820793	0.419513	0.974804
H268	H	1.226973	-0.307046	0.314395
H269	H	1.560306	0.026288	0.647729
H270	H	1.893639	0.359621	0.981062
H271	H	1.093528	-0.171112	0.161909
H272	H	1.426861	0.162221	0.495242
H273	H	1.760195	0.495554	0.828576
H274	H	1.087852	-0.462766	-0.250876
H275	H	1.421186	-0.129433	0.082458
H276	H	1.754519	0.203900	0.415791
H277	H	1.093541	-0.171061	-0.161676
H278	H	1.426874	0.162273	0.171657
H279	H	1.760208	0.495606	0.504990
O280	O	1.090843	-0.307625	-0.264957
O281	O	1.424176	0.025709	0.068376
O282	O	1.757509	0.359042	0.401709
C283	C	1.090224	-0.340686	-0.343653
C284	C	1.423557	-0.007353	-0.010319
C285	C	1.756891	0.325981	0.323014
H286	H	1.060319	-0.374651	-0.317502
H287	H	1.393653	-0.041318	0.015831
H288	H	1.726986	0.292016	0.349165
H289	H	1.045717	-0.323085	-0.406025
H290	H	1.379050	0.010248	-0.072691
H291	H	1.712384	0.343582	0.260642
H292	H	1.164133	-0.351056	-0.371067
H293	H	1.497466	-0.017723	-0.037734
H294	H	1.830800	0.315610	0.295600
O295	O	1.095217	-0.075643	0.175897
O296	O	1.428550	0.257691	0.509230
O297	O	1.761883	0.591024	0.842563
C298	C	1.015893	-0.041063	0.181182
C299	C	1.349226	0.292270	0.514515
C300	C	1.682559	0.625604	0.847848
H301	H	0.959766	-0.052480	0.130568
H302	H	1.293100	0.280853	0.463901
H303	H	1.626433	0.614187	0.797235
H304	H	0.989064	-0.038673	0.260040
H305	H	1.322397	0.294660	0.593374
H306	H	1.655730	0.627993	0.926707
H307	H	1.034704	-0.004074	0.157212
H308	H	1.368037	0.329259	0.490545
H309	H	1.701371	0.662592	0.823878
O310	O	1.083368	-0.690814	-0.175826
O311	O	1.416702	-0.357481	0.157507
O312	O	1.750035	-0.024147	0.490840
C313	C	1.082759	-0.723874	-0.254526
C314	C	1.416092	-0.390540	0.078808
C315	C	1.749426	-0.057207	0.412141
H316	H	1.052854	-0.757840	-0.228382
H317	H	1.386187	-0.424506	0.104951
H318	H	1.719521	-0.091173	0.438285
H319	H	1.038257	-0.706272	-0.316900
H320	H	1.371590	-0.372939	0.016433
H321	H	1.704923	-0.039605	0.349766
H322	H	1.156671	-0.734242	-0.281933
H323	H	1.490004	-0.400909	0.051400
H324	H	1.823337	-0.067576	0.384734
O325	O	1.089074	-0.406997	-0.264817
O326	O	1.422407	-0.073663	0.068516
O327	O	1.755740	0.259670	0.401850
C328	C	1.168422	-0.441558	-0.270162
C329	C	1.501755	-0.108224	0.063172
C330	C	1.835089	0.225109	0.396505
H331	H	1.194900	-0.450930	-0.192737
H332	H	1.528233	-0.117597	0.140596
H333	H	1.861567	0.215736	0.473929
H334	H	1.149774	-0.475789	-0.307926
H335	H	1.483107	-0.142455	0.025408
H336	H	1.816440	0.190878	0.358741
H337	H	1.224755	-0.425902	-0.314143
H338	H	1.558088	-0.092569	0.019190
H339	H	1.891421	0.240765	0.352524
O340	O	1.083422	-0.690868	0.175953
O341	O	1.416755	-0.357534	0.509286
O342	O	1.750089	-0.024201	0.842619
C343	C	1.082757	-0.723945	0.254642
C344	C	1.416090	-0.390612	0.587976
C345	C	1.749423	-0.057278	0.921309
H346	H	1.111259	-0.761858	0.228483
H347	H	1.444592	-0.428524	0.561817
H348	H	1.777926	-0.095191	0.895150
H349	H	1.127835	-0.712424	0.317014
H350	H	1.461168	-0.379091	0.650347
H351	H	1.794501	-0.045758	0.983680
H352	H	1.008640	-0.724301	0.282061
H353	H	1.341974	-0.390968	0.615394
H354	H	1.675307	-0.057634	0.948728
O355	O	1.088829	-0.406913	0.265153
O356	O	1.422162	-0.073580	0.598487
O357	O	1.755495	0.259754	0.931820
C358	C	1.089482	-0.373853	0.343846
C359	C	1.422815	-0.040519	0.677180
C360	C	1.756149	0.292814	1.010513
H361	H	1.060985	-0.335934	0.317684
H362	H	1.394319	-0.002601	0.651017
H363	H	1.727652	0.330732	0.984350
H364	H	1.044392	-0.385387	0.406205
H365	H	1.377726	-0.052053	0.739538
H366	H	1.711059	0.281280	1.072872
H367	H	1.163593	-0.373504	0.371285
H368	H	1.496927	-0.040170	0.704618
H369	H	1.830260	0.293163	1.037951
H370	H	1.086017	-0.554285	0.251027
H371	H	1.419350	-0.220952	0.584360
H372	H	1.752684	0.112382	0.917694
