data_functionalizedCrystal
_audit_creation_method	'MofGen! by Chris Wilmer'
_symmetry_space_group_name_H-M	'P1'
_symmetry_Int_Tables_number	1
_symmetry_cell_setting	triclinic
loop_
_symmetry_equiv_pos_as_xyz
  x,y,z
_cell_length_a	18.050590
_cell_length_b	21.295417
_cell_length_c	18.050583
_cell_angle_alpha	89.959541
_cell_angle_beta	89.999666
_cell_angle_gamma	90.019674
loop_
_atom_site_label
_atom_site_type_symbol
_atom_site_fract_x
_atom_site_fract_y
_atom_site_fract_z
Zn1	Zn	1.135289	-0.250746	-0.419580
Zn2	Zn	1.135192	-0.356033	-0.295381
Zn3	Zn	1.011106	-0.250761	-0.295438
Zn4	Zn	1.011051	-0.355962	-0.419563
O5	O	1.073159	-0.303375	-0.357491
O6	O	1.239200	-0.264736	-0.403088
O7	O	1.118714	-0.342104	-0.191464
O8	O	1.027642	-0.162670	-0.311937
O9	O	1.239129	-0.342090	-0.311839
O10	O	1.118879	-0.162659	-0.403143
O11	O	1.027548	-0.264762	-0.191506
O12	O	0.907174	-0.264693	-0.311921
O13	O	1.027549	-0.341968	-0.523490
O14	O	0.907134	-0.341983	-0.403115
O15	O	1.118826	-0.264667	-0.523502
O16	O	1.118661	-0.444113	-0.311823
O17	O	1.027455	-0.444060	-0.403060
C18	C	0.880207	-0.303332	-0.357523
C19	C	0.797661	-0.303329	-0.357554
C20	C	0.598210	-0.345480	-0.407028
C21	C	0.548820	-0.288079	-0.425308
C22	C	0.646531	-0.303364	-0.357518
C23	C	0.548839	-0.360798	-0.339237
C24	C	0.500546	-0.303403	-0.357484
C25	C	0.598228	-0.245933	-0.375833
C26	C	0.598252	-0.318691	-0.289731
C27	C	0.548884	-0.261250	-0.307985
C28	C	0.730629	-0.303343	-0.357539
C29	C	0.416449	-0.303419	-0.357463
C30	C	1.073062	-0.466927	-0.357450
C31	C	1.073088	-0.536895	-0.357457
C32	C	1.120621	-0.569768	-0.309999
C33	C	1.120656	-0.635511	-0.310015
C34	C	1.073145	-0.668378	-0.357482
C35	C	1.025608	-0.635497	-0.404950
C36	C	1.025580	-0.569756	-0.404937
N37	N	1.008178	-0.771632	-0.363155
N38	N	1.008207	-0.834084	-0.363163
C39	C	1.073228	-0.866452	-0.357525
N40	N	1.138220	-0.834010	-0.351865
N41	N	1.138191	-0.771553	-0.351853
C42	C	1.073170	-0.739663	-0.357502
C43	C	1.120803	-0.970611	-0.310082
C44	C	1.120839	-1.036354	-0.310104
C45	C	1.025784	-1.036339	-0.405035
C46	C	1.025755	-0.970597	-0.405017
C47	C	1.073263	-0.937737	-0.357537
C48	C	1.266865	-0.303419	-0.357459
C49	C	1.349411	-0.303438	-0.357445
C50	C	1.073192	-0.303308	-0.551196
C51	C	1.073206	-0.303280	-0.633742
C52	C	1.073277	-0.139185	-0.357548
C53	C	1.073328	-0.069217	-0.357573
C54	C	1.122892	-0.261223	-0.833200
C55	C	1.055159	-0.245805	-0.882614
C56	C	1.073236	-0.303269	-0.784873
C57	C	1.140996	-0.318646	-0.882540
C58	C	1.073271	-0.303257	-0.930858
C59	C	1.005467	-0.287822	-0.833200
C60	C	1.091349	-0.360689	-0.833121
C61	C	1.023570	-0.345294	-0.882514
C62	C	1.073217	-0.303274	-0.700774
C63	C	1.073282	-0.303252	-1.014954
C64	C	1.073169	-0.303397	-0.164539
C65	C	1.073299	-0.303248	-0.081993
H66	H	0.619980	-0.331658	-0.232436
H67	H	0.986925	-0.662261	-0.443599
H68	H	0.986872	-0.542990	-0.443584
H69	H	1.164816	-0.225644	-0.811544
H70	H	0.527362	-0.225610	-0.266102
H71	H	0.981544	-0.380846	-0.904030
O72	O	1.171870	-0.534324	-0.258801
H73	H	1.204935	-0.568232	-0.225809
H74	H	0.619871	-0.381033	-0.448944
O75	O	0.519937	-0.270986	-0.501196
H76	H	0.539644	-0.306020	-0.542202
O77	O	1.111656	-0.424995	-0.804285
H78	H	1.167941	-0.437659	-0.824005
O79	O	1.216879	-0.335891	-0.911249
H80	H	1.257977	-0.300925	-0.891489
O81	O	1.034870	-0.181481	-0.911416
H82	H	1.080787	-0.163096	-0.946117
O83	O	0.520099	-0.425109	-0.318759
H84	H	0.540747	-0.438102	-0.262896
O85	O	0.929562	-0.270501	-0.804613
H86	H	0.914502	-0.222984	-0.824928
H87	H	1.159551	-1.063118	-0.271460
H88	H	0.619832	-0.197364	-0.391346
H89	H	1.159366	-0.662281	-0.271369
H90	H	0.987102	-1.063099	-0.443687
O91	O	1.172050	-0.935161	-0.258885
H92	H	1.205120	-0.969067	-0.225896
O93	O	0.974468	-0.935134	-0.456185
H94	H	0.941426	-0.969031	-0.489187
