data_functionalizedCrystal
_audit_creation_method	'MofGen! by Chris Wilmer'
_symmetry_space_group_name_H-M	'P1'
_symmetry_Int_Tables_number	1
_symmetry_cell_setting	triclinic
loop_
_symmetry_equiv_pos_as_xyz
  x,y,z
_cell_length_a	10.540514
_cell_length_b	10.540539
_cell_length_c	9.130307
_cell_angle_alpha	89.998824
_cell_angle_beta	89.997959
_cell_angle_gamma	84.520326
loop_
_atom_site_label
_atom_site_type_symbol
_atom_site_fract_x
_atom_site_fract_y
_atom_site_fract_z
O1	O	1.685901	0.178746	-0.121810
O2	O	1.316484	0.195635	-0.121808
O3	O	1.509620	0.002483	-0.121808
O4	O	1.492764	0.371898	-0.121811
O5	O	1.509614	0.002481	0.121791
O6	O	1.316477	0.195633	0.121790
O7	O	1.685894	0.178744	0.121789
Cu8	Cu	1.501185	0.187188	0.144032
Cu9	Cu	1.501193	0.187190	-0.144052
O10	O	1.492758	0.371896	0.121788
C11	C	1.269177	0.194374	-0.000009
C12	C	1.128227	0.190605	-0.000008
C13	C	1.057522	0.328745	-0.000013
C14	C	0.910908	0.324871	-0.000573
C15	C	0.935893	0.115479	-0.138852
C16	C	1.082433	0.120333	-0.138961
C17	C	1.082828	0.118286	0.138066
C18	C	0.935849	0.116953	0.139883
C19	C	1.508353	-0.044821	-0.000011
C20	C	1.504571	-0.185769	-0.000019
C21	C	1.359652	-0.369182	-0.000565
C22	C	1.363486	-0.222564	-0.000016
C23	C	1.572464	-0.247433	0.139088
C24	C	1.567649	-0.393977	0.139205
C25	C	1.570525	-0.394494	-0.137812
C26	C	1.571825	-0.247512	-0.139652
C27	C	1.733201	0.180004	-0.000014
C28	C	1.874151	0.183774	-0.000024
C29	C	1.494025	0.419199	-0.000012
C30	C	1.497807	0.560147	-0.000014
N31	N	1.501189	0.187186	0.346655
N32	N	1.501199	0.187183	-0.346675
C33	C	1.672282	0.016200	0.346646
C34	C	1.757837	-0.069289	0.423308
C35	C	1.757850	-0.069290	0.576641
C36	C	1.672296	0.016205	0.653316
C37	C	1.586741	0.101694	0.576654
C38	C	1.586740	0.101689	0.423317
C39	C	1.415644	0.272672	0.576663
C40	C	1.415635	0.272681	0.423330
C41	C	1.330090	0.358167	0.653338
C42	C	1.244539	0.443664	0.576676
C43	C	1.244531	0.443663	0.423333
C44	C	1.330080	0.358170	0.346668
H45	H	0.893289	0.162294	-0.242564
H46	H	1.672291	0.016203	0.221794
C47	C	1.284353	-0.407825	-0.135320
N48	N	1.227635	-0.436943	-0.236819
C49	C	1.708191	-0.458314	-0.139084
N50	N	1.811875	-0.506391	-0.140032
C51	C	1.150432	0.537730	0.339017
N52	N	1.079564	0.608594	0.275515
H53	H	1.086059	0.384783	0.099527
H54	H	1.114319	0.164269	0.243326
H55	H	1.174881	0.513263	0.639114
H56	H	1.130084	0.016393	0.139407
C57	C	1.330078	0.358158	0.177997
N58	N	1.330076	0.358142	0.050951
C59	C	1.672291	0.016176	0.821987
N60	N	1.672283	0.016150	0.949032
H61	H	0.868242	0.378587	0.098922
H62	H	1.304144	-0.399385	0.098633
C63	C	1.851922	-0.163349	0.338955
N64	N	1.922779	-0.234204	0.275423
C65	C	1.120571	0.187710	-0.279702
N66	N	1.149290	0.238458	-0.385713
H67	H	1.130439	0.018860	-0.144888
C68	C	1.291305	-0.164997	-0.134723
N69	N	1.236929	-0.121643	-0.236185
H70	H	1.309684	-0.180804	0.099867
C71	C	0.880453	0.184369	0.278640
N72	N	0.838718	0.235146	0.383149
H73	H	1.330098	0.358158	0.778190
H74	H	0.913579	0.011847	-0.143622
C75	C	0.903166	-0.021985	0.151780
N76	N	0.878548	-0.126638	0.160731
C77	C	1.508837	-0.437107	-0.280250
N78	N	1.462359	-0.469201	-0.387527
H79	H	1.087752	0.383964	-0.099423
C80	C	1.712427	-0.217222	0.146099
N81	N	1.817844	-0.194456	0.151383
H82	H	1.669115	-0.441955	0.145516
H83	H	1.517467	-0.422173	0.243191
H84	H	1.522148	-0.206648	-0.242559
C85	C	1.508737	-0.189890	0.278941
N86	N	1.460729	-0.146551	0.384275
C87	C	1.710793	-0.214813	-0.150997
N88	N	1.815470	-0.190190	-0.159528
C89	C	1.851963	-0.163332	0.660972
N90	N	1.922851	-0.234164	0.724489
H91	H	0.869179	0.378359	-0.100678
