data_functionalizedCrystal
_audit_creation_method	'MofGen! by Chris Wilmer'
_symmetry_space_group_name_H-M	'P1'
_symmetry_Int_Tables_number	1
_symmetry_cell_setting	triclinic
loop_
_symmetry_equiv_pos_as_xyz
  x,y,z
_cell_length_a	6.394989
_cell_length_b	14.971486
_cell_length_c	13.448316
_cell_angle_alpha	90.001801
_cell_angle_beta	90.003556
_cell_angle_gamma	85.055920
loop_
_atom_site_label
_atom_site_type_symbol
_atom_site_fract_x
_atom_site_fract_y
_atom_site_fract_z
O1	O	-0.272213	-1.189891	-0.082571
O2	O	-0.304810	-0.929844	-0.082597
O3	O	0.015543	-1.063559	-0.082584
O4	O	-0.592567	-1.056176	-0.082583
O5	O	0.015563	-1.063541	0.082800
O6	O	-0.304791	-0.929826	0.082787
O7	O	-0.272193	-1.189874	0.082813
Cu8	Cu	-0.288490	-1.059848	0.097901
Cu9	Cu	-0.288513	-1.059869	-0.097685
O10	O	-0.592547	-1.056159	0.082800
C11	C	-0.303343	-0.896494	0.000091
C12	C	-0.298974	-0.797150	0.000081
C13	C	-0.273661	-1.223223	0.000122
C14	C	-0.278029	-1.322567	0.000126
N15	N	-0.288472	-1.059840	0.235465
C16	C	0.093378	-1.062090	0.000104
C17	C	0.329624	-1.057629	0.000102
N18	N	-0.288515	-1.059884	-0.235249
C19	C	-0.487173	-0.741960	0.000083
C20	C	-0.483056	-0.648616	0.000098
C21	C	-0.290737	-0.610464	0.000104
C22	C	-0.102524	-0.665661	0.000105
C23	C	-0.106643	-0.759003	0.000097
C24	C	-0.093951	-0.471106	0.000119
C25	C	-0.089830	-0.377757	0.000125
C26	C	-0.470364	-0.360719	0.000119
C27	C	-0.474483	-0.454061	0.000111
C28	C	-0.286268	-0.509252	0.000111
C29	C	-0.146678	-1.119069	0.287511
C30	C	-0.146676	-1.119074	0.391614
C31	C	-0.288480	-1.059855	0.443670
C32	C	-0.430282	-1.000620	0.391616
C33	C	-0.430272	-1.000611	0.287515
C34	C	-0.430296	-1.000645	0.608596
C35	C	-0.430309	-1.000655	0.712705
C36	C	-0.146700	-1.119109	0.712696
C37	C	-0.146690	-1.119099	0.608594
C38	C	-0.288495	-1.059865	0.556548
H39	H	-0.643782	-0.773016	0.000077
H40	H	-0.636307	-0.603684	0.000098
F41	F	0.004214	-1.182150	0.768091
H42	H	0.059314	-0.516040	0.000120
F43	F	-0.679170	-0.494663	0.000095
F44	F	0.004219	-1.182131	0.553193
H45	H	0.054066	-0.634590	0.000124
H46	H	-0.623615	-0.315778	0.000124
H47	H	-0.031213	-1.167296	0.245135
H48	H	0.046608	-0.803939	0.000096
F49	F	-0.581234	-0.937625	0.768099
H50	H	-0.545761	-0.952408	0.566224
H51	H	-0.031215	-1.167302	0.433990
F52	F	-0.581193	-0.937589	0.447018
F53	F	0.114857	-0.337155	0.000157
F54	F	-0.581184	-0.937569	0.232125
