data_functionalizedCrystal
_audit_creation_method	'MofGen! by Chris Wilmer'
_symmetry_space_group_name_H-M	'P1'
_symmetry_Int_Tables_number	1
_symmetry_cell_setting	triclinic
loop_
_symmetry_equiv_pos_as_xyz
  x,y,z
_cell_length_a	10.654550
_cell_length_b	19.188930
_cell_length_c	9.130313
_cell_angle_alpha	90.013579
_cell_angle_beta	89.995861
_cell_angle_gamma	83.814856
loop_
_atom_site_label
_atom_site_type_symbol
_atom_site_fract_x
_atom_site_fract_y
_atom_site_fract_z
O1	O	1.665756	0.098066	0.121709
O2	O	2.165756	0.598066	0.621709
O3	O	1.300079	0.107409	0.121737
O4	O	1.800079	0.607409	0.621737
O5	O	1.493470	0.001151	0.121693
O6	O	1.993470	0.501151	0.621693
O7	O	1.472365	0.204324	0.121752
O8	O	1.972365	0.704324	0.621752
O9	O	1.493475	0.001139	-0.121905
O10	O	1.993475	0.501139	0.378095
O11	O	1.300084	0.107397	-0.121862
O12	O	1.800084	0.607397	0.378138
O13	O	1.665760	0.098054	-0.121890
O14	O	2.165760	0.598054	0.378110
Cu15	Cu	1.482923	0.102724	-0.144118
Cu16	Cu	1.982923	0.602724	0.355882
Cu17	Cu	1.482917	0.102739	0.143965
Cu18	Cu	1.982917	0.602739	0.643965
O19	O	1.472370	0.204312	-0.121847
O20	O	1.972370	0.704312	0.378153
C21	C	1.253298	0.106717	-0.000059
C22	C	1.753298	0.606717	0.499941
C23	C	1.113898	0.104665	-0.000049
C24	C	1.613898	0.604665	0.499951
C25	C	1.492789	-0.024870	-0.000110
C26	C	1.992789	0.475130	0.499890
C27	C	1.490737	-0.102388	-0.000123
C28	C	1.990737	0.397612	0.499877
C29	C	1.033089	0.167228	-0.000035
C30	C	1.533089	0.667228	0.499965
C31	C	0.902109	0.165295	-0.000061
C32	C	1.402109	0.665295	0.499939
C33	C	0.932761	0.038231	-0.000109
C34	C	1.432761	0.538231	0.499891
C35	C	1.063738	0.040164	-0.000094
C36	C	1.563738	0.540164	0.499906
C37	C	1.604213	-0.146570	-0.000138
C38	C	2.104213	0.353430	0.499862
C39	C	1.602285	-0.219407	-0.000115
C40	C	2.102285	0.280593	0.499885
C41	C	1.486876	-0.248058	-0.000105
C42	C	1.986876	0.251942	0.499895
C43	C	1.373386	-0.203866	-0.000081
C44	C	1.873386	0.296134	0.499919
C45	C	1.375316	-0.131032	-0.000090
C46	C	1.875316	0.368968	0.499910
N47	N	1.398661	-0.356644	-0.082999
N48	N	1.898661	0.143356	0.417001
N49	N	1.396834	-0.425835	-0.082994
N50	N	1.896834	0.074165	0.417006
C51	C	1.481052	-0.467505	-0.000075
C52	C	1.981052	0.032495	0.499925
N53	N	1.567184	-0.437372	0.082821
N54	N	2.067184	0.062628	0.582821
N55	N	1.569014	-0.368175	0.082809
N56	N	2.069014	0.131825	0.582809
C57	C	1.484770	-0.327034	-0.000094
C58	C	1.984770	0.172966	0.499906
C59	C	1.592445	-0.590665	-0.000063
C60	C	2.092445	-0.090665	0.499937
C61	C	1.590513	-0.663502	-0.000030
C62	C	2.090513	-0.163502	0.499970
C63	C	1.361610	-0.647960	-0.000011
C64	C	1.861610	-0.147960	0.499989
C65	C	1.363545	-0.575124	-0.000029
C66	C	1.863545	-0.075124	0.499971
C67	C	1.478966	-0.546481	-0.000062
C68	C	1.978966	-0.046481	0.499938
C69	C	1.712541	0.098746	-0.000091
C70	C	2.212541	0.598746	0.499909
C71	C	1.851941	0.100799	-0.000091
C72	C	2.351941	0.600799	0.499909
C73	C	1.473051	0.230334	-0.000040
C74	C	1.973051	0.730334	0.499960
C75	C	1.475102	0.307852	-0.000018
C76	C	1.975102	0.807852	0.499982
N77	N	1.482914	0.102744	0.346588
N78	N	1.982914	0.602744	0.846588
N79	N	1.482936	0.102714	-0.346741
N80	N	1.982936	0.602714	0.153259
C81	C	1.407155	0.059911	0.423223
C82	C	1.907155	0.559911	0.923223
C83	C	1.407169	0.059894	0.576560
C84	C	1.907169	0.559894	1.076560
C85	C	1.558703	0.145548	0.576613
C86	C	2.058703	0.645548	1.076613
C87	C	1.558695	0.145561	0.423279
C88	C	2.058695	0.645561	0.923279
H89	H	1.073924	0.219748	-0.000010
H90	H	1.573924	0.719748	0.499990
H91	H	1.620400	0.180410	0.639073
H92	H	2.120400	0.680410	1.139073
H93	H	1.345450	0.025046	0.360786
H94	H	1.845450	0.525046	0.860786
C95	C	1.323828	0.012781	0.660853
C96	C	1.823828	0.512781	1.160853
H97	H	1.278690	-0.012711	0.593213
H98	H	1.778690	0.487289	1.093213
H99	H	1.375560	-0.019045	0.720633
H100	H	1.875560	0.480955	1.220633
H101	H	1.265794	0.041040	0.720699
H102	H	1.765794	0.541040	1.220699
H103	H	1.620394	0.180441	0.360881
H104	H	2.120394	0.680441	0.860881
H105	H	0.836318	0.216240	-0.000053
H106	H	1.336318	0.716240	0.499947
H107	H	0.891904	-0.014283	-0.000154
H108	H	1.391904	0.485717	0.499846
H109	H	1.698197	-0.123254	-0.000160
H110	H	2.198197	0.376746	0.499840
C111	C	1.152635	-0.028658	-0.000103
C112	C	1.652635	0.471342	0.499897
H113	H	1.104004	-0.067349	-0.000109
H114	H	1.604004	0.432651	0.499891
H115	H	1.204381	-0.030548	-0.085044
H116	H	1.704381	0.469452	0.414956
H117	H	1.204350	-0.030539	0.084863
H118	H	1.704350	0.469461	0.584863
H119	H	1.694693	-0.255386	-0.000122
H120	H	2.194693	0.244614	0.499878
H121	H	1.279418	-0.227199	-0.000069
H122	H	1.779418	0.272801	0.499931
C123	C	1.250492	-0.082427	-0.000075
C124	C	1.750492	0.417573	0.499925
H125	H	1.268172	-0.034946	-0.000075
H126	H	1.768172	0.465054	0.499925
H127	H	1.203145	-0.091183	-0.085012
H128	H	1.703145	0.408817	0.414988
H129	H	1.203157	-0.091157	0.084895
H130	H	1.703157	0.408843	0.584895
H131	H	1.686428	-0.567342	-0.000083
H132	H	2.186428	-0.067342	0.499917
C133	C	1.715342	-0.712103	-0.000050
C134	C	2.215342	-0.212103	0.499950
H135	H	1.784354	-0.684609	-0.000086
H136	H	2.284354	-0.184609	0.499914
H137	H	1.719357	-0.740827	0.084901
H138	H	2.219357	-0.240827	0.584901
H139	H	1.719337	-0.740850	-0.085006
H140	H	2.219337	-0.240850	0.414994
H141	H	1.271141	-0.539150	-0.000024
H142	H	1.771141	-0.039150	0.499976
C143	C	1.234662	-0.679468	0.000005
C144	C	1.734662	-0.179468	0.500005
H145	H	1.249762	-0.729174	0.000002
H146	H	1.749762	-0.229174	0.500002
H147	H	1.187952	-0.664325	0.084955
H148	H	1.687952	-0.164325	0.584955
H149	H	1.187957	-0.664353	-0.084952
H150	H	1.687957	-0.164353	0.415048
