data_functionalizedCrystal
_audit_creation_method	'MofGen! by Chris Wilmer'
_symmetry_space_group_name_H-M	'P1'
_symmetry_Int_Tables_number	1
_symmetry_cell_setting	triclinic
loop_
_symmetry_equiv_pos_as_xyz
  x,y,z
_cell_length_a	14.853569
_cell_length_b	16.974959
_cell_length_c	16.053802
_cell_angle_alpha	96.208439
_cell_angle_beta	87.417106
_cell_angle_gamma	83.519371
loop_
_atom_site_label
_atom_site_type_symbol
_atom_site_fract_x
_atom_site_fract_y
_atom_site_fract_z
O1	O	1.199531	0.100236	-0.062627
O2	O	0.936995	0.112572	-0.061805
O3	O	1.075998	-0.009061	-0.070002
O4	O	1.060527	0.221869	-0.054431
O5	O	1.068347	-0.002393	0.069307
O6	O	0.929344	0.119239	0.077503
O7	O	1.191880	0.106904	0.076681
Zn8	Zn	1.059397	0.114130	0.099210
Zn9	Zn	1.069478	0.105345	-0.084334
O10	O	1.052876	0.228536	0.084877
C11	C	0.899584	0.115346	0.007810
C12	C	0.799511	0.113670	0.007693
C13	C	0.763593	0.040632	0.002766
C14	C	0.741396	0.185135	0.012518
C15	C	0.647372	0.183563	0.012413
C16	C	0.611454	0.110524	0.007486
C17	C	0.669560	0.039058	0.002663
C18	C	0.589258	0.255029	0.017244
C19	C	0.495227	0.253460	0.017140
C20	C	0.459308	0.180420	0.012207
C21	C	0.517421	0.108950	0.007383
C22	C	0.481503	0.035912	0.002455
C23	C	0.539615	-0.035559	-0.002375
C24	C	0.633641	-0.033982	-0.002271
C25	C	0.365282	0.178843	0.012103
C26	C	0.387470	0.034338	0.002353
C27	C	1.071723	-0.035281	-0.002342
C28	C	1.070372	-0.123341	-0.008285
C29	C	1.229291	0.104129	0.007064
C30	C	1.329364	0.105805	0.007175
C31	C	1.063303	-0.619431	-0.049982
C32	C	1.064563	-0.536687	-0.044381
C33	C	1.061015	-0.491697	0.034357
C34	C	1.056216	-0.529455	0.107498
C35	C	1.054963	-0.612198	0.101896
C36	C	1.064321	-0.243843	0.059254
C37	C	1.065571	-0.161094	0.064851
C38	C	1.073920	-0.168332	-0.087029
C39	C	1.072661	-0.251076	-0.092624
C40	C	1.067867	-0.288828	-0.019483
N41	N	1.062300	-0.407118	0.040084
N42	N	1.066589	-0.373405	-0.025211
C43	C	1.057152	0.254756	0.017216
C44	C	1.058503	0.342816	0.023154
N45	N	1.052524	0.120125	0.224474
N46	N	1.076358	0.099344	-0.209599
C47	C	1.111692	0.068388	0.264682
C48	C	1.106892	0.072589	0.352372
C49	C	1.042929	0.128531	0.399853
C50	C	0.983755	0.180269	0.359639
C51	C	0.988551	0.176064	0.271951
C52	C	1.021980	0.146878	0.662499
C53	C	1.017190	0.151081	0.750193
C54	C	1.140327	0.043399	0.742920
C55	C	1.145121	0.039202	0.655230
C56	C	1.085944	0.090938	0.615024
N57	N	1.038023	0.132828	0.489486
N58	N	1.090846	0.086636	0.525392
H59	H	0.317971	0.237034	0.016043
O60	O	1.197708	-0.006822	0.782108
C61	C	1.179779	0.008894	0.869686
H62	H	1.107307	0.039002	0.883665
H63	H	1.229250	0.049953	0.897245
C64	C	1.280273	-0.107051	0.892073
C65	C	1.191260	-0.070078	0.909242
H66	H	1.287359	-0.155764	0.916474
H67	H	1.292356	-0.117639	0.833070
H68	H	1.321489	-0.072827	0.915039
H69	H	1.150046	-0.104297	0.886267
H70	H	1.179170	-0.059498	0.968242
H71	H	1.068474	-0.505953	-0.103936
O72	O	0.954925	0.205337	0.796279
C73	C	0.866922	0.191271	0.773982
H74	H	0.868122	0.126606	0.745595
H75	H	0.842996	0.232758	0.726051
C76	C	0.800020	0.286638	0.887584
C77	C	0.801492	0.207213	0.852725
H78	H	0.759658	0.296475	0.936154
H79	H	0.859308	0.296117	0.902604
H80	H	0.780084	0.321201	0.847634
H81	H	0.821438	0.172652	0.892671
H82	H	0.742205	0.197729	0.837712
H83	H	1.155070	0.030461	0.385108
O84	O	0.504684	-0.106494	-0.007308
C85	C	0.454887	-0.115159	-0.079791
H86	H	0.479693	-0.076097	-0.127422
H87	H	0.379752	-0.096152	-0.062241
C88	C	0.438009	-0.251044	-0.059835
C89	C	0.468482	-0.203072	-0.118339
H90	H	0.446391	-0.305272	-0.083612
H91	H	0.471556	-0.245205	-0.010999
H92	H	0.375399	-0.235195	-0.045214
H93	H	0.531093	-0.218914	-0.132951
H94	H	0.434947	-0.208914	-0.167178
H95	H	0.618510	0.314493	0.021261
H96	H	0.680963	-0.092170	-0.006201
O97	O	0.964589	0.197251	0.623500
C98	C	0.977678	0.276824	0.650234
H99	H	1.048538	0.278478	0.674352
H100	H	0.924821	0.302479	0.702713
C101	C	0.880625	0.324823	0.546344
C102	C	0.967659	0.326855	0.575960
H103	H	0.874441	0.355687	0.500531
H104	H	0.871803	0.271214	0.528335
H105	H	0.836587	0.346201	0.590084
H106	H	1.011695	0.305469	0.532224
H107	H	0.976488	0.380462	0.593961
H108	H	1.066184	-0.656056	-0.114099
H109	H	1.075556	-0.287703	-0.156741
H110	H	1.060419	-0.274570	0.118811
H111	H	0.931670	0.225816	0.398303
H112	H	0.940369	0.218192	0.239215
O113	O	1.052632	-0.485817	0.184030
C114	C	0.971697	-0.494939	0.229431
H115	H	0.945959	-0.553089	0.203972
H116	H	0.918306	-0.442658	0.222455
C117	C	1.021786	-0.425555	0.354110
C118	C	0.990179	-0.496979	0.322845
H119	H	1.033185	-0.426809	0.411732
H120	H	1.076313	-0.419406	0.323522
H121	H	0.977289	-0.381994	0.348289
H122	H	1.034681	-0.540537	0.328656
H123	H	0.935660	-0.503135	0.353436
H124	H	1.163781	0.022838	0.226029
H125	H	1.062655	-0.124461	0.128972
H126	H	0.358234	-0.025140	-0.001665
H127	H	0.447920	0.311656	0.021072
O128	O	1.207149	-0.015397	0.609317
C129	C	1.191473	-0.092783	0.625752
H130	H	1.117912	-0.091924	0.649732
H131	H	1.238598	-0.113453	0.675257
C132	C	1.300409	-0.151609	0.514989
C133	C	1.210058	-0.150555	0.544434
H134	H	1.311877	-0.187247	0.464830
H135	H	1.310974	-0.099473	0.503918
H136	H	1.339670	-0.168832	0.556250
H137	H	1.170799	-0.133323	0.503178
H138	H	1.199488	-0.202690	0.555497
H139	H	0.810912	-0.017558	-0.001170
H140	H	0.770646	0.244600	0.016536
H141	H	1.077823	-0.137586	-0.146576
O142	O	1.050456	-0.648929	0.172914
C143	C	1.127543	-0.705474	0.173616
H144	H	1.184860	-0.688800	0.131799
H145	H	1.110065	-0.767146	0.149101
C146	C	1.087538	-0.726934	0.315347
C147	C	1.157938	-0.706451	0.263992
H148	H	1.106285	-0.727540	0.371095
H149	H	1.035601	-0.688841	0.314874
H150	H	1.072980	-0.778326	0.294907
H151	H	1.172487	-0.655056	0.284425
H152	H	1.209878	-0.744536	0.264470
