data_functionalizedCrystal
_audit_creation_method	'MofGen! by Chris Wilmer'
_symmetry_space_group_name_H-M	'P1'
_symmetry_Int_Tables_number	1
_symmetry_cell_setting	triclinic
loop_
_symmetry_equiv_pos_as_xyz
  x,y,z
_cell_length_a	18.426585
_cell_length_b	12.970454
_cell_length_c	12.970454
_cell_angle_alpha	59.999702
_cell_angle_beta	89.999510
_cell_angle_gamma	60.001630
loop_
_atom_site_label
_atom_site_type_symbol
_atom_site_fract_x
_atom_site_fract_y
_atom_site_fract_z
Zr1	Zr	0.699118	1.128554	-0.135322
O2	O	0.583243	1.343637	-0.299941
O3	O	0.734639	0.913467	-0.084857
O4	O	0.734640	1.128557	-0.299947
O5	O	0.583241	1.128546	0.084816
O6	O	0.854066	1.128564	-0.299952
O7	O	0.583241	1.128547	-0.084851
O8	O	0.854063	0.743807	0.084805
O9	O	0.583244	1.513303	-0.299941
O10	O	0.838915	1.001943	-0.063338
O11	O	0.749789	1.001936	0.063287
O12	O	0.749791	1.255177	-0.189954
O13	O	0.660664	1.255171	-0.063330
Zr14	Zr	0.889588	1.128564	0.135272
Zr15	Zr	0.889588	1.128566	-0.135328
Zr16	Zr	0.699117	1.128553	0.135278
Zr17	Zr	0.699119	1.399152	-0.135321
Zr18	Zr	0.889586	0.857967	0.135271
O19	O	0.854067	1.343651	0.084807
O20	O	0.854067	1.343654	-0.299951
O21	O	0.583242	1.343635	0.084817
O22	O	1.005463	0.913481	0.299891
O23	O	1.005463	0.913483	-0.084867
O24	O	0.734638	0.913465	0.299901
O25	O	1.005464	1.128572	-0.084866
O26	O	0.854065	1.128561	0.299897
O27	O	0.734639	1.128554	0.299902
O28	O	1.005464	1.128572	0.084801
O29	O	0.734642	1.513312	-0.299946
O30	O	0.854063	0.743806	0.299896
O31	O	1.005462	0.743815	0.299891
O32	O	1.005462	0.743817	0.084800
O33	O	0.583244	1.513302	-0.084850
O34	O	0.734642	1.513311	-0.084855
O35	O	0.838915	1.001941	0.189904
O36	O	0.928041	1.001947	0.063280
O37	O	0.838917	1.255182	-0.063337
O38	O	0.749790	1.255176	0.063287
C39	C	0.556103	1.128545	-0.000016
C40	C	0.475243	1.128540	-0.000014
C41	C	0.794352	1.128558	0.338454
C42	C	0.794352	1.128557	0.453331
C43	C	0.794355	1.467036	-0.000024
C44	C	0.794355	1.581911	-0.000024
C45	C	0.179129	1.128584	-0.000036
C46	C	0.261515	1.128578	-0.000033
C47	C	0.327183	1.128562	-0.000026
C48	C	0.409575	1.128556	-0.000021
C49	C	1.032602	1.128574	-0.000034
C50	C	1.113462	1.128578	-0.000037
C51	C	0.794351	0.790083	-0.000026
C52	C	0.794350	0.675207	-0.000027
C53	C	0.794353	1.128561	-0.338504
C54	C	0.794353	1.128562	-0.453381
C55	C	1.032600	0.790097	-0.000035
C56	C	1.113459	0.675226	-0.000038
C57	C	0.794350	0.790081	0.338453
C58	C	0.794349	0.675205	0.453330
C59	C	1.032600	0.790095	0.338445
C60	C	1.113459	0.675224	0.453318
C61	C	0.556106	1.467023	-0.338495
C62	C	0.475247	1.581895	-0.453368
C63	C	0.556105	1.467021	-0.000015
C64	C	0.475246	1.581892	-0.000012
C65	C	0.794355	1.467038	-0.338503
C66	C	0.794356	1.581914	-0.453380
C67	C	1.104909	0.621279	-0.066144
C68	C	1.180877	0.513361	-0.066172
C69	C	1.265395	0.459384	-0.000087
C70	C	1.273944	0.513342	0.066021
C71	C	1.197977	0.621266	0.066042
C72	C	1.197962	0.621282	0.441167
C73	C	1.273945	0.513363	0.549093
C74	C	1.265422	0.459381	0.669168
C75	C	1.180910	0.513333	0.681316
C76	C	1.104929	0.621257	0.573392
C77	C	0.390744	1.635850	-0.441217
C78	C	0.314761	1.743802	-0.549143
C79	C	0.323283	1.797790	-0.669218
C80	C	0.407795	1.743831	-0.681366
C81	C	0.483776	1.635888	-0.573442
C82	C	0.483797	1.635851	0.066083
C83	C	0.407828	1.743799	0.066081
C84	C	0.323310	1.797780	-0.000008
C85	C	0.314761	1.743817	-0.066111
C86	C	0.390729	1.635878	-0.066116
H87	H	1.036097	0.665226	-0.119974
O88	O	0.232724	1.796133	-0.130404
C89	C	0.241453	1.725339	-0.188718
H90	H	0.309239	1.680871	-0.201840
H91	H	0.235232	1.631591	-0.126758
C92	C	0.084568	1.889332	-0.302272
C93	C	0.167821	1.834726	-0.318398
H94	H	0.039147	1.956803	-0.382262
H95	H	0.078686	1.937024	-0.262981
H96	H	0.079397	1.811197	-0.250634
H97	H	0.172996	1.912858	-0.370021
H98	H	0.173703	1.787049	-0.357701
H99	H	1.327298	0.371501	0.757036
H100	H	0.383787	1.591898	-0.343456
H101	H	1.173984	0.469364	0.779095
H102	H	0.414724	1.787802	-0.779144
O103	O	0.565938	1.583457	0.130100
C104	C	0.612662	1.609861	0.045239
H105	H	0.583655	1.623279	-0.041747
H106	H	0.606335	1.713655	0.015655
C107	C	0.747057	1.463889	0.216848
C108	C	0.711436	1.480357	0.110015
H109	H	0.807986	1.384010	0.256805
H110	H	0.715578	1.446104	0.274022
H111	H	0.741776	1.550393	0.192180
H112	H	0.716707	1.393862	0.134686
H113	H	0.742918	1.498125	0.052847
O114	O	0.565810	1.583736	-0.585429
C115	C	0.575543	1.698930	-0.651996
H116	H	0.507146	1.806898	-0.711528
H117	H	0.611878	1.700350	-0.582094
C118	C	0.713491	1.544386	-0.665600
C119	C	0.629485	1.676994	-0.738727
H120	H	0.746768	1.530854	-0.719097
H121	H	0.706936	1.466776	-0.620749
H122	H	0.743758	1.545586	-0.607352
H123	H	0.599215	1.675785	-0.796962
H124	H	0.636036	1.754604	-0.783591
H125	H	1.173899	0.469441	-0.120005
H126	H	0.383754	1.591948	-0.119935
O127	O	1.356114	0.460689	0.130201
C128	C	1.421321	0.353887	0.115976
H129	H	1.391692	0.306715	0.091619
H130	H	1.445089	0.405522	0.036844
C131	C	1.536858	0.289130	0.270151
C132	C	1.500469	0.231184	0.240245
H133	H	1.585683	0.213444	0.346803
H134	H	1.492928	0.361088	0.279732
H135	H	1.556658	0.332158	0.204198
H136	H	1.480660	0.188174	0.306190
H137	H	1.544398	0.159216	0.230678
H138	H	0.414807	1.787717	0.119915
H139	H	1.327246	0.371504	-0.000112
O140	O	0.232740	1.795990	-0.537101
C141	C	0.241521	1.725194	-0.407974
H142	H	0.309321	1.615799	-0.350441
H143	H	0.235304	1.795957	-0.376148
C144	C	0.084649	1.834409	-0.458298
C145	C	0.167920	1.700041	-0.387635
H146	H	0.039247	1.818898	-0.445751
H147	H	0.078732	1.882110	-0.545293
H148	H	0.079481	1.893364	-0.431768
H149	H	0.173091	1.641096	-0.414177
H150	H	0.173836	1.652329	-0.300644
H151	H	0.261460	1.885670	0.000006
O152	O	1.206095	0.673828	0.324440
C153	C	1.120919	0.780684	0.231770
H154	H	1.070559	0.762950	0.273828
H155	H	1.101558	0.893581	0.198013
C156	C	1.183913	0.790640	0.067673
C157	C	1.122061	0.768851	0.119326
H158	H	1.184617	0.783347	-0.001691
H159	H	1.241298	0.718654	0.130105
H160	H	1.167772	0.884720	0.039553
H161	H	1.138209	0.674766	0.147460
H162	H	1.064678	0.840822	0.056895
O163	O	1.355966	0.461072	0.537051
C164	C	1.347185	0.531880	0.407924
H165	H	1.279383	0.576340	0.350390
H166	H	1.353405	0.625635	0.376101
C167	C	1.504055	0.367914	0.458247
C168	C	1.420783	0.422510	0.387583
H169	H	1.549455	0.300453	0.445698
H170	H	1.509972	0.320212	0.545242
H171	H	1.509226	0.446055	0.431719
H172	H	1.415609	0.344372	0.414121
H173	H	1.414866	0.470197	0.300591
O174	O	1.022911	0.673433	0.585430
C175	C	1.031694	0.602655	0.714557
H176	H	1.099501	0.493272	0.772097
H177	H	1.025464	0.673443	0.746361
C178	C	0.874828	0.711826	0.664246
C179	C	0.958106	0.577473	0.734917
H180	H	0.829434	0.696298	0.676807
H181	H	0.868909	0.759515	0.577250
H182	H	0.869649	0.770802	0.690757
H183	H	0.963289	0.518507	0.708395
H184	H	0.964024	0.529774	0.821909
H185	H	1.204951	0.665175	0.119880
H186	H	0.261407	1.885684	-0.757087
