data_functionalizedCrystal
_audit_creation_method	'MofGen! by Chris Wilmer'
_symmetry_space_group_name_H-M	'P1'
_symmetry_Int_Tables_number	1
_symmetry_cell_setting	triclinic
loop_
_symmetry_equiv_pos_as_xyz
  x,y,z
_cell_length_a	21.395364
_cell_length_b	21.395361
_cell_length_c	21.395355
_cell_angle_alpha	89.978489
_cell_angle_beta	89.975448
_cell_angle_gamma	90.045659
loop_
_atom_site_label
_atom_site_type_symbol
_atom_site_fract_x
_atom_site_fract_y
_atom_site_fract_z
Zn1	Zn	0.957859	-0.249261	-0.354248
Zn2	Zn	1.457859	0.250739	0.145752
Zn3	Zn	0.957762	-0.354021	-0.249466
Zn4	Zn	1.457762	0.145979	0.250534
Zn5	Zn	0.853074	-0.249289	-0.249485
Zn6	Zn	1.353074	0.250711	0.250515
Zn7	Zn	0.853043	-0.354032	-0.354206
Zn8	Zn	1.353043	0.145968	0.145794
O9	O	0.905435	-0.301651	-0.301851
O10	O	1.405435	0.198349	0.198149
O11	O	1.045524	-0.263142	-0.340358
O12	O	1.545524	0.236858	0.159642
O13	O	0.943847	-0.340135	-0.161790
O14	O	1.443847	0.159865	0.338210
O15	O	0.867028	-0.161607	-0.263408
O16	O	1.367028	0.338393	0.236592
O17	O	1.045453	-0.340108	-0.263375
O18	O	1.545453	0.159892	0.236625
O19	O	0.944013	-0.161587	-0.340378
O20	O	1.444013	0.338413	0.159622
O21	O	0.866933	-0.263188	-0.161805
O22	O	1.366933	0.236812	0.338195
O23	O	0.765392	-0.263199	-0.263367
O24	O	1.265392	0.236801	0.236633
O25	O	0.866975	-0.340127	-0.441889
O26	O	1.366975	0.159873	0.058111
O27	O	0.765370	-0.340154	-0.340305
O28	O	1.265370	0.159846	0.159695
O29	O	0.943983	-0.263152	-0.441921
O30	O	1.443983	0.236848	0.058079
O31	O	0.943817	-0.441700	-0.263333
O32	O	1.443817	0.058300	0.236667
O33	O	0.866881	-0.441709	-0.340286
O34	O	1.366881	0.058291	0.159714
C35	C	0.742647	-0.301681	-0.301834
C36	C	1.242647	0.198319	0.198166
C37	C	0.673006	-0.301709	-0.301841
C38	C	1.173006	0.198291	0.198159
C39	C	0.640352	-0.261698	-0.341988
C40	C	1.140352	0.238302	0.158012
C41	C	0.574917	-0.261682	-0.341991
C42	C	1.074917	0.238318	0.158009
C43	C	0.542137	-0.301687	-0.301852
C44	C	1.042137	0.198313	0.198148
C45	C	0.574799	-0.341701	-0.261697
C46	C	1.074799	0.158299	0.238303
C47	C	0.640233	-0.341712	-0.261692
C48	C	1.140233	0.158288	0.238308
C49	C	0.438413	-0.358112	-0.296812
C50	C	0.938413	0.141888	0.203188
C51	C	0.372980	-0.358102	-0.296822
C52	C	0.872980	0.141898	0.203178
C53	C	0.340317	-0.301653	-0.301866
C54	C	0.840317	0.198347	0.198134
C55	C	0.373094	-0.245212	-0.306914
C56	C	0.873094	0.254788	0.193086
C57	C	0.438528	-0.245223	-0.306908
C58	C	0.938528	0.254777	0.193092
C59	C	0.471185	-0.301679	-0.301854
C60	C	0.971185	0.198321	0.198146
C61	C	0.236711	-0.261620	-0.342018
C62	C	0.736711	0.238380	0.157982
C63	C	0.171274	-0.261603	-0.342016
C64	C	0.671274	0.238397	0.157984
C65	C	0.171157	-0.341627	-0.261726
C66	C	0.671157	0.158373	0.238274
C67	C	0.236593	-0.341640	-0.261725
C68	C	0.736593	0.158360	0.238275
C69	C	0.269365	-0.301637	-0.301874
C70	C	0.769365	0.198363	0.198126
C71	C	0.905352	-0.464438	-0.301816
C72	C	1.405352	0.035562	0.198184
C73	C	0.905374	-0.534080	-0.301822
C74	C	1.405374	-0.034080	0.198178
C75	C	0.945470	-0.566768	-0.261794
C76	C	1.445470	-0.066768	0.238206
C77	C	0.945499	-0.632203	-0.261808
C78	C	1.445499	-0.132203	0.238192
C79	C	0.905421	-0.664948	-0.301844
C80	C	1.405421	-0.164948	0.198156
C81	C	0.865322	-0.632252	-0.341880
C82	C	1.365322	-0.132252	0.158120
C83	C	0.865298	-0.566818	-0.341869
C84	C	1.365298	-0.066818	0.158131
C85	C	0.849006	-0.768678	-0.306754
C86	C	1.349006	-0.268678	0.193246
C87	C	0.849029	-0.834111	-0.306760
C88	C	1.349029	-0.334111	0.193240
C89	C	0.905494	-0.866769	-0.301881
C90	C	1.405494	-0.366769	0.198119
C91	C	0.961938	-0.833986	-0.296982
C92	C	1.461938	-0.333986	0.203018
C93	C	0.961915	-0.768551	-0.296971
C94	C	1.461915	-0.268551	0.203029
C95	C	0.905442	-0.735900	-0.301860
C96	C	1.405442	-0.235900	0.198140
C97	C	0.945625	-0.970409	-0.261866
C98	C	1.445625	-0.470409	0.238134
C99	C	0.945655	-1.035846	-0.261884
C100	C	1.445655	-0.535846	0.238116
C101	C	0.865473	-1.035893	-0.341952
C102	C	1.365473	-0.535893	0.158048
C103	C	0.865448	-0.970458	-0.341937
C104	C	1.365448	-0.470458	0.158063
C105	C	0.905523	-0.937720	-0.301890
C106	C	1.405523	-0.437720	0.198110
C107	C	1.068858	-0.301621	-0.301869
C108	C	1.568858	0.198379	0.198131
C109	C	1.138499	-0.301608	-0.301877
C110	C	1.638499	0.198392	0.198123
C111	C	0.905487	-0.301638	-0.465275
C112	C	1.405487	0.198362	0.034725
C113	C	0.905509	-0.301633	-0.534916
C114	C	1.405509	0.198367	-0.034916
C115	C	0.905535	-0.138227	-0.301900
C116	C	1.405535	0.361773	0.198100
C117	C	0.905577	-0.068586	-0.301921
C118	C	1.405577	0.431414	0.198079
C119	C	0.945605	-0.261550	-0.567646
C120	C	1.445605	0.238450	-0.067646
C121	C	0.945604	-0.261523	-0.633082
C122	C	1.445604	0.238477	-0.133082
C123	C	0.905514	-0.301590	-0.665784
C124	C	1.405514	0.198410	-0.165784
C125	C	0.865410	-0.341675	-0.633046
C126	C	1.365410	0.158325	-0.133046
C127	C	0.865407	-0.341697	-0.567612
C128	C	1.365407	0.158303	-0.067612
C129	C	0.900538	-0.358007	-0.769447
C130	C	1.400538	0.141993	-0.269447
C131	C	0.900545	-0.357986	-0.834880
C132	C	1.400545	0.142014	-0.334880
C133	C	0.905518	-0.301524	-0.867605
C134	C	1.405518	0.198476	-0.367605
C135	C	0.910497	-0.245080	-0.834889
C136	C	1.410497	0.254920	-0.334889
C137	C	0.910494	-0.245101	-0.769455
C138	C	1.410494	0.254899	-0.269455
C139	C	0.905512	-0.301571	-0.736737
C140	C	1.405512	0.198429	-0.236737
C141	C	0.945615	-0.261409	-0.971288
C142	C	1.445615	0.238591	-0.471288
C143	C	0.945610	-0.261381	-1.036725
C144	C	1.445610	0.238619	-0.536725
C145	C	0.865419	-0.341538	-1.036688
C146	C	1.365419	0.158462	-0.536688
C147	C	0.865421	-0.341561	-0.971252
C148	C	1.365421	0.158439	-0.471252
C149	C	0.905522	-0.301497	-0.938556
C150	C	1.405522	0.198503	-0.438556
C151	C	0.905419	-0.301618	-0.139064
C152	C	1.405419	0.198382	0.360936
C153	C	0.905518	-0.301447	-0.069423
C154	C	1.405518	0.198553	0.430577
H155	H	0.465002	-0.404083	-0.292703
H156	H	0.965002	0.095917	0.207297
N157	N	0.788103	-0.733452	-0.312009
N158	N	1.288103	-0.233452	0.187991
H159	H	0.788914	-0.706280	-0.350614
H160	H	1.288914	-0.206280	0.149386
H161	H	0.752381	-0.764183	-0.315081
H162	H	1.252381	-0.264183	0.184919
H163	H	0.465213	-0.199267	-0.311016
H164	H	0.965213	0.300733	0.188984
N165	N	0.988870	-0.218209	-0.936013
N166	N	1.488870	0.281791	-0.436013
H167	H	0.963435	-0.189189	-0.908844
H168	H	1.463435	0.310811	-0.408844
H169	H	1.017874	-0.243738	-0.908921
H170	H	1.517874	0.256262	-0.408921
N171	N	0.337881	-0.184318	-0.312355
N172	N	0.837881	0.315682	0.187645
H173	H	0.310749	-0.185210	-0.350963
H174	H	0.810749	0.314790	0.149037
H175	H	0.310758	-0.178411	-0.274168
H176	H	0.810758	0.321589	0.225832
H177	H	1.007873	-0.741861	-0.292984
H178	H	1.507873	-0.241861	0.207016
H179	H	0.896321	-0.403973	-0.742807
H180	H	1.396321	0.096027	-0.242807
N181	N	0.822096	-0.667565	-0.385063
N182	N	1.322096	-0.167565	0.114937
H183	H	0.828193	-0.713978	-0.378995
H184	H	1.328193	-0.213978	0.121005
H185	H	0.777349	-0.656183	-0.375269
H186	H	1.277349	-0.156183	0.124731
H187	H	0.978152	-0.658823	-0.229213
H188	H	1.478152	-0.158823	0.270787
H189	H	0.978260	-0.228737	-1.063373
H190	H	1.478260	0.271263	-0.563373
H191	H	1.007918	-0.860574	-0.293008
H192	H	1.507918	-0.360574	0.206992
H193	H	0.914547	-0.199103	-0.861533
H194	H	1.414547	0.300897	-0.361533
N195	N	0.895173	-0.418861	-0.870164
N196	N	1.395173	0.081139	-0.370164
H197	H	0.933341	-0.424725	-0.897325
H198	H	1.433341	0.075275	-0.397325
H199	H	0.891995	-0.454594	-0.839466
H200	H	1.391995	0.045406	-0.339466
H201	H	0.666819	-0.374295	-0.228998
H202	H	1.166819	0.125705	0.271002
H203	H	0.548325	-0.229097	-0.374682
H204	H	1.048325	0.270903	0.125318
H205	H	0.832774	-0.374204	-0.944603
H206	H	1.332774	0.125796	-0.444603
N207	N	0.915864	-0.184225	-0.734174
N208	N	1.415864	0.315775	-0.234174
H209	H	0.879652	-0.156188	-0.745547
H210	H	1.379652	0.343812	-0.245547
H211	H	0.915128	-0.192859	-0.687768
H212	H	1.415128	0.307141	-0.187768
H213	H	0.978259	-0.943753	-0.229259
H214	H	1.478259	-0.443753	0.270741
H215	H	0.978310	-1.062459	-0.229290
H216	H	1.478310	-0.562459	0.270710
N217	N	0.539443	-0.384845	-0.218403
N218	N	1.039443	0.115155	0.281597
H219	H	0.512280	-0.413915	-0.243814
H220	H	1.012280	0.086085	0.256186
H221	H	0.570098	-0.410153	-0.192975
H222	H	1.070098	0.089847	0.307025
H223	H	0.832766	-0.374296	-0.659676
H224	H	1.332766	0.125704	-0.159676
N225	N	0.822172	-0.384749	-1.071950
N226	N	1.322172	0.115251	-0.571950
H227	H	0.828255	-0.378653	-1.118369
H228	H	1.328255	0.121347	-0.618369
H229	H	0.831894	-0.429500	-1.060516
H230	H	1.331894	0.070500	-0.560516
H231	H	0.832753	-0.374336	-0.540963
H232	H	1.332753	0.125664	-0.040963
H233	H	0.832843	-1.062554	-0.374552
H234	H	1.332843	-0.562554	0.125448
H235	H	0.832795	-0.943842	-0.374529
H236	H	1.332795	-0.443842	0.125471
H237	H	0.832647	-0.540203	-0.374465
H238	H	1.332647	-0.040203	0.125535
N239	N	0.788153	-0.869467	-0.312034
N240	N	1.288153	-0.369467	0.187966
H241	H	0.752379	-0.838851	-0.315130
H242	H	1.252379	-0.338851	0.184870
H243	H	0.789044	-0.896598	-0.350643
H244	H	1.289044	-0.396598	0.149357
H245	H	0.978258	-0.228926	-0.541029
H246	H	1.478258	0.271074	-0.041029
H247	H	0.263396	-0.229044	-0.374706
H248	H	0.763396	0.270956	0.125294
H249	H	0.667032	-0.229125	-0.374681
H250	H	1.167032	0.270875	0.125319
N251	N	0.988852	-0.218290	-0.668395
N252	N	1.488852	0.281710	-0.168395
H253	H	1.014254	-0.192912	-0.637753
H254	H	1.514254	0.307088	-0.137753
H255	H	1.017829	-0.243785	-0.695553
H256	H	1.517829	0.256215	-0.195553
H257	H	0.144469	-0.374200	-0.229045
H258	H	0.644469	0.125800	0.270955
N259	N	0.136060	-0.218434	-0.385315
N260	N	0.636060	0.281566	0.114685
H261	H	0.147458	-0.228234	-0.430064
H262	H	0.647458	0.271766	0.069936
H263	H	0.089644	-0.224507	-0.379175
H264	H	0.589644	0.275493	0.120825
N265	N	0.271817	-0.384795	-0.218424
N266	N	0.771817	0.115205	0.281576
H267	H	0.241124	-0.410136	-0.192995
H268	H	0.741124	0.089864	0.307005
H269	H	0.298952	-0.413833	-0.243870
H270	H	0.798952	0.086167	0.256130
H271	H	0.978103	-0.540114	-0.229188
H272	H	1.478103	-0.040114	0.270812
N273	N	0.337629	-0.418972	-0.291376
N274	N	0.837629	0.081028	0.208624
H275	H	0.349009	-0.447074	-0.327547
H276	H	0.849009	0.052926	0.172453
H277	H	0.348989	-0.440175	-0.250762
H278	H	0.848989	0.059825	0.249238
