data_functionalizedCrystal
_audit_creation_method	'MofGen! by Chris Wilmer'
_symmetry_space_group_name_H-M	'P1'
_symmetry_Int_Tables_number	1
_symmetry_cell_setting	triclinic
loop_
_symmetry_equiv_pos_as_xyz
  x,y,z
_cell_length_a	15.297475
_cell_length_b	16.120484
_cell_length_c	15.296720
_cell_angle_alpha	101.986518
_cell_angle_beta	91.617114
_cell_angle_gamma	83.687474
loop_
_atom_site_label
_atom_site_type_symbol
_atom_site_fract_x
_atom_site_fract_y
_atom_site_fract_z
Zn1	Zn	1.212936	-0.646916	-0.755054
Zn2	Zn	1.230712	-0.766607	-0.613834
Zn3	Zn	1.094735	-0.600220	-0.581241
Zn4	Zn	1.059450	-0.758436	-0.734603
O5	O	1.149458	-0.693045	-0.671183
O6	O	1.336436	-0.685755	-0.758520
O7	O	1.234881	-0.728412	-0.486227
O8	O	1.117742	-0.490110	-0.599215
O9	O	1.349496	-0.773691	-0.654766
O10	O	1.204584	-0.524417	-0.726915
O11	O	1.134979	-0.606169	-0.462280
O12	O	0.968913	-0.598246	-0.579385
O13	O	1.057604	-0.759766	-0.860600
O14	O	0.942989	-0.714486	-0.692060
O15	O	1.170370	-0.677833	-0.875625
O16	O	1.200666	-0.881827	-0.634936
O17	O	1.074840	-0.875825	-0.723665
C18	C	0.924540	-0.650413	-0.629967
C19	C	0.828314	-0.632198	-0.612357
C20	C	0.503218	-0.823238	-0.797050
C21	C	0.593627	-0.840358	-0.813594
C22	C	0.652303	-0.788320	-0.763286
C23	C	0.620561	-0.719158	-0.696432
C24	C	0.530143	-0.702040	-0.679882
C25	C	0.679229	-0.667122	-0.646118
C26	C	0.647487	-0.597960	-0.579263
C27	C	0.557078	-0.580845	-0.562717
C28	C	0.498402	-0.632884	-0.613024
C29	C	0.769646	-0.684239	-0.662668
C30	C	0.796572	-0.563041	-0.545499
C31	C	0.706162	-0.545921	-0.528956
C32	C	1.135873	-0.908989	-0.680642
C33	C	1.130135	-1.001390	-0.684732
C34	C	1.119661	-1.170572	-0.692219
C35	C	1.179408	-1.214709	-0.650189
C36	C	1.173580	-1.308847	-0.654355
C37	C	1.125488	-1.076425	-0.688054
C38	C	1.375255	-0.735844	-0.712560
C39	C	1.471476	-0.754082	-0.730193
C40	C	1.108068	-0.723097	-0.900972
C41	C	1.090430	-0.735903	-0.998895
C42	C	1.163116	-0.476264	-0.661711
C43	C	1.168937	-0.383885	-0.657674
C44	C	1.275562	-0.601377	-1.306214
C45	C	1.292140	-0.589347	-1.214212
C46	C	1.241714	-0.625985	-1.160378
C47	C	1.174707	-0.674655	-1.198556
C48	C	1.158133	-0.686691	-1.290568
C49	C	1.124284	-0.711299	-1.144732
C50	C	1.057278	-0.759969	-1.182909
C51	C	1.040706	-0.772003	-1.274912
C52	C	1.091132	-0.735365	-1.328746
C53	C	1.140858	-0.699263	-1.052720
C54	C	1.023429	-0.784577	-1.037073
C55	C	1.006852	-0.796607	-1.129075
C56	C	1.190741	-0.663059	-0.442294
C57	C	1.208562	-0.650051	-0.344393
H58	H	0.725918	-0.802263	-0.776760
H59	H	0.455438	-0.865605	-0.837998
H60	H	1.234934	-1.181795	-0.611077
H61	H	1.195415	-0.659634	-1.021645
H62	H	0.952294	-0.836234	-1.160172
O63	O	1.053451	-1.209950	-0.738799
C64	C	1.062311	-1.296539	-0.732645
H65	H	1.102255	-1.304790	-0.670399
H66	H	1.097452	-1.336690	-0.794449
C67	C	0.921500	-1.315610	-0.802972
C68	C	0.970554	-1.325742	-0.726516
H69	H	0.864901	-1.333626	-0.799195
H70	H	0.915532	-1.257274	-0.807121
H71	H	0.950795	-1.349070	-0.854467
H72	H	0.941266	-1.292274	-0.675023
H73	H	0.976515	-1.384073	-0.722357
O74	O	0.675352	-0.478645	-0.464107
C75	C	0.699171	-0.402554	-0.483906
H76	H	0.711623	-0.412374	-0.558665
H77	H	0.761509	-0.384516	-0.445355
C78	C	0.608868	-0.318479	-0.364803
C79	C	0.624154	-0.330537	-0.456625
H80	H	0.562597	-0.274054	-0.347972
H81	H	0.592823	-0.369742	-0.351461
H82	H	0.660822	-0.303451	-0.332689
H83	H	0.572205	-0.345575	-0.488739
H84	H	0.640189	-0.279274	-0.469972
O85	O	0.624309	-0.907547	-0.878592
C86	C	0.553138	-0.949820	-0.919432
H87	H	0.490268	-0.903985	-0.909257
H88	H	0.545384	-1.006839	-0.888059
C89	C	0.648017	-1.037181	-1.032663
C90	C	0.570799	-0.980884	-1.020173
H91	H	0.658912	-1.056347	-1.094804
H92	H	0.695967	-1.008704	-1.005147
H93	H	0.641545	-1.084691	-1.006513
H94	H	0.577276	-0.933371	-1.046313
H95	H	0.522851	-1.009354	-1.047696
H96	H	1.316617	-0.571557	-1.350055
H97	H	0.986152	-0.811641	-1.305994
O98	O	1.357107	-0.541971	-1.177018
C99	C	1.320765	-0.471974	-1.112451
H100	H	1.255810	-0.487067	-1.087915
H101	H	1.308718	-0.413231	-1.143495
C102	C	1.464866	-0.435941	-1.063265
C103	C	1.385089	-0.454482	-1.033124
H104	H	1.504545	-0.425147	-1.014335
H105	H	1.489351	-0.483097	-1.106768
H106	H	1.454814	-0.386990	-1.089136
H107	H	1.395140	-0.503438	-1.007265
H108	H	1.360608	-0.407334	-0.989616
O109	O	1.257658	-0.614296	-1.070981
C110	C	1.181589	-0.573192	-1.024084
H111	H	1.121273	-0.584842	-1.068586
H112	H	1.187055	-0.501753	-1.004373
C113	C	1.246668	-0.594749	-0.884708
C114	C	1.172586	-0.609064	-0.939364
H115	H	1.241116	-0.616874	-0.832446
H116	H	1.297919	-0.622439	-0.916302
H117	H	1.251215	-0.535216	-0.868291
H118	H	1.168047	-0.668597	-0.955788
H119	H	1.121334	-0.581386	-0.907770
O120	O	1.075026	-0.747205	-1.418127
C121	C	1.086725	-0.835091	-1.456430
H122	H	1.078468	-0.873230	-1.402793
H123	H	1.155503	-0.852600	-1.485993
C124	C	1.027890	-0.809078	-1.596665
C125	C	1.017741	-0.855921	-1.530789
H126	H	0.985341	-0.821928	-1.642536
H127	H	1.020011	-0.749867	-1.570861
H128	H	1.085208	-0.823674	-1.621291
H129	H	0.960428	-0.841317	-1.506157
H130	H	1.025609	-0.915131	-1.556590
H131	H	0.795481	-0.740551	-0.717102
O132	O	0.410568	-0.616143	-0.597028
C133	C	0.381256	-0.533770	-0.610751
H134	H	0.428591	-0.514349	-0.657245
H135	H	0.378677	-0.486485	-0.543920
C136	C	0.230642	-0.557755	-0.596110
C137	C	0.288776	-0.533905	-0.653221
H138	H	0.173594	-0.557836	-0.622303
H139	H	0.250389	-0.613250	-0.586861
H140	H	0.228503	-0.518347	-0.540421
H141	H	0.290922	-0.573319	-0.708904
H142	H	0.269026	-0.478417	-0.662480
H143	H	0.531238	-0.524537	-0.508270
O144	O	0.974574	-0.820220	-0.984714
C145	C	1.030064	-0.876295	-0.942886
H146	H	1.099998	-0.857615	-0.939848
H147	H	1.029307	-0.944328	-0.982774
C148	C	0.911337	-0.893822	-0.851146
C149	C	0.997230	-0.870874	-0.847409
H150	H	0.891082	-0.890482	-0.792253
H151	H	0.873951	-0.856046	-0.879329
H152	H	0.910717	-0.950515	-0.884391
H153	H	0.997846	-0.814179	-0.814175
H154	H	1.034615	-0.908641	-0.819218
H155	H	0.844347	-0.520668	-0.504533
