data_functionalizedCrystal
_audit_creation_method	'MofGen! by Chris Wilmer'
_symmetry_space_group_name_H-M	'P1'
_symmetry_Int_Tables_number	1
_symmetry_cell_setting	triclinic
loop_
_symmetry_equiv_pos_as_xyz
  x,y,z
_cell_length_a	10.489716
_cell_length_b	10.489741
_cell_length_c	12.503552
_cell_angle_alpha	86.444084
_cell_angle_beta	93.558500
_cell_angle_gamma	84.534155
loop_
_atom_site_label
_atom_site_type_symbol
_atom_site_fract_x
_atom_site_fract_y
_atom_site_fract_z
O1	O	1.701368	0.172513	0.089312
O2	O	1.330168	0.189438	0.089316
O3	O	1.524214	-0.004623	0.089307
O4	O	1.507322	0.366574	0.089320
O5	O	1.509604	0.009985	-0.089335
O6	O	1.315558	0.204045	-0.089326
O7	O	1.686758	0.187120	-0.089330
Cu8	Cu	1.499824	0.196917	-0.105640
Cu9	Cu	1.517102	0.179642	0.105625
O10	O	1.492712	0.381181	-0.089322
C11	C	1.275331	0.195470	-0.000005
C12	C	1.133700	0.191665	-0.000003
C13	C	1.036027	0.310669	0.000003
C14	C	0.951477	0.254988	-0.088084
C15	C	0.965888	0.240558	0.088043
C16	C	1.051010	0.136039	-0.088163
C17	C	1.065433	0.121620	0.088043
C18	C	0.980930	0.065853	-0.000065
C19	C	1.515633	-0.044851	-0.000013
C20	C	1.511816	-0.186480	-0.000011
C21	C	1.388351	-0.254610	-0.000002
C22	C	1.439471	-0.339535	-0.088082
C23	C	1.453905	-0.353912	0.088045
C24	C	1.562981	-0.269534	-0.088164
C25	C	1.577405	-0.283907	0.088042
C26	C	1.628613	-0.368803	-0.000060
C27	C	1.741595	0.181088	-0.000007
C28	C	1.883226	0.184892	-0.000002
C29	C	1.501293	0.421409	0.000001
C30	C	1.505111	0.563037	0.000006
N31	N	1.487680	0.209066	-0.254232
C32	C	1.547112	0.149606	-0.526668
C33	C	1.469828	0.226938	-0.473340
C34	C	1.479764	0.216992	-0.351417
C35	C	1.537178	0.159551	-0.648602
N36	N	1.529255	0.167482	0.254217
H37	H	1.115019	0.065333	0.162513
H38	H	0.956495	-0.037734	-0.000120
C39	C	0.884499	0.331075	-0.188680
C40	C	0.785381	0.446480	-0.176644
C41	C	0.718409	0.522576	-0.277236
C42	C	0.750555	0.483268	-0.389864
C43	C	0.849678	0.367857	-0.401905
C44	C	0.916650	0.291760	-0.301313
H45	H	0.761580	0.475583	-0.093266
H46	H	0.645031	0.608011	-0.268322
H47	H	0.700978	0.539599	-0.464328
H48	H	0.873479	0.338753	-0.485283
H49	H	0.990028	0.206326	-0.310227
H50	H	0.928494	0.284730	0.162503
C51	C	1.370369	0.326482	-0.535358
C52	C	1.360169	0.336146	-0.659044
C53	C	1.260720	0.435689	-0.721068
C54	C	1.171471	0.525567	-0.659405
C55	C	1.181669	0.515905	-0.535712
C56	C	1.281118	0.416363	-0.473688
H57	H	1.426239	0.269611	-0.704697
H58	H	1.253171	0.442841	-0.812634
H59	H	1.097853	0.599255	-0.705319
H60	H	1.115599	0.582441	-0.490059
H61	H	1.288666	0.409211	-0.382122
H62	H	1.286831	-0.204943	-0.000090
C63	C	1.625254	-0.219667	-0.188880
C64	C	1.548773	-0.119741	-0.269704
C65	C	1.611039	-0.069872	-0.370420
C66	C	1.749787	-0.119928	-0.390312
C67	C	1.826277	-0.219859	-0.309486
C68	C	1.764010	-0.269729	-0.208770
H69	H	1.446056	-0.082681	-0.254981
H70	H	1.554416	0.004104	-0.430253
H71	H	1.795881	-0.083011	-0.464868
H72	H	1.928994	-0.256919	-0.324209
H73	H	1.820634	-0.343705	-0.148937
C74	C	1.656147	-0.250185	0.188640
C75	C	1.613541	-0.286549	0.301239
C76	C	1.692272	-0.252822	0.401848
C77	C	1.813611	-0.182731	0.389857
C78	C	1.856224	-0.146362	0.277253
C79	C	1.777492	-0.180089	0.176644
H80	H	1.523713	-0.338439	0.310120
H81	H	1.660727	-0.279745	0.485205
H82	H	1.871893	-0.157764	0.464333
H83	H	1.946051	-0.094472	0.268372
H84	H	1.809038	-0.153166	0.093287
H85	H	1.620735	0.075935	-0.480761
H86	H	1.088229	0.091927	-0.162707
C87	C	1.069369	0.450512	-0.000102
C88	C	1.141675	0.507250	-0.092421
C89	C	1.175020	0.647088	-0.092532
C90	C	1.136059	0.730188	-0.000325
C91	C	1.063749	0.673451	0.092000
C92	C	1.030404	0.533613	0.092112
H93	H	1.170520	0.445733	-0.160684
H94	H	1.228549	0.689088	-0.160878
H95	H	1.160743	0.833705	-0.000408
H96	H	1.034904	0.734968	0.160263
H97	H	0.976875	0.491613	0.160457
H98	H	1.381140	-0.364453	-0.162547
H99	H	1.730213	-0.418232	-0.000110
H100	H	1.407739	-0.390960	0.162517
