data_functionalizedCrystal
_audit_creation_method	'MofGen! by Chris Wilmer'
_symmetry_space_group_name_H-M	'P1'
_symmetry_Int_Tables_number	1
_symmetry_cell_setting	triclinic
loop_
_symmetry_equiv_pos_as_xyz
  x,y,z
_cell_length_a	18.426585
_cell_length_b	21.606444
_cell_length_c	21.606444
_cell_angle_alpha	60.003871
_cell_angle_beta	60.000201
_cell_angle_gamma	90.000908
loop_
_atom_site_label
_atom_site_type_symbol
_atom_site_fract_x
_atom_site_fract_y
_atom_site_fract_z
Zr1	Zr	0.699102	-0.081212	0.677469
O2	O	0.583225	-0.180028	0.806579
O3	O	0.734626	-0.050923	0.548354
O4	O	0.734625	-0.180036	0.677466
O5	O	0.583226	0.050934	0.677471
O6	O	0.854051	-0.180038	0.677471
O7	O	0.583226	-0.050916	0.677466
O8	O	0.854053	0.050921	0.446511
O9	O	0.583223	-0.180025	0.908430
O10	O	0.838902	-0.038003	0.601466
O11	O	0.749775	0.038008	0.601466
O12	O	0.749774	-0.114006	0.753480
O13	O	0.660647	-0.037995	0.753480
Zr14	Zr	0.889573	0.081222	0.677483
Zr15	Zr	0.889573	-0.081217	0.677476
Zr16	Zr	0.699102	0.081226	0.677476
Zr17	Zr	0.699100	-0.081207	0.839910
Zr18	Zr	0.889575	0.081217	0.515043
O19	O	0.854049	0.050933	0.806599
O20	O	0.854049	-0.180034	0.806589
O21	O	0.583224	0.050938	0.806589
O22	O	1.005450	0.180038	0.548373
O23	O	1.005451	-0.050929	0.548363
O24	O	0.734626	0.180044	0.548363
O25	O	1.005449	-0.050925	0.677482
O26	O	0.854050	0.180045	0.677486
O27	O	0.734624	0.180048	0.677482
O28	O	1.005449	0.050925	0.677486
O29	O	0.734622	-0.180028	0.908435
O30	O	0.854053	0.180038	0.446517
O31	O	1.005452	0.180035	0.446522
O32	O	1.005452	0.050918	0.446517
O33	O	0.583223	-0.050908	0.908436
O34	O	0.734622	-0.050911	0.908441
O35	O	0.838901	0.114015	0.601473
O36	O	0.928028	0.038004	0.601473
O37	O	0.838900	-0.037998	0.753486
O38	O	0.749773	0.038013	0.753486
C39	C	0.556088	0.000010	0.677468
C40	C	0.475228	0.000012	0.677465
C41	C	0.794340	-0.000002	0.474288
C42	C	0.794341	-0.000004	0.405328
C43	C	0.794337	0.203191	0.677485
C44	C	0.794337	0.272150	0.677488
C45	C	0.179114	-0.000002	0.677491
C46	C	0.261500	0.000000	0.677487
C47	C	0.327168	0.000004	0.677478
C48	C	0.409560	0.000007	0.677474
C49	C	1.032587	-0.000000	0.677485
C50	C	1.113447	-0.000002	0.677488
C51	C	0.794338	-0.203181	0.677468
C52	C	0.794338	-0.272141	0.677465
C53	C	0.747815	0.264877	0.756837
C54	C	0.747811	0.329674	0.756835
C55	C	0.794335	0.401744	0.677482
C56	C	0.840859	0.409016	0.598127
C57	C	0.840857	0.344219	0.598130
C58	C	0.840866	0.670334	0.598112
C59	C	0.840866	0.735132	0.598115
C60	C	0.747820	0.655789	0.756816
C61	C	0.747818	0.590992	0.756819
C62	C	0.794338	0.598269	0.677465
C63	C	0.794340	0.528008	0.677468
C64	C	0.794338	0.472004	0.677478
C65	C	0.840862	-0.039682	0.372930
C66	C	0.840865	-0.039677	0.308130
C67	C	0.794342	0.000002	0.275734
C68	C	0.747819	0.039685	0.308134
C69	C	0.747822	0.039684	0.372928
C70	C	0.747809	0.039692	0.046825
C71	C	0.747807	0.039688	-0.017972
C72	C	0.840852	-0.039670	-0.017973
C73	C	0.840855	-0.039671	0.046821
C74	C	0.794336	0.000015	0.079213
C75	C	0.794335	0.000010	0.149475
C76	C	0.794337	0.000003	0.205477
C77	C	0.794335	0.000011	0.880664
C78	C	0.794334	0.000014	0.949624
C79	C	1.032590	-0.000007	0.474297
C80	C	1.113450	-0.000011	0.405340
C81	C	0.794340	0.203184	0.474297
C82	C	0.794341	0.272141	0.405340
C83	C	1.032589	0.203179	0.474306
C84	C	1.113450	0.272134	0.405351
C85	C	0.556086	-0.203169	0.880647
C86	C	0.475225	-0.272125	0.949601
C87	C	0.556086	0.000017	0.880656
C88	C	0.475225	0.000021	0.949613
C89	C	0.794335	-0.203175	0.880656
C90	C	0.794335	-0.272132	0.949613
C91	C	1.104900	-0.039695	0.372953
C92	C	1.180870	-0.039714	0.308169
C93	C	1.265389	-0.000044	0.275769
C94	C	1.273937	0.039641	0.308162
C95	C	1.197968	0.039655	0.372949
C96	C	0.840864	0.344206	0.372960
C97	C	0.840861	0.409005	0.308177
C98	C	0.794340	0.401737	0.275769
C99	C	0.747811	0.329665	0.308155
C100	C	0.747809	0.264868	0.372942
C101	C	1.197954	0.264839	0.372970
C102	C	1.273938	0.329624	0.308189
C103	C	1.265416	0.401703	0.275786
C104	C	1.180904	0.408996	0.308174
C105	C	1.104921	0.344212	0.372959
C106	C	0.390721	-0.264830	0.981991
C107	C	0.314737	-0.329615	1.046792
C108	C	0.323259	-0.401694	1.079198
C109	C	0.407772	-0.408987	1.046805
C110	C	0.483754	-0.344203	0.982010
C111	C	0.483775	0.039697	0.982006
C112	C	0.407805	0.039699	1.046808
C113	C	0.323286	0.000027	1.079210
C114	C	0.314738	-0.039655	1.046815
C115	C	0.390707	-0.039660	0.982019
C116	C	0.840865	-0.264840	0.981999
C117	C	0.840882	-0.329626	1.046783
C118	C	0.794362	-0.401704	1.079184
C119	C	0.747831	-0.408994	1.046791
C120	C	0.747820	-0.344209	0.982004
H121	H	0.709933	0.206198	0.821455
H122	H	1.173893	-0.072030	0.281803
H123	H	0.878772	-0.323675	1.073151
H124	H	0.709925	-0.350157	0.955642
Br125	Br	0.684689	0.093540	0.416893
Br126	Br	1.368482	-0.000071	0.187843
Br127	Br	0.684692	-0.506820	1.090780
Br128	Br	1.169354	0.506824	0.264191
H129	H	0.709921	0.072002	-0.044349
Br130	Br	1.209543	0.167026	0.416935
H131	H	0.414783	0.072015	1.073173
H132	H	0.794378	-0.454450	1.131938
Br133	Br	0.904006	-0.167028	0.938042
Br134	Br	0.903989	-0.093529	0.090791
H135	H	1.342763	0.071938	0.281772
Br136	Br	0.419322	-0.506815	1.090792
Br137	Br	1.388622	0.319708	0.264245
H138	H	0.709929	0.323745	0.821448
H139	H	0.383766	-0.206145	0.955609
Br140	Br	0.903991	0.506825	0.490433
H141	H	0.261382	-0.454439	1.131958
Br142	Br	1.368546	0.489618	0.187864
Br143	Br	1.209588	0.093522	0.416889
Br144	Br	0.598435	-0.354117	0.938056
H145	H	0.878747	0.350138	0.399339
H146	H	0.709934	0.072010	0.073187
Br147	Br	0.684681	0.493185	0.864515
Br148	Br	0.904009	0.832945	0.490415
Br149	Br	0.904014	0.506808	0.264237
Br150	Br	0.990240	0.354127	0.416894
H151	H	0.245931	-0.323661	1.073154
H152	H	0.552588	0.072008	0.955629
Br153	Br	0.794351	0.489685	0.187844
H154	H	0.709934	0.323758	0.281760
H155	H	0.709937	0.649870	0.821430
H156	H	0.261435	0.000037	1.131971
H157	H	0.878748	0.676269	0.533496
H158	H	0.245913	-0.071955	1.073207
H159	H	0.878738	0.350146	0.533516
H160	H	0.383733	-0.071968	0.955646
H161	H	0.878742	-0.071998	0.399308
H162	H	0.878747	-0.071985	0.281752
H163	H	0.878733	-0.071982	-0.044356
H164	H	1.036088	-0.072008	0.399333
Br165	Br	0.684697	0.093552	0.264153
H166	H	0.709927	0.206191	0.399297
