data_functionalizedCrystal
_audit_creation_method	'MofGen! by Chris Wilmer'
_symmetry_space_group_name_H-M	'P1'
_symmetry_Int_Tables_number	1
_symmetry_cell_setting	triclinic
loop_
_symmetry_equiv_pos_as_xyz
  x,y,z
_cell_length_a	16.120530
_cell_length_b	18.215404
_cell_length_c	18.215399
_cell_angle_alpha	89.972485
_cell_angle_beta	92.916648
_cell_angle_gamma	92.880662
loop_
_atom_site_label
_atom_site_type_symbol
_atom_site_fract_x
_atom_site_fract_y
_atom_site_fract_z
Zn1	Zn	1.274544	0.350119	0.473096
Zn2	Zn	1.274443	0.473186	0.350026
Zn3	Zn	1.135127	0.343893	0.343810
Zn4	Zn	1.135091	0.466898	0.466821
O5	O	1.204801	0.408524	0.408438
O6	O	1.391196	0.371681	0.461997
O7	O	1.255935	0.456061	0.246216
O8	O	1.153678	0.241737	0.360985
O9	O	1.391122	0.462098	0.371578
O10	O	1.256108	0.246312	0.455970
O11	O	1.153580	0.361070	0.241649
O12	O	1.018457	0.354973	0.354901
O13	O	1.153617	0.451381	0.570639
O14	O	1.018430	0.445344	0.445276
O15	O	1.256073	0.365584	0.575249
O16	O	1.255900	0.575333	0.365494
O17	O	1.153519	0.570714	0.451303
C18	C	0.988193	0.398801	0.398734
C19	C	0.895527	0.394659	0.394600
C20	C	1.204717	0.599727	0.408409
C21	C	1.204758	0.681527	0.408425
C22	C	1.204852	0.408476	0.600393
C23	C	1.204874	0.408455	0.682193
C24	C	0.725866	0.387081	0.387058
C25	C	0.684577	0.430022	0.429872
C26	C	0.590172	0.425805	0.425676
C27	C	0.820280	0.391297	0.391253
C28	C	1.422255	0.418285	0.418181
C29	C	1.514921	0.422445	0.422333
C30	C	1.258197	0.872108	0.363846
C31	C	1.258235	0.948968	0.363870
C32	C	1.151534	0.944194	0.453142
C33	C	1.151500	0.867335	0.453121
C34	C	1.204830	0.831294	0.408469
C35	C	1.204903	0.985013	0.408513
C36	C	1.204945	1.068349	0.408539
C37	C	1.204789	0.747953	0.408444
C38	C	1.204914	1.216576	0.408498
C39	C	1.204975	1.134780	0.408558
C40	C	1.204799	0.408521	0.217232
C41	C	1.204939	0.408342	0.135440
C42	C	1.258241	0.363737	0.872790
C43	C	1.258251	0.363716	0.949649
C44	C	1.151565	0.453061	0.944837
C45	C	1.151551	0.453078	0.867980
C46	C	1.204894	0.408417	0.831958
C47	C	1.204918	0.408380	0.985675
C48	C	1.204928	0.408357	1.069009
C49	C	1.204883	0.408438	0.748618
H50	H	0.720130	0.469951	0.469678
H51	H	0.690315	0.347154	0.347255
O52	O	1.315724	0.833232	0.315698
H53	H	1.352846	0.874529	0.284680
O54	O	1.093936	0.823311	0.501256
H55	H	1.102881	0.763812	0.493746
H56	H	1.301675	0.327370	0.843463
O57	O	1.093984	0.501255	0.823941
H58	H	1.108238	0.559657	0.839305
O59	O	1.315794	0.315531	0.993692
H60	H	1.352887	0.284485	0.955729
H61	H	1.108137	0.489424	0.974176
H62	H	1.108113	0.973548	0.489494
O63	O	1.315790	0.992992	0.315737
H64	H	1.352861	0.955015	0.284682
