data_functionalizedCrystal
_audit_creation_method	'MofGen! by Chris Wilmer'
_symmetry_space_group_name_H-M	'P1'
_symmetry_Int_Tables_number	1
_symmetry_cell_setting	triclinic
loop_
_symmetry_equiv_pos_as_xyz
  x,y,z
_cell_length_a	6.817900
_cell_length_b	17.329528
_cell_length_c	27.923559
_cell_angle_alpha	92.997549
_cell_angle_beta	98.965071
_cell_angle_gamma	103.027692
loop_
_atom_site_label
_atom_site_type_symbol
_atom_site_fract_x
_atom_site_fract_y
_atom_site_fract_z
V1	V	-3.970931	-0.109817	-0.146829
V2	V	-3.470931	0.390183	0.353171
O3	O	-3.965444	0.004127	-0.148556
O4	O	-3.465444	0.504127	0.351444
O5	O	-3.917119	-0.216644	-0.141476
O6	O	-3.417119	0.283356	0.358524
O7	O	-3.900785	-0.108633	-0.212850
O8	O	-3.400785	0.391367	0.287150
O9	O	-3.981891	-0.104631	-0.076687
O10	O	-3.481891	0.395369	0.423313
V11	V	-4.458077	-0.096129	-0.138968
V12	V	-3.958077	0.403871	0.361032
O13	O	-4.224240	-0.139845	-0.164073
O14	O	-3.724240	0.360155	0.335927
O15	O	-4.654965	-0.066101	-0.121723
O16	O	-4.154965	0.433899	0.378277
O17	O	-4.288682	0.010697	-0.144321
O18	O	-3.788682	0.510697	0.355679
O19	O	-4.580961	-0.210074	-0.137241
O20	O	-4.080961	0.289926	0.362759
O21	O	-4.564514	-0.101315	-0.209109
O22	O	-4.064514	0.398685	0.290891
O23	O	-4.305016	-0.097313	-0.072946
O24	O	-3.805016	0.402687	0.427054
C25	C	-3.761507	-0.242670	-0.138037
C26	C	-3.261507	0.257330	0.361963
C27	C	-3.798652	-0.330005	-0.134101
C28	C	-3.298652	0.169995	0.365899
C29	C	-4.007334	-0.823361	-0.109588
C30	C	-3.507334	-0.323361	0.390412
C31	C	-3.972447	-0.741303	-0.113295
C32	C	-3.472447	-0.241303	0.386705
C33	C	-3.979971	-0.711832	-0.159112
C34	C	-3.479971	-0.211832	0.340888
C35	C	-4.022364	-0.764423	-0.201224
C36	C	-3.522364	-0.264423	0.298776
C37	C	-4.057235	-0.846479	-0.197517
C38	C	-3.557235	-0.346479	0.302483
C39	C	-3.875916	-0.464652	-0.172506
C40	C	-3.375916	0.035348	0.327494
C41	C	-3.841046	-0.382590	-0.176210
C42	C	-3.341046	0.117410	0.323790
C43	C	-3.791129	-0.359475	-0.088281
C44	C	-3.291129	0.140525	0.411719
C45	C	-3.826015	-0.441535	-0.084577
C46	C	-3.326015	0.058465	0.415423
C47	C	-3.868395	-0.494118	-0.126689
C48	C	-3.368395	0.005882	0.373311
C49	C	-3.944318	-0.627955	-0.162902
C50	C	-3.444318	-0.127955	0.337098
C51	C	-3.904033	-0.577993	-0.122898
C52	C	-3.404033	-0.077993	0.377102
C53	C	-3.740671	-0.104890	-0.229082
C54	C	-3.240671	0.395110	0.270918
C55	C	-3.764567	-0.104628	-0.283026
C56	C	-3.264567	0.395372	0.216974
C57	C	-3.947080	-0.175098	-0.621563
C58	C	-3.447080	0.324902	-0.121563
C59	C	-4.036998	-0.174161	-0.824309
C60	C	-3.536998	0.325839	-0.324309
O61	O	-4.077702	-0.235272	-0.853945
O62	O	-3.577702	0.264728	-0.353945
N63	N	-4.014144	-0.102044	-0.845641
N64	N	-3.514144	0.397956	-0.345641
C65	C	-3.968819	-0.030157	-0.816283
C66	C	-3.468819	0.469843	-0.316283
O67	O	-3.951464	0.031204	-0.839079
O68	O	-3.451464	0.531204	-0.339079
C69	C	-3.878916	-0.031095	-0.613537
C70	C	-3.378916	0.468905	-0.113537
C71	C	-3.901754	-0.103216	-0.592208
C72	C	-3.401754	0.396784	-0.092208
C73	C	-3.969917	-0.247213	-0.600234
C74	C	-3.469917	0.252787	-0.100234
C75	C	-3.947428	-0.247447	-0.549550
C76	C	-3.447428	0.252553	-0.049550
C77	C	-3.902102	-0.175565	-0.520195
C78	C	-3.402102	0.324435	-0.020195
C79	C	-3.879265	-0.103449	-0.541524
C80	C	-3.379265	0.396551	-0.041524
C81	C	-3.833607	0.040791	-0.584180
C82	C	-3.333607	0.540791	-0.084180
C83	C	-3.811138	0.040550	-0.533491
C84	C	-3.311138	0.540550	-0.033491
C85	C	-3.833975	-0.031571	-0.512162
C86	C	-3.333975	0.468429	-0.012162
C87	C	-3.811449	-0.031800	-0.461486
C88	C	-3.311449	0.468200	0.038514
N89	N	-3.834303	-0.103917	-0.440155
N90	N	-3.334303	0.396083	0.059845
C91	C	-3.879630	-0.175799	-0.469509
C92	C	-3.379630	0.324201	0.030491
C93	C	-4.016018	-0.029669	-0.922727
C94	C	-3.516018	0.470331	-0.422727
C95	C	-4.038490	-0.029434	-0.973413
C96	C	-3.538490	0.470566	-0.473413
C97	C	-4.106671	-0.173439	-0.981437
C98	C	-3.606671	0.326561	-0.481437
C99	C	-4.084184	-0.173673	-0.930749
C100	C	-3.584184	0.326327	-0.430749
C101	C	-4.038872	-0.101786	-0.901396
C102	C	-3.538872	0.398214	-0.401396
C103	C	-3.832396	-0.176284	-0.363069
C104	C	-3.332396	0.323716	0.136931
C105	C	-3.809893	-0.176510	-0.312380
C106	C	-3.309893	0.323490	0.187620
C107	C	-3.741725	-0.032507	-0.304362
C108	C	-3.241725	0.467493	0.195638
C109	C	-3.764215	-0.032279	-0.355046
C110	C	-3.264215	0.467721	0.144954
C111	C	-3.809560	-0.104174	-0.384399
C112	C	-3.309560	0.395826	0.115601
O113	O	-3.770769	0.029278	-0.431822
O114	O	-3.270769	0.529278	0.068178
O115	O	-3.897021	-0.237152	-0.446704
O116	O	-3.397021	0.262848	0.053296
C117	C	-3.969570	-0.174865	-0.672247
C118	C	-3.469570	0.325135	-0.172247
C119	C	-3.946733	-0.102749	-0.693576
C120	C	-3.446733	0.397251	-0.193576
C121	C	-3.901406	-0.030867	-0.664221
C122	C	-3.401406	0.469133	-0.164221
C123	C	-3.969204	-0.102515	-0.744262
C124	C	-3.469204	0.397485	-0.244262
C125	C	-4.014531	-0.174397	-0.773616
C126	C	-3.514531	0.325603	-0.273616
C127	C	-4.037385	-0.246513	-0.752285
C128	C	-3.537385	0.253487	-0.252285
C129	C	-4.014896	-0.246747	-0.701601
C130	C	-3.514896	0.253253	-0.201601
C131	C	-3.878552	0.041250	-0.685553
C132	C	-3.378552	0.541250	-0.185553
C133	C	-3.901042	0.041477	-0.736237
C134	C	-3.401042	0.541477	-0.236237
C135	C	-3.946368	-0.030405	-0.765592
C136	C	-3.446368	0.469595	-0.265592
C137	C	-4.107637	0.036720	-0.147758
C138	C	-3.607637	0.536720	0.352242
C139	C	-4.049729	0.124054	-0.151697
C140	C	-3.549729	0.624054	0.348303
C141	C	-4.128473	-0.101059	-0.056712
C142	C	-3.628473	0.398941	0.443288
C143	C	-4.083816	-0.101316	-0.002768
C144	C	-3.583816	0.398684	0.497232
H145	H	-4.091749	-0.889294	-0.231806
H146	H	-3.591749	-0.389294	0.268194
Cl147	Cl	-3.838607	-0.267184	-0.285570
Cl148	Cl	-3.338607	0.232816	0.214430
Cl149	Cl	-3.953763	-0.590898	-0.220499
Cl150	Cl	-3.453763	-0.090898	0.279501
Cl151	Cl	-4.026900	-0.337592	-0.637128
Cl152	Cl	-3.526900	0.162408	-0.137128
H153	H	-3.819891	-0.465524	-0.047268
H154	H	-3.319891	0.034476	0.452732
Cl155	Cl	-3.737873	-0.293367	-0.035343
Cl156	Cl	-3.237873	0.206633	0.464657
Cl157	Cl	-3.754204	0.130928	-0.496592
Cl158	Cl	-3.254204	0.630928	0.003408
Cl159	Cl	-3.889394	-0.266667	-0.399962
Cl160	Cl	-3.389394	0.233333	0.100038
H161	H	-3.704811	0.026018	-0.280452
H162	H	-3.204811	0.526018	0.219548
Cl163	Cl	-3.872309	0.132154	-0.763043
Cl164	Cl	-3.372309	0.632154	-0.263043
Cl165	Cl	-3.976179	-0.338119	-0.522745
Cl166	Cl	-3.476179	0.161881	-0.022745
H167	H	-3.841648	0.099786	-0.661657
H168	H	-3.341648	0.599786	-0.161657
H169	H	-4.001213	-0.847350	-0.072279
H170	H	-3.501213	-0.347350	0.427721
H171	H	-4.102782	-0.232400	-0.913387
H172	H	-3.602782	0.267600	-0.413387
Cl173	Cl	-3.850520	-0.345542	-0.233813
Cl174	Cl	-3.350520	0.154458	0.266187
Cl175	Cl	-4.043622	-0.337419	-0.674796
Cl176	Cl	-3.543622	0.162581	-0.174796
H177	H	-4.074284	-0.305042	-0.776194
H178	H	-3.574284	0.194958	-0.276194
H179	H	-3.979120	0.028873	-0.898831
H180	H	-3.479120	0.528873	-0.398831
H181	H	-4.143574	-0.231968	-1.005346
H182	H	-3.643574	0.268032	-0.505346
H183	H	-3.937935	-0.698491	-0.079005
H184	H	-3.437935	-0.198491	0.420995
H185	H	-3.745629	0.026448	-0.372413
H186	H	-3.245629	0.526448	0.127587
H187	H	-3.910427	-0.507457	-0.206796
H188	H	-3.410427	-0.007457	0.293204
H189	H	-4.028474	-0.740421	-0.238529
H190	H	-3.528474	-0.240421	0.261471
H191	H	-3.897897	-0.601992	-0.085595
H192	H	-3.397897	-0.101992	0.414405
Cl193	Cl	-4.009733	0.061237	-1.000220
Cl194	Cl	-3.509733	0.561237	-0.500220
H195	H	-3.814991	0.099521	-0.601537
H196	H	-3.314991	0.599521	-0.101537
