data_functionalizedCrystal
_audit_creation_method	'MofGen! by Chris Wilmer'
_symmetry_space_group_name_H-M	'P1'
_symmetry_Int_Tables_number	1
_symmetry_cell_setting	triclinic
loop_
_symmetry_equiv_pos_as_xyz
  x,y,z
_cell_length_a	16.992694
_cell_length_b	16.992695
_cell_length_c	16.053802
_cell_angle_alpha	92.747646
_cell_angle_beta	92.750953
_cell_angle_gamma	89.331778
loop_
_atom_site_label
_atom_site_type_symbol
_atom_site_fract_x
_atom_site_fract_y
_atom_site_fract_z
O1	O	-1.053958	0.163816	-0.069305
O2	O	-0.553958	0.663816	0.430695
O3	O	-0.825559	0.161984	-0.069330
O4	O	-0.325559	0.661984	0.430670
O5	O	-0.938844	0.048699	-0.069325
O6	O	-0.438844	0.548699	0.430675
O7	O	-0.940674	0.277100	-0.069310
O8	O	-0.440674	0.777100	0.430690
O9	O	-0.932606	0.054907	0.069534
O10	O	-0.432606	0.554907	0.569534
O11	O	-0.819322	0.168192	0.069529
O12	O	-0.319322	0.668192	0.569529
O13	O	-1.047721	0.170024	0.069554
O14	O	-0.547721	0.670024	0.569554
Zn15	Zn	-0.932531	0.170093	0.091588
Zn16	Zn	-0.432531	0.670093	0.591588
Zn17	Zn	-0.940749	0.161914	-0.091364
Zn18	Zn	-0.440749	0.661914	0.408636
O19	O	-0.934437	0.283308	0.069549
O20	O	-0.434437	0.783308	0.569549
C21	C	-0.793081	0.162732	0.000096
C22	C	-0.293081	0.662732	0.500096
C23	C	-0.705597	0.155703	0.000086
C24	C	-0.205597	0.655703	0.500086
C25	C	-1.080200	0.169276	0.000126
C26	C	-0.580200	0.669276	0.500126
C27	C	-1.167684	0.176305	0.000130
C28	C	-0.667684	0.676305	0.500130
C29	C	-0.933369	0.022443	0.000101
C30	C	-0.433369	0.522443	0.500101
C31	C	-0.926341	-0.065042	0.000089
C32	C	-0.426341	0.434958	0.500089
C33	C	-0.939911	0.309564	0.000121
C34	C	-0.439911	0.809564	0.500121
C35	C	-0.946940	0.397049	0.000127
C36	C	-0.446940	0.897049	0.500127
C37	C	-0.659605	0.223521	0.000091
C38	C	-0.159605	0.723521	0.500091
C39	C	-0.577404	0.216912	0.000102
C40	C	-0.077404	0.716912	0.500102
C41	C	-0.541196	0.142485	0.000102
C42	C	-0.041196	0.642485	0.500102
C43	C	-0.587193	0.074662	0.000100
C44	C	-0.087193	0.574662	0.500100
C45	C	-0.669392	0.081271	0.000095
C46	C	-0.169392	0.581271	0.500095
C47	C	-0.295881	0.115091	0.000123
C48	C	0.204119	0.615091	0.500123
C49	C	-0.213675	0.108487	0.000125
C50	C	0.286325	0.608487	0.500125
C51	C	-0.203892	0.250738	0.000129
C52	C	0.296108	0.750738	0.500129
C53	C	-0.286094	0.257341	0.000119
C54	C	0.213906	0.757341	0.500119
C55	C	-0.332083	0.189518	0.000121
C56	C	0.167917	0.689518	0.500121
N57	N	-0.457173	0.135728	0.000111
N58	N	0.042827	0.635728	0.500111
N59	N	-0.416104	0.196276	0.000118
N60	N	0.083896	0.696276	0.500118
N61	N	-0.926929	0.175676	0.216448
N62	N	-0.426929	0.675676	0.716448
C63	C	-0.879122	0.443040	0.000120
C64	C	-0.379122	0.943040	0.500120
C65	C	-0.885731	0.525240	0.000110
C66	C	-0.385731	1.025240	0.500110
C67	C	-0.960159	0.561449	0.000114
C68	C	-0.460159	1.061449	0.500114
C69	C	-1.027982	0.515452	0.000119
C70	C	-0.527982	1.015452	0.500119
C71	C	-1.021372	0.433253	0.000123
C72	C	-0.521372	0.933253	0.500123
C73	C	-0.987554	0.806762	0.000098
C74	C	-0.487554	1.306762	0.500098
C75	C	-0.994159	0.888967	0.000097
C76	C	-0.494159	1.388967	0.500097
C77	C	-0.851908	0.898750	0.000086
C78	C	-0.351908	1.398750	0.500086
C79	C	-0.845304	0.816549	0.000095
C80	C	-0.345304	1.316549	0.500095
C81	C	-0.913127	0.770559	0.000095
C82	C	-0.413127	1.270559	0.500095
N83	N	-0.966916	0.645471	0.000107
N84	N	-0.466916	1.145471	0.500107
N85	N	-0.906369	0.686539	0.000097
N86	N	-0.406369	1.186539	0.500097
N87	N	-0.946358	0.156326	-0.216224
N88	N	-0.446358	0.656326	0.283776
C89	C	-0.975151	0.127492	0.260144
C90	C	-0.475151	0.627492	0.760144
C91	C	-0.971240	0.131405	0.347551
C92	C	-0.471240	0.631405	0.847551
C93	C	-0.919109	0.183505	0.391260
C94	C	-0.419109	0.683505	0.891260
C95	C	-0.870882	0.231691	0.347557
C96	C	-0.370882	0.731691	0.847557
C97	C	-0.874789	0.227773	0.260152
C98	C	-0.374789	0.727773	0.760152
C99	C	-0.902038	0.200594	0.652668
C100	C	-0.402038	0.700594	1.152668
C101	C	-0.898135	0.204509	0.740080
C102	C	-0.398135	0.704509	1.240080
C103	C	-0.998493	0.104222	0.740067
C104	C	-0.498493	0.604222	1.240067
C105	C	-1.002399	0.100313	0.652660
C106	C	-0.502399	0.600313	1.152660
C107	C	-0.954169	0.148495	0.608966
C108	C	-0.454169	0.648495	1.108966
N109	N	-0.915112	0.187508	0.480603
N110	N	-0.415112	0.687508	0.980603
N111	N	-0.958163	0.144488	0.519624
N112	N	-0.458163	0.644488	1.019624
H113	H	-0.539961	0.272137	0.000105
H114	H	-0.039961	0.772137	0.500105
C115	C	-0.883352	0.314976	0.838363
C116	C	-0.383352	0.814976	1.338363
C117	C	-0.840824	0.261782	0.788121
C118	C	-0.340824	0.761782	1.288121
H119	H	-0.847972	0.350334	0.868015
H120	H	-0.347972	0.850334	1.368015
H121	H	-0.911508	0.286843	0.876894
H122	H	-0.411508	0.786843	1.376894
H123	H	-0.919411	0.343834	0.804247
H124	H	-0.419411	0.843834	1.304247
H125	H	-0.804770	0.232918	0.822237
H126	H	-0.304770	0.732918	1.322237
H127	H	-0.812656	0.289917	0.749585
H128	H	-0.312656	0.789917	1.249585
C129	C	-0.231598	-0.031466	0.000130
C130	C	0.268402	0.468534	0.500130
C131	C	-0.173873	0.026669	0.000127
C132	C	0.326127	0.526669	0.500127
H133	H	-0.207023	-0.081972	0.000133
H134	H	0.292977	0.418028	0.500133
H135	H	-0.265624	-0.028099	-0.048289
H136	H	0.234376	0.471901	0.451711
H137	H	-0.261285	-0.023759	0.048557
H138	H	0.238715	0.476241	0.548557
H139	H	-0.144190	0.018966	-0.048304
H140	H	0.355810	0.518966	0.451696
H141	H	-0.139833	0.023300	0.048551
H142	H	0.360167	0.523300	0.548551
H143	H	-0.784698	0.787074	0.000082
H144	H	-0.284698	1.287074	0.500082
C145	C	-1.120639	0.902755	-0.071298
C146	C	-0.620639	1.402755	0.428702
C147	C	-1.075973	0.928775	0.000088
C148	C	-0.575973	1.428775	0.500088
H149	H	-1.171141	0.927337	-0.071305
H150	H	-0.671141	1.427337	0.428695
H151	H	-1.126417	0.847226	-0.071290
H152	H	-0.626417	1.347226	0.428710
H153	H	-1.094653	0.916068	-0.119713
H154	H	-0.594653	1.416068	0.380287
H155	H	-1.101956	0.915457	0.048503
H156	H	-0.601956	1.415457	0.548503
H157	H	-1.070198	0.984316	0.000087
H158	H	-0.570198	1.484316	0.500087
H159	H	-1.010506	0.092170	0.383128
H160	H	-0.510506	0.592170	0.883128
C161	C	-0.780023	0.993661	-0.071314
C162	C	-0.280023	1.493661	0.428686
C163	C	-0.777360	0.949302	0.000073
C164	C	-0.277360	1.449302	0.500073
H165	H	-0.733995	1.024865	-0.071325
H166	H	-0.233995	1.524865	0.428675
H167	H	-0.825288	1.026986	-0.071303
H168	H	-0.325288	1.526986	0.428697
H169	H	-0.782579	0.959211	-0.119728
H170	H	-0.282579	1.459211	0.380272
H171	H	-0.774810	0.983752	0.048488
H172	H	-0.274810	1.483752	0.548488
H173	H	-0.732083	0.915973	0.000070
H174	H	-0.232083	1.415973	0.500070
H175	H	-0.557705	0.014061	0.000112
H176	H	-0.057705	0.514061	0.500112
H177	H	-0.828432	0.274109	0.383150
H178	H	-0.328432	0.774109	0.883150
H179	H	-0.830507	0.562682	0.000101
H180	H	-0.330507	1.062682	0.500101
C181	C	-1.085578	0.112725	0.161793
C182	C	-0.585578	0.612725	0.661793
C183	C	-1.032418	0.070199	0.212081
C184	C	-0.532418	0.570199	0.712081
H185	H	-1.120923	0.077344	0.132121
H186	H	-0.620923	0.577344	0.632121
H187	H	-1.057418	0.140873	0.123278
H188	H	-0.557418	0.640873	0.623278
H189	H	-1.114456	0.148789	0.195878
H190	H	-0.614456	0.648789	0.695878
H191	H	-1.003537	0.034139	0.177995
H192	H	-0.503537	0.534139	0.677995
H193	H	-1.060582	0.042038	0.250600
H194	H	-0.560582	0.542038	0.750600
H195	H	-1.042781	0.769327	0.000104
H196	H	-0.542781	1.269327	0.500104
C197	C	-0.397184	0.036803	-0.071270
C198	C	0.102816	0.536803	0.428730
C199	C	-0.346425	0.040539	0.000113
C200	C	0.153575	0.540539	0.500113
H201	H	-0.428392	-0.009223	-0.071273
H202	H	0.071608	0.490777	0.428727
H203	H	-0.367080	0.035020	-0.119682
H204	H	0.132920	0.535020	0.380318
H205	H	-0.430512	0.082075	-0.071258
H206	H	0.069488	0.582075	0.428742
H207	H	-0.313092	-0.004730	0.000098
H208	H	0.186908	0.495270	0.500098
H209	H	-0.376531	0.042316	0.048537
H210	H	0.123469	0.542316	0.548537
C211	C	-1.101276	0.637112	0.000128
C212	C	-0.601276	1.137112	0.500128
C213	C	-1.109794	0.555251	0.000126
C214	C	-0.609794	1.055251	0.500126
H215	H	-1.151786	0.661679	0.000140
H216	H	-0.651786	1.161679	0.500140
H217	H	-1.075317	0.650421	-0.048296
H218	H	-0.575317	1.150421	0.451704
H219	H	-1.070959	0.654754	0.048551
H220	H	-0.570959	1.154754	0.548551
H221	H	-1.140107	0.537608	-0.048300
H222	H	-0.640107	1.037608	0.451700
H223	H	-1.135765	0.541935	0.048555
H224	H	-0.635765	1.041935	0.548555
H225	H	-1.044848	0.057889	0.617074
H226	H	-0.544848	0.557889	1.117074
C227	C	-1.162643	0.431835	0.000141
C228	C	-0.662643	0.931835	0.500141
C229	C	-1.095919	0.382697	0.000134
C230	C	-0.595919	0.882697	0.500134
H231	H	-1.208665	0.400622	0.000150
H232	H	-0.708665	0.900622	0.500150
H233	H	-1.164436	0.461928	-0.048280
H234	H	-0.664436	0.961928	0.451720
H235	H	-1.160083	0.466270	0.048566
H236	H	-0.660083	0.966270	0.548566
H237	H	-1.098476	0.348266	-0.048295
H238	H	-0.598476	0.848266	0.451705
H239	H	-1.094126	0.352590	0.048560
H240	H	-0.594126	0.852590	0.548560
H241	H	-1.037759	0.064994	0.775651
H242	H	-0.537759	0.564994	1.275651
C243	C	-0.802455	0.300122	0.661473
C244	C	-0.302455	0.800122	1.161473
C245	C	-0.849030	0.253562	0.604647
C246	C	-0.349030	0.753562	1.104647
H247	H	-0.769733	0.332827	0.631822
H248	H	-0.269733	0.832827	1.131822
H249	H	-0.770567	0.267091	0.695568
H250	H	-0.270567	0.767091	1.195568
H251	H	-0.835483	0.332034	0.695559
H252	H	-0.335483	0.832034	1.195559
H253	H	-0.816002	0.221645	0.570565
H254	H	-0.316002	0.721645	1.070565
H255	H	-0.880921	0.286597	0.570537
H256	H	-0.380921	0.786597	1.070537
C257	C	-0.739180	0.460974	0.000096
C258	C	-0.239180	0.960974	0.500096
C259	C	-0.797308	0.403243	0.000111
C260	C	-0.297308	0.903243	0.500111
H261	H	-0.688671	0.436405	0.000082
H262	H	-0.188671	0.936405	0.500082
H263	H	-0.742539	0.494997	0.048516
H264	H	-0.242539	0.994997	0.548516
H265	H	-0.746901	0.490663	-0.048331
H266	H	-0.246901	0.990663	0.451669
H267	H	-0.789590	0.373558	0.048541
H268	H	-0.289590	0.873558	0.548541
H269	H	-0.793947	0.369206	-0.048314
H270	H	-0.293947	0.869206	0.451686
C271	C	-0.679757	0.343613	-0.071285
C272	C	-0.179757	0.843613	0.428715
C273	C	-0.699399	0.305336	0.000090
C274	C	-0.199399	0.805336	0.500090
H275	H	-0.704318	0.394126	-0.071280
H276	H	-0.204318	0.894126	0.428720
H277	H	-0.697412	0.313310	-0.119702
H278	H	-0.197412	0.813310	0.380298
H279	H	-0.624217	0.349373	-0.071272
H280	H	-0.124217	0.849373	0.428728
H281	H	-0.754938	0.299571	0.000073
H282	H	-0.254938	0.799571	0.500073
H283	H	-0.681748	0.335647	0.048520
H284	H	-0.181748	0.835647	0.548520
C285	C	-0.306222	0.377425	-0.071265
C286	C	0.193778	0.877425	0.428735
C287	C	-0.325875	0.339162	0.000115
C288	C	0.174125	0.839162	0.500115
H289	H	-0.330774	0.427942	-0.071268
H290	H	0.169226	0.927942	0.428732
H291	H	-0.323880	0.347119	-0.119679
H292	H	0.176120	0.847119	0.380321
H293	H	-0.250681	0.383175	-0.071249
H294	H	0.249319	0.883175	0.428751
H295	H	-0.381416	0.333407	0.000096
H296	H	0.118584	0.833407	0.500096
H297	H	-0.308222	0.369475	0.048542
H298	H	0.191778	0.869475	0.548542
C299	C	-0.838303	0.359922	0.233232
C300	C	-0.338303	0.859922	0.733232
C301	C	-0.821786	0.280740	0.212116
C302	C	-0.321786	0.780740	0.712116
H303	H	-0.805581	0.392619	0.203572
H304	H	-0.305581	0.892619	0.703572
H305	H	-0.828512	0.369707	0.291534
H306	H	-0.328512	0.869707	0.791534
H307	H	-0.892017	0.371141	0.218895
H308	H	-0.392017	0.871141	0.718895
H309	H	-0.768074	0.269519	0.226458
H310	H	-0.268074	0.769519	0.726458
H311	H	-0.831571	0.270951	0.153801
H312	H	-0.331571	0.770951	0.653801
C313	C	-0.073542	0.303773	0.000147
C314	C	0.426458	0.803773	0.500147
C315	C	-0.153338	0.325286	0.000138
C316	C	0.346662	0.825286	0.500138
H317	H	-0.042334	0.349799	0.000160
H318	H	0.457666	0.849799	0.500160
H319	H	-0.064251	0.271309	-0.048276
H320	H	0.435749	0.771309	0.451724
H321	H	-0.059923	0.275629	0.048571
H322	H	0.440077	0.775629	0.548571
H323	H	-0.166959	0.353425	-0.048289
H324	H	0.333041	0.853425	0.451711
H325	H	-0.162633	0.357763	0.048566
H326	H	0.337367	0.857763	0.548566
C327	C	-0.706247	-0.041130	-0.071302
C328	C	-0.206247	0.458870	0.428698
C329	C	-0.719952	0.006725	0.000082
C330	C	-0.219952	0.506725	0.500082
H331	H	-0.737465	-0.087150	-0.071308
H332	H	-0.237465	0.412850	0.428692
H333	H	-0.652118	-0.055718	-0.071293
H334	H	-0.152118	0.444282	0.428707
H335	H	-0.719877	-0.012979	-0.119718
H336	H	-0.219877	0.487021	0.380282
H337	H	-0.706316	-0.021425	0.048499
H338	H	-0.206316	0.478575	0.548499
H339	H	-0.774094	0.021311	0.000081
H340	H	-0.274094	0.521311	0.500081
