data_functionalizedCrystal
_audit_creation_method	'MofGen! by Chris Wilmer'
_symmetry_space_group_name_H-M	'P1'
_symmetry_Int_Tables_number	1
_symmetry_cell_setting	triclinic
loop_
_symmetry_equiv_pos_as_xyz
  x,y,z
_cell_length_a	17.699077
_cell_length_b	19.188924
_cell_length_c	16.776229
_cell_angle_alpha	89.991276
_cell_angle_beta	89.993415
_cell_angle_gamma	83.211270
loop_
_atom_site_label
_atom_site_type_symbol
_atom_site_fract_x
_atom_site_fract_y
_atom_site_fract_z
O1	O	1.003963	0.088275	-0.066281
O2	O	0.783568	0.099766	-0.066286
O3	O	0.900128	-0.007628	-0.066274
O4	O	0.887403	0.195670	-0.066293
O5	O	0.900113	-0.007635	0.066303
O6	O	0.783553	0.099760	0.066291
O7	O	1.003947	0.088268	0.066295
Zn8	Zn	0.893748	0.094013	0.087342
Zn9	Zn	0.893768	0.094022	-0.087333
O10	O	0.887387	0.195663	0.066284
C11	C	0.755364	0.099352	0.000002
C12	C	0.671347	0.098119	0.000001
C13	C	0.631872	0.097534	0.072269
C14	C	0.552931	0.096364	0.072270
C15	C	0.513466	0.095784	0.000002
C16	C	0.552947	0.096367	-0.072272
C17	C	0.631887	0.097532	-0.072272
C18	C	0.234590	0.091668	-0.072273
C19	C	0.155644	0.090505	-0.072267
C20	C	0.155634	0.090501	0.072269
C21	C	0.234574	0.091666	0.072269
C22	C	0.274049	0.092245	-0.000004
C23	C	0.359646	0.093512	-0.000005
C24	C	0.427870	0.094522	0.000001
C25	C	0.899709	-0.033643	0.000015
C26	C	0.898475	-0.111149	0.000017
C27	C	0.897907	-0.147545	-0.072250
C28	C	0.896737	-0.220369	-0.072257
C29	C	0.896149	-0.256796	0.000009
C30	C	0.896712	-0.220391	0.072286
C31	C	0.897875	-0.147568	0.072290
N32	N	0.937387	-0.376417	0.053796
N33	N	0.936284	-0.445596	0.053787
C34	C	0.892643	-0.476209	0.000001
N35	N	0.850156	-0.435031	-0.053787
N36	N	0.851263	-0.365845	-0.053781
C37	C	0.894887	-0.335761	0.000013
C38	C	0.890805	-0.591569	-0.072278
C39	C	0.889630	-0.664394	-0.072281
C40	C	0.889613	-0.664415	0.072264
C41	C	0.890781	-0.591591	0.072265
C42	C	0.891380	-0.555173	-0.000008
C43	C	1.032152	0.088683	0.000006
C44	C	1.116168	0.089916	0.000002
C45	C	0.887806	0.221678	-0.000007
C46	C	0.889041	0.299184	-0.000015
N47	N	0.893739	0.094007	0.206554
N48	N	0.893782	0.094022	-0.206544
C49	C	0.945368	0.046472	0.248276
C50	C	0.945372	0.046471	0.331728
C51	C	0.893751	0.094009	0.373457
C52	C	0.842117	0.141547	0.331728
C53	C	0.842110	0.141543	0.248278
C54	C	0.842144	0.141560	0.668276
C55	C	0.842157	0.141561	0.751732
C56	C	0.945406	0.046488	0.751726
C57	C	0.945399	0.046485	0.668275
C58	C	0.893763	0.094019	0.626555
C59	C	0.893758	0.094018	0.536066
C60	C	0.893759	0.094014	0.463943
H61	H	0.123485	0.090026	0.131118
C62	C	0.785357	0.193843	0.797632
H63	H	0.754595	0.222146	0.760834
H64	H	0.812475	0.222883	0.830178
H65	H	0.753948	0.168746	0.830194
H66	H	0.123514	0.090032	-0.131120
C67	C	0.509537	0.095730	-0.151766
H68	H	0.456868	0.094961	-0.141416
H69	H	0.528386	0.055224	-0.181458
H70	H	0.516568	0.136628	-0.181461
C71	C	0.896142	-0.260417	-0.151754
H72	H	0.896678	-0.228299	-0.194795
H73	H	0.851572	-0.283436	-0.154783
H74	H	0.939831	-0.294217	-0.154732
C75	C	0.896065	-0.260454	0.151778
H76	H	0.896564	-0.228344	0.194821
H77	H	0.939737	-0.294265	0.154786
H78	H	0.851478	-0.283460	0.154776
H79	H	0.891249	-0.561958	0.131113
C80	C	0.675309	0.098180	-0.151767
H81	H	0.640499	0.097674	-0.194808
H82	H	0.712016	0.057935	-0.154769
H83	H	0.700191	0.139340	-0.154774
H84	H	0.800102	0.180266	0.634313
C85	C	0.509448	0.096145	0.151762
H86	H	0.456765	0.095488	0.141413
H87	H	0.516620	0.137166	0.181140
H88	H	0.528109	0.055759	0.181769
C89	C	0.278001	0.092313	-0.151770
H90	H	0.243188	0.091809	-0.194808
H91	H	0.314707	0.052068	-0.154776
H92	H	0.302883	0.133472	-0.154779
C93	C	0.889001	-0.704429	-0.151780
H94	H	0.889531	-0.672308	-0.194819
H95	H	0.844420	-0.727433	-0.154790
H96	H	0.932678	-0.738241	-0.154780
C97	C	0.898553	-0.107487	-0.151748
H98	H	0.898040	-0.139597	-0.194789
H99	H	0.943131	-0.084476	-0.154753
H100	H	0.854872	-0.073680	-0.154749
H101	H	0.800082	0.180251	0.365709
C102	C	0.891455	-0.551505	-0.151773
H103	H	0.890938	-0.583613	-0.194816
H104	H	0.936037	-0.528499	-0.154776
H105	H	0.847779	-0.517693	-0.154775
H106	H	0.800068	0.180250	0.214308
H107	H	0.898335	-0.117934	0.131141
H108	H	0.889129	-0.694073	0.131104
C109	C	1.002151	-0.005822	0.202382
H110	H	1.032894	-0.034137	0.239185
H111	H	1.033569	0.019253	0.169813
H112	H	0.975016	-0.034859	0.169843
C113	C	1.002170	-0.005811	0.377619
H114	H	1.032920	-0.034116	0.340815
H115	H	0.975055	-0.034847	0.410188
H116	H	1.033591	0.019280	0.410158
H117	H	0.266703	0.092142	0.131117
H118	H	0.663998	0.098012	0.131119
C119	C	1.002180	-0.005809	0.622378
H120	H	1.032924	-0.034125	0.659179
H121	H	1.033596	0.019266	0.589808
H122	H	0.975042	-0.034844	0.589840
C123	C	1.002199	-0.005807	0.797621
H124	H	0.994807	0.000995	0.853298
H125	H	1.052682	0.001717	0.783933
H126	H	0.994132	-0.052398	0.783953
