data_functionalizedCrystal
_audit_creation_method	'MofGen! by Chris Wilmer'
_symmetry_space_group_name_H-M	'P1'
_symmetry_Int_Tables_number	1
_symmetry_cell_setting	triclinic
loop_
_symmetry_equiv_pos_as_xyz
  x,y,z
_cell_length_a	12.827893
_cell_length_b	16.120484
_cell_length_c	12.827885
_cell_angle_alpha	87.136062
_cell_angle_beta	90.019462
_cell_angle_gamma	92.925431
loop_
_atom_site_label
_atom_site_type_symbol
_atom_site_fract_x
_atom_site_fract_y
_atom_site_fract_z
Zn1	Zn	1.576506	-0.331866	0.611895
Zn2	Zn	1.567506	-0.471301	0.445998
Zn3	Zn	1.401744	-0.331907	0.437171
Zn4	Zn	1.392843	-0.471239	0.620694
O5	O	1.484650	-0.401579	0.528940
O6	O	1.721547	-0.350372	0.589900
O7	O	1.545476	-0.452853	0.298594
O8	O	1.432418	-0.215236	0.452972
O9	O	1.714936	-0.452814	0.468017
O10	O	1.560814	-0.215206	0.581341
O11	O	1.423691	-0.350441	0.292109
O12	O	1.254328	-0.350381	0.461505
O13	O	1.417248	-0.452708	0.765761
O14	O	1.247789	-0.452748	0.596338
O15	O	1.552184	-0.350311	0.759296
O16	O	1.536846	-0.587959	0.476549
O17	O	1.408522	-0.587913	0.604897
C18	C	1.213141	-0.401562	0.528919
C19	C	1.096987	-0.401576	0.528936
C20	C	1.470770	-0.618186	0.542658
C21	C	1.464927	-0.710851	0.548562
C22	C	1.041989	-0.452309	0.595563
C23	C	0.921938	-0.452324	0.595582
C24	C	1.454267	-0.880512	0.559362
C25	C	1.515220	-0.921804	0.498534
C26	C	1.509289	-1.016209	0.504544
C27	C	1.460197	-0.786099	0.553355
C28	C	1.757219	-0.401595	0.528962
C29	C	1.873372	-0.401602	0.528971
C30	C	1.484727	-0.401498	0.801505
C31	C	1.484760	-0.401464	0.917656
C32	C	1.498613	-0.184125	0.515191
C33	C	1.504563	-0.091460	0.509332
C34	C	1.484637	-0.401598	0.257431
C35	C	1.484822	-0.401397	0.141266
C36	C	1.424518	-0.350777	0.966231
C37	C	1.424550	-0.350741	1.086279
H38	H	1.083781	-0.495730	0.652594
H39	H	1.055196	-0.358148	0.471913
H40	H	1.372980	-0.307342	1.128065
O41	O	1.379238	-0.927590	0.634316
H42	H	1.298256	-0.910999	0.615280
O43	O	1.590243	-0.874719	0.423571
H44	H	1.633985	-0.919533	0.379941
H45	H	1.372914	-0.307413	0.918943
O46	O	1.553154	-0.458885	1.085941
H47	H	1.503606	-0.501284	1.038895
O48	O	0.859318	-0.509861	0.671151
H49	H	0.774852	-0.500839	0.659314
O50	O	0.935979	-0.344062	0.453396
H51	H	0.988433	-0.301712	0.497604
O52	O	1.553113	-0.458921	0.980274
H53	H	1.608656	-0.421563	1.027640
