data_functionalizedCrystal
_audit_creation_method	'MofGen! by Chris Wilmer'
_symmetry_space_group_name_H-M	'P1'
_symmetry_Int_Tables_number	1
_symmetry_cell_setting	triclinic
loop_
_symmetry_equiv_pos_as_xyz
  x,y,z
_cell_length_a	21.295418
_cell_length_b	29.839131
_cell_length_c	29.839125
_cell_angle_alpha	90.011606
_cell_angle_beta	90.033105
_cell_angle_gamma	90.057233
loop_
_atom_site_label
_atom_site_type_symbol
_atom_site_fract_x
_atom_site_fract_y
_atom_site_fract_z
Zn1	Zn	0.962242	-0.178754	0.254239
Zn2	Zn	1.462242	0.321246	0.754239
Zn3	Zn	0.962144	-0.253858	0.179109
Zn4	Zn	1.462144	0.246142	0.679109
Zn5	Zn	0.856985	-0.178763	0.179096
Zn6	Zn	1.356985	0.321237	0.679096
Zn7	Zn	0.856914	-0.253878	0.254185
Zn8	Zn	1.356914	0.246122	0.754185
O9	O	0.909571	-0.216313	0.216657
O10	O	1.409571	0.283687	0.716657
O11	O	1.050318	-0.188704	0.244300
O12	O	1.550318	0.311296	0.744300
O13	O	0.948183	-0.243892	0.116240
O14	O	1.448183	0.256108	0.616240
O15	O	0.871018	-0.115895	0.189081
O16	O	1.371018	0.384105	0.689081
O17	O	1.050246	-0.243883	0.189103
O18	O	1.550246	0.256117	0.689103
O19	O	0.948350	-0.115888	0.244288
O20	O	1.448350	0.384112	0.744288
O21	O	0.870923	-0.188720	0.116230
O22	O	1.370923	0.311280	0.616230
O23	O	0.768886	-0.188740	0.189028
O24	O	1.268886	0.311260	0.689028
O25	O	0.870898	-0.243917	0.317059
O26	O	1.370898	0.256083	0.817059
O27	O	0.768834	-0.243927	0.244196
O28	O	1.268834	0.256073	0.744196
O29	O	0.948282	-0.188724	0.317099
O30	O	1.448282	0.311276	0.817099
O31	O	0.948115	-0.316728	0.189050
O32	O	1.448115	0.183272	0.689050
O33	O	0.870803	-0.316743	0.244208
O34	O	1.370803	0.183257	0.744208
C35	C	0.746020	-0.216337	0.216605
C36	C	1.246020	0.283663	0.716605
C37	C	0.676051	-0.216358	0.216594
C38	C	1.176051	0.283642	0.716594
C39	C	0.643174	-0.245132	0.245276
C40	C	1.143174	0.254868	0.745276
C41	C	0.577432	-0.245120	0.245297
C42	C	1.077432	0.254880	0.745297
C43	C	0.544569	-0.216340	0.216626
C44	C	1.044569	0.283660	0.716626
C45	C	0.577454	-0.187561	0.187941
C46	C	1.077454	0.312439	0.687941
C47	C	0.643195	-0.187570	0.187925
C48	C	1.143195	0.312430	0.687925
N49	N	0.441304	-0.212818	0.177333
N50	N	0.941304	0.287182	0.677333
N51	N	0.378853	-0.212812	0.177349
N52	N	0.878853	0.287188	0.677349
C53	C	0.346494	-0.216312	0.216674
C54	C	0.846494	0.283688	0.716674
N55	N	0.378947	-0.219826	0.255982
N56	N	0.878947	0.280174	0.755982
N57	N	0.441404	-0.219834	0.255964
N58	N	0.941404	0.280166	0.755964
C59	C	0.473284	-0.216328	0.216641
C60	C	0.973284	0.283672	0.716641
C61	C	0.242332	-0.245075	0.245381
C62	C	0.742332	0.254925	0.745381
C63	C	0.176588	-0.245061	0.245402
C64	C	0.676588	0.254939	0.745402
C65	C	0.176611	-0.187504	0.188042
C66	C	0.676611	0.312496	0.688042
C67	C	0.242354	-0.187516	0.188025
C68	C	0.742354	0.312484	0.688025
C69	C	0.275210	-0.216304	0.216694
C70	C	0.775210	0.283696	0.716694
C71	C	0.909458	-0.333036	0.216635
C72	C	1.409458	0.166964	0.716635
C73	C	0.909467	-0.382970	0.216640
C74	C	1.409467	0.117030	0.716640
C75	C	0.949901	-0.692593	0.187978
C76	C	1.449901	-0.192593	0.687978
C77	C	0.949978	-0.880266	0.187996
C78	C	1.449978	-0.380266	0.687996
O79	O	0.984267	-0.904514	0.163609
O80	O	1.484267	-0.404514	0.663609
N81	N	0.909702	-0.903755	0.216691
N82	N	1.409702	-0.403755	0.716691
C83	C	0.869406	-0.880323	0.245386
C84	C	1.369406	-0.380323	0.745386
O85	O	0.835155	-0.904608	0.269796
O86	O	1.335155	-0.404608	0.769796
C87	C	0.869332	-0.692651	0.245370
C88	C	1.369332	-0.192651	0.745370
C89	C	0.909606	-0.669164	0.216670
C90	C	1.409606	-0.169164	0.716670
C91	C	0.990172	-0.669107	0.159280
C92	C	1.490172	-0.169107	0.659280
C93	C	0.990150	-0.622191	0.159275
C94	C	1.490150	-0.122191	0.659275
C95	C	0.949856	-0.598762	0.187966
C96	C	1.449856	-0.098762	0.687966
C97	C	0.909584	-0.622249	0.216664
C98	C	1.409584	-0.122249	0.716664
C99	C	0.829040	-0.669220	0.274067
C100	C	1.329040	-0.169220	0.774067
C101	C	0.829026	-0.622299	0.274062
C102	C	1.329026	-0.122299	0.774062
C103	C	0.869300	-0.598812	0.245361
C104	C	1.369300	-0.098812	0.745361
C105	C	0.869268	-0.551905	0.245350
C106	C	1.369268	-0.051905	0.745350
N107	N	0.909544	-0.528416	0.216655
N108	N	1.409544	-0.028416	0.716655
C109	C	0.949838	-0.551845	0.187963
C110	C	1.449838	-0.051845	0.687963
C111	C	0.869447	-0.978854	0.245391
C112	C	1.369447	-0.478854	0.745391
C113	C	0.869464	-1.025772	0.245395
C114	C	1.369464	-0.525772	0.745395
C115	C	0.950038	-1.025711	0.188005
C116	C	1.450038	-0.525711	0.688005
C117	C	0.950016	-0.978793	0.188000
C118	C	1.450016	-0.478793	0.688000
C119	C	0.909723	-0.955365	0.216696
C120	C	1.409723	-0.455365	0.716696
C121	C	0.949788	-0.453319	0.187953
C122	C	1.449788	0.046681	0.687953
C123	C	0.949761	-0.406399	0.187948
C124	C	1.449761	0.093601	0.687948
C125	C	0.869190	-0.406463	0.245339
C126	C	1.369190	0.093537	0.745339
C127	C	0.869215	-0.453379	0.245343
C128	C	1.369215	0.046621	0.745343
C129	C	0.909519	-0.476805	0.216648
C130	C	1.409519	0.023195	0.716648
O131	O	0.835003	-0.527628	0.269728
O132	O	1.335003	-0.027628	0.769728
O133	O	0.984094	-0.527551	0.163563
O134	O	1.484094	-0.027551	0.663563
C135	C	0.949923	-0.739509	0.187984
C136	C	1.449923	-0.239509	0.687984
C137	C	0.909651	-0.762995	0.216682
C138	C	1.409651	-0.262995	0.716682
C139	C	0.869357	-0.739567	0.245373
C140	C	1.369357	-0.239567	0.745373
C141	C	0.909669	-0.809913	0.216685
C142	C	1.409669	-0.309913	0.716685
C143	C	0.949963	-0.833342	0.187993
C144	C	1.449963	-0.333342	0.687993
C145	C	0.990239	-0.809853	0.159298
C146	C	1.490239	-0.309853	0.659298
C147	C	0.990217	-0.762937	0.159292
C148	C	1.490217	-0.262937	0.659292
C149	C	0.829080	-0.763056	0.274069
C150	C	1.329080	-0.263056	0.774069
C151	C	0.829105	-0.809971	0.274072
C152	C	1.329105	-0.309971	0.774072
C153	C	0.869399	-0.833400	0.245380
C154	C	1.369399	-0.333400	0.745380
C155	C	1.073762	-0.216290	0.216709
C156	C	1.573762	0.283710	0.716709
C157	C	1.143730	-0.216280	0.216731
C158	C	1.643730	0.283720	0.716731
C159	C	0.909593	-0.216322	0.333835
C160	C	1.409593	0.283678	0.833835
C161	C	0.909602	-0.216325	0.383770
C162	C	1.409602	0.283675	0.883770
C163	C	0.909702	-0.099135	0.216689
C164	C	1.409702	0.400865	0.716689
C165	C	0.909758	-0.049200	0.216703
C166	C	1.409758	0.450800	0.716703
C167	C	0.909586	-0.216273	0.099934
C168	C	1.409586	0.283727	0.599934
C169	C	0.909699	-0.216142	0.050000
C170	C	1.409699	0.283858	0.550000
C171	C	0.869352	-0.244962	0.740336
C172	C	1.369352	0.255038	1.240336
C173	C	0.869330	-0.245013	0.552663
C174	C	1.369330	0.254987	1.052663
O175	O	0.835046	-0.269446	0.528381
O176	O	1.335046	0.230554	1.028381
N177	N	0.909616	-0.216284	0.529215
N178	N	1.409616	0.283716	1.029215
C179	C	0.949908	-0.187537	0.552688
C180	C	1.449908	0.312463	1.052688
O181	O	0.984169	-0.163099	0.528437
O182	O	1.484169	0.336901	1.028437
C183	C	0.949927	-0.187483	0.740360
C184	C	1.449927	0.312517	1.240360
C185	C	0.909643	-0.216218	0.763806
C186	C	1.409643	0.283782	1.263806
C187	C	0.829070	-0.273694	0.763782
C188	C	1.329070	0.226306	1.263782
C189	C	0.829079	-0.273682	0.810698
C190	C	1.329079	0.226318	1.310698
C191	C	0.869369	-0.244939	0.834167
C192	C	1.369369	0.255061	1.334167
C193	C	0.909651	-0.216207	0.810721
C194	C	1.409651	0.283793	1.310721
C195	C	0.990216	-0.158735	0.763832
C196	C	1.490216	0.341265	1.263832
C197	C	0.990216	-0.158723	0.810753
C198	C	1.490216	0.341277	1.310753
C199	C	0.949931	-0.187458	0.834199
C200	C	1.449931	0.312542	1.334199
C201	C	0.949950	-0.187452	0.881106
C202	C	1.449950	0.312548	1.381106
N203	N	0.909663	-0.216181	0.904555
N204	N	1.409663	0.283819	1.404555
C205	C	0.869373	-0.244925	0.881085
C206	C	1.369373	0.255075	1.381085
C207	C	0.949896	-0.187568	0.454157
C208	C	1.449896	0.312432	0.954157
C209	C	0.949893	-0.187582	0.407239
C210	C	1.449893	0.312418	0.907239
C211	C	0.869313	-0.245058	0.407218
C212	C	1.369313	0.254942	0.907218
C213	C	0.869320	-0.245046	0.454137
C214	C	1.369320	0.254954	0.954137
C215	C	0.909610	-0.216298	0.477605
C216	C	1.409610	0.283702	0.977605
C217	C	0.869394	-0.244899	0.979611
C218	C	1.369394	0.255101	1.479611
C219	C	0.869408	-0.244886	1.026531
C220	C	1.369408	0.255114	1.526531
C221	C	0.949985	-0.187409	1.026548
C222	C	1.449985	0.312591	1.526548
C223	C	0.949974	-0.187423	0.979632
C224	C	1.449974	0.312577	1.479632
C225	C	0.909673	-0.216169	0.956165
C226	C	1.409673	0.283831	1.456165
O227	O	0.984211	-0.163029	0.905417
O228	O	1.484211	0.336971	1.405417
O229	O	0.835107	-0.269352	0.905344
O230	O	1.335107	0.230648	1.405344
C231	C	0.869344	-0.244973	0.693421
C232	C	1.369344	0.255027	1.193421
C233	C	0.909626	-0.216241	0.669975
C234	C	1.409626	0.283759	1.169975
C235	C	0.949916	-0.187498	0.693445
C236	C	1.449916	0.312502	1.193445
C237	C	0.909622	-0.216255	0.623057
C238	C	1.409622	0.283745	1.123057
C239	C	0.869331	-0.244999	0.599588
C240	C	1.369331	0.255001	1.099588
C241	C	0.829045	-0.273728	0.623036
C242	C	1.329045	0.226272	1.123036
C243	C	0.829053	-0.273717	0.669951
C244	C	1.329053	0.226283	1.169951
C245	C	0.990203	-0.158768	0.669996
C246	C	1.490203	0.341232	1.169996
C247	C	0.990191	-0.158782	0.623081
C248	C	1.490191	0.341218	1.123081
C249	C	0.949901	-0.187526	0.599611
C250	C	1.449901	0.312474	1.099611
H251	H	0.149821	-0.268491	0.268761
H252	H	0.649821	0.231509	0.768761
H253	H	0.796241	-0.297134	0.603919
H254	H	1.296241	0.202866	1.103919
H255	H	0.550693	-0.164127	0.164598
H256	H	1.050693	0.335873	0.664598
H257	H	0.836603	-0.268287	1.045618
H258	H	1.336603	0.231713	1.545618
H259	H	0.669963	-0.164138	0.164568
H260	H	1.169963	0.335862	0.664568
H261	H	0.550658	-0.268551	0.268655
H262	H	1.050658	0.231449	0.768655
H263	H	0.269085	-0.268514	0.268727
H264	H	0.769085	0.231486	0.768727
H265	H	0.796273	-0.297080	0.829783
H266	H	1.296273	0.202920	1.329783
H267	H	0.982708	-0.164157	0.473261
H268	H	1.482708	0.335843	0.973261
H269	H	0.149855	-0.164069	0.164700
H270	H	0.649855	0.335931	0.664700
H271	H	0.796249	-0.297115	0.689037
H272	H	1.296249	0.202885	1.189037
H273	H	0.982847	-1.044795	0.164643
H274	H	1.482847	-0.544795	0.664643
H275	H	0.269123	-0.164087	0.164666
H276	H	0.769123	0.335913	0.664666
H277	H	0.982557	-0.387278	0.164575
H278	H	1.482557	0.112722	0.664575
H279	H	0.982609	-0.472387	0.164588
H280	H	1.482609	0.027613	0.664588
H281	H	1.022947	-0.603071	0.135906
H282	H	1.522947	-0.103071	0.635906
H283	H	0.796269	-0.743984	0.297434
H284	H	1.296269	-0.243984	0.797434
H285	H	1.022988	-0.688177	0.135916
H286	H	1.522988	-0.188177	0.635916
H287	H	0.982812	-0.959673	0.164630
H288	H	1.482812	-0.459673	0.664630
H289	H	0.836663	-1.044891	0.268761
H290	H	1.336663	-0.544891	0.768761
H291	H	1.023002	-0.135383	0.603995
H292	H	1.523002	0.364617	1.103995
H293	H	0.836634	-0.959782	0.268760
H294	H	1.336634	-0.459782	0.768760
H295	H	0.836572	-0.268303	0.960510
H296	H	1.336572	0.231697	1.460510
H297	H	0.796241	-0.688335	0.297436
H298	H	1.296241	-0.188335	0.797436
H299	H	0.796215	-0.603226	0.297431
H300	H	1.296215	-0.103226	0.797431
H301	H	0.836422	-0.472503	0.268714
H302	H	1.336422	0.027497	0.768714
H303	H	0.836516	-0.268444	0.473223
H304	H	1.336516	0.231556	0.973223
H305	H	0.836381	-0.387380	0.268699
H306	H	1.336381	0.112620	0.768699
H307	H	1.023012	-0.743818	0.135922
H308	H	1.523012	-0.243818	0.635922
H309	H	1.023046	-0.828937	0.135935
H310	H	1.523046	-0.328937	0.635935
H311	H	0.982703	-0.164188	0.388154
H312	H	1.482703	0.335812	0.888154
H313	H	0.796303	-0.829090	0.297443
H314	H	1.296303	-0.329090	0.797443
H315	H	0.796257	-0.297100	0.744678
H316	H	1.296257	0.202900	1.244678
H317	H	0.982791	-0.164008	1.045665
H318	H	1.482791	0.335992	1.545665
H319	H	0.836508	-0.268462	0.388101
H320	H	1.336508	0.231538	0.888101
H321	H	1.023021	-0.135336	0.744750
H322	H	1.523021	0.364664	1.244750
H323	H	1.023023	-0.135310	0.829859
H324	H	1.523023	0.364690	1.329859
H325	H	0.982782	-0.164028	0.960542
H326	H	1.482782	0.335972	1.460542
H327	H	1.023012	-0.135361	0.689100
H328	H	1.523012	0.364639	1.189100
H329	H	0.669922	-0.268572	0.268621
H330	H	1.169922	0.231428	0.768621
