data_functionalizedCrystal
_audit_creation_method	'MofGen! by Chris Wilmer'
_symmetry_space_group_name_H-M	'P1'
_symmetry_Int_Tables_number	1
_symmetry_cell_setting	triclinic
loop_
_symmetry_equiv_pos_as_xyz
  x,y,z
_cell_length_a	15.944493
_cell_length_b	15.944493
_cell_length_c	14.421503
_cell_angle_alpha	90.010165
_cell_angle_beta	89.992936
_cell_angle_gamma	83.475044
loop_
_atom_site_label
_atom_site_type_symbol
_atom_site_fract_x
_atom_site_fract_y
_atom_site_fract_z
O1	O	1.114537	0.108091	-0.077087
O2	O	0.869978	0.121499	-0.077090
O3	O	0.998961	-0.007484	-0.077096
O4	O	0.985554	0.237075	-0.077081
O5	O	0.998940	-0.007465	0.077127
O6	O	0.869957	0.121518	0.077133
O7	O	1.114516	0.108111	0.077136
Cu8	Cu	0.992234	0.114816	0.091217
Cu9	Cu	0.992260	0.114793	-0.091170
O10	O	0.985532	0.237094	0.077142
C11	C	0.838673	0.120961	0.000021
C12	C	0.745424	0.119318	0.000019
C13	C	0.509649	0.195240	0.000023
C14	C	0.459088	0.154308	0.076065
C15	C	0.574704	0.116273	0.000021
C16	C	0.459114	0.154270	-0.075987
C17	C	0.409795	0.113339	0.000018
C18	C	0.525372	0.075362	0.076125
C19	C	0.525401	0.075336	-0.075995
C20	C	0.474873	0.034346	0.000065
C21	C	0.669704	0.117966	0.000023
C22	C	0.314798	0.111640	0.000023
C23	C	0.998403	-0.038769	0.000011
C24	C	0.996760	-0.132018	-0.000000
C25	C	1.072682	-0.367793	0.000018
C26	C	1.031751	-0.418362	-0.076022
C27	C	0.993716	-0.302738	0.000011
C28	C	1.031711	-0.418320	0.076030
C29	C	0.990781	-0.467647	0.000026
C30	C	0.952805	-0.352079	-0.076092
C31	C	0.952777	-0.352033	0.076029
C32	C	0.911788	-0.402569	-0.000030
C33	C	0.995408	-0.207739	0.000002
C34	C	0.989082	-0.562644	0.000029
C35	C	1.145821	0.108649	0.000023
C36	C	1.239069	0.110292	0.000019
C37	C	0.986091	0.268379	0.000033
C38	C	0.987734	0.361627	0.000038
N39	N	0.992223	0.114832	0.219498
N40	N	0.992278	0.114771	-0.219452
C41	C	0.932570	0.174447	0.469154
C42	C	1.008469	0.190739	0.530959
C43	C	0.992243	0.114812	0.408659
C44	C	0.916364	0.098539	0.530948
C45	C	0.992256	0.114794	0.591381
C46	C	1.068180	0.131141	0.469103
C47	C	0.976025	0.038909	0.469087
C48	C	1.051979	0.055169	0.530864
C49	C	0.992234	0.114824	0.303398
C50	C	0.992273	0.114781	0.696640
H51	H	0.554363	0.042005	-0.140289
H52	H	0.459422	-0.033727	0.000104
H53	H	0.852189	0.084784	0.558116
H54	H	1.065067	-0.447250	0.140312
H55	H	0.882158	0.224919	0.442059
O56	O	0.830630	-0.421158	-0.000036
C57	C	0.737914	-0.530432	0.000608
C58	C	0.829861	-0.509496	0.000644
H59	H	0.737262	-0.601853	0.001138
H60	H	0.703985	-0.502030	0.064834
H61	H	0.704421	-0.502903	-0.064247
H62	H	0.863426	-0.537021	0.065455
H63	H	0.863727	-0.537883	-0.063625
H64	H	0.554198	0.042042	0.140476
O65	O	0.528244	0.276397	0.000277
C66	C	0.515378	0.409721	0.080711
C67	C	0.494274	0.317830	0.080545
H68	H	0.487908	0.443251	0.145591
H69	H	0.586810	0.410287	0.080104
H70	H	0.486988	0.443670	0.016514
H71	H	0.522609	0.283825	0.144731
H72	H	0.422835	0.317324	0.081104
O73	O	1.144761	0.147780	0.436976
C74	C	1.248614	0.246337	0.432739
C75	C	1.161884	0.227580	0.469189
H76	H	1.262477	0.310862	0.458752
H77	H	1.299552	0.195849	0.458723
H78	H	1.247993	0.246205	0.353692
H79	H	1.162423	0.227724	0.548233
H80	H	1.110983	0.278071	0.443134
O81	O	0.913138	-0.317513	0.152817
C82	C	0.909926	-0.312294	0.319784
C83	C	0.954900	-0.351440	0.232890
H84	H	0.943662	-0.339721	0.384545
H85	H	0.911074	-0.240939	0.318738
H86	H	0.841700	-0.327283	0.320394
H87	H	1.023143	-0.336515	0.232224
H88	H	0.953684	-0.422784	0.233970
H89	H	1.022198	0.254920	0.558136
O90	O	0.424509	0.193963	0.152824
C91	C	0.344171	0.181677	0.292727
C92	C	0.383309	0.136652	0.205858
H93	H	0.310837	0.135367	0.335620
H94	H	0.396040	0.206106	0.336074
H95	H	0.296609	0.236920	0.270759
H96	H	0.430863	0.081377	0.227744
H97	H	0.331395	0.112285	0.162533
H98	H	0.430177	0.187627	-0.140266
O99	O	1.153829	-0.349167	-0.000251
C100	C	1.287130	-0.361972	-0.080722
C101	C	1.195257	-0.383130	-0.080525
H102	H	1.320656	-0.389436	-0.145606
H103	H	1.287655	-0.290535	-0.080129
H104	H	1.321111	-0.390333	-0.016529
H105	H	1.161221	-0.354824	-0.144707
H106	H	1.194792	-0.454574	-0.081070
H107	H	1.065108	-0.447323	-0.140308
O108	O	0.913129	-0.317575	-0.152850
C109	C	0.870153	-0.190428	-0.238947
C110	C	0.915116	-0.229396	-0.151989
H111	H	0.871728	-0.119128	-0.238270
H112	H	0.903592	-0.218310	-0.303695
H113	H	0.801791	-0.205001	-0.239221
H114	H	0.983478	-0.214837	-0.151625
H115	H	0.881611	-0.201512	-0.087280
O116	O	1.112358	-0.004919	0.562952
C117	C	1.260532	-0.055665	0.567628
C118	C	1.192240	0.012444	0.531242
H119	H	1.325130	-0.041660	0.541989
H120	H	1.259804	-0.055604	0.646675
H121	H	1.247207	-0.120194	0.541102
H122	H	1.205518	0.077007	0.557700
H123	H	1.192985	0.012310	0.452196
O124	O	0.959472	-0.037600	0.436674
C125	C	0.860759	-0.141269	0.431402
C126	C	0.879402	-0.054603	0.468155
H127	H	0.796032	-0.155052	0.456855
H128	H	0.861474	-0.140721	0.352358
H129	H	0.911008	-0.192227	0.457838
H130	H	0.829174	-0.003597	0.441788
H131	H	0.878718	-0.055223	0.547198
