data_functionalizedCrystal
_audit_creation_method	'MofGen! by Chris Wilmer'
_symmetry_space_group_name_H-M	'P1'
_symmetry_Int_Tables_number	1
_symmetry_cell_setting	triclinic
loop_
_symmetry_equiv_pos_as_xyz
  x,y,z
_cell_length_a	16.974800
_cell_length_b	16.956984
_cell_length_c	15.455313
_cell_angle_alpha	92.464369
_cell_angle_beta	90.973911
_cell_angle_gamma	79.729353
loop_
_atom_site_label
_atom_site_type_symbol
_atom_site_fract_x
_atom_site_fract_y
_atom_site_fract_z
O1	O	1.042454	0.101634	0.001073
O2	O	0.812228	0.113810	-0.015096
O3	O	0.941172	-0.008325	-0.006034
O4	O	0.913509	0.223770	-0.007989
O5	O	0.933800	-0.001370	0.137710
O6	O	0.804856	0.120765	0.128648
O7	O	1.035082	0.108590	0.144817
Cu8	Cu	0.919296	0.115313	0.149858
Cu9	Cu	0.928014	0.107087	-0.020136
O10	O	0.906138	0.230725	0.135755
C11	C	0.779221	0.116697	0.054717
C12	C	0.691855	0.114928	0.048581
C13	C	0.646796	0.117886	0.124056
C14	C	0.564709	0.116211	0.118293
C15	C	0.527680	0.111584	0.037055
C16	C	0.572745	0.108623	-0.038424
C17	C	0.654832	0.110292	-0.032661
C18	C	0.282607	0.106180	0.011416
C19	C	0.200514	0.104513	0.005658
C20	C	0.192484	0.112100	0.162377
C21	C	0.274572	0.113774	0.168133
C22	C	0.319630	0.110809	0.092653
N23	N	0.443773	0.109874	0.031163
N24	N	0.403537	0.112512	0.098546
C25	C	0.938903	-0.034553	0.065938
C26	C	0.943114	-0.123064	0.066233
C27	C	0.872699	-0.155306	0.061283
C28	C	0.876661	-0.238473	0.061564
C29	C	0.951039	-0.289395	0.066788
C30	C	1.021459	-0.257147	0.071740
C31	C	1.017496	-0.173982	0.071465
C32	C	0.970653	-0.539124	0.068159
C33	C	0.974611	-0.622294	0.068431
C34	C	0.829812	-0.603614	0.058257
C35	C	0.825856	-0.520448	0.057978
C36	C	0.896276	-0.488207	0.062934
N37	N	0.955090	-0.374405	0.067072
N38	N	0.892223	-0.403199	0.062656
C39	C	1.068089	0.105702	0.075003
C40	C	1.155455	0.107471	0.081133
C41	C	0.908407	0.256952	0.063782
C42	C	0.904196	0.345463	0.063482
N43	N	0.913170	0.121098	0.269423
N44	N	0.934146	0.101296	-0.139701
C45	C	0.967967	0.069229	0.318668
C46	C	0.963341	0.073612	0.409151
C47	C	0.903921	0.129867	0.450387
C48	C	0.849119	0.181737	0.401135
C49	C	0.853742	0.177350	0.310654
C50	C	0.883967	0.148780	0.720566
C51	C	0.879350	0.153164	0.811054
C52	C	0.993571	0.045037	0.819064
C53	C	0.998192	0.040659	0.728580
C54	C	0.943387	0.092526	0.679336
N55	N	0.899192	0.134349	0.542875
N56	N	0.948113	0.088039	0.586850
H57	H	0.528028	0.118607	0.179753
H58	H	0.839344	0.191014	0.680479
O59	O	0.310420	0.118235	0.247117
C60	C	0.253043	0.120509	0.312499
H61	H	0.200614	0.092986	0.285769
H62	H	0.281478	0.084976	0.369500
H63	H	0.230641	0.185402	0.335098
O64	O	1.046815	-0.671835	0.073623
C65	C	1.049622	-0.716892	0.148542
H66	H	0.986082	-0.720044	0.168980
H67	H	1.083908	-0.780135	0.134144
H68	H	1.081145	-0.686933	0.203081
H69	H	0.800734	0.227538	0.434714
H70	H	1.046576	-0.005149	0.695008
H71	H	0.676937	0.121661	0.190208
O72	O	1.046776	-0.005465	0.866805
C73	C	1.040221	-0.085494	0.844186
H74	H	1.013204	-0.088661	0.776363
H75	H	1.102157	-0.124748	0.845424
H76	H	1.000003	-0.107788	0.892480
H77	H	0.812132	-0.113850	0.057026
H78	H	0.542591	0.104849	-0.104570
O79	O	0.808318	-0.269890	0.056638
C80	C	0.810091	-0.321018	-0.017965
H81	H	0.874817	-0.342789	-0.038320
H82	H	0.781370	-0.374736	-0.003184
H83	H	0.775518	-0.286876	-0.072715
H84	H	0.155788	0.114513	0.223828
H85	H	1.074836	-0.147732	0.075497
O86	O	0.821547	0.207828	0.850972
C87	C	0.774174	0.252678	0.788108
H88	H	0.778715	0.216864	0.723701
H89	H	0.709127	0.265915	0.809793
H90	H	0.796372	0.311520	0.779996
O91	O	0.800473	0.227821	0.262946
C92	C	0.747024	0.278401	0.318741
H93	H	0.775971	0.282522	0.385495
H94	H	0.732187	0.340771	0.291452
H95	H	0.689693	0.252813	0.324393
O96	O	0.761471	-0.635033	0.053338
C97	C	0.763236	-0.686161	-0.021265
H98	H	0.827960	-0.707928	-0.041631
H99	H	0.734522	-0.739881	-0.006479
H100	H	0.728654	-0.652019	-0.076009
O101	O	0.698543	0.107564	-0.106003
C102	C	0.667494	0.173825	-0.156037
H103	H	0.633194	0.223802	-0.112435
H104	H	0.718795	0.196359	-0.188105
H105	H	0.625387	0.154895	-0.208028
H106	H	0.170367	0.100747	-0.060499
O107	O	0.326246	0.103330	-0.061988
C108	C	0.275961	0.098869	-0.134923
H109	H	0.211364	0.124015	-0.116402
H110	H	0.294964	0.135365	-0.188596
H111	H	0.280894	0.033621	-0.158747
O112	O	0.753536	-0.471096	0.052945
C113	C	0.692234	-0.517389	0.048618
H114	H	0.714888	-0.578097	0.077515
H115	H	0.638317	-0.484814	0.086719
H116	H	0.673927	-0.526691	-0.021877
H117	H	1.027995	-0.512884	0.072193
H118	H	1.082019	-0.298615	0.075998
H119	H	1.016355	0.023424	0.285100
O120	O	1.016663	0.023200	0.456859
C121	C	1.070094	-0.027398	0.401061
H122	H	1.072137	0.002165	0.336467
H123	H	1.132472	-0.038101	0.431661
H124	H	1.048880	-0.087173	0.389934
