data_functionalizedCrystal
_audit_creation_method	'MofGen! by Chris Wilmer'
_symmetry_space_group_name_H-M	'P1'
_symmetry_Int_Tables_number	1
_symmetry_cell_setting	triclinic
loop_
_symmetry_equiv_pos_as_xyz
  x,y,z
_cell_length_a	10.967926
_cell_length_b	13.185407
_cell_length_c	10.065875
_cell_angle_alpha	95.783549
_cell_angle_beta	93.120479
_cell_angle_gamma	68.730984
loop_
_atom_site_label
_atom_site_type_symbol
_atom_site_fract_x
_atom_site_fract_y
_atom_site_fract_z
O1	O	1.552157	0.187696	0.251569
O2	O	1.201118	0.190769	0.169004
O3	O	1.436779	0.032932	0.224437
O4	O	1.316495	0.345533	0.196136
O5	O	1.391801	0.063156	0.440845
O6	O	1.156140	0.220993	0.385413
O7	O	1.507178	0.217920	0.467978
Zn8	Zn	1.324518	0.224255	0.461055
Zn9	Zn	1.383779	0.184434	0.175927
O10	O	1.271517	0.375757	0.412545
C11	C	1.134647	0.203374	0.266864
C12	C	1.003598	0.195890	0.236041
C13	C	0.921872	0.208210	0.334405
C14	C	0.786426	0.200475	0.302551
C15	C	1.426485	0.007911	0.335508
C16	C	1.462807	-0.111672	0.344046
C17	C	1.116169	-0.415034	0.262504
C18	C	1.082041	-0.302681	0.254468
C19	C	1.177230	-0.254923	0.276862
C20	C	1.306552	-0.319529	0.307293
C21	C	1.340686	-0.431894	0.315319
C22	C	1.401746	-0.271784	0.329677
C23	C	1.531069	-0.336389	0.360108
C24	C	1.565196	-0.448743	0.368134
C25	C	1.470008	-0.496501	0.345740
C26	C	1.367613	-0.159418	0.321651
C27	C	1.592129	-0.176279	0.374466
C28	C	1.626257	-0.288631	0.382502
C29	C	1.573650	0.205315	0.370115
C30	C	1.704700	0.212798	0.400929
C31	C	1.281812	0.400777	0.301471
C32	C	1.245491	0.520359	0.292924
N33	N	1.284082	0.251432	0.655649
N34	N	1.424226	0.157249	-0.018665
C35	C	1.369705	0.193882	0.743568
C36	C	1.338591	0.214807	0.893417
H37	H	0.973293	0.179613	0.128245
C38	C	1.554389	0.069757	0.933169
N39	N	1.652429	0.003863	0.896890
H40	H	1.262317	-0.106827	0.296875
H41	H	1.242243	0.279568	0.929075
H42	H	1.466041	0.129116	0.707904
C43	C	1.153927	0.338920	0.703825
N44	N	1.055891	0.404817	0.740109
H45	H	0.735000	0.229069	0.508733
C46	C	0.939793	-0.231625	0.220985
N47	N	0.832645	-0.178104	0.195761
H48	H	0.756128	0.184197	0.194748
C49	C	1.139680	-0.131329	0.268037
N50	N	1.111390	-0.038232	0.261398
C51	C	0.962786	0.230242	0.480032
N52	N	0.993591	0.246856	0.589719
C53	C	1.507542	-0.620096	0.354581
N54	N	1.535808	-0.713188	0.361239
H55	H	1.038683	-0.453931	0.244263
H56	H	1.670502	-0.501345	0.392900
C57	C	1.768511	-0.359713	0.415968
N58	N	1.875657	-0.413253	0.441172
C59	C	1.696843	-0.123749	0.399106
N60	N	1.775707	-0.084177	0.417662
