data_functionalizedCrystal
_audit_creation_method	'MofGen! by Chris Wilmer'
_symmetry_space_group_name_H-M	'P1'
_symmetry_Int_Tables_number	1
_symmetry_cell_setting	triclinic
loop_
_symmetry_equiv_pos_as_xyz
  x,y,z
_cell_length_a	10.654550
_cell_length_b	9.730223
_cell_length_c	10.654560
_cell_angle_alpha	90.000433
_cell_angle_beta	95.512905
_cell_angle_gamma	90.003749
loop_
_atom_site_label
_atom_site_type_symbol
_atom_site_fract_x
_atom_site_fract_y
_atom_site_fract_z
O1	O	1.667841	0.114397	-0.176392
O2	O	1.302363	0.114374	-0.193198
O3	O	1.493498	0.114383	-0.002057
O4	O	1.476706	0.114388	-0.367534
O5	O	1.493496	-0.114197	-0.002062
O6	O	1.302361	-0.114205	-0.193203
O7	O	1.667839	-0.114183	-0.176397
Zn8	Zn	1.485099	-0.150486	-0.184801
Zn9	Zn	1.485102	0.150678	-0.184795
O10	O	1.476704	-0.114192	-0.367539
C11	C	1.255564	0.000082	-0.191967
C12	C	1.116120	0.000073	-0.188275
N13	N	1.485106	-0.356023	-0.184805
C14	C	1.036639	0.000095	-0.300816
C15	C	0.905618	0.000118	-0.297339
C16	C	0.933573	0.000105	-0.068771
C17	C	1.064591	0.000071	-0.072249
C18	C	1.088168	0.000097	-0.416842
C19	C	1.008686	0.000120	-0.529392
C20	C	0.877665	0.000143	-0.525916
C21	C	0.826126	0.000144	-0.409889
C22	C	1.569763	-0.427945	-0.100196
C23	C	1.569760	-0.571828	-0.100181
C24	C	1.400439	-0.571854	-0.269394
C25	C	1.400438	-0.427973	-0.269402
C26	C	1.654432	-0.355994	-0.015599
C27	C	1.739096	-0.427916	0.069016
C28	C	1.739093	-0.571799	0.069031
C29	C	1.654425	-0.643760	-0.015568
C30	C	1.714638	0.000113	-0.177629
C31	C	1.854081	0.000130	-0.181321
C32	C	1.492261	0.000096	0.044738
C33	C	1.488564	0.000102	0.184181
N34	N	1.485105	0.356214	-0.184781
C35	C	1.477940	0.000099	-0.414334
C36	C	1.481638	0.000102	-0.553777
C37	C	1.483372	-0.124498	0.380717
C38	C	1.486830	-0.124499	0.249694
C39	C	1.486826	0.124711	0.249696
C40	C	1.483358	0.124711	0.380716
C41	C	1.481651	-0.249107	0.446225
C42	C	1.483386	-0.373717	0.380719
C43	C	1.486845	-0.373718	0.249696
C44	C	1.488568	-0.249109	0.184179
H45	H	1.050657	0.000107	-0.623857
H46	H	1.481937	0.226171	0.434051
H47	H	1.194850	0.000084	-0.419686
O48	O	1.488688	0.259107	0.179042
H49	H	1.575722	0.265081	0.129803
O50	O	0.791931	0.000161	-0.647299
H51	H	0.849779	0.000165	-0.728558
O52	O	0.684810	0.000148	-0.406133
H53	H	0.656313	0.093310	-0.355870
H54	H	0.891599	0.000128	0.025693
H55	H	1.129307	0.000057	0.019392
H56	H	1.654445	-0.238837	-0.015606
O57	O	1.477927	-0.249088	0.587542
H58	H	1.391566	-0.302874	0.611664
H59	H	1.808023	-0.369318	0.137901
O60	O	1.830411	-0.649380	0.160277
H61	H	1.889292	-0.575171	0.219087
O62	O	1.654417	-0.798949	-0.015559
H63	H	1.727513	-0.836877	0.057485
H64	H	1.331507	-0.630453	-0.338272
O65	O	1.309135	-0.350367	-0.360644
H66	H	1.325980	-0.377958	-0.458707
O67	O	1.481542	-0.508114	0.451373
H68	H	1.478864	-0.487185	0.553488
O69	O	1.492299	-0.249101	0.042860
H70	H	1.493220	-0.356679	0.008312
O71	O	1.488724	-0.508108	0.179036
H72	H	1.486958	-0.594750	0.246605
