data_functionalizedCrystal
_audit_creation_method	'MofGen! by Chris Wilmer'
_symmetry_space_group_name_H-M	'P1'
_symmetry_Int_Tables_number	1
_symmetry_cell_setting	triclinic
loop_
_symmetry_equiv_pos_as_xyz
  x,y,z
_cell_length_a	23.532407
_cell_length_b	23.532407
_cell_length_c	22.010155
_cell_angle_alpha	89.999577
_cell_angle_beta	89.996931
_cell_angle_gamma	82.848678
loop_
_atom_site_label
_atom_site_type_symbol
_atom_site_fract_x
_atom_site_fract_y
_atom_site_fract_z
O1	O	0.755264	0.069127	-0.050455
O2	O	0.589400	0.079130	-0.050474
O3	O	0.677334	-0.008803	-0.050453
O4	O	0.667330	0.157060	-0.050476
O5	O	0.677318	-0.008790	0.050597
O6	O	0.589384	0.079143	0.050576
O7	O	0.755248	0.069140	0.050595
Cu8	Cu	0.672315	0.074143	0.059812
Cu9	Cu	0.672333	0.074127	-0.059691
O10	O	0.667314	0.157073	0.050574
C11	C	0.568176	0.078882	0.000049
C12	C	0.504959	0.078116	0.000042
C13	C	0.105856	0.125350	0.000063
C14	C	0.046456	0.124638	0.000067
O15	O	0.009711	0.168424	0.000083
N16	N	0.023830	0.072362	0.000073
C17	C	0.060607	0.020794	0.000082
O18	O	0.035908	-0.023737	0.000088
C19	C	0.120006	0.021506	0.000082
C20	C	0.142629	0.073785	0.000070
C21	C	0.128479	0.177625	0.000051
C22	C	0.187876	0.178336	0.000046
C23	C	0.224649	0.126772	0.000053
C24	C	0.202025	0.074497	0.000065
C25	C	0.156783	-0.030062	0.000096
C26	C	0.216185	-0.029345	0.000097
C27	C	0.238808	0.022934	0.000084
C28	C	0.298194	0.023643	0.000067
N29	N	0.320820	0.075920	0.000061
C30	C	0.284048	0.127484	0.000054
C31	C	-0.064135	0.019302	0.000082
C32	C	-0.123533	0.018589	0.000077
C33	C	-0.137680	0.122434	0.000063
C34	C	-0.078281	0.123146	0.000064
C35	C	-0.041509	0.071578	0.000076
C36	C	0.408784	0.128974	0.000043
C37	C	0.468186	0.129680	0.000035
C38	C	0.482329	0.025836	0.000052
C39	C	0.422932	0.025129	0.000057
C40	C	0.386160	0.076702	0.000054
O41	O	0.334974	-0.020119	0.000054
O42	O	0.308755	0.172007	0.000055
C43	C	0.677071	-0.030013	0.000074
C44	C	0.676305	-0.093230	0.000078
C45	C	0.723539	-0.492333	0.000050
C46	C	0.722827	-0.551733	0.000046
O47	O	0.766613	-0.588478	0.000028
N48	N	0.670551	-0.574359	0.000040
C49	C	0.618983	-0.537582	0.000033
O50	O	0.574452	-0.562281	0.000027
C51	C	0.619695	-0.478182	0.000033
C52	C	0.671974	-0.455560	0.000045
C53	C	0.775814	-0.469710	0.000061
C54	C	0.776525	-0.410313	0.000067
C55	C	0.724961	-0.373540	0.000062
C56	C	0.672685	-0.396164	0.000051
C57	C	0.568127	-0.441406	0.000022
C58	C	0.568844	-0.382004	0.000022
C59	C	0.621123	-0.359381	0.000034
C60	C	0.621832	-0.299995	0.000052
N61	N	0.674109	-0.277368	0.000057
C62	C	0.725673	-0.314141	0.000062
C63	C	0.617491	-0.662324	0.000031
C64	C	0.616778	-0.721722	0.000035
C65	C	0.720623	-0.735869	0.000047
C66	C	0.721335	-0.676470	0.000047
C67	C	0.669767	-0.639698	0.000037
C68	C	0.727163	-0.189405	0.000075
C69	C	0.727869	-0.130003	0.000083
C70	C	0.624025	-0.115860	0.000069
C71	C	0.623318	-0.175257	0.000064
C72	C	0.674891	-0.212029	0.000065
O73	O	0.578070	-0.263215	0.000067
O74	O	0.770196	-0.289433	0.000060
C75	C	0.776472	0.069388	0.000071
C76	C	0.839689	0.070154	0.000073
C77	C	0.667577	0.178283	0.000046
C78	C	0.668343	0.241500	0.000037
N79	N	0.672305	0.074153	0.143865
N80	N	0.672347	0.074112	-0.143744
C81	C	0.711273	0.035196	0.563653
C82	C	0.711275	0.035192	0.627261
O83	O	0.744384	0.002076	0.660160
N84	N	0.672333	0.074115	0.659072
C85	C	0.633382	0.113041	0.627272
O86	O	0.600259	0.146148	0.660170
C87	C	0.633377	0.113042	0.563665
C88	C	0.672326	0.074120	0.531858
C89	C	0.750217	-0.003723	0.531846
C90	C	0.750215	-0.003719	0.468243
C91	C	0.711268	0.035205	0.436447
C92	C	0.672324	0.074125	0.468255
C93	C	0.594424	0.151965	0.531866
C94	C	0.594422	0.151962	0.468256
C95	C	0.633370	0.113040	0.436448
C96	C	0.633374	0.113054	0.372856
N97	N	0.672317	0.074130	0.341045
C98	C	0.711263	0.035206	0.372841
C99	C	0.633395	0.113036	0.760850
C100	C	0.633402	0.113039	0.824455
C101	C	0.711294	0.035188	0.824440
C102	C	0.711290	0.035189	0.760833
C103	C	0.672337	0.074113	0.729039
C104	C	0.711256	0.035220	0.239269
C105	C	0.711252	0.035229	0.175660
C106	C	0.633358	0.113077	0.175681
C107	C	0.633364	0.113070	0.239284
C108	C	0.672315	0.074136	0.271077
O109	O	0.600282	0.146151	0.339916
O110	O	0.744376	0.002100	0.339935
H111	H	-0.059867	0.165717	0.000057
C112	C	0.754095	-0.007589	0.140676
H113	H	0.777285	-0.030775	0.168725
H114	H	0.777685	0.012777	0.115861
H115	H	0.733740	-0.031194	0.115865
C116	C	0.832540	-0.510151	0.000072
H117	H	0.863770	-0.488162	0.000083
H118	H	0.834436	-0.533621	-0.035164
H119	H	0.834415	-0.533613	0.035317
C120	C	0.559273	-0.746603	0.000030
H121	H	0.566228	-0.787246	0.000032
H122	H	0.538062	-0.733957	-0.035210
H123	H	0.538053	-0.733962	0.035271
H124	H	0.781929	-0.035414	0.442349
C125	C	0.560763	-0.621879	0.000032
H126	H	0.529531	-0.643866	0.000034
H127	H	0.558881	-0.598411	-0.035205
H128	H	0.558876	-0.598416	0.035276
C129	C	0.834033	-0.385436	0.000068
H130	H	0.864637	-0.415850	0.000063
H131	H	0.836473	-0.362558	0.035305
H132	H	0.836474	-0.362562	-0.035176
C133	C	0.510620	-0.466281	0.000002
H134	H	0.517572	-0.506924	0.000004
H135	H	0.489416	-0.453632	-0.035242
H136	H	0.489395	-0.453638	0.035240
H137	H	0.742973	0.003516	0.265148
C138	C	0.522786	-0.030880	0.000065
H139	H	0.561400	-0.022964	0.000068
H140	H	0.515965	-0.052342	-0.035167
H141	H	0.515957	-0.052320	0.035315
C142	C	0.793066	-0.046541	0.566811
H143	H	0.816258	-0.069713	0.538750
H144	H	0.772726	-0.070151	0.591630
H145	H	0.816661	-0.026170	0.591617
H146	H	-0.141947	-0.023982	0.000078
C147	C	0.754128	-0.007629	0.725851
H148	H	0.777320	-0.030811	0.753902
H149	H	0.777717	0.012734	0.701032
H150	H	0.733772	-0.031237	0.701044
C151	C	0.785379	-0.105121	0.000093
H152	H	0.815986	-0.135532	0.000088
H153	H	0.787813	-0.082246	0.035333
H154	H	0.787821	-0.082243	-0.035149
C155	C	0.754130	-0.007634	0.859423
H156	H	0.748547	-0.002061	0.901859
H157	H	0.792105	-0.001647	0.849000
H158	H	0.748155	-0.045613	0.848999
H159	H	0.601692	0.144738	0.850348
H160	H	0.763906	-0.658056	0.000056
C161	C	0.256632	-0.086072	0.000103
H162	H	0.234647	-0.117306	0.000105
H163	H	0.280100	-0.087951	0.035338
H164	H	0.280095	-0.087957	-0.035143
H165	H	0.098544	0.219617	0.000048
H166	H	0.486602	0.172255	0.000025
C167	C	0.590516	0.155886	0.140698
H168	H	0.596091	0.150306	0.098261
H169	H	0.596475	0.193869	0.151117
H170	H	0.552544	0.149883	0.151125
C171	C	0.590552	0.155863	0.725881
H172	H	0.567366	0.179045	0.753940
H173	H	0.566957	0.135502	0.701069
H174	H	0.610905	0.179471	0.701069
H175	H	0.404512	-0.017441	0.000058
H176	H	0.562708	0.183658	0.557755
C177	C	0.212753	0.235844	0.000044
H178	H	0.182339	0.266448	0.000048
H179	H	0.235634	0.238286	-0.035192
H180	H	0.235625	0.238283	0.035289
H181	H	0.562700	0.183658	0.442372
H182	H	0.762610	-0.765821	0.000048
H183	H	-0.034198	-0.022693	0.000086
C184	C	0.590501	0.155861	0.274274
H185	H	0.567297	0.179034	0.246225
H186	H	0.610823	0.179473	0.299105
H187	H	0.566919	0.135461	0.299068
C188	C	0.783892	-0.229845	0.000081
H189	H	0.815123	-0.207856	0.000094
H190	H	0.785787	-0.253311	-0.035157
H191	H	0.785768	-0.253310	0.035324
H192	H	0.526850	-0.352066	0.000013
C193	C	0.368344	0.185703	0.000032
H194	H	0.390333	0.216934	0.000017
H195	H	0.344875	0.187598	0.035269
H196	H	0.344883	0.187578	-0.035213
H197	H	0.580748	-0.193677	0.000071
C198	C	0.567307	-0.075406	0.000059
H199	H	0.536068	-0.097383	0.000055
H200	H	0.565439	-0.051940	-0.035179
H201	H	0.565420	-0.051940	0.035302
H202	H	0.138375	-0.072634	0.000106
C203	C	-0.178138	0.179155	0.000061
H204	H	-0.216753	0.171239	0.000069
H205	H	-0.171314	0.200604	-0.035180
H206	H	-0.171314	0.200607	0.035302
