data_functionalizedCrystal
_audit_creation_method	'MofGen! by Chris Wilmer'
_symmetry_space_group_name_H-M	'P1'
_symmetry_Int_Tables_number	1
_symmetry_cell_setting	triclinic
loop_
_symmetry_equiv_pos_as_xyz
  x,y,z
_cell_length_a	10.654543
_cell_length_b	17.666332
_cell_length_c	10.654550
_cell_angle_alpha	89.993725
_cell_angle_beta	84.483552
_cell_angle_gamma	89.995326
loop_
_atom_site_label
_atom_site_type_symbol
_atom_site_fract_x
_atom_site_fract_y
_atom_site_fract_z
O1	O	-1.667855	0.062867	-0.176361
O2	O	-1.302375	0.062886	-0.193176
O3	O	-1.493518	0.062871	-0.002029
O4	O	-1.476712	0.062882	-0.367508
O5	O	-1.493484	-0.063026	-0.002018
O6	O	-1.302341	-0.063011	-0.193165
O7	O	-1.667821	-0.063030	-0.176350
Cu8	Cu	-1.485078	-0.074516	-0.184757
Cu9	Cu	-1.485118	0.074372	-0.184769
O10	O	-1.476678	-0.063015	-0.367497
C11	C	-1.255560	-0.000060	-0.191938
C12	C	-1.116116	-0.000053	-0.188249
N13	N	-1.485059	-0.179235	-0.184747
C14	C	-1.036631	-0.000050	-0.300793
C15	C	-0.905609	-0.000062	-0.297319
C16	C	-0.933573	-0.000074	-0.068749
C17	C	-1.064591	-0.000068	-0.072224
C18	C	-1.569725	-0.218851	-0.100150
C19	C	-1.569732	-0.298099	-0.100144
C20	C	-1.485086	-0.337727	-0.184757
C21	C	-1.400403	-0.298101	-0.269361
C22	C	-1.400390	-0.218855	-0.269356
N23	N	-1.470067	-0.462142	-0.295748
N24	N	-1.470087	-0.537423	-0.295748
C25	C	-1.485119	-0.576491	-0.184775
N26	N	-1.500155	-0.537436	-0.073798
N27	N	-1.500141	-0.462148	-0.073798
C28	C	-1.485090	-0.423656	-0.184771
C29	C	-1.569797	-0.702037	-0.100164
C30	C	-1.569796	-0.781286	-0.100156
C31	C	-1.400473	-0.781287	-0.269385
C32	C	-1.400469	-0.702039	-0.269381
C33	C	-1.485137	-0.662419	-0.184772
C34	C	-0.714635	-0.000079	-0.177595
C35	C	-0.854077	-0.000070	-0.181301
C36	C	-1.492267	-0.000077	0.044774
C37	C	-1.488575	-0.000075	0.184217
N38	N	-1.485147	0.179091	-0.184769
C39	C	-1.477929	-0.000066	-0.414300
C40	C	-1.481621	-0.000062	-0.553744
C41	C	-1.601117	-0.000081	0.263706
C42	C	-1.597641	-0.000072	0.394726
C43	C	-1.369070	-0.000054	0.366758
C44	C	-1.372548	-0.000058	0.235740
H45	H	-1.078578	-0.000043	-0.395268
H46	H	-0.891604	-0.000092	0.025715
H47	H	-1.129313	-0.000072	0.019428
H48	H	-1.695593	-0.000094	0.221761
H49	H	-0.840896	-0.000062	-0.388964
H50	H	-1.331531	-0.669782	-0.338274
H51	H	-1.274605	-0.000041	0.408724
H52	H	-1.638736	-0.669777	-0.031266
H53	H	-1.331547	-0.813552	-0.338274
H54	H	-1.638664	-0.186595	-0.031253
H55	H	-1.638737	-0.813542	-0.031260
H56	H	-1.638680	-0.330361	-0.031251
H57	H	-1.689284	-0.000075	0.459442
H58	H	-1.280897	-0.000051	0.171016
H59	H	-1.331481	-0.330371	-0.338253
H60	H	-1.331443	-0.186599	-0.338247
