data_functionalizedCrystal
_audit_creation_method	'MofGen! by Chris Wilmer'
_symmetry_space_group_name_H-M	'P1'
_symmetry_Int_Tables_number	1
_symmetry_cell_setting	triclinic
loop_
_symmetry_equiv_pos_as_xyz
  x,y,z
_cell_length_a	12.827893
_cell_length_b	14.908520
_cell_length_c	12.827885
_cell_angle_alpha	93.263516
_cell_angle_beta	89.980728
_cell_angle_gamma	93.320575
loop_
_atom_site_label
_atom_site_type_symbol
_atom_site_fract_x
_atom_site_fract_y
_atom_site_fract_z
Zn1	Zn	1.573615	-0.359115	-0.614817
Zn2	Zn	1.563402	-0.509998	-0.450147
Zn3	Zn	1.398853	-0.359159	-0.440093
Zn4	Zn	1.388739	-0.509931	-0.624843
O5	O	1.481152	-0.434551	-0.532475
O6	O	1.718495	-0.379139	-0.592984
O7	O	1.541533	-0.490036	-0.302580
O8	O	1.430542	-0.232908	-0.454867
O9	O	1.710992	-0.489993	-0.472002
O10	O	1.558939	-0.232876	-0.583236
O11	O	1.420640	-0.379214	-0.295194
O12	O	1.251276	-0.379149	-0.464589
O13	O	1.413304	-0.489879	-0.769746
O14	O	1.243845	-0.489921	-0.600323
O15	O	1.549132	-0.379074	-0.762380
O16	O	1.531726	-0.636234	-0.481724
O17	O	1.403401	-0.636184	-0.610072
C18	C	1.209643	-0.434533	-0.532454
C19	C	1.093489	-0.434548	-0.532471
C20	C	1.038049	-0.489447	-0.599545
C21	C	0.917998	-0.489463	-0.599564
C22	C	1.465386	-0.668943	-0.548100
C23	C	1.458737	-0.769217	-0.554820
C24	C	1.580004	-0.957632	-0.433905
C25	C	1.573760	-1.051849	-0.440215
C26	C	1.440011	-1.051867	-0.573755
C27	C	1.446255	-0.957651	-0.567444
C28	C	1.516253	-0.910537	-0.497516
C29	C	1.522491	-0.816319	-0.491201
C30	C	1.388748	-0.816339	-0.624745
C31	C	1.382504	-0.910555	-0.631056
C32	C	1.753721	-0.434569	-0.532497
C33	C	1.869874	-0.434576	-0.532506
C34	C	1.481229	-0.434464	-0.805039
C35	C	1.481262	-0.434427	-0.921190
C36	C	1.497008	-0.199243	-0.516811
C37	C	1.503765	-0.098969	-0.510137
C38	C	1.548481	-0.379587	-0.969329
C39	C	1.548517	-0.379547	-1.089377
C40	C	1.481140	-0.434572	-0.260966
C41	C	1.481327	-0.434355	-0.144799
H42	H	0.870335	-0.536467	-0.656985
O43	O	1.412631	-0.490463	-1.095578
C44	C	1.272304	-0.604885	-1.114467
C45	C	1.350057	-0.541401	-1.170353
H46	H	1.221678	-0.646071	-1.174897
H47	H	1.317091	-0.652096	-1.066548
H48	H	1.220531	-0.563431	-1.060568
H49	H	1.401849	-0.582781	-1.224304
H50	H	1.305205	-0.494187	-1.218207
O51	O	1.617276	-0.323503	-1.138609
C52	C	1.757528	-0.209012	-1.119715
C53	C	1.679729	-0.272454	-1.063827
H54	H	1.808026	-0.167709	-1.059278
H55	H	1.809420	-0.250413	-1.173547
H56	H	1.712674	-0.161900	-1.167706
H57	H	1.724497	-0.319578	-1.015780
H58	H	1.627837	-0.230996	-1.010058
H59	H	1.079463	-0.536433	-0.656958
H60	H	0.917530	-0.387576	-0.475075
H61	H	1.052076	-0.387555	-0.475065
O62	O	1.635853	-1.097482	-0.378466
C63	C	1.811760	-1.126196	-0.329894
C64	C	1.741546	-1.074455	-0.399871
H65	H	1.897227	-1.107612	-0.347191
H66	H	1.794778	-1.107712	-0.244359
H67	H	1.795245	-1.201628	-0.346379
H68	H	1.758021	-0.999011	-0.383478
H69	H	1.758541	-1.093014	-0.485384
O70	O	1.590571	-0.770689	-0.423252
C71	C	1.722529	-0.780619	-0.291423
C72	C	1.645488	-0.832403	-0.368347
H73	H	1.766935	-0.830492	-0.246996
H74	H	1.780138	-0.736461	-0.336444
H75	H	1.677489	-0.736557	-0.233827
H76	H	1.690442	-0.876514	-0.425961
H77	H	1.587880	-0.876504	-0.323258
O78	O	1.371888	-1.097539	-0.641627
C79	C	1.192183	-1.126524	-0.694103
C80	C	1.269217	-1.074731	-0.617180
H81	H	1.109155	-1.108117	-0.674352
H82	H	1.211635	-1.107909	-0.777152
H83	H	1.198730	-1.201948	-0.687710
H84	H	1.262712	-0.999295	-0.623480
H85	H	1.249742	-1.093421	-0.534164
H86	H	1.325517	-0.948929	-0.687992
O87	O	1.647930	-0.911958	-0.365837
C88	C	1.700607	-0.883154	-0.186189
C89	C	1.623630	-0.934951	-0.263166
H90	H	1.680975	-0.901710	-0.103161
H91	H	1.783657	-0.901616	-0.205759
H92	H	1.694133	-0.807730	-0.192662
H93	H	1.630011	-1.010386	-0.256735
H94	H	1.540612	-0.916414	-0.243573
H95	H	1.336834	-0.777983	-0.676539
H96	H	1.606000	-0.332662	-0.921668
H97	H	1.423733	-0.481343	-0.968851
