data_functionalizedCrystal
_audit_creation_method	'MofGen! by Chris Wilmer'
_symmetry_space_group_name_H-M	'P1'
_symmetry_Int_Tables_number	1
_symmetry_cell_setting	triclinic
loop_
_symmetry_equiv_pos_as_xyz
  x,y,z
_cell_length_a	15.944551
_cell_length_b	15.944493
_cell_length_c	13.596369
_cell_angle_alpha	89.999885
_cell_angle_beta	89.999164
_cell_angle_gamma	83.486891
loop_
_atom_site_label
_atom_site_type_symbol
_atom_site_fract_x
_atom_site_fract_y
_atom_site_fract_z
O1	O	1.114502	0.108336	-0.081676
O2	O	1.364502	0.358336	0.168324
O3	O	1.614502	0.608336	0.418324
O4	O	1.864502	0.858336	0.668324
O5	O	0.869950	0.121693	-0.081699
O6	O	1.119950	0.371693	0.168301
O7	O	1.369950	0.621693	0.418301
O8	O	1.619950	0.871693	0.668301
O9	O	0.998930	-0.007263	-0.081695
O10	O	1.248930	0.242737	0.168305
O11	O	1.498930	0.492737	0.418305
O12	O	1.748930	0.742737	0.668305
O13	O	0.985523	0.237293	-0.081680
O14	O	1.235523	0.487293	0.168320
O15	O	1.485523	0.737293	0.418320
O16	O	1.735523	0.987293	0.668320
O17	O	0.998917	-0.007270	0.081888
O18	O	1.248917	0.242730	0.331888
O19	O	1.498917	0.492730	0.581888
O20	O	1.748917	0.742730	0.831888
O21	O	0.869937	0.121686	0.081884
O22	O	1.119937	0.371686	0.331884
O23	O	1.369937	0.621686	0.581884
O24	O	1.619937	0.871686	0.831884
O25	O	1.114490	0.108330	0.081907
O26	O	1.364490	0.358330	0.331907
O27	O	1.614490	0.608330	0.581907
O28	O	1.864490	0.858330	0.831907
Zn29	Zn	0.992211	0.115007	0.107868
Zn30	Zn	1.242211	0.365007	0.357868
Zn31	Zn	1.492211	0.615007	0.607868
Zn32	Zn	1.742211	0.865007	0.857868
Zn33	Zn	0.992228	0.115016	-0.107660
Zn34	Zn	1.242228	0.365016	0.142340
Zn35	Zn	1.492228	0.615016	0.392340
Zn36	Zn	1.742228	0.865016	0.642340
O37	O	0.985510	0.237286	0.081903
O38	O	1.235510	0.487286	0.331903
O39	O	1.485510	0.737286	0.581903
O40	O	1.735510	0.987286	0.831903
C41	C	0.838650	0.121135	0.000090
C42	C	1.088650	0.371135	0.250090
C43	C	1.338650	0.621135	0.500090
C44	C	1.588650	0.871135	0.750090
C45	C	0.745404	0.119473	0.000080
C46	C	0.995404	0.369473	0.250080
C47	C	1.245404	0.619473	0.500080
C48	C	1.495404	0.869473	0.750080
C49	C	0.530565	0.035566	0.000094
C50	C	0.780565	0.285566	0.250094
C51	C	1.030565	0.535566	0.500094
C52	C	1.280565	0.785566	0.750094
C53	C	0.469543	0.074533	-0.080558
C54	C	0.719543	0.324533	0.169442
C55	C	0.969543	0.574533	0.419442
C56	C	1.219543	0.824533	0.669442
C57	C	0.574679	0.116465	0.000092
C58	C	0.824679	0.366465	0.250092
C59	C	1.074679	0.616465	0.500092
C60	C	1.324679	0.866465	0.750092
C61	C	0.469553	0.074545	0.080721
C62	C	0.719553	0.324545	0.330721
C63	C	0.969553	0.574545	0.580721
C64	C	1.219553	0.824545	0.830721
C65	C	0.409767	0.113555	0.000107
C66	C	0.659767	0.363555	0.250107
C67	C	0.909767	0.613555	0.500107
C68	C	1.159767	0.863555	0.750107
C69	C	0.514885	0.155454	-0.080628
C70	C	0.764885	0.405454	0.169372
C71	C	1.014885	0.655454	0.419372
C72	C	1.264885	0.905454	0.669372
C73	C	0.514901	0.155456	0.080725
C74	C	0.764901	0.405456	0.330725
C75	C	1.014901	0.655456	0.580725
C76	C	1.264901	0.905456	0.830725
C77	C	0.453897	0.194481	0.000053
C78	C	0.703897	0.444481	0.250053
C79	C	0.953897	0.694481	0.500053
C80	C	1.203897	0.944481	0.750053
C81	C	0.669681	0.118140	0.000082
C82	C	0.919681	0.368140	0.250082
C83	C	1.169681	0.618140	0.500082
C84	C	1.419681	0.868140	0.750082
C85	C	0.314766	0.111886	0.000110
C86	C	0.564766	0.361886	0.250110
C87	C	0.814766	0.611886	0.500110
C88	C	1.064766	0.861886	0.750110
C89	C	0.998375	-0.038562	0.000092
C90	C	1.248375	0.211438	0.250092
C91	C	1.498375	0.461438	0.500092
C92	C	1.748375	0.711438	0.750092
C93	C	0.996733	-0.131810	0.000080
C94	C	1.246733	0.118190	0.250080
C95	C	1.496733	0.368190	0.500080
C96	C	1.746733	0.618190	0.750080
C97	C	1.072653	-0.367570	0.000105
C98	C	1.322653	-0.117570	0.250105
C99	C	1.572653	0.132430	0.500105
C100	C	1.822653	0.382430	0.750105
C101	C	1.031718	-0.418135	-0.080553
C102	C	1.281718	-0.168135	0.169447
C103	C	1.531718	0.081865	0.419447
C104	C	1.781718	0.331865	0.669447
C105	C	0.993688	-0.302531	0.000092
C106	C	1.243688	-0.052531	0.250092
C107	C	1.493688	0.197469	0.500092
C108	C	1.743688	0.447469	0.750092
C109	C	1.031687	-0.418118	0.080727
C110	C	1.281687	-0.168118	0.330727
C111	C	1.531687	0.081882	0.580727
C112	C	1.781687	0.331882	0.830727
C113	C	0.990754	-0.467441	0.000107
C114	C	1.240754	-0.217441	0.250107
C115	C	1.490754	0.032559	0.500107
C116	C	1.740754	0.282559	0.750107
C117	C	0.952775	-0.351868	-0.080633
C118	C	1.202775	-0.101868	0.169367
C119	C	1.452775	0.148132	0.419367
C120	C	1.702775	0.398132	0.669367
C121	C	0.952756	-0.351847	0.080719
C122	C	1.202756	-0.101847	0.330719
C123	C	1.452756	0.148153	0.580719
C124	C	1.702756	0.398153	0.830719
C125	C	0.911763	-0.402379	0.000041
C126	C	1.161763	-0.152379	0.250041
C127	C	1.411763	0.097621	0.500041
C128	C	1.661763	0.347621	0.750041
C129	C	0.995381	-0.207531	0.000082
C130	C	1.245381	0.042469	0.250082
C131	C	1.495381	0.292469	0.500082
C132	C	1.745381	0.542469	0.750082
C133	C	0.989055	-0.562438	0.000110
C134	C	1.239055	-0.312438	0.250110
C135	C	1.489055	-0.062438	0.500110
C136	C	1.739055	0.187562	0.750110
C137	C	1.145790	0.108887	0.000117
C138	C	1.395790	0.358887	0.250117
C139	C	1.645790	0.608887	0.500117
C140	C	1.895790	0.858887	0.750117
C141	C	1.239036	0.110550	0.000120
C142	C	1.489036	0.360550	0.250120
C143	C	1.739036	0.610550	0.500120
C144	C	1.989036	0.860550	0.750120
C145	C	0.986064	0.268584	0.000114
C146	C	1.236064	0.518584	0.250114
C147	C	1.486064	0.768584	0.500114
C148	C	1.736064	1.018584	0.750114
C149	C	0.987707	0.361833	0.000120
C150	C	1.237707	0.611833	0.250120
C151	C	1.487707	0.861833	0.500120
C152	C	1.737707	1.111833	0.750120
N153	N	0.992206	0.115000	0.254960
N154	N	1.242206	0.365000	0.504960
N155	N	1.492206	0.615000	0.754960
N156	N	1.742206	0.865000	1.004960
N157	N	0.992240	0.115016	-0.254751
N158	N	1.242240	0.365016	-0.004751
N159	N	1.492240	0.615016	0.245249
N160	N	1.742240	0.865016	0.495249
C161	C	0.992227	0.115017	0.656251
C162	C	1.242227	0.365017	0.906251
C163	C	1.492227	0.615017	1.156251
C164	C	1.742227	0.865017	1.406251
C165	C	0.992219	0.115015	0.544599
C166	C	1.242219	0.365015	0.794599
C167	C	1.492219	0.615015	1.044599
C168	C	1.742219	0.865015	1.294599
C169	C	0.992217	0.115009	0.455609
C170	C	1.242217	0.365009	0.705609
C171	C	1.492217	0.615009	0.955609
C172	C	1.742217	0.865009	1.205609
C173	C	0.992208	0.115006	0.343950
C174	C	1.242208	0.365006	0.593950
C175	C	1.492208	0.615006	0.843950
C176	C	1.742208	0.865006	1.093950
H177	H	0.535020	0.189641	0.148918
H178	H	0.785020	0.439641	0.398918
H179	H	1.035020	0.689641	0.648918
H180	H	1.285020	0.939641	0.898918
H181	H	0.843692	-0.417845	-0.000009
H182	H	1.093692	-0.167845	0.249991
H183	H	1.343692	0.082155	0.499991
H184	H	1.593692	0.332155	0.749991
H185	H	1.140671	-0.351942	0.000031
H186	H	1.390671	-0.101942	0.250031
H187	H	1.640671	0.148058	0.500031
H188	H	1.890671	0.398058	0.750031
H189	H	0.919431	-0.322889	0.148907
H190	H	1.169431	-0.072889	0.398907
H191	H	1.419431	0.177111	0.648907
H192	H	1.669431	0.427111	0.898907
H193	H	0.919452	-0.323045	-0.148896
H194	H	1.169452	-0.073045	0.101104
H195	H	1.419452	0.176955	0.351104
H196	H	1.669452	0.426955	0.601104
H197	H	0.449468	0.040310	0.148904
H198	H	0.699468	0.290310	0.398904
H199	H	0.949468	0.540310	0.648904
H200	H	1.199468	0.790310	0.898904
H201	H	0.563912	-0.031574	-0.000010
H202	H	0.813912	0.218426	0.249990
H203	H	1.063912	0.468426	0.499990
H204	H	1.313912	0.718426	0.749990
H205	H	0.449445	0.040319	-0.148749
H206	H	0.699445	0.290319	0.101251
H207	H	0.949445	0.540319	0.351251
H208	H	1.199445	0.790319	0.601251
H209	H	1.065046	-0.447052	0.148913
H210	H	1.315046	-0.197052	0.398913
H211	H	1.565046	0.052948	0.648913
H212	H	1.815046	0.302948	0.898913
H213	H	0.534871	0.189649	-0.148887
H214	H	0.784871	0.439649	0.101113
H215	H	1.034871	0.689649	0.351113
H216	H	1.284871	0.939649	0.601113
H217	H	0.420724	0.261690	0.000012
H218	H	0.670724	0.511690	0.250012
H219	H	0.920724	0.761690	0.500012
H220	H	1.170724	1.011690	0.750012
H221	H	1.065071	-0.447078	-0.148738
H222	H	1.315071	-0.197078	0.101262
H223	H	1.565071	0.052922	0.351262
H224	H	1.815071	0.302922	0.601262
