data_functionalizedCrystal
_audit_creation_method	'MofGen! by Chris Wilmer'
_symmetry_space_group_name_H-M	'P1'
_symmetry_Int_Tables_number	1
_symmetry_cell_setting	triclinic
loop_
_symmetry_equiv_pos_as_xyz
  x,y,z
_cell_length_a	15.944499
_cell_length_b	15.944493
_cell_length_c	14.421503
_cell_angle_alpha	89.991648
_cell_angle_beta	90.010077
_cell_angle_gamma	83.476327
loop_
_atom_site_label
_atom_site_type_symbol
_atom_site_fract_x
_atom_site_fract_y
_atom_site_fract_z
O1	O	1.114533	0.108119	0.077155
O2	O	1.614533	0.608119	0.577155
O3	O	0.869975	0.121521	0.077143
O4	O	1.369975	0.621521	0.577143
O5	O	0.998958	-0.007460	0.077157
O6	O	1.498958	0.492540	0.577157
O7	O	0.985551	0.237099	0.077141
O8	O	1.485551	0.737099	0.577141
O9	O	0.998937	-0.007445	-0.077066
O10	O	1.498937	0.492555	0.422934
O11	O	0.869955	0.121535	-0.077080
O12	O	1.369955	0.621535	0.422920
O13	O	1.114513	0.108134	-0.077068
O14	O	1.614513	0.608134	0.422932
Cu15	Cu	0.992232	0.114836	-0.091156
Cu16	Cu	1.492232	0.614836	0.408844
Cu17	Cu	0.992256	0.114818	0.091231
Cu18	Cu	1.492256	0.614818	0.591231
O19	O	0.985530	0.237114	-0.077082
O20	O	1.485530	0.737114	0.422918
C21	C	0.838670	0.120979	0.000030
C22	C	1.338670	0.620979	0.500030
C23	C	0.745422	0.119334	0.000026
C24	C	1.245422	0.619334	0.500026
C25	C	0.453871	0.194269	0.000035
C26	C	0.953871	0.694269	0.500035
C27	C	0.514918	0.155309	0.076080
C28	C	1.014918	0.655309	0.576080
C29	C	0.409787	0.113358	0.000048
C30	C	0.909787	0.613358	0.500048
C31	C	0.514884	0.155301	-0.075973
C32	C	1.014884	0.655301	0.424027
C33	C	0.574695	0.116299	0.000036
C34	C	1.074695	0.616299	0.500036
C35	C	0.469606	0.074376	0.076155
C36	C	0.969606	0.574376	0.576155
C37	C	0.469565	0.074380	-0.075965
C38	C	0.969565	0.574380	0.424035
C39	C	0.530595	0.035361	0.000098
C40	C	1.030595	0.535361	0.500098
C41	C	0.314787	0.111666	0.000056
C42	C	0.814787	0.611666	0.500056
C43	C	0.669694	0.117984	0.000035
C44	C	1.169694	0.617984	0.500035
C45	C	0.998400	-0.038747	0.000049
C46	C	1.498400	0.461253	0.500049
C47	C	0.996757	-0.131995	0.000061
C48	C	1.496757	0.368005	0.500061
C49	C	1.072679	-0.367769	0.000047
C50	C	1.572679	0.132231	0.500047
C51	C	1.031747	-0.418337	0.076085
C52	C	1.531747	0.081663	0.576085
C53	C	0.993713	-0.302716	0.000050
C54	C	1.493713	0.197284	0.500050
C55	C	1.031709	-0.418299	-0.075967
C56	C	1.531709	0.081701	0.424033
C57	C	0.990778	-0.467625	0.000034
C58	C	1.490778	0.032375	0.500034
C59	C	0.952802	-0.352055	0.076150
C60	C	1.452802	0.147945	0.576150
C61	C	0.952775	-0.352013	-0.075971
C62	C	1.452775	0.147987	0.424029
C63	C	0.911785	-0.402548	0.000086
C64	C	1.411785	0.097452	0.500086
C65	C	0.995405	-0.207716	0.000059
C66	C	1.495405	0.292284	0.500059
C67	C	0.989079	-0.562622	0.000031
C68	C	1.489079	-0.062622	0.500031
C69	C	1.145818	0.108675	0.000047
C70	C	1.645818	0.608675	0.500047
C71	C	1.239066	0.110320	0.000057
C72	C	1.739066	0.610320	0.500057
C73	C	0.986088	0.268401	0.000027
C74	C	1.486088	0.768401	0.500027
C75	C	0.987731	0.361650	0.000022
C76	C	1.487731	0.861650	0.500022
N77	N	0.992221	0.114848	-0.219437
N78	N	1.492221	0.614848	0.280563
C79	C	0.933071	0.174955	-0.530897
C80	C	1.433071	0.674955	-0.030897
C81	C	0.916091	0.099287	-0.469065
C82	C	1.416091	0.599287	0.030935
C83	C	0.992256	0.114814	-0.591326
C84	C	1.492256	0.614814	-0.091326
C85	C	1.009180	0.190497	-0.469065
C86	C	1.509180	0.690497	0.030935
C87	C	0.992236	0.114835	-0.408605
C88	C	1.492236	0.614835	0.091395
C89	C	0.975237	0.039108	-0.530855
C90	C	1.475237	0.539108	-0.030855
C91	C	1.068359	0.130367	-0.530860
C92	C	1.568359	0.630367	-0.030860
C93	C	1.051410	0.054644	-0.469056
C94	C	1.551410	0.554644	0.030944
C95	C	0.992265	0.114804	-0.696588
C96	C	1.492265	0.614804	-0.196588
C97	C	0.992228	0.114837	-0.303346
C98	C	1.492228	0.614837	0.196654
N99	N	0.992274	0.114800	0.219512
N100	N	1.492274	0.614800	0.719512
H101	H	0.449447	0.040192	-0.140252
H102	H	0.949447	0.540192	0.359748
H103	H	1.065065	-0.447230	-0.140247
H104	H	1.565065	0.052770	0.359753
N105	N	0.821627	-0.423050	0.000162
N106	N	1.321627	0.076950	0.500162
H107	H	0.781977	-0.368943	0.000744
H108	H	1.281977	0.131057	0.500744
H109	H	0.811530	-0.457425	0.057078
H110	H	1.311530	0.042575	0.557078
H111	H	1.101455	0.003739	-0.442075
H112	H	1.601455	0.503739	0.057925
N113	N	0.541463	0.200652	-0.161127
N114	N	1.041463	0.700652	0.338873
H115	H	0.513264	0.260667	-0.161060
H116	H	1.013264	0.760667	0.338940
H117	H	0.524161	0.170639	-0.218512
H118	H	1.024161	0.670639	0.281488
N119	N	1.075923	-0.456705	0.161241
N120	N	1.575923	0.043295	0.661241
H121	H	1.097597	-0.410747	0.199605
H122	H	1.597597	0.089253	0.699605
H123	H	1.124821	-0.498885	0.141768
H124	H	1.624821	0.001115	0.641768
H125	H	0.420527	0.261416	0.000104
H126	H	0.920527	0.761416	0.500104
H127	H	0.919446	-0.323040	-0.140261
H128	H	1.419446	0.176960	0.359739
N129	N	1.162777	-0.347083	0.000141
N130	N	1.662777	0.152917	0.500141
H131	H	1.192515	-0.371344	0.057636
H132	H	1.692515	0.128656	0.557636
H133	H	1.163203	-0.283793	-0.000482
H134	H	1.663203	0.216207	0.499518
N135	N	0.541550	0.200632	0.161224
N136	N	1.041550	0.700632	0.661224
H137	H	0.581636	0.160860	0.199315
H138	H	1.081636	0.660860	0.699315
H139	H	0.490093	0.220563	0.199513
H140	H	0.990093	0.720563	0.699513
H141	H	1.023514	0.254494	-0.441940
H142	H	1.523514	0.754494	0.058060
H143	H	0.960839	-0.024900	-0.557884
H144	H	1.460839	0.475100	-0.057884
N145	N	0.443174	0.029071	0.161408
N146	N	0.943174	0.529071	0.661408
H147	H	0.379931	0.028241	0.160901
H148	H	0.879931	0.528241	0.660901
H149	H	0.460107	0.059422	0.218722
H150	H	0.960107	0.559422	0.718722
H151	H	0.851724	0.086138	-0.441915
H152	H	1.351724	0.586138	0.058085
N153	N	0.574558	-0.053663	0.000142
N154	N	1.074558	0.446337	0.500142
H155	H	0.558105	-0.084113	0.057602
H156	H	1.058105	0.415887	0.557602
H157	H	0.637687	-0.051997	-0.000442
H158	H	1.137687	0.448003	0.499558
H159	H	0.919481	-0.323235	0.140503
H160	H	1.419481	0.176765	0.640503
N161	N	0.866749	0.242239	-0.566870
N162	N	1.366749	0.742239	-0.066870
H163	H	0.809274	0.230383	-0.544390
H164	H	1.309274	0.730383	-0.044390
H165	H	0.867661	0.242079	-0.636894
H166	H	1.367661	0.742079	-0.136894
N167	N	1.153593	0.147817	-0.566854
N168	N	1.653593	0.647817	-0.066854
H169	H	1.166333	0.205024	-0.544420
H170	H	1.666333	0.705024	-0.044420
H171	H	1.153060	0.147080	-0.636877
H172	H	1.653060	0.647080	-0.136877
