data_functionalizedCrystal
_audit_creation_method	'MofGen! by Chris Wilmer'
_symmetry_space_group_name_H-M	'P1'
_symmetry_Int_Tables_number	1
_symmetry_cell_setting	triclinic
loop_
_symmetry_equiv_pos_as_xyz
  x,y,z
_cell_length_a	10.489741
_cell_length_b	8.559649
_cell_length_c	7.681481
_cell_angle_alpha	94.930900
_cell_angle_beta	84.215067
_cell_angle_gamma	77.158919
loop_
_atom_site_label
_atom_site_type_symbol
_atom_site_fract_x
_atom_site_fract_y
_atom_site_fract_z
O1	O	-1.656827	-0.240139	-0.146313
O2	O	-1.283403	-0.261279	-0.146340
O3	O	-1.503014	-0.018485	-0.146322
O4	O	-1.437216	-0.482933	-0.146331
O5	O	-1.530052	0.011467	0.146538
O6	O	-1.310441	-0.231327	0.146520
O7	O	-1.683864	-0.210187	0.146547
Zn8	Zn	-1.501445	-0.216001	0.193031
Zn9	Zn	-1.465823	-0.255465	-0.192824
O10	O	-1.464253	-0.452981	0.146529
C11	C	-1.249558	-0.244707	0.000087
C12	C	-1.108431	-0.239932	0.000076
C13	C	-1.521519	0.055963	0.000105
C14	C	-1.536361	0.233171	0.000096
C15	C	-1.717709	-0.226760	0.000116
C16	C	-1.858836	-0.231536	0.000115
C17	C	-1.056559	-0.085448	0.000096
C18	C	-0.943417	-0.173191	-0.144297
C19	C	-0.970104	-0.143698	0.144440
C20	C	-0.997137	-0.327750	-0.144436
C21	C	-1.023847	-0.298222	0.144431
C22	C	-0.910718	-0.386081	0.000003
C23	C	-1.445748	-0.527429	0.000098
C24	C	-1.430906	-0.704639	0.000095
N25	N	-1.525766	-0.189068	0.456367
N26	N	-1.441513	-0.282385	-0.456161
H27	H	-1.119604	0.041527	-0.000083
C28	C	-1.325325	-0.411057	0.442254
H29	H	-1.327963	-0.408112	0.319294
H30	H	-1.331608	-0.514652	0.472379
H31	H	-1.244714	-0.389770	0.472392
H32	H	-1.329266	0.213034	0.000094
C33	C	-1.014235	-0.432898	-0.309512
H34	H	-1.104422	-0.435261	-0.308541
H35	H	-0.962863	-0.539403	-0.309886
H36	H	-0.985988	-0.388883	-0.411950
C37	C	-1.673678	0.344388	0.000104
H38	H	-1.665980	0.452899	0.000099
H39	H	-1.729316	0.334886	0.102226
H40	H	-1.710443	0.314003	-0.102040
C41	C	-1.071740	-0.369579	0.309343
H42	H	-1.063302	-0.304058	0.411849
H43	H	-1.019981	-0.475663	0.310382
H44	H	-1.161507	-0.372999	0.307561
C45	C	-0.895579	-0.101760	-0.309198
H46	H	-0.946303	0.005063	-0.309025
H47	H	-0.905556	-0.166100	-0.411741
H48	H	-0.805367	-0.100140	-0.308534
C49	C	-0.952784	-0.038504	0.309354
H50	H	-1.003497	0.068270	0.309163
H51	H	-0.862463	-0.037006	0.308751
H52	H	-0.981738	-0.081862	0.411892
C53	C	-1.641961	-0.060390	0.557960
H54	H	-1.639316	-0.063320	0.680921
H55	H	-1.722568	-0.081662	0.527816
H56	H	-1.635665	0.043210	0.527837
H57	H	-0.847901	-0.513217	-0.000078
