data_functionalizedCrystal
_audit_creation_method	'MofGen! by Chris Wilmer'
_symmetry_space_group_name_H-M	'P1'
_symmetry_Int_Tables_number	1
_symmetry_cell_setting	triclinic
loop_
_symmetry_equiv_pos_as_xyz
  x,y,z
_cell_length_a	10.540539
_cell_length_b	10.540539
_cell_length_c	7.540329
_cell_angle_alpha	89.998539
_cell_angle_beta	89.999095
_cell_angle_gamma	84.525492
loop_
_atom_site_label
_atom_site_type_symbol
_atom_site_fract_x
_atom_site_fract_y
_atom_site_fract_z
O1	O	1.685885	0.178899	-0.147390
O2	O	1.316472	0.195754	-0.147411
O3	O	1.509606	0.002620	-0.147398
O4	O	1.492750	0.372033	-0.147403
O5	O	1.509594	0.002618	0.147568
O6	O	1.316460	0.195752	0.147554
O7	O	1.685873	0.178896	0.147575
Cu8	Cu	1.501165	0.187324	0.174497
Cu9	Cu	1.501179	0.187327	-0.174333
O10	O	1.492739	0.372031	0.147562
C11	C	1.269163	0.194489	0.000069
C12	C	1.128215	0.190707	0.000061
C13	C	0.944788	0.045790	0.000751
C14	C	1.091406	0.049624	0.000068
C15	C	1.066549	0.258604	-0.168373
C16	C	0.920004	0.253789	-0.168496
C17	C	0.919503	0.256656	0.166935
C18	C	1.066485	0.257956	0.169142
C19	C	1.508336	-0.044684	0.000082
C20	C	1.504554	-0.185632	0.000072
C21	C	1.359637	-0.369059	-0.000598
C22	C	1.363471	-0.222441	0.000066
C23	C	1.572443	-0.247291	0.168515
C24	C	1.567628	-0.393836	0.168657
C25	C	1.570511	-0.394351	-0.166773
C26	C	1.571810	-0.247369	-0.169000
C27	C	1.733182	0.180161	0.000092
C28	C	1.874130	0.183943	0.000088
C29	C	1.494008	0.419335	0.000079
C30	C	1.497790	0.560283	0.000077
N31	N	1.501165	0.187321	0.419846
N32	N	1.501190	0.187320	-0.419681
H33	H	0.891799	0.203609	-0.294401
C34	C	1.499819	-0.431935	0.338744
N35	N	1.448738	-0.460624	0.466853
C36	C	1.504768	-0.192097	-0.337350
N37	N	1.454259	-0.150469	-0.464147
C38	C	1.284660	-0.409829	0.161703
N39	N	1.228195	-0.440526	0.283965
H40	H	1.525274	-0.204693	0.293860
H41	H	0.887951	0.210997	0.294606
H42	H	1.676051	-0.224937	0.174784
H43	H	1.303911	-0.397658	-0.121392
H44	H	1.309668	-0.180686	0.121008
H45	H	1.088902	0.362212	-0.174642
H46	H	1.109142	0.211441	-0.293724
C47	C	1.147814	-0.023050	-0.163334
N48	N	1.190298	-0.077789	-0.286418
H49	H	1.524854	-0.425903	-0.294442
H50	H	1.669093	-0.441804	0.176304
H51	H	1.674671	-0.223148	-0.179166
H52	H	0.872276	0.358560	0.168071
H53	H	1.672415	-0.441577	-0.167900
H54	H	1.134015	-0.003800	0.120809
C55	C	0.903968	-0.029199	-0.161503
N56	N	0.873217	-0.085679	-0.283713
C57	C	0.906151	-0.029510	0.163935
N58	N	0.877039	-0.086229	0.286847
H59	H	0.872035	0.355254	-0.176142
C60	C	1.121767	0.190909	0.337483
N61	N	1.163404	0.140397	0.464275
H62	H	1.310052	-0.179837	-0.120681
C63	C	1.099233	0.396908	0.182903
N64	N	1.123906	0.501570	0.193262
