data_functionalizedCrystal
_audit_creation_method	'MofGen! by Chris Wilmer'
_symmetry_space_group_name_H-M	'P1'
_symmetry_Int_Tables_number	1
_symmetry_cell_setting	triclinic
loop_
_symmetry_equiv_pos_as_xyz
  x,y,z
_cell_length_a	14.908571
_cell_length_b	18.050589
_cell_length_c	14.908308
_cell_angle_alpha	86.730698
_cell_angle_beta	89.824947
_cell_angle_gamma	86.724558
loop_
_atom_site_label
_atom_site_type_symbol
_atom_site_fract_x
_atom_site_fract_y
_atom_site_fract_z
Zn1	Zn	1.345230	-0.387558	0.587600
Zn2	Zn	1.845230	0.112442	1.087600
Zn3	Zn	1.353791	-0.505024	0.437245
Zn4	Zn	1.853791	-0.005024	0.937245
Zn5	Zn	1.203548	-0.373294	0.428597
Zn6	Zn	1.703548	0.126706	0.928597
Zn7	Zn	1.194819	-0.504142	0.578897
Zn8	Zn	1.694819	-0.004142	1.078897
O9	O	1.274347	-0.442504	0.508085
O10	O	1.774347	0.057496	1.008085
O11	O	1.472191	-0.409479	0.574916
O12	O	1.972191	0.090521	1.074916
O13	O	1.341097	-0.481949	0.310273
O14	O	1.841097	0.018051	0.810273
O15	O	1.222413	-0.271266	0.449712
O16	O	1.722413	0.228734	0.949712
O17	O	1.478480	-0.495781	0.464452
O18	O	1.978480	0.004219	0.964452
O19	O	1.326506	-0.281746	0.566530
O20	O	1.826506	0.218254	1.066530
O21	O	1.230714	-0.385168	0.303919
O22	O	1.730714	0.114832	0.803919
O23	O	1.076565	-0.384312	0.441273
O24	O	1.576565	0.115688	0.941273
O25	O	1.207536	-0.494277	0.705876
O26	O	1.707536	0.005723	1.205876
O27	O	1.070152	-0.480446	0.551698
O28	O	1.570152	0.019554	1.051698
O29	O	1.318042	-0.408624	0.712270
O30	O	1.818042	0.091376	1.212270
O31	O	1.332633	-0.608827	0.456013
O32	O	1.832633	-0.108827	0.956013
O33	O	1.215836	-0.608179	0.560084
O34	O	1.715836	-0.108179	1.060084
C35	C	1.040734	-0.430736	0.494603
C36	C	1.540734	0.069264	0.994603
C37	C	0.940791	-0.425720	0.488857
C38	C	1.440791	0.074280	0.988857
C39	C	0.746369	-0.516539	0.592890
C40	C	1.246369	-0.016539	1.092890
C41	C	0.652464	-0.511829	0.587494
C42	C	1.152464	-0.011829	1.087494
C43	C	0.659075	-0.411586	0.472674
C44	C	1.159075	0.088414	0.972674
C45	C	0.752980	-0.416296	0.478070
C46	C	1.252980	0.083704	0.978070
C47	C	0.796623	-0.468775	0.538179
C48	C	1.296623	0.031225	1.038179
C49	C	0.890530	-0.473489	0.543570
C50	C	1.390530	0.026511	1.043570
C51	C	0.897139	-0.373243	0.428755
C52	C	1.397139	0.126757	0.928755
C53	C	0.803235	-0.368533	0.423359
C54	C	1.303235	0.131467	0.923359
C55	C	1.274239	-0.635451	0.508063
C56	C	1.774239	-0.135451	1.008063
C57	C	1.274274	-0.717999	0.508089
C58	C	1.774274	-0.217999	1.008089
C59	C	1.210820	-0.917126	0.564665
C60	C	1.710820	-0.417126	1.064665
C61	C	1.193639	-0.961795	0.481356
C62	C	1.693639	-0.461795	0.981356
C63	C	1.274362	-0.869134	0.508106
C64	C	1.774362	-0.369134	1.008106
C65	C	1.291586	-0.971550	0.591427
C66	C	1.791586	-0.471550	1.091427
C67	C	1.274444	-1.015125	0.508129
C68	C	1.774444	-0.515125	1.008129
C69	C	1.257140	-0.912712	0.424750
C70	C	1.757140	-0.412712	0.924750
C71	C	1.355122	-0.922467	0.534880
C72	C	1.855122	-0.422467	1.034880
C73	C	1.337975	-0.967112	0.451515
C74	C	1.837975	-0.467112	0.951515
C75	C	1.274312	-0.785033	0.508094
C76	C	1.774312	-0.285033	1.008094
C77	C	1.274495	-1.099224	0.508132
C78	C	1.774495	-0.599224	1.008132
C79	C	1.508873	-0.454320	0.521619
C80	C	2.008873	0.045680	1.021619
C81	C	1.608814	-0.459355	0.527387
C82	C	2.108814	0.040645	1.027387
C83	C	1.260860	-0.452943	0.742610
C84	C	1.760860	0.047057	1.242610
C85	C	1.255113	-0.457391	0.842551
C86	C	1.755113	0.042609	1.342551
C87	C	1.274479	-0.248807	0.508127
C88	C	1.774479	0.251193	1.008127
C89	C	1.274535	-0.166265	0.508145
C90	C	1.774535	0.333735	1.008145
C91	C	1.287833	-0.432055	0.274474
C92	C	1.787833	0.067945	0.774474
C93	C	1.293755	-0.427407	0.174544
C94	C	1.793755	0.072593	0.674544
C95	C	1.359381	-0.376542	1.037010
C96	C	1.859381	0.123458	1.537010
C97	C	1.353984	-0.380719	1.130914
C98	C	1.853984	0.119281	1.630914
C99	C	1.238917	-0.469919	1.124263
C100	C	1.738917	0.030081	1.624263
C101	C	1.244314	-0.465741	1.030360
C102	C	1.744314	0.034259	1.530360
C103	C	1.304549	-0.419052	0.986737
C104	C	1.804549	0.080948	1.486737
C105	C	1.309951	-0.414880	0.892832
C106	C	1.809951	0.085120	1.392832
C107	C	1.194880	-0.504075	0.886183
C108	C	1.694880	-0.004075	1.386183
C109	C	1.189483	-0.508252	0.980086
C110	C	1.689483	-0.008252	1.480086
H111	H	0.926063	-0.516221	0.592512
H112	H	1.426063	-0.016221	1.092512
H113	H	1.306123	-0.997236	0.661882
H114	H	1.806123	-0.497236	1.161882
C115	C	1.155369	-0.918398	0.716093
C116	C	1.655369	-0.418398	1.216093
C117	C	1.138190	-0.887498	0.629133
C118	C	1.638190	-0.387498	1.129133
H119	H	1.110526	-0.900109	0.755887
H120	H	1.610526	-0.400109	1.255887
H121	H	1.212674	-0.905060	0.735241
H122	H	1.712674	-0.405060	1.235241
H123	H	1.154543	-0.970983	0.716129
H124	H	1.654543	-0.470983	1.216129
H125	H	1.139023	-0.834913	0.629096
H126	H	1.639023	-0.334913	1.129096
H127	H	1.080871	-0.900831	0.609981
H128	H	1.580871	-0.400831	1.109981
C129	C	0.655366	-0.611387	0.701528
C130	C	1.155366	-0.111387	1.201528
C131	C	0.597223	-0.564333	0.647633
C132	C	1.097223	-0.064333	1.147633
H133	H	0.621260	-0.643803	0.738653
H134	H	1.121260	-0.143803	1.238653
H135	H	0.690030	-0.582443	0.738088
H136	H	1.190030	-0.082443	1.238088
H137	H	0.694229	-0.639835	0.664391
H138	H	1.194229	-0.139835	1.164391
H139	H	0.558364	-0.535880	0.684770
H140	H	1.058364	-0.035880	1.184770
H141	H	0.562544	-0.593280	0.611069
H142	H	1.062544	-0.093280	1.111069
C143	C	1.423137	-0.327123	0.908840
C144	C	1.923137	0.172877	1.408840
C145	C	1.376155	-0.363557	0.844878
C146	C	1.876155	0.136443	1.344878
H147	H	1.464004	-0.295433	0.879235
H148	H	1.964004	0.204567	1.379235
H149	H	1.455407	-0.362837	0.947441
H150	H	1.955407	0.137163	1.447441
H151	H	1.381860	-0.298378	0.943213
H152	H	1.881860	0.201622	1.443213
H153	H	1.417431	-0.392305	0.810510
H154	H	1.917431	0.107695	1.310510
H155	H	1.343883	-0.327838	0.806262
H156	H	1.843883	0.172162	1.306262
H157	H	0.938067	-0.334352	0.384203
H158	H	1.438067	0.165648	0.884203
H159	H	1.391749	-0.988912	0.403636
H160	H	1.891749	-0.488912	0.903636
C161	C	1.035007	-0.960116	0.510097
C162	C	1.535007	-0.460116	1.010097
C163	C	1.101493	-0.985347	0.450790
C164	C	1.601493	-0.485347	0.950790
H165	H	0.978121	-0.974659	0.491232
H166	H	1.478121	-0.474659	0.991232
H167	H	1.034145	-0.907474	0.510391
H168	H	1.534145	-0.407474	1.010391
H169	H	1.047660	-0.981115	0.568888
H170	H	1.547660	-0.481115	1.068888
H171	H	1.088844	-0.964344	0.392000
H172	H	1.588844	-0.464344	0.892000
H173	H	1.102353	-1.037999	0.450487
H174	H	1.602353	-0.537999	0.950487
H175	H	1.242524	-0.887110	0.354272
H176	H	1.742524	-0.387110	0.854272
H177	H	1.398631	-0.346101	1.171843
H178	H	1.898631	0.153899	1.671843
H179	H	0.781904	-0.559273	0.641828
H180	H	1.281904	-0.059273	1.141828
H181	H	0.623524	-0.368856	0.423742
H182	H	1.123524	0.131144	0.923742
H183	H	0.767687	-0.325804	0.374423
H184	H	1.267687	0.174196	0.874423
C185	C	1.465099	-0.928717	0.652779
C186	C	1.965099	-0.428717	1.152779
C187	C	1.447241	-0.898890	0.565474
C188	C	1.947241	-0.398890	1.065474
H189	H	1.521967	-0.914156	0.671674
H190	H	2.021967	-0.414156	1.171674
H191	H	1.465637	-0.981393	0.653539
H192	H	1.965637	-0.481393	1.153539
H193	H	1.419811	-0.910820	0.692336
H194	H	1.919811	-0.410820	1.192336
H195	H	1.492526	-0.916792	0.525916
H196	H	1.992526	-0.416792	1.025916
H197	H	1.446710	-0.846204	0.564708
H198	H	1.946710	-0.346204	1.064708
H199	H	1.408431	-0.338530	1.001492
H200	H	1.908431	0.161470	1.501492
C201	C	1.179536	-0.515902	1.265262
C202	C	1.679536	-0.015902	1.765262
C203	C	1.172697	-0.521223	1.172224
C204	C	1.672697	-0.021223	1.672224
H205	H	1.138653	-0.547576	1.294869
H206	H	1.638653	-0.047576	1.794869
H207	H	1.165534	-0.466029	1.279883
H208	H	1.665534	0.033971	1.779883
H209	H	1.239057	-0.530506	1.284132
H210	H	1.739057	-0.030506	1.784132
H211	H	1.113177	-0.506614	1.153353
H212	H	1.613177	-0.006614	1.653353
H213	H	1.186693	-0.571107	1.157597
H214	H	1.686693	-0.071107	1.657597
C215	C	1.143948	-0.633083	1.006450
C216	C	1.643948	-0.133083	1.506450
C217	C	1.123276	-0.559572	1.028041
C218	C	1.623276	-0.059572	1.528041
H219	H	1.103071	-0.664766	1.036050
H220	H	1.603071	-0.164766	1.536050
H221	H	1.203463	-0.647668	1.025328
H222	H	1.703463	-0.147668	1.525328
H223	H	1.139315	-0.636670	0.943327
H224	H	1.639315	-0.136670	1.443327
H225	H	1.127917	-0.555984	1.091163
H226	H	1.627917	-0.055984	1.591163
H227	H	1.063747	-0.544984	1.009168
H228	H	1.563747	-0.044984	1.509168
C229	C	1.152058	-0.537283	0.739284
C230	C	1.652058	-0.037283	1.239284
C231	C	1.134602	-0.550805	0.830919
C232	C	1.634602	-0.050805	1.330919
H233	H	1.114844	-0.566131	0.705169
H234	H	1.614844	-0.066131	1.205169
H235	H	1.213343	-0.550508	0.727385
H236	H	1.713343	-0.050508	1.227385
H237	H	1.139810	-0.486038	0.723150
H238	H	1.639810	0.013962	1.223150
H239	H	1.146856	-0.602049	0.847055
H240	H	1.646856	-0.102049	1.347055
H241	H	1.073303	-0.537585	0.842823
H242	H	1.573303	-0.037585	1.342823
