data_functionalizedCrystal
_audit_creation_method	'MofGen! by Chris Wilmer'
_symmetry_space_group_name_H-M	'P1'
_symmetry_Int_Tables_number	1
_symmetry_cell_setting	triclinic
loop_
_symmetry_equiv_pos_as_xyz
  x,y,z
_cell_length_a	10.489741
_cell_length_b	14.044220
_cell_length_c	13.101039
_cell_angle_alpha	93.659868
_cell_angle_beta	93.396862
_cell_angle_gamma	91.135974
loop_
_atom_site_label
_atom_site_type_symbol
_atom_site_fract_x
_atom_site_fract_y
_atom_site_fract_z
O1	O	0.301301	-1.264971	-0.085104
O2	O	0.634634	-0.931638	0.248229
O3	O	0.967967	-0.598304	0.581562
O4	O	0.290194	-0.988928	-0.085130
O5	O	0.623527	-0.655594	0.248203
O6	O	0.956860	-0.322261	0.581537
O7	O	0.110787	-1.133230	-0.085110
O8	O	0.444120	-0.799897	0.248223
O9	O	0.777454	-0.466564	0.581556
O10	O	0.480707	-1.120668	-0.085124
O11	O	0.814041	-0.787335	0.248209
O12	O	1.147374	-0.454002	0.581543
O13	O	0.123682	-1.122877	0.085318
O14	O	0.457016	-0.789543	0.418651
O15	O	0.790349	-0.456210	0.751985
O16	O	0.303089	-0.978574	0.085298
O17	O	0.636422	-0.645241	0.418632
O18	O	0.969756	-0.311908	0.751965
O19	O	0.314196	-1.254618	0.085324
O20	O	0.647529	-0.921284	0.418658
O21	O	0.980863	-0.587951	0.751991
Zn22	Zn	0.310690	-1.114952	0.112370
Zn23	Zn	0.644023	-0.781619	0.445704
Zn24	Zn	0.977357	-0.448285	0.779037
Zn25	Zn	0.293700	-1.128593	-0.112176
Zn26	Zn	0.627033	-0.795260	0.221157
Zn27	Zn	0.960366	-0.461926	0.554490
O28	O	0.493603	-1.110315	0.085305
O29	O	0.826936	-0.776982	0.418638
O30	O	1.160270	-0.443648	0.751971
C31	C	0.291780	-0.948404	0.000081
C32	C	0.625113	-0.615070	0.333414
C33	C	0.958447	-0.281737	0.666747
C34	C	0.277280	-0.843079	0.000071
C35	C	0.610613	-0.509746	0.333404
C36	C	0.943946	-0.176413	0.666738
C37	C	0.069607	-1.127105	0.000103
C38	C	0.402940	-0.793771	0.333436
C39	C	0.736273	-0.460438	0.666770
C40	C	-0.072311	-1.124266	0.000101
C41	C	0.261022	-0.790933	0.333434
C42	C	0.594356	-0.457600	0.666768
C43	C	0.312609	-1.295142	0.000111
C44	C	0.645943	-0.961809	0.333444
C45	C	0.979276	-0.628475	0.666778
C46	C	0.327109	-1.400466	0.000114
C47	C	0.660443	-1.067133	0.333447
C48	C	0.993776	-0.733800	0.666781
C49	C	-0.149765	-1.032451	0.000085
C50	C	0.183569	-0.699117	0.333418
C51	C	0.516902	-0.365784	0.666752
C52	C	-0.231130	-1.070719	0.084119
C53	C	0.102204	-0.737386	0.417452
C54	C	0.435537	-0.404052	0.750786
C55	C	-0.243816	-1.080948	-0.083910
C56	C	0.089517	-0.747615	0.249423
C57	C	0.422851	-0.414282	0.582757
C58	C	-0.151801	-1.162568	0.084204
C59	C	0.181532	-0.829235	0.417538
C60	C	0.514865	-0.495901	0.750871
C61	C	-0.164485	-1.172789	-0.083900
C62	C	0.168848	-0.839456	0.249433
C63	C	0.502181	-0.506122	0.582767
C64	C	-0.245814	-1.211123	0.000155
C65	C	0.087519	-0.877789	0.333488
C66	C	0.420852	-0.544456	0.666821
C67	C	0.534783	-1.116441	0.000089
C68	C	0.868116	-0.783107	0.333422
C69	C	1.201450	-0.449774	0.666755
C70	C	0.676700	-1.119280	0.000084
C71	C	1.010033	-0.785946	0.333418
C72	C	1.343367	-0.452613	0.666751
N73	N	0.322285	-1.105649	0.265618
N74	N	0.655619	-0.772316	0.598951
N75	N	0.988952	-0.438983	0.932284
C76	C	0.250773	-0.650236	0.000092
C77	C	0.584106	-0.316902	0.333426
C78	C	0.917439	0.016431	0.666759
C79	C	0.353611	-0.593304	0.000093
C80	C	0.686944	-0.259971	0.333426
C81	C	1.020277	0.073362	0.666760
C82	C	0.338862	-0.486000	0.000105
C83	C	0.672195	-0.152666	0.333438
C84	C	1.005528	0.180667	0.666771
C85	C	0.265520	-0.757551	0.000080
C86	C	0.598853	-0.424217	0.333414
C87	C	0.932186	-0.090884	0.666747
N88	N	0.282095	-1.137903	-0.265424
N89	N	0.615428	-0.804570	0.067910
N90	N	0.948762	-0.471237	0.401243
C91	C	0.338073	-1.092993	0.474659
C92	C	0.671407	-0.759659	0.807992
C93	C	1.004740	-0.426326	1.141325
C94	C	0.266311	-1.150557	0.525542
C95	C	0.599644	-0.817224	0.858875
C96	C	0.932978	-0.483890	1.192209
C97	C	0.275096	-1.143515	0.641860
C98	C	0.608429	-0.810181	0.975193
C99	C	0.941762	-0.476848	1.308526
C100	C	0.329290	-1.100034	0.358331
C101	C	0.662624	-0.766701	0.691664
C102	C	0.995957	-0.433367	1.024997
H103	H	-0.107764	-0.956955	0.000162
H104	H	0.225569	-0.623622	0.333496
H105	H	0.558902	-0.290289	0.666829
C106	C	-0.302239	-1.313185	0.000226
C107	C	0.031095	-0.979851	0.333559
C108	C	0.364428	-0.646518	0.666893
H109	H	-0.270472	-1.342011	0.059975
H110	H	0.062861	-1.008678	0.393308
H111	H	0.396194	-0.675345	0.726641
H112	H	-0.278340	-1.349638	-0.058896
H113	H	0.054993	-1.016305	0.274437
H114	H	0.388327	-0.682971	0.607770
H115	H	-0.392726	-1.310864	-0.000333
H116	H	-0.059393	-0.977531	0.333000
H117	H	0.273941	-0.644197	0.666333
C118	C	0.429951	-1.019256	0.533809
C119	C	0.763284	-0.685922	0.867142
C120	C	1.096617	-0.352589	1.200476
H121	H	0.473811	-0.984051	0.486590
H122	H	0.807144	-0.650718	0.819923
H123	H	1.140477	-0.317385	1.153257
H124	H	0.490030	-1.051301	0.575676
H125	H	0.823364	-0.717968	0.909009
H126	H	1.156697	-0.384634	1.242342
H127	H	0.382673	-0.976905	0.575651
H128	H	0.716006	-0.643572	0.908984
H129	H	1.049340	-0.310238	1.242318
H130	H	-0.111651	-1.197063	0.155329
H131	H	0.221683	-0.863730	0.488662
H132	H	0.555016	-0.530396	0.821995
H133	H	-0.134879	-1.215921	-0.154942
H134	H	0.198454	-0.882588	0.178392
H135	H	0.531788	-0.549255	0.511725
C136	C	0.174407	-1.224285	0.466392
C137	C	0.507740	-0.890952	0.799725
C138	C	0.841073	-0.557618	1.133058
H139	H	0.130533	-1.259474	0.513615
H140	H	0.463866	-0.926140	0.846949
H141	H	0.797199	-0.592807	1.180282
H142	H	0.221651	-1.266639	0.424535
H143	H	0.554984	-0.933305	0.757869
H144	H	0.888318	-0.599972	1.091202
H145	H	0.114322	-1.192220	0.424539
H146	H	0.447655	-0.858886	0.757873
H147	H	0.780989	-0.525553	1.091206
H148	H	-0.260706	-1.027554	0.155157
H149	H	0.072627	-0.694221	0.488490
H150	H	0.405960	-0.360887	0.821823
H151	H	-0.284097	-1.046404	-0.154961
H152	H	0.049236	-0.713070	0.178372
H153	H	0.382569	-0.379737	0.511705
H154	H	0.452730	-0.625153	0.000084
H155	H	0.786063	-0.291819	0.333418
H156	H	1.119396	0.041514	0.666751
H157	H	0.151662	-0.618389	0.000101
H158	H	0.484995	-0.285056	0.333435
H159	H	0.818328	0.048277	0.666768
