data_functionalizedCrystal
_audit_creation_method	'MofGen! by Chris Wilmer'
_symmetry_space_group_name_H-M	'P1'
_symmetry_Int_Tables_number	1
_symmetry_cell_setting	triclinic
loop_
_symmetry_equiv_pos_as_xyz
  x,y,z
_cell_length_a	10.723023
_cell_length_b	10.723024
_cell_length_c	9.798715
_cell_angle_alpha	90.001978
_cell_angle_beta	89.996449
_cell_angle_gamma	95.532291
loop_
_atom_site_label
_atom_site_type_symbol
_atom_site_fract_x
_atom_site_fract_y
_atom_site_fract_z
O1	O	1.657188	-0.175020	-0.113483
O2	O	1.294035	-0.191774	-0.113487
O3	O	1.483988	-0.001821	-0.113480
O4	O	1.467235	-0.364973	-0.113490
O5	O	1.483974	-0.001820	0.113502
O6	O	1.294021	-0.191774	0.113495
O7	O	1.657174	-0.175019	0.113499
Zn8	Zn	1.475595	-0.183396	0.149535
Zn9	Zn	1.475614	-0.183397	-0.149523
O10	O	1.467221	-0.364973	0.113492
C11	C	1.247529	-0.190555	0.000004
C12	C	1.108974	-0.186908	0.000003
C13	C	1.047210	-0.185282	-0.117581
C14	C	0.904007	-0.181512	-0.117585
C15	C	1.482762	0.044679	0.000009
C16	C	1.479114	0.183233	0.000005
C17	C	1.703680	-0.176239	0.000005
C18	C	1.842235	-0.179886	-0.000003
N19	N	1.475591	-0.183395	0.353635
C20	C	1.468447	-0.411473	-0.000001
C21	C	1.472095	-0.550027	-0.000005
C22	C	1.585402	0.258216	0.000004
C23	C	1.581634	0.401420	-0.000001
N24	N	1.475627	-0.183388	-0.353623
C25	C	1.555347	-0.103288	0.421415
C26	C	1.555367	-0.103283	0.578578
H27	H	0.850892	-0.180111	-0.218253
C28	C	0.913971	-0.181774	0.136008
C29	C	0.990264	-0.292304	0.169913
C30	C	1.062010	-0.294192	0.305924
C31	C	1.057464	-0.185550	0.408030
C32	C	0.981168	-0.075013	0.374127
C33	C	0.909421	-0.073124	0.238116
H34	H	0.993632	-0.372734	0.094327
H35	H	1.118490	-0.376020	0.331021
H36	H	1.110575	-0.186948	0.508713
H37	H	0.977800	0.005418	0.449714
H38	H	0.852942	0.008704	0.213020
H39	H	1.055835	-0.185516	0.100668
H40	H	1.407346	-0.251980	0.588098
C41	C	1.349158	0.362947	-0.000004
C42	C	1.320404	0.269593	-0.117866
C43	C	1.197468	0.182556	-0.117865
C44	C	1.103286	0.188872	-0.000001
C45	C	1.132038	0.282230	0.117870
C46	C	1.254974	0.369267	0.117869
H47	H	1.390126	0.264914	-0.205124
H48	H	1.176185	0.113447	-0.205122
H49	H	1.012282	0.124442	-0.000000
H50	H	1.062316	0.286909	0.205128
H51	H	1.276257	0.438376	0.205126
H52	H	1.679188	0.216394	0.000013
C53	C	1.647619	-0.010625	0.657309
C54	C	1.789796	-0.013563	0.637717
C55	C	1.882050	0.079098	0.716452
C56	C	1.832128	0.174697	0.814779
C57	C	1.689943	0.177638	0.834376
C58	C	1.597689	0.084977	0.755641
H59	H	1.826758	-0.084334	0.564925
H60	H	1.987305	0.076921	0.701944
H61	H	1.900420	0.243290	0.873063
H62	H	1.652981	0.248409	0.907168
H63	H	1.492434	0.087154	0.770149
C64	C	1.118986	-0.187177	-0.253580
C65	C	1.221774	-0.081366	-0.287482
C66	C	1.293548	-0.083265	-0.423484
C67	C	1.262533	-0.190975	-0.525586
C68	C	1.159741	-0.296794	-0.491687
C69	C	1.087967	-0.294895	-0.355684
H70	H	1.244737	-0.001626	-0.211898
H71	H	1.369642	-0.004930	-0.448578
H72	H	1.315665	-0.192380	-0.626263
H73	H	1.136778	-0.376534	-0.567271
H74	H	1.011873	-0.373230	-0.330591
H75	H	1.672625	0.465852	0.000004
H76	H	1.385328	0.225055	-0.000005
H77	H	1.407319	-0.251971	0.411957
H78	H	1.623611	-0.034702	0.363095
