data_functionalizedCrystal
_audit_creation_method	'MofGen! by Chris Wilmer'
_symmetry_space_group_name_H-M	'P1'
_symmetry_Int_Tables_number	1
_symmetry_cell_setting	triclinic
loop_
_symmetry_equiv_pos_as_xyz
  x,y,z
_cell_length_a	15.995350
_cell_length_b	10.654550
_cell_length_c	14.472311
_cell_angle_alpha	89.991621
_cell_angle_beta	89.996622
_cell_angle_gamma	83.988639
loop_
_atom_site_label
_atom_site_type_symbol
_atom_site_fract_x
_atom_site_fract_y
_atom_site_fract_z
O1	O	-1.111928	-0.161881	0.076760
O2	O	-0.868269	-0.181871	0.076779
O3	O	-0.995701	0.010936	0.076766
O4	O	-0.984496	-0.354688	0.076773
O5	O	-0.995684	0.010959	-0.076916
O6	O	-0.868253	-0.181848	-0.076903
O7	O	-1.111912	-0.161859	-0.076922
Cu8	Cu	-0.990081	-0.171851	-0.090945
Cu9	Cu	-0.990100	-0.171878	0.090802
O10	O	-0.984480	-0.354666	-0.076909
C11	C	-0.837061	-0.181033	-0.000060
C12	C	-0.744096	-0.178555	-0.000052
N13	N	-0.990074	-0.171832	-0.218776
C14	C	-1.143119	-0.162696	-0.000081
C15	C	-1.236084	-0.165174	-0.000082
C16	C	-0.406297	-0.169658	-0.000072
C17	C	-0.452934	-0.032344	-0.000418
C18	C	-0.549639	-0.034822	-0.000065
C19	C	-0.573883	-0.174071	-0.000063
C20	C	-0.533199	-0.241812	0.087695
C21	C	-0.436543	-0.238362	0.087762
C22	C	-0.436202	-0.241174	-0.087003
C23	C	-0.533147	-0.241141	-0.088157
C24	C	-0.668595	-0.176573	-0.000055
C25	C	-0.311585	-0.167161	-0.000074
C26	C	-0.994870	0.057735	-0.000074
C27	C	-0.992409	0.197146	-0.000071
C28	C	-0.985311	-0.401464	-0.000067
C29	C	-0.987772	-0.540875	-0.000064
C30	C	-1.067438	0.277612	-0.000079
C31	C	-1.065121	0.408603	-0.000073
C32	C	-0.912737	0.378648	-0.000053
C33	C	-0.915055	0.247660	-0.000053
C34	C	-1.144792	0.227098	-0.000097
C35	C	-1.219828	0.307565	-0.000107
C36	C	-1.217510	0.438555	-0.000100
C37	C	-1.140156	0.489079	-0.000084
N38	N	-0.990114	-0.171888	0.218633
C39	C	-0.990100	-0.171869	0.407133
C40	C	-1.058418	-0.068909	0.446328
C41	C	-1.058232	-0.068532	0.553416
C42	C	-0.990087	-0.171850	0.592724
C43	C	-0.902523	-0.143433	0.553831
C44	C	-0.902931	-0.142704	0.446709
C45	C	-1.008559	-0.303552	0.446631
C46	C	-1.010533	-0.302666	0.553759
C47	C	-0.990075	-0.171842	0.697612
C48	C	-0.990106	-0.171874	0.302245
H49	H	-0.577752	0.018424	-0.062973
H50	H	-1.071096	-0.330912	0.419624
H51	H	-0.547918	-0.344115	0.090960
C52	C	-1.042106	0.063455	0.588031
H53	H	-1.041927	0.064133	0.653674
H54	H	-0.989219	0.083476	0.565802
H55	H	-1.085220	0.124181	0.565983
H56	H	-0.853959	0.182142	-0.000047
C57	C	-0.832133	-0.242040	0.588229
H58	H	-0.855578	-0.301554	0.626712
H59	H	-0.805205	-0.284374	0.536798
H60	H	-0.792196	-0.201019	0.622419
H61	H	-0.850520	-0.214854	0.420780
C62	C	-1.146118	-0.091361	0.588951
H63	H	-1.146120	-0.091168	0.654596
H64	H	-1.186379	-0.026341	0.566968
H65	H	-1.160070	-0.170679	0.567219
C66	C	-0.427467	0.041829	-0.085428
H67	H	-0.456298	0.124436	-0.084345
H68	H	-0.368557	0.047081	-0.084262
H69	H	-0.441845	-0.000265	-0.140131
C70	C	-0.880216	-0.015187	0.590047
H71	H	-0.827114	0.001164	0.566129
H72	H	-0.921937	0.049520	0.570736
H73	H	-0.877822	-0.017134	0.655627
C74	C	-0.426044	0.041460	0.084122
H75	H	-0.386522	-0.011047	0.119630
H76	H	-0.401080	0.113751	0.063940
H77	H	-0.473945	0.067187	0.120965
C78	C	-0.586866	0.037554	0.085068
H79	H	-0.542876	0.068577	0.119577
H80	H	-0.625437	0.106282	0.065503
H81	H	-0.615239	-0.017560	0.122662
H82	H	-0.886797	-0.046676	0.421712
H83	H	-1.278608	0.504069	-0.000099
H84	H	-1.138275	0.595741	-0.000069
H85	H	-1.123697	-0.085525	0.420575
H86	H	-1.046699	0.028264	0.419395
C87	C	-0.569644	-0.174338	-0.175864
H88	H	-0.609545	-0.105862	-0.158877
H89	H	-0.525568	-0.143486	-0.210331
H90	H	-0.596358	-0.232458	-0.212488
H91	H	-1.282806	0.266420	-0.000097
C92	C	-1.097553	-0.331816	0.588105
H93	H	-1.121330	-0.264556	0.626037
H94	H	-1.133254	-0.340990	0.536630
H95	H	-1.091756	-0.407879	0.622858
C96	C	-0.827656	0.434223	-0.000046
H97	H	-0.837022	0.523759	-0.000057
H98	H	-0.796733	0.406596	0.053547
H99	H	-0.796728	0.406611	-0.053644
C100	C	-0.554695	-0.378319	-0.095320
H101	H	-0.588964	-0.396569	-0.044447
H102	H	-0.584103	-0.388939	-0.151330
H103	H	-0.504306	-0.434089	-0.094578
H104	H	-0.964064	-0.382857	0.580519
H105	H	-0.958751	-0.380170	0.421279
H106	H	-0.417955	-0.188982	0.153361
H107	H	-0.404880	-0.339176	0.091746
H108	H	-0.415399	-0.196273	-0.153522
C109	C	-0.571159	-0.178276	0.175925
H110	H	-0.611791	-0.110476	0.159468
H111	H	-0.597246	-0.238260	0.211433
H112	H	-0.527855	-0.146864	0.211297
H113	H	-1.146687	0.120440	-0.000105
C114	C	-0.394095	-0.377939	-0.087805
H115	H	-0.358457	-0.391442	-0.035451
H116	H	-0.436093	-0.434664	-0.085874
H117	H	-0.361740	-0.392076	-0.142576
