data_functionalizedCrystal
_audit_creation_method	'MofGen! by Chris Wilmer'
_symmetry_space_group_name_H-M	'P1'
_symmetry_Int_Tables_number	1
_symmetry_cell_setting	triclinic
loop_
_symmetry_equiv_pos_as_xyz
  x,y,z
_cell_length_a	6.817900
_cell_length_b	9.582889
_cell_length_c	14.858572
_cell_angle_alpha	92.654507
_cell_angle_beta	104.524003
_cell_angle_gamma	111.207298
loop_
_atom_site_label
_atom_site_type_symbol
_atom_site_fract_x
_atom_site_fract_y
_atom_site_fract_z
V1	V	-4.078437	-0.207997	-0.289789
O2	O	-4.023872	0.009026	-0.284448
O3	O	-4.069125	-0.411491	-0.287639
O4	O	-4.034542	-0.205223	-0.416253
O5	O	-4.058694	-0.198670	-0.154943
V6	V	-4.556417	-0.181988	-0.273681
O7	O	-4.351856	-0.265049	-0.325124
O8	O	-4.733195	-0.124936	-0.238346
O9	O	-4.342523	0.021506	-0.275831
O10	O	-4.728379	-0.399011	-0.279022
O11	O	-4.693557	-0.191315	-0.408527
O12	O	-4.377105	-0.184763	-0.147217
C13	C	-3.923489	-0.461085	-0.283024
C14	C	-3.997191	-0.627447	-0.282108
C15	C	-3.879374	-0.197968	-0.447083
C16	C	-3.925027	-0.197046	-0.550467
C17	C	-4.092119	-0.193678	-0.929038
C18	C	-4.045621	-0.194615	-0.823707
C19	C	-4.008575	-0.195363	-0.739756
C20	C	-3.962073	-0.196298	-0.634419
C21	C	-4.151502	0.071092	-0.280444
C22	C	-4.057038	0.237452	-0.281365
C23	C	-4.195616	-0.192022	-0.116382
C24	C	-4.129200	-0.192937	-0.012998
