data_functionalizedCrystal
_audit_creation_method	'MofGen! by Chris Wilmer'
_symmetry_space_group_name_H-M	'P1'
_symmetry_Int_Tables_number	1
_symmetry_cell_setting	triclinic
loop_
_symmetry_equiv_pos_as_xyz
  x,y,z
_cell_length_a	19.288867
_cell_length_b	19.188924
_cell_length_c	17.766277
_cell_angle_alpha	89.991559
_cell_angle_beta	89.992126
_cell_angle_gamma	83.139516
loop_
_atom_site_label
_atom_site_type_symbol
_atom_site_fract_x
_atom_site_fract_y
_atom_site_fract_z
O1	O	0.921356	0.087106	-0.062571
O2	O	1.421356	0.587106	0.437429
O3	O	0.719097	0.098854	-0.062579
O4	O	1.219097	0.598854	0.437421
O5	O	0.826066	-0.008676	-0.062566
O6	O	1.326066	0.491324	0.437434
O7	O	0.814387	0.194637	-0.062584
O8	O	1.314387	0.694637	0.437416
O9	O	0.826047	-0.008682	0.062622
O10	O	1.326047	0.491318	0.562622
O11	O	0.719078	0.098849	0.062610
O12	O	1.219078	0.598849	0.562610
O13	O	0.921338	0.087101	0.062617
O14	O	1.421338	0.587101	0.562617
Cu15	Cu	0.820206	0.092974	0.074044
Cu16	Cu	1.320206	0.592974	0.574044
Cu17	Cu	0.820228	0.092981	-0.074006
Cu18	Cu	1.320228	0.592981	0.425994
O19	O	0.814369	0.194631	0.062604
O20	O	1.314369	0.694631	0.562604
C21	C	0.693211	0.098473	0.000014
C22	C	1.193211	0.598473	0.500014
C23	C	0.616107	0.097338	0.000012
C24	C	1.116107	0.597338	0.500012
C25	C	0.825679	-0.034690	0.000029
C26	C	1.325679	0.465310	0.500029
C27	C	0.824546	-0.112195	0.000031
C28	C	1.324546	0.387805	0.500031
C29	C	0.060552	0.089162	-0.068219
C30	C	0.560552	0.589162	0.431781
C31	C	0.132999	0.090225	-0.068222
C32	C	0.632999	0.590225	0.431778
C33	C	0.169218	0.090757	0.000018
C34	C	0.669218	0.590757	0.500018
C35	C	0.132985	0.090207	0.068266
C36	C	0.632985	0.590207	0.568266
C37	C	0.060540	0.089138	0.068267
C38	C	0.560540	0.589138	0.568267
C39	C	0.278539	0.133342	0.052295
C40	C	0.778539	0.633342	0.552295
C41	C	0.350983	0.134416	0.052291
C42	C	0.850983	0.634416	0.552291
C43	C	0.392663	0.094053	0.000018
C44	C	0.892663	0.594053	0.500018
C45	C	0.361891	0.052624	-0.052264
C46	C	0.861891	0.552624	0.447736
C47	C	0.289446	0.051554	-0.052263
C48	C	0.789446	0.551554	0.447737
C49	C	0.247772	0.091916	0.000025
C50	C	0.747772	0.591916	0.500025
C51	C	0.507444	0.095749	-0.068229
C52	C	1.007444	0.595749	0.431771
C53	C	0.579894	0.096807	-0.068229
C54	C	1.079894	0.596807	0.431771
C55	C	0.579877	0.096797	0.068261
C56	C	1.079877	0.596797	0.568261
C57	C	0.507430	0.095732	0.068259
C58	C	1.007430	0.595732	0.568259
C59	C	0.471217	0.095211	0.000012
C60	C	0.971217	0.595211	0.500012
C61	C	0.824028	-0.148591	-0.068210
C62	C	1.324028	0.351409	0.431790
C63	C	0.822953	-0.221413	-0.068215
C64	C	1.322953	0.278587	0.431785
C65	C	0.822412	-0.257839	0.000023
C66	C	1.322412	0.242161	0.500023
C67	C	0.822926	-0.221434	0.068273
C68	C	1.322926	0.278566	0.568273
C69	C	0.823994	-0.148612	0.068277
C70	C	1.323994	0.351388	0.568277
N71	N	0.860255	-0.377507	0.050813
N72	N	1.360255	0.122493	0.550813
N73	N	0.859242	-0.446685	0.050805
N74	N	1.359242	0.053315	0.550805
C75	C	0.819194	-0.477248	0.000016
C76	C	1.319194	0.022752	0.500016
N77	N	0.780205	-0.436020	-0.050776
N78	N	1.280205	0.063980	0.449224
N79	N	0.781221	-0.366836	-0.050770
N80	N	1.281221	0.133164	0.449230
C81	C	0.821254	-0.336802	0.000027
C82	C	1.321254	0.163198	0.500027
C83	C	0.817510	-0.592606	-0.068236
C84	C	1.317510	-0.092606	0.431764
C85	C	0.816431	-0.665430	-0.068238
C86	C	1.316431	-0.165430	0.431762
C87	C	0.816411	-0.665450	0.068252
C88	C	1.316411	-0.165450	0.568252
C89	C	0.817483	-0.592627	0.068253
C90	C	1.317483	-0.092627	0.568253
C91	C	0.818035	-0.556210	0.000007
C92	C	1.318035	-0.056210	0.500007
C93	C	0.947224	0.087482	0.000022
C94	C	1.447224	0.587482	0.500022
C95	C	1.024327	0.088617	0.000020
C96	C	1.524327	0.588617	0.500020
C97	C	0.814755	0.220645	0.000008
C98	C	1.314755	0.720645	0.500008
C99	C	0.815888	0.298150	0.000001
C100	C	1.315888	0.798150	0.500001
N101	N	0.820196	0.092969	0.178174
N102	N	1.320196	0.592969	0.678174
N103	N	0.820244	0.092980	-0.178136
N104	N	1.320244	0.592980	0.321864
C105	C	0.867577	0.045378	0.217567
C106	C	1.367577	0.545378	0.717567
C107	C	0.867581	0.045375	0.296369
C108	C	1.367581	0.545375	0.796369
C109	C	0.820210	0.092975	0.335775
C110	C	1.320210	0.592975	0.835775
C111	C	0.772820	0.140570	0.296373
C112	C	1.272820	0.640570	0.796373
C113	C	0.772813	0.140567	0.217573
C114	C	1.272813	0.640567	0.717573
C115	C	0.810915	0.156592	0.460607
C116	C	1.310915	0.656592	0.960607
C117	C	0.810927	0.156595	0.539406
C118	C	1.310927	0.656595	1.039406
C119	C	0.820229	0.092983	0.578821
C120	C	1.320229	0.592983	1.078821
C121	C	0.829533	0.029365	0.539428
C122	C	1.329533	0.529365	1.039428
C123	C	0.829526	0.029362	0.460628
C124	C	1.329526	0.529362	0.960628
C125	C	0.820213	0.092983	0.421221
C126	C	1.320213	0.592983	0.921221
C127	C	0.867617	0.045385	0.703660
C128	C	1.367617	0.545385	1.203660
C129	C	0.867616	0.045380	0.782463
C130	C	1.367616	0.545380	1.282463
C131	C	0.772859	0.140581	0.782466
C132	C	1.272859	0.640581	1.282466
C133	C	0.772856	0.140579	0.703664
C134	C	1.272856	0.640579	1.203664
C135	C	0.820239	0.092982	0.664266
C136	C	1.320239	0.592982	1.164266
H137	H	0.031072	0.088735	-0.123791
H138	H	0.531072	0.588735	0.376209
H139	H	0.906197	0.006626	0.671581
H140	H	1.406197	0.506626	1.171581
C141	C	0.720783	0.192985	0.660330
C142	C	1.220783	0.692985	1.160330
N143	N	0.681574	0.232474	0.627692
N144	N	1.181574	0.732474	1.127692
H145	H	0.162479	0.090639	0.123828
H146	H	0.662479	0.590639	0.623828
C147	C	0.839764	-0.040615	0.582779
C148	C	1.339764	0.459385	1.082779
N149	N	0.847471	-0.093321	0.615435
N150	N	1.347471	0.406679	1.115435
H151	H	0.906165	0.006619	0.328448
H152	H	1.406165	0.506619	0.828448
C153	C	0.822379	-0.261456	-0.143288
C154	C	1.322379	0.238544	0.356712
N155	N	0.821945	-0.291614	-0.199833
N156	N	1.321945	0.208386	0.300167
C157	C	0.919693	-0.006988	0.174234
C158	C	1.419693	0.493012	0.674234
N159	N	0.958945	-0.046432	0.141594
N160	N	1.458945	0.453568	0.641594
H161	H	0.803328	0.208396	0.428522
H162	H	1.303328	0.708396	0.928522
H163	H	0.816005	-0.695062	-0.123810
H164	H	1.316005	-0.195062	0.376190
C165	C	0.824568	-0.108575	0.143350
C166	C	1.324568	0.391425	0.643350
N167	N	0.825003	-0.078420	0.199896
N168	N	1.325003	0.421580	0.699896
C169	C	0.407735	0.008219	-0.109769
C170	C	0.907735	0.508219	0.390231
N171	N	0.442267	-0.025224	-0.153081
N172	N	0.942267	0.474776	0.346919
C173	C	0.839752	-0.040617	0.417299
C174	C	1.339752	0.459383	0.917299
N175	N	0.847450	-0.093327	0.384663
N176	N	1.347450	0.406673	0.884663
C177	C	0.919730	-0.006988	0.825795
C178	C	1.419730	0.493012	1.325795
N179	N	0.958981	-0.046437	0.858433
N180	N	1.458981	0.453563	1.358433
H181	H	0.162499	0.090673	-0.123792
H182	H	0.662499	0.590673	0.376208
H183	H	0.734286	0.179335	0.814549
H184	H	1.234286	0.679335	1.314549
H185	H	0.609366	0.097227	0.123823
H186	H	1.109366	0.597227	0.623823
C187	C	0.800685	0.226576	0.582731
C188	C	1.300685	0.726576	1.082731
N189	N	0.792966	0.279288	0.615361
N190	N	1.292966	0.779288	1.115361
C191	C	0.822329	-0.261503	0.143335
C192	C	1.322329	0.238497	0.643335
N193	N	0.821876	-0.291683	0.199875
N194	N	1.321876	0.208317	0.699875
C195	C	0.720709	0.192927	0.339721
C196	C	1.220709	0.692927	0.839721
N197	N	0.681455	0.232361	0.372371
N198	N	1.181455	0.732361	0.872371
H199	H	0.817956	-0.562953	-0.123805
H200	H	1.317956	-0.062953	0.376195
H201	H	0.734228	0.179322	0.185498
H202	H	1.234228	0.679322	0.685498
C203	C	0.384826	0.179988	0.109803
C204	C	0.884826	0.679988	0.609803
N205	N	0.410315	0.214312	0.153124
N206	N	0.910315	0.714312	0.653124
C207	C	0.467609	0.095168	-0.143301
C208	C	0.967609	0.595168	0.356699
N209	N	0.437607	0.094728	-0.199847
N210	N	0.937607	0.594728	0.300153
C211	C	0.255599	0.005975	-0.109764
C212	C	0.755599	0.505975	0.390236
N213	N	0.230107	-0.028361	-0.153071
N214	N	0.730107	0.471639	0.346929
H215	H	0.609387	0.097246	-0.123800
H216	H	1.109387	0.597246	0.376200
H217	H	0.477935	0.095290	0.123827
H218	H	0.977935	0.595290	0.623827
C219	C	0.232697	0.177744	0.109808
C220	C	0.732697	0.677744	0.609808
N221	N	0.198171	0.211185	0.153126
N222	N	0.698171	0.711185	0.653126
H223	H	0.817911	-0.562994	0.123821
H224	H	1.317911	-0.062994	0.623821
C225	C	0.824629	-0.108535	-0.143282
C226	C	1.324629	0.391465	0.356718
N227	N	0.825080	-0.078364	-0.199827
N228	N	1.325080	0.421636	0.300173
C229	C	0.020690	0.088548	0.143339
C230	C	0.520690	0.588548	0.643339
N231	N	-0.009326	0.088108	0.199884
N232	N	0.490674	0.588108	0.699884
H233	H	0.815964	-0.695106	0.123813
H234	H	1.315964	-0.195106	0.623813
