data_functionalizedCrystal
_audit_creation_method	'MofGen! by Chris Wilmer'
_symmetry_space_group_name_H-M	'P1'
_symmetry_Int_Tables_number	1
_symmetry_cell_setting	triclinic
loop_
_symmetry_equiv_pos_as_xyz
  x,y,z
_cell_length_a	17.000371
_cell_length_b	17.019294
_cell_length_c	13.596369
_cell_angle_alpha	86.115041
_cell_angle_beta	89.994129
_cell_angle_gamma	79.505866
loop_
_atom_site_label
_atom_site_type_symbol
_atom_site_fract_x
_atom_site_fract_y
_atom_site_fract_z
O1	O	1.056071	0.028428	-0.084203
O2	O	0.824306	0.057061	-0.086628
O3	O	0.946654	-0.072537	-0.075647
O4	O	0.933723	0.158026	-0.095184
O5	O	0.946642	-0.072543	0.087936
O6	O	0.824294	0.057055	0.076955
O7	O	1.056059	0.028423	0.079381
Zn8	Zn	0.940174	0.042738	0.104140
Zn9	Zn	0.940190	0.042745	-0.111388
O10	O	0.933711	0.158020	0.068399
C11	C	0.794644	0.058596	-0.004967
C12	C	0.706281	0.063169	-0.005355
C13	C	0.674335	-0.007205	0.000610
C14	C	0.591307	-0.002903	0.000239
C15	C	0.540226	0.071773	-0.006091
C16	C	0.572177	0.142152	-0.012059
C17	C	0.655204	0.137849	-0.011695
C18	C	0.289062	0.088391	-0.007506
C19	C	0.206030	0.092688	-0.007867
C20	C	0.225166	-0.052367	0.004429
C21	C	0.308193	-0.056663	0.004799
C22	C	0.340136	0.013716	-0.001174
C23	C	0.455358	0.076171	-0.006468
C24	C	0.425003	0.009316	-0.000804
C25	C	0.946157	-0.101895	0.008630
C26	C	0.944686	-0.189363	0.016035
C27	C	0.944004	-0.230449	-0.069654
C28	C	0.942616	-0.312634	-0.062693
C29	C	0.941918	-0.353733	0.029959
C30	C	0.942598	-0.312641	0.115655
C31	C	0.943979	-0.230457	0.108693
C32	C	0.937741	-0.601877	0.055442
C33	C	0.936361	-0.684068	0.062398
C34	C	0.936378	-0.684054	-0.115951
C35	C	0.937765	-0.601869	-0.122905
C36	C	0.938441	-0.560784	-0.037209
C37	C	0.940502	-0.437740	0.037077
C38	C	0.939851	-0.476777	-0.044328
C39	C	1.085721	0.026888	-0.002283
C40	C	1.174084	0.022315	-0.001902
C41	C	0.934208	0.187378	-0.015880
C42	C	0.935679	0.274847	-0.023292
N43	N	0.940169	0.042732	0.251232
N44	N	0.940202	0.042745	-0.258480
C45	C	0.940189	0.042746	0.652522
C46	C	0.940181	0.042745	0.540871
C47	C	0.940180	0.042740	0.451881
C48	C	0.940171	0.042738	0.340223
H49	H	0.530581	0.202955	-0.017219
C50	C	1.013911	-0.151644	0.205492
C51	C	0.944728	-0.185294	0.202887
H52	H	1.014366	-0.123760	0.263644
H53	H	1.059762	-0.192935	0.205290
H54	H	1.014517	-0.115405	0.149313
H55	H	0.944125	-0.221538	0.259062
H56	H	0.898865	-0.143999	0.203098
C57	C	0.937631	-0.610112	-0.298496
C58	C	0.938526	-0.556694	-0.224751
H59	H	0.938098	-0.582220	-0.361372
H60	H	0.983485	-0.651397	-0.291292
H61	H	0.890693	-0.632936	-0.292847
H62	H	0.985468	-0.533875	-0.230397
H63	H	0.892667	-0.515394	-0.231959
H64	H	0.413759	0.136973	-0.011620
H65	H	0.944577	-0.196993	-0.145101
H66	H	0.938307	-0.568438	0.125222
H67	H	0.349778	-0.117473	0.009958
H68	H	0.565301	-0.060209	0.005095
C69	C	0.142908	-0.131678	-0.072948
C70	C	0.190052	-0.129725	0.010981
H71	H	0.121236	-0.179441	-0.068907
H72	H	0.100608	-0.086595	-0.076759
H73	H	0.174914	-0.130335	-0.130098
H74	H	0.158045	-0.131062	0.068132
H75	H	0.232358	-0.174821	0.014802
H76	H	0.940414	-0.443310	-0.119765
C77	C	0.529481	-0.079663	-0.077351
C78	C	0.481151	-0.072766	0.006154
H79	H	0.564152	-0.130335	-0.073047
H80	H	0.496698	-0.074981	-0.134782
H81	H	0.560380	-0.038357	-0.080846
H82	H	0.450247	-0.114069	0.009645
H83	H	0.513937	-0.077456	0.063600
H84	H	0.315060	0.145699	-0.012376
C85	C	0.164147	0.217649	-0.102568
C86	C	0.149875	0.174776	-0.014835
H87	H	0.129474	0.268320	-0.106870
H88	H	0.218157	0.225165	-0.103201
H89	H	0.154476	0.188539	-0.157135
H90	H	0.159552	0.203883	0.039732
H91	H	0.095852	0.167262	-0.014193
C92	C	1.010552	-0.351553	0.270967
C93	C	0.941830	-0.357812	0.217503
H94	H	1.010076	-0.379434	0.333848
H95	H	1.056716	-0.374255	0.236253
H96	H	1.011461	-0.296722	0.279073
H97	H	0.940923	-0.412642	0.209392
H98	H	0.895654	-0.335112	0.252226
H99	H	0.715920	-0.068015	0.005769
C100	C	1.009480	-0.418680	-0.157128
C101	C	0.941879	-0.357814	-0.156872
H102	H	1.009022	-0.446579	-0.215267
H103	H	1.056404	-0.395847	-0.155358
H104	H	1.008850	-0.454900	-0.100936
H105	H	0.942511	-0.321590	-0.213060
H106	H	0.894942	-0.380648	-0.158651
H107	H	0.935827	-0.717515	-0.185720
C108	C	0.627955	0.281662	-0.023874
C109	C	0.690321	0.215207	-0.018247
H110	H	0.649636	0.329419	-0.027917
H111	H	0.595975	0.280324	-0.080802
H112	H	0.595965	0.280316	0.033289
H113	H	0.722308	0.216549	-0.075414
H114	H	0.722315	0.216545	0.038687
C115	C	0.936466	-0.675827	0.237997
C116	C	0.935586	-0.729244	0.164248
H117	H	0.935984	-0.703718	0.300870
H118	H	0.983398	-0.653004	0.232364
H119	H	0.890605	-0.634538	0.230780
H120	H	0.981451	-0.770530	0.171461
H121	H	0.888650	-0.752080	0.169884
H122	H	0.939936	-0.471212	0.112514
