data_functionalizedCrystal
_audit_creation_method	'MofGen! by Chris Wilmer'
_symmetry_space_group_name_H-M	'P1'
_symmetry_Int_Tables_number	1
_symmetry_cell_setting	triclinic
loop_
_symmetry_equiv_pos_as_xyz
  x,y,z
_cell_length_a	10.489741
_cell_length_b	11.026607
_cell_length_c	10.065875
_cell_angle_alpha	100.697662
_cell_angle_beta	81.120459
_cell_angle_gamma	96.562595
loop_
_atom_site_label
_atom_site_type_symbol
_atom_site_fract_x
_atom_site_fract_y
_atom_site_fract_z
O1	O	-0.520484	-1.632468	-0.113500
O2	O	-0.459543	-1.278630	-0.113501
O3	O	-0.306188	-1.463599	-0.113492
O4	O	-0.673839	-1.447499	-0.113509
O5	O	-0.335581	-1.428329	0.113495
O6	O	-0.488935	-1.243360	0.113486
O7	O	-0.549877	-1.597198	0.113487
Zn8	Zn	-0.524073	-1.414679	0.149526
Zn9	Zn	-0.485347	-1.461149	-0.149540
O10	O	-0.703232	-1.412229	0.113478
C11	C	-0.273085	-1.444748	0.000000
C12	C	-0.130655	-1.441110	-0.000002
C13	C	-0.462996	-1.215686	-0.000008
C14	C	-0.429482	-1.080679	-0.000008
C15	C	-0.736334	-1.431080	-0.000017
C16	C	-0.878763	-1.434720	-0.000024
C17	C	-0.036624	-1.323420	-0.000012
C18	C	0.028776	-1.361626	0.111904
C19	C	0.057724	-1.396427	-0.111887
C20	C	-0.067142	-1.479350	0.112007
C21	C	-0.038187	-1.514151	-0.111885
C22	C	0.027164	-1.552438	0.000059
C23	C	-0.546423	-1.660143	-0.000009
C24	C	-0.579937	-1.795151	-0.000018
N25	N	-0.550504	-1.382974	0.353630
C26	C	-0.522021	-1.007682	-0.000013
C27	C	-0.487384	-0.868146	-0.000013
N28	N	-0.458908	-1.492864	-0.353644
C29	C	-0.494533	-1.450110	0.421412
C30	C	-0.514887	-1.425718	0.578578
H31	H	-0.065005	-1.226637	0.000100
C32	C	-0.767333	-0.829584	-0.116720
C33	C	-0.721522	-0.850205	-0.000030
H34	H	-0.854744	-0.863563	-0.116722
H35	H	-0.715736	-0.868164	-0.195855
H36	H	-0.762607	-0.743033	-0.116706
H37	H	-0.726240	-0.936757	-0.000049
H38	H	-0.773134	-0.811629	0.079126
C39	C	-0.218823	-1.634725	0.200442
C40	C	-0.140088	-1.526643	0.239885
H41	H	-0.263864	-1.663911	0.279390
H42	H	-0.166564	-1.696316	0.148142
H43	H	-0.279456	-1.617239	0.147062
H44	H	-0.079450	-1.544132	0.293257
H45	H	-0.192352	-1.465039	0.292207
H46	H	-0.613486	-1.307434	0.411952
H47	H	-0.577873	-1.350173	0.636895
H48	H	-0.324609	-1.039875	-0.000038
C49	C	-0.305775	-0.759079	-0.116700
C50	C	-0.345801	-0.813079	-0.000013
H51	H	-0.218367	-0.725091	-0.116702
H52	H	-0.359338	-0.695205	-0.116690
H53	H	-0.312456	-0.820330	-0.195846
H54	H	-0.339130	-0.751826	0.079133
H55	H	-0.292223	-0.876960	-0.000011
H56	H	-0.395910	-1.568400	0.588039
C57	C	-0.739637	-1.005887	0.116669
C58	C	-0.663596	-1.062757	-0.000015
H59	H	-0.827040	-1.039891	0.116669
H60	H	-0.734931	-0.919353	0.116655
H61	H	-0.708521	-1.019866	0.195817
H62	H	-0.694706	-1.048769	-0.079163
H63	H	-0.668308	-1.149311	-0.000013
H64	H	-0.431539	-1.525641	0.363091
C65	C	0.029497	-1.763269	-0.115945
C66	C	0.065079	-1.683185	0.000138
H67	H	0.052886	-1.843990	-0.115883
H68	H	0.072929	-1.734036	-0.195486
H69	H	-0.061462	-1.766109	-0.115175
H70	H	0.156040	-1.680338	-0.000636
H71	H	0.021650	-1.712427	0.079700
C72	C	0.264466	-1.347173	-0.238897
C73	C	0.130878	-1.349028	-0.239617
H74	H	0.309622	-1.317896	-0.317744
H75	H	0.286050	-1.428546	-0.239050
H76	H	0.288327	-1.293801	-0.159418
H77	H	0.107016	-1.402407	-0.319092
H78	H	0.109286	-1.267642	-0.239477
H79	H	0.058490	-1.297126	0.206521
H80	H	-0.067924	-1.578609	-0.206507
