data_functionalizedCrystal
_audit_creation_method	'MofGen! by Chris Wilmer'
_symmetry_space_group_name_H-M	'P1'
_symmetry_Int_Tables_number	1
_symmetry_cell_setting	triclinic
loop_
_symmetry_equiv_pos_as_xyz
  x,y,z
_cell_length_a	10.654545
_cell_length_b	12.811415
_cell_length_c	9.730223
_cell_angle_alpha	84.564740
_cell_angle_beta	89.997167
_cell_angle_gamma	84.262263
loop_
_atom_site_label
_atom_site_type_symbol
_atom_site_fract_x
_atom_site_fract_y
_atom_site_fract_z
O1	O	1.667077	0.147404	-0.132645
O2	O	1.301525	0.161455	-0.134402
O3	O	1.493497	0.001703	-0.114482
O4	O	1.475104	0.307155	-0.152565
O5	O	1.493485	0.001699	0.114098
O6	O	1.301512	0.161450	0.094179
O7	O	1.667064	0.147399	0.095935
Zn8	Zn	1.484286	0.154424	0.131349
Zn9	Zn	1.484303	0.154430	-0.169815
O10	O	1.475092	0.307151	0.076016
C11	C	1.254726	0.160422	-0.019984
C12	C	1.115298	0.157338	-0.019601
C13	C	1.049794	0.155884	0.105180
C14	C	0.918790	0.152969	0.105543
C15	C	0.918804	0.152967	-0.143667
C16	C	1.049807	0.155874	-0.144028
C17	C	1.492460	-0.037411	0.004681
C18	C	1.489373	-0.153951	0.019202
C19	C	1.483564	-0.372927	-0.202739
C20	C	1.480664	-0.482428	-0.189102
C21	C	1.480664	-0.482453	0.060112
C22	C	1.483564	-0.372953	0.046475
C23	C	1.485016	-0.318194	-0.084955
C24	C	1.487925	-0.208693	-0.098590
C25	C	1.487916	-0.208719	0.150622
C26	C	1.485016	-0.318220	0.164259
C27	C	1.713863	0.148432	-0.018486
C28	C	1.853291	0.151516	-0.018877
C29	C	1.476129	0.346265	-0.043151
C30	C	1.479216	0.462805	-0.057681
N31	N	1.484284	0.154420	0.336886
N32	N	1.484314	0.154426	-0.375351
C33	C	1.569319	0.083712	0.417629
C34	C	1.569331	0.083712	0.561512
C35	C	1.399271	0.225137	0.543896
C36	C	1.399253	0.225131	0.400016
H37	H	1.103113	0.157076	0.206496
H38	H	0.865463	0.151786	0.207152
O39	O	0.855095	0.151741	-0.264516
C40	C	0.765543	0.240794	-0.283057
H41	H	0.795408	0.305093	-0.220365
H42	H	0.669366	0.218077	-0.246746
C43	C	0.720615	0.202927	-0.514046
C44	C	0.757302	0.281904	-0.437056
H45	H	0.715526	0.228284	-0.609040
H46	H	0.780944	0.142928	-0.501554
H47	H	0.640471	0.184003	-0.483771
H48	H	0.837451	0.300817	-0.467320
H49	H	0.696986	0.341907	-0.449557
O50	O	1.113245	0.157331	-0.265377
C51	C	1.027355	0.155398	-0.375119
H52	H	0.928939	0.186500	-0.342478
H53	H	1.026169	0.071029	-0.402910
C54	C	1.188957	0.187044	-0.541641
C55	C	1.068083	0.225252	-0.501554
H56	H	1.214082	0.230129	-0.619635
H57	H	1.246825	0.188342	-0.467706
H58	H	1.187953	0.116737	-0.564790
H59	H	1.069092	0.295553	-0.478389
H60	H	1.010216	0.223967	-0.575488
H61	H	1.638554	0.026133	0.366232
O62	O	1.316772	0.293969	0.321618
C63	C	1.337702	0.398038	0.343806
H64	H	1.438252	0.399337	0.383176
H65	H	1.268263	0.428332	0.423553
C66	C	1.195041	0.467445	0.158776
C67	C	1.318542	0.469042	0.207121
H68	H	1.183217	0.511246	0.074465
H69	H	1.180936	0.397333	0.143830
H70	H	1.137189	0.492688	0.225244
H71	H	1.376390	0.443787	0.140660
H72	H	1.332656	0.539152	0.222052
H73	H	1.489103	-0.164144	0.246531
O74	O	1.483388	-0.371349	0.291948
C75	C	1.375483	-0.333486	0.363066
H76	H	1.300344	-0.295618	0.285454
H77	H	1.401734	-0.272445	0.433157
C78	C	1.415939	-0.472247	0.546233
C79	C	1.323648	-0.425744	0.450909
H80	H	1.383966	-0.529154	0.600424
H81	H	1.488639	-0.497754	0.498323
H82	H	1.437807	-0.421369	0.604628
H83	H	1.301793	-0.476617	0.392505
H84	H	1.250942	-0.400247	0.498811
O85	O	1.652057	0.014990	0.639736
C86	C	1.727075	-0.047437	0.553159
H87	H	1.728701	-0.004391	0.445226
H88	H	1.685900	-0.125732	0.547630
C89	C	1.860446	-0.120885	0.744418
C90	C	1.862452	-0.068011	0.611856
H91	H	1.943952	-0.133581	0.780627
H92	H	1.809903	-0.078830	0.802749
H93	H	1.826128	-0.186125	0.739794
H94	H	1.896755	-0.002767	0.616485
H95	H	1.913004	-0.110056	0.553527
O96	O	1.489101	-0.155528	-0.226292
C97	C	1.379764	-0.171214	-0.300132
H98	H	1.303045	-0.193561	-0.224423
H99	H	1.402635	-0.237284	-0.369588
C100	C	1.427295	-0.041466	-0.482225
C101	C	1.333064	-0.068903	-0.389237
H102	H	1.398490	0.021642	-0.537195
H103	H	1.500960	-0.030900	-0.432482
H104	H	1.446346	-0.096532	-0.540091
H105	H	1.314026	-0.013844	-0.331362
H106	H	1.259394	-0.079458	-0.438974
H107	H	1.484757	-0.328343	-0.309754
H108	H	1.479477	-0.526987	-0.285014
O109	O	1.316806	0.293791	0.605440
C110	C	1.335034	0.278621	0.749749
H111	H	1.434677	0.240166	0.774178
H112	H	1.263688	0.225426	0.797237
C113	C	1.194342	0.433087	0.780231
C114	C	1.316728	0.385863	0.810235
H115	H	1.183044	0.499237	0.817544
H116	H	1.182056	0.443305	0.683008
H117	H	1.134900	0.388747	0.819806
H118	H	1.376166	0.430197	0.770646
H119	H	1.329023	0.375655	0.907453
H120	H	1.479471	-0.527056	0.167116
