data_functionalizedCrystal
_audit_creation_method	'MofGen! by Chris Wilmer'
_symmetry_space_group_name_H-M	'P1'
_symmetry_Int_Tables_number	1
_symmetry_cell_setting	triclinic
loop_
_symmetry_equiv_pos_as_xyz
  x,y,z
_cell_length_a	18.426585
_cell_length_b	14.395555
_cell_length_c	18.426585
_cell_angle_alpha	59.998367
_cell_angle_beta	90.001513
_cell_angle_gamma	60.003001
loop_
_atom_site_label
_atom_site_type_symbol
_atom_site_fract_x
_atom_site_fract_y
_atom_site_fract_z
Zr1	Zr	0.699130	1.016835	-0.095269
O2	O	0.583252	1.210631	-0.211150
O3	O	0.734649	0.823039	-0.059744
O4	O	0.734646	1.016843	-0.211151
O5	O	0.583261	1.016820	0.059689
O6	O	0.854072	1.016850	-0.211154
O7	O	0.583255	1.016827	-0.059742
O8	O	0.854078	0.670170	0.059686
O9	O	0.583255	1.363500	-0.211151
O10	O	0.838928	0.902755	-0.044597
O11	O	0.749806	0.902745	0.044535
O12	O	0.749802	1.130925	-0.133727
O13	O	0.660681	1.130915	-0.044595
Zr14	Zr	0.889610	1.016835	0.095205
Zr15	Zr	0.889600	1.016845	-0.095274
Zr16	Zr	0.699140	1.016825	0.095210
Zr17	Zr	0.699135	1.260644	-0.095272
Zr18	Zr	0.889604	0.773026	0.095208
O19	O	0.854090	1.210631	0.059679
O20	O	0.854076	1.210645	-0.211157
O21	O	0.583266	1.210616	0.059686
O22	O	1.005488	0.823039	0.211085
O23	O	1.005474	0.823054	-0.059751
O24	O	0.734663	0.823024	0.211092
O25	O	1.005478	1.016850	-0.059753
O26	O	0.854094	1.016827	0.211087
O27	O	0.734668	1.016820	0.211090
O28	O	1.005484	1.016843	0.059678
O29	O	0.734654	1.363509	-0.211155
O30	O	0.854086	0.670161	0.211091
O31	O	1.005484	0.670170	0.211087
O32	O	1.005476	0.670178	0.059682
O33	O	0.583263	1.363492	-0.059746
O34	O	0.734662	1.363500	-0.059750
O35	O	0.838937	0.902745	0.133663
O36	O	0.928059	0.902755	0.044531
O37	O	0.838933	1.130925	-0.044600
O38	O	0.749812	1.130915	0.044533
C39	C	0.556120	1.016822	-0.000026
C40	C	0.475261	1.016818	-0.000024
C41	C	0.794363	0.711867	-0.000029
C42	C	0.794360	0.608363	-0.000027
C43	C	0.179146	1.016857	-0.000040
C44	C	0.261532	1.016852	-0.000038
C45	C	0.327200	1.016838	-0.000033
C46	C	0.409592	1.016832	-0.000029
C47	C	0.745770	0.547766	0.048574
C48	C	0.710547	0.562025	-0.035236
C49	C	0.829562	0.409709	0.083757
C50	C	0.759088	0.624049	-0.083887
C51	C	0.878150	0.471669	0.035167
C52	C	0.842948	0.485975	-0.048693
C53	C	1.032619	1.016848	-0.000038
C54	C	1.113479	1.016852	-0.000040
C55	C	0.794357	1.016848	-0.238292
C56	C	0.794353	1.016852	-0.319155
C57	C	0.794377	1.321803	-0.000036
C58	C	0.794379	1.425307	-0.000037
C59	C	0.794387	1.016813	-0.615239
C60	C	0.794379	1.016818	-0.532857
C61	C	0.794369	1.016832	-0.467199
C62	C	0.794363	1.016838	-0.384813
C63	C	0.794382	1.016822	0.238227
C64	C	0.794386	1.016818	0.319091
C65	C	1.032612	0.711880	-0.000035
C66	C	1.113470	0.608381	-0.000036
C67	C	0.794375	0.711854	0.238231
C68	C	0.794377	0.608346	0.319095
C69	C	1.032625	0.711867	0.238225
C70	C	1.113486	0.608363	0.319087
C71	C	0.556115	1.321803	-0.238289
C72	C	0.475254	1.425307	-0.319152
C73	C	0.556127	1.321790	-0.000030
C74	C	0.475270	1.425289	-0.000029
C75	C	0.794365	1.321816	-0.238295
C76	C	0.794363	1.425324	-0.319160
C77	C	1.104916	0.559776	-0.046568
C78	C	1.180882	0.462542	-0.046586
C79	C	1.265402	0.413906	-0.000067
C80	C	1.273954	0.462520	0.046467
C81	C	1.197988	0.559760	0.046479
C82	C	0.840903	0.559738	0.403602
C83	C	0.840901	0.462495	0.479590
C84	C	0.794378	0.413855	0.471069
C85	C	0.747846	0.462473	0.386554
C86	C	0.747843	0.559721	0.310568
C87	C	1.197988	0.559762	0.310535
C88	C	1.273973	0.462523	0.386506
C89	C	1.265455	0.413881	0.471029
C90	C	1.180944	0.462492	0.479580
C91	C	1.104960	0.559735	0.403609
C92	C	0.390752	1.473920	-0.310599
C93	C	0.314766	1.571189	-0.386571
C94	C	0.323285	1.619836	-0.471094
C95	C	0.407796	1.571219	-0.479644
C96	C	0.483779	1.473959	-0.403674
C97	C	0.483824	1.473904	0.046495
C98	C	0.407857	1.571165	0.046493
C99	C	0.323338	1.619804	-0.000029
C100	C	0.314785	1.571186	-0.046559
C101	C	0.390751	1.473933	-0.046561
C102	C	0.840895	1.473933	-0.310611
C103	C	0.840911	1.571176	-0.386584
C104	C	0.794389	1.619816	-0.471106
C105	C	0.747855	1.571198	-0.479653
C106	C	0.747845	1.473949	-0.403680
H107	H	0.639695	0.599208	-0.065012
C108	C	1.171459	0.409070	-0.097764
H109	H	1.110241	0.451950	-0.125451
H110	H	1.199147	0.425018	-0.141804
H111	H	1.199164	0.317248	-0.057600
C112	C	0.892069	0.613241	0.412992
H113	H	0.919763	0.570367	0.474209
H114	H	0.936099	0.597311	0.385293
H115	H	0.851898	0.705061	0.385283
C116	C	0.239701	1.726815	-0.554656
H117	H	0.256871	1.748837	-0.606224
H118	H	0.205331	1.694931	-0.554650
H119	H	0.205340	1.802688	-0.554650
H120	H	1.174021	0.422873	0.548409
C121	C	0.576788	1.420419	0.097668
H122	H	0.620814	1.355526	0.091016
H123	H	0.583451	1.490239	0.074686
H124	H	0.583454	1.382477	0.158882
C125	C	0.381364	1.420439	-0.217634
H126	H	0.320150	1.463346	-0.223434
H127	H	0.409059	1.328624	-0.186052
H128	H	0.409074	1.436388	-0.186069
H129	H	0.261488	1.698994	-0.000020
H130	H	0.245959	1.610803	-0.084436
H131	H	1.342779	0.422954	0.379529
H132	H	1.036158	0.599294	0.410585
H133	H	1.327332	0.334698	0.532882
H134	H	0.859324	0.318098	0.154617
C135	C	0.696641	1.420507	-0.413090
H136	H	0.703293	1.355620	-0.355744
H137	H	0.635439	1.490345	-0.444666
H138	H	0.719612	1.382567	-0.444662
C139	C	1.207409	0.613199	0.097680
H140	H	1.268627	0.570290	0.125388
H141	H	1.179709	0.705016	0.057538
H142	H	1.179717	0.597229	0.141719
H143	H	0.414721	1.610841	-0.548472
H144	H	0.245962	1.610756	-0.379591
C145	C	0.576727	1.420479	-0.413092
H146	H	0.570909	1.463377	-0.474313
H147	H	0.608319	1.436400	-0.385391
H148	H	0.608288	1.328661	-0.385398
H149	H	0.414838	1.610734	0.084386
C150	C	0.381336	1.420448	-0.097728
H151	H	0.438678	1.355564	-0.091076
H152	H	0.349761	1.382521	-0.074745
H153	H	0.349765	1.490273	-0.158942
C154	C	0.973840	0.421479	0.075413
H155	H	0.988264	0.476084	0.032402
H156	H	0.978433	0.423471	0.125895
H157	H	1.013863	0.333913	0.092764
C158	C	0.718763	0.747742	-0.179658
H159	H	0.701969	0.733131	-0.219632
H160	H	0.667919	0.820072	-0.184448
H161	H	0.761534	0.766320	-0.193983
C162	C	0.690192	0.584555	0.104011
H163	H	0.726860	0.566713	0.151958
H164	H	0.642912	0.675378	0.067530
H165	H	0.666525	0.534251	0.126759
H166	H	0.884037	0.459036	-0.089856
C167	C	0.892077	1.420442	-0.217647
H168	H	0.919796	1.463319	-0.223449
H169	H	0.851928	1.436379	-0.186069
H170	H	0.936104	1.328621	-0.186077
C171	C	0.892088	1.624654	-0.377167
H172	H	0.919777	1.581770	-0.315946
H173	H	0.936123	1.608715	-0.404858
H174	H	0.851926	1.716474	-0.404873
C175	C	1.011954	0.613265	-0.097748
H176	H	1.017752	0.570392	-0.125469
H177	H	0.980378	0.597321	-0.057595
H178	H	0.980386	0.705087	-0.141777
C179	C	1.366928	0.409001	0.097642
H180	H	1.410939	0.344117	0.090973
H181	H	1.373612	0.478800	0.074679
H182	H	1.373599	0.371036	0.158858
C183	C	0.892097	0.409021	0.572545
H184	H	0.919815	0.451905	0.566730
H185	H	0.851952	0.424963	0.604127
H186	H	0.936126	0.317200	0.604119
H187	H	0.794404	1.699002	-0.532960
C188	C	0.696621	1.624786	-0.572627
H189	H	0.668889	1.581932	-0.566847
H190	H	0.652615	1.716597	-0.604144
H191	H	0.736740	1.608892	-0.604245
C192	C	0.696686	0.408947	0.377193
H193	H	0.703368	0.344056	0.434555
H194	H	0.635476	0.478740	0.345626
H195	H	0.719675	0.370988	0.345635
H196	H	0.709959	0.599285	0.241762
H197	H	1.327251	0.334726	-0.000084
H198	H	1.204941	0.599353	0.241719
H199	H	0.794388	0.334670	0.532949
