data_functionalizedCrystal
_audit_creation_method	'MofGen! by Chris Wilmer'
_symmetry_space_group_name_H-M	'P1'
_symmetry_Int_Tables_number	1
_symmetry_cell_setting	triclinic
loop_
_symmetry_equiv_pos_as_xyz
  x,y,z
_cell_length_a	6.817900
_cell_length_b	10.773972
_cell_length_c	10.773894
_cell_angle_alpha	96.486187
_cell_angle_beta	96.645922
_cell_angle_gamma	96.646171
loop_
_atom_site_label
_atom_site_type_symbol
_atom_site_fract_x
_atom_site_fract_y
_atom_site_fract_z
V1	V	-3.915801	-0.168033	-0.386968
O2	O	-3.940462	0.012792	-0.381691
O3	O	-3.834381	-0.337718	-0.382312
O4	O	-3.834380	-0.163378	-0.556655
O5	O	-3.940463	-0.162755	-0.206141
V6	V	-4.407986	-0.146649	-0.365584
O7	O	-4.158058	-0.214941	-0.433876
O8	O	-4.615927	-0.099741	-0.318676
O9	O	-4.266200	0.023037	-0.370239
O10	O	-4.500722	-0.327474	-0.370861
O11	O	-4.500721	-0.151927	-0.546410
O12	O	-4.266201	-0.151303	-0.195897
C13	C	-3.672417	-0.379149	-0.375689
C14	C	-3.686913	-0.517855	-0.373013
C15	C	-3.879078	-0.729023	-0.374892
C16	C	-3.864100	-0.585664	-0.377664
C17	C	-3.672415	-0.156759	-0.598079
C18	C	-3.686909	-0.154076	-0.736785
C19	C	-3.864079	-0.158726	-0.804593
C20	C	-3.879064	-0.155953	-0.947953
C21	C	-4.091505	0.064460	-0.376859
C22	C	-4.056245	0.203166	-0.379543
C23	C	-4.091508	-0.157927	-0.154466
C24	C	-4.056254	-0.160604	-0.015759
H25	H	-4.004705	-0.537592	-0.383704
H26	H	-3.738462	-0.149910	-0.996028
H27	H	-3.546308	-0.565927	-0.366987
O28	O	-4.224067	-0.739581	-0.386960
C29	C	-4.540368	-0.725906	-0.506589
C30	C	-4.350383	-0.790821	-0.498364
H31	H	-4.642565	-0.767326	-0.596639
H32	H	-4.498533	-0.620504	-0.507627
H33	H	-4.620718	-0.741888	-0.421528
H34	H	-4.269943	-0.774938	-0.583405
H35	H	-4.392348	-0.896201	-0.497266
O36	O	-3.711374	-0.786395	-0.367472
C37	C	-3.505190	-0.910837	-0.249145
C38	C	-3.695154	-0.845900	-0.257378
H39	H	-3.492036	-0.958986	-0.160155
H40	H	-3.369380	-0.837528	-0.245989
H41	H	-3.513593	-0.984148	-0.335262
H42	H	-3.686945	-0.772596	-0.171283
H43	H	-3.830885	-0.919282	-0.260595
O44	O	-4.031780	-0.166146	-0.747218
C45	C	-4.237961	-0.284471	-0.622771
C46	C	-4.048000	-0.276239	-0.687712
H47	H	-4.251114	-0.373461	-0.574622
H48	H	-4.373772	-0.287626	-0.696078
H49	H	-4.229553	-0.198355	-0.549459
H50	H	-4.056212	-0.362334	-0.761017
H51	H	-3.912267	-0.273023	-0.614331
O52	O	-4.223975	-0.168029	-0.958396
C53	C	-4.430172	-0.286366	-0.833967
C54	C	-4.240198	-0.278125	-0.898894
H55	H	-4.443327	-0.375358	-0.785821
H56	H	-4.565974	-0.289523	-0.907281
H57	H	-4.421780	-0.200252	-0.760653
H58	H	-4.248394	-0.364217	-0.972201
H59	H	-4.104474	-0.274907	-0.825506
H60	H	-3.546320	-0.148034	-0.784865
