data_functionalizedCrystal
_audit_creation_method	'MofGen! by Chris Wilmer'
_symmetry_space_group_name_H-M	'P1'
_symmetry_Int_Tables_number	1
_symmetry_cell_setting	triclinic
loop_
_symmetry_equiv_pos_as_xyz
  x,y,z
_cell_length_a	9.065218
_cell_length_b	9.730223
_cell_length_c	10.654558
_cell_angle_alpha	89.999090
_cell_angle_beta	84.752055
_cell_angle_gamma	90.002947
loop_
_atom_site_label
_atom_site_type_symbol
_atom_site_fract_x
_atom_site_fract_y
_atom_site_fract_z
O1	O	1.959399	0.114290	0.184150
O2	O	1.530032	0.114292	0.199256
O3	O	1.754581	0.114285	0.009004
O4	O	1.734849	0.114297	0.374403
O5	O	1.754566	-0.114295	0.009014
O6	O	1.530017	-0.114288	0.199266
O7	O	1.959384	-0.114290	0.184161
Zn8	Zn	1.744698	-0.150581	0.191715
Zn9	Zn	1.744717	0.150583	0.191701
O10	O	1.734835	-0.114283	0.374413
C11	C	1.475046	0.000002	0.197809
C12	C	1.311226	0.000003	0.193469
N13	N	1.744696	-0.356117	0.191724
C14	C	1.834959	-0.428054	0.268956
C15	C	1.834981	-0.571937	0.268933
C16	C	1.654465	-0.571933	0.114442
C17	C	1.654452	-0.428053	0.114460
C18	C	1.925203	-0.356118	0.346220
C19	C	2.015472	-0.428055	0.423460
C20	C	2.015494	-0.571938	0.423436
C21	C	1.925247	-0.643884	0.346173
C22	C	2.014370	0.000003	0.185607
C23	C	2.178189	0.000012	0.189948
C24	C	1.753122	-0.000003	-0.037795
C25	C	1.748780	0.000001	-0.177255
N26	N	1.744731	0.356120	0.191683
C27	C	1.746729	-0.124596	-0.242770
C28	C	1.742662	-0.124590	-0.373809
C29	C	1.742691	0.124620	-0.373804
C30	C	1.746769	0.124613	-0.242769
C31	C	1.748741	-0.249208	-0.177256
C32	C	1.746688	-0.373815	-0.242772
C33	C	1.742621	-0.373809	-0.373811
C34	C	1.740606	-0.249197	-0.439334
C35	C	1.736293	0.000009	0.421212
C36	C	1.740635	0.000014	0.560671
H37	H	1.925192	-0.238961	0.346251
H38	H	1.752046	-0.249226	-0.070557
C39	C	1.555179	-0.348911	0.029500
H40	H	1.568115	-0.252919	0.040564
H41	H	1.454465	-0.372494	0.051616
H42	H	1.581745	-0.372479	-0.056115
C43	C	2.114738	-0.348922	0.508439
H44	H	2.101790	-0.252928	0.497402
H45	H	2.215452	-0.372480	0.486303
H46	H	2.088189	-0.372524	0.594049
C47	C	1.925277	-0.802152	0.346136
H48	H	1.858608	-0.834693	0.289058
H49	H	1.894998	-0.834729	0.428529
H50	H	2.022249	-0.834673	0.320772
H51	H	1.737307	-0.249202	-0.546035
H52	H	1.741048	0.226074	-0.427163
C53	C	1.749021	0.261663	-0.170690
H54	H	1.751753	0.243808	-0.083270
H55	H	1.662471	0.312869	-0.183561
H56	H	1.834259	0.312855	-0.200762
C57	C	2.114784	-0.651066	0.508392
H58	H	2.168516	-0.587612	0.554413
H59	H	2.182173	-0.707177	0.457730
H60	H	2.054904	-0.707208	0.565471
C61	C	1.748905	-0.510877	-0.170703
H62	H	1.751607	-0.493038	-0.083277
H63	H	1.834120	-0.562080	-0.200770
H64	H	1.662331	-0.562063	-0.183586
H65	H	1.580988	-0.630523	0.051541
H66	H	1.740964	-0.475270	-0.427152
