data_functionalizedCrystal
_audit_creation_method	'MofGen! by Chris Wilmer'
_symmetry_space_group_name_H-M	'P1'
_symmetry_Int_Tables_number	1
_symmetry_cell_setting	triclinic
loop_
_symmetry_equiv_pos_as_xyz
  x,y,z
_cell_length_a	14.519709
_cell_length_b	10.489741
_cell_length_c	13.596369
_cell_angle_alpha	89.994306
_cell_angle_beta	90.000291
_cell_angle_gamma	84.109659
loop_
_atom_site_label
_atom_site_type_symbol
_atom_site_fract_x
_atom_site_fract_y
_atom_site_fract_z
O1	O	1.224779	0.167203	-0.081663
O2	O	1.558113	0.500537	0.251671
O3	O	1.891446	0.833870	0.585004
O4	O	0.956410	0.186894	-0.081693
O5	O	1.289743	0.520227	0.251641
O6	O	1.623077	0.853560	0.584974
O7	O	1.096701	-0.008613	-0.081671
O8	O	1.430035	0.324720	0.251662
O9	O	1.763368	0.658054	0.584996
O10	O	1.084488	0.362710	-0.081684
O11	O	1.417821	0.696043	0.251649
O12	O	1.751155	1.029377	0.584982
O13	O	1.096687	-0.008623	0.081912
O14	O	1.430021	0.324710	0.415245
O15	O	1.763354	0.658043	0.748578
O16	O	0.956396	0.186883	0.081890
O17	O	1.289729	0.520217	0.415224
O18	O	1.623062	0.853550	0.748557
O19	O	1.224765	0.167193	0.081920
O20	O	1.558099	0.500526	0.415254
O21	O	1.891432	0.833860	0.748587
Zn22	Zn	1.090578	0.177037	0.107878
Zn23	Zn	1.423912	0.510370	0.441211
Zn24	Zn	1.757245	0.843703	0.774544
Zn25	Zn	1.090597	0.177050	-0.107650
Zn26	Zn	1.423930	0.510384	0.225683
Zn27	Zn	1.757264	0.843717	0.559017
O28	O	1.084474	0.362700	0.081899
O29	O	1.417807	0.696033	0.415232
O30	O	1.751141	1.029366	0.748565
C31	C	0.922038	0.185971	0.000095
C32	C	1.255371	0.519304	0.333428
C33	C	1.588705	0.852637	0.666762
C34	C	0.819642	0.183221	0.000084
C35	C	1.152975	0.516554	0.333417
C36	C	1.486308	0.849888	0.666750
C37	C	0.444691	0.173098	0.000129
C38	C	0.778024	0.506431	0.333462
C39	C	1.111357	0.839764	0.666795
C40	C	0.549014	0.175909	0.000116
C41	C	0.882347	0.509242	0.333449
C42	C	1.215681	0.842575	0.666783
C43	C	0.632163	0.178159	0.000105
C44	C	0.965496	0.511492	0.333439
C45	C	1.298830	0.844826	0.666772
C46	C	0.736493	0.180971	0.000094
C47	C	1.069826	0.514304	0.333428
C48	C	1.403160	0.847637	0.666761
C49	C	1.095772	-0.056140	0.000120
C50	C	1.429105	0.277193	0.333453
C51	C	1.762438	0.610526	0.666786
C52	C	1.093012	-0.197741	0.000118
C53	C	1.426345	0.135592	0.333451
C54	C	1.759679	0.468926	0.666784
C55	C	1.003749	-0.264951	0.000100
C56	C	1.337082	0.068383	0.333434
C57	C	1.670415	0.401716	0.666767
C58	C	1.045909	-0.357518	0.080760
C59	C	1.379242	-0.024184	0.414093
C60	C	1.712576	0.309149	0.747427
C61	C	1.045944	-0.357482	-0.080520
C62	C	1.379277	-0.024149	0.252813
C63	C	1.712611	0.309184	0.586147
C64	C	1.135209	-0.288443	0.080844
C65	C	1.468542	0.044890	0.414177
C66	C	1.801876	0.378224	0.747510
C67	C	1.135232	-0.288398	-0.080509
C68	C	1.468565	0.044935	0.252825
C69	C	1.801898	0.378269	0.586158
C70	C	1.177457	-0.380938	0.000171
C71	C	1.510790	-0.047605	0.333504
C72	C	1.844123	0.285728	0.666837
C73	C	1.259137	0.168116	0.000130
C74	C	1.592471	0.501449	0.333464
C75	C	1.925804	0.834783	0.666797
C76	C	1.361533	0.170866	0.000135
C77	C	1.694867	0.504199	0.333469
C78	C	2.028200	0.837532	0.666802
C79	C	1.085403	0.410227	0.000106
C80	C	1.418737	0.743560	0.333439
C81	C	1.752070	1.076894	0.666772
C82	C	1.088163	0.551828	0.000101
C83	C	1.421497	0.885161	0.333435
C84	C	1.754830	1.218494	0.666768
N85	N	1.090572	0.177026	0.254969
N86	N	1.423906	0.510360	0.588303
N87	N	1.757239	0.843693	0.921636
N88	N	1.090610	0.177050	-0.254742
N89	N	1.423944	0.510384	0.078592
N90	N	1.757277	0.843717	0.411925
C91	C	1.090596	0.177052	0.656260
C92	C	1.423929	0.510385	0.989594
C93	C	1.757262	0.843718	1.322927
C94	C	1.090586	0.177049	0.544609
C95	C	1.423920	0.510382	0.877942
C96	C	1.757253	0.843715	1.211276
C97	C	1.090584	0.177040	0.455618
C98	C	1.423918	0.510373	0.788952
C99	C	1.757251	0.843707	1.122285
C100	C	1.090574	0.177035	0.343960
C101	C	1.423908	0.510369	0.677293
C102	C	1.757241	0.843702	1.010627
H103	H	0.930357	-0.214534	0.000173
H104	H	1.263690	0.118799	0.333507
H105	H	1.597024	0.452132	0.666840
H106	H	1.172940	-0.258009	0.149112
H107	H	1.506273	0.075325	0.482445
H108	H	1.839606	0.408658	0.815778
H109	H	1.008169	-0.388048	-0.148718
H110	H	1.341503	-0.054715	0.184615
H111	H	1.674836	0.278619	0.517949
H112	H	1.172975	-0.257742	-0.148696
H113	H	1.506308	0.075591	0.184637
H114	H	1.839641	0.408924	0.517971
H115	H	1.008134	-0.388140	0.148944
H116	H	1.341467	-0.054807	0.482277
H117	H	1.674800	0.278527	0.815610
H118	H	1.250914	-0.431128	0.000224
H119	H	1.584248	-0.097795	0.333557
H120	H	1.917581	0.235539	0.666890
