data_functionalizedCrystal
_audit_creation_method	'MofGen! by Chris Wilmer'
_symmetry_space_group_name_H-M	'P1'
_symmetry_Int_Tables_number	1
_symmetry_cell_setting	triclinic
loop_
_symmetry_equiv_pos_as_xyz
  x,y,z
_cell_length_a	15.944551
_cell_length_b	15.944493
_cell_length_c	14.421503
_cell_angle_alpha	90.010165
_cell_angle_beta	89.996859
_cell_angle_gamma	83.486891
loop_
_atom_site_label
_atom_site_type_symbol
_atom_site_fract_x
_atom_site_fract_y
_atom_site_fract_z
O1	O	1.114507	0.108323	-0.077003
O2	O	0.869954	0.121680	-0.077024
O3	O	0.998934	-0.007276	-0.077021
O4	O	0.985527	0.237280	-0.077006
O5	O	0.998913	-0.007257	0.077203
O6	O	0.869933	0.121699	0.077199
O7	O	1.114485	0.108343	0.077221
Cu8	Cu	0.992207	0.115023	0.091292
Cu9	Cu	0.992232	0.115000	-0.091095
O10	O	0.985506	0.237299	0.077217
C11	C	0.838650	0.121135	0.000084
C12	C	0.745404	0.119473	0.000076
C13	C	0.998375	-0.038562	0.000087
C14	C	0.996733	-0.131810	0.000075
C15	C	0.530565	0.035566	0.000089
C16	C	0.469547	0.074520	-0.075949
C17	C	0.574679	0.116465	0.000086
C18	C	0.469548	0.074558	0.076103
C19	C	0.409767	0.113555	0.000101
C20	C	0.514889	0.155442	-0.076014
C21	C	0.514897	0.155468	0.076106
C22	C	0.453897	0.194481	0.000050
C23	C	0.669681	0.118140	0.000077
C24	C	0.314766	0.111886	0.000103
C25	C	1.072653	-0.367570	0.000099
C26	C	1.031722	-0.418148	-0.075944
C27	C	0.993688	-0.302531	0.000086
C28	C	1.031683	-0.418105	0.076108
C29	C	0.990754	-0.467441	0.000101
C30	C	0.952779	-0.351881	-0.076020
C31	C	0.952751	-0.351834	0.076101
C32	C	0.911763	-0.402379	0.000039
C33	C	0.995381	-0.207531	0.000077
C34	C	0.989055	-0.562438	0.000104
C35	C	1.145790	0.108888	0.000110
C36	C	1.239036	0.110550	0.000113
C37	C	0.986064	0.268584	0.000107
C38	C	0.987707	0.361833	0.000113
N39	N	0.992196	0.115038	0.219573
N40	N	0.992251	0.114978	-0.219377
C41	C	0.932545	0.174641	0.469225
C42	C	1.008441	0.190949	0.531036
C43	C	0.992216	0.115018	0.408734
C44	C	0.916339	0.098730	0.531018
C45	C	0.992229	0.115001	0.591456
C46	C	1.068151	0.131364	0.469184
C47	C	0.975998	0.039112	0.469161
C48	C	1.051950	0.055388	0.530944
C49	C	0.992207	0.115030	0.303473
C50	C	0.992246	0.114988	0.696715
H51	H	0.563912	-0.031574	-0.000009
H52	H	0.882134	0.225102	0.442126
O53	O	0.913115	-0.317631	-0.152904
C54	C	0.954580	-0.352260	-0.232844
H55	H	0.990772	-0.416042	-0.215118
H56	H	1.000509	-0.307796	-0.259062
C57	C	0.844490	-0.285653	-0.330469
C58	C	0.888936	-0.363994	-0.308699
H59	H	0.803999	-0.292888	-0.377262
H60	H	0.816555	-0.262320	-0.276613
H61	H	0.882772	-0.248608	-0.352312
H62	H	0.850655	-0.401034	-0.286846
H63	H	0.916863	-0.387334	-0.362554
H64	H	0.534879	0.189625	-0.140369
O65	O	0.830593	-0.420943	-0.000136
C66	C	0.816525	-0.468877	-0.079648
H67	H	0.879278	-0.501770	-0.105827
H68	H	0.786172	-0.425426	-0.136037
C69	C	0.680317	-0.495100	-0.022814
C70	C	0.757391	-0.535505	-0.054962
H71	H	0.643837	-0.536197	-0.007589
H72	H	0.689793	-0.462803	0.030753
H73	H	0.655034	-0.458892	-0.069810
H74	H	0.782677	-0.571703	-0.007962
H75	H	0.747917	-0.567809	-0.108521
H76	H	0.919423	-0.322866	0.140387
H77	H	1.065038	-0.447028	0.140393
H78	H	0.449453	0.040295	-0.140238
O79	O	0.414352	0.274672	-0.000156
C80	C	0.437483	0.316994	-0.080419
H81	H	0.459403	0.268764	-0.136205
H82	H	0.490962	0.356107	-0.063002
C83	C	0.333976	0.434780	-0.047748
C84	C	0.360892	0.375542	-0.116268
H85	H	0.286733	0.470897	-0.069860
H86	H	0.318394	0.406268	0.006329
H87	H	0.378548	0.467365	-0.033240
H88	H	0.316324	0.342951	-0.130767
H89	H	0.376465	0.404049	-0.170349
H90	H	1.022171	0.255133	0.558213
H91	H	1.132338	0.145209	0.442138
H92	H	0.535012	0.189665	0.140398
O93	O	0.445695	0.033621	0.152765
C94	C	0.485105	-0.050135	0.152454
H95	H	0.544512	-0.054166	0.107941
H96	H	0.439867	-0.093701	0.122768
C97	C	0.436051	-0.072377	0.307018
C98	C	0.509020	-0.077327	0.252352
H99	H	0.450799	-0.089153	0.368639
H100	H	0.409496	-0.015950	0.307227
H101	H	0.398359	-0.108683	0.282269
H102	H	0.546705	-0.041015	0.277094
H103	H	0.535581	-0.133749	0.252149
O104	O	1.112328	-0.004688	0.563036
C105	C	1.192176	0.012786	0.531339
H106	H	1.189763	0.082792	0.514101
H107	H	1.210046	-0.026178	0.466553
C108	C	1.261483	-0.096043	0.628688
C109	C	1.258521	-0.010058	0.607524
H110	H	1.302409	-0.110137	0.675680
H111	H	1.207688	-0.107818	0.650041
H112	H	1.276372	-0.128502	0.574693
H113	H	1.243622	0.022400	0.661515
H114	H	1.312315	0.001721	0.586182
O115	O	0.959446	-0.037400	0.436747
C116	C	0.879350	-0.054326	0.468216
H117	H	0.839471	0.007600	0.485604
H118	H	0.887036	-0.095622	0.532863
C119	C	0.884324	-0.176742	0.370417
C120	C	0.835342	-0.100683	0.391766
H121	H	0.857178	-0.205340	0.323262
H122	H	0.938287	-0.165341	0.349218
H123	H	0.890725	-0.211145	0.424296
H124	H	0.828950	-0.066277	0.337890
H125	H	0.781376	-0.112079	0.412954
H126	H	0.852166	0.084961	0.558181
O127	O	1.153797	-0.348927	-0.000164
C128	C	1.195141	-0.382865	-0.080485
H129	H	1.146367	-0.392211	-0.136229
H130	H	1.232365	-0.446230	-0.063137
C131	C	1.315810	-0.310235	-0.047894
C132	C	1.255905	-0.321707	-0.116362
H133	H	1.353295	-0.272513	-0.070023
H134	H	1.287958	-0.287373	0.006222
H135	H	1.346821	-0.363044	-0.033444
H136	H	1.224888	-0.268901	-0.130803
H137	H	1.283754	-0.344559	-0.170481
O138	O	1.071575	-0.452562	-0.152661
C139	C	1.101734	-0.388257	-0.206072
H140	H	1.109603	-0.331673	-0.159847
H141	H	1.054716	-0.368312	-0.263690
C142	C	1.177900	-0.490887	-0.305798
C143	C	1.187571	-0.421393	-0.249022
H144	H	1.230846	-0.511327	-0.332296
H145	H	1.157579	-0.534211	-0.269817
H146	H	1.138716	-0.474257	-0.353806
H147	H	1.226746	-0.438026	-0.201009
H148	H	1.207901	-0.378072	-0.284997
