data_functionalizedCrystal
_audit_creation_method	'MofGen! by Chris Wilmer'
_symmetry_space_group_name_H-M	'P1'
_symmetry_Int_Tables_number	1
_symmetry_cell_setting	triclinic
loop_
_symmetry_equiv_pos_as_xyz
  x,y,z
_cell_length_a	19.288864
_cell_length_b	19.288865
_cell_length_c	17.766277
_cell_angle_alpha	89.989546
_cell_angle_beta	89.976755
_cell_angle_gamma	83.136245
loop_
_atom_site_label
_atom_site_type_symbol
_atom_site_fract_x
_atom_site_fract_y
_atom_site_fract_z
O1	O	-0.921353	-0.086648	0.062844
O2	O	-0.671353	0.163352	0.312844
O3	O	-0.421353	0.413352	0.562844
O4	O	-0.171353	0.663352	0.812844
O5	O	-0.719093	-0.098336	0.062794
O6	O	-0.469093	0.151664	0.312794
O7	O	-0.219093	0.401664	0.562794
O8	O	0.030907	0.651664	0.812794
O9	O	-0.826067	0.008638	0.062806
O10	O	-0.576067	0.258638	0.312806
O11	O	-0.326067	0.508638	0.562806
O12	O	-0.076067	0.758638	0.812806
O13	O	-0.814379	-0.193622	0.062832
O14	O	-0.564379	0.056378	0.312832
O15	O	-0.314379	0.306378	0.562832
O16	O	-0.064379	0.556378	0.812832
O17	O	-0.826048	0.008641	-0.062383
O18	O	-0.576048	0.258641	0.187617
O19	O	-0.326048	0.508641	0.437617
O20	O	-0.076048	0.758641	0.687617
O21	O	-0.719074	-0.098333	-0.062395
O22	O	-0.469074	0.151667	0.187605
O23	O	-0.219074	0.401667	0.437605
O24	O	0.030926	0.651667	0.687605
O25	O	-0.921334	-0.086645	-0.062344
O26	O	-0.671334	0.163355	0.187656
O27	O	-0.421334	0.413355	0.437656
O28	O	-0.171334	0.663355	0.687656
Cu29	Cu	-0.820202	-0.092489	-0.073800
Cu30	Cu	-0.570202	0.157511	0.176200
Cu31	Cu	-0.320202	0.407511	0.426200
Cu32	Cu	-0.070202	0.657511	0.676200
Cu33	Cu	-0.820225	-0.092492	0.074250
Cu34	Cu	-0.570225	0.157508	0.324250
Cu35	Cu	-0.320225	0.407508	0.574250
Cu36	Cu	-0.070225	0.657508	0.824250
O37	O	-0.814359	-0.193619	-0.062356
O38	O	-0.564359	0.056381	0.187644
O39	O	-0.314359	0.306381	0.437644
O40	O	-0.064359	0.556381	0.687644
C41	C	-0.693207	-0.097959	0.000193
C42	C	-0.443207	0.152041	0.250193
C43	C	-0.193207	0.402041	0.500193
C44	C	0.056793	0.652041	0.750193
C45	C	-0.616103	-0.096830	0.000173
C46	C	-0.366103	0.153170	0.250173
C47	C	-0.116103	0.403170	0.500173
C48	C	0.133897	0.653170	0.750173
C49	C	-0.825682	0.034516	0.000209
C50	C	-0.575682	0.284516	0.250209
C51	C	-0.325682	0.534516	0.500209
C52	C	-0.075682	0.784516	0.750209
C53	C	-0.824553	0.111620	0.000202
C54	C	-0.574553	0.361620	0.250202
C55	C	-0.324553	0.611620	0.500202
C56	C	-0.074553	0.861620	0.750202
C57	C	-0.947220	-0.087022	0.000258
C58	C	-0.697220	0.162978	0.250258
C59	C	-0.447220	0.412978	0.500258
C60	C	-0.197220	0.662978	0.750258
C61	C	-1.024324	-0.088151	0.000283
C62	C	-0.774324	0.161849	0.250283
C63	C	-0.524324	0.411849	0.500283
C64	C	-0.274324	0.661849	0.750283
C65	C	-0.571407	-0.159598	0.000193
C66	C	-0.321407	0.090402	0.250193
C67	C	-0.071407	0.340402	0.500193
C68	C	0.178593	0.590402	0.750193
C69	C	-0.498960	-0.158537	0.000201
C70	C	-0.248960	0.091463	0.250201
C71	C	0.001040	0.341463	0.500201
C72	C	0.251040	0.591463	0.750201
C73	C	-0.471212	-0.094705	0.000205
C74	C	-0.221212	0.155295	0.250205
C75	C	0.028788	0.405295	0.500205
C76	C	0.278788	0.655295	0.750205
C77	C	-0.515918	-0.031929	0.000180
C78	C	-0.265918	0.218071	0.250180
C79	C	-0.015918	0.468071	0.500180
C80	C	0.234082	0.718071	0.750180
C81	C	-0.588364	-0.032991	0.000164
C82	C	-0.338364	0.217009	0.250164
C83	C	-0.088364	0.467009	0.500164
C84	C	0.161636	0.717009	0.750164
C85	C	-0.362957	-0.044527	0.044082
C86	C	-0.112957	0.205473	0.294082
C87	C	0.137043	0.455473	0.544082
C88	C	0.387043	0.705473	0.794082
C89	C	-0.290512	-0.043467	0.044103
C90	C	-0.040512	0.206533	0.294103
C91	C	0.209488	0.456533	0.544103
C92	C	0.459488	0.706533	0.794103
C93	C	-0.247767	-0.091425	0.000250
C94	C	0.002233	0.158575	0.250250
C95	C	0.252233	0.408575	0.500250
C96	C	0.502233	0.658575	0.750250
C97	C	-0.277473	-0.140455	-0.043614
C98	C	-0.027473	0.109545	0.206386
C99	C	0.222527	0.359545	0.456386
C100	C	0.472527	0.609545	0.706386
C101	C	-0.349918	-0.141518	-0.043630
C102	C	-0.099918	0.108482	0.206370
C103	C	0.150082	0.358482	0.456370
C104	C	0.400082	0.608482	0.706370
C105	C	-0.392658	-0.093546	0.000221
C106	C	-0.142658	0.156454	0.250221
C107	C	0.107342	0.406454	0.500221
C108	C	0.357342	0.656454	0.750221
C109	C	-0.124514	-0.153047	0.000278
C110	C	0.125486	0.096953	0.250278
C111	C	0.375486	0.346953	0.500278
C112	C	0.625486	0.596953	0.750278
C113	C	-0.052066	-0.151984	0.000281
C114	C	0.197934	0.098016	0.250281
C115	C	0.447934	0.348016	0.500281
C116	C	0.697934	0.598016	0.750281
C117	C	-0.069026	-0.025374	0.000267
C118	C	0.180974	0.224626	0.250267
C119	C	0.430974	0.474626	0.500267
C120	C	0.680974	0.724626	0.750267
C121	C	-0.141473	-0.026439	0.000256
C122	C	0.108527	0.223561	0.250256
C123	C	0.358527	0.473561	0.500256
C124	C	0.608527	0.723561	0.750256
C125	C	-0.169212	-0.090278	0.000265
C126	C	0.080788	0.159722	0.250265
C127	C	0.330788	0.409722	0.500265
C128	C	0.580788	0.659722	0.750265
C129	C	-0.814745	-0.219497	0.000242
C130	C	-0.564745	0.030503	0.250242
C131	C	-0.314745	0.280503	0.500242
C132	C	-0.064745	0.530503	0.750242
C133	C	-0.815874	-0.296601	0.000254
C134	C	-0.565874	-0.046601	0.250254
C135	C	-0.315874	0.203399	0.500254
C136	C	-0.065874	0.453399	0.750254
N137	N	-0.820191	-0.092486	-0.177931
N138	N	-0.570191	0.157514	0.072069
N139	N	-0.320191	0.407514	0.322069
N140	N	-0.070191	0.657514	0.572069
C141	C	-0.887321	0.156316	0.000214
C142	C	-0.637321	0.406316	0.250214
C143	C	-0.387321	0.656316	0.500214
C144	C	-0.137321	0.906316	0.750214
C145	C	-0.886260	0.228763	0.000226
C146	C	-0.636260	0.478763	0.250226
C147	C	-0.386260	0.728763	0.500226
C148	C	-0.136260	0.978763	0.750226
C149	C	-0.822428	0.256511	0.000210
C150	C	-0.572428	0.506511	0.250210
C151	C	-0.322428	0.756511	0.500210
C152	C	-0.072428	1.006511	0.750210
C153	C	-0.759652	0.211805	0.000203
C154	C	-0.509652	0.461805	0.250203
C155	C	-0.259652	0.711805	0.500203
C156	C	-0.009652	0.961805	0.750203
C157	C	-0.760714	0.139359	0.000198
C158	C	-0.510714	0.389359	0.250198
C159	C	-0.260714	0.639359	0.500198
C160	C	-0.010714	0.889359	0.750198
C161	C	-0.772241	0.364799	-0.043653
C162	C	-0.522241	0.614799	0.206347
C163	C	-0.272241	0.864799	0.456347
C164	C	-0.022241	1.114799	0.706347
C165	C	-0.771182	0.437244	-0.043654
C166	C	-0.521182	0.687244	0.206346
C167	C	-0.271182	0.937244	0.456346
C168	C	-0.021182	1.187244	0.706346
C169	C	-0.819148	0.479956	0.000226
C170	C	-0.569148	0.729956	0.250226
C171	C	-0.319148	0.979956	0.500226
C172	C	-0.069148	1.229956	0.750226
C173	C	-0.868186	0.450217	0.044097
C174	C	-0.618186	0.700217	0.294097
C175	C	-0.368186	0.950217	0.544097
C176	C	-0.118186	1.200217	0.794097
C177	C	-0.869249	0.377772	0.044093
C178	C	-0.619249	0.627772	0.294093
C179	C	-0.369249	0.877772	0.544093
C180	C	-0.119249	1.127772	0.794093
C181	C	-0.821269	0.335065	0.000215
C182	C	-0.571269	0.585065	0.250215
C183	C	-0.321269	0.835065	0.500215
C184	C	-0.071269	1.085065	0.750215
C185	C	-0.880770	0.603209	0.000252
C186	C	-0.630770	0.853209	0.250252
C187	C	-0.380770	1.103209	0.500252
C188	C	-0.130770	1.353209	0.750252
C189	C	-0.879707	0.675657	0.000268
C190	C	-0.629707	0.925657	0.250268
C191	C	-0.379707	1.175657	0.500268
C192	C	-0.129707	1.425657	0.750268
C193	C	-0.753097	0.658697	0.000238
C194	C	-0.503097	0.908697	0.250238
C195	C	-0.253097	1.158697	0.500238
C196	C	-0.003097	1.408697	0.750238
C197	C	-0.754162	0.586250	0.000229
C198	C	-0.504162	0.836250	0.250229
C199	C	-0.254162	1.086250	0.500229
C200	C	-0.004162	1.336250	0.750229
C201	C	-0.818001	0.558511	0.000232
C202	C	-0.568001	0.808511	0.250232
C203	C	-0.318001	1.058511	0.500232
C204	C	-0.068001	1.308511	0.750232
C205	C	-0.862179	-0.134509	-0.217294
C206	C	-0.612179	0.115491	0.032706
C207	C	-0.362179	0.365491	0.282706
C208	C	-0.112179	0.615491	0.532706
C209	C	-0.862190	-0.134507	-0.296096
C210	C	-0.612190	0.115493	-0.046096
C211	C	-0.362190	0.365493	0.203904
C212	C	-0.112190	0.615493	0.453904
C213	C	-0.820200	-0.092490	-0.335531
C214	C	-0.570200	0.157510	-0.085531
C215	C	-0.320200	0.407510	0.164469
C216	C	-0.070200	0.657510	0.414469
C217	C	-0.778210	-0.050457	-0.296158
C218	C	-0.528210	0.199543	-0.046158
C219	C	-0.278210	0.449543	0.203842
C220	C	-0.028210	0.699543	0.453842
C221	C	-0.778206	-0.050455	-0.217358
C222	C	-0.528206	0.199545	0.032642
C223	C	-0.278206	0.449545	0.282642
C224	C	-0.028206	0.699545	0.532642
C225	C	-0.757588	-0.090733	-0.460407
C226	C	-0.507588	0.159267	-0.210407
C227	C	-0.257588	0.409267	0.039593
C228	C	-0.007588	0.659267	0.289593
C229	C	-0.757591	-0.090740	-0.539206
C230	C	-0.507591	0.159260	-0.289206
C231	C	-0.257591	0.409260	-0.039206
C232	C	-0.007591	0.659260	0.210794
C233	C	-0.820215	-0.092492	-0.578577
C234	C	-0.570215	0.157508	-0.328577
C235	C	-0.320215	0.407508	-0.078577
C236	C	-0.070215	0.657508	0.171423
C237	C	-0.882836	-0.094251	-0.539141
C238	C	-0.632836	0.155749	-0.289141
C239	C	-0.382836	0.405749	-0.039141
C240	C	-0.132836	0.655749	0.210859
C241	C	-0.882832	-0.094249	-0.460341
C242	C	-0.632832	0.155751	-0.210341
C243	C	-0.382832	0.405751	0.039659
C244	C	-0.132832	0.655751	0.289659
C245	C	-0.820201	-0.092487	-0.420977
C246	C	-0.570201	0.157513	-0.170977
C247	C	-0.320201	0.407513	0.079023
C248	C	-0.070201	0.657513	0.329023
C249	C	-0.862218	-0.134516	-0.703387
C250	C	-0.612218	0.115484	-0.453387
C251	C	-0.362218	0.365484	-0.203387
C252	C	-0.112218	0.615484	0.046613
C253	C	-0.862230	-0.134509	-0.782190
C254	C	-0.612230	0.115491	-0.532190
C255	C	-0.362230	0.365491	-0.282190
C256	C	-0.112230	0.615491	-0.032190
C257	C	-0.778244	-0.050463	-0.782251
C258	C	-0.528244	0.199537	-0.532251
C259	C	-0.278244	0.449537	-0.282251
C260	C	-0.028244	0.699537	-0.032251
C261	C	-0.778238	-0.050466	-0.703449
C262	C	-0.528238	0.199534	-0.453449
C263	C	-0.278238	0.449534	-0.203449
C264	C	-0.028238	0.699534	0.046551
C265	C	-0.820224	-0.092496	-0.664022
C266	C	-0.570224	0.157504	-0.414022
C267	C	-0.320224	0.407504	-0.164022
C268	C	-0.070224	0.657504	0.085978
N269	N	-0.820241	-0.092490	0.178380
N270	N	-0.570241	0.157510	0.428380
N271	N	-0.320241	0.407510	0.678380
N272	N	-0.070241	0.657510	0.928380
H273	H	-0.593987	-0.211580	0.000202
H274	H	-0.343987	0.038420	0.250202
H275	H	-0.093987	0.288420	0.500202
H276	H	0.156013	0.538420	0.750202
F277	F	-0.949476	-0.096121	-0.418372
F278	F	-0.699476	0.153879	-0.168372
F279	F	-0.449476	0.403879	0.081628
F280	F	-0.199476	0.653879	0.331628
F281	F	-0.955264	0.126798	0.000234
F282	F	-0.705264	0.376798	0.250234
F283	F	-0.455264	0.626798	0.500234
F284	F	-0.205264	0.876798	0.750234
F285	F	-0.953069	0.276341	0.000239
F286	F	-0.703069	0.526341	0.250239
F287	F	-0.453069	0.776341	0.500239
F288	F	-0.203069	1.026341	0.750239
F289	F	-0.408444	0.006521	0.090759
F290	F	-0.158444	0.256521	0.340759
F291	F	0.091556	0.506521	0.590759
F292	F	0.341556	0.756521	0.840759
H293	H	-0.701123	0.681288	0.000229
H294	H	-0.451123	0.931288	0.250229
H295	H	-0.201123	1.181288	0.500229
H296	H	0.048877	1.431288	0.750229
F297	F	-0.919239	0.495670	0.090802
F298	F	-0.669239	0.745670	0.340802
F299	F	-0.419239	0.995670	0.590802
F300	F	-0.169239	1.245670	0.840802
F301	F	-0.691717	0.241336	0.000191
F302	F	-0.441717	0.491336	0.250191
F303	F	-0.191717	0.741336	0.500191
F304	F	0.058283	0.991336	0.750191
F305	F	-0.486386	0.036006	0.000180
F306	F	-0.236386	0.286006	0.250180
F307	F	0.013614	0.536006	0.500180
F308	F	0.263614	0.786006	0.750180
H309	H	-0.462561	-0.209652	0.000216
H310	H	-0.212561	0.040348	0.250216
H311	H	0.037439	0.290348	0.500216
H312	H	0.287439	0.540348	0.750216
F313	F	-0.687355	0.538679	0.000213
F314	F	-0.437355	0.788679	0.250213
F315	F	-0.187355	1.038679	0.500213
F316	F	0.062645	1.288679	0.750213
H317	H	-0.896426	-0.168728	-0.814239
H318	H	-0.646426	0.081272	-0.564239
H319	H	-0.396426	0.331272	-0.314239
H320	H	-0.146426	0.581272	-0.064239
F321	F	-0.733512	-0.005729	-0.175463
F322	F	-0.483512	0.244271	0.074537
F323	F	-0.233512	0.494271	0.324537
F324	F	0.016488	0.744271	0.574537
H325	H	-0.624756	0.018124	0.000148
H326	H	-0.374756	0.268124	0.250148
H327	H	-0.124756	0.518124	0.500148
H328	H	0.125244	0.768124	0.750148
F329	F	-0.381531	-0.193695	-0.090313
F330	F	-0.131531	0.056305	0.159687
F331	F	0.118469	0.306305	0.409687
F332	F	0.368469	0.556305	0.659687
F333	F	-0.690943	-0.088874	-0.581170
F334	F	-0.440943	0.161126	-0.331170
F335	F	-0.190943	0.411126	-0.081170
F336	F	0.059057	0.661126	0.168830
H337	H	-0.744056	-0.016250	-0.814358
H338	H	-0.494056	0.233750	-0.564358
H339	H	-0.244056	0.483750	-0.314358
H340	H	0.005944	0.733750	-0.064358
H341	H	-0.744044	-0.016248	-0.671399
H342	H	-0.494044	0.233752	-0.421399
H343	H	-0.244044	0.483752	-0.171399
H344	H	0.005956	0.733752	0.078601
F345	F	-0.690937	-0.088822	-0.418512
F346	F	-0.440937	0.161178	-0.168512
F347	F	-0.190937	0.411178	0.081488
F348	F	0.059063	0.661178	0.331488
F349	F	-0.921434	0.346123	0.090785
F350	F	-0.671434	0.596123	0.340785
F351	F	-0.421434	0.846123	0.590785
F352	F	-0.171434	1.096123	0.840785
F353	F	-0.693905	0.091788	0.000186
F354	F	-0.443905	0.341788	0.250186
F355	F	-0.193905	0.591788	0.500186
F356	F	0.056095	0.841788	0.750186
H357	H	-0.744023	-0.016245	-0.328271
H358	H	-0.494023	0.233755	-0.078271
H359	H	-0.244023	0.483755	0.171729
H360	H	0.005977	0.733755	0.421729
F361	F	-0.154039	-0.220989	0.000281
F362	F	0.095961	0.029011	0.250281
F363	F	0.345961	0.279011	0.500281
F364	F	0.595961	0.529011	0.750281
H365	H	-0.242670	-0.179507	-0.079324
H366	H	0.007330	0.070493	0.170676
H367	H	0.257330	0.320493	0.420676
H368	H	0.507330	0.570493	0.670676
F369	F	-0.004496	-0.218794	0.000299
F370	F	0.245504	0.031206	0.250299
F371	F	0.495504	0.281206	0.500299
F372	F	0.745504	0.531206	0.750299
H373	H	-0.046435	0.026600	0.000317
H374	H	0.203565	0.276600	0.250317
H375	H	0.453565	0.526600	0.500317
H376	H	0.703565	0.776600	0.750317
H377	H	-0.932751	0.580622	0.000258
H378	H	-0.682751	0.830622	0.250258
H379	H	-0.432751	1.080622	0.500258
H380	H	-0.182751	1.330622	0.750258
H381	H	-0.930822	0.712049	0.000282
H382	H	-0.680822	0.962049	0.250282
H383	H	-0.430822	1.212049	0.500282
H384	H	-0.180822	1.462049	0.750282
F385	F	-0.189044	0.040368	0.000239
F386	F	0.060956	0.290368	0.250239
F387	F	0.310956	0.540368	0.500239
F388	F	0.560956	0.790368	0.750239
F389	F	-0.258903	0.008709	0.090792
F390	F	-0.008903	0.258709	0.340792
F391	F	0.241097	0.508709	0.590792
F392	F	0.491097	0.758709	0.840792
F393	F	-0.721186	0.319348	-0.090361
F394	F	-0.471186	0.569348	0.159639
F395	F	-0.221186	0.819348	0.409639
F396	F	0.028814	1.069348	0.659639
H397	H	-0.731249	0.461451	-0.079371
H398	H	-0.481249	0.711451	0.170629
H399	H	-0.231249	0.961451	0.420629
H400	H	0.018751	1.211451	0.670629
H401	H	-0.896369	-0.168731	-0.185197
H402	H	-0.646369	0.081269	0.064803
H403	H	-0.396369	0.331269	0.314803
H404	H	-0.146369	0.581269	0.564803
H405	H	-0.896381	-0.168730	-0.328152
H406	H	-0.646381	0.081270	-0.078152
H407	H	-0.396381	0.331270	0.171848
H408	H	-0.146381	0.581270	0.421848
H409	H	-0.933830	-0.095682	-0.571196
H410	H	-0.683830	0.154318	-0.321196
H411	H	-0.433830	0.404318	-0.071196
H412	H	-0.183830	0.654318	0.178804
F413	F	-0.906914	-0.179235	-0.661423
F414	F	-0.656914	0.070765	-0.411423
F415	F	-0.406914	0.320765	-0.161423
F416	F	-0.156914	0.570765	0.088577
