data_functionalizedCrystal
_audit_creation_method	'MofGen! by Chris Wilmer'
_symmetry_space_group_name_H-M	'P1'
_symmetry_Int_Tables_number	1
_symmetry_cell_setting	triclinic
loop_
_symmetry_equiv_pos_as_xyz
  x,y,z
_cell_length_a	14.908783
_cell_length_b	12.594516
_cell_length_c	14.908308
_cell_angle_alpha	93.271498
_cell_angle_beta	89.788727
_cell_angle_gamma	93.307231
loop_
_atom_site_label
_atom_site_type_symbol
_atom_site_fract_x
_atom_site_fract_y
_atom_site_fract_z
Zn1	Zn	1.345337	-0.372278	-0.587858
Zn2	Zn	1.845337	0.127722	-0.087858
Zn3	Zn	1.353928	-0.539464	-0.437510
Zn4	Zn	1.853928	-0.039464	0.062490
Zn5	Zn	1.203650	-0.371126	-0.428829
Zn6	Zn	1.703650	0.128874	0.071171
Zn7	Zn	1.194954	-0.559845	-0.579133
Zn8	Zn	1.694954	-0.059845	-0.079133
O9	O	1.274467	-0.460678	-0.508333
O10	O	1.774467	0.039322	-0.008333
O11	O	1.472304	-0.386408	-0.575198
O12	O	1.972304	0.113592	-0.075198
O13	O	1.341228	-0.508122	-0.310535
O14	O	1.841228	-0.008122	0.189465
O15	O	1.222489	-0.222331	-0.449942
O16	O	1.722489	0.277669	0.050058
O17	O	1.478615	-0.509239	-0.464738
O18	O	1.978615	-0.009239	0.035262
O19	O	1.326586	-0.223177	-0.566780
O20	O	1.826586	0.276823	-0.066780
O21	O	1.230819	-0.384445	-0.304157
O22	O	1.730819	0.115555	0.195843
O23	O	1.076669	-0.404208	-0.441483
O24	O	1.576669	0.095792	0.058517
O25	O	1.207669	-0.543976	-0.706115
O26	O	1.707669	-0.043976	-0.206115
O27	O	1.070281	-0.542859	-0.551911
O28	O	1.570281	-0.042859	-0.051911
O29	O	1.318154	-0.406171	-0.712524
O30	O	1.818154	0.093829	-0.212524
O31	O	1.332796	-0.691115	-0.456279
O32	O	1.832796	-0.191115	0.043721
O33	O	1.215999	-0.706089	-0.560329
O34	O	1.715999	-0.206089	-0.060329
C35	C	1.040849	-0.475621	-0.494809
C36	C	1.540849	0.024379	0.005191
C37	C	0.940905	-0.482040	-0.489044
C38	C	1.440905	0.017960	0.010956
C39	C	0.746516	-0.366399	-0.593410
C40	C	1.246516	0.133601	-0.093410
C41	C	0.652609	-0.372427	-0.587997
C42	C	1.152609	0.127573	-0.087997
C43	C	0.659185	-0.500119	-0.472801
C44	C	1.159185	-0.000119	0.027199
C45	C	0.753091	-0.494091	-0.478214
C46	C	1.253091	0.005909	0.021786
C47	C	0.796753	-0.427229	-0.538522
C48	C	1.296753	0.072771	-0.038522
C49	C	0.890661	-0.421207	-0.543939
C50	C	1.390661	0.078793	-0.043939
C51	C	0.897235	-0.548893	-0.428739
C52	C	1.397235	-0.048893	0.071261
C53	C	0.803328	-0.554921	-0.423326
C54	C	1.303328	-0.054921	0.076674
C55	C	1.274409	-0.737222	-0.508320
C56	C	1.774409	-0.237222	-0.008320
C57	C	1.274464	-0.855526	-0.508350
C58	C	1.774464	-0.355526	-0.008350
C59	C	1.210935	-0.932960	-0.564900
C60	C	1.710935	-0.432960	-0.064900
C61	C	1.193765	-0.999318	-0.481590
C62	C	1.693765	-0.499318	0.018410
C63	C	1.291715	-0.999962	-0.591679
C64	C	1.791715	-0.499962	-0.091679
C65	C	1.257254	-0.920326	-0.424993
C66	C	1.757254	-0.420326	0.075007
C67	C	1.355239	-0.920965	-0.535141
C68	C	1.855239	-0.420965	-0.035141
C69	C	1.338103	-0.987286	-0.451775
C70	C	1.838103	-0.487286	0.048225
C71	C	1.508998	-0.445678	-0.521910
C72	C	2.008998	0.054322	-0.021910
C73	C	1.608940	-0.439286	-0.527696
C74	C	2.108940	0.060714	-0.027696
C75	C	1.260983	-0.477475	-0.742856
C76	C	1.760983	0.022525	-0.242856
C77	C	1.255237	-0.484633	-0.842796
C78	C	1.755237	0.015367	-0.342796
C79	C	1.274549	-0.183054	-0.508366
C80	C	1.774549	0.316946	-0.008366
C81	C	1.274584	-0.064747	-0.508380
C82	C	1.774584	0.435253	-0.008380
C83	C	1.359485	-0.354563	-1.037270
C84	C	1.859485	0.145437	-0.537270
C85	C	1.354089	-0.361284	-1.131173
C86	C	1.854089	0.138716	-0.631173
C87	C	1.239044	-0.504792	-1.124506
C88	C	1.739044	-0.004792	-0.624506
C89	C	1.244440	-0.498071	-1.030604
C90	C	1.744440	0.001929	-0.530604
C91	C	1.304664	-0.422954	-0.986989
C92	C	1.804664	0.077046	-0.486989
C93	C	1.310064	-0.416239	-0.893085
C94	C	1.810064	0.083761	-0.393085
C95	C	1.195015	-0.559741	-0.886419
C96	C	1.695015	-0.059741	-0.386419
C97	C	1.189619	-0.566462	-0.980322
C98	C	1.689619	-0.066462	-0.480322
C99	C	1.287951	-0.443866	-0.274724
C100	C	1.787951	0.056134	0.225276
C101	C	1.293871	-0.436398	-0.174795
C102	C	1.793871	0.063602	0.325205
H103	H	0.782066	-0.311963	-0.642519
H104	H	1.282066	0.188037	-0.142519
O105	O	0.612082	-0.572212	-0.407748
O106	O	1.112082	-0.072212	0.092252
H107	H	0.566988	-0.632062	-0.445445
H108	H	1.066988	-0.132062	0.054555
H109	H	0.611709	-0.322890	-0.632691
H110	H	1.111709	0.177110	-0.132691
H111	H	1.125512	-1.033636	-0.458953
H112	H	1.625512	-0.533636	0.041047
O113	O	0.951424	-0.614504	-0.369532
O114	O	1.451424	-0.114504	0.130468
H115	H	0.937438	-0.592231	-0.297949
H116	H	1.437438	-0.092231	0.202051
H117	H	1.423475	-0.886654	-0.557816
H118	H	1.923475	-0.386654	-0.057816
O119	O	1.310988	-1.046101	-0.685008
O120	O	1.810988	-0.546101	-0.185008
H121	H	1.258103	-1.024575	-0.731794
H122	H	1.758103	-0.524575	-0.231794
O123	O	1.135846	-0.633468	-0.832180
O124	O	1.635846	-0.133468	-0.332180
H125	H	1.093056	-0.686817	-0.878287
H126	H	1.593056	-0.186817	-0.378287
H127	H	1.359102	-0.355076	-0.857575
H128	H	1.859102	0.144924	-0.357575
O129	O	0.756235	-0.627033	-0.358281
O130	O	1.256235	-0.127033	0.141719
H131	H	0.682496	-0.621010	-0.363740
H132	H	1.182496	-0.121010	0.136260
O133	O	1.139665	-0.900982	-0.628140
O134	O	1.639665	-0.400982	-0.128140
H135	H	1.072728	-0.932450	-0.605696
H136	H	1.572728	-0.432450	-0.105696
O137	O	1.413203	-0.287511	-1.185413
O138	O	1.913203	0.212489	-0.685413
H139	H	1.456475	-0.335274	-1.230850
H140	H	1.956475	0.164726	-0.730850
O141	O	1.124661	-0.647471	-1.027366
O142	O	1.624661	-0.147471	-0.527366
H143	H	1.162431	-0.702114	-1.072471
H144	H	1.662431	-0.202114	-0.572471
H145	H	1.242632	-0.885624	-0.354511
H146	H	1.742632	-0.385624	0.145489
H147	H	1.391883	-1.011207	-0.403907
H148	H	1.891883	-0.511207	0.096093
O149	O	1.424442	-0.273560	-0.990217
O150	O	1.924442	0.226440	-0.490217
H151	H	1.408009	-0.192295	-1.007345
H152	H	1.908009	0.307705	-0.507345
O153	O	0.937761	-0.349088	-0.608973
O154	O	1.437761	0.150912	-0.108973
H155	H	0.887048	-0.307791	-0.646221
H156	H	1.387048	0.192209	-0.146221
O157	O	1.174078	-0.585789	-1.171553
O158	O	1.674078	-0.085789	-0.671553
H159	H	1.179536	-0.578966	-1.245296
H160	H	1.679536	-0.078966	-0.745296
