data_functionalizedCrystal
_audit_creation_method	'MofGen! by Chris Wilmer'
_symmetry_space_group_name_H-M	'P1'
_symmetry_Int_Tables_number	1
_symmetry_cell_setting	triclinic
loop_
_symmetry_equiv_pos_as_xyz
  x,y,z
_cell_length_a	17.077402
_cell_length_b	12.759401
_cell_length_c	12.759393
_cell_angle_alpha	89.980324
_cell_angle_beta	89.965312
_cell_angle_gamma	90.023310
loop_
_atom_site_label
_atom_site_type_symbol
_atom_site_fract_x
_atom_site_fract_y
_atom_site_fract_z
Zn1	Zn	-0.312461	1.606207	-0.593954
Zn2	Zn	0.187539	2.106207	-0.093954
Zn3	Zn	-0.443747	1.606073	-0.418261
Zn4	Zn	0.056253	2.106073	0.081739
Zn5	Zn	-0.312500	1.430505	-0.418293
Zn6	Zn	0.187500	1.930505	0.081707
Zn7	Zn	-0.443690	1.430472	-0.593902
Zn8	Zn	0.056310	1.930472	-0.093902
O9	O	-0.378100	1.518314	-0.506103
O10	O	0.121900	2.018314	-0.006103
O11	O	-0.329884	1.753210	-0.570656
O12	O	0.170116	2.253210	-0.070656
O13	O	-0.426378	1.582741	-0.271244
O14	O	0.073622	2.082741	0.228756
O15	O	-0.202648	1.453882	-0.441630
O16	O	0.297352	1.953882	0.058370
O17	O	-0.426340	1.753111	-0.441576
O18	O	0.073660	2.253111	0.058424
O19	O	-0.202620	1.582969	-0.570687
O20	O	0.297380	2.082969	-0.070687
O21	O	-0.329951	1.453753	-0.271268
O22	O	0.170049	1.953753	0.228732
O23	O	-0.329895	1.283480	-0.441580
O24	O	0.170105	1.783480	0.058420
O25	O	-0.426242	1.453826	-0.740930
O26	O	0.073758	1.953826	-0.240930
O27	O	-0.426280	1.283456	-0.570599
O28	O	0.073720	1.783456	-0.070599
O29	O	-0.329829	1.582937	-0.740968
O30	O	0.170171	2.082937	-0.240968
O31	O	-0.553587	1.582709	-0.441526
O32	O	-0.053587	2.082709	0.058474
O33	O	-0.553545	1.453696	-0.570568
O34	O	-0.053545	1.953696	-0.070568
C35	C	-0.378086	1.245347	-0.506088
C36	C	0.121914	1.745347	-0.006088
C37	C	-0.378099	1.128570	-0.506106
C38	C	0.121901	1.628570	-0.006106
C39	C	-0.327966	1.073760	-0.573422
C40	C	0.172034	1.573760	-0.073422
C41	C	-0.327974	0.964036	-0.573429
C42	C	0.172026	1.464036	-0.073429
C43	C	-0.428256	0.963942	-0.438802
C44	C	0.071744	1.463942	0.061198
C45	C	-0.428243	1.073664	-0.438790
C46	C	0.071757	1.573664	0.061210
C47	C	-0.582048	1.518213	-0.506061
C48	C	-0.082048	2.018213	-0.006061
C49	C	-0.669297	1.518265	-0.506078
C50	C	-0.169297	2.018265	-0.006078
C51	C	-0.710283	1.585511	-0.438958
C52	C	-0.210283	2.085511	0.061042
C53	C	-0.792264	1.585563	-0.438984
C54	C	-0.292264	2.085563	0.061016
C55	C	-0.833257	1.518362	-0.506127
C56	C	-0.333257	2.018362	-0.006127
C57	C	-0.792265	1.451114	-0.573255
C58	C	-0.292265	1.951114	-0.073255
C59	C	-0.710286	1.451068	-0.573233
C60	C	-0.210286	1.951068	-0.073233
C61	C	-0.963135	1.451211	-0.573295
C62	C	-0.463135	1.951211	-0.073295
C63	C	-1.045120	1.451255	-0.573316
C64	C	-0.545120	1.951255	-0.073316
C65	C	-1.045113	1.585705	-0.439047
C66	C	-0.545113	2.085705	0.060953
C67	C	-0.963134	1.585660	-0.439024
C68	C	-0.463134	2.085660	0.060976
C69	C	-0.922148	1.518410	-0.506151
C70	C	-0.422148	2.018410	-0.006151
C71	C	-0.173355	1.518445	-0.506168
C72	C	0.326645	2.018445	-0.006168
C73	C	-0.086106	1.518500	-0.506196
C74	C	0.413894	2.018500	-0.006196
C75	C	-0.378024	1.518393	-0.780136
C76	C	0.121976	2.018393	-0.280136
C77	C	-0.377992	1.518426	-0.896913
C78	C	0.122008	2.018426	-0.396913
C79	C	-0.378114	1.792347	-0.506118
C80	C	0.121886	2.292347	-0.006118
C81	C	-0.378120	1.909124	-0.506125
C82	C	0.121880	2.409124	-0.006125
C83	C	-0.327782	1.585660	-0.951796
C84	C	0.172218	2.085660	-0.451796
C85	C	-0.327748	1.585677	-1.061521
C86	C	0.172252	2.085677	-0.561521
C87	C	-0.428142	1.451226	-1.061468
C88	C	0.071858	1.951226	-0.561468
C89	C	-0.428171	1.451203	-0.951746
C90	C	0.071829	1.951203	-0.451746
C91	C	-0.378118	1.518296	-0.233135
C92	C	0.121882	2.018296	0.266865
C93	C	-0.377929	1.518466	-0.116359
C94	C	0.122071	2.018466	0.383641
H95	H	-0.469082	0.919224	-0.383996
H96	H	0.030918	1.419224	0.116004
F97	F	-0.835881	1.657138	-0.367549
F98	F	-0.335881	2.157138	0.132451
H99	H	-0.929767	1.396452	-0.627960
H100	H	-0.429767	1.896452	-0.127960
H101	H	-0.286860	1.640424	-1.106202
H102	H	0.213140	2.140424	-0.606202
F103	F	-0.835895	1.379600	-0.644720
F104	F	-0.335895	1.879600	-0.144720
F105	F	-0.481611	1.379636	-0.893332
F106	F	0.018389	1.879636	-0.393332
H107	H	-1.078488	1.640466	-0.384393
H108	H	-0.578488	2.140466	0.115607
H109	H	-0.676916	1.396311	-0.627890
H110	H	-0.176916	1.896311	-0.127890
H111	H	-0.469069	1.118291	-0.383968
H112	H	0.030931	1.618291	0.116032
H113	H	-0.676912	1.640229	-0.384278
H114	H	-0.176912	2.140229	0.115722
H115	H	-0.286921	1.640394	-0.907155
H116	H	0.213079	2.140394	-0.407155
F117	F	-0.919508	1.657181	-0.367562
F118	F	-0.419508	2.157181	0.132438
H119	H	-0.287133	1.118462	-0.628233
H120	H	0.212867	1.618462	-0.128233
F121	F	-0.274614	0.905708	-0.645075
F122	F	0.225386	1.405708	-0.145075
H123	H	-1.078494	1.396554	-0.628009
H124	H	-0.578494	1.896554	-0.128009
F125	F	-0.481545	1.379690	-1.119835
F126	F	0.018455	1.879690	-0.619835
