data_functionalizedCrystal
_audit_creation_method	'MofGen! by Chris Wilmer'
_symmetry_space_group_name_H-M	'P1'
_symmetry_Int_Tables_number	1
_symmetry_cell_setting	triclinic
loop_
_symmetry_equiv_pos_as_xyz
  x,y,z
_cell_length_a	17.000371
_cell_length_b	17.019294
_cell_length_c	13.101039
_cell_angle_alpha	89.487532
_cell_angle_beta	86.909647
_cell_angle_gamma	79.505866
loop_
_atom_site_label
_atom_site_type_symbol
_atom_site_fract_x
_atom_site_fract_y
_atom_site_fract_z
O1	O	1.060562	0.023655	-0.087306
O2	O	1.560562	0.523655	0.412694
O3	O	0.828926	0.052150	-0.089821
O4	O	1.328926	0.552150	0.410179
O5	O	0.950688	-0.076825	-0.078435
O6	O	1.450688	0.423175	0.421565
O7	O	0.938800	0.152630	-0.098692
O8	O	1.438800	0.652630	0.401308
O9	O	0.941952	-0.067557	0.091177
O10	O	1.441952	0.432443	0.591177
O11	O	0.820190	0.061418	0.079791
O12	O	1.320190	0.561418	0.579791
O13	O	1.051826	0.032923	0.082306
O14	O	1.551826	0.532923	0.582306
Zn15	Zn	0.934621	0.048642	0.107978
Zn16	Zn	1.434621	0.548642	0.607978
Zn17	Zn	0.946131	0.036431	-0.115493
Zn18	Zn	1.446131	0.536431	0.384507
O19	O	0.930063	0.161898	0.070920
O20	O	1.430063	0.661898	0.570920
C21	C	0.794909	0.058314	-0.005150
C22	C	1.294909	0.558314	0.494850
C23	C	0.706566	0.062865	-0.005552
C24	C	1.206566	0.562865	0.494448
C25	C	0.945697	-0.101406	0.008948
C26	C	1.445697	0.398594	0.508948
C27	C	0.943831	-0.188454	0.016626
C28	C	1.443831	0.311546	0.516626
C29	C	0.674302	-0.007170	0.000633
C30	C	1.174302	0.492830	0.500633
C31	C	0.591294	-0.002890	0.000248
C32	C	1.091294	0.497110	0.500248
C33	C	0.540551	0.071427	-0.006315
C34	C	1.040551	0.571427	0.493685
C35	C	0.572820	0.141468	-0.012504
C36	C	1.072820	0.641468	0.487496
C37	C	0.655827	0.137186	-0.012126
C38	C	1.155827	0.637186	0.487874
C39	C	0.289462	0.087966	-0.007782
C40	C	0.789462	0.587966	0.492218
C41	C	0.206450	0.092242	-0.008157
C42	C	0.706450	0.592242	0.491843
C43	C	0.224930	-0.052116	0.004593
C44	C	0.724930	0.447884	0.504593
C45	C	0.307937	-0.056391	0.004976
C46	C	0.807937	0.443609	0.504976
C47	C	0.340199	0.013649	-0.001218
C48	C	0.840199	0.513649	0.498782
C49	C	0.455703	0.075805	-0.006706
C50	C	0.955703	0.575805	0.493294
C51	C	0.425046	0.009271	-0.000834
C52	C	0.925046	0.509271	0.499166
C53	C	0.947718	-0.234398	-0.072221
C54	C	1.447718	0.265602	0.427779
C55	C	0.945960	-0.316188	-0.065003
C56	C	1.445960	0.183812	0.434997
C57	C	0.940320	-0.352035	0.031063
C58	C	1.440320	0.147965	0.531063
C59	C	0.936430	-0.306085	0.119917
C60	C	1.436430	0.193915	0.619917
C61	C	0.938183	-0.224295	0.112698
C62	C	1.438183	0.275705	0.612698
C63	C	0.934784	-0.598734	0.057485
C64	C	1.434784	-0.098734	0.557485
C65	C	0.933034	-0.680530	0.064697
C66	C	1.433034	-0.180530	0.564697
C67	C	0.942562	-0.690628	-0.120224
C68	C	1.442562	-0.190628	0.379776
C69	C	0.944320	-0.608837	-0.127434
C70	C	1.444320	-0.108837	0.372566
C71	C	0.940425	-0.562893	-0.038581
C72	C	1.440425	-0.062893	0.461419
C73	C	0.938525	-0.435638	0.038443
C74	C	1.438525	0.064362	0.538443
C75	C	0.942215	-0.479290	-0.045962
C76	C	1.442215	0.020710	0.454038
C77	C	1.085842	0.026758	-0.002367
C78	C	1.585842	0.526758	0.497633
C79	C	1.174186	0.022207	-0.001972
C80	C	1.674186	0.522207	0.498028
C81	C	0.935055	0.186478	-0.016465
C82	C	1.435055	0.686478	0.483535
C83	C	0.936921	0.273526	-0.024150
C84	C	1.436921	0.773526	0.475850
N85	N	0.926771	0.056975	0.260491
N86	N	1.426771	0.556975	0.760491
N87	N	0.953987	0.028091	-0.268005
N88	N	1.453987	0.528091	0.231995
C89	C	0.916091	0.068319	0.468532
C90	C	1.416091	0.568319	0.968532
C91	C	0.964664	0.016749	0.523960
C92	C	1.464664	0.516749	1.023960
C93	C	0.958722	0.023062	0.639721
C94	C	1.458722	0.523062	1.139721
C95	C	0.922032	0.062008	0.352760
C96	C	1.422032	0.562008	0.852760
H97	H	0.715612	-0.067688	0.005981
H98	H	1.215612	0.432312	0.505981
C99	C	0.926826	-0.719959	0.170382
C100	C	1.426826	-0.219959	0.670382
N101	N	0.922151	-0.749657	0.249979
N102	N	1.422151	-0.249657	0.749979
H103	H	1.010712	-0.032141	0.484474
H104	H	1.510712	0.467859	0.984474
H105	H	0.531499	0.201979	-0.017854
H106	H	1.031499	0.701979	0.482146
C107	C	0.933909	-0.173758	0.210437
C108	C	1.433909	0.326242	0.710437
N109	N	0.930687	-0.135694	0.284058
N110	N	1.430687	0.364306	0.784058
C111	C	0.150634	0.174000	-0.015395
C112	C	0.650634	0.674000	0.484605
N113	N	0.108594	0.235576	-0.020851
N114	N	0.608594	0.735576	0.479149
H115	H	0.870047	0.117207	0.508013
H116	H	1.370047	0.617207	1.008013
H117	H	0.349247	-0.116908	0.010325
H118	H	0.849247	0.383092	0.510325
H119	H	0.945731	-0.728043	-0.192564
H120	H	1.445731	-0.228043	0.307436
C121	C	0.324938	0.165014	-0.014575
C122	C	0.824938	0.665014	0.485425
N123	N	0.351661	0.223051	-0.019684
N124	N	0.851661	0.723051	0.480316
H125	H	0.946801	-0.450099	-0.124178
H126	H	1.446801	0.049901	0.375822
H127	H	0.565030	-0.059920	0.005283
H128	H	1.065030	0.440080	0.505283
H129	H	0.682094	0.194217	-0.017157
H130	H	1.182094	0.694217	0.482843
H131	H	0.414379	0.136314	-0.012048
H132	H	0.914379	0.636314	0.487952
C133	C	0.189434	-0.129156	0.011395
C134	C	0.689434	0.370844	0.511395
N135	N	0.162700	-0.187186	0.016514
N136	N	0.662700	0.312814	0.516514
H137	H	0.466365	-0.051238	0.004503
H138	H	0.966365	0.448762	0.504503
C139	C	0.930220	-0.345518	0.225591
C140	C	1.430220	0.154482	0.725591
N141	N	0.925544	-0.375218	0.305187
N142	N	1.425544	0.124782	0.805187
C143	C	0.953923	-0.194975	-0.177902
C144	C	1.453923	0.305025	0.322098
N145	N	0.958593	-0.165283	-0.257504
N146	N	1.458593	0.334717	0.242496
H147	H	0.949129	-0.353593	-0.137352
H148	H	1.449129	0.146407	0.362648
C149	C	0.950524	-0.569412	-0.233114
C150	C	1.450524	-0.069412	0.266886
N151	N	0.955200	-0.539718	-0.312714
N152	N	1.455200	-0.039718	0.187286
C153	C	0.930503	-0.548207	0.155228
C154	C	1.430503	-0.048207	0.655228
N155	N	0.927280	-0.510147	0.228853
N156	N	1.427280	-0.010147	0.728853
H157	H	0.933935	-0.464834	0.116661
H158	H	1.433935	0.035166	0.616661
