data_functionalizedCrystal
_audit_creation_method	'MofGen! by Chris Wilmer'
_symmetry_space_group_name_H-M	'P1'
_symmetry_Int_Tables_number	1
_symmetry_cell_setting	triclinic
loop_
_symmetry_equiv_pos_as_xyz
  x,y,z
_cell_length_a	19.121063
_cell_length_b	21.395362
_cell_length_c	21.395355
_cell_angle_alpha	89.956060
_cell_angle_beta	87.579260
_cell_angle_gamma	87.514319
loop_
_atom_site_label
_atom_site_type_symbol
_atom_site_fract_x
_atom_site_fract_y
_atom_site_fract_z
Zn1	Zn	-0.279403	-0.947241	0.365205
Zn2	Zn	-0.029403	-0.697241	0.615205
Zn3	Zn	0.220597	-0.447241	0.865205
Zn4	Zn	0.470597	-0.197241	1.115205
Zn5	Zn	-0.396839	-0.942680	0.264891
Zn6	Zn	-0.146839	-0.692680	0.514891
Zn7	Zn	0.103161	-0.442680	0.764891
Zn8	Zn	0.353161	-0.192680	1.014891
Zn9	Zn	-0.279436	-0.842454	0.260407
Zn10	Zn	-0.029436	-0.592454	0.510407
Zn11	Zn	0.220564	-0.342454	0.760407
Zn12	Zn	0.470564	-0.092454	1.010407
Zn13	Zn	-0.396853	-0.837961	0.369596
Zn14	Zn	-0.146853	-0.587961	0.619596
Zn15	Zn	0.103147	-0.337961	0.869596
Zn16	Zn	0.353147	-0.087961	1.119596
O17	O	-0.338133	-0.892584	0.315025
O18	O	-0.088133	-0.642584	0.565025
O19	O	0.161867	-0.392584	0.815025
O20	O	0.411867	-0.142584	1.065025
O21	O	-0.294962	-1.034314	0.351936
O22	O	-0.044962	-0.784314	0.601936
O23	O	0.205038	-0.534314	0.851936
O24	O	0.455038	-0.284314	1.101936
O25	O	-0.381273	-0.929357	0.176618
O26	O	-0.131273	-0.679357	0.426618
O27	O	0.118727	-0.429357	0.676618
O28	O	0.368727	-0.179357	0.926618
O29	O	-0.181145	-0.860144	0.270595
O30	O	0.068855	-0.610144	0.520595
O31	O	0.318855	-0.360144	0.770595
O32	O	0.568855	-0.110144	1.020595
O33	O	-0.381241	-1.030964	0.278236
O34	O	-0.131241	-0.780964	0.528236
O35	O	0.118759	-0.530964	0.778236
O36	O	0.368759	-0.280964	1.028236
O37	O	-0.181121	-0.937130	0.347589
O38	O	0.068879	-0.687130	0.597589
O39	O	0.318879	-0.437130	0.847589
O40	O	0.568879	-0.187130	1.097589
O41	O	-0.295017	-0.855721	0.173324
O42	O	-0.045017	-0.605721	0.423324
O43	O	0.204983	-0.355721	0.673324
O44	O	0.454983	-0.105721	0.923324
O45	O	-0.295031	-0.754180	0.274853
O46	O	-0.045031	-0.504180	0.524853
O47	O	0.204969	-0.254180	0.774853
O48	O	0.454969	-0.004180	1.024853
O49	O	-0.381266	-0.852486	0.456691
O50	O	-0.131266	-0.602486	0.706691
O51	O	0.118734	-0.352486	0.956691
O52	O	0.368734	-0.102486	1.206691
O53	O	-0.381297	-0.750879	0.355073
O54	O	-0.131297	-0.500879	0.605073
O55	O	0.118703	-0.250879	0.855073
O56	O	0.368703	-0.000879	1.105073
O57	O	-0.294976	-0.932773	0.453465
O58	O	-0.044976	-0.682773	0.703465
O59	O	0.205024	-0.432773	0.953465
O60	O	0.455024	-0.182773	1.203465
O61	O	-0.495127	-0.925000	0.282494
O62	O	-0.245127	-0.675000	0.532494
O63	O	0.004873	-0.425000	0.782494
O64	O	0.254873	-0.175000	1.032494
O65	O	-0.495138	-0.848063	0.359420
O66	O	-0.245138	-0.598063	0.609420
O67	O	0.004862	-0.348063	0.859420
O68	O	0.254862	-0.098063	1.109420
C69	C	-0.338170	-0.729795	0.314953
C70	C	-0.088170	-0.479795	0.564953
C71	C	0.161830	-0.229795	0.814953
C72	C	0.411830	0.020205	1.064953
C73	C	-0.338203	-0.660152	0.314938
C74	C	-0.088203	-0.410152	0.564938
C75	C	0.161797	-0.160152	0.814938
C76	C	0.411797	0.089848	1.064938
C77	C	-0.520617	-0.885566	0.321934
C78	C	-0.270617	-0.635566	0.571934
C79	C	-0.020617	-0.385566	0.821934
C80	C	0.229383	-0.135566	1.071934
C81	C	-0.598685	-0.882621	0.324911
C82	C	-0.348685	-0.632621	0.574911
C83	C	-0.098685	-0.382621	0.824911
C84	C	0.151315	-0.132621	1.074911
C85	C	-0.338119	-0.892637	0.478447
C86	C	-0.088119	-0.642637	0.728447
C87	C	0.161881	-0.392637	0.978447
C88	C	0.411881	-0.142637	1.228447
C89	C	-0.338112	-0.892659	0.548089
C90	C	-0.088112	-0.642659	0.798089
C91	C	0.161888	-0.392659	1.048089
C92	C	0.411888	-0.142659	1.298089
C93	C	-0.635332	-0.921325	0.286291
C94	C	-0.385332	-0.671325	0.536291
C95	C	-0.135332	-0.421325	0.786291
C96	C	0.114668	-0.171325	1.036291
C97	C	-0.708685	-0.918559	0.289094
C98	C	-0.458685	-0.668559	0.539094
C99	C	-0.208685	-0.418559	0.789094
C100	C	0.041315	-0.168559	1.039094
C101	C	-0.745389	-0.877085	0.330515
C102	C	-0.495389	-0.627085	0.580515
C103	C	-0.245389	-0.377085	0.830515
C104	C	0.004611	-0.127085	1.080515
C105	C	-0.708736	-0.838379	0.369139
C106	C	-0.458736	-0.588379	0.619139
C107	C	-0.208736	-0.338379	0.869139
C108	C	0.041264	-0.088379	1.119139
C109	C	-0.635385	-0.841149	0.366338
C110	C	-0.385385	-0.591149	0.616338
C111	C	-0.135385	-0.341149	0.866338
C112	C	0.114615	-0.091149	1.116338
C113	C	-0.966864	-0.866720	0.340976
C114	C	-0.716864	-0.616720	0.590976
C115	C	-0.466864	-0.366720	0.840976
C116	C	-0.216864	-0.116720	1.090976
C117	C	-1.040221	-0.863952	0.343772
C118	C	-0.790221	-0.613952	0.593772
C119	C	-0.540221	-0.363952	0.843772
C120	C	-0.290221	-0.113952	1.093772
C121	C	-1.040164	-0.944133	0.263728
C122	C	-0.790164	-0.694133	0.513728
C123	C	-0.540164	-0.444133	0.763728
C124	C	-0.290164	-0.194133	1.013728
C125	C	-0.966812	-0.946896	0.260928
C126	C	-0.716812	-0.696896	0.510928
C127	C	-0.466812	-0.446896	0.760928
C128	C	-0.216812	-0.196896	1.010928
C129	C	-0.930165	-0.908193	0.299555
C130	C	-0.680165	-0.658193	0.549555
C131	C	-0.430165	-0.408193	0.799555
C132	C	-0.180165	-0.158193	1.049555
C133	C	-0.820367	-0.874256	0.333380
C134	C	-0.570367	-0.624256	0.583380
C135	C	-0.320367	-0.374256	0.833380
C136	C	-0.070367	-0.124256	1.083380
C137	C	-0.855188	-0.911026	0.296692
C138	C	-0.605188	-0.661026	0.546692
C139	C	-0.355188	-0.411026	0.796692
C140	C	-0.105188	-0.161026	1.046692
C141	C	-0.154936	-0.899647	0.308102
C142	C	0.095064	-0.649647	0.558102
C143	C	0.345064	-0.399647	0.808102
C144	C	0.595064	-0.149647	1.058102
C145	C	-0.076868	-0.902656	0.305152
C146	C	0.173132	-0.652656	0.555152
C147	C	0.423132	-0.402656	0.805152
C148	C	0.673132	-0.152656	1.055152
C149	C	-0.338096	-1.056009	0.315097
C150	C	-0.088096	-0.806009	0.565097
C151	C	0.161904	-0.556009	0.815097
C152	C	0.411904	-0.306009	1.065097
C153	C	-0.338080	-1.125651	0.315127
C154	C	-0.088080	-0.875651	0.565127
C155	C	0.161920	-0.625651	0.815127
C156	C	0.411920	-0.375651	1.065127
C157	C	-0.383181	-0.625735	0.356651
C158	C	-0.133181	-0.375735	0.606651
C159	C	0.116819	-0.125735	0.856651
C160	C	0.366819	0.124265	1.106651
C161	C	-0.383164	-0.560300	0.356679
C162	C	-0.133164	-0.310300	0.606679
C163	C	0.116836	-0.060300	0.856679
C164	C	0.366836	0.189700	1.106679
C165	C	-0.338176	-0.529285	0.314982
C166	C	-0.088176	-0.279285	0.564982
C167	C	0.161824	-0.029285	0.814982
C168	C	0.411824	0.220715	1.064982
C169	C	-0.293189	-0.563711	0.273266
C170	C	-0.043189	-0.313711	0.523266
C171	C	0.206811	-0.063711	0.773266
C172	C	0.456811	0.186289	1.023266
C173	C	-0.293202	-0.629145	0.273244
C174	C	-0.043202	-0.379145	0.523244
C175	C	0.206798	-0.129145	0.773244
C176	C	0.456798	0.120855	1.023244
C177	C	-0.332517	-0.425776	0.258362
C178	C	-0.082517	-0.175776	0.508362
C179	C	0.167483	0.074224	0.758362
C180	C	0.417483	0.324224	1.008362
C181	C	-0.332509	-0.360343	0.258383
C182	C	-0.082509	-0.110343	0.508383
C183	C	0.167491	0.139657	0.758383
C184	C	0.417491	0.389657	1.008383
C185	C	-0.338130	-0.327466	0.315049
C186	C	-0.088130	-0.077466	0.565049
C187	C	0.161870	0.172534	0.815049
C188	C	0.411870	0.422534	1.065049
C189	C	-0.343774	-0.360030	0.371698
C190	C	-0.093774	-0.110030	0.621698
C191	C	0.156226	0.139970	0.871698
C192	C	0.406226	0.389970	1.121698
C193	C	-0.343788	-0.425463	0.371676
C194	C	-0.093788	-0.175463	0.621676
C195	C	0.156212	0.074537	0.871676
C196	C	0.406212	0.324537	1.121676
C197	C	-0.338156	-0.458334	0.315001
C198	C	-0.088156	-0.208334	0.565001
C199	C	0.161844	0.041666	0.815001
C200	C	0.411844	0.291666	1.065001
C201	C	-0.383092	-0.222096	0.356795
C202	C	-0.133092	0.027904	0.606795
C203	C	0.116908	0.277904	0.856795
C204	C	0.366908	0.527904	1.106795
C205	C	-0.383070	-0.156661	0.356824
C206	C	-0.133070	0.093339	0.606824
C207	C	0.116930	0.343339	0.856824
C208	C	0.366930	0.593339	1.106824
C209	C	-0.293098	-0.160073	0.273405
C210	C	-0.043098	0.089927	0.523405
C211	C	0.206902	0.339927	0.773405
C212	C	0.456902	0.589927	1.023405
C213	C	-0.293117	-0.225508	0.273383
C214	C	-0.043117	0.024492	0.523383
C215	C	0.206883	0.274492	0.773383
C216	C	0.456883	0.524492	1.023383
C217	C	-0.338117	-0.256516	0.315077
C218	C	-0.088117	-0.006516	0.565077
C219	C	0.161883	0.243484	0.815077
C220	C	0.411883	0.493484	1.065077
C221	C	-0.338096	-0.892570	0.152236
C222	C	-0.088096	-0.642570	0.402236
C223	C	0.161904	-0.392570	0.652236
C224	C	0.411904	-0.142570	0.902236
C225	C	-0.337904	-0.892676	0.082588
C226	C	-0.087904	-0.642676	0.332588
C227	C	0.162096	-0.392676	0.582588
C228	C	0.412096	-0.142676	0.832588
C229	C	-0.293179	-0.934463	0.579123
C230	C	-0.043179	-0.684463	0.829123
C231	C	0.206821	-0.434463	1.079123
C232	C	0.456821	-0.184463	1.329123
C233	C	-0.293149	-0.934463	0.644557
C234	C	-0.043149	-0.684463	0.894557
C235	C	0.206851	-0.434463	1.144557
C236	C	0.456851	-0.184463	1.394557
C237	C	-0.338065	-0.892666	0.678955
C238	C	-0.088065	-0.642666	0.928955
C239	C	0.161935	-0.392666	1.178955
C240	C	0.411935	-0.142666	1.428955
C241	C	-0.383001	-0.850854	0.647913
C242	C	-0.133001	-0.600854	0.897913
C243	C	0.116999	-0.350854	1.147913
C244	C	0.366999	-0.100854	1.397913
C245	C	-0.383025	-0.850851	0.582480
C246	C	-0.133025	-0.600851	0.832480
C247	C	0.116975	-0.350851	1.082480
C248	C	0.366975	-0.100851	1.332480
C249	C	-0.401308	-0.885286	0.785023
C250	C	-0.151308	-0.635286	1.035023
C251	C	0.098692	-0.385286	1.285023
C252	C	0.348692	-0.135286	1.535023
C253	C	-0.401285	-0.885294	0.850455
C254	C	-0.151285	-0.635294	1.100455
C255	C	0.098715	-0.385294	1.350455
C256	C	0.348715	-0.135294	1.600455
C257	C	-0.337990	-0.892672	0.880773
C258	C	-0.087990	-0.642672	1.130773
C259	C	0.162010	-0.392672	1.380773
C260	C	0.412010	-0.142672	1.630773
C261	C	-0.274717	-0.900056	0.845651
C262	C	-0.024717	-0.650056	1.095651
C263	C	0.225283	-0.400056	1.345651
C264	C	0.475283	-0.150056	1.595651
C265	C	-0.274741	-0.900053	0.780218
C266	C	-0.024741	-0.650053	1.030218
C267	C	0.225259	-0.400053	1.280218
C268	C	0.475259	-0.150053	1.530218
C269	C	-0.338043	-0.892664	0.749907
C270	C	-0.088043	-0.642664	0.999907
C271	C	0.161957	-0.392664	1.249907
C272	C	0.411957	-0.142664	1.499907
C273	C	-0.293021	-0.934479	0.982759
C274	C	-0.043021	-0.684479	1.232759
C275	C	0.206979	-0.434479	1.482759
C276	C	0.456979	-0.184479	1.732759
C277	C	-0.292989	-0.934475	1.048194
C278	C	-0.042989	-0.684475	1.298194
C279	C	0.207011	-0.434475	1.548194
C280	C	0.457011	-0.184475	1.798194
C281	C	-0.382847	-0.850869	1.051549
C282	C	-0.132847	-0.600869	1.301549
C283	C	0.117153	-0.350869	1.551549
C284	C	0.367153	-0.100869	1.801549
C285	C	-0.382872	-0.850870	0.986115
C286	C	-0.132872	-0.600870	1.236115
C287	C	0.117128	-0.350870	1.486115
C288	C	0.367128	-0.100870	1.736115
C289	C	-0.337960	-0.892678	0.951723
C290	C	-0.087960	-0.642678	1.201723
C291	C	0.162040	-0.392678	1.451723
C292	C	0.412040	-0.142678	1.701723
H293	H	-0.605453	-0.955095	0.252559
H294	H	-0.355453	-0.705095	0.502559
H295	H	-0.105453	-0.455095	0.752559
H296	H	0.144547	-0.205095	1.002559
F297	F	-0.816124	-0.955167	0.252614
F298	F	-0.566124	-0.705167	0.502614
F299	F	-0.316124	-0.455167	0.752614
F300	F	-0.066124	-0.205167	1.002614
F301	F	-0.430801	-0.806368	0.684523
F302	F	-0.180801	-0.556368	0.934523
F303	F	0.069199	-0.306368	1.184523
F304	F	0.319199	-0.056368	1.434523
H305	H	-0.419466	-0.816832	0.960847
H306	H	-0.169466	-0.566832	1.210847
H307	H	0.080534	-0.316832	1.460847
H308	H	0.330534	-0.066832	1.710847
F309	F	-0.468626	-0.877441	0.887828
F310	F	-0.218626	-0.627441	1.137828
F311	F	0.031374	-0.377441	1.387828
F312	F	0.281374	-0.127441	1.637828
F313	F	-0.245219	-0.978972	0.946154
F314	F	0.004781	-0.728972	1.196154
F315	F	0.254781	-0.478972	1.446154
F316	F	0.504781	-0.228972	1.696154
H317	H	-1.070103	-0.830186	0.377512
H318	H	-0.820103	-0.580186	0.627512
H319	H	-0.570103	-0.330186	0.877512
H320	H	-0.320103	-0.080186	1.127512
H321	H	-0.419823	-0.650977	0.390603
H322	H	-0.169823	-0.400977	0.640603
H323	H	0.080177	-0.150977	0.890603
H324	H	0.330177	0.099023	1.140603
F325	F	-0.430981	-0.255099	0.401172
F326	F	-0.180981	-0.005099	0.651172
F327	F	0.069019	0.244901	0.901172
F328	F	0.319019	0.494901	1.151172
H329	H	-0.256494	-0.253531	0.239412
H330	H	-0.006494	-0.003531	0.489412
H331	H	0.243506	0.246469	0.739412
H332	H	0.493506	0.496469	0.989412
F333	F	-0.927872	-0.825527	0.382085
F334	F	-0.677872	-0.575527	0.632085
F335	F	-0.427872	-0.325527	0.882085
F336	F	-0.177872	-0.075527	1.132085
H337	H	-1.070010	-0.975644	0.232282
H338	H	-0.820010	-0.725644	0.482282
H339	H	-0.570010	-0.475644	0.732282
H340	H	-0.320010	-0.225644	0.982282
H341	H	-0.327917	-0.333835	0.212256
H342	H	-0.077917	-0.083835	0.462256
H343	H	0.172083	0.166165	0.712256
H344	H	0.422083	0.416165	0.962256
H345	H	-0.327937	-0.452538	0.212214
H346	H	-0.077937	-0.202538	0.462214
H347	H	0.172063	0.047462	0.712214
H348	H	0.422063	0.297462	0.962214
F349	F	-0.747685	-0.959756	0.247991
F350	F	-0.497685	-0.709756	0.497991
F351	F	-0.247685	-0.459756	0.747991
F352	F	0.002315	-0.209756	0.997991
H353	H	-0.605547	-0.809633	0.397787
H354	H	-0.355547	-0.559633	0.647787
H355	H	-0.105547	-0.309633	0.897787
H356	H	0.144453	-0.059633	1.147787
F357	F	-0.927754	-0.991046	0.216850
F358	F	-0.677754	-0.741046	0.466850
F359	F	-0.427754	-0.491046	0.716850
F360	F	-0.177754	-0.241046	0.966850
F361	F	-0.747801	-0.794243	0.413225
F362	F	-0.497801	-0.544243	0.663225
F363	F	-0.247801	-0.294243	0.913225
F364	F	0.002199	-0.044243	1.163225
F365	F	-0.349792	-0.460118	0.431963
F366	F	-0.099792	-0.210118	0.681963
F367	F	0.150208	0.039882	0.931963
F368	F	0.400208	0.289882	1.181963
F369	F	-0.859437	-0.830117	0.377461
F370	F	-0.609437	-0.580117	0.627461
F371	F	-0.359437	-0.330117	0.877461
F372	F	-0.109437	-0.080117	1.127461
F373	F	-0.245215	-0.127070	0.229031
F374	F	0.004785	0.122930	0.479031
F375	F	0.254785	0.372930	0.729031
F376	F	0.504785	0.622930	0.979031
F377	F	-0.431037	-0.523662	0.401077
F378	F	-0.181037	-0.273662	0.651077
F379	F	0.068963	-0.023662	0.901077
F380	F	0.318963	0.226338	1.151077
F381	F	-0.349754	-0.325046	0.432012
F382	F	-0.099754	-0.075046	0.682012
F383	F	0.150246	0.174954	0.932012
F384	F	0.400246	0.424954	1.182012
H385	H	-0.419695	-0.128639	0.390795
H386	H	-0.169695	0.121361	0.640795
H387	H	0.080305	0.371361	0.890795
H388	H	0.330305	0.621361	1.140795
H389	H	-0.256558	-0.538455	0.239317
H390	H	-0.006558	-0.288455	0.489317
H391	H	0.243442	-0.038455	0.739317
H392	H	0.493442	0.211545	0.989317
F393	F	-0.245328	-0.665776	0.228846
F394	F	0.004672	-0.415776	0.478846
F395	F	0.254672	-0.165776	0.728846
F396	F	0.504672	0.084224	0.978846
H397	H	-0.223177	-0.906066	0.870335
H398	H	0.026823	-0.656066	1.120335
H399	H	0.276823	-0.406066	1.370335
H400	H	0.526823	-0.156066	1.620335
F401	F	-0.245377	-0.978957	0.542525
F402	F	0.004623	-0.728957	0.792525
F403	F	0.254623	-0.478957	1.042525
F404	F	0.504623	-0.228957	1.292525
F405	F	-0.468680	-0.877447	0.752762
F406	F	-0.218680	-0.627447	1.002762
F407	F	0.031320	-0.377447	1.252762
F408	F	0.281320	-0.127447	1.502762
F409	F	-0.245312	-0.978949	0.677592
F410	F	0.004688	-0.728949	0.927592
F411	F	0.254688	-0.478949	1.177592
F412	F	0.504688	-0.228949	1.427592
H413	H	-0.223221	-0.906064	0.751624
H414	H	0.026779	-0.656064	1.001624
H415	H	0.276779	-0.406064	1.251624
H416	H	0.526779	-0.156064	1.501624
F417	F	-0.245171	-0.978978	1.081223
F418	F	0.004829	-0.728978	1.331223
F419	F	0.254829	-0.478978	1.581223
F420	F	0.504829	-0.228978	1.831223
F421	F	-0.430645	-0.806380	1.088153
F422	F	-0.180645	-0.556380	1.338153
F423	F	0.069355	-0.306380	1.588153
F424	F	0.319355	-0.056380	1.838153
F425	F	-0.430851	-0.806355	0.549450
F426	F	-0.180851	-0.556355	0.799450
F427	F	0.069149	-0.306355	1.049450
F428	F	0.319149	-0.056355	1.299450
