data_functionalizedCrystal
_audit_creation_method	'MofGen! by Chris Wilmer'
_symmetry_space_group_name_H-M	'P1'
_symmetry_Int_Tables_number	1
_symmetry_cell_setting	triclinic
loop_
_symmetry_equiv_pos_as_xyz
  x,y,z
_cell_length_a	23.532407
_cell_length_b	23.532357
_cell_length_c	9.130307
_cell_angle_alpha	89.991197
_cell_angle_beta	90.003827
_cell_angle_gamma	82.838485
loop_
_atom_site_label
_atom_site_type_symbol
_atom_site_fract_x
_atom_site_fract_y
_atom_site_fract_z
O1	O	0.755245	0.069136	-0.121634
O2	O	0.589380	0.079139	-0.121680
O3	O	0.677329	-0.008796	-0.121625
O4	O	0.667296	0.157071	-0.121688
O5	O	0.677326	-0.008797	0.121974
O6	O	0.589377	0.079138	0.121919
O7	O	0.755242	0.069135	0.121965
Cu8	Cu	0.672309	0.074136	0.144185
Cu9	Cu	0.672312	0.074137	-0.143899
O10	O	0.667293	0.157070	0.121911
C11	C	0.568162	0.078884	0.000115
C12	C	0.504945	0.078118	0.000099
C13	C	0.105834	0.125353	0.000147
C14	C	0.046434	0.124641	0.000156
O15	O	0.009681	0.168428	0.000193
N16	N	0.023817	0.072364	0.000174
C17	C	0.060604	0.020794	0.000197
O18	O	0.035912	-0.023737	0.000214
C19	C	0.120003	0.021506	0.000198
C20	C	0.142616	0.073787	0.000166
C21	C	0.128448	0.177629	0.000116
C22	C	0.187844	0.178341	0.000104
C23	C	0.224626	0.126775	0.000123
C24	C	0.202012	0.074498	0.000154
C25	C	0.156788	-0.030063	0.000231
C26	C	0.216191	-0.029346	0.000234
C27	C	0.238804	0.022935	0.000202
C28	C	0.298190	0.023644	0.000160
N29	N	0.320807	0.075922	0.000143
C30	C	0.284025	0.127487	0.000124
C31	C	-0.064139	0.019303	0.000197
C32	C	-0.123536	0.018590	0.000185
C33	C	-0.137702	0.122437	0.000147
C34	C	-0.078303	0.123149	0.000148
C35	C	-0.041522	0.071580	0.000179
C36	C	0.408761	0.128977	0.000098
C37	C	0.468163	0.129684	0.000080
C38	C	0.482324	0.025836	0.000125
C39	C	0.422927	0.025130	0.000136
C40	C	0.386147	0.076704	0.000127
O41	O	0.334977	-0.020120	0.000130
O42	O	0.308725	0.172011	0.000127
C43	C	0.677076	-0.030013	0.000179
C44	C	0.676322	-0.093232	0.000192
C45	C	0.671587	-0.485243	-0.132674
C46	C	0.670869	-0.544642	-0.132683
O47	O	0.670480	-0.575358	-0.245612
N48	N	0.670512	-0.574354	0.000101
C49	C	0.670866	-0.544662	0.132902
O50	O	0.670496	-0.575389	0.245845
C51	C	0.671580	-0.485263	0.132909
C52	C	0.671943	-0.455556	0.000117
C53	C	0.671949	-0.455535	-0.265456
C54	C	0.672667	-0.396140	-0.265447
C55	C	0.673023	-0.366452	-0.132656
C56	C	0.672661	-0.396160	0.000126
C57	C	0.671930	-0.455572	0.265709
C58	C	0.672642	-0.396169	0.265705
C59	C	0.673005	-0.366461	0.132912
C60	C	0.673735	-0.307078	0.132926
N61	N	0.674092	-0.277366	0.000142
C62	C	0.673736	-0.307054	-0.132649
C63	C	0.669368	-0.669404	0.132878
C64	C	0.668659	-0.728802	0.132872
C65	C	0.668661	-0.728778	-0.132713
C66	C	0.669374	-0.669379	-0.132706
C67	C	0.669725	-0.639692	0.000094
C68	C	0.675245	-0.182319	-0.132620
C69	C	0.675966	-0.122919	-0.132599
C70	C	0.675961	-0.122948	0.132986
C71	C	0.675243	-0.182344	0.132966
C72	C	0.674883	-0.212027	0.000151
O73	O	0.674122	-0.276324	0.245798
O74	O	0.674099	-0.276319	-0.245572
C75	C	0.776459	0.069390	0.000168
C76	C	0.839676	0.070156	0.000174
C77	C	0.667545	0.178287	0.000103
C78	C	0.668300	0.241506	0.000080
N79	N	0.672311	0.074135	0.346807
N80	N	0.672315	0.074134	-0.346522
C81	C	0.750221	-0.003709	0.346846
C82	C	0.789180	-0.042630	0.423531
C83	C	0.789186	-0.042631	0.576865
C84	C	0.750227	-0.003707	0.653516
C85	C	0.711268	0.035214	0.576830
C86	C	0.711268	0.035211	0.423493
C87	C	0.633356	0.113055	0.576792
C88	C	0.633352	0.113059	0.423459
C89	C	0.594398	0.151978	0.653443
C90	C	0.555441	0.190902	0.576758
C91	C	0.555437	0.190902	0.423415
C92	C	0.594394	0.151980	0.346773
H93	H	-0.059896	0.165721	0.000130
C94	C	0.832023	-0.085453	0.339204
N95	N	0.864290	-0.117710	0.275692
H96	H	-0.141942	-0.023982	0.000188
H97	H	0.523721	0.222589	0.639177
H98	H	0.671635	-0.479750	0.373843
C99	C	0.594392	0.151974	0.178102
N100	N	0.594392	0.151967	0.051057
H101	H	0.594402	0.151974	0.778296
C102	C	-0.023683	-0.037431	0.000206
N103	N	0.006785	-0.080164	0.000213
C104	C	0.832042	-0.085445	0.661221
N105	N	0.864322	-0.117693	0.724758
H106	H	0.206249	0.220913	0.000078
C107	C	0.256648	-0.086078	0.000261
N108	N	0.287118	-0.128808	0.000276
C109	C	0.493033	0.187199	0.000055
N110	N	0.511764	0.230519	0.000044
H111	H	0.138388	-0.072635	0.000259
C112	C	0.512588	0.233728	0.339073
N113	N	0.480316	0.265989	0.275552
H114	H	0.404515	-0.017442	0.000140
C115	C	0.674859	-0.214964	-0.278722
N116	N	0.674575	-0.239553	-0.388767
H117	H	0.378821	0.170974	0.000095
H118	H	0.098505	0.219623	0.000106
H119	H	-0.167662	0.164425	0.000139
C120	C	0.522795	-0.030883	0.000163
N121	N	0.553280	-0.073604	0.000207
C122	C	0.750222	-0.003709	0.178174
N123	N	0.750223	-0.003710	0.051129
C124	C	0.676363	-0.090244	-0.278687
N125	N	0.676661	-0.065635	-0.388718
C126	C	0.671582	-0.488185	-0.411550
N127	N	0.671318	-0.512775	-0.521597
H128	H	0.672961	-0.371957	-0.373580
H129	H	0.750230	-0.003715	0.778368
H130	H	0.669668	-0.645195	-0.240838
C131	C	0.668263	-0.761445	-0.278787
N132	N	0.667963	-0.786051	-0.388803
H133	H	0.668372	-0.752986	0.241005
H134	H	0.669655	-0.645237	0.241026
H135	H	0.672920	-0.372000	0.373849
H136	H	0.676253	-0.098766	0.241101
C137	C	0.674849	-0.215024	0.279043
N138	N	0.674547	-0.239634	0.389072
