data_functionalizedCrystal
_audit_creation_method	'MofGen! by Chris Wilmer'
_symmetry_space_group_name_H-M	'P1'
_symmetry_Int_Tables_number	1
_symmetry_cell_setting	triclinic
loop_
_symmetry_equiv_pos_as_xyz
  x,y,z
_cell_length_a	18.050591
_cell_length_b	19.077068
_cell_length_c	19.077569
_cell_angle_alpha	89.935763
_cell_angle_beta	87.679079
_cell_angle_gamma	87.676702
loop_
_atom_site_label
_atom_site_type_symbol
_atom_site_fract_x
_atom_site_fract_y
_atom_site_fract_z
Zn1	Zn	1.141450	0.263877	-0.408659
Zn2	Zn	1.641450	0.763877	0.091341
Zn3	Zn	1.131394	0.386107	-0.295864
Zn4	Zn	1.631394	0.886107	0.204136
Zn5	Zn	1.012082	0.268609	-0.291152
Zn6	Zn	1.512082	0.768609	0.208848
Zn7	Zn	1.012436	0.381343	-0.413319
Zn8	Zn	1.512436	0.881343	0.086681
O9	O	1.074340	0.324984	-0.352248
O10	O	1.574340	0.824984	0.147752
O11	O	1.244041	0.280105	-0.393718
O12	O	1.744041	0.780105	0.106282
O13	O	1.111210	0.374494	-0.196906
O14	O	1.611210	0.874494	0.303094
O15	O	1.033303	0.169648	-0.302817
O16	O	1.533303	0.669648	0.197183
O17	O	1.236653	0.369906	-0.310848
O18	O	1.736653	0.869906	0.189152
O19	O	1.128349	0.166172	-0.389149
O20	O	1.628349	0.666172	0.110851
O21	O	1.023553	0.288169	-0.193444
O22	O	1.523553	0.788169	0.306556
O23	O	0.908204	0.283550	-0.307336
O24	O	1.408204	0.783550	0.192664
O25	O	1.033907	0.361788	-0.511034
O26	O	1.533907	0.861788	-0.011034
O27	O	0.908464	0.366375	-0.397092
O28	O	1.408464	0.866375	0.102908
O29	O	1.128692	0.275486	-0.507610
O30	O	1.628692	0.775486	-0.007610
O31	O	1.111554	0.483808	-0.315366
O32	O	1.611554	0.983808	0.184634
O33	O	1.024156	0.480309	-0.401660
O34	O	1.524156	0.980309	0.098340
C35	C	1.066823	0.507555	-0.359546
C36	C	1.566823	1.007555	0.140454
C37	C	1.063676	0.585658	-0.362691
C38	C	1.563676	1.085658	0.137309
C39	C	0.881388	0.324960	-0.352208
C40	C	1.381388	0.824960	0.147792
C41	C	0.798842	0.324965	-0.352209
C42	C	1.298842	0.824965	0.147791
C43	C	1.082461	0.317578	-0.535531
C44	C	1.582461	0.817578	-0.035531
C45	C	1.085921	0.314422	-0.613635
C46	C	1.585921	0.814422	-0.113635
C47	C	0.599235	0.279866	-0.303505
C48	C	1.099235	0.779866	0.196495
C49	C	0.546445	0.344653	-0.288783
C50	C	1.046445	0.844653	0.211217
C51	C	0.647712	0.324985	-0.352241
C52	C	1.147712	0.824985	0.147759
C53	C	0.553419	0.260221	-0.366962
C54	C	1.053419	0.760221	0.133038
C55	C	0.501727	0.324999	-0.352271
C56	C	1.001727	0.824999	0.147729
C57	C	0.596006	0.389807	-0.337487
C58	C	1.096006	0.889807	0.162513
C59	C	0.602988	0.305331	-0.415694
C60	C	1.102988	0.805331	0.084306
C61	C	0.550219	0.370161	-0.400998
C62	C	1.050219	0.870161	0.099002
C63	C	0.731810	0.324976	-0.352222
C64	C	1.231810	0.824976	0.147778
C65	C	0.417631	0.325015	-0.352291
C66	C	0.917631	0.825015	0.147709
C67	C	1.268047	0.325009	-0.352289
C68	C	1.768047	0.825009	0.147711
C69	C	1.350593	0.325020	-0.352306
C70	C	1.850593	0.825020	0.147694
C71	C	1.081908	0.141700	-0.344938
C72	C	1.581908	0.641700	0.155062
C73	C	1.085133	0.063595	-0.341822
C74	C	1.585133	0.563595	0.158178
C75	C	1.107739	0.624149	-0.319278
C76	C	1.607739	1.124149	0.180722
C77	C	1.104784	0.697535	-0.322240
C78	C	1.604784	1.197535	0.177760
C79	C	1.057760	0.732430	-0.368613
C80	C	1.557760	1.232430	0.131387
C81	C	1.013696	0.693934	-0.412032
C82	C	1.513696	1.193934	0.087968
C83	C	1.016655	0.620549	-0.409072
C84	C	1.516655	1.120549	0.090928
C85	C	1.044028	0.951714	-0.382281
C86	C	1.544028	1.451714	0.117719
C87	C	1.041070	1.025105	-0.385236
C88	C	1.541070	1.525105	0.114764
C89	C	1.132160	1.028701	-0.295445
C90	C	1.632160	1.528701	0.204555
C91	C	1.135112	0.955314	-0.292487
C92	C	1.635112	1.455314	0.207513
C93	C	1.091050	0.916825	-0.335908
C94	C	1.591050	1.416825	0.164092
N95	N	1.054737	0.807442	-0.371641
N96	N	1.554737	1.307442	0.128359
N97	N	1.094078	0.841814	-0.332883
N98	N	1.594078	1.341814	0.167117
C99	C	1.038198	0.357868	-0.652112
C100	C	1.538198	0.857868	-0.152112
C101	C	1.041456	0.354903	-0.725500
C102	C	1.541456	0.854903	-0.225500
C103	C	1.092433	0.308486	-0.760408
C104	C	1.592433	0.808486	-0.260408
C105	C	1.140161	0.265038	-0.721926
C106	C	1.640161	0.765038	-0.221926
C107	C	1.136907	0.268008	-0.648540
C108	C	1.636907	0.768008	-0.148540
C109	C	1.107462	0.294790	-0.979697
C110	C	1.607462	0.794790	-0.479697
C111	C	1.110711	0.291823	-1.053088
C112	C	1.610711	0.791823	-0.553088
C113	C	1.012006	0.381688	-1.056656
C114	C	1.512006	0.881688	-0.556656
C115	C	1.008753	0.384651	-0.983269
C116	C	1.508753	0.884651	-0.483269
C117	C	1.056484	0.341205	-0.944793
C118	C	1.556484	0.841205	-0.444793
N119	N	1.095763	0.305453	-0.835422
N120	N	1.595763	0.805453	-0.335422
N121	N	1.053157	0.344243	-0.869781
N122	N	1.553157	0.844243	-0.369781
C123	C	1.066297	0.332311	-0.169677
C124	C	1.566297	0.832311	0.330323
C125	C	1.062988	0.335269	-0.091565
C126	C	1.562988	0.835269	0.408435
H127	H	0.620757	0.241754	-0.262250
H128	H	1.120757	0.741754	0.237750
H129	H	1.146328	0.259414	-0.948379
H130	H	1.646328	0.759414	-0.448379
C131	C	1.180088	0.844419	-0.248078
C132	C	1.680088	1.344419	0.251922
C133	C	1.186799	0.916960	-0.241511
C134	C	1.686799	1.416960	0.258489
H135	H	1.211992	0.820742	-0.216601
H136	H	1.711992	1.320742	0.283399
H137	H	1.193499	0.830459	-0.294809
H138	H	1.693499	1.330459	0.205191
H139	H	1.130220	0.832860	-0.237265
H140	H	1.630220	1.332860	0.262735
H141	H	1.236667	0.928519	-0.252329
H142	H	1.736667	1.428519	0.247671
H143	H	1.173393	0.930925	-0.194769
H144	H	1.673393	1.430925	0.305231
C145	C	1.168084	1.142791	-0.260123
C146	C	1.668084	1.642791	0.239877
C147	C	1.180604	1.071010	-0.247731
C148	C	1.680604	1.571010	0.252269
H149	H	1.198001	1.168908	-0.230671
H150	H	1.698001	1.668908	0.269329
H151	H	1.117259	1.155276	-0.250268
H152	H	1.617259	1.655276	0.249732
H153	H	1.180515	1.152870	-0.307835
H154	H	1.680515	1.652870	0.192165
H155	H	1.168168	1.060929	-0.200020
H156	H	1.668168	1.560929	0.299980
H157	H	1.231440	1.058520	-0.257582
H158	H	1.731440	1.558520	0.242418
C159	C	0.951341	1.014182	-0.473712
C160	C	1.451341	1.514182	0.026288
C161	C	0.989386	1.063462	-0.436220
C162	C	1.489386	1.563462	0.063780
H163	H	0.919439	1.037864	-0.505188
H164	H	1.419439	1.537864	-0.005188
H165	H	0.922749	0.986832	-0.441922
H166	H	1.422749	1.486832	0.058078
H167	H	0.986033	0.984436	-0.499462
H168	H	1.486033	1.484436	0.000538
H169	H	0.954694	1.093205	-0.410466
H170	H	1.454694	1.593205	0.089534
H171	H	1.017979	1.090824	-0.468015
H172	H	1.517979	1.590824	0.031985
H173	H	1.008150	0.920382	-0.417635
H174	H	1.508150	1.420382	0.082365
C175	C	0.968706	0.804830	-0.456432
C176	C	1.468706	1.304830	0.043568
C177	C	0.962004	0.732288	-0.463004
C178	C	1.462004	1.232288	0.036996
H179	H	0.936788	0.828506	-0.487897
H180	H	1.436788	1.328506	0.012103
H181	H	1.018563	0.816397	-0.467250
H182	H	1.518563	1.316397	0.032750
H183	H	0.955299	0.818784	-0.409690
H184	H	1.455299	1.318784	0.090310
H185	H	0.975416	0.718334	-0.509744
H186	H	1.475416	1.218334	-0.009744
H187	H	0.912136	0.720716	-0.452191
H188	H	1.412136	1.220716	0.047809
C189	C	1.268333	0.229914	-0.743180
C190	C	1.768333	0.729914	-0.243180
C191	C	1.196198	0.214017	-0.760296
C192	C	1.696198	0.714017	-0.260296
H193	H	1.302926	0.198416	-0.766871
H194	H	1.802926	0.698416	-0.266871
H195	H	1.273220	0.225464	-0.693973
H196	H	1.773220	0.725464	-0.193973
H197	H	1.277776	0.276644	-0.757100
H198	H	1.777776	0.776644	-0.257100
H199	H	1.186753	0.167289	-0.746371
H200	H	1.686753	0.667289	-0.246371
H201	H	1.191308	0.218461	-0.809513
H202	H	1.691308	0.718461	-0.309513
H203	H	1.140664	0.728871	-0.286887
H204	H	1.640664	1.228871	0.213113
H205	H	0.980775	0.589210	-0.444425
H206	H	1.480775	1.089210	0.055575
H207	H	1.146027	0.595743	-0.281513
H208	H	1.646027	1.095743	0.218487
C209	C	0.940978	0.446414	-0.663019
C210	C	1.440978	0.946414	-0.163019
C211	C	0.982171	0.408900	-0.613745
C212	C	1.482171	0.908900	-0.113745
H213	H	0.906396	0.477926	-0.639333
H214	H	1.406396	0.977926	-0.139333
H215	H	0.915096	0.414640	-0.690408
H216	H	1.415096	0.914640	-0.190408
H217	H	0.973508	0.472128	-0.692727
H218	H	1.473508	0.972128	-0.192727
H219	H	0.949641	0.383182	-0.584040
H220	H	1.449641	0.883182	-0.084040
H221	H	1.008054	0.440679	-0.586344
H222	H	1.508054	0.940679	-0.086344
H223	H	1.175768	0.232629	-0.617213
H224	H	1.675768	0.732629	-0.117213
C225	C	1.001447	0.472873	-1.142950
C226	C	1.501447	0.972873	-0.642950
C227	C	0.959549	0.429450	-1.098949
C228	C	1.459549	0.929450	-0.598949
H229	H	0.969061	0.502364	-1.169056
H230	H	1.469061	1.002364	-0.669056
H231	H	1.032263	0.444804	-1.174241
H232	H	1.532263	0.944804	-0.674241
H233	H	1.031424	0.500909	-1.115392
H234	H	1.531424	1.000909	-0.615392
H235	H	0.929576	0.401410	-1.126508
H236	H	1.429576	0.901410	-0.626508
H237	H	0.928721	0.457522	-1.067655
H238	H	1.428721	0.957522	-0.567655
H239	H	0.967253	0.422459	-0.954852
H240	H	1.467253	0.922459	-0.454852
H241	H	1.002595	0.390282	-0.756825
H242	H	1.502595	0.890282	-0.256825
H243	H	1.152221	0.254019	-1.081508
H244	H	1.652221	0.754019	-0.581508
H245	H	0.614732	0.444602	-0.324989
H246	H	1.114732	0.944602	0.175011
C247	C	0.537801	0.319783	-0.165390
C248	C	1.037801	0.819783	0.334610
C249	C	0.513066	0.367109	-0.216364
C250	C	1.013066	0.867109	0.283636
H251	H	0.517192	0.333642	-0.120682
H252	H	1.017192	0.833642	0.379318
H253	H	0.590399	0.319530	-0.164733
H254	H	1.090399	0.819530	0.335267
H255	H	0.522576	0.274083	-0.176179
H256	H	1.022576	0.774083	0.323821
H257	H	0.528297	0.412808	-0.205577
H258	H	1.028297	0.912808	0.294423
H259	H	0.460457	0.367369	-0.217019
H260	H	0.960457	0.867369	0.282981
C261	C	0.542836	0.489494	-0.441084
C262	C	1.042836	0.989494	0.058916
C263	C	0.521331	0.421736	-0.456654
C264	C	1.021331	0.921736	0.043346
H265	H	0.524995	0.521335	-0.475439
H266	H	1.024995	1.021335	0.024561
H267	H	0.595430	0.490044	-0.441115
H268	H	1.095430	0.990044	0.058885
H269	H	0.522654	0.503060	-0.396140
H270	H	1.022654	1.003060	0.103860
H271	H	0.541518	0.408168	-0.501596
H272	H	1.041518	0.908168	-0.001596
H273	H	0.468726	0.421185	-0.456630
H274	H	0.968726	0.921185	0.043370
H275	H	0.534560	0.205452	-0.379377
H276	H	1.034560	0.705452	0.120623
C277	C	0.615061	0.214971	-0.503388
C278	C	1.115061	0.714971	-0.003388
C279	C	0.636390	0.282851	-0.488093
C280	C	1.136390	0.782851	0.011907
H281	H	0.635689	0.201087	-0.548082
H282	H	1.135689	0.701087	-0.048082
H283	H	0.562489	0.214397	-0.503807
H284	H	1.062489	0.714397	-0.003807
H285	H	0.632553	0.183391	-0.468652
H286	H	1.132553	0.683391	0.031348
H287	H	0.618894	0.314432	-0.522826
H288	H	1.118894	0.814432	-0.022826
H289	H	0.688973	0.283430	-0.487679
H290	H	1.188973	0.783430	0.012321
