data_functionalizedCrystal
_audit_creation_method	'MofGen! by Chris Wilmer'
_symmetry_space_group_name_H-M	'P1'
_symmetry_Int_Tables_number	1
_symmetry_cell_setting	triclinic
loop_
_symmetry_equiv_pos_as_xyz
  x,y,z
_cell_length_a	15.297475
_cell_length_b	21.295417
_cell_length_c	15.296720
_cell_angle_alpha	80.360665
_cell_angle_beta	88.382886
_cell_angle_gamma	80.331503
loop_
_atom_site_label
_atom_site_type_symbol
_atom_site_fract_x
_atom_site_fract_y
_atom_site_fract_z
Zn1	Zn	1.253322	-0.489899	0.726527
Zn2	Zn	1.586656	-0.156566	1.059860
Zn3	Zn	1.919989	0.176768	1.393193
Zn4	Zn	1.278570	-0.580539	0.580029
Zn5	Zn	1.611904	-0.247205	0.913363
Zn6	Zn	1.945237	0.086128	1.246696
Zn7	Zn	1.132206	-0.454537	0.554773
Zn8	Zn	1.465539	-0.121204	0.888106
Zn9	Zn	1.798872	0.212130	1.221439
Zn10	Zn	1.106797	-0.574351	0.701159
Zn11	Zn	1.440131	-0.241018	1.034492
Zn12	Zn	1.773464	0.092316	1.367825
O13	O	1.192724	-0.524831	0.640622
O14	O	1.526057	-0.191498	0.973955
O15	O	1.859391	0.141835	1.307288
O16	O	1.379247	-0.519311	0.728280
O17	O	1.712580	-0.185978	1.061614
O18	O	2.045913	0.147355	1.394947
O19	O	1.280354	-0.551615	0.454106
O20	O	1.613688	-0.218281	0.787439
O21	O	1.947021	0.115052	1.120773
O22	O	1.148339	-0.371152	0.577603
O23	O	1.481672	-0.037819	0.910936
O24	O	1.815006	0.295515	1.244270
O25	O	1.397796	-0.585904	0.620649
O26	O	1.731130	-0.252570	0.953982
O27	O	2.064463	0.080763	1.287316
O28	O	1.237323	-0.397133	0.703790
O29	O	1.570656	-0.063799	1.037123
O30	O	1.903989	0.269534	1.370457
O31	O	1.172821	-0.459042	0.435550
O32	O	1.506154	-0.125708	0.768884
O33	O	1.839488	0.207625	1.102217
O34	O	1.006260	-0.453042	0.553004
O35	O	1.339593	-0.119708	0.886338
O36	O	1.672927	0.213625	1.219671
O37	O	1.105034	-0.575358	0.827097
O38	O	1.438368	-0.242025	1.160430
O39	O	1.771701	0.091309	1.493763
O40	O	0.987593	-0.541069	0.660554
O41	O	1.320926	-0.207735	0.993887
O42	O	1.654259	0.125598	1.327220
O43	O	1.212686	-0.513312	0.845734
O44	O	1.546019	-0.179978	1.179068
O45	O	1.879352	0.153355	1.512401
O46	O	1.255717	-0.667793	0.596050
O47	O	1.589051	-0.334460	0.929384
O48	O	1.922384	-0.001127	1.262717
O49	O	1.129516	-0.663248	0.685044
O50	O	1.462850	-0.329914	1.018377
O51	O	1.796183	0.003419	1.351710
C52	C	0.965144	-0.492547	0.601286
C53	C	1.298477	-0.159214	0.934619
C54	C	1.631811	0.174120	1.267953
C55	C	0.867781	-0.478753	0.584479
C56	C	1.201114	-0.145420	0.917812
C57	C	1.534447	0.187914	1.251146
C58	C	0.554611	-0.623425	0.760748
C59	C	0.887945	-0.290092	1.094081
C60	C	1.221278	0.043242	1.427414
C61	C	0.646089	-0.636390	0.776537
C62	C	0.979423	-0.303056	1.109870
C63	C	1.312756	0.030277	1.443203
C64	C	0.701516	-0.596982	0.728524
C65	C	1.034850	-0.263648	1.061857
C66	C	1.368183	0.069685	1.395190
C67	C	0.665457	-0.544607	0.664719
C68	C	0.998790	-0.211273	0.998052
C69	C	1.332123	0.122060	1.331386
C70	C	0.573971	-0.531644	0.648924
C71	C	0.907304	-0.198310	0.982257
C72	C	1.240637	0.135023	1.315590
C73	C	0.720876	-0.505200	0.616700
C74	C	1.054209	-0.171867	0.950033
C75	C	1.387543	0.161466	1.283366
C76	C	0.684816	-0.452825	0.552895
C77	C	1.018150	-0.119492	0.886228
C78	C	1.351483	0.213841	1.219562
C79	C	0.593339	-0.439865	0.537103
C80	C	0.926672	-0.106531	0.870436
C81	C	1.260005	0.226802	1.203770
C82	C	0.537912	-0.479273	0.585116
C83	C	0.871245	-0.145939	0.918449
C84	C	1.204578	0.187394	1.251783
C85	C	0.812362	-0.518163	0.632495
C86	C	1.145695	-0.184830	0.965828
C87	C	1.479029	0.148503	1.299162
C88	C	0.831721	-0.426382	0.520671
C89	C	1.165055	-0.093049	0.854004
C90	C	1.498388	0.240285	1.187338
C91	C	0.740243	-0.413417	0.504882
C92	C	1.073577	-0.080084	0.838216
C93	C	1.406910	0.253249	1.171549
C94	C	1.192620	-0.688363	0.640558
C95	C	1.525953	-0.355029	0.973892
C96	C	1.859287	-0.021696	1.307225
C97	C	1.192651	-0.758337	0.640574
C98	C	1.525984	-0.425003	0.973907
C99	C	1.859317	-0.091670	1.307241
C100	C	1.238945	-0.804673	0.706314
C101	C	1.572279	-0.471340	1.039648
C102	C	1.905612	-0.138007	1.372981
C103	C	1.238973	-0.870423	0.706341
C104	C	1.572306	-0.537089	1.039674
C105	C	1.905639	-0.203756	1.373008
C106	C	1.192717	-0.889832	0.640614
C107	C	1.526050	-0.556499	0.973947
C108	C	1.859383	-0.223165	1.307281
C109	C	1.146412	-0.843485	0.574868
C110	C	1.479745	-0.510152	0.908201
C111	C	1.813078	-0.176818	1.241535
C112	C	1.146379	-0.777737	0.574848
C113	C	1.479712	-0.444404	0.908181
C114	C	1.813045	-0.111071	1.241515
N115	N	1.199377	-0.984508	0.562817
N116	N	1.532710	-0.651175	0.896151
N117	N	1.866043	-0.317841	1.229484
N118	N	1.199413	-1.046967	0.562840
N119	N	1.532746	-0.713633	0.896173
N120	N	1.866079	-0.380300	1.229506
C121	C	1.192812	-1.087925	0.640671
C122	C	1.526146	-0.754592	0.974005
C123	C	1.859479	-0.421258	1.307338
N124	N	1.186191	-1.064068	0.718484
N125	N	1.519524	-0.730735	1.051818
N126	N	1.852858	-0.397401	1.385151
N127	N	1.186159	-1.001604	0.718462
N128	N	1.519493	-0.668271	1.051795
N129	N	1.852826	-0.334938	1.385128
C130	C	1.192747	-0.961123	0.640629
C131	C	1.526080	-0.627789	0.973962
C132	C	1.859414	-0.294456	1.307295
C133	C	1.239139	-1.205555	0.706446
C134	C	1.572472	-0.872222	1.039779
C135	C	1.905805	-0.538889	1.373112
C136	C	1.239159	-1.271305	0.706473
C137	C	1.572493	-0.937972	1.039806
C138	C	1.905826	-0.604638	1.373140
C139	C	1.146605	-1.244366	0.574993
C140	C	1.479938	-0.911033	0.908326
C141	C	1.813271	-0.577699	1.241660
C142	C	1.146578	-1.178618	0.574973
C143	C	1.479911	-0.845285	0.908306
C144	C	1.813245	-0.511951	1.241639
C145	C	1.192850	-1.159217	0.640699
C146	C	1.526183	-0.825884	0.974032
C147	C	1.859516	-0.492550	1.307365
C148	C	1.421192	-0.557242	0.680112
C149	C	1.754526	-0.223909	1.013445
C150	C	2.087859	0.109424	1.346778
C151	C	1.518552	-0.571054	0.696940
C152	C	1.851885	-0.237721	1.030273
C153	C	2.185219	0.095613	1.363607
C154	C	1.153209	-0.547589	0.869086
C155	C	1.486543	-0.214256	1.202419
C156	C	1.819876	0.119077	1.535753
C157	C	1.136371	-0.557287	0.966444
C158	C	1.469704	-0.223954	1.299777
C159	C	1.803037	0.109379	1.633110
C160	C	1.192849	-0.360667	0.640709
C161	C	1.526182	-0.027333	0.974042
C162	C	1.859515	0.306000	1.307376
C163	C	1.192902	-0.290710	0.640746
C164	C	1.526235	0.042624	0.974079
C165	C	1.859569	0.375957	1.307413
C166	C	1.232135	-0.502124	0.413055
C167	C	1.565468	-0.168791	0.746389
C168	C	1.898802	0.164543	1.079722
C169	C	1.249143	-0.492273	0.315727
C170	C	1.582477	-0.158939	0.649061
C171	C	1.915810	0.174394	0.982394
C172	C	1.313105	-0.455413	1.279696
C173	C	1.646439	-0.122079	1.613029
C174	C	1.979772	0.211254	1.946362
C175	C	1.328932	-0.446303	1.188224
C176	C	1.662265	-0.112969	1.521557
C177	C	1.995598	0.220364	1.854891
C178	C	1.280793	-0.474048	1.132775
C179	C	1.614126	-0.140715	1.466108
C180	C	1.947459	0.192619	1.799441
C181	C	1.216825	-0.510905	1.168805
C182	C	1.550158	-0.177572	1.502139
C183	C	1.883492	0.155762	1.835472
C184	C	1.201002	-0.520020	1.260287
C185	C	1.534335	-0.186687	1.593620
C186	C	1.867669	0.146647	1.926953
C187	C	1.168689	-0.538655	1.113366
C188	C	1.502023	-0.205322	1.446699
C189	C	1.835356	0.128012	1.780032
C190	C	1.104721	-0.575512	1.149396
C191	C	1.438055	-0.242179	1.482730
C192	C	1.771388	0.091155	1.816063
C193	C	1.088901	-0.584625	1.240869
C194	C	1.422234	-0.251292	1.574202
C195	C	1.755568	0.082042	1.907536
C196	C	1.137040	-0.556880	1.296318
C197	C	1.470373	-0.223547	1.629652
C198	C	1.803707	0.109787	1.962985
C199	C	1.184512	-0.529540	1.021884
C200	C	1.517846	-0.196207	1.355218
C201	C	1.851179	0.137127	1.688551
C202	C	1.072409	-0.594147	1.002475
C203	C	1.405742	-0.260814	1.335809
C204	C	1.739075	0.072519	1.669142
C205	C	1.056583	-0.603257	1.093947
C206	C	1.389916	-0.269924	1.427280
C207	C	1.723249	0.063410	1.760614
H208	H	0.563984	-0.397223	0.485140
H209	H	0.897317	-0.063890	0.818473
H210	H	1.230650	0.269444	1.151807
F211	F	0.701855	-0.357677	0.436979
F212	F	1.035188	-0.024344	0.770312
F213	F	1.368521	0.308989	1.103645
F214	F	1.288381	-1.184905	0.776398
F215	F	1.621714	-0.851572	1.109732
F216	F	1.955048	-0.518239	1.443065
H217	H	1.108936	-1.260168	0.521481
H218	H	1.442269	-0.926835	0.854815
H219	H	1.775602	-0.593501	1.188148
H220	H	1.276620	-0.788880	0.759834
H221	H	1.609953	-0.455547	1.093167
H222	H	1.943287	-0.122213	1.426501
H223	H	0.509476	-0.655509	0.799828
H224	H	0.842809	-0.322175	1.133161
H225	H	1.176143	0.011158	1.466494
H226	H	0.876851	-0.394293	0.481574
H227	H	1.210184	-0.060960	0.814907
H228	H	1.543518	0.272373	1.148240
H229	H	1.352298	-0.432831	1.324851
H230	H	1.685631	-0.099498	1.658184
H231	H	2.018965	0.233836	1.991517
H232	H	1.276662	-0.908157	0.759884
H233	H	1.609996	-0.574824	1.093217
H234	H	1.943329	-0.241490	1.426550
F235	F	1.120203	-0.566577	1.393676
F236	F	1.453536	-0.233243	1.727009
F237	F	1.786869	0.100090	2.060342
H238	H	1.381016	-0.416296	1.158895
H239	H	1.714350	-0.082962	1.492228
H240	H	2.047683	0.250371	1.825562
F241	F	1.097178	-0.864142	0.504920
F242	F	1.430511	-0.530809	0.838254
F243	F	1.763845	-0.197476	1.171587
F244	F	0.440547	-0.465474	0.568320
F245	F	0.773880	-0.132141	0.901653
F246	F	1.107214	0.201193	1.234986
F247	F	1.097102	-0.728420	0.504876
F248	F	1.430435	-0.395086	0.838210
F249	F	1.763768	-0.061753	1.171543
F250	F	1.297637	-0.464350	1.035422
F251	F	1.630970	-0.131017	1.368755
F252	F	1.964303	0.202317	1.702089
H253	H	1.036821	-0.614643	1.270203
H254	H	1.370155	-0.281309	1.603537
H255	H	1.703488	0.052024	1.936870
H256	H	1.108885	-1.140887	0.521438
H257	H	1.442218	-0.807554	0.854771
H258	H	1.775551	-0.474221	1.188105
F259	F	1.288425	-1.320621	0.776454
F260	F	1.621758	-0.987288	1.109788
F261	F	1.955092	-0.653955	1.443121
H262	H	1.004499	-0.633266	1.123296
H263	H	1.337832	-0.299933	1.456630
H264	H	1.671166	0.033400	1.789963
H265	H	1.033212	-0.616741	0.957328
H266	H	1.366545	-0.283408	1.290662
H267	H	1.699878	0.049926	1.623995
H268	H	0.841712	-0.560807	0.684446
H269	H	1.175046	-0.227474	1.017779
H270	H	1.508379	0.105860	1.351113
F271	F	1.252589	-0.490315	0.983548
F272	F	1.585923	-0.156982	1.316881
F273	F	1.919256	0.176351	1.650215
F274	F	0.684461	-0.692129	0.844438
F275	F	1.017794	-0.358796	1.177771
F276	F	1.351127	-0.025463	1.511105
H277	H	0.776001	-0.607540	0.741383
H278	H	1.109335	-0.274207	1.074717
H279	H	1.442668	0.059126	1.408050
