data_functionalizedCrystal
_audit_creation_method	'MofGen! by Chris Wilmer'
_symmetry_space_group_name_H-M	'P1'
_symmetry_Int_Tables_number	1
_symmetry_cell_setting	triclinic
loop_
_symmetry_equiv_pos_as_xyz
  x,y,z
_cell_length_a	15.944551
_cell_length_b	15.944551
_cell_length_c	15.072220
_cell_angle_alpha	89.997918
_cell_angle_beta	89.991993
_cell_angle_gamma	83.498738
loop_
_atom_site_label
_atom_site_type_symbol
_atom_site_fract_x
_atom_site_fract_y
_atom_site_fract_z
O1	O	1.114535	0.108326	-0.073692
O2	O	1.614535	0.608326	0.426308
O3	O	0.869985	0.121683	-0.073714
O4	O	1.369985	0.621683	0.426286
O5	O	0.998938	-0.007270	-0.073694
O6	O	1.498938	0.492730	0.426306
O7	O	0.985582	0.237279	-0.073712
O8	O	1.485582	0.737279	0.426288
O9	O	0.998906	-0.007263	0.073871
O10	O	1.498906	0.492737	0.573871
O11	O	0.869953	0.121690	0.073851
O12	O	1.369953	0.621690	0.573851
O13	O	1.114503	0.108334	0.073873
O14	O	1.614503	0.608334	0.573873
Zn15	Zn	0.992223	0.115013	0.097291
Zn16	Zn	1.492223	0.615013	0.597291
Zn17	Zn	0.992265	0.115003	-0.097132
Zn18	Zn	1.492265	0.615003	0.402868
O19	O	0.985550	0.237287	0.073853
O20	O	1.485550	0.737287	0.573853
C21	C	0.998367	-0.038561	0.000088
C22	C	1.498367	0.461439	0.500088
C23	C	0.996705	-0.131807	0.000089
C24	C	1.496705	0.368193	0.500089
C25	C	0.838675	0.121132	0.000066
C26	C	1.338675	0.621132	0.500066
C27	C	0.745429	0.119470	0.000057
C28	C	1.245429	0.619470	0.500057
C29	C	0.912801	-0.346663	0.000069
C30	C	1.412801	0.153337	0.500069
C31	C	0.951747	-0.407677	0.072831
C32	C	1.451747	0.092323	0.572831
C33	C	0.993698	-0.302533	0.000081
C34	C	1.493698	0.197467	0.500081
C35	C	0.951798	-0.407668	-0.072657
C36	C	1.451798	0.092332	0.427343
C37	C	0.990787	-0.467445	0.000071
C38	C	1.490787	0.032555	0.500071
C39	C	1.032667	-0.362318	0.072904
C40	C	1.532667	0.137682	0.572904
C41	C	1.032706	-0.362302	-0.072649
C42	C	1.532706	0.137698	0.427351
C43	C	1.071711	-0.423298	0.000130
C44	C	1.571711	0.076702	0.500130
C45	C	0.995372	-0.207530	0.000088
C46	C	1.495372	0.292470	0.500088
C47	C	0.989119	-0.562446	0.000070
C48	C	1.489119	-0.062446	0.500070
C49	C	0.530572	0.035565	0.000080
C50	C	1.030572	0.535565	0.500080
C51	C	0.469568	0.074524	-0.072680
C52	C	0.969568	0.574524	0.427320
C53	C	0.574703	0.116462	0.000068
C54	C	1.074703	0.616462	0.500068
C55	C	0.469559	0.074550	0.072808
C56	C	0.969559	0.574550	0.572808
C57	C	0.409790	0.113551	0.000082
C58	C	0.909790	0.613551	0.500082
C59	C	0.514927	0.155443	-0.072752
C60	C	1.014927	0.655443	0.427248
C61	C	0.514924	0.155458	0.072801
C62	C	1.014924	0.655458	0.572801
C63	C	0.453937	0.194476	0.000023
C64	C	0.953937	0.694476	0.500023
C65	C	0.669705	0.118137	0.000059
C66	C	1.169705	0.618137	0.500059
C67	C	0.314789	0.111883	0.000085
C68	C	0.814789	0.611883	0.500085
C69	C	1.145813	0.108885	0.000091
C70	C	1.645813	0.608885	0.500091
C71	C	1.239059	0.110547	0.000094
C72	C	1.739059	0.610547	0.500094
C73	C	0.986120	0.268577	0.000069
C74	C	1.486120	0.768577	0.500069
C75	C	0.987782	0.361823	0.000063
C76	C	1.487782	0.861823	0.500063
N77	N	0.992200	0.115019	0.229980
N78	N	1.492200	0.615019	0.729980
N79	N	0.992294	0.114991	-0.229821
N80	N	1.492294	0.614991	0.270179
C81	C	0.992263	0.115000	0.589182
C82	C	1.492263	0.615000	1.089182
C83	C	0.923031	0.183769	0.551564
C84	C	1.423031	0.683769	1.051564
C85	C	0.923190	0.184020	0.448738
C86	C	1.423190	0.684020	0.948738
C87	C	0.992231	0.115010	0.410977
C88	C	1.492231	0.615010	0.910977
C89	C	1.079875	0.134157	0.448275
C90	C	1.579875	0.634157	0.948275
C91	C	1.079487	0.134645	0.551133
C92	C	1.579487	0.634645	1.051133
C93	C	0.974633	0.026880	0.551286
C94	C	1.474633	0.526880	1.051286
C95	C	0.972622	0.027468	0.448422
C96	C	1.472622	0.527468	0.948422
C97	C	0.992219	0.115013	0.310264
C98	C	1.492219	0.615013	0.810264
C99	C	0.992281	0.114998	0.689895
C100	C	1.492281	0.614998	1.189895
H101	H	0.845652	-0.313356	0.000135
H102	H	1.345652	0.186644	0.500135
H103	H	1.019771	-0.026104	0.422722
H104	H	1.519771	0.473896	0.922722
O105	O	0.442942	0.029198	-0.154154
O106	O	0.942942	0.529198	0.345846
H107	H	0.398939	0.072979	-0.194141
H108	H	0.898939	0.572979	0.305859
O109	O	0.836890	0.168929	0.415333
O110	O	1.336890	0.668929	0.915333
H111	H	0.836915	0.169096	0.341692
H112	H	1.336915	0.669096	0.841692
O113	O	1.100060	0.219772	0.582902
O114	O	1.600060	0.719772	1.082902
H115	H	1.158240	0.211435	0.623883
H116	H	1.658240	0.711435	1.123883
H117	H	0.534928	0.189631	-0.134332
H118	H	1.034928	0.689631	0.365668
O119	O	0.442938	0.029224	0.154295
O120	O	0.942938	0.529224	0.654295
H121	H	0.473942	-0.036712	0.154141
H122	H	0.973942	0.463288	0.654141
O123	O	0.906480	-0.434291	-0.154135
O124	O	1.406480	0.065709	0.345865
H125	H	0.939472	-0.415236	-0.214467
H126	H	1.439472	0.084764	0.285533
O127	O	0.541583	0.200752	0.154274
O128	O	1.041583	0.700752	0.654274
H129	H	0.611024	0.202092	0.153165
H130	H	1.111024	0.702092	0.653165
O131	O	1.149782	0.070832	0.584098
O132	O	1.649782	0.570832	1.084098
H133	H	1.122747	0.022624	0.625018
H134	H	1.622747	0.522624	1.125018
O135	O	0.836457	0.168918	0.584370
O136	O	1.336457	0.668918	1.084370
H137	H	0.821931	0.105741	0.562292
H138	H	1.321931	0.605741	1.062292
O139	O	1.100941	0.218318	0.414148
O140	O	1.600941	0.718318	0.914148
H141	H	1.160674	0.209013	0.375745
H142	H	1.660674	0.709013	0.875745
O143	O	1.041473	-0.040938	0.583516
O144	O	1.541473	0.459062	1.083516
H145	H	1.104420	-0.026475	0.560613
H146	H	1.604420	0.473525	1.060613
O147	O	0.410019	0.283500	-0.000035
O148	O	0.910019	0.783500	0.499965
H149	H	0.340641	0.281655	0.000545
H150	H	0.840641	0.781655	0.500545
O151	O	1.077934	-0.335836	0.154476
O152	O	1.577934	0.164164	0.654476
H153	H	1.143685	-0.367325	0.154664
H154	H	1.643685	0.132675	0.654664
H155	H	0.912111	0.008470	0.577272
H156	H	1.412111	0.508470	1.077272
H157	H	0.934135	0.248793	0.577399
H158	H	1.434135	0.748793	1.077399
O159	O	1.149751	0.069577	0.415880
O160	O	1.649751	0.569577	0.915880
H161	H	1.196198	0.101755	0.377515
H162	H	1.696198	0.601755	0.877515
H163	H	0.908150	0.012937	0.424046
H164	H	1.408150	0.512937	0.924046
O165	O	1.160729	-0.467235	0.000187
O166	O	1.660729	0.032765	0.500187
H167	H	1.194084	-0.449079	0.060644
H168	H	1.694084	0.050921	0.560644
O169	O	0.938108	0.270635	0.416117
O170	O	1.438108	0.770635	0.916117
H171	H	0.945245	0.312503	0.473808
H172	H	1.445245	0.812503	0.973808
H173	H	0.917518	-0.427782	0.134339
H174	H	1.417518	0.072218	0.634339
H175	H	1.066906	-0.342175	-0.134161
H176	H	1.566906	0.157825	0.365839
O177	O	0.574659	-0.053393	0.000028
O178	O	1.074659	0.446607	0.500028
H179	H	0.556604	-0.086783	-0.060449
H180	H	1.056604	0.413217	0.439551
