data_functionalizedCrystal
_audit_creation_method	'MofGen! by Chris Wilmer'
_symmetry_space_group_name_H-M	'P1'
_symmetry_Int_Tables_number	1
_symmetry_cell_setting	triclinic
loop_
_symmetry_equiv_pos_as_xyz
  x,y,z
_cell_length_a	14.395555
_cell_length_b	14.446369
_cell_length_c	14.395555
_cell_angle_alpha	119.996490
_cell_angle_beta	89.996384
_cell_angle_gamma	60.000723
loop_
_atom_site_label
_atom_site_type_symbol
_atom_site_fract_x
_atom_site_fract_y
_atom_site_fract_z
Zr1	Zr	0.894928	1.013184	0.121896
O2	O	0.746606	1.206288	0.270229
O3	O	0.940396	0.820069	0.076417
O4	O	0.940406	1.013160	0.270209
O5	O	0.746590	1.013219	-0.076423
O6	O	1.093280	1.013153	0.270201
O7	O	0.746596	1.013197	0.076437
O8	O	1.093262	0.667749	-0.076457
O9	O	0.746607	1.358623	0.270236
O10	O	1.073877	0.899499	0.057023
O11	O	0.959784	0.899520	-0.057048
O12	O	0.959796	1.126860	0.171117
O13	O	0.845703	1.126882	0.057046
Zr14	Zr	1.138735	1.013208	-0.121910
Zr15	Zr	1.138745	1.013173	0.121883
Zr16	Zr	0.894918	1.013219	-0.121898
Zr17	Zr	0.894931	1.256142	0.121907
Zr18	Zr	1.138733	0.770250	-0.121922
O19	O	1.093267	1.206323	-0.076432
O20	O	1.093281	1.206272	0.270210
O21	O	0.746592	1.206338	-0.076414
O22	O	1.287057	0.820104	-0.270243
O23	O	1.287072	0.820053	0.076399
O24	O	0.940382	0.820120	-0.270225
O25	O	1.287073	1.013173	0.076408
O26	O	1.093258	1.013232	-0.270224
O27	O	0.940383	1.013239	-0.270216
O28	O	1.287067	1.013195	-0.076452
O29	O	0.940409	1.358615	0.270225
O30	O	1.093254	0.667777	-0.270240
O31	O	1.287056	0.667768	-0.270250
O32	O	1.287064	0.667740	-0.076467
O33	O	0.746599	1.358652	0.076453
O34	O	0.940401	1.358643	0.076442
O35	O	1.073868	0.899532	-0.171132
O36	O	1.187961	0.899510	-0.057060
O37	O	1.073879	1.126872	0.057033
O38	O	0.959786	1.126893	-0.057038
C39	C	1.016829	0.709293	-0.000021
C40	C	1.016828	0.606151	-0.000026
C41	C	0.945214	0.459155	-0.072300
C42	C	0.944825	0.566775	-0.072008
C43	C	0.964342	0.655131	0.123942
C44	C	0.963804	0.547898	0.123567
C45	C	1.140978	0.372695	-0.050653
C46	C	1.140795	0.478846	-0.053183
C47	C	0.711854	1.013210	0.000009
C48	C	0.608348	1.013214	0.000014
C49	C	0.485557	1.137182	0.062213
C50	C	0.454722	1.075199	0.107283
C51	C	0.454759	1.075192	-0.045047
C52	C	0.578877	0.951231	0.045147
C53	C	0.578910	0.951242	-0.107243
C54	C	0.548149	0.889168	-0.062200
C55	C	1.321809	1.013182	-0.000024
C56	C	1.425315	1.013178	-0.000029
C57	C	1.016844	1.013151	0.304941
C58	C	1.016848	1.013136	0.408437
C59	C	1.016834	1.317099	0.000007
C60	C	1.016835	1.420241	0.000011
C61	C	1.079061	0.889182	0.468734
C62	C	1.124153	0.951124	0.437863
C63	C	0.971808	0.951162	0.437917
C64	C	1.062013	1.075117	0.561999
C65	C	0.909608	1.075137	0.562051
C66	C	0.954674	1.137170	0.531253
C67	C	1.016830	1.013220	0.695034
C68	C	1.016858	1.013173	0.591507
C69	C	1.321806	0.709279	-0.000038
C70	C	1.425312	0.606132	-0.000048
C71	C	1.016816	0.709337	-0.304969
C72	C	1.016811	0.606210	-0.408471
C73	C	1.321794	0.709324	-0.304986
C74	C	1.425295	0.606192	-0.408493
C75	C	0.711870	1.317068	0.304971
C76	C	0.608368	1.420200	0.408478
C77	C	0.711857	1.317113	0.000023
C78	C	0.608351	1.420260	0.000033
C79	C	1.016847	1.317055	0.304955
C80	C	1.016852	1.420182	0.408456
C81	C	1.644446	0.459820	-0.071639
C82	C	1.536837	0.566747	-0.072040
C83	C	1.428649	0.479281	-0.052532
C84	C	1.536796	0.371899	-0.053058
C85	C	1.535427	0.546852	0.124116
C86	C	1.429085	0.655329	0.123921
C87	C	0.944504	0.459906	-0.483717
C88	C	0.944815	0.566817	-0.376010
C89	C	1.140775	0.479359	-0.483297
C90	C	1.140381	0.371994	-0.590533
C91	C	0.966164	0.546974	-0.592107
C92	C	0.963653	0.655434	-0.483052
C93	C	1.500536	0.459879	-0.627621
C94	C	1.392828	0.566812	-0.520011
C95	C	1.500100	0.479340	-0.411825
C96	C	1.607336	0.371953	-0.519974
C97	C	1.608958	0.546897	-0.518622
C98	C	1.499903	0.655379	-0.412279
H99	H	0.980031	0.530076	-0.163294
H100	H	1.214850	0.898716	0.384350
F101	F	0.648856	0.882831	-0.225754
F102	F	0.991002	0.343020	-0.191924
F103	F	0.922010	0.882642	0.368004
H104	H	1.198654	0.500338	-0.005993
F105	F	1.499426	0.514444	0.194191
H106	H	1.448325	0.745839	-0.412842
H107	H	0.573803	0.784257	-0.114806
F108	F	1.193380	0.253369	-0.590182
F109	F	1.214260	0.508434	-0.519017
F110	F	1.147899	0.752184	0.435527
F111	F	1.535824	0.508403	-0.309172
F112	F	0.825501	0.683600	-0.304814
H113	H	1.012601	0.525919	0.180372
F114	F	1.192050	0.427095	-0.172557
H115	H	1.613100	0.586460	-0.568823
H116	H	1.498201	0.497111	-0.681773
F117	F	0.848651	0.598703	-0.597501
H118	H	1.194591	0.346710	0.001765
H119	H	0.818931	1.127499	0.615562
F120	F	1.499162	0.342697	-0.699735
H121	H	0.460116	1.242008	0.114894
H122	H	1.181612	0.440792	-0.431514
H123	H	1.018583	0.522193	-0.670598
H124	H	0.854183	0.494916	-0.037470
H125	H	0.401209	1.127583	0.197971
F126	F	1.111947	1.143558	0.631720
H127	H	1.525522	0.687493	-0.332852
F128	F	1.214638	0.332839	-0.693607
F129	F	0.885932	1.274278	0.564733
F130	F	1.538919	0.683562	-0.025964
F131	F	0.825136	0.682852	-0.026088
F132	F	1.715223	0.508490	-0.025862
F133	F	0.824880	0.508584	-0.480644
H134	H	1.014002	0.683906	0.180149
H135	H	0.401252	1.127619	-0.083138
F136	F	0.844271	0.773689	-0.415611
F137	F	0.648605	0.882811	0.095096
F138	F	0.846080	0.775780	0.177320
F139	F	1.716551	0.342637	-0.190612
F140	F	1.540053	0.517797	-0.191731
H141	H	1.587317	0.281155	-0.144405
H142	H	1.510050	0.341939	-0.004262
H143	H	1.350107	0.501523	-0.002879
H144	H	1.426504	0.440735	-0.143011
F145	F	1.601033	0.598573	0.181416
F146	F	1.322254	0.517870	-0.523212
H147	H	1.448297	0.440801	-0.409670
F148	F	1.025335	0.697439	-0.516523
F149	F	1.711555	0.514481	-0.482629
F150	F	1.321649	0.683594	-0.522133
F151	F	1.429759	0.773606	0.175175
F152	F	0.844401	0.601087	0.176578
F153	F	1.198277	0.250213	-0.168156
H154	H	1.349650	0.687450	0.181773
F155	F	0.989994	0.342706	-0.482365
H156	H	0.979953	0.529341	-0.322040
F157	F	1.606961	0.253348	-0.586000
H158	H	1.686197	0.341984	-0.493234
