data_functionalizedCrystal
_audit_creation_method	'MofGen! by Chris Wilmer'
_symmetry_space_group_name_H-M	'P1'
_symmetry_Int_Tables_number	1
_symmetry_cell_setting	triclinic
loop_
_symmetry_equiv_pos_as_xyz
  x,y,z
_cell_length_a	14.044220
_cell_length_b	9.016244
_cell_length_c	14.044220
_cell_angle_alpha	90.007878
_cell_angle_beta	93.188878
_cell_angle_gamma	89.997227
loop_
_atom_site_label
_atom_site_type_symbol
_atom_site_fract_x
_atom_site_fract_y
_atom_site_fract_z
O1	O	1.277165	0.123188	0.230170
O2	O	1.777165	0.623188	0.730170
O3	O	1.000493	0.123226	0.221865
O4	O	1.500493	0.623226	0.721865
O5	O	1.134676	0.123193	0.087682
O6	O	1.634676	0.623193	0.587682
O7	O	1.142982	0.123221	0.364353
O8	O	1.642982	0.623221	0.864353
O9	O	1.134669	-0.123488	0.087670
O10	O	1.634669	0.376512	0.587670
O11	O	1.000486	-0.123455	0.221853
O12	O	1.500486	0.376545	0.721853
O13	O	1.277158	-0.123492	0.230159
O14	O	1.777158	0.376508	0.730159
Cu15	Cu	1.138822	-0.145998	0.226005
Cu16	Cu	1.638822	0.354002	0.726005
Cu17	Cu	1.138830	0.145731	0.226019
Cu18	Cu	1.638830	0.645731	0.726019
O19	O	1.142975	-0.123460	0.364342
O20	O	1.642975	0.376540	0.864342
C21	C	0.964868	-0.000110	0.218223
C22	C	1.464868	0.499890	0.718223
C23	C	0.858725	-0.000096	0.207379
C24	C	1.358725	0.499904	0.707379
C25	C	0.664388	-0.000128	0.187553
C26	C	1.164388	0.499872	0.687553
C27	C	0.613258	-0.000126	0.264467
C28	C	1.113258	0.499874	0.764467
C29	C	0.505122	-0.000143	0.253435
C30	C	1.005122	0.499857	0.753435
C31	C	0.772534	-0.000110	0.198583
C32	C	1.272534	0.499890	0.698583
N33	N	1.138823	-0.351184	0.225996
N34	N	1.638823	0.148816	0.725996
C35	C	1.210912	-0.586188	0.154506
C36	C	1.710912	-0.086188	0.654506
C37	C	1.210679	-0.414297	0.154195
C38	C	1.710679	0.085703	0.654195
C39	C	1.037379	-0.413598	0.195817
C40	C	1.537379	0.086402	0.695817
C41	C	1.037801	-0.585543	0.195309
C42	C	1.537801	-0.085543	0.695309
C43	C	1.167324	-0.585681	0.327868
C44	C	1.667324	-0.085681	0.827868
C45	C	1.169525	-0.413725	0.327383
C46	C	1.669525	0.086275	0.827383
C47	C	1.312783	-0.000153	0.233800
C48	C	1.812783	0.499847	0.733800
C49	C	1.418926	-0.000157	0.244645
C50	C	1.918926	0.499843	0.744645
C51	C	1.131037	-0.000147	0.052054
C52	C	1.631037	0.499853	0.552054
C53	C	1.120193	-0.000148	-0.054088
C54	C	1.620193	0.499852	0.445912
N55	N	1.138836	0.350917	0.226021
N56	N	1.638836	0.850917	0.726021
C57	C	1.100366	-0.000124	-0.248426
C58	C	1.600366	0.499876	0.251574
C59	C	1.177281	-0.000130	-0.299556
C60	C	1.677281	0.499870	0.200444
C61	C	1.166249	-0.000116	-0.407692
C62	C	1.666249	0.499884	0.092308
C63	C	1.111397	-0.000137	-0.140280
C64	C	1.611397	0.499863	0.359720
C65	C	1.146614	-0.000116	0.399969
C66	C	1.646614	0.499884	0.899969
C67	C	1.157459	-0.000106	0.506112
C68	C	1.657459	0.499894	1.006112
H69	H	0.650697	-0.000111	0.338600
H70	H	1.150697	0.499889	0.838600
Br71	Br	0.998097	-0.652429	0.071082
Br72	Br	1.498097	-0.152429	0.571082
H73	H	1.026239	-0.000110	-0.285863
H74	H	1.526239	0.499890	0.214137
H75	H	1.286280	-0.627536	0.173537
H76	H	1.786280	-0.127536	0.673537
H77	H	0.626951	-0.000143	0.113425
H78	H	1.126951	0.499857	0.613425
Br79	Br	1.079886	-0.653476	0.416737
Br80	Br	1.579886	-0.153476	0.916737
H81	H	1.251414	-0.000040	-0.262117
H82	H	1.751414	0.499960	0.237883
H83	H	1.013193	-0.370554	0.122075
H84	H	1.513193	0.129446	0.622075
Br85	Br	1.335907	-0.343953	0.186242
Br86	Br	1.835907	0.156047	0.686242
H87	H	1.191602	-0.373183	0.078786
H88	H	1.691602	0.126817	0.578786
Br89	Br	1.179492	-0.658231	0.029548
Br90	Br	1.679492	-0.158231	0.529548
H91	H	0.982100	-0.372717	0.246162
H92	H	1.482100	0.127283	0.746162
H93	H	0.982121	-0.627149	0.244978
H94	H	1.482121	-0.127149	0.744978
H95	H	1.240172	-0.629041	0.354792
H96	H	1.740172	-0.129041	0.854792
Br97	Br	1.293974	-0.345723	0.365237
Br98	Br	1.793974	0.154277	0.865237
H99	H	1.121075	-0.370759	0.383742
H100	H	1.621075	0.129241	0.883742
