data_functionalizedCrystal
_audit_creation_method	'MofGen! by Chris Wilmer'
_symmetry_space_group_name_H-M	'P1'
_symmetry_Int_Tables_number	1
_symmetry_cell_setting	triclinic
loop_
_symmetry_equiv_pos_as_xyz
  x,y,z
_cell_length_a	17.640112
_cell_length_b	16.625545
_cell_length_c	17.640968
_cell_angle_alpha	101.230628
_cell_angle_beta	87.860920
_cell_angle_gamma	101.250346
loop_
_atom_site_label
_atom_site_type_symbol
_atom_site_fract_x
_atom_site_fract_y
_atom_site_fract_z
Zn1	Zn	1.247777	-0.023167	0.195080
Zn2	Zn	1.222000	-0.189521	0.068100
Zn3	Zn	1.095107	-0.075617	0.093727
Zn4	Zn	1.120741	-0.178908	0.220682
O5	O	1.171406	-0.116803	0.144397
O6	O	1.350628	-0.027726	0.156797
O7	O	1.183651	-0.200804	-0.034773
O8	O	1.115419	0.044187	0.107182
O9	O	1.331689	-0.149945	0.063505
O10	O	1.227585	0.082722	0.181646
O11	O	1.090423	-0.117119	-0.015945
O12	O	0.992237	-0.106828	0.132007
O13	O	1.159109	-0.131856	0.323559
O14	O	1.011070	-0.182714	0.225280
O15	O	1.252442	-0.017434	0.304749
O16	O	1.208508	-0.300960	0.088330
O17	O	1.134113	-0.293162	0.200431
C18	C	0.974099	-0.149311	0.184203
C19	C	0.889694	-0.163233	0.201250
C20	C	0.563039	-0.011024	0.014898
C21	C	0.483729	-0.024119	0.030927
C22	C	0.503361	-0.103324	0.127885
C23	C	0.582674	-0.090231	0.111867
C24	C	0.612506	-0.044082	0.055372
C25	C	0.632142	-0.123289	0.152341
C26	C	0.711447	-0.110201	0.136321
C27	C	0.741285	-0.064056	0.079827
C28	C	0.691812	-0.030994	0.039352
C29	C	0.602307	-0.169444	0.208831
C30	C	0.651775	-0.202502	0.249305
C31	C	0.731083	-0.189409	0.233290
C32	C	0.760921	-0.143263	0.176796
C33	C	0.780556	-0.222471	0.273765
C34	C	0.859862	-0.209383	0.257745
C35	C	0.840227	-0.130176	0.160776
C36	C	1.171319	-0.326314	0.144390
C37	C	1.171356	-0.415925	0.144398
C38	C	1.171389	-0.488699	0.144407
C39	C	1.171436	-0.579996	0.144415
C40	C	1.171478	-0.652764	0.144417
C41	C	1.171524	-0.744067	0.144424
C42	C	1.369484	-0.084169	0.104436
C43	C	1.453892	-0.070262	0.087407
C44	C	1.171518	0.093533	0.144417
C45	C	1.171566	0.183165	0.144425
C46	C	1.211510	-0.067610	0.342480
C47	C	1.228600	-0.046647	0.426890
C48	C	1.131502	-0.165739	-0.052923
C49	C	1.114559	-0.186451	-0.137363
C50	C	1.041868	-0.275571	0.753467
C51	C	1.057942	-0.255860	0.832780
C52	C	1.155122	-0.136723	0.813185
C53	C	1.139053	-0.156421	0.733869
C54	C	1.082426	-0.225847	0.704016
C55	C	1.179610	-0.106697	0.684418
C56	C	1.163545	-0.126397	0.605108
C57	C	1.106922	-0.195821	0.575249
C58	C	1.066361	-0.245547	0.624706
C59	C	1.236241	-0.037276	0.714272
C60	C	1.276799	0.012448	0.664821
C61	C	1.260730	-0.007248	0.585510
C62	C	1.204107	-0.076672	0.555651
C63	C	1.301292	0.042478	0.536053
C64	C	1.285227	0.022778	0.456743
C65	C	1.188042	-0.096371	0.476341
H66	H	0.716105	0.006601	-0.006640
H67	H	1.318252	0.063269	0.416479
H68	H	0.864519	-0.092581	0.114784
H69	H	0.805861	-0.053403	0.066784
H70	H	1.141913	-0.152888	0.452037
H71	H	0.995738	-0.332088	0.729163
C72	C	0.470541	-0.154081	0.190028
H73	H	0.416225	-0.157137	0.193776
H74	H	0.481258	-0.208877	0.176209
H75	H	0.493888	-0.127528	0.238446
H76	H	0.900140	-0.236301	0.290704
H77	H	0.587331	0.026571	-0.031094
C78	C	1.363583	0.118836	0.568893
H79	H	1.385441	0.145626	0.528082
H80	H	1.340825	0.156872	0.605704
H81	H	1.402924	0.101113	0.593144
C82	C	1.013323	-0.310555	0.887178
H83	H	1.031003	-0.288885	0.938688
H84	H	0.959673	-0.310390	0.884479
H85	H	1.021782	-0.366137	0.871933
C86	C	0.429317	0.012253	-0.013594
H87	H	0.458446	0.041617	-0.049529
H88	H	0.391654	-0.031872	-0.040481
H89	H	0.404292	0.049469	0.021766
C90	C	0.618955	-0.253259	0.311448
H91	H	0.564639	-0.256315	0.315197
H92	H	0.629672	-0.308055	0.297629
H93	H	0.642302	-0.226706	0.359866
C94	C	1.089246	-0.217497	0.488010
H95	H	1.049718	-0.265968	0.477314
H96	H	1.072507	-0.172080	0.472720
H97	H	1.134613	-0.227830	0.460176
C98	C	0.747734	-0.273235	0.335902
H99	H	0.693417	-0.276293	0.339647
H100	H	0.758452	-0.328030	0.322078
H101	H	0.771077	-0.246687	0.384323
C102	C	1.217403	-0.060356	0.846029
H103	H	1.221159	-0.055741	0.900347
H104	H	1.265789	-0.066972	0.822732
H105	H	1.203672	-0.011235	0.835281
H106	H	1.020231	-0.302064	0.600402
C107	C	1.339080	0.088815	0.697665
H108	H	1.342836	0.093430	0.751983
H109	H	1.387466	0.082199	0.674368
H110	H	1.325349	0.137936	0.686917
H111	H	0.537731	-0.180099	0.221873
H112	H	1.249321	-0.021240	0.778851
