data_functionalizedCrystal
_audit_creation_method	'MofGen! by Chris Wilmer'
_symmetry_space_group_name_H-M	'P1'
_symmetry_Int_Tables_number	1
_symmetry_cell_setting	triclinic
loop_
_symmetry_equiv_pos_as_xyz
  x,y,z
_cell_length_a	16.120530
_cell_length_b	21.295417
_cell_length_c	21.295411
_cell_angle_alpha	90.021644
_cell_angle_beta	92.920962
_cell_angle_gamma	87.125778
loop_
_atom_site_label
_atom_site_type_symbol
_atom_site_fract_x
_atom_site_fract_y
_atom_site_fract_z
Zn1	Zn	1.274543	-0.299555	0.404646
Zn2	Zn	1.774543	0.200445	0.904646
Zn3	Zn	1.274414	-0.404801	0.299367
Zn4	Zn	1.774414	0.095199	0.799367
Zn5	Zn	1.135115	-0.294209	0.294060
Zn6	Zn	1.635115	0.205791	0.794060
Zn7	Zn	1.135074	-0.399442	0.399270
Zn8	Zn	1.635074	0.100558	0.899270
O9	O	1.204786	-0.349502	0.349336
O10	O	1.704786	0.150498	0.849336
O11	O	1.391191	-0.317996	0.395151
O12	O	1.891191	0.182004	0.895151
O13	O	1.255898	-0.390137	0.210572
O14	O	1.755898	0.109863	0.710572
O15	O	1.153681	-0.206831	0.308758
O16	O	1.653681	0.293169	0.808758
O17	O	1.391097	-0.395321	0.317803
O18	O	1.891097	0.104679	0.817803
O19	O	1.256119	-0.210759	0.390006
O20	O	1.756119	0.289241	0.890006
O21	O	1.153556	-0.308885	0.206673
O22	O	1.653556	0.191115	0.706673
O23	O	1.018444	-0.303688	0.303546
O24	O	1.518444	0.196312	0.803546
O25	O	1.153612	-0.386186	0.488074
O26	O	1.653612	0.113814	0.988074
O27	O	1.018414	-0.381002	0.380843
O28	O	1.518414	0.118998	0.880843
O29	O	1.256079	-0.312799	0.492024
O30	O	1.756079	0.187201	0.992024
O31	O	1.255859	-0.492177	0.312590
O32	O	1.755859	0.007823	0.812590
O33	O	1.153487	-0.488239	0.385989
O34	O	1.653487	0.011761	0.885989
C35	C	0.988179	-0.341184	0.341036
C36	C	1.488179	0.158816	0.841036
C37	C	0.895513	-0.337640	0.337500
C38	C	1.395513	0.162360	0.837500
C39	C	0.725852	-0.331156	0.331050
C40	C	1.225852	0.168844	0.831050
C41	C	0.684562	-0.367893	0.367668
C42	C	1.184562	0.132107	0.867668
C43	C	0.590156	-0.364286	0.364079
C44	C	1.090156	0.135714	0.864079
C45	C	0.820266	-0.334763	0.334638
C46	C	1.320266	0.165237	0.834638
C47	C	1.204677	-0.513049	0.349297
C48	C	1.704677	-0.013049	0.849297
C49	C	1.204707	-0.583018	0.349304
C50	C	1.704707	-0.083018	0.849304
C51	C	1.258059	-0.617916	0.311128
C52	C	1.758059	-0.117916	0.811128
C53	C	1.258098	-0.683660	0.311144
C54	C	1.758098	-0.183660	0.811144
C55	C	1.204770	-0.714503	0.349328
C56	C	1.704770	-0.214503	0.849328
C57	C	1.151413	-0.679597	0.387512
C58	C	1.651413	-0.179597	0.887512
C59	C	1.151382	-0.613855	0.387499
C60	C	1.651382	-0.113855	0.887499
N61	N	1.131839	-0.814973	0.351332
N62	N	1.631839	-0.314973	0.851332
N63	N	1.131872	-0.877426	0.351340
N64	N	1.631872	-0.377426	0.851340
C65	C	1.204863	-0.912581	0.349368
C66	C	1.704863	-0.412581	0.849368
N67	N	1.277823	-0.882925	0.347375
N68	N	1.777823	-0.382925	0.847375
N69	N	1.277790	-0.820467	0.347364
N70	N	1.777790	-0.320467	0.847364
C71	C	1.204799	-0.785790	0.349346
C72	C	1.704799	-0.285790	0.849346
C73	C	1.258263	-1.018767	0.311207
C74	C	1.758263	-0.518767	0.811207
C75	C	1.258303	-1.084512	0.311227
C76	C	1.758303	-0.584512	0.811227
C77	C	1.151611	-1.080447	0.387591
C78	C	1.651611	-0.580447	0.887591
C79	C	1.151578	-1.014704	0.387575
C80	C	1.651578	-0.514704	0.887575
C81	C	1.204903	-0.983867	0.349379
C82	C	1.704903	-0.483867	0.849379
C83	C	1.422240	-0.357853	0.357669
C84	C	1.922240	0.142147	0.857669
C85	C	1.514906	-0.361411	0.361220
C86	C	2.014906	0.138589	0.861220
C87	C	1.204856	-0.349491	0.513529
C88	C	1.704856	0.150509	1.013529
C89	C	1.204885	-0.349486	0.583498
C90	C	1.704885	0.150514	1.083498
C91	C	1.204919	-0.185316	0.349390
C92	C	1.704919	0.314684	0.849390
C93	C	1.204975	-0.115350	0.349413
C94	C	1.704975	0.384650	0.849413
C95	C	1.204765	-0.349469	0.185783
C96	C	1.704765	0.150531	0.685783
C97	C	1.204898	-0.349302	0.115821
C98	C	1.704898	0.150698	0.615821
C99	C	1.258237	-0.311272	0.618422
C100	C	1.758237	0.188728	1.118422
C101	C	1.258236	-0.311245	0.684165
C102	C	1.758236	0.188755	1.184165
C103	C	1.204892	-0.349443	0.714981
C104	C	1.704892	0.150557	1.214981
C105	C	1.151529	-0.387660	0.680048
C106	C	1.651529	0.112340	1.180048
C107	C	1.151526	-0.387682	0.614307
C108	C	1.651526	0.112318	1.114307
N109	N	1.198459	-0.404264	0.817950
N110	N	1.698459	0.095736	1.317950
N111	N	1.198467	-0.404242	0.880402
N112	N	1.698467	0.095758	1.380402
C113	C	1.204897	-0.349380	0.913056
C114	C	1.704897	0.150620	1.413056
N115	N	1.211334	-0.294539	0.880899
N116	N	1.711334	0.205461	1.380899
N117	N	1.211331	-0.294562	0.818442
N118	N	1.711331	0.205438	1.318442
C119	C	1.204889	-0.349424	0.786266
C120	C	1.704889	0.150576	1.286266
C121	C	1.258251	-0.311132	1.019266
C122	C	1.758251	0.188868	1.519266
C123	C	1.258244	-0.311104	1.085009
C124	C	1.758244	0.188896	1.585009
C125	C	1.151541	-0.387525	1.080892
C126	C	1.651541	0.112475	1.580892
C127	C	1.151543	-0.387548	1.015149
C128	C	1.651543	0.112452	1.515149
C129	C	1.204903	-0.349353	0.984340
C130	C	1.704903	0.150647	1.484340
H131	H	0.690303	-0.296998	0.297006
H132	H	1.190303	0.203002	0.797006
H133	H	1.301481	-0.592811	0.280029
H134	H	1.801481	-0.092811	0.780029
Br135	Br	1.079132	-0.439359	1.122706
Br136	Br	1.579132	0.060641	1.622706
Br137	Br	0.743811	-0.424826	0.424420
Br138	Br	1.243811	0.075174	0.924420
H139	H	1.301686	-0.280170	0.593342
H140	H	1.801686	0.219830	1.093342
Br141	Br	1.330627	-0.976913	0.259370
Br142	Br	1.830627	-0.476913	0.759370
H143	H	1.108076	-0.418799	0.585872
H144	H	1.608076	0.081201	1.085872
H145	H	1.301547	-0.712080	0.280057
H146	H	1.801547	-0.212080	0.780057
H147	H	1.108194	-1.105559	0.418684
H148	H	1.608194	-0.605559	0.918684
Br149	Br	1.079045	-0.721454	0.439339
Br150	Br	1.579045	-0.221454	0.939339
H151	H	1.107935	-0.585440	0.418587
H152	H	1.607935	-0.085440	0.918587
Br153	Br	1.079165	-0.967339	0.439386
Br154	Br	1.579165	-0.467339	0.939386
H155	H	1.301755	-1.112925	0.280141
H156	H	1.801755	-0.612925	0.780141
Br157	Br	1.330628	-0.259362	0.731571
Br158	Br	1.830628	0.240638	1.231571
H159	H	1.108092	-0.418760	0.705143
H160	H	1.608092	0.081240	1.205143
H161	H	1.301695	-0.280028	0.994179
H162	H	1.801695	0.219972	1.494179
H163	H	1.301689	-0.279981	1.113443
H164	H	1.801689	0.220019	1.613443
Br165	Br	1.079134	-0.439414	0.967749
Br166	Br	1.579134	0.060586	1.467749
