data_functionalizedCrystal
_audit_creation_method	'MofGen! by Chris Wilmer'
_symmetry_space_group_name_H-M	'P1'
_symmetry_Int_Tables_number	1
_symmetry_cell_setting	triclinic
loop_
_symmetry_equiv_pos_as_xyz
  x,y,z
_cell_length_a	19.805407
_cell_length_b	18.101395
_cell_length_c	19.805407
_cell_angle_alpha	90.010856
_cell_angle_beta	90.009221
_cell_angle_gamma	90.031104
loop_
_atom_site_label
_atom_site_type_symbol
_atom_site_fract_x
_atom_site_fract_y
_atom_site_fract_z
Zn1	Zn	1.034644	-0.294951	0.382731
Zn2	Zn	1.367978	0.038382	0.716064
Zn3	Zn	1.701311	0.371716	1.049398
Zn4	Zn	1.034570	-0.418764	0.269548
Zn5	Zn	1.367904	-0.085430	0.602881
Zn6	Zn	1.701237	0.247903	0.936214
Zn7	Zn	0.921480	-0.294941	0.269556
Zn8	Zn	1.254813	0.038393	0.602889
Zn9	Zn	1.588146	0.371726	0.936222
Zn10	Zn	0.921413	-0.418755	0.382694
Zn11	Zn	1.254747	-0.085422	0.716028
Zn12	Zn	1.588080	0.247911	1.049361
O13	O	0.978027	-0.356853	0.326132
O14	O	1.311360	-0.023519	0.659466
O15	O	1.644694	0.309814	0.992799
O16	O	1.129351	-0.311383	0.367729
O17	O	1.462684	0.021950	0.701062
O18	O	1.796018	0.355284	1.034396
O19	O	1.019565	-0.402338	0.174832
O20	O	1.352899	-0.069004	0.508166
O21	O	1.686232	0.264329	0.841499
O22	O	0.936550	-0.191309	0.284587
O23	O	1.269883	0.142024	0.617921
O24	O	1.603216	0.475358	0.951254
O25	O	1.129297	-0.402348	0.284574
O26	O	1.462630	-0.069014	0.617907
O27	O	1.795963	0.264319	0.951240
O28	O	1.019691	-0.191317	0.367737
O29	O	1.353025	0.142017	0.701070
O30	O	1.686358	0.475350	1.034403
O31	O	0.936478	-0.311365	0.174838
O32	O	1.269811	0.021968	0.508171
O33	O	1.603145	0.355301	0.841505
O34	O	0.826754	-0.311357	0.284552
O35	O	1.160087	0.021976	0.617885
O36	O	1.493421	0.355310	0.951218
O37	O	0.936437	-0.402333	0.477416
O38	O	1.269770	-0.069000	0.810749
O39	O	1.603104	0.264334	1.144082
O40	O	0.826706	-0.402323	0.367674
O41	O	1.160039	-0.068990	0.701008
O42	O	1.493372	0.264344	1.034341
O43	O	1.019627	-0.311375	0.477443
O44	O	1.352961	0.021959	0.810776
O45	O	1.686294	0.355292	1.144109
O46	O	1.019501	-0.522396	0.284538
O47	O	1.352835	-0.189062	0.617871
O48	O	1.686168	0.144271	0.951205
O49	O	0.936365	-0.522389	0.367667
O50	O	1.269698	-0.189056	0.701000
O51	O	1.603032	0.144277	1.034333
C52	C	0.802171	-0.356839	0.326110
C53	C	1.135504	-0.023505	0.659444
C54	C	1.468838	0.309828	0.992777
C55	C	0.726939	-0.356850	0.326117
C56	C	1.060272	-0.023517	0.659450
C57	C	1.393606	0.309816	0.992784
C58	C	0.691587	-0.404288	0.369329
C59	C	1.024920	-0.070954	0.702662
C60	C	1.358254	0.262379	1.035995
C61	C	0.620899	-0.404289	0.369338
C62	C	0.954232	-0.070956	0.702672
C63	C	1.287565	0.262378	1.036005
C64	C	0.585563	-0.356856	0.326132
C65	C	0.918897	-0.023523	0.659465
C66	C	1.252230	0.309811	0.992799
C67	C	0.620920	-0.309414	0.282918
C68	C	0.954253	0.023920	0.616252
C69	C	1.287587	0.357253	0.949585
C70	C	0.691607	-0.309409	0.282913
C71	C	1.024941	0.023924	0.616246
C72	C	1.358274	0.357258	0.949579
C73	C	0.335847	-0.309430	0.282941
C74	C	0.669180	0.023903	0.616274
C75	C	1.002513	0.357237	0.949607
C76	C	0.265155	-0.309440	0.282948
C77	C	0.598488	0.023894	0.616282
C78	C	0.931821	0.357227	0.949615
C79	C	0.265138	-0.404310	0.369366
C80	C	0.598472	-0.070976	0.702700
C81	C	0.931805	0.262357	1.036033
C82	C	0.335825	-0.404305	0.369361
C83	C	0.669159	-0.070972	0.702694
C84	C	1.002492	0.262361	1.036027
C85	C	0.371176	-0.356860	0.326150
C86	C	0.704509	-0.023527	0.659483
C87	C	1.037843	0.309806	0.992817
C88	C	0.447824	-0.356858	0.326141
C89	C	0.781158	-0.023525	0.659474
C90	C	1.114491	0.309808	0.992808
C91	C	0.508916	-0.356861	0.326137
C92	C	0.842250	-0.023528	0.659470
C93	C	1.175583	0.309806	0.992804
C94	C	0.977936	-0.549263	0.326112
C95	C	1.311270	-0.215930	0.659446
C96	C	1.644603	0.117403	0.992779
C97	C	0.977960	-0.631577	0.326126
C98	C	1.311293	-0.298244	0.659460
C99	C	1.644626	0.035089	0.992793
C100	C	0.978108	-0.930668	0.326163
C101	C	1.311441	-0.597335	0.659496
C102	C	1.644775	-0.264002	0.992830
C103	C	0.925922	-0.899370	0.378595
C104	C	1.259256	-0.566037	0.711928
C105	C	1.592589	-0.232703	1.045261
C106	C	0.925674	-0.813752	0.378431
C107	C	1.259008	-0.480419	0.711764
C108	C	1.592341	-0.147085	1.045097
C109	C	0.978034	-0.782286	0.326145
C110	C	1.311368	-0.448952	0.659479
C111	C	1.644701	-0.115619	0.992812
C112	C	0.958736	-0.813415	0.254811
C113	C	1.292070	-0.480081	0.588144
C114	C	1.625403	-0.146748	0.921477
C115	C	0.958400	-0.899060	0.255125
C116	C	1.291733	-0.565727	0.588458
C117	C	1.625067	-0.232393	0.921791
C118	C	1.049706	-0.899018	0.344438
C119	C	1.383039	-0.565684	0.677771
C120	C	1.716373	-0.232351	1.011104
C121	C	1.049285	-0.813367	0.346002
C122	C	1.382618	-0.480034	0.679335
C123	C	1.715951	-0.146700	1.012669
C124	C	0.977994	-0.698426	0.326131
C125	C	1.311327	-0.365093	0.659464
C126	C	1.644661	-0.031760	0.992798
C127	C	0.978147	-1.014528	0.326172
C128	C	1.311480	-0.681194	0.659506
C129	C	1.644814	-0.347861	0.992839
C130	C	1.154570	-0.356867	0.326155
C131	C	1.487903	-0.023534	0.659488
C132	C	1.821236	0.309799	0.992821
C133	C	1.229802	-0.356874	0.326164
C134	C	1.563135	-0.023540	0.659497
C135	C	1.896468	0.309793	0.992831
C136	C	0.978033	-0.356854	0.502675
C137	C	1.311366	-0.023521	0.836008
C138	C	1.644700	0.309813	1.169342
C139	C	0.978036	-0.356855	0.577907
C140	C	1.311369	-0.023521	0.911240
C141	C	1.644702	0.309812	1.244574
C142	C	0.978136	-0.163691	0.326167
C143	C	1.311470	0.169643	0.659500
C144	C	1.644803	0.502976	0.992834
C145	C	0.978183	-0.081377	0.326182
C146	C	1.311516	0.251957	0.659515
C147	C	1.644850	0.585290	0.992848
C148	C	1.021347	-0.309500	0.613266
C149	C	1.354681	0.023833	0.946599
C150	C	1.688014	0.357167	1.279933
C151	C	1.021342	-0.309498	0.683955
C152	C	1.354675	0.023836	1.017288
C153	C	1.688008	0.357169	1.350621
C154	C	0.978027	-0.356855	0.719282
C155	C	1.311360	-0.023521	1.052616
C156	C	1.644693	0.309812	1.385949
C157	C	0.934710	-0.404211	0.683918
C158	C	1.268044	-0.070878	1.017252
C159	C	1.601377	0.262455	1.350585
C160	C	0.934713	-0.404209	0.613231
C161	C	1.268046	-0.070876	0.946564
C162	C	1.601380	0.262457	1.279898
C163	C	0.934697	-0.404220	0.968992
C164	C	1.268030	-0.070887	1.302325
C165	C	1.601364	0.262447	1.635658
C166	C	0.934699	-0.404220	1.039684
C167	C	1.268032	-0.070887	1.373017
C168	C	1.601365	0.262447	1.706350
C169	C	1.021325	-0.309508	1.039715
C170	C	1.354659	0.023825	1.373048
C171	C	1.687992	0.357158	1.706382
C172	C	1.021328	-0.309506	0.969028
C173	C	1.354662	0.023827	1.302361
C174	C	1.687995	0.357160	1.635695
C175	C	0.978009	-0.356860	0.933670
C176	C	1.311343	-0.023527	1.267003
C177	C	1.644676	0.309807	1.600336
C178	C	0.978015	-0.356861	0.857021
C179	C	1.311349	-0.023528	1.190355
C180	C	1.644682	0.309806	1.523688
C181	C	0.978024	-0.356858	0.795930
C182	C	1.311357	-0.023525	1.129263
C183	C	1.644690	0.309809	1.462596
C184	C	0.978014	-0.356866	1.150276
C185	C	1.311348	-0.023533	1.483609
C186	C	1.644681	0.309800	1.816943
C187	C	0.978008	-0.356861	1.075044
C188	C	1.311341	-0.023528	1.408378
C189	C	1.644674	0.309806	1.741711
H190	H	0.364592	-0.442932	0.404541
H191	H	0.697925	-0.109599	0.737875
H192	H	1.031259	0.223734	1.071208
H193	H	0.872604	-0.793325	0.366326
H194	H	1.205937	-0.459992	0.699659
H195	H	1.539271	-0.126658	1.032992
H196	H	0.906954	-0.792025	0.239053
H197	H	1.240287	-0.458692	0.572386
H198	H	1.573620	-0.125358	0.905720
N199	N	0.582807	-0.258267	0.236307
N200	N	0.916141	0.075066	0.569640
N201	N	1.249474	0.408399	0.902973
H202	H	0.553491	-0.223998	0.263861
H203	H	0.886825	0.109336	0.597194
H204	H	1.220158	0.442669	0.930527
H205	H	0.553506	-0.288382	0.204910
H206	H	0.886839	0.044951	0.538243
H207	H	1.220172	0.378285	0.871577
H208	H	0.592118	-0.442918	0.404525
H209	H	0.925452	-0.109584	0.737858
H210	H	1.258785	0.223749	1.071192
N211	N	0.227005	-0.455477	0.415977
N212	N	0.560338	-0.122143	0.749311
N213	N	0.893672	0.211190	1.082644
H214	H	0.239326	-0.444061	0.464356
H215	H	0.572659	-0.110728	0.797689
H216	H	0.905993	0.222606	1.131022
H217	H	0.239295	-0.508350	0.405317
H218	H	0.572629	-0.175017	0.738651
H219	H	0.905962	0.158317	1.071984
N220	N	1.073031	-0.927580	0.412161
N221	N	1.406364	-0.594246	0.745494
N222	N	1.739697	-0.260913	1.078827
H223	H	1.039909	-0.912018	0.448224
H224	H	1.373242	-0.578685	0.781557
H225	H	1.706575	-0.245351	1.114890
H226	H	1.119068	-0.906573	0.422818
H227	H	1.452401	-0.573240	0.756151
H228	H	1.785734	-0.239906	1.089484
N229	N	1.068569	-0.786419	0.415540
N230	N	1.401902	-0.453085	0.748874
N231	N	1.735236	-0.119752	1.082207
H232	H	1.031313	-0.754209	0.434108
H233	H	1.364647	-0.420876	0.767442
H234	H	1.697980	-0.087542	1.100775
H235	H	1.111742	-0.756872	0.412634
H236	H	1.445076	-0.423539	0.745968
H237	H	1.778409	-0.090206	1.079301
N238	N	1.068065	-0.258430	0.722090
N239	N	1.401398	0.074904	1.055424
N240	N	1.734731	0.408237	1.388757
H241	H	1.061490	-0.265613	0.772231
H242	H	1.394824	0.067720	1.105564
H243	H	1.728157	0.401053	1.438898
H244	H	1.057567	-0.205537	0.709742
H245	H	1.390900	0.127797	1.043075
H246	H	1.724233	0.461130	1.376408
N247	N	1.068050	-0.258431	0.930928
N248	N	1.401384	0.074903	1.264261
N249	N	1.734717	0.408236	1.597595
H250	H	1.057567	-0.205517	0.943236
H251	H	1.390901	0.127817	1.276570
H252	H	1.724234	0.461150	1.609903
H253	H	1.061460	-0.265679	0.880795
H254	H	1.394793	0.067654	1.214128
H255	H	1.728126	0.400988	1.547461
N256	N	1.006539	-0.926491	0.201594
N257	N	1.339873	-0.593157	0.534927
N258	N	1.673206	-0.259824	0.868260
H259	H	1.006691	-0.982286	0.201375
H260	H	1.340024	-0.648953	0.534709
H261	H	1.673357	-0.315620	0.868042
H262	H	1.053515	-0.907735	0.211641
H263	H	1.386848	-0.574402	0.544975
H264	H	1.720181	-0.241069	0.878308
H265	H	0.899437	-0.442763	0.584442
H266	H	1.232771	-0.109430	0.917776
H267	H	1.566104	0.223904	1.251109
H268	H	0.899440	-0.442768	0.712688
H269	H	1.232773	-0.109434	1.046021
H270	H	1.566107	0.223899	1.379355
H271	H	1.090221	-0.791944	0.310597
H272	H	1.423555	-0.458610	0.643930
H273	H	1.756888	-0.125277	0.977264
N274	N	0.373979	-0.258271	0.236335
N275	N	0.707312	0.075063	0.569668
N276	N	1.040646	0.408396	0.903001
H277	H	0.403327	-0.223997	0.263897
H278	H	0.736660	0.109336	0.597230
H279	H	1.069994	0.442669	0.930564
H280	H	0.340831	-0.228272	0.208969
H281	H	0.674165	0.105062	0.542302
H282	H	1.007498	0.438395	0.875635
N283	N	1.068048	-0.258430	1.077851
N284	N	1.401381	0.074904	1.411184
N285	N	1.734715	0.408237	1.744518
H286	H	1.061474	-0.265612	1.127992
H287	H	1.394808	0.067721	1.461325
H288	H	1.728141	0.401055	1.794658
H289	H	1.057547	-0.205538	1.065501
H290	H	1.390880	0.127795	1.398834
H291	H	1.724213	0.461129	1.732167
N292	N	1.068074	-0.258427	0.575169
N293	N	1.401407	0.074907	0.908502
N294	N	1.734740	0.408240	1.241835
H295	H	1.099425	-0.288530	0.545847
H296	H	1.432758	0.044803	0.879180
H297	H	1.766092	0.378136	1.212514
H298	H	1.095464	-0.228442	0.608344
H299	H	1.428797	0.104891	0.941677
H300	H	1.762130	0.438225	1.275010
N301	N	0.887979	-0.455300	1.077790
N302	N	1.221312	-0.121967	1.411123
N303	N	1.554645	0.211367	1.744457
H304	H	0.860535	-0.485297	1.044665
H305	H	1.193869	-0.151964	1.377999
H306	H	1.527202	0.181369	1.711332
H307	H	0.856677	-0.425149	1.107120
H308	H	1.190010	-0.091816	1.440454
H309	H	1.523344	0.241518	1.773787
H310	H	0.720352	-0.442915	0.404510
H311	H	1.053685	-0.109582	0.737844
H312	H	1.387019	0.223751	1.071177
N313	N	1.101211	-0.925819	0.293856
N314	N	1.434544	-0.592486	0.627189
N315	N	1.767877	-0.259153	0.960523
H316	H	1.078315	-0.958304	0.259268
H317	H	1.411649	-0.624971	0.592602
H318	H	1.744982	-0.291637	0.925935
H319	H	1.137313	-0.955045	0.317991
H320	H	1.470646	-0.621712	0.651325
H321	H	1.803980	-0.288378	0.984658
H322	H	0.899434	-0.442789	0.940212
H323	H	1.232767	-0.109456	1.273545
H324	H	1.566101	0.223877	1.606878
H325	H	0.720390	-0.270777	0.247729
H326	H	1.053723	0.062557	0.581062
H327	H	1.387056	0.395890	0.914395
N328	N	0.227040	-0.258278	0.236345
N329	N	0.560374	0.075055	0.569678
N330	N	0.893707	0.408388	0.903012
H331	H	0.260160	-0.228220	0.208971
H332	H	0.593494	0.105114	0.542304
H333	H	0.926827	0.438447	0.875637
H334	H	0.197731	-0.224061	0.263957
H335	H	0.531064	0.109272	0.597290
H336	H	0.864398	0.442605	0.930623
H337	H	0.937875	-0.919934	0.431660
H338	H	1.271208	-0.586601	0.764993
H339	H	1.604541	-0.253268	1.098327
N340	N	0.941660	-0.785864	0.448493
N341	N	1.274993	-0.452531	0.781827
N342	N	1.608326	-0.119198	1.115160
H343	H	0.948931	-0.829207	0.479763
H344	H	1.282264	-0.495874	0.813096
H345	H	1.615598	-0.162540	1.146429
H346	H	0.902782	-0.754986	0.465559
H347	H	1.236115	-0.421653	0.798892
H348	H	1.569449	-0.088320	1.132226
N349	N	0.856048	-0.927949	0.362768
N350	N	1.189381	-0.594615	0.696101
N351	N	1.522715	-0.261282	1.029434
H352	H	0.855948	-0.983685	0.365132
H353	H	1.189281	-0.650351	0.698465
H354	H	1.522615	-0.317018	1.031798
H355	H	0.842587	-0.911678	0.315887
H356	H	1.175920	-0.578345	0.649221
H357	H	1.509253	-0.245012	0.982554
N358	N	0.889072	-0.925603	0.234624
N359	N	1.222406	-0.592269	0.567957
N360	N	1.555739	-0.258936	0.901291
H361	H	0.869007	-0.956227	0.272234
H362	H	1.202341	-0.622894	0.605568
H363	H	1.535674	-0.289560	0.938901
H364	H	0.892793	-0.956661	0.192421
H365	H	1.226126	-0.623328	0.525755
H366	H	1.559460	-0.289995	0.859088
N367	N	1.007497	-0.786421	0.201647
N368	N	1.340830	-0.453088	0.534980
N369	N	1.674164	-0.119754	0.868314
H370	H	1.042649	-0.753674	0.223344
H371	H	1.375983	-0.420341	0.556678
H372	H	1.709316	-0.087007	0.890011
H373	H	0.982066	-0.757425	0.166284
H374	H	1.315399	-0.424092	0.499617
H375	H	1.648733	-0.090759	0.832950
