data_functionalizedCrystal
_audit_creation_method	'MofGen! by Chris Wilmer'
_symmetry_space_group_name_H-M	'P1'
_symmetry_Int_Tables_number	1
_symmetry_cell_setting	triclinic
loop_
_symmetry_equiv_pos_as_xyz
  x,y,z
_cell_length_a	14.519709
_cell_length_b	19.188930
_cell_length_c	12.996460
_cell_angle_alpha	89.988736
_cell_angle_beta	90.000034
_cell_angle_gamma	83.412464
loop_
_atom_site_label
_atom_site_type_symbol
_atom_site_fract_x
_atom_site_fract_y
_atom_site_fract_z
O1	O	1.223300	0.091525	-0.085445
O2	O	0.954756	0.102303	-0.085478
O3	O	1.096778	-0.004714	-0.085440
O4	O	1.081279	0.198542	-0.085482
O5	O	1.096763	-0.004720	0.085693
O6	O	0.954742	0.102297	0.085656
O7	O	1.223285	0.091519	0.085689
Cu8	Cu	1.089012	0.096907	0.101298
Cu9	Cu	1.089030	0.096914	-0.101087
O10	O	1.081264	0.198536	0.085651
C11	C	0.920392	0.101797	0.000085
C12	C	0.818020	0.100292	0.000073
C13	C	0.443159	0.094751	0.000121
C14	C	0.547457	0.096290	0.000108
C15	C	0.630586	0.097521	0.000097
C16	C	0.734891	0.099060	0.000085
C17	C	1.096269	-0.030730	0.000129
C18	C	1.094762	-0.108240	0.000138
C19	C	1.178095	-0.152867	0.000153
C20	C	1.176680	-0.225696	0.000137
C21	C	1.091926	-0.253895	0.000125
C22	C	1.008582	-0.209257	0.000105
C23	C	1.009999	-0.136430	0.000111
N24	N	1.027137	-0.362132	0.058358
N25	N	1.025796	-0.431316	0.058354
C26	C	1.087649	-0.473318	0.000104
N27	N	1.150908	-0.443526	-0.058129
N28	N	1.152252	-0.374336	-0.058120
C29	C	1.090379	-0.332863	0.000118
C30	C	1.169454	-0.596916	0.000100
C31	C	1.168035	-0.669745	0.000077
C32	C	0.999934	-0.653305	0.000055
C33	C	1.001355	-0.580477	0.000068
C34	C	1.086118	-0.552287	0.000095
C35	C	1.257649	0.092024	0.000124
C36	C	1.360021	0.093529	0.000128
C37	C	1.081773	0.224551	0.000079
C38	C	1.083280	0.302061	0.000064
N39	N	1.089007	0.096902	0.243645
N40	N	1.089042	0.096914	-0.243434
C41	C	1.089028	0.096915	0.663460
C42	C	1.089020	0.096914	0.546655
C43	C	1.089018	0.096909	0.453556
C44	C	1.089008	0.096906	0.336744
H45	H	1.244542	-0.262039	0.000145
O46	O	1.249051	-0.713027	-0.000047
C47	C	1.392281	-0.749367	-0.088707
C48	C	1.300573	-0.700300	-0.088683
H49	H	1.433953	-0.739106	-0.160372
H50	H	1.434057	-0.739107	-0.017124
H51	H	1.376691	-0.806257	-0.088672
H52	H	1.316079	-0.643393	-0.088755
H53	H	1.258824	-0.710621	-0.160260
O54	O	0.917684	-0.680804	0.000085
C55	C	0.840998	-0.785712	-0.000013
C56	C	0.934213	-0.754660	-0.000014
H57	H	0.854330	-0.845428	-0.000115
H58	H	0.799806	-0.767405	0.071617
H59	H	0.799842	-0.767283	-0.071621
H60	H	0.975445	-0.773074	0.071545
H61	H	0.975335	-0.772963	-0.071692
O62	O	0.920319	-0.537222	0.000112
C63	C	0.753439	-0.528603	0.000031
C64	C	0.845148	-0.577670	0.000009
H65	H	0.692640	-0.561285	-0.000074
H66	H	0.749832	-0.494122	0.071671
H67	H	0.749958	-0.494069	-0.071568
H68	H	0.848692	-0.612247	0.071559
H69	H	0.848717	-0.612103	-0.071678
H70	H	0.939574	-0.232221	0.000093
H71	H	1.247116	-0.129920	0.000172
H72	H	0.942137	-0.100094	0.000099
O73	O	1.251728	-0.569442	-0.000024
C74	C	1.350908	-0.496770	-0.088695
C75	C	1.257693	-0.527823	-0.088669
H76	H	1.355769	-0.463127	-0.160367
H77	H	1.355784	-0.463054	-0.017118
H78	H	1.410215	-0.541190	-0.088647
H79	H	1.198332	-0.483448	-0.088752
H80	H	1.252898	-0.561558	-0.160239
