data_functionalizedCrystal
_audit_creation_method	'MofGen! by Chris Wilmer'
_symmetry_space_group_name_H-M	'P1'
_symmetry_Int_Tables_number	1
_symmetry_cell_setting	triclinic
loop_
_symmetry_equiv_pos_as_xyz
  x,y,z
_cell_length_a	14.908571
_cell_length_b	10.686285
_cell_length_c	10.685880
_cell_angle_alpha	90.361115
_cell_angle_beta	82.581134
_cell_angle_gamma	97.907800
loop_
_atom_site_label
_atom_site_type_symbol
_atom_site_fract_x
_atom_site_fract_y
_atom_site_fract_z
Zn1	Zn	1.459365	0.679932	-0.779018
Zn2	Zn	1.457517	0.873509	-0.553053
Zn3	Zn	1.294659	0.649676	-0.557079
Zn4	Zn	1.317876	0.877405	-0.752443
O5	O	1.382354	0.770131	-0.660398
O6	O	1.586489	0.716642	-0.758480
O7	O	1.425424	0.829525	-0.377260
O8	O	1.307565	0.477372	-0.599327
O9	O	1.585132	0.858862	-0.592464
O10	O	1.428573	0.499600	-0.762384
O11	O	1.305773	0.665076	-0.380218
O12	O	1.170369	0.668854	-0.573558
O13	O	1.347135	0.865502	-0.932296
O14	O	1.187427	0.836165	-0.717091
O15	O	1.451086	0.720419	-0.951820
O16	O	1.447936	1.050344	-0.566696
O17	O	1.345343	1.053207	-0.713187
C18	C	1.145872	0.749650	-0.642878
C19	C	1.044708	0.740921	-0.635411
C20	C	1.398984	1.097497	-0.636650
C21	C	1.406185	1.237557	-0.626539
C22	C	1.401906	0.796770	-0.989056
C23	C	1.410238	0.808123	-1.129110
C24	C	0.872419	0.898972	-0.770605
C25	C	0.777366	0.890774	-0.763593
C26	C	0.759548	0.716324	-0.614382
C27	C	0.854601	0.724521	-0.621394
C28	C	0.911033	0.815849	-0.699507
C29	C	1.006087	0.824052	-0.706512
C30	C	0.988268	0.649596	-0.557308
C31	C	0.893215	0.641399	-0.550296
C32	C	1.619760	0.790692	-0.677987
C33	C	1.720928	0.799455	-0.685483
C34	C	1.365686	0.441490	-0.684269
C35	C	1.358582	0.301443	-0.694441
C36	C	1.362926	0.743508	-0.333030
C37	C	1.354753	0.731816	-0.193015
H38	H	0.918367	0.973341	-0.834200
O39	O	0.739961	0.971480	-0.832843
C40	C	0.769274	0.956292	-0.962171
H41	H	0.835984	0.914030	-0.973462
H42	H	0.780521	1.052159	-1.012170
H43	H	0.715021	0.890407	-1.005458
O44	O	1.303459	1.239033	-0.773205
C45	C	1.332392	1.282912	-0.897999
H46	H	1.372387	1.381705	-0.896419
H47	H	1.270253	1.286222	-0.949244
H48	H	1.377930	1.216291	-0.949245
H49	H	1.452443	1.290015	-0.560655
H50	H	1.300869	0.657805	-1.140581
O51	O	1.474641	0.896369	-1.191532
C52	C	1.562073	0.874095	-1.168199
H53	H	1.555875	0.818159	-1.076272
H54	H	1.607242	0.968211	-1.160237
H55	H	1.593801	0.817906	-1.249220
O56	O	1.060871	0.912637	-0.782577
C57	C	1.043730	0.893479	-0.908470
H58	H	1.012866	0.791103	-0.920356
H59	H	1.110510	0.914859	-0.974526
H60	H	0.993955	0.958982	-0.932331
H61	H	0.713585	0.641962	-0.550795
H62	H	0.847255	0.567039	-0.486703
H63	H	1.019717	0.581914	-0.499412
