data_functionalizedCrystal
_audit_creation_method	'MofGen! by Chris Wilmer'
_symmetry_space_group_name_H-M	'P1'
_symmetry_Int_Tables_number	1
_symmetry_cell_setting	triclinic
loop_
_symmetry_equiv_pos_as_xyz
  x,y,z
_cell_length_a	13.339070
_cell_length_b	12.376593
_cell_length_c	13.262508
_cell_angle_alpha	87.019235
_cell_angle_beta	80.569189
_cell_angle_gamma	80.994059
loop_
_atom_site_label
_atom_site_type_symbol
_atom_site_fract_x
_atom_site_fract_y
_atom_site_fract_z
O1	O	-1.332804	-0.063156	0.511351
O2	O	-1.041644	-0.043396	0.447043
O3	O	-1.202613	-0.010211	0.339119
O4	O	-1.171836	-0.096341	0.619276
O5	O	-1.170245	-0.185052	0.296282
O6	O	-1.009276	-0.218236	0.404206
O7	O	-1.300436	-0.237997	0.468514
Zn8	Zn	-1.149717	-0.255876	0.429559
Zn9	Zn	-1.192363	-0.025516	0.485999
O10	O	-1.139467	-0.271182	0.576438
C11	C	-0.988340	-0.127478	0.414762
C12	C	-0.877733	-0.117527	0.382383
C13	C	-0.499754	-0.194917	0.634143
C14	C	-0.603675	-0.204264	0.664569
C15	C	-0.672194	-0.182581	0.594025
C16	C	-0.636784	-0.151548	0.493050
C17	C	-0.532855	-0.142192	0.462623
C18	C	-0.705295	-0.129856	0.422505
C19	C	-0.669884	-0.098823	0.321530
C20	C	-0.565965	-0.089469	0.291108
C21	C	-0.497446	-0.111152	0.361652
C22	C	-0.809224	-0.139212	0.452932
C23	C	-0.842324	-0.086487	0.281412
C24	C	-0.738404	-0.077140	0.250986
N25	N	-1.120619	-0.413092	0.391042
C26	C	-1.289021	-0.836611	0.613939
C27	C	-1.309377	-0.726563	0.640905
C28	C	-1.262190	-0.648190	0.578442
C29	C	-1.194642	-0.679876	0.489007
C30	C	-1.174278	-0.789936	0.462042
C31	C	-1.147447	-0.601515	0.426545
C32	C	-1.079899	-0.633201	0.337111
C33	C	-1.059539	-0.743251	0.310150
C34	C	-1.106726	-0.821624	0.372614
C35	C	-1.167811	-0.491454	0.453510
C36	C	-1.053068	-0.444780	0.301613
C37	C	-1.032712	-0.554828	0.274647
C38	C	-0.353740	-0.153918	0.500795
C39	C	-0.464345	-0.163877	0.533172
C40	C	-1.187680	-0.086380	0.281112
C41	C	-1.191397	-0.052855	0.172085
N42	N	-1.221470	0.131701	0.524511
C43	C	-1.131291	-0.339587	-0.228663
C44	C	-1.127791	-0.371086	-0.126228
C45	C	-1.143692	-0.291531	-0.051645
C46	C	-1.163094	-0.180471	-0.079506
C47	C	-1.166587	-0.148968	-0.181952
C48	C	-1.178988	-0.100912	-0.004934
C49	C	-1.198390	0.010148	-0.032795
C50	C	-1.201882	0.041645	-0.135231
C51	C	-1.185981	-0.037910	-0.209814
C52	C	-1.175496	-0.132415	0.097512
C53	C	-1.210791	0.058203	0.144223
C54	C	-1.214291	0.089703	0.041788
C55	C	-1.154401	-0.195010	0.634446
C56	C	-1.150685	-0.228528	0.743475
H57	H	-0.756810	-0.190190	0.618805
H58	H	-1.090158	-0.911236	0.350661
H59	H	-1.327429	-0.900431	0.664791
N60	N	-1.284150	-0.529491	0.607512
H61	H	-1.263097	-0.522128	0.676301
H62	H	-1.360068	-0.502234	0.611289
H63	H	-1.217671	0.132078	-0.157912
H64	H	-1.230087	0.180130	0.019088
H65	H	-1.004529	-0.769047	0.237332
H66	H	-0.977713	-0.580643	0.201828
H67	H	-1.112005	-0.461512	-0.103550
N68	N	-1.189754	-0.003950	-0.320304
H69	H	-1.121472	-0.031000	-0.363220
H70	H	-1.204492	0.078477	-0.326561
N71	N	-1.227913	0.144004	0.224666
H72	H	-1.289441	0.132400	0.277291
H73	H	-1.240672	0.219108	0.191404
H74	H	-1.014640	-0.380968	0.250751
H75	H	-0.838043	-0.164483	0.535145
N76	N	-1.382233	-0.692385	0.737353
H77	H	-1.409042	-0.758729	0.772830
H78	H	-1.441663	-0.637748	0.719363
H79	H	-1.159689	-0.222841	0.120184
H80	H	-0.537140	-0.064189	0.208890
N81	N	-0.641870	-0.237716	0.773472
H82	H	-0.582697	-0.250031	0.813546
H83	H	-0.672271	-0.307559	0.773965
H84	H	-1.140840	-0.317185	0.031760
N85	N	-1.114152	-0.425382	-0.309101
H86	H	-1.052623	-0.413771	-0.361720
H87	H	-1.177067	-0.419292	-0.343487
H88	H	-0.412824	-0.103544	0.336884
N89	N	-0.425860	-0.218292	0.710226
H90	H	-0.394011	-0.150767	0.717297
H91	H	-0.370059	-0.280428	0.685498
N92	N	-0.700205	-0.043678	0.142078
H93	H	-0.623974	-0.041046	0.133512
H94	H	-0.737595	0.031015	0.125817
H95	H	-1.222807	-0.465668	0.526328
N96	N	-0.916215	-0.063091	0.205316
H97	H	-0.987422	-0.073731	0.239911
H98	H	-0.893277	-0.114758	0.146668
