data_functionalizedCrystal
_audit_creation_method	'MofGen! by Chris Wilmer'
_symmetry_space_group_name_H-M	'P1'
_symmetry_Int_Tables_number	1
_symmetry_cell_setting	triclinic
loop_
_symmetry_equiv_pos_as_xyz
  x,y,z
_cell_length_a	13.897449
_cell_length_b	13.897441
_cell_length_c	13.032721
_cell_angle_alpha	82.848527
_cell_angle_beta	82.794330
_cell_angle_gamma	89.981404
loop_
_atom_site_label
_atom_site_type_symbol
_atom_site_fract_x
_atom_site_fract_y
_atom_site_fract_z
Zn1	Zn	1.425895	-0.594128	0.415982
Zn2	Zn	1.925895	-0.094128	0.915982
Zn3	Zn	1.405297	-0.453311	0.590754
Zn4	Zn	1.905297	0.046689	1.090754
Zn5	Zn	1.264584	-0.432852	0.416028
Zn6	Zn	1.764584	0.067148	0.916028
Zn7	Zn	1.244075	-0.614556	0.590688
Zn8	Zn	1.744075	-0.114556	1.090688
O9	O	1.334963	-0.523712	0.503363
O10	O	1.834963	-0.023712	1.003363
O11	O	1.558143	-0.575462	0.439173
O12	O	2.058143	-0.075462	0.939173
O13	O	1.386594	-0.315621	0.567623
O14	O	1.886594	0.184379	1.067623
O15	O	1.303186	-0.437135	0.269783
O16	O	1.803186	0.062865	0.769783
O17	O	1.543010	-0.472004	0.567578
O18	O	2.043010	0.027996	1.067578
O19	O	1.421700	-0.555624	0.269749
O20	O	1.921700	-0.055624	0.769749
O21	O	1.283213	-0.300590	0.439253
O22	O	1.783213	0.199410	0.939253
O23	O	1.126883	-0.456943	0.439189
O24	O	1.626883	0.043057	0.939189
O25	O	1.268231	-0.746822	0.567466
O26	O	1.768231	-0.246822	1.067466
O27	O	1.111815	-0.590439	0.567511
O28	O	1.611815	-0.090439	1.067511
O29	O	1.401813	-0.731814	0.439110
O30	O	1.901813	-0.231814	0.939110
O31	O	1.366707	-0.491811	0.736984
O32	O	1.866707	0.008189	1.236984
O33	O	1.248258	-0.610277	0.736936
O34	O	1.748258	-0.110277	1.236936
C35	C	1.084350	-0.523688	0.503349
C36	C	1.584350	-0.023688	1.003349
C37	C	0.977134	-0.523704	0.503368
C38	C	1.477134	-0.023704	1.003368
C39	C	1.303048	-0.555502	0.774878
C40	C	1.803048	-0.055502	1.274878
C41	C	1.289483	-0.569134	0.891033
C42	C	1.789483	-0.069134	1.391033
C43	C	1.335032	-0.775295	0.503275
C44	C	1.835032	-0.275295	1.003275
C45	C	1.335062	-0.882504	0.503238
C46	C	1.835062	-0.382504	1.003238
C47	C	0.780838	-0.523730	0.503372
C48	C	1.280838	-0.023730	1.003372
C49	C	0.890071	-0.523712	0.503367
C50	C	1.390071	-0.023712	1.003367
C51	C	1.586554	-0.523736	0.503378
C52	C	2.086554	-0.023736	1.003378
C53	C	1.693767	-0.523746	0.503384
C54	C	2.193767	-0.023746	1.003384
C55	C	1.335085	-0.969571	0.503208
C56	C	1.835085	-0.469571	1.003208
C57	C	1.335118	-1.078798	0.503161
C58	C	1.835118	-0.578798	1.003161
C59	C	1.334958	-0.273099	0.503375
C60	C	1.834958	0.226901	1.003375
C61	C	1.335150	-0.165855	0.503118
C62	C	1.835150	0.334145	1.003118
C63	C	1.367028	-0.491819	0.230788
C64	C	1.867028	0.008181	0.730788
C65	C	1.380693	-0.478228	0.114633
C66	C	1.880693	0.021772	0.614633
C67	C	1.342094	-0.516640	0.942808
C68	C	1.842094	-0.016640	1.442808
C69	C	1.328075	-0.530729	1.062861
C70	C	1.828075	-0.030729	1.562861
H71	H	1.397518	-0.461272	0.898259
H72	H	1.897518	0.038728	1.398259
Br73	Br	1.235705	-0.623034	1.137101
Br74	Br	1.735705	-0.123034	1.637101
Br75	Br	1.473079	-0.385938	1.040395
Br76	Br	1.973079	0.114062	1.540395
Br77	Br	1.197117	-0.661435	0.965278
Br78	Br	1.697117	-0.161435	1.465278
