data_functionalizedCrystal
_audit_creation_method	'MofGen! by Chris Wilmer'
_symmetry_space_group_name_H-M	'P1'
_symmetry_Int_Tables_number	1
_symmetry_cell_setting	triclinic
loop_
_symmetry_equiv_pos_as_xyz
  x,y,z
_cell_length_a	14.044220
_cell_length_b	14.044190
_cell_length_c	18.366186
_cell_angle_alpha	89.989358
_cell_angle_beta	89.996026
_cell_angle_gamma	93.190328
loop_
_atom_site_label
_atom_site_type_symbol
_atom_site_fract_x
_atom_site_fract_y
_atom_site_fract_z
O1	O	1.277180	0.230170	-0.060487
O2	O	1.777180	0.730170	0.439513
O3	O	1.000508	0.221865	-0.060505
O4	O	1.500508	0.721865	0.439495
O5	O	1.134688	0.087681	-0.060482
O6	O	1.634688	0.587681	0.439518
O7	O	1.143001	0.364354	-0.060510
O8	O	1.643001	0.864354	0.439490
O9	O	1.134662	0.087672	0.060618
O10	O	1.634662	0.587672	0.560618
O11	O	1.000483	0.221855	0.060595
O12	O	1.500483	0.721855	0.560595
O13	O	1.277154	0.230161	0.060612
O14	O	1.777154	0.730161	0.560612
Zn15	Zn	1.138815	0.226007	0.079831
Zn16	Zn	1.638815	0.726007	0.579831
Zn17	Zn	1.138848	0.226019	-0.079723
Zn18	Zn	1.638848	0.726019	0.420277
O19	O	1.142975	0.364344	0.060589
O20	O	1.642975	0.864344	0.560589
C21	C	0.964874	0.218224	0.000043
C22	C	1.464874	0.718224	0.500043
C23	C	0.858731	0.207380	0.000036
C24	C	1.358731	0.707380	0.500036
C25	C	1.131039	0.052054	0.000070
C26	C	1.631039	0.552054	0.500070
C27	C	1.120191	-0.054089	0.000075
C28	C	1.620191	0.445911	0.500075
C29	C	0.664392	0.187553	0.000053
C30	C	1.164392	0.687553	0.500053
C31	C	0.613264	0.264468	0.000048
C32	C	1.113264	0.764468	0.500048
C33	C	0.505128	0.253436	0.000057
C34	C	1.005128	0.753436	0.500057
C35	C	0.772539	0.198583	0.000044
C36	C	1.272539	0.698583	0.500044
C37	C	1.177292	-0.299547	0.000051
C38	C	1.677292	0.200453	0.500051
C39	C	1.100375	-0.248422	0.000051
C40	C	1.600375	0.251578	0.500051
C41	C	1.111404	-0.140285	0.000064
C42	C	1.611404	0.359715	0.500064
C43	C	1.166265	-0.407694	0.000037
C44	C	1.666265	0.092306	0.500037
C45	C	1.312789	0.233801	0.000063
C46	C	1.812789	0.733801	0.500063
C47	C	1.418932	0.244646	0.000065
C48	C	1.918932	0.744646	0.500065
C49	C	1.146624	0.399971	0.000036
C50	C	1.646624	0.899971	0.500036
C51	C	1.157472	0.506114	0.000026
C52	C	1.657472	1.006114	0.500026
N53	N	1.138799	0.225998	0.188722
N54	N	1.638799	0.725998	0.688722
N55	N	1.138871	0.226020	-0.188614
N56	N	1.638871	0.726020	0.311386
C57	C	1.198237	0.166615	0.226832
C58	C	1.698237	0.666615	0.726832
C59	C	1.198243	0.166612	0.303060
C60	C	1.698243	0.666612	0.803060
C61	C	1.138820	0.226008	0.341174
C62	C	1.638820	0.726008	0.841174
C63	C	1.079370	0.285394	0.303055
C64	C	1.579370	0.785394	0.803055
C65	C	1.079359	0.285389	0.226828
C66	C	1.579359	0.785389	0.726828
C67	C	1.133666	0.311899	0.461925
C68	C	1.633666	0.811899	0.961925
C69	C	1.133684	0.311906	0.538150
C70	C	1.633684	0.811906	1.038150
C71	C	1.138849	0.226022	0.576282
C72	C	1.638849	0.726022	1.076282
C73	C	1.144016	0.140129	0.538179
C74	C	1.644016	0.640129	1.038179
C75	C	1.144005	0.140125	0.461953
C76	C	1.644005	0.640125	0.961953
C77	C	1.138825	0.226019	0.423829
C78	C	1.638825	0.726019	0.923829
C79	C	1.198297	0.166630	0.697048
C80	C	1.698297	0.666630	1.197048
C81	C	1.198296	0.166625	0.773277
C82	C	1.698296	0.666625	1.273277
C83	C	1.079428	0.285416	0.773270
C84	C	1.579428	0.785416	1.273270
C85	C	1.079424	0.285413	0.697042
C86	C	1.579424	0.785413	1.197042
C87	C	1.138863	0.226022	0.658935
C88	C	1.638863	0.726022	1.158935
H89	H	0.650706	0.338602	0.000037
H90	H	1.150706	0.838602	0.500037
Cl91	Cl	1.150516	0.032154	0.586107
Cl92	Cl	1.650516	0.532154	1.086107
H93	H	1.251418	-0.262106	0.000063
H94	H	1.751418	0.237894	0.500063
H95	H	0.626954	0.113425	0.000064
H96	H	1.126954	0.613425	0.500064
H97	H	1.026243	-0.285865	0.000042
H98	H	1.526243	0.214135	0.500042
H99	H	1.246634	0.118253	0.195808
H100	H	1.746634	0.618253	0.695808
Cl101	Cl	1.272974	0.091953	0.350979
Cl102	Cl	1.772974	0.591953	0.850979
H103	H	1.148209	0.070188	0.430933
H104	H	1.648209	0.570188	0.930933
Cl105	Cl	1.273014	0.091962	0.649141
Cl106	Cl	1.773014	0.591962	1.149141
Cl107	Cl	1.273018	0.091960	0.821190
Cl108	Cl	1.773018	0.591960	1.321190
Cl109	Cl	1.004717	0.360078	0.821180
Cl110	Cl	1.504717	0.860078	1.321180
H111	H	1.031027	0.333772	0.666010
H112	H	1.531027	0.833772	1.166010
Cl113	Cl	1.127195	0.419885	0.586043
Cl114	Cl	1.627195	0.919885	1.086043
H115	H	1.129444	0.381840	0.430885
H116	H	1.629444	0.881840	0.930885
Cl117	Cl	1.004663	0.360060	0.350968
Cl118	Cl	1.504663	0.860060	0.850968
H119	H	1.030956	0.333747	0.195798
H120	H	1.530956	0.833747	0.695798
