data_functionalizedCrystal
_audit_creation_method	'MofGen! by Chris Wilmer'
_symmetry_space_group_name_H-M	'P1'
_symmetry_Int_Tables_number	1
_symmetry_cell_setting	triclinic
loop_
_symmetry_equiv_pos_as_xyz
  x,y,z
_cell_length_a	12.759401
_cell_length_b	12.759400
_cell_length_c	18.215399
_cell_angle_alpha	89.976139
_cell_angle_beta	89.982118
_cell_angle_gamma	90.016169
loop_
_atom_site_label
_atom_site_type_symbol
_atom_site_fract_x
_atom_site_fract_y
_atom_site_fract_z
Zn1	Zn	1.606235	-0.418234	-0.416099
Zn2	Zn	1.606136	-0.593932	-0.293041
Zn3	Zn	1.430543	-0.418272	-0.293050
Zn4	Zn	1.430526	-0.593876	-0.416070
O5	O	1.518360	-0.506079	-0.354565
O6	O	1.753243	-0.441548	-0.399783
O7	O	1.582809	-0.570669	-0.190058
O8	O	1.453898	-0.271246	-0.309388
O9	O	1.753170	-0.570632	-0.309373
O10	O	1.582978	-0.271218	-0.399792
O11	O	1.453802	-0.441613	-0.190065
O12	O	1.283520	-0.441559	-0.309361
O13	O	1.453868	-0.570538	-0.519058
O14	O	1.283507	-0.570575	-0.399743
O15	O	1.582961	-0.441495	-0.519079
O16	O	1.582792	-0.740945	-0.309345
O17	O	1.453772	-0.740905	-0.399734
C18	C	1.245393	-0.506066	-0.354550
C19	C	1.128616	-0.506086	-0.354562
C20	C	1.518298	-0.779046	-0.354552
C21	C	1.518367	-0.895823	-0.354571
C22	C	1.073775	-0.573366	-0.401549
C23	C	0.964051	-0.573370	-0.401564
C24	C	0.964019	-0.438810	-0.307596
C25	C	1.073741	-0.438801	-0.307586
C26	C	0.814148	-0.611082	-0.488325
C27	C	0.759303	-0.678379	-0.535307
C28	C	0.794900	-0.780911	-0.546479
C29	C	0.885340	-0.816168	-0.510658
C30	C	0.940180	-0.748876	-0.463671
C31	C	0.904584	-0.646329	-0.452513
C32	C	1.223645	-0.401101	-0.220824
C33	C	1.278486	-0.333814	-0.173833
C34	C	1.242891	-0.231280	-0.162653
C35	C	1.152448	-0.196027	-0.198461
C36	C	1.097607	-0.263314	-0.245452
C37	C	1.133209	-0.365847	-0.256632
C38	C	1.585550	-0.950580	-0.401684
C39	C	1.585609	-1.060304	-0.401704
C40	C	1.451300	-1.060503	-0.307492
C41	C	1.451236	-0.950781	-0.307476
C42	C	1.623164	-1.210145	-0.488541
C43	C	1.690363	-1.264907	-0.535647
C44	C	1.792848	-1.229198	-0.547004
C45	C	1.828154	-1.138729	-0.511243
C46	C	1.760960	-1.083973	-0.464131
C47	C	1.658461	-1.119681	-0.452789
C48	C	1.413692	-0.800938	-0.220638
C49	C	1.346503	-0.746181	-0.173522
C50	C	1.244017	-0.781888	-0.162157
C51	C	1.208714	-0.872360	-0.197905
C52	C	1.275903	-0.927118	-0.245021
C53	C	1.378388	-0.891403	-0.256387
C54	C	1.792393	-0.506092	-0.354580
C55	C	1.909170	-0.506098	-0.354586
C56	C	1.518424	-0.506006	-0.546518
C57	C	1.518451	-0.505975	-0.628317
C58	C	1.518451	-0.232045	-0.354594
C59	C	1.518490	-0.115269	-0.354607
C60	C	1.585694	-0.438720	-0.816523
C61	C	1.585707	-0.438689	-0.893382
C62	C	1.451283	-0.573069	-0.893349
C63	C	1.451266	-0.573093	-0.816491
C64	C	1.518477	-0.505920	-0.778080
C65	C	1.518507	-0.505865	-0.931797
C66	C	1.518520	-0.505832	-1.015130
C67	C	1.518463	-0.505951	-0.694741
C68	C	1.518357	-0.506075	-0.163359
C69	C	1.518533	-0.505810	-0.081560
H70	H	1.118451	-0.628151	-0.439802
C71	C	1.377325	-0.647015	-0.774198
H72	H	1.386934	-0.637399	-0.722924
H73	H	1.392678	-0.717604	-0.786783
H74	H	1.306738	-0.631625	-0.786788
C75	C	1.866769	-1.289432	-0.598817
H76	H	1.932869	-1.255215	-0.600453
H77	H	1.837377	-1.291272	-0.646706
H78	H	1.875677	-1.358972	-0.581245
H79	H	1.013814	-0.777581	-0.434507
C80	C	1.940893	-1.099455	-0.523728
H81	H	1.952296	-1.037741	-0.495681
H82	H	1.950819	-1.084340	-0.574324
H83	H	1.989120	-1.152054	-0.508870
H84	H	0.685668	-0.649663	-0.564472
C85	C	1.113291	-0.083239	-0.186168
H86	H	1.158911	-0.048211	-0.153060
H87	H	1.044547	-0.085010	-0.166168
H88	H	1.112278	-0.046904	-0.231695
H89	H	1.287548	-0.176499	-0.124382
C90	C	0.924489	-0.928958	-0.522945
H91	H	0.878881	-0.963982	-0.556063
H92	H	0.925504	-0.965290	-0.477422
H93	H	0.993237	-0.927184	-0.542947
H94	H	1.539710	-1.239222	-0.479306
H95	H	1.352130	-0.362526	-0.144676
C96	C	1.377363	-0.646963	-0.935600
H97	H	1.337322	-0.686982	-0.901695
H98	H	1.417546	-0.692730	-0.965579
H99	H	1.331600	-0.606758	-0.965582
H100	H	0.919326	-0.384031	-0.269350
H101	H	0.750238	-0.835705	-0.584733
C102	C	1.262799	-0.513892	-0.233123
H103	H	1.217192	-0.548912	-0.266244
H104	H	1.263813	-0.550228	-0.187602
H105	H	1.331548	-0.512115	-0.253125
C106	C	1.385333	-0.646668	-0.134191
H107	H	1.330644	-0.619180	-0.104497
H108	H	1.405491	-0.595863	-0.169623
H109	H	1.443814	-0.663579	-0.104176
C110	C	1.377472	-1.120961	-0.255684
H111	H	1.387139	-1.194151	-0.262434
H112	H	1.306861	-1.103034	-0.266405
H113	H	1.392888	-1.103006	-0.206242
C114	C	1.659655	-0.364782	-0.935669
H115	H	1.650037	-0.374380	-0.986944
H116	H	1.730234	-0.380173	-0.923077
H117	H	1.644301	-0.294189	-0.923081
C118	C	1.651525	-1.364409	-0.574988
H119	H	1.580855	-1.377825	-0.561490
H120	H	1.694020	-1.422250	-0.561148
H121	H	1.655727	-1.354527	-0.626600
C122	C	1.659382	-0.890124	-0.453489
H123	H	1.649731	-0.816934	-0.446729
H124	H	1.643977	-0.908075	-0.502929
H125	H	1.729995	-0.908057	-0.442760
C126	C	0.775000	-0.498290	-0.476044
H127	H	0.820620	-0.463254	-0.442940
H128	H	0.706256	-0.500054	-0.456045
H129	H	0.773990	-0.461966	-0.521575
H130	H	1.023968	-0.234600	-0.274613
H131	H	1.789707	-1.010317	-0.435014
H132	H	1.189313	-0.737295	-0.123789
H133	H	1.640419	-0.384020	-0.785251
C134	C	1.237091	-1.026661	-0.284322
H135	H	1.291792	-1.054170	-0.313996
H136	H	1.178605	-1.009802	-0.314339
H137	H	1.216955	-1.077443	-0.248862
C138	C	1.095978	-0.911640	-0.185410
H139	H	1.061016	-0.866066	-0.152236
H140	H	1.097838	-0.980387	-0.165416
H141	H	1.059523	-0.912681	-0.230870
H142	H	1.497140	-0.771846	-0.229897
