data_functionalizedCrystal
_audit_creation_method	'MofGen! by Chris Wilmer'
_symmetry_space_group_name_H-M	'P1'
_symmetry_Int_Tables_number	1
_symmetry_cell_setting	triclinic
loop_
_symmetry_equiv_pos_as_xyz
  x,y,z
_cell_length_a	13.635800
_cell_length_b	10.943624
_cell_length_c	19.551823
_cell_angle_alpha	85.537113
_cell_angle_beta	101.663376
_cell_angle_gamma	71.161201
loop_
_atom_site_label
_atom_site_type_symbol
_atom_site_fract_x
_atom_site_fract_y
_atom_site_fract_z
V1	V	2.039646	-0.403155	0.096657
O2	O	2.037475	-0.394859	-0.004664
O3	O	2.010827	-0.400995	0.191672
O4	O	2.028907	-0.578712	0.095161
O5	O	2.019270	-0.215912	0.092515
V6	V	2.280314	-0.380686	0.084538
O7	O	2.172673	-0.452441	0.123239
O8	O	2.372385	-0.331400	0.057956
O9	O	2.197530	-0.382846	-0.010477
O10	O	2.341183	-0.388982	0.185859
O11	O	2.359389	-0.567929	0.088680
O12	O	2.179449	-0.205129	0.086034
V13	V	2.539646	-0.403155	0.096657
O14	O	2.537475	-0.394859	-0.004664
O15	O	2.510827	-0.400995	0.191672
O16	O	2.528907	-0.578712	0.095161
O17	O	2.519270	-0.215912	0.092515
V18	V	2.780314	-0.380686	0.084538
O19	O	2.672673	-0.452441	0.123239
O20	O	2.872385	-0.331400	0.057956
O21	O	2.697530	-0.382846	-0.010477
O22	O	2.841183	-0.388982	0.185859
O23	O	2.859389	-0.567929	0.088680
O24	O	2.679449	-0.205129	0.086034
C25	C	1.954831	-0.621483	0.091725
C26	C	1.986662	-0.765006	0.091132
C27	C	1.909825	-0.842128	0.087134
C28	C	1.993391	-0.948489	0.146473
C29	C	1.959825	-0.914380	0.030741
C30	C	2.069823	-0.869490	0.150527
C31	C	2.036226	-0.835357	0.034742
C32	C	2.119857	-0.941688	0.094098
C33	C	1.931768	-0.394789	0.214835
C34	C	1.948938	-0.394193	0.292511
C35	C	2.108259	-0.389048	-0.033636
C36	C	2.080709	-0.389653	-0.111311
C37	C	2.085196	-0.162351	0.089472
C38	C	2.042985	-0.018827	0.090062
C39	C	2.431768	-0.394789	0.214835
C40	C	2.448938	-0.394193	0.292511
C41	C	2.454831	-0.621483	0.091725
C42	C	2.486662	-0.765006	0.091132
C43	C	2.048382	-0.400370	0.332556
C44	C	2.064519	-0.399823	0.405542
C45	C	1.981198	-0.393074	0.438478
C46	C	1.881742	-0.386904	0.398424
C47	C	1.865612	-0.387464	0.325440
C48	C	1.918307	-0.311204	0.544970
C49	C	1.934439	-0.310636	0.617951
C50	C	2.030948	-0.391353	0.663584
C51	C	2.111336	-0.472621	0.636225
C52	C	2.095205	-0.473181	0.563242
C53	C	1.998679	-0.392467	0.517616
C54	C	2.147896	-0.396939	0.782770
C55	C	2.164031	-0.396400	0.855758
C56	C	1.981248	-0.383467	0.848637
C57	C	1.965119	-0.384019	0.775651
C58	C	2.048445	-0.390749	0.742722
C59	C	2.608259	-0.389048	-0.033636
C60	C	2.580709	-0.389653	-0.111311
C61	C	2.585196	-0.162351	0.089472
C62	C	2.542985	-0.018827	0.090062
C63	C	2.548396	-0.400387	0.332551
C64	C	2.564548	-0.399847	0.405538
C65	C	2.481238	-0.393104	0.438483
C66	C	2.381773	-0.386914	0.398438
C67	C	2.365625	-0.387464	0.325453
C68	C	2.653745	-0.383463	-0.151351
C69	C	2.627866	-0.384009	-0.224338
C70	C	2.528952	-0.390754	-0.257283
C71	C	2.455910	-0.396941	-0.217238
C72	C	2.481787	-0.396385	-0.144253
C73	C	2.409825	-0.842128	0.087134
C74	C	2.493391	-0.948489	0.146473
C75	C	2.459825	-0.914380	0.030741
C76	C	2.569823	-0.869490	0.150527
C77	C	2.536226	-0.835357	0.034742
C78	C	2.619857	-0.941688	0.094098
H79	H	1.820762	-0.798662	0.084269
H80	H	2.507895	-0.391205	-0.316712
H81	H	2.320762	-0.798662	0.084269
H82	H	2.616241	-0.405869	0.305737
Cl83	Cl	2.289060	-0.404175	0.906103
H84	H	2.208960	-0.984951	0.097057
Cl85	Cl	1.965948	-1.024522	0.219402
H86	H	2.413629	-0.934826	-0.019872
H87	H	2.053961	-0.786078	-0.012496
Cl88	Cl	2.501556	-0.392411	0.530237
Cl89	Cl	2.389957	-0.404173	-0.093926
Cl90	Cl	1.833388	-0.208452	0.652337
Cl91	Cl	2.277049	-0.378431	0.439865
Cl92	Cl	2.563606	-0.759265	-0.038191
H93	H	2.475614	-0.997733	0.193709
Cl94	Cl	2.689593	-0.407621	0.455865
Cl95	Cl	1.796968	-0.209728	0.487610
H96	H	2.284632	-0.382414	0.292857
Cl97	Cl	2.331563	-0.405414	-0.258666
H98	H	2.616023	-0.849262	0.201207
Cl99	Cl	2.757424	-1.008487	0.098663
Cl100	Cl	2.778101	-0.374981	-0.109951
H101	H	2.116023	-0.849262	0.201207
H102	H	1.913629	-0.934826	-0.019872
H103	H	2.687354	-0.378973	-0.256932
H104	H	2.116237	-0.405858	0.305751
H105	H	2.145501	-0.404852	0.438154
Cl106	Cl	1.876503	-0.374998	0.890036
Cl107	Cl	2.196255	-0.575351	0.528850
H108	H	2.189846	-0.538526	0.673390
H109	H	2.215744	-0.402416	0.755957
H110	H	1.813904	-0.381412	0.425245
Cl111	Cl	1.740585	-0.379696	0.275095
Cl112	Cl	1.840093	-0.376243	0.725305
