data_functionalizedCrystal
_audit_creation_method	'MofGen! by Chris Wilmer'
_symmetry_space_group_name_H-M	'P1'
_symmetry_Int_Tables_number	1
_symmetry_cell_setting	triclinic
loop_
_symmetry_equiv_pos_as_xyz
  x,y,z
_cell_length_a	25.639242
_cell_length_b	25.639240
_cell_length_c	25.639233
_cell_angle_alpha	89.974071
_cell_angle_beta	89.977834
_cell_angle_gamma	90.028283
loop_
_atom_site_label
_atom_site_type_symbol
_atom_site_fract_x
_atom_site_fract_y
_atom_site_fract_z
Zn1	Zn	0.799247	-0.208277	-0.295716
Zn2	Zn	1.299247	0.291723	0.204284
Zn3	Zn	0.799179	-0.295696	-0.208270
Zn4	Zn	1.299179	0.204304	0.291730
Zn5	Zn	0.711823	-0.208269	-0.208280
Zn6	Zn	1.211823	0.291731	0.291720
Zn7	Zn	0.711777	-0.295676	-0.295659
Zn8	Zn	1.211777	0.204324	0.204341
O9	O	0.755506	-0.251979	-0.251981
O10	O	1.255506	0.248021	0.248019
O11	O	0.872403	-0.219884	-0.284135
O12	O	1.372403	0.280116	0.215865
O13	O	0.787582	-0.284103	-0.135106
O14	O	1.287582	0.215897	0.364894
O15	O	0.723467	-0.135105	-0.219907
O16	O	1.223467	0.364895	0.280093
O17	O	0.872353	-0.284111	-0.219889
O18	O	1.372353	0.215889	0.280111
O19	O	0.787697	-0.135111	-0.284146
O20	O	1.287697	0.364889	0.215854
O21	O	0.723402	-0.219871	-0.135114
O22	O	1.223402	0.280129	0.364886
O23	O	0.638652	-0.219853	-0.219852
O24	O	1.138652	0.280147	0.280148
O25	O	0.723389	-0.284078	-0.368832
O26	O	1.223389	0.215922	0.131168
O27	O	0.638618	-0.284070	-0.284049
O28	O	1.138618	0.215930	0.215951
O29	O	0.787653	-0.219866	-0.368874
O30	O	1.287653	0.280134	0.131126
O31	O	0.787538	-0.368858	-0.219834
O32	O	1.287538	0.131142	0.280166
O33	O	0.723324	-0.368844	-0.284039
O34	O	1.223324	0.131156	0.215961
C35	C	0.619664	-0.251959	-0.251946
C36	C	1.119664	0.248041	0.248054
C37	C	0.561550	-0.251963	-0.251943
C38	C	1.061550	0.248037	0.248057
C39	C	0.201178	-0.285473	-0.285377
C40	C	0.701178	0.214527	0.214623
C41	C	0.146574	-0.285477	-0.285385
C42	C	0.646574	0.214523	0.214615
O43	O	0.118330	-0.313943	-0.313782
O44	O	0.618330	0.186057	0.186218
N45	N	0.119267	-0.251994	-0.252015
N46	N	0.619267	0.248006	0.247985
C47	C	0.146568	-0.218502	-0.218639
C48	C	0.646568	0.281498	0.281361
O49	O	0.118328	-0.190022	-0.190256
O50	O	0.618328	0.309978	0.309744
C51	C	0.201171	-0.218496	-0.218634
C52	C	0.701171	0.281504	0.281366
C53	C	0.228475	-0.251985	-0.252002
C54	C	0.728475	0.248015	0.247998
C55	C	0.228482	-0.318959	-0.318743
C56	C	0.728482	0.181041	0.181257
C57	C	0.283082	-0.318956	-0.318734
C58	C	0.783082	0.181044	0.181266
C59	C	0.310379	-0.285468	-0.285359
C60	C	0.810379	0.214532	0.214641
C61	C	0.283076	-0.251983	-0.251993
C62	C	0.783076	0.248017	0.248007
C63	C	0.228471	-0.185002	-0.185260
C64	C	0.728471	0.314998	0.314740
C65	C	0.283078	-0.184999	-0.185258
C66	C	0.783078	0.315001	0.314742
C67	C	0.310382	-0.218488	-0.218626
C68	C	0.810382	0.281512	0.281374
C69	C	0.364973	-0.218492	-0.218609
C70	C	0.864973	0.281508	0.281391
N71	N	0.392279	-0.251974	-0.251979
N72	N	0.892279	0.248026	0.248021
C73	C	0.364983	-0.285463	-0.285354
C74	C	0.864983	0.214537	0.214646
C75	C	0.031897	-0.218515	-0.218653
C76	C	0.531897	0.281485	0.281347
C77	C	-0.022705	-0.218523	-0.218655
C78	C	0.477295	0.281477	0.281345
C79	C	-0.022695	-0.285497	-0.285402
C80	C	0.477305	0.214503	0.214598
C81	C	0.031908	-0.285492	-0.285397
C82	C	0.531908	0.214508	0.214603
C83	C	0.059204	-0.251998	-0.252023
C84	C	0.559204	0.248002	0.247977
C85	C	0.479648	-0.285455	-0.285332
C86	C	0.979648	0.214545	0.214668
C87	C	0.534253	-0.285451	-0.285318
C88	C	1.034253	0.214549	0.214682
C89	C	0.534239	-0.218475	-0.218573
C90	C	1.034239	0.281525	0.281427
C91	C	0.479638	-0.218481	-0.218585
C92	C	0.979638	0.281519	0.281415
C93	C	0.452344	-0.251972	-0.251968
C94	C	0.952344	0.248028	0.248032
O95	O	0.393252	-0.190038	-0.190228
O96	O	0.893252	0.309962	0.309772
O97	O	0.393229	-0.313933	-0.313736
O98	O	0.893229	0.186067	0.186264
C99	C	0.755433	-0.387822	-0.251940
C100	C	1.255433	0.112178	0.248060
C101	C	0.755449	-0.445936	-0.251940
C102	C	1.255449	0.054064	0.248060
C103	C	0.788967	-0.806264	-0.285491
C104	C	1.288967	-0.306264	0.214509
C105	C	0.788983	-0.860868	-0.285501
C106	C	1.288983	-0.360868	0.214499
O107	O	0.817394	-0.889074	-0.313985
O108	O	1.317394	-0.389074	0.186015
N109	N	0.755579	-0.888218	-0.252032
N110	N	1.255579	-0.388218	0.247968
C111	C	0.722154	-0.860962	-0.218553
C112	C	1.222154	-0.360962	0.281447
O113	O	0.693742	-0.889240	-0.190086
O114	O	1.193742	-0.389240	0.309914
C115	C	0.722136	-0.806359	-0.218546
C116	C	1.222136	-0.306359	0.281454
C117	C	0.755546	-0.779011	-0.252014
C118	C	1.255546	-0.279011	0.247986
C119	C	0.822374	-0.778916	-0.318956
C120	C	1.322374	-0.278916	0.181044
C121	C	0.822359	-0.724315	-0.318945
C122	C	1.322359	-0.224315	0.181055
C123	C	0.788938	-0.697062	-0.285468
C124	C	1.288938	-0.197062	0.214532
C125	C	0.755531	-0.724410	-0.252002
C126	C	1.255531	-0.224410	0.247998
C127	C	0.688708	-0.779103	-0.185070
C128	C	1.188708	-0.279103	0.314930
C129	C	0.688693	-0.724496	-0.185066
C130	C	1.188693	-0.224496	0.314934
C131	C	0.722103	-0.697148	-0.218534
C132	C	1.222103	-0.197148	0.281466
C133	C	0.722095	-0.642557	-0.218514
C134	C	1.222095	-0.142557	0.281486
N135	N	0.755498	-0.615206	-0.251983
N136	N	1.255498	-0.115206	0.248017
C137	C	0.788920	-0.642459	-0.285460
C138	C	1.288920	-0.142459	0.214540
C139	C	0.722193	-0.975633	-0.218572
C140	C	1.222193	-0.475633	0.281428
C141	C	0.722213	-1.030235	-0.218577
C142	C	1.222213	-0.530235	0.281423
C143	C	0.789041	-1.030137	-0.285526
C144	C	1.289041	-0.530137	0.214474
C145	C	0.789024	-0.975534	-0.285518
C146	C	1.289024	-0.475534	0.214482
C147	C	0.755597	-0.948282	-0.252042
C148	C	1.255597	-0.448282	0.247958
C149	C	0.788887	-0.527794	-0.285433
C150	C	1.288887	-0.027794	0.214567
C151	C	0.788870	-0.473189	-0.285417
C152	C	1.288870	0.026811	0.214583
C153	C	0.722040	-0.473291	-0.218471
C154	C	1.222040	0.026709	0.281529
C155	C	0.722058	-0.527892	-0.218484
C156	C	1.222058	-0.027892	0.281516
C157	C	0.755483	-0.555142	-0.251970
C158	C	1.255483	-0.055142	0.248030
O159	O	0.693697	-0.614316	-0.190046
O160	O	1.193697	-0.114316	0.309954
O161	O	0.817322	-0.614175	-0.313927
O162	O	1.317322	-0.114175	0.186073
C163	C	0.891879	-0.252000	-0.252017
C164	C	1.391879	0.248000	0.247983
C165	C	0.949993	-0.252009	-0.252032
C166	C	1.449993	0.247991	0.247968
C167	C	0.755523	-0.251970	-0.388354
C168	C	1.255523	0.248030	0.111646
C169	C	0.755530	-0.251966	-0.446468
C170	C	1.255530	0.248034	0.053532
C171	C	0.755595	-0.115606	-0.252034
C172	C	1.255595	0.384394	0.247966
C173	C	0.755632	-0.057492	-0.252056
C174	C	1.255632	0.442508	0.247944
C175	C	0.789035	-0.218432	-0.806859
C176	C	1.289035	0.281568	-0.306859
C177	C	0.789041	-0.218417	-0.861463
C178	C	1.289041	0.281583	-0.361463
O179	O	0.817486	-0.189967	-0.889723
O180	O	1.317486	0.310033	-0.389723
N181	N	0.755588	-0.251844	-0.888751
N182	N	1.255588	0.248156	-0.388751
C183	C	0.722122	-0.285283	-0.861432
C184	C	1.222122	0.214717	-0.361432
O185	O	0.693668	-0.313713	-0.889656
O186	O	1.193668	0.186287	-0.389656
C187	C	0.722114	-0.285294	-0.806828
C188	C	1.222114	0.214706	-0.306828
C189	C	0.755573	-0.251870	-0.779543
C190	C	1.255573	0.248130	-0.279543
C191	C	0.822491	-0.185009	-0.779574
C192	C	1.322491	0.314991	-0.279574
C193	C	0.822485	-0.185025	-0.724973
C194	C	1.322485	0.314975	-0.224973
C195	C	0.789023	-0.218462	-0.697658
C196	C	1.289023	0.281538	-0.197658
C197	C	0.755567	-0.251885	-0.724943
C198	C	1.255567	0.248115	-0.224943
C199	C	0.688646	-0.318731	-0.779510
C200	C	1.188646	0.181269	-0.279510
C201	C	0.688640	-0.318739	-0.724903
C202	C	1.188640	0.181261	-0.224903
C203	C	0.722099	-0.285314	-0.697618
C204	C	1.222099	0.214686	-0.197618
C205	C	0.722099	-0.285338	-0.643027
C206	C	1.222099	0.214662	-0.143027
N207	N	0.755552	-0.251912	-0.615739
N208	N	1.255552	0.248088	-0.115739
C209	C	0.789014	-0.218474	-0.643055
C210	C	1.289014	0.281526	-0.143055
C211	C	0.722143	-0.285256	-0.976102
C212	C	1.222143	0.214744	-0.476102
C213	C	0.722154	-0.285247	-1.030705
C214	C	1.222154	0.214753	-0.530705
C215	C	0.789072	-0.218381	-1.030733
C216	C	1.289072	0.281619	-0.530733
C217	C	0.789063	-0.218392	-0.976129
C218	C	1.289063	0.281608	-0.476129
C219	C	0.755596	-0.251829	-0.948815
C220	C	1.255596	0.248171	-0.448815
C221	C	0.789000	-0.218509	-0.528389
C222	C	1.289000	0.281491	-0.028389
C223	C	0.788992	-0.218529	-0.473784
C224	C	1.288992	0.281471	0.026216
C225	C	0.722072	-0.285393	-0.473761
C226	C	1.222072	0.214607	0.026239
C227	C	0.722081	-0.285375	-0.528362
C228	C	1.222081	0.214625	-0.028362
C229	C	0.755547	-0.251929	-0.555674
C230	C	1.255547	0.248071	-0.055674
O231	O	0.693668	-0.313773	-0.614732
O232	O	1.193668	0.186227	-0.114732
O233	O	0.817459	-0.190044	-0.614823
O234	O	1.317459	0.309956	-0.114823
C235	C	0.755520	-0.251951	-0.116139
C236	C	1.255520	0.248049	0.383861
C237	C	0.755614	-0.251807	-0.058025
C238	C	1.255614	0.248193	0.441975
H239	H	0.054118	-0.191241	-0.191472
H240	H	0.554118	0.308759	0.308528
C241	C	0.656142	-0.981223	-0.152391
C242	C	1.156142	-0.481223	0.347609
C243	C	0.685453	-0.945680	-0.181765
C244	C	1.185453	-0.445680	0.318235
H245	H	0.633463	-0.962732	-0.129666
H246	H	1.133463	-0.462732	0.370334
H247	H	0.636135	-1.002520	-0.175154
H248	H	1.136135	-0.502520	0.324846
H249	H	0.678952	-1.002515	-0.132425
H250	H	1.178952	-0.502515	0.367575
H251	H	0.662643	-0.924390	-0.201734
H252	H	1.162643	-0.424390	0.298266
H253	H	0.705461	-0.924374	-0.158999
H254	H	1.205461	-0.424374	0.341001
C255	C	0.818728	-1.113802	-0.315269
C256	C	1.318728	-0.613802	0.184731
C257	C	0.825775	-1.060101	-0.322331
C258	C	1.325775	-0.560101	0.177669
H259	H	0.841403	-1.132300	-0.337992
H260	H	1.341403	-0.632300	0.162008
H261	H	0.826411	-1.122762	-0.280154
H262	H	1.326411	-0.622762	0.219846
H263	H	0.783593	-1.122764	-0.322881
H264	H	1.283593	-0.622764	0.177119
H265	H	0.860910	-1.051138	-0.314714
H266	H	1.360910	-0.551138	0.185286
H267	H	0.818096	-1.051137	-0.357454
H268	H	1.318096	-0.551137	0.142546
H269	H	0.694841	-0.312597	-0.550578
H270	H	1.194841	0.187403	-0.050578
H271	H	0.694913	-0.312471	-1.052916
H272	H	1.194913	0.187529	-0.552916
C273	C	0.551078	-0.129904	-0.193272
C274	C	1.051078	0.370096	0.306728
C275	C	0.564247	-0.181666	-0.181885
C276	C	1.064247	0.318334	0.318115
H277	H	0.569602	-0.107180	-0.170620
H278	H	1.069602	0.392820	0.329380
H279	H	0.560050	-0.122309	-0.228411
H280	H	1.060050	0.377691	0.271589
H281	H	0.514650	-0.125119	-0.188499
H282	H	1.014650	0.374881	0.311501
H283	H	0.600674	-0.186452	-0.186662
H284	H	1.100674	0.313548	0.313338
H285	H	0.555278	-0.189264	-0.146738
H286	H	1.055278	0.310736	0.353262
C287	C	0.855138	-0.152428	-0.479305
C288	C	1.355138	0.347572	0.020695
C289	C	0.825771	-0.181783	-0.443793
C290	C	1.325771	0.318217	0.056207
H291	H	0.877839	-0.129742	-0.460790
H292	H	1.377839	0.370258	0.039210
H293	H	0.875124	-0.175206	-0.500601
H294	H	1.375124	0.324794	-0.000601
H295	H	0.832366	-0.132423	-0.500600
H296	H	1.332366	0.367577	-0.000600
H297	H	0.848543	-0.201791	-0.422500
H298	H	1.348543	0.298209	0.077500
H299	H	0.805783	-0.159002	-0.422487
H300	H	1.305783	0.340998	0.077513
H301	H	0.457406	-0.191213	-0.191412
H302	H	0.957406	0.308787	0.308588
C303	C	-0.084094	-0.148196	-0.211515
C304	C	0.415906	0.351804	0.288485
C305	C	-0.052721	-0.181727	-0.181966
C306	C	0.447279	0.318273	0.318034
H307	H	-0.102626	-0.125483	-0.188863
H308	H	0.397374	0.374517	0.311137
H309	H	-0.062775	-0.128222	-0.234321
H310	H	0.437225	0.371778	0.265679
H311	H	-0.108163	-0.168145	-0.231395
H312	H	0.391837	0.331855	0.268605
H313	H	-0.028649	-0.161778	-0.162089
H314	H	0.471351	0.338222	0.337911
H315	H	-0.074041	-0.201703	-0.159151
H316	H	0.425959	0.298297	0.340849
C317	C	0.622640	-0.773692	-0.118908
C318	C	1.122640	-0.273692	0.381092
C319	C	0.651978	-0.809154	-0.148284
C320	C	1.151978	-0.309154	0.351716
H321	H	0.599960	-0.792245	-0.096200
H322	H	1.099960	-0.292245	0.403800
H323	H	0.645428	-0.752393	-0.098929
H324	H	1.145428	-0.252393	0.401071
H325	H	0.602628	-0.752394	-0.141674
H326	H	1.102628	-0.252394	0.358326
H327	H	0.671994	-0.830450	-0.125518
H328	H	1.171994	-0.330450	0.374482
H329	H	0.629187	-0.830462	-0.168265
H330	H	1.129187	-0.330462	0.331735
C331	C	0.622501	-0.384840	-0.730364
C332	C	1.122501	0.115160	-0.230364
C333	C	0.651860	-0.355505	-0.694880
C334	C	1.151860	0.144495	-0.194880
H335	H	0.599800	-0.407542	-0.711829
H336	H	1.099800	0.092458	-0.211829
H337	H	0.602515	-0.362052	-0.751655
H338	H	1.102515	0.137948	-0.251655
H339	H	0.645279	-0.404829	-0.751669
H340	H	1.145279	0.095171	-0.251669
H341	H	0.629082	-0.335513	-0.673577
H342	H	1.129082	0.164487	-0.173577
H343	H	0.671847	-0.378296	-0.673580
H344	H	1.171847	0.121704	-0.173580
H345	H	0.661471	-0.702310	-0.157806
H346	H	1.161471	-0.202310	0.342194
C347	C	0.859236	-0.589130	-0.292796
C348	C	1.359236	-0.089130	0.207204
C349	C	0.825629	-0.557741	-0.322240
C350	C	1.325629	-0.057741	0.177760
H351	H	0.881918	-0.607619	-0.315519
H352	H	1.381918	-0.107619	0.184481
H353	H	0.879239	-0.567828	-0.270034
H354	H	1.379239	-0.067828	0.229966
H355	H	0.839340	-0.613238	-0.272873
H356	H	1.339340	-0.113238	0.227127
H357	H	0.845525	-0.533631	-0.342161
H358	H	1.345525	-0.033631	0.157839
H359	H	0.805624	-0.579045	-0.345011
H360	H	1.305624	-0.079045	0.154989
H361	H	0.849563	-0.702052	-0.346199
H362	H	1.349563	-0.202052	0.153801
H363	H	0.849740	-0.157777	-0.801809
H364	H	1.349740	0.342223	-0.301809
H365	H	0.206250	-0.157734	-0.158087
H366	H	0.706250	0.342266	0.341913
C367	C	0.888433	-0.773320	-0.385122
C368	C	1.388433	-0.273320	0.114878
C369	C	0.859119	-0.808866	-0.355756
C370	C	1.359119	-0.308866	0.144244
H371	H	0.911124	-0.791808	-0.407837
H372	H	1.411124	-0.291808	0.092163
H373	H	0.865631	-0.752033	-0.405093
H374	H	1.365631	-0.252033	0.094907
H375	H	0.908433	-0.752017	-0.362350
H376	H	1.408433	-0.252017	0.137650
H377	H	0.839116	-0.830166	-0.378528
H378	H	1.339116	-0.330166	0.121472
H379	H	0.881924	-0.830161	-0.335783
H380	H	1.381924	-0.330161	0.164217
H381	H	0.694889	-0.312487	-0.953866
H382	H	1.194889	0.187513	-0.453866
C383	C	0.681334	-0.389060	-0.840878
C384	C	1.181334	0.110940	-0.340878
C385	C	0.651867	-0.355479	-0.809487
C386	C	1.151867	0.144521	-0.309487
H387	H	0.658627	-0.411751	-0.859379
H388	H	1.158627	0.088249	-0.359379
H389	H	0.701253	-0.369150	-0.864969
H390	H	1.201253	0.130850	-0.364969
H391	H	0.704102	-0.409059	-0.819571
H392	H	1.204102	0.090941	-0.319571
H393	H	0.629102	-0.335477	-0.830794
H394	H	1.129102	0.164523	-0.330794
H395	H	0.631940	-0.375391	-0.785392
H396	H	1.131940	0.124609	-0.285392
H397	H	0.206262	-0.346229	-0.345924
H398	H	0.706262	0.153771	0.154076
H399	H	0.816249	-0.191272	-0.550621
H400	H	1.316249	0.308728	-0.050621
H401	H	0.694857	-0.550160	-0.191228
H402	H	1.194857	-0.050160	0.308772
H403	H	0.305300	-0.157721	-0.158083
H404	H	0.805300	0.342279	0.341917
C405	C	0.093286	-0.355831	-0.292526
C406	C	0.593286	0.144169	0.207474
C407	C	0.061917	-0.322300	-0.322080
C408	C	0.561917	0.177700	0.177920
H409	H	0.111807	-0.378557	-0.315175
H410	H	0.611807	0.121443	0.184825
H411	H	0.117360	-0.335887	-0.272657
H412	H	0.617360	0.164113	0.227343
H413	H	0.071961	-0.375796	-0.269709
H414	H	0.571961	0.124204	0.230291
H415	H	0.083242	-0.302332	-0.344894
H416	H	0.583242	0.197668	0.155106
H417	H	0.037840	-0.342246	-0.341958
H418	H	0.537840	0.157754	0.158042
H419	H	0.694830	-0.451094	-0.191212
H420	H	1.194830	0.048906	0.308788
H421	H	0.849730	-0.157806	-0.702763
H422	H	1.349730	0.342194	-0.202763
H423	H	0.816317	-0.191153	-1.052983
H424	H	1.316317	0.308847	-0.552983
H425	H	0.695013	-1.052497	-0.191318
H426	H	1.195013	-0.552497	0.308682
H427	H	-0.044930	-0.312763	-0.312580
H428	H	0.455070	0.187237	0.187420
C429	C	0.854928	-0.478585	-0.351599
C430	C	1.354928	0.021415	0.148401
C431	C	0.825594	-0.443129	-0.322211
C432	C	1.325594	0.056871	0.177789
H433	H	0.877595	-0.460028	-0.374316
H434	H	1.377595	0.039972	0.125684
H435	H	0.874948	-0.499880	-0.328845
H436	H	1.374948	0.000120	0.171155
H437	H	0.832132	-0.499888	-0.371575
H438	H	1.332132	0.000112	0.128425
H439	H	0.848389	-0.421828	-0.302233
H440	H	1.348389	0.078172	0.197767
H441	H	0.805572	-0.421825	-0.344968
H442	H	1.305572	0.078175	0.155032
H443	H	0.457431	-0.312726	-0.312517
H444	H	0.957431	0.187274	0.187483
C445	C	0.855208	-0.152297	-0.981654
C446	C	1.355208	0.347703	-0.481654
C447	C	0.825838	-0.181647	-0.946140
C448	C	1.325838	0.318353	-0.446140
H449	H	0.877908	-0.129609	-0.963141
H450	H	1.377908	0.370391	-0.463141
H451	H	0.875194	-0.175078	-1.002947
H452	H	1.375194	0.324922	-0.502947
H453	H	0.832437	-0.132294	-1.002954
H454	H	1.332437	0.367706	-0.502954
H455	H	0.848608	-0.201653	-0.924843
H456	H	1.348608	0.298347	-0.424843
H457	H	0.805849	-0.158863	-0.924839
H458	H	1.305849	0.341137	-0.424839
C459	C	0.796220	-0.914083	-0.355849
C460	C	1.296220	-0.414083	0.144151
C461	C	0.825744	-0.945473	-0.322310
C462	C	1.325744	-0.445473	0.177690
H463	H	0.818891	-0.895525	-0.378562
H464	H	1.318891	-0.395525	0.121438
H465	H	0.773438	-0.935393	-0.375823
H466	H	1.273438	-0.435393	0.124177
H467	H	0.776316	-0.890036	-0.335907
H468	H	1.276316	-0.390036	0.164093
H469	H	0.845645	-0.969523	-0.342252
H470	H	1.345645	-0.469523	0.157748
H471	H	0.848535	-0.924161	-0.302334
H472	H	1.348535	-0.424161	0.197666
C473	C	0.528769	-0.351651	-0.351300
C474	C	1.028769	0.148349	0.148700
C475	C	0.564264	-0.322261	-0.322002
C476	C	1.064264	0.177739	0.177998
H477	H	0.547297	-0.374372	-0.373949
H478	H	1.047297	0.125628	0.126051
H479	H	0.507453	-0.371617	-0.328485
H480	H	1.007453	0.128383	0.171515
H481	H	0.507492	-0.328895	-0.371343
H482	H	1.007492	0.171105	0.128657
H483	H	0.585540	-0.345018	-0.301956
H484	H	1.085540	0.154982	0.198044
H485	H	0.585590	-0.302294	-0.344821
H486	H	1.085590	0.197706	0.155179
C487	C	0.277590	-0.385150	-0.384714
C488	C	0.777590	0.114850	0.115286
C489	C	0.313090	-0.355763	-0.355420
C490	C	0.813090	0.144237	0.144580
H491	H	0.296114	-0.407871	-0.407367
H492	H	0.796114	0.092129	0.092633
H493	H	0.256276	-0.405117	-0.361897
H494	H	0.756276	0.094883	0.138103
H495	H	0.256310	-0.362392	-0.404754
H496	H	0.756310	0.137608	0.095246
H497	H	0.334367	-0.378521	-0.335377
H498	H	0.834367	0.121479	0.164623
H499	H	0.334413	-0.335795	-0.378240
H500	H	0.834413	0.164205	0.121760
C501	C	0.692350	-0.315091	-0.390040
C502	C	1.192350	0.184909	0.109960
C503	C	0.685289	-0.322144	-0.443728
C504	C	1.185289	0.177856	0.056272
H505	H	0.669637	-0.337775	-0.371500
H506	H	1.169637	0.162225	0.128500
H507	H	0.727469	-0.322755	-0.381104
H508	H	1.227469	0.177245	0.118896
H509	H	0.684725	-0.279958	-0.381107
H510	H	1.184725	0.220042	0.118893
H511	H	0.692919	-0.357275	-0.452663
H512	H	1.192919	0.142725	0.047337
H513	H	0.650163	-0.314483	-0.452669
H514	H	1.150163	0.185517	0.047331
