data_functionalizedCrystal
_audit_creation_method	'MofGen! by Chris Wilmer'
_symmetry_space_group_name_H-M	'P1'
_symmetry_Int_Tables_number	1
_symmetry_cell_setting	triclinic
loop_
_symmetry_equiv_pos_as_xyz
  x,y,z
_cell_length_a	18.101395
_cell_length_b	17.077404
_cell_length_c	17.077396
_cell_angle_alpha	89.978543
_cell_angle_beta	90.027467
_cell_angle_gamma	89.969792
loop_
_atom_site_label
_atom_site_type_symbol
_atom_site_fract_x
_atom_site_fract_y
_atom_site_fract_z
Zn1	Zn	-0.294847	-1.200010	0.443889
Zn2	Zn	-0.418696	-1.199898	0.312625
Zn3	Zn	-0.294871	-1.068742	0.312633
Zn4	Zn	-0.418650	-1.068691	0.443845
O5	O	-0.356766	-1.134335	0.378248
O6	O	-0.311286	-1.309842	0.426492
O7	O	-0.402300	-1.182474	0.202779
O8	O	-0.191235	-1.086223	0.330066
O9	O	-0.402277	-1.309760	0.330054
O10	O	-0.191218	-1.182665	0.426499
O11	O	-0.311326	-1.086114	0.202785
O12	O	-0.311281	-0.958888	0.330023
O13	O	-0.402198	-1.086136	0.553697
O14	O	-0.402221	-0.958851	0.426423
O15	O	-0.311241	-1.182616	0.553730
O16	O	-0.522323	-1.182425	0.330010
O17	O	-0.522289	-1.086028	0.426416
C18	C	-0.356749	-0.930387	0.378219
C19	C	-0.356759	-0.843137	0.378226
C20	C	-0.404182	-0.802148	0.428340
C21	C	-0.404182	-0.720168	0.428350
C22	C	-0.356763	-0.679178	0.378241
C23	C	-0.309334	-0.720173	0.328124
C24	C	-0.309331	-0.802152	0.328119
C25	C	-0.309346	-0.549303	0.328138
C26	C	-0.309350	-0.467318	0.328141
C27	C	-0.404197	-0.467319	0.428368
C28	C	-0.404194	-0.549298	0.428363
C29	C	-0.356766	-0.590287	0.378245
C30	C	-0.549177	-1.134230	0.378225
C31	C	-0.631491	-1.134257	0.378241
C32	C	-0.930581	-1.134429	0.378284
C33	C	-0.899266	-1.073919	0.439090
C34	C	-0.813648	-1.073632	0.438900
C35	C	-0.782199	-1.134344	0.378263
C36	C	-0.813350	-1.111947	0.295533
C37	C	-0.898995	-1.111557	0.295897
C38	C	-0.898926	-1.217469	0.399479
C39	C	-0.813275	-1.216980	0.401293
C40	C	-0.698340	-1.134297	0.378247
C41	C	-1.014441	-1.134474	0.378295
C42	C	-0.163604	-1.134462	0.378288
C43	C	-0.081290	-1.134516	0.378306
C44	C	-0.356711	-1.134383	0.582992
C45	C	-0.356688	-1.134403	0.670242
C46	C	-0.356779	-0.339079	0.378269
C47	C	-0.356773	-0.426329	0.378255
C48	C	-0.356767	-1.134333	0.174300
C49	C	-0.356581	-1.134465	0.087051
C50	C	-0.309323	-1.184642	0.711251
C51	C	-0.309298	-1.184651	0.793231
C52	C	-0.356643	-1.134425	0.834202
C53	C	-0.404010	-1.084181	0.793187
C54	C	-0.404031	-1.084168	0.711208
C55	C	-0.403966	-1.084212	0.964058
C56	C	-0.403947	-1.084226	1.046042
C57	C	-0.309233	-1.184695	1.046080
C58	C	-0.309254	-1.184683	0.964101
C59	C	-0.356622	-1.134439	0.923093
H60	H	-0.442799	-0.835516	0.469142
C61	C	-0.927017	-1.092659	0.522235
C62	C	-0.978455	-1.163134	0.535938
C63	C	-1.006208	-1.181878	0.619086
C64	C	-0.982522	-1.130148	0.688530
C65	C	-0.931081	-1.059668	0.674829
C66	C	-0.903328	-1.040924	0.591681
H67	H	-0.995992	-1.201432	0.484529
H68	H	-1.044289	-1.234052	0.629228
H69	H	-1.003066	-1.144023	0.750081
H70	H	-0.913544	-1.021370	0.726238
H71	H	-0.865247	-0.988750	0.581539
H72	H	-0.442800	-0.686798	0.469157
C73	C	-0.257184	-0.422218	0.273035
C74	C	-0.199102	-0.365899	0.307185
C75	C	-0.146935	-0.320793	0.252082
C76	C	-0.152850	-0.332007	0.162830
C77	C	-0.210934	-0.388328	0.128676
C78	C	-0.263101	-0.433434	0.183778
H79	H	-0.194721	-0.357595	0.373259
H80	H	-0.103937	-0.279100	0.277366
H81	H	-0.114233	-0.298617	0.122040
H82	H	-0.215315	-0.396632	0.062602
H83	H	-0.306099	-0.475127	0.158495
H84	H	-0.920851	-1.012743	0.425227
C85	C	-0.456051	-1.029005	1.091112
C86	C	-0.508170	-0.973756	1.046008
C87	C	-0.560290	-0.918550	1.091079
C88	C	-0.560290	-0.918593	1.181252
C89	C	-0.508169	-0.973845	1.226361
C90	C	-0.456050	-1.029051	1.181291
H91	H	-0.508172	-0.973722	0.979252
H92	H	-0.598873	-0.877649	1.057686
H93	H	-0.598872	-0.877727	1.214616
H94	H	-0.508168	-0.973879	1.293117
H95	H	-0.417467	-1.069952	1.214684
H96	H	-0.270719	-0.582674	0.287334
H97	H	-0.442812	-0.433942	0.469178
C98	C	-0.926286	-1.278376	0.339656
C99	C	-0.902841	-1.364712	0.347582
C100	C	-0.930206	-1.425613	0.287758
C101	C	-0.981015	-1.400177	0.220008
C102	C	-1.004462	-1.313837	0.212079
C103	C	-0.977097	-1.252936	0.271903
H104	H	-0.865227	-1.383545	0.397738
H105	H	-0.912849	-1.489527	0.293628
H106	H	-1.001272	-1.445259	0.175722
H107	H	-1.042076	-1.295004	0.161923
H108	H	-0.994455	-1.189022	0.266033
C109	C	-0.257166	-0.847245	0.272993
C110	C	-0.199063	-0.903645	0.307116
C111	C	-0.146894	-0.948738	0.251992
C112	C	-0.152828	-0.937430	0.162744
C113	C	-0.210934	-0.881027	0.128615
C114	C	-0.263103	-0.835935	0.183740
H115	H	-0.194668	-0.912018	0.373187
H116	H	-0.103881	-0.990491	0.277256
H117	H	-0.114210	-0.970811	0.121937
H118	H	-0.215329	-0.872655	0.062544
H119	H	-0.306117	-0.794181	0.158475
H120	H	-0.442527	-1.043287	0.930671
H121	H	-0.442557	-1.043283	0.826552
C122	C	-0.926996	-1.168499	0.232599
C123	C	-0.975791	-1.138076	0.165240
C124	C	-1.003791	-1.195010	0.101940
C125	C	-0.982995	-1.282368	0.105998
C126	C	-0.934197	-1.312795	0.173359
C127	C	-0.906198	-1.255861	0.236660
H128	H	-0.991188	-1.073405	0.162234
H129	H	-1.039914	-1.172486	0.052074
H130	H	-1.003722	-1.324514	0.059139
H131	H	-0.918801	-1.377466	0.176365
H132	H	-0.870075	-1.278386	0.286525
H133	H	-0.442593	-1.043251	0.677820
H134	H	-0.270663	-1.225604	1.079473
C135	C	-0.926078	-1.029553	0.271649
C136	C	-0.869775	-0.964878	0.252088
C137	C	-0.896852	-0.882872	0.227842
C138	C	-0.980233	-0.865541	0.223157
C139	C	-1.036541	-0.930218	0.242718
C140	C	-1.009463	-1.012224	0.266964
H141	H	-0.808047	-0.977706	0.255557
H142	H	-0.855169	-0.834994	0.213362
H143	H	-1.000277	-0.804835	0.205209
H144	H	-1.098269	-0.917390	0.239250
H145	H	-1.051147	-1.060102	0.281444
C146	C	-0.456356	-0.594387	0.483482
C147	C	-0.540538	-0.583072	0.476923
C148	C	-0.592699	-0.628161	0.532046
C149	C	-0.560678	-0.684564	0.593727
C150	C	-0.476492	-0.695882	0.600288
C151	C	-0.424331	-0.650793	0.545166
H152	H	-0.564245	-0.541316	0.431261
H153	H	-0.655019	-0.619782	0.527188
H154	H	-0.599291	-0.717942	0.634532
H155	H	-0.452784	-0.737638	0.645951
H156	H	-0.362010	-0.659172	0.550023
H157	H	-0.270705	-1.225585	0.930745
H158	H	-0.270721	-0.686792	0.287328
H159	H	-0.270730	-1.225562	0.826617
H160	H	-0.792584	-1.087644	0.500244
H161	H	-0.793224	-1.012081	0.424860
H162	H	-0.792981	-1.154633	0.248992
H163	H	-0.791965	-1.051888	0.277257
C164	C	-0.928028	-1.245057	0.479590
C165	C	-0.973329	-1.321117	0.485652
C166	C	-1.002431	-1.348696	0.565767
C167	C	-0.986232	-1.300215	0.639819
C168	C	-0.940928	-1.224150	0.633759
C169	C	-0.911826	-1.196572	0.553645
H170	H	-0.985323	-1.357010	0.430832
H171	H	-1.035968	-1.405004	0.570252
H172	H	-1.007774	-1.320630	0.699124
H173	H	-0.928934	-1.188258	0.688579
H174	H	-0.878290	-1.140264	0.549159
H175	H	-0.792912	-1.233870	0.462178
H176	H	-0.270771	-1.225544	0.677898
H177	H	-0.791864	-1.264448	0.360233
