data_functionalizedCrystal
_audit_creation_method	'MofGen! by Chris Wilmer'
_symmetry_space_group_name_H-M	'P1'
_symmetry_Int_Tables_number	1
_symmetry_cell_setting	triclinic
loop_
_symmetry_equiv_pos_as_xyz
  x,y,z
_cell_length_a	12.827892
_cell_length_b	12.827893
_cell_length_c	12.827885
_cell_angle_alpha	90.021189
_cell_angle_beta	90.032871
_cell_angle_gamma	90.020944
loop_
_atom_site_label
_atom_site_type_symbol
_atom_site_fract_x
_atom_site_fract_y
_atom_site_fract_z
Zn1	Zn	0.416038	-1.597615	-0.590880
Zn2	Zn	0.590815	-1.597486	-0.416131
Zn3	Zn	0.416083	-1.422856	-0.416147
Zn4	Zn	0.590731	-1.422819	-0.590825
O5	O	0.503417	-1.510194	-0.503496
O6	O	0.439238	-1.743834	-0.567715
O7	O	0.567690	-1.574283	-0.269897
O8	O	0.269841	-1.446108	-0.439356
O9	O	0.567647	-1.743739	-0.439327
O10	O	0.269808	-1.574503	-0.567731
O11	O	0.439315	-1.445983	-0.269909
O12	O	0.439234	-1.276615	-0.439303
O13	O	0.567504	-1.446044	-0.737068
O14	O	0.567548	-1.276588	-0.567637
O15	O	0.439157	-1.574466	-0.737109
O16	O	0.737040	-1.574246	-0.439274
O17	O	0.736978	-1.445919	-0.567621
C18	C	0.503387	-1.238684	-0.503467
C19	C	0.503400	-1.122531	-0.503479
C20	C	0.566991	-1.070760	-0.566883
C21	C	0.567005	-0.950710	-0.566898
C22	C	0.774927	-1.510093	-0.503463
C23	C	0.891080	-1.510145	-0.503483
C24	C	0.942869	-1.446623	-0.566944
C25	C	1.062919	-1.446676	-0.566967
C26	C	1.230847	-1.510290	-0.503539
C27	C	1.114693	-1.510244	-0.503525
C28	C	0.503316	-1.510265	-0.776066
C29	C	0.503274	-1.510295	-0.892219
C30	C	0.503438	-0.782764	-0.503517
C31	C	0.503426	-0.898917	-0.503505
C32	C	0.439751	-1.573850	-0.944024
C33	C	0.439705	-1.573882	-1.064074
C34	C	0.503441	-1.510183	-0.231986
C35	C	0.503190	-1.510355	-0.115833
H36	H	0.621451	-0.906188	-0.621177
H37	H	0.448984	-0.943432	-0.449215
F38	F	0.432245	-1.064301	-0.432544
F39	F	1.121128	-1.375595	-0.637990
F40	F	0.368624	-1.645010	-1.122302
F41	F	0.949289	-1.581277	-0.432483
H42	H	0.557580	-1.455945	-1.071289
H43	H	0.898333	-1.392195	-0.621256
H44	H	1.070164	-1.564635	-0.449194
F45	F	0.368688	-1.644919	-0.885832
F46	F	0.574311	-1.439200	-0.950411
H47	H	0.621419	-1.115314	-0.621159
