data_functionalizedCrystal
_audit_creation_method	'MofGen! by Chris Wilmer'
_symmetry_space_group_name_H-M	'P1'
_symmetry_Int_Tables_number	1
_symmetry_cell_setting	triclinic
loop_
_symmetry_equiv_pos_as_xyz
  x,y,z
_cell_length_a	6.817900
_cell_length_b	15.301140
_cell_length_c	11.102188
_cell_angle_alpha	93.595362
_cell_angle_beta	108.603875
_cell_angle_gamma	104.177739
loop_
_atom_site_label
_atom_site_type_symbol
_atom_site_fract_x
_atom_site_fract_y
_atom_site_fract_z
V1	V	-4.060634	-0.281145	-0.176699
O2	O	-4.020645	-0.275793	0.007606
O3	O	-4.037750	-0.279222	-0.349513
O4	O	-4.015222	-0.403762	-0.174369
O5	O	-4.043329	-0.150391	-0.168750
V6	V	-4.540568	-0.265506	-0.154608
O7	O	-4.329764	-0.315451	-0.225157
O8	O	-4.721636	-0.231200	-0.106150
O9	O	-4.340246	-0.267429	0.018206
O10	O	-4.697954	-0.270858	-0.338913
O11	O	-4.675270	-0.396260	-0.162557
O12	O	-4.362774	-0.142889	-0.156938
C13	C	-3.888861	-0.274787	-0.391629
C14	C	-3.951457	-0.274032	-0.532910
C15	C	-3.935642	-0.191103	-0.580882
C16	C	-3.994481	-0.190397	-0.713631
C17	C	-4.084940	-0.355558	-0.750426
C18	C	-4.026116	-0.356263	-0.617679
C19	C	-3.860123	-0.433649	-0.168215
C20	C	-3.904446	-0.533889	-0.167453
C21	C	-4.108449	-0.585576	-0.173459
C22	C	-4.150083	-0.679761	-0.172743
C23	C	-3.987715	-0.722260	-0.166030
C24	C	-3.783693	-0.670566	-0.160021
C25	C	-3.742057	-0.576381	-0.160727
C26	C	-3.870488	-0.866878	-0.158551
C27	C	-3.912127	-0.961070	-0.157846
C28	C	-4.278514	-0.970259	-0.170566
C29	C	-4.236878	-0.876073	-0.171273
C30	C	-4.032859	-0.824386	-0.165265
C31	C	-4.152478	-0.271861	0.060315
C32	C	-4.069120	-0.272622	0.201594
C33	C	-4.181215	-0.112997	-0.163097
C34	C	-4.116130	-0.012756	-0.163852
H35	H	-4.145731	-0.422507	-0.819461
N36	N	-4.043181	-0.445713	-0.565928
H37	H	-4.099388	-0.497698	-0.639769
H38	H	-3.896158	-0.446542	-0.507242
N39	N	-3.977435	-0.100952	-0.765374
H40	H	-3.921215	-0.048971	-0.691526
H41	H	-3.875292	-0.094003	-0.815247
H42	H	-4.240678	-0.550982	-0.178934
H43	H	-4.316195	-0.721840	-0.177626
N44	N	-3.855143	-0.102409	-0.489467
H45	H	-3.953298	-0.102075	-0.437975
H46	H	-3.704111	-0.096005	-0.429247
H47	H	-4.369100	-0.841475	-0.176748
H48	H	-4.444635	-1.012347	-0.175460
N49	N	-3.736980	-1.006905	-0.150547
H50	H	-3.601403	-0.959868	-0.146819
H51	H	-3.707017	-1.037013	-0.070783
H52	H	-3.704335	-0.824791	-0.153612
H53	H	-3.651489	-0.705175	-0.154548
H54	H	-3.575924	-0.534295	-0.155806
