data_functionalizedCrystal
_audit_creation_method	'MofGen! by Chris Wilmer'
_symmetry_space_group_name_H-M	'P1'
_symmetry_Int_Tables_number	1
_symmetry_cell_setting	triclinic
loop_
_symmetry_equiv_pos_as_xyz
  x,y,z
_cell_length_a	14.044191
_cell_length_b	10.540539
_cell_length_c	13.101039
_cell_angle_alpha	93.398267
_cell_angle_beta	86.337551
_cell_angle_gamma	88.858634
loop_
_atom_site_label
_atom_site_type_symbol
_atom_site_fract_x
_atom_site_fract_y
_atom_site_fract_z
O1	O	1.264949	0.299888	-0.085156
O2	O	1.764949	0.799888	0.414844
O3	O	0.988906	0.288826	-0.085169
O4	O	1.488906	0.788826	0.414831
O5	O	1.133225	0.110288	-0.085161
O6	O	1.633225	0.610288	0.414839
O7	O	1.120630	0.478427	-0.085164
O8	O	1.620630	0.978427	0.414836
O9	O	1.122871	0.123121	0.085269
O10	O	1.622871	0.623121	0.585269
O11	O	0.978551	0.301659	0.085260
O12	O	1.478551	0.801659	0.585260
O13	O	1.254595	0.312721	0.085274
O14	O	1.754595	0.812721	0.585274
Zn15	Zn	1.114929	0.309228	0.112326
Zn16	Zn	1.614929	0.809228	0.612326
Zn17	Zn	1.128572	0.292320	-0.112222
Zn18	Zn	1.628572	0.792320	0.387778
O19	O	1.110275	0.491260	0.085265
O20	O	1.610275	0.991260	0.585265
C21	C	0.948381	0.290404	0.000044
C22	C	1.448381	0.790404	0.500044
C23	C	0.843058	0.275970	0.000039
C24	C	1.343058	0.775970	0.500039
C25	C	0.593285	0.351949	0.000048
C26	C	1.093285	0.851949	0.500048
C27	C	0.650221	0.249604	0.000047
C28	C	1.150221	0.749604	0.500047
C29	C	0.757525	0.264277	0.000043
C30	C	1.257525	0.764277	0.500043
C31	C	0.485971	0.337277	0.000053
C32	C	0.985971	0.837277	0.500053
C33	C	1.127103	0.069305	0.000052
C34	C	1.627103	0.569305	0.500052
C35	C	1.124278	-0.071929	0.000046
C36	C	1.624278	0.428071	0.500046
C37	C	1.016012	-0.266336	-0.000341
C38	C	1.516012	0.233664	0.499659
C39	C	1.018853	-0.119400	0.000042
C40	C	1.518853	0.380600	0.500042
C41	C	1.169100	-0.121127	0.097372
C42	C	1.669100	0.378873	0.597372
C43	C	1.165497	-0.268029	0.097454
C44	C	1.665497	0.231971	0.597454
C45	C	1.179416	-0.282924	-0.096356
C46	C	1.679416	0.217076	0.403644
C47	C	1.180465	-0.135941	-0.097642
C48	C	1.680465	0.364059	0.402358
C49	C	1.295119	0.311143	0.000058
C50	C	1.795119	0.811143	0.500058
C51	C	1.400443	0.325577	0.000057
C52	C	1.900443	0.825577	0.500057
C53	C	1.116397	0.532242	0.000050
C54	C	1.616397	1.032242	0.500050
C55	C	1.119223	0.673475	0.000049
C56	C	1.619223	1.173475	0.500049
N57	N	1.105625	0.320767	0.265574
N58	N	1.605625	0.820767	0.765574
N59	N	1.137883	0.280771	-0.265470
N60	N	1.637883	0.780771	0.234530
C61	C	1.092967	0.336478	0.474616
C62	C	1.592967	0.836478	0.974616
C63	C	1.150538	0.265063	0.525495
C64	C	1.650538	0.765063	1.025495
C65	C	1.143495	0.273805	0.641813
C66	C	1.643495	0.773805	1.141813
C67	C	1.100009	0.327738	0.358288
C68	C	1.600009	0.827738	0.858288
H69	H	0.618383	0.150958	-0.000024
H70	H	1.118383	0.650958	0.499976
Br71	Br	0.646357	0.516347	0.000036
Br72	Br	1.146357	1.016347	0.500036
Br73	Br	1.002006	0.449323	0.547611
Br74	Br	1.502006	0.949323	1.047611
H75	H	0.983171	-0.086087	-0.069725
H76	H	1.483171	0.413913	0.430275
H77	H	0.978607	-0.304403	-0.070136
H78	H	1.478607	0.195597	0.429864
Br79	Br	1.241909	0.152797	0.452501
Br80	Br	1.741909	0.652797	0.952501
Br81	Br	0.939672	-0.315619	0.114974
Br82	Br	1.439672	0.184381	0.614974
Br83	Br	0.944767	-0.047797	0.116509
Br84	Br	1.444767	0.452203	0.616509
H85	H	1.123581	-0.294543	0.170204
H86	H	1.623581	0.205457	0.670204
H87	H	1.246301	-0.090671	0.100995
H88	H	1.746301	0.409329	0.600995
Br89	Br	1.291415	-0.334652	0.104832
Br90	Br	1.791415	0.165348	0.604832
H91	H	1.129456	-0.076638	0.169795
H92	H	1.629456	0.423362	0.669795
Br93	Br	1.126413	-0.082258	-0.217667
Br94	Br	1.626413	0.417742	0.282333
Br95	Br	1.309171	-0.083345	-0.107443
Br96	Br	1.809171	0.416655	0.392557
Br97	Br	1.306399	-0.348882	-0.097443
Br98	Br	1.806399	0.151118	0.402557
Br99	Br	1.130007	-0.350505	-0.219307
Br100	Br	1.630007	0.149495	0.280693
