data_functionalizedCrystal
_audit_creation_method	'MofGen! by Chris Wilmer'
_symmetry_space_group_name_H-M	'P1'
_symmetry_Int_Tables_number	1
_symmetry_cell_setting	triclinic
loop_
_symmetry_equiv_pos_as_xyz
  x,y,z
_cell_length_a	12.594516
_cell_length_b	14.908780
_cell_length_c	14.908308
_cell_angle_alpha	90.212689
_cell_angle_beta	93.271498
_cell_angle_gamma	86.694491
loop_
_atom_site_label
_atom_site_type_symbol
_atom_site_fract_x
_atom_site_fract_y
_atom_site_fract_z
Zn1	Zn	-0.372328	-1.345335	-0.587893
Zn2	Zn	0.127672	-0.845335	-0.087893
Zn3	Zn	-0.539514	-1.353926	-0.437546
Zn4	Zn	-0.039514	-0.853926	0.062454
Zn5	Zn	-0.371171	-1.203648	-0.428861
Zn6	Zn	0.128829	-0.703648	0.071139
Zn7	Zn	-0.559890	-1.194953	-0.579165
Zn8	Zn	-0.059890	-0.694953	-0.079165
O9	O	-0.460726	-1.274465	-0.508366
O10	O	0.039274	-0.774465	-0.008366
O11	O	-0.386463	-1.472302	-0.575237
O12	O	0.113537	-0.972302	-0.075237
O13	O	-0.508172	-1.341225	-0.310570
O14	O	-0.008172	-0.841225	0.189430
O15	O	-0.222377	-1.222487	-0.449975
O16	O	0.277623	-0.722487	0.050025
O17	O	-0.509294	-1.478613	-0.464778
O18	O	-0.009294	-0.978613	0.035222
O19	O	-0.223227	-1.326584	-0.566815
O20	O	0.276773	-0.826584	-0.066815
O21	O	-0.384491	-1.230817	-0.304189
O22	O	0.115509	-0.730817	0.195811
O23	O	-0.404248	-1.076668	-0.441511
O24	O	0.095752	-0.576668	0.058489
O25	O	-0.544021	-1.207667	-0.706147
O26	O	-0.044021	-0.707667	-0.206147
O27	O	-0.542899	-1.070279	-0.551939
O28	O	-0.042899	-0.570279	-0.051939
O29	O	-0.406220	-1.318152	-0.712559
O30	O	0.093780	-0.818152	-0.212559
O31	O	-0.691165	-1.332794	-0.456314
O32	O	-0.191165	-0.832794	0.043686
O33	O	-0.706135	-1.215997	-0.560361
O34	O	-0.206135	-0.715997	-0.060361
C35	C	-0.475660	-1.040848	-0.494836
C36	C	0.024340	-0.540848	0.005164
C37	C	-0.482076	-0.940904	-0.489069
C38	C	0.017924	-0.440904	0.010931
C39	C	-0.366427	-0.746515	-0.593430
C40	C	0.133573	-0.246515	-0.093430
C41	C	-0.372451	-0.652608	-0.588014
C42	C	0.127549	-0.152608	-0.088014
C43	C	-0.500144	-0.659184	-0.472819
C44	C	-0.000144	-0.159184	0.027181
C45	C	-0.494119	-0.753090	-0.478234
C46	C	0.005881	-0.253090	0.021766
C47	C	-0.427259	-0.796752	-0.538543
C48	C	0.072741	-0.296752	-0.038543
C49	C	-0.421241	-0.890660	-0.543962
C50	C	0.078759	-0.390660	-0.043962
C51	C	-0.548927	-0.897233	-0.428763
C52	C	-0.048927	-0.397233	0.071237
C53	C	-0.554951	-0.803327	-0.423347
C54	C	-0.054951	-0.303327	0.076653
C55	C	-0.737270	-1.274407	-0.508354
C56	C	-0.237270	-0.774407	-0.008354
C57	C	-0.855574	-1.274463	-0.508384
C58	C	-0.355574	-0.774463	-0.008384
C59	C	-0.933005	-1.210933	-0.564932
C60	C	-0.433005	-0.710933	-0.064932
C61	C	-0.999363	-1.193764	-0.481621
C62	C	-0.499363	-0.693764	0.018379
C63	C	-1.000011	-1.291714	-0.591713
C64	C	-0.500011	-0.791714	-0.091713
C65	C	-0.920373	-1.257252	-0.425027
C66	C	-0.420373	-0.757252	0.074973
C67	C	-0.921016	-1.355237	-0.535177
C68	C	-0.421016	-0.855237	-0.035177
C69	C	-0.987336	-1.338101	-0.451811
C70	C	-0.487336	-0.838101	0.048189
C71	C	-0.183102	-1.274547	-0.508400
C72	C	0.316898	-0.774547	-0.008400
C73	C	-0.064795	-1.274582	-0.508414
C74	C	0.435205	-0.774582	-0.008414
C75	C	-0.477522	-1.260981	-0.742890
C76	C	0.022478	-0.760981	-0.242890
C77	C	-0.484680	-1.255235	-0.842830
C78	C	0.015320	-0.755235	-0.342830
C79	C	-0.445725	-0.508996	-0.521943
C80	C	0.054275	-0.008996	-0.021943
C81	C	-0.439309	-0.608939	-0.527712
C82	C	0.060691	-0.108939	-0.027712
C83	C	-0.354614	-1.359483	-1.037306
C84	C	0.145386	-0.859483	-0.537306
C85	C	-0.361335	-1.354087	-1.131209
C86	C	0.138665	-0.854087	-0.631209
C87	C	-0.504839	-1.239042	-1.124539
C88	C	-0.004839	-0.739042	-0.624539
C89	C	-0.498117	-1.244439	-1.030636
C90	C	0.001883	-0.744439	-0.530636
C91	C	-0.423003	-1.304662	-0.987024
C92	C	0.076997	-0.804662	-0.487024
C93	C	-0.416288	-1.310062	-0.893119
C94	C	0.083712	-0.810062	-0.393119
C95	C	-0.559785	-1.195014	-0.886451
C96	C	-0.059785	-0.695014	-0.386451
C97	C	-0.566507	-1.189617	-0.980354
C98	C	-0.066507	-0.689617	-0.480354
C99	C	-0.443915	-1.287949	-0.274758
C100	C	0.056085	-0.787949	0.225242
C101	C	-0.436446	-1.293869	-0.174829
C102	C	0.063554	-0.793869	0.325171
H103	H	-0.322912	-0.611709	-0.632707
H104	H	0.177088	-0.111709	-0.132707
N105	N	-0.643217	-1.128104	-1.024921
N106	N	-0.143217	-0.628104	-0.524921
N107	N	-0.649207	-1.123289	-1.108762
N108	N	-0.149207	-0.623289	-0.608762
H109	H	-0.703386	-1.079845	-1.140238
H110	H	-0.203386	-0.579845	-0.640238
N111	N	-0.902728	-1.143421	-0.624810
N112	N	-0.402728	-0.643421	-0.124810
N113	N	-0.847006	-1.081773	-0.595682
N114	N	-0.347006	-0.581773	-0.095682
H115	H	-0.825621	-1.034090	-0.637966
H116	H	-0.325621	-0.534090	-0.137966
N117	N	-0.623228	-0.758724	-0.361736
N118	N	-0.123228	-0.258724	0.138264
N119	N	-0.584940	-0.709610	-0.301465
N120	N	-0.084940	-0.209610	0.198535
H121	H	-0.633163	-0.678110	-0.257950
H122	H	-0.133163	-0.178110	0.242050
N123	N	-0.298123	-0.791122	-0.655018
N124	N	0.201877	-0.291122	-0.155018
N125	N	-0.224620	-0.845336	-0.626496
N126	N	0.275380	-0.345336	-0.126496
H127	H	-0.176377	-0.876841	-0.669993
H128	H	0.323623	-0.376841	-0.169993
N129	N	-1.042382	-1.108146	-0.453182
N130	N	-0.542382	-0.608146	0.046818
N131	N	-1.015372	-1.078367	-0.377298
N132	N	-0.515372	-0.578367	0.122702
H133	H	-1.045751	-1.017898	-0.357215
H134	H	-0.545751	-0.517898	0.142785
N135	N	-0.568418	-0.614561	-0.411218
N136	N	-0.068418	-0.114561	0.088782
N137	N	-0.573778	-0.530717	-0.406390
N138	N	-0.073778	-0.030717	0.093610
H139	H	-0.621997	-0.499200	-0.362883
H140	H	-0.121997	0.000800	0.137117
H141	H	-0.598470	-0.938147	-0.384077
H142	H	-0.098470	-0.438147	0.115923
H143	H	-0.615476	-1.150376	-0.845501
H144	H	-0.115476	-0.650376	-0.345501
H145	H	-0.565992	-1.190011	-1.160065
H146	H	-0.065992	-0.690011	-0.660065
N147	N	-0.339563	-1.371584	-0.848582
N148	N	0.160437	-0.871584	-0.348582
N149	N	-0.278506	-1.420525	-0.893493
N150	N	0.221494	-0.920525	-0.393493
H151	H	-0.224314	-1.463976	-0.862041
H152	H	0.275686	-0.963976	-0.362041
H153	H	-0.366801	-0.926208	-0.593070
H154	H	0.133199	-0.426208	-0.093070
N155	N	-1.017359	-1.405578	-0.391782
N156	N	-0.517359	-0.905578	0.108218
N157	N	-0.988573	-1.486126	-0.404005
N158	N	-0.488573	-0.986126	0.095995
H159	H	-1.009780	-1.533780	-0.361608
H160	H	-0.509780	-1.033780	0.138392
N161	N	-0.877984	-1.440839	-0.563632
N162	N	-0.377984	-0.940839	-0.063632
N163	N	-0.903758	-1.469991	-0.640046
N164	N	-0.403758	-0.969991	-0.140046
H165	H	-0.873366	-1.530448	-0.660152
H166	H	-0.373366	-1.030448	-0.160152
H167	H	-0.885671	-1.242630	-0.354544
H168	H	-0.385671	-0.742630	0.145456
N169	N	-0.291464	-1.410073	-1.182573
N170	N	0.208536	-0.910073	-0.682573
N171	N	-0.192880	-1.404730	-1.171749
N172	N	0.307120	-0.904730	-0.671749
H173	H	-0.143528	-1.444270	-1.208025
H174	H	0.356472	-0.944270	-0.708025
H175	H	-1.034845	-1.306257	-0.662173
H176	H	-0.534845	-0.806257	-0.162173
H177	H	-0.293458	-1.408524	-1.001796
H178	H	0.206542	-0.908524	-0.501796
