data_functionalizedCrystal
_audit_creation_method	'MofGen! by Chris Wilmer'
_symmetry_space_group_name_H-M	'P1'
_symmetry_Int_Tables_number	1
_symmetry_cell_setting	triclinic
loop_
_symmetry_equiv_pos_as_xyz
  x,y,z
_cell_length_a	16.992694
_cell_length_b	27.732048
_cell_length_c	15.455313
_cell_angle_alpha	92.637842
_cell_angle_beta	87.142206
_cell_angle_gamma	86.655439
loop_
_atom_site_label
_atom_site_type_symbol
_atom_site_fract_x
_atom_site_fract_y
_atom_site_fract_z
O1	O	1.042606	0.100467	-0.072038
O2	O	0.814336	0.099342	-0.072063
O3	O	0.935560	0.029815	-0.072033
O4	O	0.921382	0.169994	-0.072068
O5	O	0.928628	0.033773	0.072227
O6	O	0.807404	0.103301	0.072197
O7	O	1.035674	0.104425	0.072223
Cu8	Cu	0.920906	0.104225	0.085382
Cu9	Cu	0.929104	0.099543	-0.085222
O10	O	0.914450	0.173953	0.072193
C11	C	0.781675	0.099876	0.000064
C12	C	0.694684	0.095561	0.000055
C13	C	0.643939	0.137184	0.000046
C14	C	0.562201	0.133129	0.000059
C15	C	0.531209	0.087449	0.000075
C16	C	0.581960	0.045823	0.000087
C17	C	0.663696	0.049880	0.000080
C18	C	0.287814	0.070637	0.000102
C19	C	0.206071	0.066583	0.000106
C20	C	0.186318	0.153889	0.000080
C21	C	0.268057	0.157941	0.000068
C22	C	0.318800	0.116315	0.000084
N23	N	0.447660	0.083302	0.000086
N24	N	0.402347	0.120463	0.000080
C25	C	0.931796	0.013774	0.000100
C26	C	0.930900	-0.039919	0.000107
C27	C	0.996895	-0.375882	0.000069
C28	C	0.993571	-0.577686	0.000057
O29	O	1.053919	-0.606333	0.000026
N30	N	0.921689	-0.599917	0.000050
C31	C	0.850634	-0.571695	0.000040
O32	O	0.789419	-0.595235	0.000025
C33	C	0.853960	-0.369892	0.000046
C34	C	0.925846	-0.347663	0.000062
C35	C	1.068775	-0.353652	0.000084
C36	C	1.069605	-0.303204	0.000092
C37	C	0.998556	-0.274986	0.000085
C38	C	0.926676	-0.297215	0.000070
C39	C	0.782906	-0.341671	0.000030
C40	C	0.783744	-0.291218	0.000030
C41	C	0.855630	-0.268989	0.000046
C42	C	0.856457	-0.218549	0.000071
N43	N	0.928338	-0.196317	0.000078
C44	C	0.999387	-0.224535	0.000085
C45	C	0.848893	-0.677644	0.000038
C46	C	0.848061	-0.728095	0.000038
C47	C	0.990998	-0.734082	0.000054
C48	C	0.991829	-0.683630	0.000060
C49	C	0.920775	-0.655413	0.000046
C50	C	1.001126	-0.118591	0.000102
C51	C	1.001949	-0.068138	0.000114
C52	C	0.859013	-0.062155	0.000094
C53	C	0.858189	-0.112603	0.000087
C54	C	0.929251	-0.140820	0.000088
O55	O	0.796141	-0.189872	0.000092
O56	O	1.060595	-0.200987	0.000081
C57	C	0.996065	-0.426330	0.000062
C58	C	0.924185	-0.448559	0.000047
C59	C	0.853136	-0.420341	0.000039
C60	C	0.923354	-0.499010	0.000047
C61	C	0.994403	-0.527228	0.000054
C62	C	1.066285	-0.504997	0.000061
C63	C	1.067115	-0.454549	0.000069
C64	C	0.781254	-0.442573	0.000032
C65	C	0.780430	-0.493021	0.000025
C66	C	0.851480	-0.521240	0.000033
C67	C	1.068335	0.103892	0.000094
C68	C	1.155327	0.108206	0.000097
C69	C	0.918214	0.189993	0.000058
C70	C	0.919111	0.243687	0.000046
N71	N	0.915146	0.107517	0.205376
N72	N	0.934870	0.096247	-0.205217
C73	C	0.966664	0.077992	0.250783
C74	C	0.962315	0.080486	0.341590
C75	C	0.906451	0.112509	0.386988
C76	C	0.854928	0.142036	0.341575
C77	C	0.859274	0.139538	0.250770
C78	C	0.887693	0.123276	0.658565
C79	C	0.883353	0.125773	0.749377
C80	C	0.990739	0.064222	0.749385
C81	C	0.995083	0.061730	0.658578
C82	C	0.943557	0.091254	0.613173
N83	N	0.902006	0.115061	0.479807
N84	N	0.947999	0.088700	0.520356
H85	H	0.520888	0.167023	0.000050
O86	O	0.548535	-0.003446	0.000113
H87	H	0.571782	-0.025217	-0.058674
O88	O	0.342538	0.025741	0.000112
H89	H	0.377425	0.027112	0.058913
O90	O	0.803710	0.171379	0.201780
H91	H	0.812402	0.209913	0.219174
O92	O	0.832125	0.155126	0.609604
H93	H	0.844522	0.148008	0.538833
H94	H	1.032688	0.040184	0.786363
O95	O	0.172646	0.017311	0.000131
H96	H	0.133056	0.014995	0.058929
O97	O	0.718434	0.004987	0.000088
H98	H	0.683154	-0.027459	0.000093
H99	H	0.809439	0.168108	0.378544
H100	H	0.724370	-0.359761	0.000012
H101	H	0.669166	0.174382	0.000032
H102	H	1.124135	-0.527981	0.000070
H103	H	0.293284	0.195138	0.000044
O104	O	1.079486	-0.044161	0.000117
H105	H	1.128750	-0.072263	0.000108
O106	O	1.055329	0.027186	0.609612
H107	H	1.090418	0.007070	0.656443
O108	O	0.702891	-0.516995	0.000010
H109	H	0.653631	-0.488892	-0.000002
O110	O	1.026904	0.043440	0.201826
H111	H	1.021272	0.046662	0.131054
H112	H	0.144995	0.187778	0.000068
H113	H	1.058992	-0.141559	0.000100
H114	H	1.128142	-0.285110	0.000102
O115	O	1.145413	-0.384085	0.000104
H116	H	1.195526	-0.360143	0.000124
H117	H	0.725882	-0.268245	0.000017
H118	H	0.837859	0.151851	0.786336
O119	O	1.069361	-0.659655	0.000061
H120	H	1.118623	-0.687758	0.000059
H121	H	0.801166	-0.039170	0.000091
H122	H	0.799653	-0.130703	0.000098
O123	O	0.772247	-0.647214	0.000042
H124	H	0.740635	-0.657076	-0.058752
H125	H	1.004264	0.056444	0.378560
O126	O	1.067634	-0.764522	0.000055
H127	H	1.054972	-0.803336	0.000045
H128	H	0.789524	-0.746189	0.000040
H129	H	1.125651	-0.436454	0.000081
H130	H	0.723396	-0.419602	0.000024
