data_functionalizedCrystal
_audit_creation_method	'MofGen! by Chris Wilmer'
_symmetry_space_group_name_H-M	'P1'
_symmetry_Int_Tables_number	1
_symmetry_cell_setting	triclinic
loop_
_symmetry_equiv_pos_as_xyz
  x,y,z
_cell_length_a	14.519709
_cell_length_b	13.596369
_cell_length_c	14.519709
_cell_angle_alpha	89.993066
_cell_angle_beta	83.680145
_cell_angle_gamma	90.000291
loop_
_atom_site_label
_atom_site_type_symbol
_atom_site_fract_x
_atom_site_fract_y
_atom_site_fract_z
O1	O	-1.223868	0.081665	-0.120893
O2	O	-0.723868	0.581665	0.379107
O3	O	-0.955392	0.081696	-0.135129
O4	O	-0.455392	0.581696	0.364871
O5	O	-1.096748	0.081671	0.006227
O6	O	-0.596748	0.581671	0.506227
O7	O	-1.082512	0.081690	-0.262249
O8	O	-0.582512	0.581690	0.237751
O9	O	-1.096734	-0.081912	0.006235
O10	O	-0.596734	0.418088	0.506235
O11	O	-0.955377	-0.081887	-0.135122
O12	O	-0.455377	0.418113	0.364878
O13	O	-1.223854	-0.081917	-0.120885
O14	O	-0.723854	0.418083	0.379115
Zn15	Zn	-1.089614	-0.107875	-0.128002
Zn16	Zn	-0.589614	0.392125	0.371998
Zn17	Zn	-1.089632	0.107653	-0.128012
Zn18	Zn	-0.589632	0.607653	0.371988
O19	O	-1.082498	-0.081893	-0.262242
O20	O	-0.582498	0.418107	0.237758
C21	C	-0.921025	-0.000092	-0.134462
C22	C	-0.421025	0.499908	0.365538
C23	C	-0.818643	-0.000081	-0.132474
C24	C	-0.318643	0.499919	0.367526
C25	C	-1.258221	-0.000128	-0.121553
C26	C	-0.758221	0.499872	0.378447
C27	C	-1.360602	-0.000132	-0.123541
C28	C	-0.860602	0.499868	0.376459
N29	N	-1.089608	-0.254966	-0.127995
N30	N	-0.589608	0.245034	0.372005
C31	C	-1.096078	-0.000121	0.040591
C32	C	-0.596078	0.499879	0.540591
C33	C	-1.094090	-0.000121	0.142972
C34	C	-0.594090	0.499879	0.642972
C35	C	-0.443748	-0.000126	-0.125154
C36	C	0.056252	0.499874	0.374846
C37	C	-0.548056	-0.000113	-0.127187
C38	C	-0.048056	0.499887	0.372813
C39	C	-0.631192	-0.000102	-0.128814
C40	C	-0.131192	0.499898	0.371186
C41	C	-0.735507	-0.000091	-0.130847
C42	C	-0.235507	0.499909	0.369153
C43	C	-1.089631	-0.656257	-0.128013
C44	C	-0.589631	-0.156257	0.371987
C45	C	-1.089622	-0.544606	-0.128011
C46	C	-0.589622	-0.044606	0.371989
C47	C	-1.089620	-0.455615	-0.128005
C48	C	-0.589620	0.044385	0.371995
C49	C	-1.089610	-0.343957	-0.128001
C50	C	-0.589610	0.156043	0.371999
N51	N	-1.089645	0.254745	-0.128012
N52	N	-0.589645	0.754745	0.371988
C53	C	-1.083168	-0.000099	-0.296605
C54	C	-0.583168	0.499901	0.203395
C55	C	-1.085156	-0.000092	-0.398987
C56	C	-0.585156	0.499908	0.101013
C57	C	-1.086770	-0.000095	0.517868
C58	C	-0.586770	0.499905	1.017868
C59	C	-1.088803	-0.000102	0.413560
C60	C	-0.588803	0.499898	0.913560
C61	C	-1.090430	-0.000109	0.330423
C62	C	-0.590430	0.499891	0.830423
C63	C	-1.092463	-0.000114	0.226109
C64	C	-0.592463	0.499886	0.726109
