data_functionalizedCrystal
_audit_creation_method	'MofGen! by Chris Wilmer'
_symmetry_space_group_name_H-M	'P1'
_symmetry_Int_Tables_number	1
_symmetry_cell_setting	triclinic
loop_
_symmetry_equiv_pos_as_xyz
  x,y,z
_cell_length_a	17.077402
_cell_length_b	16.959455
_cell_length_c	17.077396
_cell_angle_alpha	89.980622
_cell_angle_beta	90.029784
_cell_angle_gamma	89.982348
loop_
_atom_site_label
_atom_site_type_symbol
_atom_site_fract_x
_atom_site_fract_y
_atom_site_fract_z
Zn1	Zn	-0.312618	-1.208401	0.443833
Zn2	Zn	-0.443893	-1.208307	0.312564
Zn3	Zn	-0.312633	-1.076220	0.312581
Zn4	Zn	-0.443833	-1.076187	0.443788
O5	O	-0.378244	-1.142279	0.378191
O6	O	-0.330050	-1.318999	0.426432
O7	O	-0.426512	-1.190760	0.202719
O8	O	-0.202784	-1.093806	0.330018
O9	O	-0.426497	-1.318930	0.329989
O10	O	-0.202773	-1.190919	0.426448
O11	O	-0.330076	-1.093716	0.202732
O12	O	-0.330018	-0.965604	0.329974
O13	O	-0.426396	-1.093751	0.553641
O14	O	-0.426411	-0.965581	0.426371
O15	O	-0.329993	-1.190888	0.553674
O16	O	-0.553732	-1.190729	0.329945
O17	O	-0.553688	-1.093661	0.426355
C18	C	-0.378210	-0.936912	0.378170
C19	C	-0.378215	-0.849056	0.378180
C20	C	-0.327986	-0.477568	0.328092
C21	C	-0.428516	-0.477592	0.428315
C22	C	-0.428508	-0.560138	0.428312
C23	C	-0.378239	-0.601403	0.378197
C24	C	-0.327978	-0.560122	0.328085
C25	C	-0.478774	-0.601426	0.478416
C26	C	-0.478768	-0.683976	0.478414
C27	C	-0.428495	-0.725243	0.428303
C28	C	-0.378231	-0.683956	0.378190
C29	C	-0.327962	-0.725221	0.328075
C30	C	-0.277694	-0.683936	0.277966
C31	C	-0.277705	-0.601388	0.277974
C32	C	-0.428484	-0.807791	0.428295
C33	C	-0.327954	-0.807775	0.328068
C34	C	-0.582192	-1.142202	0.378160
C35	C	-0.669442	-1.142242	0.378173
C36	C	-0.710428	-1.192837	0.328026
C37	C	-0.792409	-1.192876	0.328046
C38	C	-0.833401	-1.142315	0.378210
C39	C	-0.792409	-1.091718	0.428362
C40	C	-0.710430	-1.091684	0.428345
C41	C	-0.963279	-1.091791	0.428392
C42	C	-1.045263	-1.091824	0.428407
C43	C	-1.045258	-1.192983	0.328093
C44	C	-0.963279	-1.192949	0.328076
C45	C	-0.922292	-1.142350	0.378228
C46	C	-0.173500	-1.142377	0.378240
C47	C	-0.086250	-1.142419	0.378261
C48	C	-0.378186	-1.142327	0.582936
C49	C	-0.378162	-1.142347	0.670186
C50	C	-0.378269	-0.348447	0.378209
C51	C	-0.378255	-0.436303	0.378207
C52	C	-0.378245	-1.142277	0.174244
C53	C	-0.378049	-1.142409	0.086994
C54	C	-0.327960	-1.192928	0.711194
C55	C	-0.327934	-1.192937	0.793175
C56	C	-0.378114	-1.142369	0.834145
C57	C	-0.428318	-1.091783	0.793131
C58	C	-0.428339	-1.091770	0.711152
C59	C	-0.428270	-1.091815	0.964001
C60	C	-0.428250	-1.091828	1.045986
C61	C	-0.327865	-1.192982	1.046024
C62	C	-0.327887	-1.192969	0.964045
C63	C	-0.378092	-1.142383	0.923036
H64	H	-0.287014	-0.841367	0.287263
H65	H	-0.929910	-1.050591	0.469233
C66	C	-0.837491	-1.248526	0.272881
H67	H	-0.801336	-1.278625	0.242996
H68	H	-0.869424	-1.282966	0.302943
H69	H	-0.869517	-1.218315	0.238658
C70	C	-0.534052	-0.729383	0.533538
H71	H	-0.563987	-0.692983	0.563389
H72	H	-0.568213	-0.761570	0.503453
H73	H	-0.504056	-0.761600	0.567795
H74	H	-0.287030	-1.234150	0.930689
H75	H	-0.469448	-0.443990	0.469112
H76	H	-0.236768	-0.717545	0.237159
C77	C	-0.272650	-1.248634	1.091130
H78	H	-0.279819	-1.241398	1.145821
H79	H	-0.284164	-1.301730	1.077697
H80	H	-0.219903	-1.237099	1.077710
C81	C	-0.222427	-0.555974	0.222849
H82	H	-0.229641	-0.500901	0.230024
H83	H	-0.169695	-0.569511	0.234422
H84	H	-0.233859	-0.569482	0.170086
C85	C	-0.483442	-1.036201	1.091052
H86	H	-0.513338	-1.006064	1.054889
H87	H	-0.517643	-1.066423	1.123028
H88	H	-0.453390	-1.001783	1.123033
H89	H	-0.469172	-1.050607	0.826495
C90	C	-0.665341	-1.036031	0.483505
H91	H	-0.610647	-1.043257	0.476317
H92	H	-0.678820	-0.982933	0.471975
H93	H	-0.678731	-1.047582	0.536262
H94	H	-0.469141	-1.050610	0.930614
H95	H	-0.287057	-0.443950	0.287296
H96	H	-0.287057	-1.234127	0.826561
H97	H	-0.469211	-1.050574	0.677764
C98	C	-1.090340	-1.248631	0.272918
H99	H	-1.145034	-1.241414	0.280114
H100	H	-1.076946	-1.237074	0.220168
H101	H	-1.076862	-1.301734	0.284443
H102	H	-0.519706	-0.567822	0.519212
C103	C	-0.483771	-0.853201	0.483408
H104	H	-0.513709	-0.816802	0.513256
H105	H	-0.517929	-0.885387	0.453316
H106	H	-0.453779	-0.885420	0.517667
H107	H	-0.677058	-1.234006	0.287174
H108	H	-0.929903	-1.234115	0.287226
C109	C	-1.090354	-1.036218	0.483595
H110	H	-1.054204	-1.006088	0.513471
H111	H	-1.122383	-1.001805	0.453550
H112	H	-1.122285	-1.066464	0.517827
H113	H	-0.825791	-1.050554	0.469209
H114	H	-0.287100	-1.234109	0.677842
