data_functionalizedCrystal
_audit_creation_method	'MofGen! by Chris Wilmer'
_symmetry_space_group_name_H-M	'P1'
_symmetry_Int_Tables_number	1
_symmetry_cell_setting	triclinic
loop_
_symmetry_equiv_pos_as_xyz
  x,y,z
_cell_length_a	17.077404
_cell_length_b	12.645330
_cell_length_c	17.077396
_cell_angle_alpha	89.974327
_cell_angle_beta	89.982940
_cell_angle_gamma	90.017917
loop_
_atom_site_label
_atom_site_type_symbol
_atom_site_fract_x
_atom_site_fract_y
_atom_site_fract_z
Zn1	Zn	1.200064	-0.422016	-0.443867
Zn2	Zn	1.700064	0.077984	0.056133
Zn3	Zn	1.199989	-0.599307	-0.312611
Zn4	Zn	1.699989	-0.099307	0.187389
Zn5	Zn	1.068801	-0.422058	-0.312615
Zn6	Zn	1.568801	0.077942	0.187385
Zn7	Zn	1.068776	-0.599239	-0.443834
Zn8	Zn	1.568776	-0.099239	0.056166
O9	O	1.134407	-0.510655	-0.378232
O10	O	1.634407	-0.010655	0.121768
O11	O	1.309901	-0.445545	-0.426467
O12	O	1.809901	0.054455	0.073533
O13	O	1.182566	-0.575840	-0.202764
O14	O	1.682566	-0.075840	0.297236
O15	O	1.086256	-0.273706	-0.330041
O16	O	1.586256	0.226294	0.169959
O17	O	1.309846	-0.575799	-0.330034
O18	O	1.809846	-0.075799	0.169966
O19	O	1.182694	-0.273675	-0.426471
O20	O	1.682694	0.226325	0.073529
O21	O	1.086183	-0.445617	-0.202767
O22	O	1.586183	0.054383	0.297233
O23	O	0.958951	-0.445551	-0.330009
O24	O	1.458951	0.054449	0.169991
O25	O	1.086212	-0.575684	-0.553686
O26	O	1.586212	-0.075684	-0.053686
O27	O	0.958932	-0.575725	-0.426416
O28	O	1.458932	-0.075725	0.073584
O29	O	1.182669	-0.445479	-0.553709
O30	O	1.682669	0.054521	-0.053709
O31	O	1.182541	-0.747645	-0.330003
O32	O	1.682541	-0.247645	0.169997
O33	O	1.086139	-0.747595	-0.426412
O34	O	1.586139	-0.247595	0.073588
C35	C	0.930460	-0.510636	-0.378210
C36	C	1.430460	-0.010636	0.121790
C37	C	0.843210	-0.510653	-0.378219
C38	C	1.343210	-0.010653	0.121781
C39	C	1.134350	-0.786085	-0.378221
C40	C	1.634350	-0.286085	0.121779
C41	C	1.134398	-0.903915	-0.378242
C42	C	1.634398	-0.403915	0.121758
C43	C	0.802230	-0.578537	-0.428338
C44	C	1.302230	-0.078537	0.071662
C45	C	0.720250	-0.578539	-0.428350
C46	C	1.220250	-0.078539	0.071650
C47	C	0.679250	-0.510662	-0.378240
C48	C	1.179250	-0.010662	0.121760
C49	C	0.720236	-0.442771	-0.328119
C50	C	1.220236	0.057229	0.171881
C51	C	0.802215	-0.442764	-0.328111
C52	C	1.302215	0.057236	0.171889
C53	C	0.549366	-0.442792	-0.328138
C54	C	1.049366	0.057208	0.171862
C55	C	0.467381	-0.442800	-0.328145
C56	C	0.967381	0.057200	0.171855
C57	C	0.467401	-0.578567	-0.428377
C58	C	0.967401	-0.078567	0.071623
C59	C	0.549380	-0.578560	-0.428369
C60	C	1.049380	-0.078560	0.071631
C61	C	0.590359	-0.510670	-0.378247
C62	C	1.090359	-0.010670	0.121753
C63	C	1.074001	-1.071491	-0.439080
C64	C	1.574001	-0.571491	0.060920
C65	C	1.073692	-0.948932	-0.438885
C66	C	1.573692	-0.448932	0.061115
C67	C	1.112009	-0.948511	-0.295515
C68	C	1.612009	-0.448511	0.204485
C69	C	1.111641	-1.071109	-0.295885
C70	C	1.611641	-0.571109	0.204115
C71	C	1.217551	-1.071003	-0.399460
C72	C	1.717551	-0.571003	0.100540
C73	C	1.217042	-0.948396	-0.401269
C74	C	1.717042	-0.448396	0.098731
C75	C	1.339152	-0.510675	-0.378254
C76	C	1.839152	-0.010675	0.121746
C77	C	1.426402	-0.510684	-0.378263
C78	C	1.926402	-0.010684	0.121737
C79	C	1.134446	-0.510569	-0.582976
C80	C	1.634446	-0.010569	-0.082976
C81	C	1.134463	-0.510533	-0.670226
C82	C	1.634463	-0.010533	-0.170226
C83	C	1.134486	-0.234150	-0.378260
C84	C	1.634486	0.265850	0.121740
C85	C	1.134520	-0.116320	-0.378272
C86	C	1.634520	0.383680	0.121728
C87	C	1.184721	-0.578216	-1.046041
C88	C	1.684721	-0.078216	-0.546041
C89	C	1.184701	-0.578247	-0.964061
C90	C	1.684701	-0.078247	-0.464061
C91	C	1.134513	-0.510458	-0.923075
C92	C	1.634513	-0.010458	-0.423075
C93	C	1.084337	-0.442640	-0.964074
C94	C	1.584337	0.057360	-0.464074
C95	C	1.084353	-0.442615	-1.046053
C96	C	1.584353	0.057385	-0.546053
C97	C	1.084307	-0.442695	-0.793204
C98	C	1.584307	0.057305	-0.293204
C99	C	1.084292	-0.442718	-0.711219
C100	C	1.584292	0.057282	-0.211219
C101	C	1.184655	-0.578327	-0.711212
C102	C	1.684655	-0.078327	-0.211212
C103	C	1.184671	-0.578302	-0.793191
C104	C	1.684671	-0.078302	-0.293191
C105	C	1.134496	-0.510483	-0.834184
C106	C	1.634496	-0.010483	-0.334184
C107	C	1.134414	-0.510664	-0.174284
C108	C	1.634414	-0.010664	0.325716
C109	C	1.134550	-0.510402	-0.087034
C110	C	1.634550	-0.010402	0.412966
H111	H	0.835606	-0.633814	-0.469141
H112	H	1.335606	-0.133814	0.030859
H113	H	1.153807	-1.100767	-0.249033
H114	H	1.653807	-0.600767	0.250967
H115	H	1.012137	-0.919698	-0.424848
H116	H	1.512137	-0.419698	0.075152
Br117	Br	0.664638	-0.670668	-0.496373
Br118	Br	1.164638	-0.170668	0.003627
Br119	Br	1.245186	-0.899813	-0.502745
Br120	Br	1.745186	-0.399813	-0.002745
H121	H	1.225593	-0.633414	-1.079406
H122	H	1.725593	-0.133414	-0.579406
H123	H	1.012830	-1.102393	-0.425223
H124	H	1.512830	-0.602393	0.074777
Br125	Br	1.296157	-0.897302	-0.332833
Br126	Br	1.796157	-0.397302	0.167167
Br127	Br	0.411739	-0.350688	-0.260131
Br128	Br	0.911739	0.149312	0.239869
Br129	Br	1.097126	-1.120512	-0.541660
Br130	Br	1.597126	-0.620512	-0.041660
H131	H	1.154691	-0.919353	-0.248970
H132	H	1.654691	-0.419353	0.251030
H133	H	0.582729	-0.387499	-0.287331
H134	H	1.082729	0.112501	0.212669
Br135	Br	1.252787	-0.670298	-0.848815
Br136	Br	1.752787	-0.170298	-0.348815
H137	H	1.050944	-1.099801	-0.277936
H138	H	1.550944	-0.599801	0.222064
H139	H	1.043449	-0.387470	-0.826578
H140	H	1.543449	0.112530	-0.326578
H141	H	0.582760	-0.633837	-0.469169
H142	H	1.082760	-0.133837	0.030831
H143	H	1.051946	-0.917900	-0.277242
H144	H	1.551946	-0.417900	0.222758
Br145	Br	1.252750	-0.670369	-0.655580
Br146	Br	1.752750	-0.170369	-0.155580
Br147	Br	1.097036	-0.898665	-0.541125
Br148	Br	1.597036	-0.398665	-0.041125
Br149	Br	1.252793	-0.670286	-0.908430
Br150	Br	1.752793	-0.170286	-0.408430
Br151	Br	1.016264	-0.350575	-1.101687
Br152	Br	1.516264	0.149425	-0.601687
Br153	Br	1.251594	-1.122408	-0.498296
Br154	Br	1.751594	-0.622408	0.001704
H155	H	1.262639	-1.099992	-0.355171
H156	H	1.762639	-0.599992	0.144829
H157	H	0.686847	-0.387500	-0.287322
H158	H	1.186847	0.112500	0.212678
Br159	Br	1.016179	-0.350718	-0.655595
Br160	Br	1.516179	0.149282	-0.155595
H161	H	1.043470	-0.387450	-0.930696
H162	H	1.543470	0.112550	-0.430696
Br163	Br	0.411787	-0.670690	-0.496410
Br164	Br	0.911787	-0.170690	0.003590
H165	H	0.835579	-0.387481	-0.287304
H166	H	1.335579	0.112519	0.212696
