data_functionalizedCrystal
_audit_creation_method	'MofGen! by Chris Wilmer'
_symmetry_space_group_name_H-M	'P1'
_symmetry_Int_Tables_number	1
_symmetry_cell_setting	triclinic
loop_
_symmetry_equiv_pos_as_xyz
  x,y,z
_cell_length_a	19.188930
_cell_length_b	22.610064
_cell_length_c	19.188930
_cell_angle_alpha	90.001060
_cell_angle_beta	83.144779
_cell_angle_gamma	90.022082
loop_
_atom_site_label
_atom_site_type_symbol
_atom_site_fract_x
_atom_site_fract_y
_atom_site_fract_z
O1	O	0.926150	0.049381	0.087158
O2	O	0.722838	0.049342	0.098892
O3	O	0.830361	0.049351	-0.008630
O4	O	0.818627	0.049372	0.194681
O5	O	0.830342	-0.049018	-0.008615
O6	O	0.722819	-0.049028	0.098908
O7	O	0.926131	-0.048988	0.087174
Zn8	Zn	0.824472	-0.064626	0.093043
Zn9	Zn	0.824497	0.064980	0.093023
O10	O	0.818608	-0.048997	0.194697
C11	C	0.696818	0.000152	0.098520
C12	C	0.619313	0.000136	0.097380
N13	N	0.824460	-0.153078	0.093057
C14	C	0.574389	0.000152	0.160470
C15	C	0.501566	0.000158	0.159399
C16	C	0.473669	0.000161	0.095233
C17	C	0.518603	0.000142	0.032133
C18	C	0.591425	0.000129	0.033207
N19	N	0.365695	0.033659	0.046180
N20	N	0.296517	0.033672	0.045165
C21	C	0.254260	0.000197	0.091994
N22	N	0.283795	-0.033285	0.139889
N23	N	0.352979	-0.033295	0.140906
C24	C	0.394707	0.000174	0.094061
C25	C	0.130372	0.000218	0.153928
C26	C	0.057547	0.000221	0.152853
C27	C	0.074586	0.000211	0.025586
C28	C	0.147409	0.000202	0.026662
C29	C	0.175298	0.000209	0.090835
C30	C	0.872110	-0.561716	0.045419
C31	C	0.872114	-0.623636	0.045414
O32	O	0.912598	-0.655651	0.004921
N33	N	0.824497	-0.654616	0.093008
C34	C	0.776868	-0.623672	0.140606
O35	O	0.736366	-0.655709	0.181088
C36	C	0.776862	-0.561754	0.140607
C37	C	0.824487	-0.530777	0.093014
C38	C	0.919731	-0.530739	-0.002171
C39	C	0.919728	-0.468823	-0.002164
C40	C	0.872105	-0.437884	0.045431
C41	C	0.824484	-0.468861	0.093021
C42	C	0.729230	-0.530812	0.188201
C43	C	0.729227	-0.468889	0.188198
C44	C	0.776853	-0.437912	0.140605
C45	C	0.776857	-0.376007	0.140622
N46	N	0.824475	-0.345027	0.093028
C47	C	0.872098	-0.375966	0.045432
C48	C	0.776884	-0.753706	0.140599
C49	C	0.776893	-0.815624	0.140602
C50	C	0.872138	-0.815583	0.045409
C51	C	0.872132	-0.753664	0.045410
C52	C	0.824501	-0.722726	0.093005
C53	C	0.872089	-0.245938	0.045449
C54	C	0.872084	-0.184017	0.045461
C55	C	0.776836	-0.184064	0.140652
C56	C	0.776844	-0.245979	0.140643
C57	C	0.824473	-0.276915	0.093035
O58	O	0.736392	-0.343952	0.181093
O59	O	0.912588	-0.343921	0.004951
C60	C	0.952151	0.000203	0.087546
C61	C	1.029656	0.000223	0.088687
C62	C	0.829972	0.000165	-0.034634
C63	C	0.828831	0.000159	-0.112138
N64	N	0.824515	0.153432	0.093004
C65	C	0.891922	0.000169	-0.157062
C66	C	0.890850	0.000178	-0.229886
C67	C	0.826684	0.000166	-0.257782
C68	C	0.763585	0.000160	-0.212849
C69	C	0.764658	0.000157	-0.140026
N70	N	0.777630	-0.033320	-0.365782
N71	N	0.776615	-0.033319	-0.434961
C72	C	0.823446	0.000177	-0.477191
N73	N	0.871342	0.033664	-0.447631
N74	N	0.872359	0.033659	-0.378446
C75	C	0.825513	0.000170	-0.336745
C76	C	0.885379	0.000198	-0.601079
C77	C	0.884305	0.000211	-0.673904
C78	C	0.757038	0.000186	-0.656865
C79	C	0.758114	0.000179	-0.584042
C80	C	0.822287	0.000182	-0.556154
C81	C	0.818997	0.000190	0.220700
C82	C	0.820138	0.000200	0.298204
H83	H	0.597091	0.000159	0.212725
H84	H	0.495885	0.000152	-0.020111
C85	C	0.048025	0.000245	0.278757
C86	C	0.008163	0.000239	0.222209
H87	H	0.017535	0.000260	0.321574
H88	H	0.076758	-0.034060	0.276539
H89	H	0.076807	0.034547	0.276514
H90	H	-0.020616	-0.034065	0.224449
H91	H	-0.020582	0.034548	0.224428
C92	C	0.966974	0.050747	-0.085055
C93	C	0.962460	0.000180	-0.126408
H94	H	1.010520	0.050752	-0.066128
H95	H	0.963918	0.085044	-0.113110
H96	H	0.929550	0.050733	-0.047875
H97	H	0.999881	0.000197	-0.163591
H98	H	0.965523	-0.034125	-0.098352
C99	C	0.654767	-0.050425	-0.220746
C100	C	0.693050	0.000147	-0.243507
H101	H	0.611219	-0.050428	-0.239669
H102	H	0.680726	-0.084718	-0.236186
H103	H	0.646383	-0.050421	-0.170945
H104	H	0.701439	0.000141	-0.293308
H105	H	0.667086	0.034449	-0.228071
C106	C	0.994186	0.050794	-0.593164
C107	C	0.955913	0.000214	-0.570414
H108	H	1.037728	0.050806	-0.574229
H109	H	1.002578	0.050795	-0.642958
H110	H	0.968211	0.085085	-0.577723
H111	H	0.981886	-0.034078	-0.585860
H112	H	0.947523	0.000207	-0.520610
H113	H	0.183988	0.000192	-0.024713
H114	H	0.935683	0.000222	-0.710481
C115	C	0.963450	-0.050382	-0.321671
C116	C	0.960204	0.000184	-0.279279
H117	H	1.006265	-0.050376	-0.352165
H118	H	0.961217	-0.084679	-0.292908
H119	H	0.925076	-0.050378	-0.348700
H120	H	0.998575	0.000178	-0.252246
H121	H	0.962444	0.034490	-0.308046
H122	H	0.738099	-0.728520	0.179362
C123	C	0.409817	0.050756	0.231998
C124	C	0.452170	0.000180	0.228751
H125	H	0.379321	0.050766	0.274811
H126	H	0.438607	0.085046	0.229767
H127	H	0.382791	0.050748	0.193622
H128	H	0.479200	0.000189	0.267124
H129	H	0.423377	-0.034120	0.230988
C130	C	0.761382	-0.114426	0.235706
C131	C	0.724488	-0.150045	0.192963
H132	H	0.729060	-0.093421	0.267995
H133	H	0.790353	-0.138570	0.260757
H134	H	0.789746	-0.087123	0.207353
H135	H	0.696127	-0.177352	0.221316
H136	H	0.695505	-0.125899	0.167911
H137	H	0.628003	0.000117	-0.018171
H138	H	0.910872	-0.271119	0.006682
H139	H	0.910868	-0.158798	0.006706
C140	C	0.634149	-0.399297	0.203594
C141	C	0.676870	-0.434884	0.240519
H142	H	0.601825	-0.378308	0.235897
H143	H	0.662508	-0.371986	0.175261
H144	H	0.609133	-0.423466	0.174589
H145	H	0.701890	-0.410714	0.269520
H146	H	0.648507	-0.462198	0.268864
C147	C	0.202417	0.050779	0.228964
C148	C	0.161034	0.000216	0.224463
H149	H	0.221342	0.050776	0.272511
H150	H	0.239592	0.050769	0.191545
H151	H	0.174377	0.085082	0.225898
H152	H	0.189076	-0.034088	0.227523
H153	H	0.123854	0.000220	0.261892
H154	H	0.051874	0.000249	-0.026659
H155	H	0.713281	0.000149	-0.103449
H156	H	0.704792	0.000180	-0.679578
H157	H	0.958507	-0.443605	-0.040920
H158	H	0.706738	0.000168	-0.547464
H159	H	0.958512	-0.555924	-0.040932
H160	H	0.910915	-0.840784	0.006653
C161	C	0.966276	-0.759857	-0.048683
C162	C	0.924477	-0.719617	-0.006911
H163	H	0.998588	-0.738839	-0.080988
H164	H	0.991299	-0.783993	-0.019679
H165	H	0.937285	-0.784022	-0.073721
H166	H	0.953467	-0.695455	0.018131
H167	H	0.899452	-0.695470	-0.035919
H168	H	0.738120	-0.840841	0.179364
C169	C	0.635075	-0.524606	0.282279
C170	C	0.676875	-0.564850	0.240515
H171	H	0.602748	-0.545621	0.314574
H172	H	0.664058	-0.500449	0.307323
H173	H	0.610061	-0.500463	0.253264
H174	H	0.701892	-0.588991	0.269530
H175	H	0.647888	-0.589018	0.215469
C176	C	0.682689	-0.239797	0.234729
C177	C	0.724491	-0.280033	0.192954
H178	H	0.650362	-0.260819	0.267016
H179	H	0.711671	-0.215646	0.259782
H180	H	0.657677	-0.215647	0.205720
H181	H	0.749508	-0.304181	0.221963
H182	H	0.695506	-0.304195	0.167899
