data_functionalizedCrystal
_audit_creation_method	'MofGen! by Chris Wilmer'
_symmetry_space_group_name_H-M	'P1'
_symmetry_Int_Tables_number	1
_symmetry_cell_setting	triclinic
loop_
_symmetry_equiv_pos_as_xyz
  x,y,z
_cell_length_a	6.817900
_cell_length_b	8.749629
_cell_length_c	11.168144
_cell_angle_alpha	92.684675
_cell_angle_beta	108.508840
_cell_angle_gamma	105.181975
loop_
_atom_site_label
_atom_site_type_symbol
_atom_site_fract_x
_atom_site_fract_y
_atom_site_fract_z
V1	V	-4.091715	-0.218827	-0.392060
O2	O	-4.070339	0.010492	-0.386283
O3	O	-4.050149	-0.433875	-0.387757
O4	O	-4.068285	-0.215471	-0.563791
O5	O	-4.052077	-0.209423	-0.209031
V6	V	-4.571222	-0.191397	-0.370365
O7	O	-4.361783	-0.278998	-0.439650
O8	O	-4.751352	-0.131226	-0.322776
O9	O	-4.389582	0.023651	-0.374669
O10	O	-4.709996	-0.420716	-0.376142
O11	O	-4.728257	-0.200800	-0.553395
O12	O	-4.371446	-0.194752	-0.198634
C13	C	-3.896004	-0.486299	-0.381154
C14	C	-3.943472	-0.662103	-0.378780
C15	C	-3.919137	-0.207701	-0.605701
C16	C	-3.981309	-0.206380	-0.746081
C17	C	-4.054415	-0.343424	-0.824775
C18	C	-4.118674	-0.342062	-0.969866
C19	C	-4.207069	0.076067	-0.381268
C20	C	-4.138840	0.251870	-0.383650
C21	C	-4.183935	-0.202528	-0.156718
C22	C	-4.101001	-0.203841	-0.016337
H23	H	-3.812525	-0.722948	-0.372797
C24	C	-4.152803	-0.044870	-0.854227
C25	C	-4.016382	-0.045434	-0.925083
H26	H	-4.100565	0.052929	-0.797892
H27	H	-4.155536	-0.131749	-0.806265
H28	H	-4.294824	-0.055383	-0.910475
H29	H	-3.874364	-0.034934	-0.868836
H30	H	-4.013626	0.041469	-0.973049
C31	C	-4.232832	-0.501895	-0.392603
C32	C	-4.315640	-0.665998	-0.391734
H33	H	-4.341978	-0.451192	-0.397585
H34	H	-4.187247	-0.486052	-0.464268
H35	H	-4.113130	-0.457145	-0.316531
H36	H	-4.435333	-0.710750	-0.467810
H37	H	-4.361257	-0.681852	-0.320062
C38	C	-4.007103	-0.473610	-0.637462
C39	C	-4.074690	-0.503185	-0.770735
H40	H	-4.019611	-0.572244	-0.604105
H41	H	-4.095202	-0.419333	-0.613023
H42	H	-3.860642	-0.409215	-0.604875
H43	H	-4.221157	-0.567570	-0.803323
H44	H	-3.986591	-0.557487	-0.795185
C45	C	-4.250597	-0.468451	-1.187198
C46	C	-4.203317	-0.500459	-1.061133
H47	H	-4.302867	-0.566245	-1.243542
H48	H	-4.123237	-0.403673	-1.197705
H49	H	-4.357783	-0.413750	-1.205848
H50	H	-4.096119	-0.555151	-1.042480
H51	H	-4.330694	-0.565264	-1.050620
H52	H	-3.966305	-0.088044	-0.786123
