data_functionalizedCrystal
_audit_creation_method	'MofGen! by Chris Wilmer'
_symmetry_space_group_name_H-M	'P1'
_symmetry_Int_Tables_number	1
_symmetry_cell_setting	triclinic
loop_
_symmetry_equiv_pos_as_xyz
  x,y,z
_cell_length_a	10.540539
_cell_length_b	15.944551
_cell_length_c	9.616153
_cell_angle_alpha	89.996788
_cell_angle_beta	89.995174
_cell_angle_gamma	84.012115
loop_
_atom_site_label
_atom_site_type_symbol
_atom_site_fract_x
_atom_site_fract_y
_atom_site_fract_z
O1	O	1.684280	0.118370	-0.115583
O2	O	1.314716	0.129523	-0.115601
O3	O	1.509590	0.001731	-0.115579
O4	O	1.489406	0.246161	-0.115605
O5	O	1.509563	0.001734	0.115712
O6	O	1.314689	0.129525	0.115690
O7	O	1.684254	0.118372	0.115708
Zn8	Zn	1.499467	0.123949	0.152422
Zn9	Zn	1.499502	0.123946	-0.152315
O10	O	1.489379	0.246163	0.115686
C11	C	1.267411	0.128688	0.000043
C12	C	1.126497	0.126185	0.000036
C13	C	0.944375	0.030298	0.000587
C14	C	1.090959	0.032835	0.000051
C15	C	1.064228	0.171108	-0.132042
C16	C	0.917727	0.167922	-0.132138
C17	C	0.917182	0.169824	0.130883
C18	C	1.064152	0.170684	0.132615
C19	C	1.508739	-0.029566	0.000067
C20	C	1.506227	-0.122827	0.000067
C21	C	1.379430	-0.338440	0.000042
C22	C	1.438297	-0.399105	0.114086
C23	C	1.501682	-0.293580	0.000056
C24	C	1.438352	-0.399091	-0.113950
C25	C	1.497283	-0.458519	0.000040
C26	C	1.560583	-0.353017	0.114194
C27	C	1.560621	-0.352996	-0.113944
C28	C	1.619577	-0.413643	0.000128
C29	C	1.504213	-0.198563	0.000067
C30	C	1.494762	-0.553535	0.000039
C31	C	1.731559	0.119207	0.000061
C32	C	1.872473	0.121710	0.000058
C33	C	1.490231	0.277461	0.000037
C34	C	1.492743	0.370722	0.000027
N35	N	1.499452	0.123951	0.360396
N36	N	1.499527	0.123937	-0.360289
C37	C	1.394895	0.192081	0.580755
C38	C	1.395120	0.192337	0.419587
C39	C	1.631904	0.143890	0.418850
C40	C	1.631333	0.144372	0.580067
C41	C	1.472882	0.035659	0.580316
C42	C	1.469828	0.036231	0.419089
H43	H	1.105550	0.137866	0.230326
H44	H	1.654811	0.208777	0.617650
N45	N	0.905026	-0.018343	-0.124170
H46	H	0.982435	-0.036201	-0.183162
H47	H	0.865418	-0.069957	-0.091813
H48	H	1.711624	0.096739	0.619064
N49	N	1.564212	-0.034172	0.365750
H50	H	1.627798	-0.010094	0.302502
H51	H	1.610576	-0.063629	0.446866
N52	N	1.148024	-0.013998	0.125456
H53	H	1.210702	-0.062507	0.093911
H54	H	1.193567	0.025664	0.184853
N55	N	0.907141	-0.018548	0.126052
H56	H	0.867752	-0.070426	0.094543
H57	H	0.985458	-0.035988	0.183864
H58	H	1.655935	0.207567	0.378454
N59	N	1.245019	-0.295119	0.000182
H60	H	1.247656	-0.231983	-0.000701
H61	H	1.198430	-0.312644	-0.085070
H62	H	1.612236	-0.332717	0.210715
H63	H	1.711616	0.095612	0.380505
H64	H	1.386578	-0.419520	0.210495
N65	N	1.573946	-0.031530	0.630809
H66	H	1.636696	-0.004963	0.691858
H67	H	1.532400	-0.075151	0.685936
N68	N	1.347716	0.010530	0.634226
H69	H	1.307013	0.056122	0.697708
H70	H	1.288915	0.002740	0.553388
N71	N	1.264703	0.176454	0.367245
H72	H	1.199098	0.222233	0.402424
H73	H	1.264706	0.176573	0.262218
H74	H	1.296131	0.180269	0.619562
N75	N	1.146912	-0.014319	-0.125572
H76	H	1.109089	0.013125	-0.212953
H77	H	1.242471	-0.012861	-0.126321
N78	N	1.340725	0.016235	0.368585
H79	H	1.301586	0.063790	0.307926
H80	H	1.350834	-0.037813	0.313058
H81	H	1.411676	0.257205	0.621247
H82	H	1.386639	-0.419477	-0.210371
H83	H	1.087451	0.238743	0.140582
H84	H	0.889980	0.134718	-0.230861
H85	H	1.612295	-0.332559	-0.210358
H86	H	1.721141	-0.446196	0.000197
N87	N	1.417307	0.279149	0.368459
H88	H	1.427025	0.317393	0.450650
H89	H	1.497428	0.275326	0.310194
N90	N	0.852963	0.256848	-0.140034
H91	H	0.919620	0.297942	-0.143449
H92	H	0.798543	0.263267	-0.226584
N93	N	1.092609	0.261912	-0.138588
H94	H	1.146233	0.274834	-0.055799
H95	H	1.140599	0.271507	-0.227114
H96	H	0.886035	0.139615	0.230998
N97	N	1.121208	0.129776	-0.262245
H98	H	1.187343	0.081961	-0.235976
H99	H	1.051667	0.107063	-0.318832
H100	H	0.869037	0.237250	0.131769
