data_functionalizedCrystal
_audit_creation_method	'MofGen! by Chris Wilmer'
_symmetry_space_group_name_H-M	'P1'
_symmetry_Int_Tables_number	1
_symmetry_cell_setting	triclinic
loop_
_symmetry_equiv_pos_as_xyz
  x,y,z
_cell_length_a	8.497374
_cell_length_b	12.759401
_cell_length_c	12.759400
_cell_angle_alpha	89.985155
_cell_angle_beta	89.991978
_cell_angle_gamma	90.000368
loop_
_atom_site_label
_atom_site_type_symbol
_atom_site_fract_x
_atom_site_fract_y
_atom_site_fract_z
Zn1	Zn	0.891904	1.606068	0.418444
Zn2	Zn	0.628108	1.606017	0.594091
Zn3	Zn	0.628137	1.430425	0.418427
Zn4	Zn	0.891846	1.430358	0.594082
O5	O	0.759999	1.518217	0.506261
O6	O	0.856923	1.753082	0.441755
O7	O	0.407350	1.582732	0.570785
O8	O	0.663163	1.453773	0.271408
O9	O	0.663113	1.753045	0.570802
O10	O	0.856951	1.582817	0.271421
O11	O	0.407371	1.453725	0.441725
O12	O	0.663107	1.283395	0.441717
O13	O	1.112616	1.453659	0.570787
O14	O	0.856853	1.283346	0.570770
O15	O	1.112658	1.582752	0.441746
O16	O	0.663058	1.582667	0.741110
O17	O	0.856824	1.453611	0.741104
C18	C	0.759978	1.245250	0.506241
C19	C	0.760006	1.128473	0.506258
C20	C	0.860722	1.073613	0.573564
C21	C	0.860739	0.963889	0.573577
C22	C	0.659310	0.963895	0.438977
C23	C	0.659302	1.073617	0.438959
C24	C	0.977011	1.073609	0.651278
C25	C	0.977028	0.963885	0.651291
C26	C	0.759966	1.518155	0.779228
C27	C	0.760005	1.518224	0.896005
C28	C	1.171479	1.518209	0.506262
C29	C	1.350123	1.518212	0.506274
C30	C	0.760021	1.792250	0.506281
C31	C	0.760031	1.909027	0.506290
C32	C	0.760066	1.518308	0.232228
C33	C	0.760095	1.518347	0.115451
C34	C	0.659222	1.585498	0.950835
C35	C	0.659270	1.585563	1.060559
C36	C	0.860889	1.451070	1.060613
C37	C	0.860847	1.451012	0.950891
C38	C	0.542814	1.663143	0.950805
C39	C	0.542862	1.663208	1.060529
H40	H	0.944096	0.934096	0.732632
H41	H	0.420664	1.641496	1.090358
C42	C	1.133938	0.917916	0.612107
C43	C	1.232117	0.846603	0.684265
C44	C	1.389022	0.800634	0.645081
C45	C	1.447748	0.825978	0.533740
C46	C	1.349567	0.897294	0.461576
C47	C	1.192662	0.943263	0.500759
H48	H	1.188646	0.827839	0.766693
H49	H	1.461702	0.747841	0.698503
H50	H	1.563898	0.791948	0.504734
H51	H	1.393038	0.916058	0.379148
H52	H	1.119983	0.996056	0.447338
H53	H	1.099249	1.103391	0.629612
C54	C	0.971732	1.377020	0.890580
C55	C	0.958742	1.257598	0.905763
C56	C	1.069638	1.183606	0.845454
C57	C	1.193522	1.229036	0.769963
C58	C	1.206517	1.348464	0.754777
C59	C	1.095621	1.422457	0.815085
H60	H	0.867031	1.223962	0.961649
H61	H	1.060018	1.095197	0.856696
H62	H	1.275614	1.174262	0.725319
H63	H	1.298228	1.382100	0.698891
H64	H	1.105241	1.510866	0.803843
H65	H	0.942993	1.396349	1.105314
C66	C	0.602124	1.767620	1.106415
C67	C	0.652856	1.857025	1.032688
C68	C	0.712124	1.961432	1.078575
C69	C	0.720660	1.976434	1.198190
C70	C	0.669926	1.887027	1.271924
C71	C	0.610659	1.782620	1.226036
H72	H	0.646539	1.845921	0.944136
H73	H	0.749680	2.027616	1.023992
H74	H	0.764534	2.053723	1.232158
H75	H	0.676244	1.898131	1.360476
H76	H	0.573102	1.716436	1.280619
H77	H	0.426703	1.634043	0.916826
C78	C	0.548533	0.903550	0.364955
C79	C	0.548539	0.782860	0.364968
C80	C	0.437757	0.722518	0.290945
C81	C	0.326969	0.782866	0.216910
C82	C	0.326959	0.903563	0.216894
C83	C	0.437741	0.963905	0.290917
H84	H	0.630554	0.738181	0.419775
H85	H	0.437765	0.633170	0.290957
H86	H	0.244962	0.738198	0.162114
H87	H	0.244943	0.948242	0.162087
H88	H	0.437733	1.053253	0.290905
C89	C	0.548515	1.133957	0.364914
C90	C	0.617083	1.209395	0.282487
C91	C	0.506289	1.269731	0.208437
C92	C	0.326927	1.254630	0.216816
C93	C	0.258350	1.179188	0.299246
C94	C	0.369144	1.118852	0.373296
H95	H	0.749866	1.220577	0.276282
H96	H	0.557055	1.325578	0.147417
H97	H	0.244911	1.299295	0.162000
H98	H	0.125568	1.168006	0.305452
H99	H	0.318378	1.063005	0.434316
H100	H	0.933039	1.107632	0.728518
H101	H	0.575625	1.744480	0.920956
