data_functionalizedCrystal
_audit_creation_method	'MofGen! by Chris Wilmer'
_symmetry_space_group_name_H-M	'P1'
_symmetry_Int_Tables_number	1
_symmetry_cell_setting	triclinic
loop_
_symmetry_equiv_pos_as_xyz
  x,y,z
_cell_length_a	25.639242
_cell_length_b	12.759400
_cell_length_c	12.759393
_cell_angle_alpha	89.968436
_cell_angle_beta	89.969545
_cell_angle_gamma	90.010212
loop_
_atom_site_label
_atom_site_type_symbol
_atom_site_fract_x
_atom_site_fract_y
_atom_site_fract_z
Zn1	Zn	0.799355	-0.418330	-0.594317
Zn2	Zn	0.799303	-0.594048	-0.418637
Zn3	Zn	0.711919	-0.418370	-0.418619
Zn4	Zn	0.711913	-0.593953	-0.594241
O5	O	0.755622	-0.506175	-0.506453
O6	O	0.872513	-0.441662	-0.571051
O7	O	0.787691	-0.570801	-0.271613
O8	O	0.723542	-0.271344	-0.441950
O9	O	0.872475	-0.570762	-0.441980
O10	O	0.787781	-0.271314	-0.571034
O11	O	0.723491	-0.441731	-0.271600
O12	O	0.638753	-0.441639	-0.441877
O13	O	0.723532	-0.570600	-0.741273
O14	O	0.638749	-0.570639	-0.570906
O15	O	0.787775	-0.441570	-0.741328
O16	O	0.787686	-0.741057	-0.441907
O17	O	0.723481	-0.740987	-0.570923
C18	C	0.755591	-0.779143	-0.506432
C19	C	0.755626	-0.895919	-0.506457
C20	C	0.619780	-0.506134	-0.506382
C21	C	0.561666	-0.506142	-0.506377
C22	C	0.789094	-0.950783	-0.439353
C23	C	0.789126	-1.060507	-0.439385
C24	C	0.722217	-1.060494	-0.573629
C25	C	0.722188	-0.950772	-0.573602
C26	C	0.822532	-0.895930	-0.372209
C27	C	0.856003	-0.950794	-0.305098
C28	C	0.856035	-1.060518	-0.305130
C29	C	0.822596	-1.115378	-0.372274
C30	C	0.201309	-0.573458	-0.573575
C31	C	0.146705	-0.573464	-0.573592
O32	O	0.118474	-0.630648	-0.630666
N33	N	0.119383	-0.506204	-0.506522
C34	C	0.146669	-0.438926	-0.439439
O35	O	0.118415	-0.381716	-0.382393
C36	C	0.201272	-0.438915	-0.439428
C37	C	0.228591	-0.506187	-0.506495
C38	C	0.228629	-0.640724	-0.640637
C39	C	0.283229	-0.640718	-0.640619
C40	C	0.310511	-0.573447	-0.573539
C41	C	0.283191	-0.506182	-0.506477
C42	C	0.228556	-0.371632	-0.372351
C43	C	0.283163	-0.371626	-0.372347
C44	C	0.310482	-0.438898	-0.439414
C45	C	0.365074	-0.438905	-0.439378
N46	N	0.392395	-0.506165	-0.506448
C47	C	0.365114	-0.573436	-0.573528
C48	C	0.031998	-0.438953	-0.439467
C49	C	-0.022604	-0.438968	-0.439472
C50	C	-0.022564	-0.573506	-0.573626
C51	C	0.032039	-0.573495	-0.573616
C52	C	0.059320	-0.506213	-0.506537
C53	C	0.479779	-0.573421	-0.573484
C54	C	0.534384	-0.573413	-0.573457
C55	C	0.534339	-0.438872	-0.439307
C56	C	0.479739	-0.438883	-0.439330
C57	C	0.452460	-0.506161	-0.506427
O58	O	0.393339	-0.381748	-0.382336
O59	O	0.393374	-0.630627	-0.630574
C60	C	0.891995	-0.506218	-0.506526
C61	C	0.950109	-0.506236	-0.506556
C62	C	0.755659	-0.506069	-0.780487
C63	C	0.755675	-0.506024	-0.897264
C64	C	0.755668	-0.232142	-0.506498
C65	C	0.755687	-0.115365	-0.506518
C66	C	0.789131	-0.438832	-0.952156
C67	C	0.789143	-0.438794	-1.061880
C68	C	0.722242	-0.573150	-1.061810
C69	C	0.722227	-0.573182	-0.952088
C70	C	0.822578	-0.371675	-0.897332
C71	C	0.856037	-0.304478	-0.952225
C72	C	0.856050	-0.304440	-1.061949
C73	C	0.822603	-0.371599	-1.116780
C74	C	0.755616	-0.506205	-0.233486
C75	C	0.755702	-0.505954	-0.116710
H76	H	0.883231	-0.906121	-0.250438
N77	N	0.822555	-0.371711	-0.778989
H78	H	0.832145	-0.443796	-0.752546
H79	H	0.848813	-0.318925	-0.752662
H80	H	0.305372	-0.316830	-0.317729
H81	H	0.694976	-0.627879	-0.907393
N82	N	0.686169	-0.645569	-1.120958
H83	H	0.707413	-0.694250	-1.166484
H84	H	0.664975	-0.688072	-1.069476
N85	N	0.892131	-0.231949	-1.121145
H86	H	0.929482	-0.248285	-1.102069
H87	H	0.887022	-0.242138	-1.198956
N88	N	0.892133	-1.119702	-0.232759
H89	H	0.929481	-1.100537	-0.249144
H90	H	0.883980	-1.100659	-0.157699
H91	H	0.457575	-0.628203	-0.628123
N92	N	0.312691	-0.713275	-0.712957
H93	H	0.287116	-0.755884	-0.755450
H94	H	0.335363	-0.670565	-0.761649
N95	N	0.061420	-0.366379	-0.367114
H96	H	0.035823	-0.323776	-0.324634
H97	H	0.084060	-0.409076	-0.318410
H98	H	0.556562	-0.384105	-0.384689
N99	N	0.199209	-0.713293	-0.712988
H100	H	0.224809	-0.755899	-0.755460
H101	H	0.176542	-0.761870	-0.670136
H102	H	0.206322	-0.316855	-0.317736
H103	H	0.822629	-1.204723	-0.372303
N104	N	0.563850	-0.645978	-0.645791
H105	H	0.538278	-0.688591	-0.688288
H106	H	0.586525	-0.603270	-0.694480
H107	H	-0.044786	-0.628278	-0.628250
H108	H	0.822610	-0.371550	-1.206125
N109	N	0.450269	-0.366341	-0.366984
H110	H	0.475840	-0.323729	-0.324483
H111	H	0.427634	-0.317769	-0.409841
H112	H	0.883265	-0.249793	-0.907574
N113	N	0.686152	-1.119659	-0.646041
H114	H	0.691248	-1.197493	-0.635873
H115	H	0.648811	-1.100546	-0.629602
N116	N	0.686093	-0.891588	-0.645981
H117	H	0.664913	-0.942985	-0.688516
H118	H	0.661897	-0.846130	-0.603154
H119	H	0.822508	-0.806587	-0.372172
N120	N	0.061499	-0.646049	-0.645959
H121	H	0.084170	-0.603410	-0.694720
H122	H	0.084108	-0.694671	-0.603104
N123	N	-0.052067	-0.366427	-0.367121
H124	H	-0.026494	-0.323815	-0.324626
H125	H	-0.074705	-0.317853	-0.409971
