data_functionalizedCrystal
_audit_creation_method	'MofGen! by Chris Wilmer'
_symmetry_space_group_name_H-M	'P1'
_symmetry_Int_Tables_number	1
_symmetry_cell_setting	triclinic
loop_
_symmetry_equiv_pos_as_xyz
  x,y,z
_cell_length_a	21.295419
_cell_length_b	16.120530
_cell_length_c	16.120256
_cell_angle_alpha	90.128265
_cell_angle_beta	87.112362
_cell_angle_gamma	92.901750
loop_
_atom_site_label
_atom_site_type_symbol
_atom_site_fract_x
_atom_site_fract_y
_atom_site_fract_z
Zn1	Zn	0.318941	1.247593	-0.534665
Zn2	Zn	0.818941	1.747593	-0.034665
Zn3	Zn	0.419151	1.254592	-0.395637
Zn4	Zn	0.919151	1.754592	0.104363
Zn5	Zn	0.308300	1.115578	-0.388579
Zn6	Zn	0.808300	1.615578	0.111421
Zn7	Zn	0.418574	1.108548	-0.527607
Zn8	Zn	0.918574	1.608548	-0.027607
O9	O	0.366241	1.181578	-0.461622
O10	O	0.866241	1.681578	0.038378
O11	O	0.336928	1.364890	-0.522130
O12	O	0.836928	1.864890	-0.022130
O13	O	0.400235	1.242023	-0.278334
O14	O	0.900235	1.742023	0.221666
O15	O	0.221622	1.133104	-0.407957
O16	O	0.721622	1.633104	0.092043
O17	O	0.410553	1.370032	-0.419987
O18	O	0.910553	1.870032	0.080013
O19	O	0.229440	1.230094	-0.515286
O20	O	0.729440	1.730094	-0.015286
O21	O	0.318792	1.139890	-0.273148
O22	O	0.818792	1.639890	0.226852
O23	O	0.318233	0.998277	-0.401114
O24	O	0.818233	1.498277	0.098886
O25	O	0.409570	1.121121	-0.644910
O26	O	0.909570	1.621121	-0.144910
O27	O	0.399252	0.993112	-0.503257
O28	O	0.899252	1.493112	-0.003257
O29	O	0.336369	1.223277	-0.650096
O30	O	0.836369	1.723277	-0.150096
O31	O	0.507164	1.235206	-0.413144
O32	O	1.007164	1.735206	0.086856
O33	O	0.506740	1.127908	-0.510101
O34	O	1.006740	1.627908	-0.010101
C35	C	0.357526	0.965522	-0.450654
C36	C	0.857526	1.465522	0.049346
C37	C	0.353813	0.873091	-0.445981
C38	C	0.853813	1.373091	0.054019
C39	C	0.347020	0.703858	-0.437458
C40	C	0.847020	1.203858	0.062542
C41	C	0.385512	0.660135	-0.485847
C42	C	0.885512	1.160135	0.014153
C43	C	0.381732	0.565968	-0.481104
C44	C	0.881732	1.065968	0.018896
C45	C	0.350799	0.798034	-0.442199
C46	C	0.850799	1.298034	0.057801
C47	C	0.202052	1.181602	-0.461621
C48	C	0.702052	1.681602	0.038379
C49	C	0.132084	1.181613	-0.461621
C50	C	0.632084	1.681613	0.038379
C51	C	0.095147	1.131125	-0.405743
C52	C	0.595147	1.631125	0.094257
C53	C	0.029405	1.131123	-0.405753
C54	C	0.529405	1.631123	0.094247
C55	C	0.000603	1.181625	-0.461633
C56	C	0.500603	1.681625	0.038367
C57	C	0.037549	1.232116	-0.517522
C58	C	0.537549	1.732116	-0.017522
C59	C	0.103290	1.232110	-0.517516
C60	C	0.603290	1.732110	-0.017516
N61	N	-0.099451	1.254104	-0.471714
N62	N	0.400549	1.754104	0.028286
N63	N	-0.161902	1.254108	-0.471715
N64	N	0.338098	1.754108	0.028285
C65	C	-0.197470	1.181645	-0.461655
C66	C	0.302530	1.681645	0.038345
N67	N	-0.168229	1.109177	-0.451579
N68	N	0.331771	1.609177	0.048421
N69	N	-0.105772	1.109175	-0.451574
N70	N	0.394228	1.609175	0.048426
C71	C	-0.070682	1.181637	-0.461646
C72	C	0.429318	1.681637	0.038354
C73	C	-0.305693	1.131151	-0.405784
C74	C	0.194307	1.631151	0.094216
C75	C	-0.371437	1.131147	-0.405800
C76	C	0.128563	1.631147	0.094200
C77	C	-0.363291	1.232148	-0.517565
C78	C	0.136709	1.732148	-0.017565
C79	C	-0.297549	1.232144	-0.517554
C80	C	0.202451	1.732144	-0.017554
C81	C	-0.268754	1.181646	-0.461659
C82	C	0.231246	1.681646	0.038341
C83	C	0.529794	1.181575	-0.461642
C84	C	1.029794	1.681575	0.038358
C85	C	0.599766	1.181649	-0.461682
C86	C	1.099766	1.681649	0.038318
C87	C	0.374092	1.170634	-0.678519
C88	C	0.874092	1.670634	-0.178519
C89	C	0.377438	1.165971	-0.770948
C90	C	0.877438	1.665971	-0.270948
C91	C	0.374992	1.398478	-0.472633
C92	C	0.874992	1.898478	0.027367
C93	C	0.378721	1.490908	-0.477326
C94	C	0.878721	1.990908	0.022674
C95	C	0.348779	1.205896	-0.983923
C96	C	0.848779	1.705896	-0.483923
C97	C	0.383518	1.157429	-0.940170
C98	C	0.883518	1.657429	-0.440170
C99	C	0.380134	1.162183	-0.846006
C100	C	0.880134	1.662183	-0.346006
C101	C	0.352163	1.201143	-1.078096
C102	C	0.852163	1.701143	-0.578096
C103	C	0.358378	1.192527	-0.245571
C104	C	0.858378	1.692527	0.254429
C105	C	0.354862	1.197351	-0.153151
C106	C	0.854862	1.697351	0.346849
H107	H	0.421304	0.693425	-0.530836
H108	H	0.921304	1.193425	-0.030836
H109	H	0.415798	1.112359	-0.973431
H110	H	0.915798	1.612359	-0.473431
C111	C	-0.412068	1.075609	-0.344329
C112	C	0.087932	1.575609	0.155671
H113	H	-0.385501	1.045542	-0.311036
H114	H	0.114499	1.545542	0.188964
H115	H	-0.438021	1.037769	-0.374296
H116	H	0.061979	1.537769	0.125704
H117	H	-0.437745	1.109259	-0.309716
H118	H	0.062255	1.609259	0.190284
H119	H	0.014095	1.273234	-0.563022
H120	H	0.514095	1.773234	-0.063022
H121	H	0.311231	0.670571	-0.392472
H122	H	0.811231	1.170571	0.107528
C123	C	0.305176	1.266778	-0.938997
C124	C	0.805176	1.766778	-0.438997
H125	H	0.308601	1.262030	-0.880685
H126	H	0.808601	1.762030	-0.380685
H127	H	0.262887	1.253924	-0.952544
H128	H	0.762887	1.753924	-0.452544
H129	H	0.317153	1.321948	-0.956029
H130	H	0.817153	1.821948	-0.456029
H131	H	-0.000675	1.090008	-0.360248
H132	H	0.499325	1.590008	0.139752
C133	C	0.126818	1.075571	-0.344269
C134	C	0.626818	1.575571	0.155731
H135	H	0.095399	1.045496	-0.310996
H136	H	0.595399	1.545496	0.189004
H137	H	0.152435	1.109204	-0.309649
H138	H	0.652435	1.609204	0.190351
H139	H	0.152153	1.037725	-0.374243
H140	H	0.652153	1.537725	0.125757
H141	H	0.133364	1.273223	-0.563022
H142	H	0.633364	1.773223	-0.063022
C143	C	-0.274013	1.075603	-0.344311
C144	C	0.225987	1.575603	0.155689
H145	H	-0.229569	1.082839	-0.352302
H146	H	0.270431	1.582839	0.147698
H147	H	-0.286595	1.019116	-0.353644
H148	H	0.213405	1.519116	0.146356
H149	H	-0.286325	1.090599	-0.289055
H150	H	0.213675	1.590599	0.210945
C151	C	-0.394965	1.287699	-0.579034
C152	C	0.105035	1.787699	-0.079034
H153	H	-0.439409	1.280476	-0.571032
H154	H	0.060591	1.780476	-0.071032
H155	H	-0.382655	1.272711	-0.634287
H156	H	0.117345	1.772711	-0.134287
H157	H	-0.382381	1.344189	-0.569693
H158	H	0.117619	1.844189	-0.069693
H159	H	-0.267474	1.273262	-0.563052
H160	H	0.232526	1.773262	-0.063052
