data_functionalizedCrystal
_audit_creation_method	'MofGen! by Chris Wilmer'
_symmetry_space_group_name_H-M	'P1'
_symmetry_Int_Tables_number	1
_symmetry_cell_setting	triclinic
loop_
_symmetry_equiv_pos_as_xyz
  x,y,z
_cell_length_a	6.817900
_cell_length_b	16.418049
_cell_length_c	16.015572
_cell_angle_alpha	77.934069
_cell_angle_beta	104.485554
_cell_angle_gamma	103.389670
loop_
_atom_site_label
_atom_site_type_symbol
_atom_site_fract_x
_atom_site_fract_y
_atom_site_fract_z
V1	V	-3.991464	-0.033756	-0.269482
O2	O	-3.980161	0.086040	-0.264039
O3	O	-3.942731	-0.148123	-0.267939
O4	O	-3.927893	0.003804	-0.386875
O5	O	-3.995101	-0.066939	-0.144280
V6	V	-4.477101	-0.023804	-0.254470
O7	O	-4.248085	-0.055588	-0.302411
O8	O	-4.670677	-0.001973	-0.221541
O9	O	-4.302628	0.090562	-0.256012
O10	O	-4.605801	-0.143600	-0.259913
O11	O	-4.590861	0.009378	-0.379671
O12	O	-4.317465	-0.061364	-0.137077
C13	C	-3.788141	-0.177160	-0.263766
C14	C	-3.829481	-0.270418	-0.263287
C15	C	-4.106096	-0.487922	-0.266521
C16	C	-4.144927	-0.575546	-0.266079
C17	C	-3.781827	-0.569636	-0.257436
C18	C	-3.743001	-0.482013	-0.257884
C19	C	-3.905141	-0.441159	-0.262423
C20	C	-3.982798	-0.616406	-0.261532
C21	C	-4.024899	-0.711412	-0.261053
C22	C	-3.863038	-0.346147	-0.262903
C23	C	-3.769214	0.016638	-0.415478
C24	C	-3.798519	0.046591	-0.511450
C25	C	-4.086378	-0.219271	-0.889781
C26	C	-4.113920	-0.191098	-0.979956
C27	C	-4.037357	-0.045343	-0.954866
C28	C	-4.009798	-0.073503	-0.864687
C29	C	-4.034315	-0.160468	-0.832152
C30	C	-3.957735	-0.014701	-0.807058
C31	C	-3.930190	-0.042859	-0.716886
C32	C	-3.954708	-0.129820	-0.684344
C33	C	-4.006770	-0.188626	-0.741980
C34	C	-3.933233	0.072263	-0.839595
C35	C	-3.881170	0.131066	-0.781966
C36	C	-3.853610	0.102908	-0.691793
C37	C	-3.878128	0.015947	-0.659250
C38	C	-3.801548	0.161714	-0.634156
C39	C	-3.774002	0.133556	-0.543985
C40	C	-3.850582	-0.012212	-0.569079
C41	C	-4.120560	0.119595	-0.260183
C42	C	-4.058457	0.212853	-0.260667
C43	C	-4.139487	-0.074203	-0.108469
C44	C	-4.089421	-0.104152	-0.012497
H45	H	-4.308562	-0.613617	-0.269419
O46	O	-4.013884	0.039133	-0.986445
C47	C	-4.129307	0.169647	-0.996727
C48	C	-4.156141	0.073982	-0.960931
H49	H	-4.244271	0.197855	-0.976097
H50	H	-4.158054	0.179718	-1.071080
H51	H	-3.965602	0.202203	-0.969453
H52	H	-4.319821	0.041364	-0.988139
H53	H	-4.127264	0.063973	-0.886578
O54	O	-3.547913	-0.436449	-0.253940
C55	C	-3.327172	-0.298847	-0.250741
C56	C	-3.548198	-0.350342	-0.255230
H57	H	-3.327323	-0.229223	-0.251764
H58	H	-3.268224	-0.305225	-0.309256
H59	H	-3.222305	-0.323990	-0.187811
H60	H	-3.653223	-0.325234	-0.318123
H61	H	-3.606978	-0.343964	-0.196671
O62	O	-4.029871	-0.273094	-0.710352
C63	C	-3.913070	-0.403358	-0.699766
C64	C	-3.887046	-0.307737	-0.735730
H65	H	-3.797588	-0.431392	-0.720254
H66	H	-4.076521	-0.436243	-0.726936
H67	H	-3.884278	-0.413216	-0.625422
H68	H	-3.915733	-0.297801	-0.810071
H69	H	-3.723598	-0.274899	-0.708492
H70	H	-3.870519	-0.083026	-0.542587
H71	H	-4.238123	-0.454661	-0.270216
O72	O	-3.723146	0.190598	-0.487907
C73	C	-3.475012	0.246129	-0.367390
C74	C	-3.532372	0.181472	-0.430828
H75	H	-3.320749	0.238784	-0.321237
H76	H	-3.599446	0.234408	-0.327861
H77	H	-3.462323	0.313110	-0.406155
H78	H	-3.545034	0.114465	-0.392131
H79	H	-3.407918	0.193266	-0.470358
H80	H	-3.861221	0.201873	-0.808469
O81	O	-3.928164	-0.157080	-0.596741
C82	C	-4.040234	-0.160249	-0.464644
C83	C	-4.070481	-0.129307	-0.563845
H84	H	-4.155304	-0.137822	-0.438022
H85	H	-3.876482	-0.133392	-0.431171
H86	H	-4.066612	-0.232503	-0.451312
H87	H	-4.044211	-0.057059	-0.577258
H88	H	-4.234227	-0.156228	-0.597268
O89	O	-4.109767	-0.303771	-0.858302
C90	C	-4.187122	-0.445360	-0.892660
C91	C	-4.161128	-0.349702	-0.928438
H92	H	-4.228609	-0.482522	-0.949345
H93	H	-4.315390	-0.464671	-0.854380
H94	H	-4.036447	-0.459701	-0.847751
H95	H	-4.311696	-0.335291	-0.973381
H96	H	-4.032769	-0.330440	-0.966666
O97	O	-3.624553	-0.609463	-0.252985
C98	C	-3.523459	-0.741825	-0.248511
C99	C	-3.701759	-0.696833	-0.253537
H100	H	-3.585821	-0.812468	-0.248974
H101	H	-3.403288	-0.732527	-0.185729
H102	H	-3.449277	-0.713768	-0.307176
H103	H	-3.776107	-0.724860	-0.194917
H104	H	-3.821796	-0.706127	-0.316355
O105	O	-3.778075	0.246161	-0.665880
C106	C	-3.937334	0.359849	-0.757265
C107	C	-3.964179	0.264194	-0.721419
H108	H	-4.087787	0.374462	-0.802160
H109	H	-3.809072	0.378885	-0.795541
H110	H	-3.895294	0.397028	-0.700572
H111	H	-4.006295	0.226949	-0.778059
H112	H	-4.092388	0.245225	-0.683117
O113	O	-3.959665	0.099724	-0.927164
C114	C	-3.805617	0.182782	-1.045501
C115	C	-3.775422	0.151763	-0.946313
H116	H	-3.656670	0.224847	-1.061016
H117	H	-3.935397	0.220602	-1.067842
H118	H	-3.847114	0.125801	-1.081084
H119	H	-3.733846	0.208694	-0.910659
H120	H	-3.645696	0.113916	-0.924039
H121	H	-4.156307	-0.238989	-1.026876
