data_functionalizedCrystal
_audit_creation_method	'MofGen! by Chris Wilmer'
_symmetry_space_group_name_H-M	'P1'
_symmetry_Int_Tables_number	1
_symmetry_cell_setting	triclinic
loop_
_symmetry_equiv_pos_as_xyz
  x,y,z
_cell_length_a	16.992694
_cell_length_b	14.853567
_cell_length_c	15.455313
_cell_angle_alpha	92.672621
_cell_angle_beta	87.142206
_cell_angle_gamma	87.151577
loop_
_atom_site_label
_atom_site_type_symbol
_atom_site_fract_x
_atom_site_fract_y
_atom_site_fract_z
O1	O	1.044027	0.187488	-0.072010
O2	O	0.815740	0.185390	-0.072036
O3	O	0.935981	0.055640	-0.072025
O4	O	0.923785	0.317238	-0.072021
O5	O	0.929105	0.063027	0.072237
O6	O	0.808864	0.192777	0.072226
O7	O	1.037151	0.194875	0.072251
Cu8	Cu	0.922380	0.194501	0.085411
Cu9	Cu	0.930511	0.185764	-0.085195
O10	O	0.916909	0.324625	0.072241
C11	C	0.783087	0.186385	0.000092
C12	C	0.696034	0.178334	0.000081
C13	C	0.645878	0.256009	0.000083
C14	C	0.564083	0.248440	0.000095
C15	C	0.532445	0.163195	0.000099
C16	C	0.582608	0.085514	0.000100
C17	C	0.664401	0.093084	0.000094
C18	C	0.288813	0.131820	0.000122
C19	C	0.207013	0.124255	0.000125
C20	C	0.188493	0.287183	0.000122
C21	C	0.270290	0.294745	0.000111
C22	C	0.320445	0.217064	0.000116
N23	N	0.448838	0.155456	0.000108
N24	N	0.404050	0.224804	0.000113
C25	C	0.931991	0.025705	0.000103
C26	C	0.930335	-0.074496	0.000096
C27	C	0.851909	-0.492567	0.000103
C28	C	0.994758	-0.503760	0.000119
C29	C	0.996315	-0.409617	0.000114
C30	C	0.925668	-0.356944	0.000105
C31	C	0.853464	-0.398414	0.000101
C32	C	1.068518	-0.368139	0.000127
C33	C	1.070078	-0.273990	0.000123
C34	C	0.999430	-0.221316	0.000108
C35	C	0.927223	-0.262791	0.000103
C36	C	0.856576	-0.210118	0.000094
C37	C	0.784368	-0.251593	0.000082
C38	C	0.782816	-0.345740	0.000086
C39	C	1.000982	-0.127169	0.000105
C40	C	0.858131	-0.115966	0.000091
C41	C	1.069804	0.193880	0.000122
C42	C	1.156857	0.201931	0.000127
C43	C	0.920900	0.354560	0.000110
C44	C	0.922556	0.454760	0.000112
N45	N	0.916666	0.200645	0.205406
N46	N	0.936231	0.179613	-0.205190
C47	C	0.967766	0.145545	0.250805
C48	C	0.963453	0.150201	0.341612
C49	C	0.908042	0.209961	0.387019
C50	C	0.856936	0.265063	0.341614
C51	C	0.861246	0.260402	0.250808
C52	C	0.889436	0.230054	0.658599
C53	C	0.885131	0.234713	0.749411
C54	C	0.991647	0.119849	0.749403
C55	C	0.995956	0.115198	0.658595
C56	C	0.944847	0.170296	0.613198
N57	N	0.903633	0.214723	0.479839
N58	N	0.949253	0.165529	0.520380
H59	H	0.671631	0.325425	0.000080
H60	H	1.052275	-0.546652	0.000134
C61	C	0.547809	-0.008255	0.000102
H62	H	0.491912	-0.001640	0.000097
H63	H	0.562627	-0.037911	0.050408
H64	H	0.567412	-0.043059	-0.050213
H65	H	0.705238	0.029832	0.000092
C66	C	0.772485	-0.538179	0.000086
H67	H	0.730636	-0.493322	0.000073
H68	H	0.766505	-0.572100	0.050389
H69	H	0.771310	-0.577245	-0.050231
H70	H	1.126034	-0.411032	0.000143
C71	C	0.833225	0.290668	0.608673
H72	H	0.799615	0.326933	0.648724
H73	H	0.802228	0.254048	0.573257
H74	H	0.863157	0.328437	0.573244
C75	C	0.703395	-0.391358	0.000074
H76	H	0.661542	-0.346507	0.000058
H77	H	0.697420	-0.425275	0.050381
H78	H	0.702223	-0.430431	-0.050239
H79	H	1.128874	-0.240230	0.000132
C80	C	0.780417	-0.058032	0.000082
H81	H	0.737195	-0.096218	0.000082
H82	H	0.780452	-0.023647	-0.050223
H83	H	0.775656	-0.018499	0.050397
C84	C	1.080400	-0.081550	0.000120
H85	H	1.122252	-0.126404	0.000124
H86	H	1.081575	-0.042474	0.050424
H87	H	1.086377	-0.047639	-0.050196
C88	C	0.508915	0.333884	0.000094
H89	H	0.539472	0.385736	0.000080
H90	H	0.474233	0.336899	0.050404
H91	H	0.479013	0.331737	-0.050216
H92	H	1.033256	0.074990	0.786374
C93	C	1.028718	0.079807	0.200865
H94	H	1.058528	0.047653	0.240912
H95	H	1.063076	0.112792	0.165432
H96	H	1.002147	0.038403	0.165451
C97	C	1.019671	0.089600	0.391547
H98	H	1.053297	0.053353	0.351499
H99	H	0.989752	0.051830	0.426980
H100	H	1.050662	0.126239	0.426960
H101	H	1.041076	0.066536	0.621627
H102	H	0.296043	0.364161	0.000098
H103	H	0.147649	0.350426	0.000119
C104	C	0.795986	0.330799	0.391559
H105	H	0.800743	0.325692	0.452142
H106	H	0.744349	0.316441	0.376688
H107	H	0.805278	0.390831	0.376668
H108	H	0.840006	0.283380	0.786377
C109	C	0.172213	0.030481	0.000131
H110	H	0.213797	-0.014699	0.000140
H111	H	0.143083	0.021565	-0.050176
H112	H	0.138297	0.026725	0.050445
H113	H	0.819634	0.305269	0.213845
H114	H	0.329639	0.068566	0.000127
H115	H	0.726847	-0.208694	0.000081
