data_functionalizedCrystal
_audit_creation_method	'MofGen! by Chris Wilmer'
_symmetry_space_group_name_H-M	'P1'
_symmetry_Int_Tables_number	1
_symmetry_cell_setting	triclinic
loop_
_symmetry_equiv_pos_as_xyz
  x,y,z
_cell_length_a	14.971486
_cell_length_b	11.792254
_cell_length_c	14.048226
_cell_angle_alpha	89.993407
_cell_angle_beta	89.998499
_cell_angle_gamma	83.906363
loop_
_atom_site_label
_atom_site_type_symbol
_atom_site_fract_x
_atom_site_fract_y
_atom_site_fract_z
O1	O	1.187545	0.147908	-0.079052
O2	O	0.927216	0.165621	-0.079077
O3	O	1.063692	-0.008446	-0.079057
O4	O	1.051069	0.321975	-0.079072
O5	O	1.063676	-0.008456	0.079264
O6	O	0.927200	0.165610	0.079244
O7	O	1.187528	0.147898	0.079270
Zn8	Zn	1.057361	0.156753	0.104394
Zn9	Zn	1.057383	0.156766	-0.104201
O10	O	1.051053	0.321964	0.079249
C11	C	0.893880	0.164823	0.000080
C12	C	0.794574	0.162450	0.000070
C13	C	0.737762	0.264709	0.000067
C14	C	0.644453	0.262472	0.000081
C15	C	0.607958	0.157974	0.000092
C16	C	0.664778	0.055707	0.000098
C17	C	0.758084	0.057945	0.000091
C18	C	0.470296	0.051049	0.000111
C19	C	0.376983	0.048810	0.000117
C20	C	0.356665	0.255575	0.000102
C21	C	0.449972	0.257814	0.000095
C22	C	0.506785	0.155546	0.000099
C23	C	1.062889	-0.050737	0.000103
C24	C	1.060509	-0.176734	0.000102
C25	C	1.058575	-0.279058	0.000098
C26	C	1.056157	-0.407429	0.000089
C27	C	1.220865	0.148695	0.000110
C28	C	1.320171	0.151069	0.000114
C29	C	1.051856	0.364255	0.000087
C30	C	1.054236	0.490253	0.000082
N31	N	1.057353	0.156743	0.246754
N32	N	1.057399	0.156767	-0.246562
C33	C	1.117804	0.079698	0.296581
C34	C	1.117810	0.079697	0.396239
C35	C	1.057369	0.156748	0.446068
C36	C	0.996912	0.233796	0.396234
C37	C	0.996902	0.233790	0.296578
C38	C	0.996937	0.233804	0.603948
C39	C	0.996948	0.233812	0.703611
C40	C	1.117845	0.079711	0.703609
C41	C	1.117836	0.079705	0.603953
C42	C	1.057379	0.156756	0.554126
H43	H	0.804340	-0.025325	0.000093
N44	N	0.777125	0.377415	0.000060
H45	H	0.815380	0.382958	-0.058634
H46	H	0.726925	0.441792	0.000099
H47	H	0.947730	0.296553	0.744176
N48	N	1.183029	-0.003389	0.550206
H49	H	1.221329	-0.052201	0.596891
H50	H	1.148539	-0.053638	0.508869
N51	N	0.583176	0.372765	0.000185
H52	H	0.620454	0.439303	0.000207
H53	H	0.543966	0.376428	-0.058467
H54	H	0.516551	-0.032229	0.000116
N55	N	0.625411	-0.056997	0.000121
H56	H	0.587148	-0.062534	-0.058566
H57	H	0.675608	-0.121377	0.000162
N58	N	0.489338	0.370518	0.000065
H59	H	0.439191	0.434965	0.000062
H60	H	0.527615	0.375952	0.058750
N61	N	0.931729	0.316901	0.550203
H62	H	0.893442	0.365717	0.596889
H63	H	0.966210	0.367147	0.508842
H64	H	0.310403	0.338845	0.000103
N65	N	0.337621	-0.063897	0.000159
H66	H	0.269891	-0.049793	0.000164
H67	H	0.358360	-0.108672	-0.058521
H68	H	1.167071	0.016974	0.744184
H69	H	0.947695	0.296528	0.436810
H70	H	1.167026	0.016959	0.256017
H71	H	1.167033	0.016961	0.436808
H72	H	0.947676	0.296527	0.256010
