data_functionalizedCrystal
_audit_creation_method	'MofGen! by Chris Wilmer'
_symmetry_space_group_name_H-M	'P1'
_symmetry_Int_Tables_number	1
_symmetry_cell_setting	triclinic
loop_
_symmetry_equiv_pos_as_xyz
  x,y,z
_cell_length_a	14.519731
_cell_length_b	15.995362
_cell_length_c	12.996460
_cell_angle_alpha	90.000758
_cell_angle_beta	89.994327
_cell_angle_gamma	96.406883
loop_
_atom_site_label
_atom_site_type_symbol
_atom_site_fract_x
_atom_site_fract_y
_atom_site_fract_z
O1	O	1.223662	-0.109844	-0.085556
O2	O	0.955165	-0.122751	-0.085556
O3	O	1.096748	0.005578	-0.085564
O4	O	1.082080	-0.238173	-0.085549
O5	O	1.096733	0.005585	0.085570
O6	O	0.955151	-0.122744	0.085577
O7	O	1.223648	-0.109837	0.085577
Cu8	Cu	1.089398	-0.116290	0.101203
Cu9	Cu	1.089415	-0.116298	-0.101182
O10	O	1.082066	-0.238166	0.085585
C11	C	0.920800	-0.122143	0.000010
C12	C	0.818423	-0.120331	0.000010
C13	C	0.735281	-0.118858	0.000005
C14	C	0.630976	-0.117018	0.000005
C15	C	0.547839	-0.115558	0.000005
C16	C	0.443527	-0.113718	0.000002
C17	C	1.096132	0.036777	-0.000001
C18	C	1.094308	0.129729	-0.000013
C19	C	1.258013	-0.110446	0.000009
C20	C	1.360391	-0.112258	0.000002
N21	N	1.089392	-0.116284	0.243550
C22	C	1.087758	0.467485	-0.000032
C23	C	0.986924	0.420209	-0.000413
C24	C	0.988748	0.323517	-0.000021
C25	C	1.091007	0.299921	-0.000023
C26	C	1.140733	0.340924	0.097698
C27	C	1.138195	0.437563	0.097773
C28	C	1.140295	0.437910	-0.096838
C29	C	1.140276	0.340965	-0.098123
C30	C	1.092848	0.205221	-0.000015
C31	C	1.085919	0.562185	-0.000034
C32	C	1.082669	0.730633	0.000003
C33	C	1.084457	0.637676	-0.000043
N34	N	1.089428	-0.116298	-0.243529
C35	C	1.089414	-0.116299	0.663365
C36	C	1.089405	-0.116298	0.546560
C37	C	1.089404	-0.116292	0.453461
C38	C	1.089394	-0.116289	0.336649
H39	H	0.949659	0.295153	-0.070072
F40	F	1.097203	0.464811	-0.193654
F41	F	1.234956	0.479565	0.103573
H42	H	1.215859	0.326681	0.101330
H43	H	1.214848	0.325486	-0.104025
H44	H	0.946625	0.438801	-0.070494
F45	F	0.937294	0.287176	0.091699
F46	F	1.090777	0.461565	0.193254
H47	H	1.106184	0.312600	0.170425
H48	H	1.103919	0.313771	-0.170415
F49	F	0.934333	0.446187	0.090424
H50	H	1.214640	0.469554	-0.097500
