data_functionalizedCrystal
_audit_creation_method	'MofGen! by Chris Wilmer'
_symmetry_space_group_name_H-M	'P1'
_symmetry_Int_Tables_number	1
_symmetry_cell_setting	triclinic
loop_
_symmetry_equiv_pos_as_xyz
  x,y,z
_cell_length_a	10.540539
_cell_length_b	18.266242
_cell_length_c	19.188925
_cell_angle_alpha	89.993996
_cell_angle_beta	96.165980
_cell_angle_gamma	90.006962
loop_
_atom_site_label
_atom_site_type_symbol
_atom_site_fract_x
_atom_site_fract_y
_atom_site_fract_z
O1	O	1.683724	0.060846	-0.098393
O2	O	1.314106	0.060855	-0.107663
O3	O	1.509585	0.060846	-0.001443
O4	O	1.488245	0.060855	-0.204613
O5	O	1.509552	-0.060916	-0.001437
O6	O	1.314073	-0.060907	-0.107657
O7	O	1.683691	-0.060916	-0.098387
Zn8	Zn	1.498877	-0.080244	-0.103021
Zn9	Zn	1.498920	0.080183	-0.103029
O10	O	1.488212	-0.060907	-0.204607
C11	C	1.266802	-0.000025	-0.106965
C12	C	1.125900	-0.000022	-0.104885
N13	N	1.498856	-0.189731	-0.103016
C14	C	0.944232	-0.000309	-0.025184
C15	C	1.090804	-0.000027	-0.027292
C16	C	1.063422	0.069509	-0.142229
C17	C	0.916936	0.069560	-0.139581
C18	C	0.916375	-0.068906	-0.141153
C19	C	1.063341	-0.069818	-0.141868
C20	C	1.585443	-0.228044	-0.056005
C21	C	1.585451	-0.304689	-0.056002
C22	C	1.498885	-0.343018	-0.103021
C23	C	1.412282	-0.304696	-0.150036
C24	C	1.412268	-0.228052	-0.150033
N25	N	1.482383	-0.463347	-0.164719
N26	N	1.482404	-0.536155	-0.164720
C27	C	1.498920	-0.573940	-0.103032
N28	N	1.515439	-0.536166	-0.041341
N29	N	1.515425	-0.463352	-0.041342
C30	C	1.498890	-0.426125	-0.103029
C31	C	1.585520	-0.695360	-0.056014
C32	C	1.585519	-0.772006	-0.056009
C33	C	1.412357	-0.772012	-0.150050
C34	C	1.412351	-0.695367	-0.150048
C35	C	1.498940	-0.657046	-0.103031
C36	C	1.730995	-0.000035	-0.099085
C37	C	1.871897	-0.000033	-0.101165
C38	C	1.508879	-0.000035	0.024575
C39	C	1.506808	-0.000033	0.102094
N40	N	1.498951	0.189670	-0.103029
C41	C	1.488918	-0.000025	-0.230626
C42	C	1.490989	-0.000022	-0.308144
C43	C	1.607640	-0.000017	0.663192
C44	C	1.609597	-0.000024	0.590356
C45	C	1.494897	-0.000021	0.546186
C46	C	1.378230	-0.000030	0.574858
C47	C	1.376277	-0.000030	0.647693
N48	N	1.411869	0.041426	0.426057
N49	N	1.413733	0.041428	0.356867
C50	C	1.500776	-0.000020	0.326738
N51	N	1.585904	-0.041462	0.368413
N52	N	1.584044	-0.041461	0.437609
C53	C	1.497002	-0.000020	0.467208
C54	C	1.619557	-0.000024	0.219097
C55	C	1.621509	-0.000035	0.146259
C56	C	1.390139	-0.000034	0.130762
C57	C	1.388190	-0.000030	0.203599
C58	C	1.502903	-0.000021	0.247762
H59	H	1.134053	-0.049870	0.002092
H60	H	1.341797	-0.335907	-0.188319
C61	C	1.259863	-0.000026	0.235130
N62	N	1.163201	-0.000024	0.258879
H63	H	0.914712	0.049275	0.005338
H64	H	0.867736	0.072718	-0.195385
H65	H	1.655962	-0.335889	-0.017719
C66	C	1.317067	-0.185907	-0.201781
N67	N	1.245381	-0.154162	-0.240771
C68	C	1.247946	-0.000031	0.679223
N69	N	1.151285	-0.000028	0.702973
H70	H	1.704592	-0.000020	0.567013
H71	H	1.086318	-0.074013	-0.198438
H72	H	1.656022	-0.664158	-0.017727
C73	C	0.874500	-0.140107	-0.107221
N74	N	0.842963	-0.193733	-0.081655
C75	C	1.148105	0.067424	0.012674
N76	N	1.191264	0.118232	0.042778
C77	C	1.733828	-0.000024	0.711768
N78	N	1.828874	-0.000034	0.748356
H79	H	1.655945	-0.196845	-0.017719
H80	H	1.084518	0.072099	-0.199212
C81	C	1.680755	-0.814150	-0.004279
N82	N	1.752482	-0.845894	0.034688
C83	C	1.317133	-0.814170	-0.201773
N84	N	1.245408	-0.845927	-0.240731
C85	C	1.263966	-0.000032	0.082179
N86	N	1.168929	-0.000032	0.045583
H87	H	1.341850	-0.664171	-0.188331
H88	H	1.284841	-0.000029	0.538890
C89	C	1.745742	-0.000023	0.267679
N90	N	1.840786	-0.000024	0.304269
C91	C	0.879666	0.139769	-0.102293
N92	N	0.851601	0.192650	-0.074203
C93	C	1.749842	-0.000032	0.114730
N94	N	1.846504	-0.000030	0.090981
C95	C	1.119426	-0.139310	-0.104991
N96	N	1.161666	-0.191651	-0.077209
C97	C	0.906497	-0.067673	0.016233
N98	N	0.878064	-0.118413	0.047428
H99	H	0.867911	-0.069374	-0.197198
H100	H	1.106597	0.121254	-0.116292
