data_functionalizedCrystal
_audit_creation_method	'MofGen! by Chris Wilmer'
_symmetry_space_group_name_H-M	'P1'
_symmetry_Int_Tables_number	1
_symmetry_cell_setting	triclinic
loop_
_symmetry_equiv_pos_as_xyz
  x,y,z
_cell_length_a	19.121275
_cell_length_b	19.121063
_cell_length_c	12.759401
_cell_angle_alpha	87.572201
_cell_angle_beta	87.563115
_cell_angle_gamma	89.926756
loop_
_atom_site_label
_atom_site_type_symbol
_atom_site_fract_x
_atom_site_fract_y
_atom_site_fract_z
Zn1	Zn	1.059715	-0.324930	0.547072
Zn2	Zn	1.054651	-0.442133	0.379174
Zn3	Zn	0.942512	-0.319917	0.378568
Zn4	Zn	0.937442	-0.437134	0.561972
O5	O	0.998580	-0.381028	0.466696
O6	O	1.157146	-0.344667	0.518818
O7	O	1.039778	-0.425915	0.232072
O8	O	0.962300	-0.222477	0.394431
O9	O	1.153425	-0.430775	0.395464
O10	O	1.048409	-0.226160	0.518231
O11	O	0.957389	-0.336124	0.231627
O12	O	0.843737	-0.331277	0.408879
O13	O	0.953660	-0.422256	0.707017
O14	O	0.840012	-0.417395	0.543625
O15	O	1.043493	-0.339820	0.696070
O16	O	1.034862	-0.539575	0.409911
O17	O	0.948749	-0.535902	0.544213
C18	C	0.816437	-0.373250	0.477804
C19	C	0.738515	-0.369940	0.482581
C20	C	0.990725	-0.563177	0.478766
C21	C	0.987429	-0.641103	0.483961
C22	C	0.699970	-0.413143	0.420497
C23	C	0.626754	-0.410033	0.425000
C24	C	0.592084	-0.363715	0.491583
C25	C	0.630634	-0.320509	0.553674
C26	C	0.703849	-0.323624	0.549176
C27	C	0.371120	-0.352075	0.508388
C28	C	0.297900	-0.348962	0.512879
C29	C	0.294025	-0.438487	0.384206
C30	C	0.367241	-0.441594	0.379709
C31	C	0.405785	-0.398391	0.441805
C32	C	0.517246	-0.360532	0.496185
C33	C	0.480622	-0.401578	0.437207
C34	C	1.030749	-0.679604	0.416532
C35	C	1.027653	-0.752824	0.421423
C36	C	0.981233	-0.787543	0.493740
C37	C	0.937910	-0.749037	0.561176
C38	C	0.941010	-0.675818	0.556289
C39	C	0.969631	-1.008522	0.511996
C40	C	0.966533	-1.081746	0.516876
C41	C	1.056277	-1.085528	0.377124
C42	C	1.059370	-1.012307	0.372239
C43	C	1.016050	-0.973808	0.439679
C44	C	0.978065	-0.862385	0.498739
C45	C	1.019222	-0.898967	0.434684
C46	C	1.181434	-0.388838	0.455546
C47	C	1.259355	-0.392165	0.450795
C48	C	0.998576	-0.381039	0.740731
C49	C	0.998574	-0.381044	0.857508
C50	C	1.006485	-0.198170	0.454601
C51	C	1.009853	-0.120246	0.449447
C52	C	0.951804	-0.423963	1.027802
C53	C	0.951802	-0.423962	0.918078
C54	C	1.045347	-0.338119	0.906667
C55	C	1.045346	-0.338117	1.016389
C56	C	0.868042	-0.445481	0.774829
C57	C	0.821277	-0.488412	0.725674
C58	C	0.807555	-0.556358	0.766475
C59	C	0.840608	-0.581387	0.856429
C60	C	0.887378	-0.538460	0.905579
C61	C	0.901087	-0.470504	0.864780
C62	C	1.129106	-0.316605	1.159640
C63	C	1.175881	-0.273681	1.208791
C64	C	1.189610	-0.205734	1.167992
C65	C	1.156569	-0.180708	1.078033
C66	C	1.109794	-0.223632	1.028882
C67	C	1.096064	-0.291578	1.069688
C68	C	0.998577	-0.381037	1.193730
C69	C	0.998575	-0.381043	1.076954
H70	H	0.595374	-0.445214	0.374444
N71	N	0.262473	-0.301658	0.580902
N72	N	0.197104	-0.298885	0.584903
H73	H	0.172082	-0.265479	0.632940
N74	N	0.896759	-0.636500	0.625181
N75	N	0.855316	-0.667505	0.689748
H76	H	0.824064	-0.639737	0.738409
N77	N	0.743234	-0.279499	0.612591
N78	N	0.783035	-0.305979	0.678606
H79	H	0.810852	-0.274817	0.723398
N80	N	0.759770	-0.600211	0.716296
N81	N	0.706178	-0.623095	0.765746
H82	H	0.672425	-0.654064	0.730313
N83	N	1.115084	-0.386010	1.201337
N84	N	1.144594	-0.408348	1.281651
H85	H	1.134694	-0.457365	1.311102
N86	N	1.106773	-0.976829	0.298364
N87	N	1.153152	-0.937811	0.329898
H88	H	1.186620	-0.912747	0.277714
N89	N	0.410474	-0.307945	0.571829
N90	N	0.379508	-0.266596	0.631274
H91	H	0.407304	-0.235428	0.676085
N92	N	1.100519	-1.124864	0.308246
N93	N	1.097746	-1.190238	0.312614
H94	H	1.128995	-1.218020	0.263968
H95	H	1.062929	-0.784168	0.366514
N96	N	0.595211	-0.273205	0.621690
N97	N	0.529842	-0.270430	0.625699
H98	H	0.504824	-0.237020	0.673735
N99	N	1.170575	-0.111300	1.036344
N100	N	1.141067	-0.088964	0.956027
H101	H	1.150960	-0.039944	0.926584
N102	N	1.078167	-0.644132	0.342671
N103	N	1.080930	-0.578759	0.338314
H104	H	1.114421	-0.553707	0.286150
H105	H	1.057020	-0.870697	0.375807
N106	N	0.890481	-0.784488	0.635043
N107	N	0.851803	-0.750101	0.695239
H108	H	0.818302	-0.775136	0.747407
N109	N	0.919116	-1.117225	0.590741
N110	N	0.872734	-1.156225	0.559171
H111	H	0.839248	-1.181285	0.611332
N112	N	0.930645	-0.897864	0.572587
N113	N	0.884269	-0.936868	0.541009
H114	H	0.850779	-0.961929	0.593164
N115	N	0.925377	-0.969213	0.580890
N116	N	0.883933	-1.000223	0.645449
H117	H	0.852676	-0.972459	0.694109
H118	H	0.913719	-0.458915	1.077111
N119	N	0.921151	-0.564008	0.997455
N120	N	0.986440	-0.567441	0.997290
H121	H	1.010290	-0.585483	1.062183
H122	H	0.829438	-0.636719	0.889636
H123	H	1.082890	-0.203250	0.955633
H124	H	0.794365	-0.468027	0.652432
H125	H	0.728193	-0.450858	0.366274
H126	H	0.879201	-0.390150	0.741610
N127	N	1.093115	-0.294278	0.844784
N128	N	1.093111	-0.294285	0.746820
H129	H	1.126849	-0.263322	0.703114
H130	H	0.395464	-0.479311	0.325490
H131	H	1.227703	-0.170789	1.208016
N132	N	1.209646	-0.299231	1.300678
N133	N	1.274934	-0.302678	1.300513
H134	H	1.298782	-0.320719	1.365409
H135	H	0.489010	-0.322819	0.550395
H136	H	0.262635	-0.473661	0.333654
N137	N	0.516045	-0.448879	0.369194
N138	N	0.557956	-0.425868	0.298169
H139	H	0.582980	-0.459272	0.250131
