data_functionalizedCrystal
_audit_creation_method	'MofGen! by Chris Wilmer'
_symmetry_space_group_name_H-M	'P1'
_symmetry_Int_Tables_number	1
_symmetry_cell_setting	triclinic
loop_
_symmetry_equiv_pos_as_xyz
  x,y,z
_cell_length_a	29.839131
_cell_length_b	19.121102
_cell_length_c	19.120904
_cell_angle_alpha	90.088173
_cell_angle_beta	92.409150
_cell_angle_gamma	87.595578
loop_
_atom_site_label
_atom_site_type_symbol
_atom_site_fract_x
_atom_site_fract_y
_atom_site_fract_z
Zn1	Zn	-0.219753	1.054749	-0.442036
Zn2	Zn	0.113580	1.388082	-0.108703
Zn3	Zn	0.446913	1.721415	0.224630
Zn4	Zn	-0.291816	1.059636	-0.324791
Zn5	Zn	0.041518	1.392970	0.008542
Zn6	Zn	0.374851	1.726303	0.341875
Zn7	Zn	-0.213364	0.942520	-0.319821
Zn8	Zn	0.119970	1.275854	0.013512
Zn9	Zn	0.453303	1.609187	0.346846
Zn10	Zn	-0.291514	0.937448	-0.436994
Zn11	Zn	0.041820	1.270781	-0.103660
Zn12	Zn	0.375153	1.604115	0.229673
O13	O	-0.254112	0.998588	-0.380911
O14	O	0.079222	1.331922	-0.047577
O15	O	0.412555	1.665255	0.285756
O16	O	-0.232113	1.153501	-0.430674
O17	O	0.101220	1.486835	-0.097341
O18	O	0.434553	1.820168	0.235993
O19	O	-0.278861	1.048269	-0.226027
O20	O	0.054472	1.381602	0.107306
O21	O	0.387806	1.714936	0.440639
O22	O	-0.151347	0.957485	-0.336063
O23	O	0.181986	1.290818	-0.002730
O24	O	0.515320	1.624152	0.330603
O25	O	-0.285057	1.157092	-0.344535
O26	O	0.048276	1.490426	-0.011201
O27	O	0.381610	1.823759	0.322132
O28	O	-0.156042	1.039939	-0.425855
O29	O	0.177292	1.373272	-0.092521
O30	O	0.510625	1.706605	0.240812
O31	O	-0.221223	0.962224	-0.222376
O32	O	0.112111	1.295558	0.110958
O33	O	0.445444	1.628891	0.444291
O34	O	-0.220930	0.843743	-0.331174
O35	O	0.112403	1.177077	0.002160
O36	O	0.445737	1.510410	0.335493
O37	O	-0.284542	0.948840	-0.535767
O38	O	0.048791	1.282173	-0.202434
O39	O	0.382124	1.615506	0.130899
O40	O	-0.278346	0.840017	-0.417260
O41	O	0.054987	1.173350	-0.083927
O42	O	0.388320	1.506683	0.249407
O43	O	-0.231820	1.035020	-0.539472
O44	O	0.101513	1.368353	-0.206139
O45	O	0.434846	1.701687	0.127195
O46	O	-0.354640	1.043351	-0.339645
O47	O	-0.021306	1.376684	-0.006312
O48	O	0.312027	1.710017	0.327022
O49	O	-0.354418	0.953579	-0.422080
O50	O	-0.021084	1.286913	-0.088746
O51	O	0.312249	1.620246	0.244587
C52	C	-0.248912	0.816443	-0.373131
C53	C	0.084421	1.149776	-0.039797
C54	C	0.417754	1.483109	0.293536
C55	C	-0.246699	0.738519	-0.369819
C56	C	0.086634	1.071853	-0.036486
C57	C	0.419967	1.405186	0.296848
C58	C	-0.370830	0.998463	-0.380870
C59	C	-0.037496	1.331797	-0.047537
C60	C	0.295837	1.665130	0.285796
C61	C	-0.420765	0.998473	-0.380879
C62	C	-0.087431	1.331806	-0.047546
C63	C	0.245902	1.665140	0.285787
C64	C	-0.275595	0.699992	-0.413013
C65	C	0.057739	1.033325	-0.079680
C66	C	0.391072	1.366658	0.253653
C67	C	-0.273510	0.626774	-0.409905
C68	C	0.059824	0.960108	-0.076572
C69	C	0.393157	1.293441	0.256762
C70	C	-0.242531	0.592086	-0.363599
C71	C	0.090803	0.925419	-0.030265
C72	C	0.424136	1.258752	0.303068
C73	C	-0.213632	0.630619	-0.320403
C74	C	0.119701	0.963952	0.012931
C75	C	0.453034	1.297285	0.346264
C76	C	-0.215716	0.703835	-0.323515
C77	C	0.117618	1.037168	0.009818
C78	C	0.450951	1.370501	0.343152
C79	C	-0.234741	0.371117	-0.351966
C80	C	0.098593	0.704450	-0.018633
C81	C	0.431926	1.037783	0.314701
C82	C	-0.232660	0.297896	-0.348855
C83	C	0.100673	0.631229	-0.015522
C84	C	0.434006	0.964562	0.317811
C85	C	-0.292537	0.294056	-0.438359
C86	C	0.040796	0.627390	-0.105026
C87	C	0.374129	0.960723	0.228307
C88	C	-0.294620	0.367274	-0.441464
C89	C	0.038713	0.700607	-0.108131
C90	C	0.372047	1.033941	0.225202
C91	C	-0.265720	0.405800	-0.398271
C92	C	0.067614	0.739133	-0.064938
C93	C	0.400947	1.072467	0.268396
C94	C	-0.240400	0.517246	-0.360419
C95	C	0.092934	0.850579	-0.027085
C96	C	0.426267	1.183913	0.306248
C97	C	-0.267849	0.480639	-0.401455
C98	C	0.065484	0.813972	-0.068122
C99	C	0.398818	1.147305	0.265212
C100	C	-0.730519	1.045411	-0.338056
C101	C	-0.397185	1.378744	-0.004723
C102	C	-0.063852	1.712078	0.328611
C103	C	-0.918195	1.045496	-0.338087
C104	C	-0.584862	1.378830	-0.004753
C105	C	-0.251528	1.712163	0.328580
O106	O	-0.942551	1.085306	-0.301646
O107	O	-0.609217	1.418639	0.031688
O108	O	-0.275884	1.751972	0.365021
N109	N	-0.941559	0.998731	-0.380970
N110	N	-0.608226	1.332065	-0.047636
N111	N	-0.274892	1.665398	0.285697
C112	C	-0.918001	0.951945	-0.423851
C113	C	-0.584668	1.285278	-0.090518
C114	C	-0.251335	1.618612	0.242815
O115	O	-0.942181	0.912175	-0.460332
O116	O	-0.608847	1.245509	-0.126998
O117	O	-0.275514	1.578842	0.206335
C118	C	-0.730326	0.951864	-0.423824
C119	C	-0.396993	1.285197	-0.090490
C120	C	-0.063660	1.618530	0.242843
C121	C	-0.706964	0.998627	-0.380933
C122	C	-0.373631	1.331960	-0.047599
C123	C	-0.040298	1.665293	0.285734
C124	C	-0.707157	1.092171	-0.295169
C125	C	-0.373824	1.425504	0.038164
C126	C	-0.040490	1.758838	0.371498
C127	C	-0.660241	1.092146	-0.295159
C128	C	-0.326907	1.425480	0.038174
C129	C	0.006426	1.758813	0.371508
C130	C	-0.636686	1.045362	-0.338036
C131	C	-0.303353	1.378696	-0.004702
C132	C	0.029981	1.712029	0.328631
C133	C	-0.660048	0.998602	-0.380923
C134	C	-0.326715	1.331936	-0.047589
C135	C	0.006619	1.665269	0.285744
C136	C	-0.706770	0.905081	-0.466708
C137	C	-0.373436	1.238414	-0.133375
C138	C	-0.040103	1.571748	0.199958
C139	C	-0.659848	0.905066	-0.466699
C140	C	-0.326515	1.238399	-0.133366
C141	C	0.006819	1.571733	0.199968
C142	C	-0.636486	0.951829	-0.423808
C143	C	-0.303153	1.285163	-0.090475
C144	C	0.030181	1.618496	0.242859
C145	C	-0.589577	0.951794	-0.423789
C146	C	-0.256244	1.285127	-0.090456
C147	C	0.077090	1.618460	0.242877
N148	N	-0.566213	0.998559	-0.380906
N149	N	-0.232880	1.331892	-0.047573
N150	N	0.100454	1.665225	0.285760
C151	C	-0.589768	1.045343	-0.338030
C152	C	-0.256434	1.378676	-0.004696
C153	C	0.076899	1.712009	0.328637
C154	C	-1.016534	0.951990	-0.423862
C155	C	-0.683200	1.285323	-0.090528
C156	C	-0.349867	1.618657	0.242805
C157	C	-1.063452	0.952010	-0.423868
C158	C	-0.730119	1.285343	-0.090535
C159	C	-0.396785	1.618676	0.242799
C160	C	-1.063642	1.045562	-0.338104
C161	C	-0.730309	1.378895	-0.004771
C162	C	-0.396976	1.712229	0.328562
C163	C	-1.016723	1.045539	-0.338095
C164	C	-0.683390	1.378872	-0.004762
C165	C	-0.350056	1.712205	0.328572
C166	C	-0.993169	0.998755	-0.380979
C167	C	-0.659836	1.332088	-0.047646
C168	C	-0.326503	1.665422	0.285688
C169	C	-0.491240	1.045288	-0.338011
C170	C	-0.157906	1.378621	-0.004678
C171	C	0.175427	1.711954	0.328656
C172	C	-0.444319	1.045257	-0.338003
C173	C	-0.110986	1.378590	-0.004669
C174	C	0.222348	1.711924	0.328664
C175	C	-0.444133	0.951708	-0.423769
C176	C	-0.110799	1.285041	-0.090435
C177	C	0.222534	1.618374	0.242898
C178	C	-0.491049	0.951735	-0.423775
C179	C	-0.157716	1.285069	-0.090441
C180	C	0.175617	1.618402	0.242892
C181	C	-0.514602	0.998531	-0.380894
C182	C	-0.181268	1.331864	-0.047561
C183	C	0.152065	1.665198	0.285773
O184	O	-0.565193	0.912011	-0.460217
O185	O	-0.231860	1.245344	-0.126884
O186	O	0.101474	1.578677	0.206450
O187	O	-0.565581	1.085117	-0.301566
O188	O	-0.232248	1.418450	0.031767
O189	O	0.101086	1.751784	0.365101
C190	C	-0.777435	1.045435	-0.338066
C191	C	-0.444102	1.378769	-0.004733
C192	C	-0.110769	1.712102	0.328601
C193	C	-0.800797	0.998676	-0.380953
C194	C	-0.467464	1.332009	-0.047620
C195	C	-0.134130	1.665342	0.285714
C196	C	-0.777243	0.951891	-0.423830
C197	C	-0.443909	1.285225	-0.090496
C198	C	-0.110576	1.618558	0.242837
C199	C	-0.847716	0.998695	-0.380959
C200	C	-0.514382	1.332028	-0.047626
C201	C	-0.181049	1.665362	0.285708
C202	C	-0.871270	1.045479	-0.338082
C203	C	-0.537937	1.378812	-0.004749
C204	C	-0.204603	1.712146	0.328584
C205	C	-0.847906	1.092244	-0.295199
C206	C	-0.514573	1.425577	0.038134
C207	C	-0.181239	1.758911	0.371467
C208	C	-0.800990	1.092220	-0.295189
C209	C	-0.467656	1.425553	0.038144
C210	C	-0.134323	1.758886	0.371477
C211	C	-0.800607	0.905126	-0.466712
C212	C	-0.467273	1.238460	-0.133379
C213	C	-0.133940	1.571793	0.199954
C214	C	-0.847523	0.905154	-0.466718
C215	C	-0.514190	1.238487	-0.133385
C216	C	-0.180856	1.571821	0.199948
C217	C	-0.871078	0.951938	-0.423842
C218	C	-0.537744	1.285272	-0.090508
C219	C	-0.204411	1.618605	0.242825
C220	C	-0.136939	0.998732	-0.380967
C221	C	0.196395	1.332066	-0.047634
C222	C	0.529728	1.665399	0.285700
C223	C	-0.087007	0.998794	-0.380991
C224	C	0.246327	1.332127	-0.047658
C225	C	0.579660	1.665460	0.285676
C226	C	-0.258860	0.990819	-0.563768
C227	C	0.074473	1.324152	-0.230435
C228	C	0.407806	1.657486	0.102898
C229	C	-0.260884	0.987508	-0.641691
C230	C	0.072449	1.320841	-0.308358
C231	C	0.405783	1.654175	0.024975
C232	C	-0.259331	1.181445	-0.388721
C233	C	0.074002	1.514779	-0.055388
C234	C	0.407335	1.848112	0.277945
C235	C	-0.261556	1.259368	-0.392050
C236	C	0.071777	1.592701	-0.058716
C237	C	0.405111	1.926035	0.274617
C238	C	-0.234387	1.030820	-0.680230
C239	C	0.098947	1.364153	-0.346896
C240	C	0.432280	1.697486	-0.013563
C241	C	-0.236286	1.027700	-0.753446
C242	C	0.097047	1.361034	-0.420113
C243	C	0.430381	1.694367	-0.086780
C244	C	-0.264686	0.981272	-0.788123
C245	C	0.068648	1.314606	-0.454790
C246	C	0.401981	1.647939	-0.121457
C247	C	-0.291184	0.937956	-0.749580
C248	C	0.042149	1.271289	-0.416246
C249	C	0.375483	1.604622	-0.082913
C250	C	-0.289282	0.941072	-0.676364
C251	C	0.044051	1.274405	-0.343031
C252	C	0.377385	1.607739	-0.009698
C253	C	-0.271800	0.969615	-1.009090
C254	C	0.061533	1.302948	-0.675757
C255	C	0.394867	1.636281	-0.342423
C256	C	-0.273701	0.966503	-1.082311
C257	C	0.059632	1.299836	-0.748977
C258	C	0.392966	1.633170	-0.415644
C259	C	-0.218802	1.056247	-1.086172
C260	C	0.114531	1.389580	-0.752839
C261	C	0.447865	1.722914	-0.419506
C262	C	-0.216905	1.059362	-1.012955
C263	C	0.116429	1.392696	-0.679622
C264	C	0.449762	1.726029	-0.346289
C265	C	-0.243401	1.016043	-0.974418
C266	C	0.089932	1.349377	-0.641085
C267	C	0.423265	1.682710	-0.307751
C268	C	-0.266629	0.978084	-0.862963
C269	C	0.066704	1.311417	-0.529629
C270	C	0.400038	1.644751	-0.196296
C271	C	-0.241455	1.019228	-0.899580
C272	C	0.091878	1.352562	-0.566247
C273	C	0.425211	1.685895	-0.232913
C274	C	-0.249350	1.006368	-0.198766
C275	C	0.083983	1.339701	0.134567
C276	C	0.417317	1.673035	0.467901
C277	C	-0.247204	1.009815	-0.120849
C278	C	0.086130	1.343148	0.212484
C279	C	0.419463	1.676481	0.545817
H280	H	-0.297040	0.595408	-0.445078
H281	H	0.036294	0.928742	-0.111744
H282	H	0.369627	1.262075	0.221589
H283	H	-0.510072	0.913659	-0.458702
H284	H	-0.176738	1.246992	-0.125369
H285	H	0.156595	1.580326	0.207964
N286	N	-0.419121	1.095702	-0.291747
N287	N	-0.085788	1.429036	0.041586
N288	N	0.247545	1.762369	0.374919
H289	H	-0.398027	1.068614	-0.258013
H290	H	-0.064693	1.401948	0.075321
H291	H	0.268640	1.735281	0.408654
H292	H	-0.441195	1.125333	-0.264637
H293	H	-0.107861	1.458667	0.068696
H294	H	0.225472	1.792000	0.402029
N295	N	-0.190218	1.102955	-1.127739
N296	N	0.143115	1.436288	-0.794405
N297	N	0.476449	1.769621	-0.461072
H298	H	-0.171938	1.132837	-1.094661
H299	H	0.161396	1.466170	-0.761327
H300	H	0.494729	1.799504	-0.427994
H301	H	-0.210216	1.134085	-1.159498
H302	H	0.123117	1.467418	-0.826164
H303	H	0.456450	1.800752	-0.492831
N304	N	-0.210829	1.069309	-0.862184
N305	N	0.122505	1.402642	-0.528850
N306	N	0.455838	1.735976	-0.195517
H307	H	-0.219572	1.118846	-0.877067
H308	H	0.113761	1.452179	-0.543734
H309	H	0.447095	1.785512	-0.210401
H310	H	-0.178761	1.057866	-0.874486
H311	H	0.154573	1.391200	-0.541153
H312	H	0.487906	1.724533	-0.207820
N313	N	-0.321805	0.887871	-0.786989
N314	N	0.011528	1.221205	-0.453655
N315	N	0.344861	1.554538	-0.120322
H316	H	-0.344227	0.915037	-0.818578
H317	H	-0.010893	1.248371	-0.485244
H318	H	0.322440	1.581704	-0.151911
H319	H	-0.338272	0.860909	-0.751426
H320	H	-0.004938	1.194242	-0.418093
H321	H	0.328395	1.527575	-0.084759
H322	H	-0.211211	0.402476	-0.316789
H323	H	0.122122	0.735810	0.016544
H324	H	0.455455	1.069143	0.349877
H325	H	-0.867092	1.130336	-0.260286
H326	H	-0.533759	1.463669	0.073048
H327	H	-0.200426	1.797002	0.406381
N328	N	-0.775796	1.142661	-0.248933
N329	N	-0.442462	1.475995	0.084401
N330	N	-0.109129	1.809328	0.417734
H331	H	-0.797843	1.172300	-0.221778
H332	H	-0.464509	1.505634	0.111556
H333	H	-0.131176	1.838967	0.444889
H334	H	-0.757969	1.173861	-0.278879
H335	H	-0.424635	1.507194	0.054454
H336	H	-0.091302	1.840527	0.387788
N337	N	-0.516639	1.095759	-0.291763
N338	N	-0.183305	1.429092	0.041570
N339	N	0.150028	1.762426	0.374904
H340	H	-0.494714	1.125373	-0.264595
H341	H	-0.161380	1.458706	0.068738
H342	H	0.171953	1.792040	0.402071
H343	H	-0.534476	1.068639	-0.258080
H344	H	-0.201143	1.401972	0.075253
H345	H	0.132190	1.735306	0.408587
N346	N	-0.418723	0.901245	-0.470008
N347	N	-0.085390	1.234578	-0.136675
N348	N	0.247944	1.567911	0.196659
H349	H	-0.385456	0.908331	-0.463491
H350	H	-0.052123	1.241664	-0.130158
H351	H	0.281211	1.574998	0.203176
H352	H	-0.428513	0.909993	-0.520553
H353	H	-0.095179	1.243326	-0.187219
H354	H	0.238154	1.576659	0.146114
N355	N	-0.301264	0.518051	-0.451392
N356	N	0.032069	0.851384	-0.118059
N357	N	0.365403	1.184717	0.215275
H358	H	-0.319257	0.482537	-0.478284
H359	H	0.014077	0.815870	-0.144951
H360	H	0.347410	1.149203	0.188382
H361	H	-0.284720	0.547075	-0.485181
H362	H	0.048614	0.880408	-0.151848
H363	H	0.381947	1.213741	0.181486
N364	N	-0.872718	0.854707	-0.512976
N365	N	-0.539384	1.188040	-0.179642
N366	N	-0.206051	1.521374	0.153691
H367	H	-0.850672	0.825069	-0.540134
H368	H	-0.517339	1.158402	-0.206801
H369	H	-0.184006	1.491735	0.126533
H370	H	-0.893812	0.881847	-0.546666
H371	H	-0.560479	1.215180	-0.213333
H372	H	-0.227145	1.548514	0.120000
H373	H	-0.781432	0.867030	-0.501629
H374	H	-0.448099	1.200363	-0.168296
H375	H	-0.114766	1.533696	0.165038
N376	N	-0.207704	1.074422	-0.795001
N377	N	0.125629	1.407756	-0.461667
N378	N	0.458963	1.741089	-0.128334
H379	H	-0.227674	1.105596	-0.826761
H380	H	0.105659	1.438929	-0.493428
H381	H	0.438992	1.772263	-0.160095
H382	H	-0.186860	1.044622	-0.824123
H383	H	0.146473	1.377955	-0.490790
H384	H	0.479806	1.711288	-0.157456
N385	N	-0.184546	0.745387	-0.276928
N386	N	0.148787	1.078720	0.056405
N387	N	0.482120	1.412053	0.389739
H388	H	-0.189808	0.734759	-0.226274
H389	H	0.143526	1.068092	0.107059
H390	H	0.476859	1.401425	0.440393
H391	H	-0.190579	0.797017	-0.285985
H392	H	0.142754	1.130351	0.047348
H393	H	0.476088	1.463684	0.380682
N394	N	-0.991531	1.095984	-0.291840
N395	N	-0.658198	1.429317	0.041494
N396	N	-0.324864	1.762651	0.374827
H397	H	-0.973705	1.127232	-0.321741
H398	H	-0.640372	1.460565	0.011592
H399	H	-0.307038	1.793898	0.344926
H400	H	-0.970458	1.068850	-0.258114
H401	H	-0.637125	1.402183	0.075219
H402	H	-0.303791	1.735516	0.408553
N403	N	-0.309011	0.737403	-0.462954
N404	N	0.024323	1.070737	-0.129620
N405	N	0.357656	1.404070	0.203713
H406	H	-0.326999	0.701883	-0.489846
H407	H	0.006335	1.035217	-0.156512
H408	H	0.339668	1.368550	0.176821
H409	H	-0.292466	0.766427	-0.496742
H410	H	0.040867	1.099761	-0.163409
H411	H	0.374201	1.433094	0.169924
N412	N	-0.304335	0.916427	-1.119715
N413	N	0.028998	1.249761	-0.786382
N414	N	0.362332	1.583094	-0.453049
H415	H	-0.320832	0.889457	-1.084193
H416	H	0.012501	1.222790	-0.750859
H417	H	0.345835	1.556123	-0.417526
H418	H	-0.285911	0.882718	-1.148718
H419	H	0.047422	1.216051	-0.815385
H420	H	0.380756	1.549385	-0.482051
H421	H	-0.211262	1.068629	-0.652001
H422	H	0.122071	1.401962	-0.318668
H423	H	0.455405	1.735295	0.014665
N424	N	-0.300383	0.922887	-0.967549
N425	N	0.032950	1.256220	-0.634216
N426	N	0.366283	1.589553	-0.300883
H427	H	-0.321230	0.952631	-0.938377
H428	H	0.012103	1.285965	-0.605044
H429	H	0.345436	1.619298	-0.271710
H430	H	-0.280382	0.891712	-0.935837
H431	H	0.052951	1.225046	-0.602504
H432	H	0.386284	1.558379	-0.269171
N433	N	-0.635047	1.142594	-0.248909
N434	N	-0.301714	1.475927	0.084424
N435	N	0.031620	1.809261	0.417758
H436	H	-0.657094	1.172235	-0.221756
H437	H	-0.323761	1.505568	0.111577
H438	H	0.009573	1.838902	0.444910
H439	H	-0.617222	1.173791	-0.278862
H440	H	-0.283889	1.507124	0.054472
H441	H	0.049445	1.840458	0.387805
H442	H	-0.188407	0.602369	-0.282702
H443	H	0.144927	0.935703	0.050631
H444	H	0.478260	1.269036	0.383965
N445	N	-0.317857	0.894351	-0.634794
N446	N	0.015477	1.227685	-0.301461
N447	N	0.348810	1.561018	0.031873
H448	H	-0.336136	0.864465	-0.667870
H449	H	-0.002803	1.197799	-0.334537
H450	H	0.330531	1.531132	-0.001203
H451	H	-0.338672	0.924149	-0.605622
H452	H	-0.005339	1.257483	-0.272289
H453	H	0.327994	1.590816	0.061044
N454	N	-0.732558	1.142636	-0.248920
N455	N	-0.399224	1.475969	0.084413
N456	N	-0.065891	1.809303	0.417746
H457	H	-0.710632	1.172250	-0.221756
H458	H	-0.377299	1.505584	0.111578
H459	H	-0.043965	1.838917	0.444911
H460	H	-0.750392	1.115514	-0.215235
H461	H	-0.417059	1.448847	0.118098
H462	H	-0.083726	1.782180	0.451431
H463	H	-0.193780	1.097171	-0.984727
H464	H	0.139553	1.430504	-0.651393
H465	H	0.472887	1.763838	-0.318060
H466	H	-0.319847	0.395512	-0.479171
H467	H	0.013486	0.728845	-0.145837
H468	H	0.346820	1.062179	0.187496
N469	N	-0.323707	0.252504	-0.484944
N470	N	0.009627	0.585837	-0.151611
N471	N	0.342960	0.919171	0.181722
H472	H	-0.317688	0.200858	-0.475948
H473	H	0.015646	0.534192	-0.142615
H474	H	0.348979	0.867525	0.190718
H475	H	-0.318429	0.263192	-0.535578
H476	H	0.014904	0.596525	-0.202244
H477	H	0.348237	0.929859	0.131089
H478	H	-0.207429	0.269654	-0.311151
H479	H	0.125905	0.602988	0.022182
H480	H	0.459238	0.936321	0.355515
H481	H	-0.640673	0.866970	-0.501623
H482	H	-0.307340	1.200303	-0.168289
H483	H	0.025994	1.533636	0.165044
N484	N	-0.297258	0.928017	-0.900380
N485	N	0.036075	1.261350	-0.567046
N486	N	0.369409	1.594683	-0.233713
H487	H	-0.329338	0.939404	-0.888099
H488	H	0.003996	1.272738	-0.554765
H489	H	0.337329	1.606071	-0.221432
H490	H	-0.288484	0.878494	-0.885491
H491	H	0.044849	1.211828	-0.552157
H492	H	0.378183	1.545161	-0.218824
H493	H	-1.082829	1.083656	-0.303192
H494	H	-0.749495	1.416989	0.030141
H495	H	-0.416162	1.750322	0.363474
H496	H	-0.997359	0.913892	-0.458784
H497	H	-0.664026	1.247225	-0.125451
H498	H	-0.330693	1.580558	0.207883
N499	N	-0.206993	0.479829	-0.310466
N500	N	0.126340	0.813163	0.022867
N501	N	0.459673	1.146496	0.356200
H502	H	-0.189004	0.515343	-0.283569
H503	H	0.144329	0.848677	0.049765
H504	H	0.477663	1.182010	0.383098
H505	H	-0.186110	0.448264	-0.337772
H506	H	0.147223	0.781597	-0.004439
H507	H	0.480556	1.114930	0.328895
N508	N	-1.088646	0.901561	-0.470116
N509	N	-0.755313	1.234894	-0.136782
N510	N	-0.421980	1.568228	0.196551
H511	H	-1.066601	0.871923	-0.497275
H512	H	-0.733268	1.205257	-0.163942
H513	H	-0.399934	1.538590	0.169392
H514	H	-1.109744	0.928696	-0.503806
H515	H	-0.776410	1.262029	-0.170473
H516	H	-0.443077	1.595362	0.162860
H517	H	-0.725783	0.866998	-0.501631
H518	H	-0.392449	1.200332	-0.168298
H519	H	-0.059116	1.533665	0.165035
