data_functionalizedCrystal
_audit_creation_method	'MofGen! by Chris Wilmer'
_symmetry_space_group_name_H-M	'P1'
_symmetry_Int_Tables_number	1
_symmetry_cell_setting	triclinic
loop_
_symmetry_equiv_pos_as_xyz
  x,y,z
_cell_length_a	14.519709
_cell_length_b	8.597340
_cell_length_c	7.088929
_cell_angle_alpha	76.045281
_cell_angle_beta	96.236165
_cell_angle_gamma	84.511855
loop_
_atom_site_label
_atom_site_type_symbol
_atom_site_fract_x
_atom_site_fract_y
_atom_site_fract_z
O1	O	0.126656	2.101728	-0.187226
O2	O	0.141710	1.637088	-0.110681
O3	O	-0.000078	1.881729	-0.151001
O4	O	0.268444	1.857087	-0.146907
O5	O	-0.019070	1.914423	-0.474364
O6	O	0.122719	1.669782	-0.434045
O7	O	0.107664	2.134422	-0.510590
Cu8	Cu	0.113458	1.905087	-0.501843
Cu9	Cu	0.135917	1.866423	-0.119428
O10	O	0.249453	1.889781	-0.470270
C11	C	0.131656	1.593970	-0.262567
C12	C	0.129980	1.416784	-0.233378
C13	C	-0.043932	1.896928	-0.312494
C14	C	-0.146307	1.893487	-0.311928
C15	C	-0.521177	1.880814	-0.309790
C16	C	-0.416877	1.884333	-0.310385
C17	C	-0.333746	1.887150	-0.310861
C18	C	-0.229438	1.890670	-0.311452
C19	C	0.293306	1.874582	-0.308773
C20	C	0.395682	1.878021	-0.309326
C21	C	0.117719	2.177539	-0.358700
C22	C	0.119396	2.354724	-0.387876
N23	N	0.097660	1.932293	-0.770815
N24	N	0.151707	1.839230	0.149542
H25	H	0.137760	1.334354	-0.078757
C26	C	0.021995	2.062600	-0.902587
H27	H	0.023076	2.060738	-1.035787
H28	H	0.033808	2.165840	-0.886857
H29	H	-0.037587	2.041587	-0.866426
H30	H	0.207716	1.742780	-0.752916
C31	C	0.108884	1.466059	-0.596746
H32	H	0.111432	1.574536	-0.589631
H33	H	0.050618	1.458189	-0.666723
H34	H	0.158136	1.434157	-0.662735
