data_functionalizedCrystal
_audit_creation_method	'MofGen! by Chris Wilmer'
_symmetry_space_group_name_H-M	'P1'
_symmetry_Int_Tables_number	1
_symmetry_cell_setting	triclinic
loop_
_symmetry_equiv_pos_as_xyz
  x,y,z
_cell_length_a	14.908795
_cell_length_b	14.908520
_cell_length_c	14.908791
_cell_angle_alpha	83.236714
_cell_angle_beta	96.783856
_cell_angle_gamma	96.791092
loop_
_atom_site_label
_atom_site_type_symbol
_atom_site_fract_x
_atom_site_fract_y
_atom_site_fract_z
Zn1	Zn	1.396097	-0.314043	0.608884
Zn2	Zn	1.379464	-0.457546	0.465341
Zn3	Zn	1.236034	-0.314009	0.448789
Zn4	Zn	1.235954	-0.474083	0.608811
O5	O	1.311887	-0.389920	0.532956
O6	O	1.520937	-0.326172	0.596800
O7	O	1.353510	-0.431570	0.336102
O8	O	1.264261	-0.186966	0.463130
O9	O	1.508717	-0.431603	0.491340
O10	O	1.381859	-0.186991	0.580751
O11	O	1.248133	-0.326114	0.323942
O12	O	1.108976	-0.342150	0.463059
O13	O	1.264124	-0.459789	0.735864
O14	O	1.108917	-0.459756	0.580627
O15	O	1.381781	-0.342208	0.735918
O16	O	1.353433	-0.586788	0.491269
O17	O	1.247996	-0.598938	0.596676
C18	C	1.076005	-0.402745	0.520040
C19	C	0.975094	-0.408254	0.514537
C20	C	1.298926	-0.625804	0.545782
C21	C	1.293466	-0.726714	0.551304
C22	C	0.826503	-0.470809	0.451778
C23	C	0.921318	-0.465637	0.456948
C24	C	0.934048	-0.356038	0.566956
C25	C	0.839233	-0.361211	0.561786
C26	C	0.785464	-0.418599	0.504196
C27	C	0.690647	-0.423777	0.499031
C28	C	0.703378	-0.314174	0.609033
C29	C	0.798193	-0.309001	0.614204
C30	C	1.393122	-0.903619	0.452019
C31	C	1.387995	-0.998432	0.457205
C32	C	1.278090	-1.011154	0.566864
C33	C	1.283217	-0.916341	0.561679
C34	C	1.340734	-0.862577	0.504253
C35	C	1.345856	-0.767762	0.499064
C36	C	1.235957	-0.780486	0.608727
C37	C	1.230830	-0.875299	0.613913
C38	C	1.548690	-0.377047	0.545924
C39	C	1.649601	-0.371561	0.551450
C40	C	1.324799	-0.402847	0.769753
C41	C	1.330301	-0.408356	0.870661
C42	C	1.324924	-0.153115	0.520102
C43	C	1.330480	-0.052203	0.514624
C44	C	1.230890	-0.308899	1.047617
C45	C	1.236057	-0.314072	1.142429
C46	C	1.345797	-0.423879	1.155099
C47	C	1.340630	-0.418706	1.060287
C48	C	1.283175	-0.361213	1.006549
C49	C	1.278014	-0.356036	0.911735
C50	C	1.387749	-0.465847	0.924407
C51	C	1.392916	-0.471020	1.019219
C52	C	1.299016	-0.377065	1.297082
C53	C	1.293509	-0.371559	1.196173
H54	H	0.646869	-0.470508	0.452141
H55	H	1.193296	-0.747060	0.651257
Cl56	Cl	1.158530	-0.942897	0.686103
Cl57	Cl	0.758905	-0.542971	0.379400
Cl58	Cl	0.865797	-0.236860	0.686599
H59	H	1.193480	-0.271473	1.175862
Cl60	Cl	1.205789	-0.283758	0.844180
Cl61	Cl	1.453485	-0.531615	0.872774
Cl62	Cl	0.972908	-0.531272	0.391046
Cl63	Cl	1.158674	-0.236615	0.980057
H64	H	1.392560	-0.470699	1.198869
H65	H	0.977843	-0.309310	0.613838
Cl66	Cl	1.465412	-0.836026	0.379816
H67	H	1.439690	-0.517832	1.062986
H68	H	1.392687	-0.723987	0.452303
Cl69	Cl	0.651781	-0.248537	0.674937
H70	H	1.430656	-1.031844	0.414672
H71	H	1.231269	-1.054946	0.613623
