data_functionalizedCrystal
_audit_creation_method	'MofGen! by Chris Wilmer'
_symmetry_space_group_name_H-M	'P1'
_symmetry_Int_Tables_number	1
_symmetry_cell_setting	triclinic
loop_
_symmetry_equiv_pos_as_xyz
  x,y,z
_cell_length_a	21.295417
_cell_length_b	16.625547
_cell_length_c	16.625539
_cell_angle_alpha	90.027058
_cell_angle_beta	89.966627
_cell_angle_gamma	89.970308
loop_
_atom_site_label
_atom_site_type_symbol
_atom_site_fract_x
_atom_site_fract_y
_atom_site_fract_z
Zn1	Zn	-0.250622	-1.232635	-0.456021
Zn2	Zn	0.082712	-0.899302	-0.122687
Zn3	Zn	0.416045	-0.565969	0.210646
Zn4	Zn	-0.355895	-1.232520	-0.321176
Zn5	Zn	-0.022562	-0.899186	0.012158
Zn6	Zn	0.310772	-0.565853	0.345491
Zn7	Zn	-0.250642	-1.097797	-0.321186
Zn8	Zn	0.082691	-0.764464	0.012148
Zn9	Zn	0.416024	-0.431131	0.345481
Zn10	Zn	-0.355855	-1.097749	-0.455950
Zn11	Zn	-0.022522	-0.764415	-0.122617
Zn12	Zn	0.310811	-0.431082	0.210716
O13	O	-0.303254	-1.165175	-0.388583
O14	O	0.030080	-0.831842	-0.055250
O15	O	0.363413	-0.498509	0.278084
O16	O	-0.264594	-1.345452	-0.438158
O17	O	0.068739	-1.012119	-0.104825
O18	O	0.402072	-0.678786	0.228508
O19	O	-0.341958	-1.214620	-0.208345
O20	O	-0.008625	-0.881287	0.124989
O21	O	0.324708	-0.547954	0.458322
O22	O	-0.162550	-1.115753	-0.339105
O23	O	0.170783	-0.782419	-0.005772
O24	O	0.504117	-0.449086	0.327561
O25	O	-0.341938	-1.345367	-0.339088
O26	O	-0.008605	-1.012034	-0.005755
O27	O	0.324728	-0.678701	0.327578
O28	O	-0.162535	-1.214818	-0.438168
O29	O	0.170798	-0.881484	-0.104835
O30	O	0.504132	-0.548151	0.228499
O31	O	-0.264629	-1.115640	-0.208352
O32	O	0.068704	-0.782307	0.124981
O33	O	0.402037	-0.448974	0.458315
O34	O	-0.264591	-0.984958	-0.339037
O35	O	0.068742	-0.651625	-0.005704
O36	O	0.402076	-0.318292	0.327629
O37	O	-0.341871	-1.115670	-0.568792
O38	O	-0.008538	-0.782337	-0.235459
O39	O	0.324796	-0.449003	0.097874
O40	O	-0.341891	-0.984923	-0.438048
O41	O	-0.008557	-0.651590	-0.104715
O42	O	0.324776	-0.318256	0.228618
O43	O	-0.264556	-1.214771	-0.568844
O44	O	0.068777	-0.881437	-0.235510
O45	O	0.402111	-0.548104	0.097823
O46	O	-0.443979	-1.214573	-0.339020
O47	O	-0.110646	-0.881240	-0.005687
O48	O	0.222687	-0.547907	0.327646
O49	O	-0.443950	-1.115558	-0.438039
O50	O	-0.110617	-0.782224	-0.104705
O51	O	0.222717	-0.448891	0.228628
C52	C	-0.303239	-0.955684	-0.388537
C53	C	0.030094	-0.622351	-0.055204
C54	C	0.363427	-0.289018	0.278130
C55	C	-0.303248	-0.866063	-0.388536
C56	C	0.030085	-0.532730	-0.055203
C57	C	0.363418	-0.199397	0.278130
C58	C	-0.303249	-0.793281	-0.388543
C59	C	0.030085	-0.459948	-0.055210
C60	C	0.363418	-0.126614	0.278123
C61	C	-0.303251	-0.701972	-0.388560
C62	C	0.030082	-0.368639	-0.055227
C63	C	0.363416	-0.035306	0.278107
C64	C	-0.303256	-0.629196	-0.388578
C65	C	0.030077	-0.295863	-0.055244
C66	C	0.363410	0.037471	0.278089
C67	C	-0.303260	-0.537882	-0.388593
C68	C	0.030074	-0.204548	-0.055260
C69	C	0.363407	0.128785	0.278073
C70	C	-0.466805	-1.165070	-0.388538
C71	C	-0.133472	-0.831736	-0.055205
C72	C	0.199861	-0.498403	0.278128
C73	C	-0.536773	-1.165098	-0.388546
C74	C	-0.203440	-0.831765	-0.055213
C75	C	0.129893	-0.498431	0.278120
C76	C	-0.569634	-1.216701	-0.337040
C77	C	-0.236301	-0.883368	-0.003707
C78	C	0.097032	-0.550035	0.329626
C79	C	-0.635377	-1.216739	-0.337058
C80	C	-0.302043	-0.883406	-0.003725
C81	C	0.031290	-0.550073	0.329608
C82	C	-0.668256	-1.165159	-0.388574
C83	C	-0.334923	-0.831826	-0.055241
C84	C	-0.001589	-0.498493	0.278093
C85	C	-0.635387	-1.113552	-0.440090
C86	C	-0.302054	-0.780219	-0.106757
C87	C	0.031280	-0.446886	0.226576
C88	C	-0.569646	-1.113522	-0.440076
C89	C	-0.236312	-0.780189	-0.106743
C90	C	0.097021	-0.446855	0.226590
N91	N	-0.771521	-1.094624	-0.394705
N92	N	-0.438187	-0.761291	-0.061372
N93	N	-0.104854	-0.427958	0.271961
N94	N	-0.833972	-1.094656	-0.394714
N95	N	-0.500639	-0.761322	-0.061381
N96	N	-0.167305	-0.427989	0.271953
C97	C	-0.866331	-1.165250	-0.388620
C98	C	-0.532997	-0.831916	-0.055287
C99	C	-0.199664	-0.498583	0.278046
N100	N	-0.833878	-1.235813	-0.382502
N101	N	-0.500545	-0.902479	-0.049169
N102	N	-0.167212	-0.569146	0.284164
N103	N	-0.771421	-1.235780	-0.382490
N104	N	-0.438088	-0.902447	-0.049156
N105	N	-0.104754	-0.569114	0.284177
C106	C	-0.739541	-1.165187	-0.388595
C107	C	-0.406208	-0.831854	-0.055262
C108	C	-0.072875	-0.498520	0.278071
C109	C	-0.970477	-1.216898	-0.337131
C110	C	-0.637144	-0.883565	-0.003798
C111	C	-0.303810	-0.550232	0.329535
C112	C	-1.036221	-1.216937	-0.337155
C113	C	-0.702887	-0.883604	-0.003822
C114	C	-0.369554	-0.550271	0.329512
C115	C	-1.036230	-1.113743	-0.440183
C116	C	-0.702896	-0.780410	-0.106849
C117	C	-0.369563	-0.447077	0.226484
C118	C	-0.970487	-1.113712	-0.440163
C119	C	-0.637154	-0.780378	-0.106830
C120	C	-0.303821	-0.447045	0.226504
C121	C	-0.937615	-1.165288	-0.388633
C122	C	-0.604281	-0.831954	-0.055300
C123	C	-0.270948	-0.498621	0.278034
C124	C	-0.139063	-1.165303	-0.388646
C125	C	0.194270	-0.831970	-0.055312
C126	C	0.527603	-0.498637	0.278021
C127	C	-0.069095	-1.165358	-0.388672
C128	C	0.264238	-0.832025	-0.055339
C129	C	0.597571	-0.498691	0.277994
C130	C	-0.303207	-1.165228	-0.598892
C131	C	0.030127	-0.831894	-0.265559
C132	C	0.363460	-0.498561	0.067775
C133	C	-0.303187	-1.165250	-0.688513
C134	C	0.030147	-0.831917	-0.355180
C135	C	0.363480	-0.498583	-0.021847
C136	C	-0.303266	-0.375484	-0.388620
C137	C	0.030067	-0.042151	-0.055287
C138	C	0.363401	0.291182	0.278046
C139	C	-0.303265	-0.465105	-0.388611
C140	C	0.030069	-0.131772	-0.055278
C141	C	0.363402	0.201561	0.278056
C142	C	-0.303116	-1.165287	-1.016689
C143	C	0.030217	-0.831954	-0.683356
C144	C	0.363550	-0.498621	-0.350023
C145	C	-0.303138	-1.165275	-0.925381
C146	C	0.030195	-0.831941	-0.592047
C147	C	0.363529	-0.498608	-0.258714
C148	C	-0.303152	-1.165269	-0.852604
C149	C	0.030181	-0.831936	-0.519271
C150	C	0.363515	-0.498602	-0.185937
C151	C	-0.303173	-1.165256	-0.761290
C152	C	0.030161	-0.831922	-0.427956
C153	C	0.363494	-0.498589	-0.094623
C154	C	-0.303255	-1.165170	-0.179092
C155	C	0.030078	-0.831836	0.154241
C156	C	0.363412	-0.498503	0.487574
C157	C	-0.303098	-1.165303	-0.089472
C158	C	0.030236	-0.831970	0.243862
C159	C	0.363569	-0.498637	0.577195
H160	H	-0.542871	-1.258700	-0.295084
H161	H	-0.209538	-0.925366	0.038250
H162	H	0.123795	-0.592033	0.371583
Cl163	Cl	-1.077557	-1.048905	-0.504952
Cl164	Cl	-0.744224	-0.715572	-0.171618
Cl165	Cl	-0.410891	-0.382238	0.161715
H166	H	-0.662137	-1.258764	-0.295116
H167	H	-0.328804	-0.925430	0.038217
H168	H	0.004529	-0.592097	0.371550
H169	H	-0.542890	-1.071500	-0.482020
H170	H	-0.209557	-0.738166	-0.148686
H171	H	0.123777	-0.404833	0.184647
H172	H	-0.943711	-1.258897	-0.295175
H173	H	-0.610378	-0.925564	0.038158
H174	H	-0.277044	-0.592231	0.371492
Cl175	Cl	-1.077532	-1.281822	-0.272404
Cl176	Cl	-0.744199	-0.948489	0.060929
Cl177	Cl	-0.410866	-0.615156	0.394262
H178	H	-0.662161	-1.071557	-0.482036
H179	H	-0.328828	-0.738224	-0.148703
H180	H	0.004505	-0.404891	0.184631
Cl181	Cl	-0.929174	-1.048831	-0.504914
Cl182	Cl	-0.595841	-0.715498	-0.171580
Cl183	Cl	-0.262507	-0.382164	0.161753
