data_functionalizedCrystal
_audit_creation_method	'MofGen! by Chris Wilmer'
_symmetry_space_group_name_H-M	'P1'
_symmetry_Int_Tables_number	1
_symmetry_cell_setting	triclinic
loop_
_symmetry_equiv_pos_as_xyz
  x,y,z
_cell_length_a	14.908783
_cell_length_b	25.639240
_cell_length_c	25.639234
_cell_angle_alpha	90.028287
_cell_angle_beta	93.311709
_cell_angle_gamma	93.323035
loop_
_atom_site_label
_atom_site_type_symbol
_atom_site_fract_x
_atom_site_fract_y
_atom_site_fract_z
Zn1	Zn	1.379104	-0.162152	0.341789
Zn2	Zn	1.378993	-0.249579	0.254339
Zn3	Zn	1.228258	-0.167192	0.249314
Zn4	Zn	1.228172	-0.254598	0.336690
O5	O	1.303632	-0.208380	0.295533
O6	O	1.505338	-0.169540	0.334425
O7	O	1.358988	-0.238658	0.180506
O8	O	1.248349	-0.093356	0.261612
O9	O	1.505257	-0.233771	0.270176
O10	O	1.359175	-0.089653	0.329553
O11	O	1.248243	-0.178129	0.176815
O12	O	1.101997	-0.182997	0.256667
O13	O	1.248204	-0.242327	0.410532
O14	O	1.101935	-0.247214	0.320862
O15	O	1.359092	-0.174407	0.414278
O16	O	1.358905	-0.323412	0.265232
O17	O	1.248097	-0.327101	0.325735
C18	C	1.069231	-0.216197	0.287666
C19	C	0.968953	-0.219554	0.284314
C20	C	0.780604	-0.159069	0.345018
C21	C	0.686384	-0.162221	0.341870
C22	C	0.686293	-0.229007	0.274866
C23	C	0.780512	-0.225855	0.278014
C24	C	0.827664	-0.190885	0.313092
C25	C	0.921886	-0.187736	0.316243
C26	C	0.921793	-0.254520	0.249237
C27	C	0.827573	-0.257672	0.246088
C28	C	1.303504	-0.344227	0.295487
C29	C	1.303532	-0.402340	0.295488
C30	C	1.361367	-0.760733	0.330971
C31	C	1.361394	-0.815336	0.330983
O32	O	1.410416	-0.841902	0.361104
N33	N	1.303757	-0.844615	0.295587
C34	C	1.246083	-0.819289	0.260182
O35	O	1.197060	-0.849207	0.230077
C36	C	1.246052	-0.764686	0.260173
C37	C	1.303700	-0.735410	0.295567
C38	C	1.419009	-0.731456	0.366362
C39	C	1.418984	-0.676856	0.366350
C40	C	1.361316	-0.651533	0.330946
C41	C	1.303674	-0.680810	0.295555
C42	C	1.188375	-0.739361	0.224771
C43	C	1.188348	-0.684755	0.224766
C44	C	1.245996	-0.655478	0.260160
C45	C	1.245981	-0.600887	0.260139
N46	N	1.303618	-0.571608	0.295534
C47	C	1.361286	-0.596931	0.330938
C48	C	1.246150	-0.933957	0.260203
C49	C	1.246185	-0.988558	0.260209
C50	C	1.361495	-0.984602	0.331010
C51	C	1.361464	-0.930000	0.331002
C52	C	1.303787	-0.904678	0.295599
C53	C	1.361228	-0.482268	0.330909
C54	C	1.361200	-0.427663	0.330892
C55	C	1.245887	-0.431625	0.260093
C56	C	1.245918	-0.486224	0.260108
C57	C	1.303591	-0.511544	0.295520
O58	O	1.196981	-0.574285	0.230034
O59	O	1.410292	-0.567007	0.361042
C60	C	1.538947	-0.200533	0.303430
C61	C	1.639225	-0.197189	0.306795
C62	C	1.303651	-0.208365	0.431906
C63	C	1.303659	-0.208358	0.490021
C64	C	1.303784	-0.072002	0.295590
C65	C	1.303849	-0.013886	0.295615
C66	C	1.303664	-0.208356	0.159691
C67	C	1.303831	-0.208210	0.101583
C68	C	1.245980	-0.243656	0.739260
C69	C	1.245964	-0.243669	0.684655
O70	O	1.196836	-0.273735	0.654754
N71	N	1.303693	-0.208315	0.659296
C72	C	1.361436	-0.172943	0.688544
O73	O	1.410538	-0.142873	0.661960
C74	C	1.361447	-0.172929	0.743148
C75	C	1.303720	-0.208288	0.768504
C76	C	1.188256	-0.279013	0.764617
C77	C	1.188274	-0.279001	0.819218
C78	C	1.246014	-0.243633	0.848462
C79	C	1.303737	-0.208277	0.823106
C80	C	1.419185	-0.137555	0.772395
C81	C	1.419190	-0.137543	0.827002
C82	C	1.361463	-0.172903	0.852359
C83	C	1.361495	-0.172897	0.906951
N84	N	1.303765	-0.208250	0.932310
C85	C	1.246025	-0.243618	0.903066
C86	C	1.361409	-0.172975	0.573873
C87	C	1.361403	-0.172992	0.519270
C88	C	1.245929	-0.243717	0.515385
C89	C	1.245940	-0.243703	0.569988
C90	C	1.303679	-0.208329	0.599232
C91	C	1.246066	-0.243591	1.017732
C92	C	1.246091	-0.243578	1.072339
C93	C	1.361561	-0.172851	1.076219
C94	C	1.361540	-0.172866	1.021618
C95	C	1.303785	-0.208238	0.992376
O96	O	1.410594	-0.142844	0.936886
O97	O	1.196923	-0.273679	0.929657
H98	H	0.648070	-0.136311	0.367866
O99	O	0.967369	-0.285482	0.218199
C100	C	0.905543	-0.317011	0.186555
H101	H	0.838389	-0.321096	0.205722
H102	H	0.895518	-0.298145	0.146547
C103	C	1.024742	-0.366402	0.156601
C104	C	0.942265	-0.371423	0.180145
H105	H	1.047394	-0.399965	0.152645
H106	H	1.066396	-0.345159	0.177919
H107	H	1.016377	-0.350678	0.123264
H108	H	0.950633	-0.387140	0.213484
H109	H	0.900612	-0.392670	0.158833
H110	H	1.198984	-0.510062	0.231283
O111	O	1.417551	-0.138687	0.602338
C112	C	1.475813	-0.166502	0.635860
H113	H	1.443951	-0.207184	0.642967
H114	H	1.542657	-0.170025	0.617054
C115	C	1.531332	-0.087204	0.679552
C116	C	1.492196	-0.137169	0.688284
H117	H	1.541442	-0.069110	0.711889
H118	H	1.492083	-0.068464	0.656967
H119	H	1.587031	-0.090147	0.663879
H120	H	1.436493	-0.134225	0.703951
H121	H	1.531436	-0.155908	0.710873
H122	H	1.141264	-0.307793	0.839858
O123	O	0.967594	-0.153797	0.350385
C124	C	0.944606	-0.166072	0.401706
H125	H	0.876181	-0.188461	0.400466
H126	H	0.997622	-0.191203	0.421039
C127	C	1.024352	-0.087789	0.434851
C128	C	0.940307	-0.115284	0.433328
H129	H	1.021705	-0.056461	0.454358
H130	H	1.039843	-0.079520	0.400276
H131	H	1.068523	-0.108737	0.450961
H132	H	0.896141	-0.094338	0.417213
H133	H	0.924809	-0.123548	0.467901
H134	H	1.199185	-0.913343	0.231370
H135	H	1.141232	-0.307814	0.740811
H136	H	1.198937	-0.410998	0.231266
O137	O	0.640437	-0.263027	0.240865
C138	C	0.585900	-0.298650	0.268744
H139	H	0.614316	-0.300992	0.310866
H140	H	0.514512	-0.284867	0.268192
C141	C	0.549475	-0.350140	0.191309
C142	C	0.584380	-0.353020	0.243042
H143	H	0.548533	-0.383677	0.175454
H144	H	0.586214	-0.326139	0.172525
H145	H	0.489988	-0.338652	0.190856
H146	H	0.643869	-0.364501	0.243494
H147	H	0.547650	-0.377024	0.261825
H148	H	1.408575	-0.144057	1.100040
O149	O	1.475366	-0.103162	0.855331
C150	C	1.526291	-0.071950	0.821236
H151	H	1.529378	-0.093273	0.782411
H152	H	1.493292	-0.033344	0.814333
C153	C	1.618535	-0.035014	0.893449
C154	C	1.622332	-0.061205	0.845765
H155	H	1.677776	-0.028384	0.908579
H156	H	1.584224	-0.056040	0.916419
H157	H	1.591031	-0.002845	0.887689
H158	H	1.649825	-0.093376	0.851525
H159	H	1.656651	-0.040184	0.822795
H160	H	1.466193	-0.108762	0.751759
O161	O	1.417299	-0.506913	0.365237
C162	C	1.475644	-0.536530	0.337465
H163	H	1.443879	-0.545824	0.296765
H164	H	1.542492	-0.513219	0.333986
C165	C	1.531001	-0.576402	0.416795
C166	C	1.491983	-0.587821	0.366808
H167	H	1.541084	-0.608040	0.434896
H168	H	1.491696	-0.556447	0.435506
H169	H	1.586704	-0.556975	0.413889
H170	H	1.436277	-0.607242	0.369715
H171	H	1.531280	-0.607781	0.348098
O172	O	1.474991	-0.755993	0.400826
C173	C	1.455191	-0.743295	0.452261
H174	H	1.420472	-0.704830	0.452155
H175	H	1.408816	-0.775591	0.468304
C176	C	1.585748	-0.785000	0.487048
C177	C	1.543113	-0.737754	0.486918
H178	H	1.639981	-0.781584	0.508427
H179	H	1.599086	-0.793557	0.452395
H180	H	1.547093	-0.811909	0.500415
H181	H	1.581763	-0.710848	0.473544
H182	H	1.529783	-0.729192	0.521569
O183	O	1.417484	-0.901642	0.365437
C184	C	1.468402	-0.935708	0.396675
H185	H	1.431467	-0.975883	0.397227
H186	H	1.536950	-0.939202	0.379863
C187	C	1.526685	-0.864590	0.452082
C188	C	1.481316	-0.913931	0.452764
H189	H	1.534655	-0.851156	0.486680
H190	H	1.492383	-0.841638	0.431036
H191	H	1.583803	-0.867508	0.438070
H192	H	1.424195	-0.911012	0.466770
H193	H	1.515609	-0.936882	0.473814
O194	O	0.781725	-0.291697	0.212090
C195	C	0.727195	-0.327321	0.239973
H196	H	0.755610	-0.329654	0.282096
H197	H	0.655803	-0.313544	0.239417
C198	C	0.690789	-0.378824	0.162545
C199	C	0.725692	-0.381694	0.214280
H200	H	0.689857	-0.412363	0.146695
H201	H	0.727523	-0.354823	0.143759
H202	H	0.631298	-0.367342	0.162089
H203	H	0.785185	-0.393169	0.214735
H204	H	0.688967	-0.405698	0.233065
O205	O	1.190108	-1.016916	0.225804
C206	C	1.139226	-0.982849	0.194547
H207	H	1.136062	-0.944020	0.215850
H208	H	1.172313	-0.975946	0.155963
C209	C	1.047109	-1.055102	0.157580
C210	C	1.043217	-1.007413	0.183747
H211	H	0.987887	-1.070255	0.150916
H212	H	1.081391	-1.078054	0.178637
H213	H	1.074685	-1.049344	0.125430
H214	H	1.015651	-1.013173	0.215899
H215	H	1.008928	-0.984462	0.162695
H216	H	1.199082	-0.272374	1.092981
H217	H	1.408146	-0.403828	0.359714
H218	H	1.141432	-0.763189	0.195949
O219	O	1.132194	-0.660219	0.190395
C220	C	1.042270	-0.676593	0.198778
H221	H	1.040400	-0.716288	0.218822
H222	H	1.011837	-0.646874	0.224618
C223	C	0.989977	-0.632249	0.121334
C224	C	0.987680	-0.681005	0.145948
H225	H	0.956301	-0.634969	0.088747
H226	H	1.050560	-0.621216	0.115687
H227	H	0.964617	-0.607489	0.142873
H228	H	1.013050	-0.705763	0.124413
H229	H	0.927100	-0.692043	0.151590
O230	O	1.417381	-1.009234	0.365457
C231	C	1.365981	-1.042547	0.397470
H232	H	1.294916	-1.028494	0.398277
H233	H	1.362910	-1.084044	0.381204
C234	C	1.497266	-1.059125	0.452332
C235	C	1.409984	-1.041862	0.453326
H236	H	1.524410	-1.058705	0.486786
H237	H	1.531896	-1.036683	0.430763
H238	H	1.494694	-1.093704	0.438774
H239	H	1.412558	-1.007282	0.466877
H240	H	1.375355	-1.064299	0.474898
O241	O	1.189947	-0.278008	0.989412
C242	C	1.138999	-0.309202	1.023510
H243	H	1.175964	-0.309757	1.063671
H244	H	1.070495	-0.292347	1.027024
C245	C	1.080549	-0.364612	0.952433
C246	C	1.125954	-0.365298	1.001758
H247	H	1.072498	-0.399214	0.939015
H248	H	1.114870	-0.343595	0.929459
H249	H	1.023467	-0.350564	0.955368
H250	H	1.183038	-0.379339	0.998822
H251	H	1.091641	-0.386319	1.024731
H252	H	1.465922	-0.653022	0.395172
O253	O	1.189775	-0.278068	0.594534
C254	C	1.138833	-0.309295	0.557007
H255	H	1.135733	-0.287991	0.517985
H256	H	1.171827	-0.347905	0.552297
C257	C	1.046613	-0.346195	0.623014
C258	C	1.042799	-0.320027	0.575089
H259	H	0.987376	-0.352817	0.634168
H260	H	1.080935	-0.325158	0.648297
H261	H	1.074112	-0.378367	0.619083
H262	H	1.015312	-0.287853	0.579022
H263	H	1.008470	-0.341059	0.549806
O264	O	1.189957	-0.278093	0.486918
C265	C	1.241275	-0.310167	0.457053
H266	H	1.309668	-0.289450	0.451175
H267	H	1.251141	-0.348582	0.478413
C268	C	1.107617	-0.346737	0.410734
C269	C	1.191615	-0.321291	0.403511
H270	H	1.076983	-0.353602	0.377708
H271	H	1.073042	-0.325130	0.430856
H272	H	1.115850	-0.378747	0.428536
H273	H	1.183380	-0.289279	0.385715
H274	H	1.226187	-0.342893	0.383385
H275	H	1.408420	-0.144204	0.498630
H276	H	1.408552	-0.144077	1.000972
H277	H	0.818996	-0.130597	0.373583
