data_functionalizedCrystal
_audit_creation_method	'MofGen! by Chris Wilmer'
_symmetry_space_group_name_H-M	'P1'
_symmetry_Int_Tables_number	1
_symmetry_cell_setting	triclinic
loop_
_symmetry_equiv_pos_as_xyz
  x,y,z
_cell_length_a	6.394989
_cell_length_b	16.992694
_cell_length_c	15.455313
_cell_angle_alpha	92.857794
_cell_angle_beta	87.254133
_cell_angle_gamma	88.582967
loop_
_atom_site_label
_atom_site_type_symbol
_atom_site_fract_x
_atom_site_fract_y
_atom_site_fract_z
O1	O	-0.435072	-1.048122	-0.072012
O2	O	-0.430202	-0.819790	-0.072038
O3	O	-0.129113	-0.937197	-0.072026
O4	O	-0.736160	-0.930715	-0.072025
O5	O	-0.146255	-0.930482	0.072236
O6	O	-0.447343	-0.813075	0.072223
O7	O	-0.452214	-1.041407	0.072249
Cu8	Cu	-0.451344	-0.926628	0.085408
Cu9	Cu	-0.431071	-0.934569	-0.085198
O10	O	-0.753302	-0.924000	0.072236
C11	C	-0.432511	-0.787158	0.000089
C12	C	-0.413829	-0.699930	0.000079
C13	C	-0.449904	-1.074039	0.000120
C14	C	-0.468586	-1.161267	0.000124
N15	N	-0.465602	-0.921049	0.205403
C16	C	-0.059649	-0.932558	0.000102
C17	C	0.177240	-0.928641	0.000100
N18	N	-0.416798	-0.940154	-0.205192
C19	C	-0.594077	-0.651470	0.000080
C20	C	-0.576513	-0.569510	0.000092
C21	C	-0.378698	-0.536010	0.000097
C22	C	-0.198437	-0.584476	0.000099
C23	C	-0.216003	-0.666434	0.000093
C24	C	-0.305891	-0.291692	0.000120
C25	C	-0.288338	-0.209727	0.000123
C26	C	-0.666416	-0.194766	0.000118
C27	C	-0.683964	-0.276728	0.000107
C28	C	-0.503704	-0.325186	0.000113
N29	N	-0.360740	-0.452233	0.000106
N30	N	-0.521664	-0.408961	0.000110
C31	C	-0.337742	-0.970946	0.250803
C32	C	-0.348545	-0.966733	0.341610
C33	C	-0.487220	-0.912628	0.387016
C34	C	-0.615085	-0.862725	0.341611
C35	C	-0.604270	-0.866934	0.250805
C36	C	-0.533847	-0.894461	0.658596
C37	C	-0.544658	-0.890257	0.749408
C38	C	-0.278114	-0.994265	0.749401
C39	C	-0.267319	-0.998472	0.658594
C40	C	-0.395176	-0.948567	0.613196
N41	N	-0.498271	-0.908323	0.479836
N42	N	-0.384114	-0.952869	0.520378
H43	H	-0.723290	-0.530057	0.000092
H44	H	-0.813173	-0.155303	0.000115
C45	C	-0.898678	-0.313135	-0.000102
C46	C	-0.910962	-0.363164	-0.074349
C47	C	-1.108740	-0.396701	-0.074593
H48	H	-0.919647	-0.342528	0.050135
H49	H	-1.003547	-0.272549	-0.000155
H50	H	-0.806124	-0.403743	-0.074288
H51	H	-0.890032	-0.333789	-0.124597
H52	H	-1.213609	-0.356116	-0.074646
H53	H	-1.129692	-0.426091	-0.024354
H54	H	-1.117108	-0.430644	-0.124973
H55	H	-0.127245	-0.182455	0.000126
C56	C	0.016303	-0.548071	-0.000075
C57	C	0.046275	-0.504918	-0.074304
C58	C	0.244082	-0.471382	-0.074502
H59	H	0.025258	-0.514020	0.050174
H60	H	0.121211	-0.588651	-0.000122
H61	H	-0.058604	-0.464343	-0.074249
H62	H	0.037362	-0.538951	-0.124565
H63	H	0.348990	-0.511962	-0.074549
H64	H	0.253018	-0.437335	-0.024250
H65	H	0.264451	-0.442105	-0.124869
C66	C	-0.020211	-0.719022	-0.000092
C67	C	0.106906	-0.707060	-0.074321
C68	C	0.287277	-0.755496	-0.074522
H69	H	0.054611	-0.706377	0.050158
H70	H	-0.058913	-0.772643	-0.000141
H71	H	0.145611	-0.653450	-0.074263
H72	H	0.032149	-0.719710	-0.124582
H73	H	0.248575	-0.809118	-0.074572
H74	H	0.362080	-0.742848	-0.024270
H75	H	0.373538	-0.747392	-0.124889
H76	H	-0.159109	-0.331137	0.000126
C77	C	-0.186967	-1.029716	0.201665
C78	C	-0.077265	-1.072496	0.260865
C79	C	0.061675	-1.126634	0.215635
H80	H	-0.263282	-1.064867	0.166230
H81	H	-0.090783	-1.002264	0.166269
H82	H	-0.173435	-1.099946	0.296246
H83	H	-0.000908	-1.037366	0.296302
H84	H	0.157858	-1.099182	0.180238
H85	H	-0.014657	-1.161780	0.180201
H86	H	0.136138	-1.155662	0.255794
C87	C	-0.209473	-1.020784	0.390941
C88	C	-0.080493	-0.975279	0.443066
C89	C	0.047675	-1.025046	0.488510
H90	H	-0.294229	-1.052592	0.426428
H91	H	-0.125231	-1.053598	0.350917
H92	H	-0.164726	-0.942479	0.483086
H93	H	0.004306	-0.943473	0.407600
H94	H	0.131917	-1.057860	0.448485
H95	H	-0.037097	-1.056851	0.523992
H96	H	0.135216	-0.994179	0.523876
C97	C	-0.138927	-1.048397	0.798584
C98	C	0.071438	-1.034663	0.776486
C99	C	0.199731	-1.084520	0.821768
H100	H	-0.164941	-1.038193	0.859180
H101	H	-0.168566	-1.101744	0.783678
H102	H	0.101065	-0.981328	0.791398
H103	H	0.097516	-1.044872	0.715898
H104	H	0.170092	-1.137867	0.806862
H105	H	0.173699	-1.074311	0.882362
H106	H	0.342476	-1.075213	0.806775
C107	C	-0.695261	-0.831421	0.798552
C108	C	-0.804870	-0.788598	0.739360
C109	C	-0.943589	-0.734385	0.784599
H110	H	-0.791529	-0.858792	0.833972
H111	H	-0.618723	-0.796310	0.833963
H112	H	-0.881404	-0.823703	0.703963
H113	H	-0.708657	-0.761209	0.703938
H114	H	-0.867051	-0.699275	0.820011
H115	H	-1.039843	-0.761764	0.820018
H116	H	-1.017962	-0.705319	0.744445
H117	H	-0.154399	-1.042529	0.621626
H118	H	-0.637958	-0.853827	0.621640
C119	C	-0.765591	-0.804061	0.391063
C120	C	-0.747745	-0.811069	0.480304
C121	C	-0.886385	-0.757048	0.525884
H122	H	-0.732412	-0.752072	0.376296
H123	H	-0.904941	-0.814663	0.376221
H124	H	-0.608426	-0.800462	0.495140
H125	H	-0.780942	-0.863046	0.495097
H126	H	-1.025735	-0.767650	0.511042
H127	H	-0.853194	-0.705063	0.511111
H128	H	-0.874309	-0.761801	0.586439
H129	H	-0.708384	-0.826302	0.213841
H130	H	-0.755159	-0.678739	0.000075
