data_functionalizedCrystal
_audit_creation_method	'MofGen! by Chris Wilmer'
_symmetry_space_group_name_H-M	'P1'
_symmetry_Int_Tables_number	1
_symmetry_cell_setting	triclinic
loop_
_symmetry_equiv_pos_as_xyz
  x,y,z
_cell_length_a	13.897449
_cell_length_b	11.169416
_cell_length_c	11.169406
_cell_angle_alpha	89.956706
_cell_angle_beta	89.966813
_cell_angle_gamma	90.006344
loop_
_atom_site_label
_atom_site_type_symbol
_atom_site_fract_x
_atom_site_fract_y
_atom_site_fract_z
Zn1	Zn	1.474906	-0.477488	-0.678649
Zn2	Zn	1.474800	-0.678282	-0.477981
Zn3	Zn	1.313560	-0.477616	-0.477976
Zn4	Zn	1.313612	-0.678132	-0.678619
O5	O	1.394220	-0.577879	-0.578306
O6	O	1.609873	-0.504133	-0.652045
O7	O	1.453345	-0.651779	-0.310031
O8	O	1.334985	-0.309649	-0.504606
O9	O	1.609796	-0.651655	-0.504616
O10	O	1.453525	-0.309555	-0.652040
O11	O	1.334883	-0.504351	-0.310027
O12	O	1.178585	-0.504206	-0.504577
O13	O	1.335074	-0.651400	-0.846573
O14	O	1.178624	-0.651524	-0.651988
O15	O	1.453576	-0.503987	-0.846595
O16	O	1.453396	-0.846212	-0.504586
O17	O	1.334972	-0.846102	-0.651993
C18	C	1.143605	-0.577863	-0.578279
C19	C	1.036391	-0.577885	-0.578296
C20	C	0.840096	-0.577890	-0.578327
C21	C	0.949329	-0.577884	-0.578306
C22	C	1.394204	-0.889704	-0.578313
C23	C	1.394286	-1.023104	-0.578356
C24	C	1.394343	-0.577663	-0.891349
C25	C	1.394395	-0.577570	-1.024749
C26	C	1.645813	-0.577896	-0.578335
C27	C	1.753026	-0.577904	-0.578347
C28	C	1.394261	-0.264837	-0.578326
C29	C	1.394279	-0.131437	-0.578335
C30	C	1.394152	-0.578009	-0.266481
C31	C	1.394287	-0.577763	-0.133082
