data_functionalizedCrystal
_audit_creation_method	'MofGen! by Chris Wilmer'
_symmetry_space_group_name_H-M	'P1'
_symmetry_Int_Tables_number	1
_symmetry_cell_setting	triclinic
loop_
_symmetry_equiv_pos_as_xyz
  x,y,z
_cell_length_a	19.805407
_cell_length_b	12.594516
_cell_length_c	19.805398
_cell_angle_alpha	89.978180
_cell_angle_beta	89.986879
_cell_angle_gamma	90.016053
loop_
_atom_site_label
_atom_site_type_symbol
_atom_site_fract_x
_atom_site_fract_y
_atom_site_fract_z
Zn1	Zn	1.034741	-0.423756	-0.382752
Zn2	Zn	1.534741	0.076244	0.117248
Zn3	Zn	1.034689	-0.601753	-0.269577
Zn4	Zn	1.534689	-0.101753	0.230423
Zn5	Zn	0.921569	-0.423789	-0.269576
Zn6	Zn	1.421569	0.076211	0.230424
Zn7	Zn	0.921540	-0.601693	-0.382723
Zn8	Zn	1.421540	-0.101693	0.117277
O9	O	0.978135	-0.512748	-0.326157
O10	O	1.478135	-0.012748	0.173843
O11	O	1.129451	-0.447379	-0.367751
O12	O	1.629451	0.052621	0.132249
O13	O	1.019674	-0.578184	-0.174860
O14	O	1.519674	-0.078184	0.325140
O15	O	0.936615	-0.274838	-0.284601
O16	O	1.436615	0.225162	0.215399
O17	O	1.129413	-0.578152	-0.284602
O18	O	1.629413	-0.078152	0.215398
O19	O	1.019762	-0.274815	-0.367750
O20	O	1.519762	0.225185	0.132250
O21	O	0.936565	-0.447434	-0.174860
O22	O	1.436565	0.052566	0.325140
O23	O	0.826848	-0.447377	-0.284573
O24	O	1.326848	0.052623	0.215427
O25	O	0.936566	-0.578051	-0.477444
O26	O	1.436566	-0.078051	0.022556
O27	O	0.826827	-0.578082	-0.367702
O28	O	1.326827	-0.078082	0.132298
O29	O	1.019735	-0.447321	-0.477464
O30	O	1.519735	0.052679	0.022536
O31	O	1.019646	-0.750691	-0.284574
O32	O	1.519646	-0.250691	0.215426
O33	O	0.936516	-0.750647	-0.367703
O34	O	1.436516	-0.250647	0.132297
C35	C	0.802279	-0.512727	-0.326135
C36	C	1.302279	-0.012727	0.173865
C37	C	0.727047	-0.512744	-0.326142
C38	C	1.227047	-0.012744	0.173858
C39	C	0.691709	-0.580905	-0.369357
C40	C	1.191709	-0.080905	0.130643
C41	C	0.621021	-0.580907	-0.369366
C42	C	1.121021	-0.080907	0.130634
C43	C	0.585671	-0.512752	-0.326157
C44	C	1.085671	-0.012752	0.173843
C45	C	0.621014	-0.444584	-0.282940
C46	C	1.121014	0.055416	0.217060
C47	C	0.691701	-0.444578	-0.282934
C48	C	1.191701	0.055422	0.217066
C49	C	0.335940	-0.444608	-0.282962
C50	C	0.835940	0.055392	0.217038
C51	C	0.265248	-0.444622	-0.282970
C52	C	0.765248	0.055378	0.217030
C53	C	0.265260	-0.580937	-0.369394
C54	C	0.765260	-0.080937	0.130606
C55	C	0.335948	-0.580930	-0.369389
C56	C	0.835948	-0.080930	0.130611
C57	C	0.371284	-0.512759	-0.326175
C58	C	0.871284	-0.012759	0.173825
C59	C	0.447932	-0.512756	-0.326166
C60	C	0.947932	-0.012756	0.173834
C61	C	0.509024	-0.512760	-0.326162
C62	C	1.009024	-0.012760	0.173838
C63	C	0.978090	-0.789289	-0.326150
C64	C	1.478090	-0.289289	0.173850
C65	C	0.978133	-0.907594	-0.326170
C66	C	1.478133	-0.407594	0.173830
C67	C	0.932914	-0.976862	-0.371352
C68	C	1.432914	-0.476862	0.128648
C69	C	0.916433	-1.047720	-0.309590
C70	C	1.416433	-0.547720	0.190410
C71	C	0.994677	-1.047535	-0.387943
C72	C	1.494677	-0.547535	0.112057
C73	C	0.961619	-0.976894	-0.264375
C74	C	1.461619	-0.476894	0.235625
C75	C	1.039892	-0.976703	-0.342770
C76	C	1.539892	-0.476703	0.157230
C77	C	1.023434	-1.047529	-0.280965
C78	C	1.523434	-0.547529	0.219035
C79	C	1.154678	-0.512769	-0.326179
C80	C	1.654678	-0.012769	0.173821
C81	C	1.229909	-0.512778	-0.326189
C82	C	1.729909	-0.012778	0.173811
C83	C	0.978153	-0.512676	-0.502700
C84	C	1.478153	-0.012676	-0.002700
C85	C	0.978161	-0.512645	-0.577932
C86	C	1.478161	-0.012645	-0.077932
C87	C	0.978198	-0.235127	-0.326178
C88	C	1.478198	0.264873	0.173822
C89	C	0.978225	-0.116821	-0.326188
C90	C	1.478225	0.383179	0.173812
C91	C	1.021542	-0.580557	-1.039721
C92	C	1.521542	-0.080557	-0.539721
C93	C	1.021524	-0.580586	-0.969032
C94	C	1.521524	-0.080586	-0.469032
C95	C	0.978245	-0.512525	-0.933694
C96	C	1.478245	-0.012525	-0.433694
C97	C	0.934977	-0.444438	-0.969047
C98	C	1.434977	0.055562	-0.469047
C99	C	0.934993	-0.444416	-1.039734
C100	C	1.434993	0.055584	-0.539734
C101	C	0.934911	-0.444529	-0.683974
C102	C	1.434911	0.055471	-0.183974
C103	C	0.934900	-0.444555	-0.613282
C104	C	1.434900	0.055445	-0.113282
C105	C	1.021442	-0.580700	-0.613272
C106	C	1.521442	-0.080700	-0.113272
C107	C	1.021458	-0.580677	-0.683959
C108	C	1.521458	-0.080677	-0.183959
C109	C	0.978188	-0.512595	-0.719306
C110	C	1.478188	-0.012595	-0.219306
C111	C	0.978208	-0.512566	-0.795955
C112	C	1.478208	-0.012566	-0.295955
C113	C	0.978228	-0.512548	-0.857047
C114	C	1.478228	-0.012548	-0.357047
C115	C	0.978156	-0.512742	-0.150301
C116	C	1.478156	-0.012742	0.349699
C117	C	0.978279	-0.512473	-0.075069
C118	C	1.478279	-0.012473	0.424931
H119	H	0.592252	-0.636411	-0.404556
H120	H	1.092252	-0.136411	0.095444
H121	H	0.364726	-0.636432	-0.404572
H122	H	0.864726	-0.136432	0.095428
F123	F	0.373539	-0.372050	-0.236972
F124	F	0.873539	0.127950	0.263028
H125	H	0.864247	-1.078937	-0.295564
H126	H	1.364247	-0.578937	0.204436
F127	F	0.943301	-0.936507	-0.196083
F128	F	1.443301	-0.436507	0.303917
F129	F	1.067523	-0.653114	-0.721565
F130	F	1.567523	-0.153114	-0.221565
H131	H	0.899677	-0.389094	-0.712745
H132	H	1.399677	0.110906	-0.212745
F133	F	0.888949	-0.371947	-1.077355
F134	F	1.388949	0.128053	-0.577355
H135	H	0.720486	-0.636408	-0.404541
H136	H	1.220486	-0.136408	0.095459
F137	F	0.227648	-0.653491	-0.415388
F138	F	0.727648	-0.153491	0.084612
H139	H	0.899735	-0.389027	-0.940269
H140	H	1.399735	0.110973	-0.440269
F141	F	1.108087	-0.935900	-0.361141
F142	F	1.608087	-0.435900	0.138859
H143	H	1.056788	-0.635975	-1.068488
H144	H	1.556788	-0.135975	-0.568488
F145	F	0.227628	-0.372077	-0.236979
F146	F	0.727628	0.127923	0.263021
F147	F	1.073469	-1.087831	-0.230978
F148	F	1.573469	-0.587831	0.269022
F149	F	0.583390	-0.372042	-0.236957
F150	F	1.083390	0.127958	0.263043
H151	H	0.894606	-0.945832	-0.409505
H152	H	1.394606	-0.445832	0.090495
F153	F	0.729309	-0.372029	-0.236940
F154	F	1.229309	0.127971	0.263060
F155	F	1.012918	-1.088098	-0.456214
F156	F	1.512918	-0.588098	0.043786
F157	F	1.067571	-0.653048	-0.931415
F158	F	1.567571	-0.153048	-0.431415
H159	H	1.056673	-0.636139	-0.584483
H160	H	1.556673	-0.136139	-0.084483
F161	F	0.888834	-0.372113	-0.575673
F162	F	1.388834	0.127887	-0.075673
