data_functionalizedCrystal
_audit_creation_method	'MofGen! by Chris Wilmer'
_symmetry_space_group_name_H-M	'P1'
_symmetry_Int_Tables_number	1
_symmetry_cell_setting	triclinic
loop_
_symmetry_equiv_pos_as_xyz
  x,y,z
_cell_length_a	18.050591
_cell_length_b	18.050589
_cell_length_c	18.101389
_cell_angle_alpha	90.019529
_cell_angle_beta	90.023851
_cell_angle_gamma	90.016982
loop_
_atom_site_label
_atom_site_type_symbol
_atom_site_fract_x
_atom_site_fract_y
_atom_site_fract_z
Zn1	Zn	1.135362	-0.295808	0.418824
Zn2	Zn	1.468695	0.037526	0.752157
Zn3	Zn	1.802029	0.370859	1.085490
Zn4	Zn	1.135281	-0.419982	0.294980
Zn5	Zn	1.468614	-0.086649	0.628313
Zn6	Zn	1.801947	0.246685	0.961646
Zn7	Zn	1.011173	-0.295803	0.294986
Zn8	Zn	1.344506	0.037531	0.628319
Zn9	Zn	1.677839	0.370864	0.961652
Zn10	Zn	1.011146	-0.419953	0.418769
Zn11	Zn	1.344479	-0.086619	0.752103
Zn12	Zn	1.677813	0.246714	1.085436
O13	O	1.073240	-0.357886	0.356890
O14	O	1.406574	-0.024553	0.690223
O15	O	1.739907	0.308780	1.023556
O16	O	1.239276	-0.312294	0.402416
O17	O	1.572609	0.021039	0.735749
O18	O	1.905943	0.354373	1.069082
O19	O	1.118794	-0.403519	0.191348
O20	O	1.452128	-0.070186	0.524681
O21	O	1.785461	0.263147	0.858014
O22	O	1.027692	-0.191879	0.311438
O23	O	1.361025	0.141455	0.644772
O24	O	1.694358	0.474788	0.978105
O25	O	1.239216	-0.403524	0.311428
O26	O	1.572549	-0.070191	0.644761
O27	O	1.905883	0.263142	0.978095
O28	O	1.118933	-0.191882	0.402422
O29	O	1.452267	0.141451	0.735755
O30	O	1.785600	0.474784	1.069088
O31	O	1.027613	-0.312285	0.191352
O32	O	1.360946	0.021048	0.524685
O33	O	1.694279	0.354381	0.858019
O34	O	0.907244	-0.312257	0.311386
O35	O	1.240578	0.021076	0.644719
O36	O	1.573911	0.354410	0.978052
O37	O	1.027647	-0.403474	0.522409
O38	O	1.360980	-0.070141	0.855743
O39	O	1.694313	0.263192	1.189076
O40	O	0.907225	-0.403469	0.402329
O41	O	1.240558	-0.070136	0.735662
O42	O	1.573892	0.263197	1.068996
O43	O	1.118908	-0.312266	0.522449
O44	O	1.452241	0.021068	0.855783
O45	O	1.785574	0.354401	1.189116
O46	O	1.118769	-0.523903	0.311375
O47	O	1.452102	-0.190569	0.644709
O48	O	1.785435	0.142764	0.978042
O49	O	1.027568	-0.523881	0.402323
O50	O	1.360901	-0.190548	0.735656
O51	O	1.694234	0.142786	1.068990
C52	C	0.880288	-0.357860	0.356853
C53	C	1.213622	-0.024527	0.690186
C54	C	1.546955	0.308807	1.023519
C55	C	0.797742	-0.357867	0.356854
C56	C	1.131076	-0.024533	0.690188
C57	C	1.464409	0.308800	1.023521
C58	C	0.548906	-0.308214	0.307516
C59	C	0.882239	0.025119	0.640850
C60	C	1.215573	0.358453	0.974183
C61	C	0.598340	-0.290138	0.375103
C62	C	0.931674	0.043195	0.708436
C63	C	1.265007	0.376529	1.041769
C64	C	0.500622	-0.357905	0.356915
C65	C	0.833955	-0.024571	0.690248
C66	C	1.167289	0.308762	1.023582
C67	C	0.598269	-0.375927	0.289303
C68	C	0.931603	-0.042594	0.622636
C69	C	1.264936	0.290740	0.955969
C70	C	0.646607	-0.357884	0.356882
C71	C	0.979940	-0.024551	0.690215
C72	C	1.313274	0.308782	1.023548
C73	C	0.548969	-0.339794	0.424537
C74	C	0.882303	-0.006460	0.757870
C75	C	1.215636	0.326873	1.091204
C76	C	0.548894	-0.425614	0.338692
C77	C	0.882227	-0.092281	0.672025
C78	C	1.215561	0.241052	1.005358
C79	C	0.598306	-0.407564	0.406324
C80	C	0.931639	-0.074231	0.739658
C81	C	1.264973	0.259103	1.072991
C82	C	0.416524	-0.357915	0.356933
C83	C	0.749857	-0.024581	0.690266
C84	C	1.083190	0.308752	1.023600
C85	C	0.730704	-0.357874	0.356871
C86	C	1.064037	-0.024541	0.690204
C87	C	1.397370	0.308792	1.023538
C88	C	1.073177	-0.550838	0.356859
C89	C	1.406510	-0.217505	0.690192
C90	C	1.739843	0.115828	1.023525
C91	C	1.073217	-0.633384	0.356870
C92	C	1.406551	-0.300051	0.690204
C93	C	1.739884	0.033283	1.023537
C94	C	1.122942	-0.882194	0.307495
C95	C	1.456275	-0.548861	0.640828
C96	C	1.789608	-0.215528	0.974162
C97	C	1.055183	-0.832856	0.289300
C98	C	1.388516	-0.499523	0.622633
C99	C	1.721850	-0.166190	0.955967
C100	C	1.073311	-0.930504	0.356927
C101	C	1.406644	-0.597171	0.690261
C102	C	1.739977	-0.263838	1.023594
C103	C	1.141019	-0.832761	0.375059
C104	C	1.474352	-0.499428	0.708393
C105	C	1.807686	-0.166094	1.041726
C106	C	1.073268	-0.784519	0.356898
C107	C	1.406602	-0.451186	0.690231
C108	C	1.739935	-0.117853	1.023564
C109	C	1.005516	-0.882254	0.338697
C110	C	1.338850	-0.548920	0.672031
C111	C	1.672183	-0.215587	1.005364
C112	C	1.091398	-0.882163	0.424488
C113	C	1.424732	-0.548829	0.757822
C114	C	1.758065	-0.215496	1.091155
C115	C	1.023593	-0.832847	0.406319
C116	C	1.356926	-0.499513	0.739652
C117	C	1.690259	-0.166180	1.072986
C118	C	1.073336	-1.014603	0.356943
C119	C	1.406669	-0.681269	0.690276
C120	C	1.740003	-0.347936	1.023609
C121	C	1.073235	-0.700423	0.356882
C122	C	1.406569	-0.367090	0.690216
C123	C	1.739902	-0.033756	1.023549
C124	C	1.266946	-0.357913	0.356927
C125	C	1.600279	-0.024580	0.690261
C126	C	1.933613	0.308754	1.023594
C127	C	1.349492	-0.357924	0.356943
C128	C	1.682825	-0.024591	0.690277
C129	C	2.016158	0.308742	1.023610
C130	C	1.073283	-0.357867	0.550052
C131	C	1.406617	-0.024534	0.883385
C132	C	1.739950	0.308799	1.216718
C133	C	1.073302	-0.357859	0.632366
C134	C	1.406635	-0.024526	0.965699
C135	C	1.739968	0.308807	1.299032
C136	C	1.073325	-0.164181	0.356937
C137	C	1.406658	0.169153	0.690270
C138	C	1.739991	0.502486	1.023603
C139	C	1.073360	-0.081635	0.356957
C140	C	1.406694	0.251699	0.690290
C141	C	1.740027	0.585032	1.023623
C142	C	1.073240	-0.357851	0.164479
C143	C	1.406574	-0.024518	0.497812
C144	C	1.739907	0.308815	0.831146
C145	C	1.073366	-0.357650	0.082165
C146	C	1.406699	-0.024317	0.415499
C147	C	1.740033	0.309017	0.748832
C148	C	1.073345	-0.357720	0.931457
C149	C	1.406678	-0.024387	1.264790
C150	C	1.740011	0.308946	1.598124
C151	C	1.015728	-0.414924	0.900107
C152	C	1.349061	-0.081590	1.233440
C153	C	1.682395	0.251743	1.566773
C154	C	1.015884	-0.415189	0.814488
C155	C	1.349217	-0.081856	1.147822
C156	C	1.682550	0.251478	1.481155
C157	C	1.073323	-0.357789	0.783074
C158	C	1.406656	-0.024456	1.116408
C159	C	1.739989	0.308877	1.449741
C160	C	1.151572	-0.379038	0.814179
C161	C	1.484905	-0.045704	1.147512
C162	C	1.818238	0.287629	1.480846
C163	C	1.151251	-0.379413	0.899824
C164	C	1.484584	-0.046080	1.233157
C165	C	1.817917	0.287253	1.566491
C166	C	1.053393	-0.279141	0.899883
C167	C	1.386726	0.054192	1.233216
C168	C	1.720060	0.387526	1.566549
C169	C	1.051652	-0.279595	0.814232
C170	C	1.384985	0.053739	1.147565
C171	C	1.718319	0.387072	1.480899
C172	C	1.073315	-0.357827	0.699215
C173	C	1.406648	-0.024494	1.032548
C174	C	1.739982	0.308840	1.365881
C175	C	1.073358	-0.357684	1.015316
C176	C	1.406691	-0.024351	1.348650
C177	C	1.740024	0.308982	1.681983
H178	H	0.527403	-0.324475	0.481718
H179	H	0.860737	0.008858	0.815052
H180	H	1.194070	0.342192	1.148385
O181	O	0.627114	-0.214280	0.395507
O182	O	0.960447	0.119053	0.728840
O183	O	1.293781	0.452386	1.062174
H184	H	0.660962	-0.218332	0.446552
H185	H	0.994295	0.115001	0.779885
H186	H	1.327628	0.448334	1.113218
O187	O	0.938633	-0.397492	0.927368
O188	O	1.271966	-0.064158	1.260702
O189	O	1.605299	0.269175	1.594035
H190	H	0.901898	-0.386414	0.879442
H191	H	1.235232	-0.053081	1.212776
H192	H	1.568565	0.280253	1.546109
O193	O	1.034884	-0.804159	0.213605
O194	O	1.368217	-0.470826	0.546938
O195	O	1.701551	-0.137493	0.880271
H196	H	1.034530	-0.742675	0.214430
H197	H	1.367863	-0.409342	0.547763
H198	H	1.701196	-0.076008	0.881097
O199	O	0.626857	-0.463217	0.461702
O200	O	0.960190	-0.129884	0.795035
O201	O	1.293523	0.203449	1.128368
H202	H	0.660670	-0.505571	0.432746
H203	H	0.994003	-0.172238	0.766080
H204	H	1.327336	0.161096	1.099413
H205	H	0.527159	-0.482867	0.323268
H206	H	0.860492	-0.149534	0.656601
H207	H	1.193826	0.183800	0.989934
H208	H	0.619927	-0.391179	0.232138
H209	H	0.953261	-0.057845	0.565471
H210	H	1.286594	0.275488	0.898805
O211	O	1.173639	-0.455505	0.926298
O212	O	1.506972	-0.122171	1.259631
O213	O	1.840306	0.211162	1.592964
H214	H	1.230007	-0.468631	0.905614
H215	H	1.563341	-0.135298	1.238947
H216	H	1.896674	0.198036	1.572281
O217	O	1.210023	-0.326585	0.927269
O218	O	1.543357	0.006749	1.260603
O219	O	1.876690	0.340082	1.593936
H220	H	1.183735	-0.282708	0.961298
H221	H	1.517068	0.050625	1.294631
H222	H	1.850401	0.383958	1.627965
O223	O	1.033335	-0.492360	0.787403
O224	O	1.366668	-0.159026	1.120736
O225	O	1.700001	0.174307	1.454069
H226	H	1.084539	-0.490986	0.753500
H227	H	1.417872	-0.157653	1.086833
H228	H	1.751206	0.175680	1.420166
H229	H	1.195654	-0.338683	0.793833
H230	H	1.528987	-0.005349	1.127167
H231	H	1.862321	0.327984	1.460500
H232	H	0.981555	-0.811316	0.448110
H233	H	1.314888	-0.477983	0.781443
H234	H	1.648222	-0.144649	1.114776
H235	H	1.168776	-0.435870	0.792735
H236	H	1.502109	-0.102537	1.126069
H237	H	1.835443	0.230797	1.459402
H238	H	0.997325	-0.259783	0.921470
H239	H	1.330658	0.073551	1.254803
H240	H	1.663992	0.406884	1.588136
H241	H	1.198297	-0.811021	0.390407
H242	H	1.531630	-0.477688	0.723741
H243	H	1.864964	-0.144355	1.057074
H244	H	0.957859	-0.401892	0.793456
H245	H	1.291193	-0.068559	1.126790
H246	H	1.624526	0.264775	1.460123
O247	O	0.975383	-0.258353	0.787292
O248	O	1.308716	0.074981	1.120625
O249	O	1.642049	0.408314	1.453959
H250	H	0.952997	-0.303292	0.751856
H251	H	1.286330	0.030041	1.085190
H252	H	1.619664	0.363374	1.418523
H253	H	1.028771	-0.472814	0.921631
H254	H	1.362104	-0.139480	1.254964
H255	H	1.695437	0.193853	1.588298
O256	O	1.103183	-0.220136	0.785920
O257	O	1.436517	0.113197	1.119253
O258	O	1.769850	0.446531	1.452586
H259	H	1.145236	-0.245503	0.749038
H260	H	1.478569	0.087830	1.082371
H261	H	1.811903	0.421164	1.415705
H262	H	1.095358	-0.236521	0.920159
H263	H	1.428692	0.096812	1.253493
H264	H	1.762025	0.430145	1.586826
O265	O	0.929624	-0.910917	0.318266
O266	O	1.262957	-0.577584	0.651599
O267	O	1.596290	-0.244251	0.984933
H268	H	0.930246	-0.972404	0.318407
H269	H	1.263579	-0.639071	0.651741
H270	H	1.596913	-0.305738	0.985074
H271	H	0.527217	-0.266169	0.265807
H272	H	0.860551	0.067164	0.599141
H273	H	1.193884	0.400497	0.932474
H274	H	1.164879	-0.903862	0.265672
H275	H	1.498212	-0.570529	0.599006
H276	H	1.831545	-0.237195	0.932339
H277	H	1.106740	-0.903838	0.481620
H278	H	1.440073	-0.570505	0.814953
H279	H	1.773407	-0.237171	1.148287
