data_functionalizedCrystal
_audit_creation_method	'MofGen! by Chris Wilmer'
_symmetry_space_group_name_H-M	'P1'
_symmetry_Int_Tables_number	1
_symmetry_cell_setting	triclinic
loop_
_symmetry_equiv_pos_as_xyz
  x,y,z
_cell_length_a	8.559649
_cell_length_b	16.109301
_cell_length_c	14.586319
_cell_angle_alpha	90.005214
_cell_angle_beta	89.996567
_cell_angle_gamma	103.379927
loop_
_atom_site_label
_atom_site_type_symbol
_atom_site_fract_x
_atom_site_fract_y
_atom_site_fract_z
O1	O	2.120141	0.028207	-0.076230
O2	O	1.654914	-0.014732	-0.076235
O3	O	1.900308	0.128583	-0.076223
O4	O	1.874747	-0.115108	-0.076242
O5	O	1.900291	0.128584	0.076258
O6	O	1.654897	-0.014731	0.076246
O7	O	2.120124	0.028208	0.076251
Cu8	Cu	1.887509	0.006738	0.090171
Cu9	Cu	1.887529	0.006737	-0.090155
O10	O	1.874730	-0.115107	0.076239
C11	C	1.595374	-0.017985	0.000005
C12	C	1.417989	-0.027671	0.000003
C13	C	1.899264	0.159492	0.000018
C14	C	1.896160	0.251590	0.000019
C15	C	2.179664	0.031461	0.000009
C16	C	2.357049	0.041147	0.000005
C17	C	1.875774	-0.146016	-0.000004
C18	C	1.878878	-0.238114	-0.000011
N19	N	1.887506	0.006740	0.217003
C20	C	2.034553	0.482679	0.000006
C21	C	2.031624	0.569213	-0.000001
C22	C	1.740473	0.530789	-0.000001
C23	C	1.743404	0.444257	0.000000
C24	C	1.890449	0.420205	0.000009
C25	C	1.884589	0.593271	-0.000000
C26	C	1.881412	0.687094	-0.000008
C27	C	1.893627	0.326376	0.000015
N28	N	1.887544	0.006743	-0.216987
C29	C	1.996202	0.070183	0.452015
C30	C	1.996207	0.070186	0.547996
C31	C	1.778837	-0.056704	0.547995
C32	C	1.778826	-0.056702	0.452015
C33	C	1.887518	0.006741	0.404028
C34	C	1.887533	0.006742	0.595989
C35	C	1.887537	0.006744	0.700056
C36	C	1.887512	0.006741	0.299954
H37	H	2.334458	-0.094000	-0.000009
O38	O	2.113450	0.138612	0.599745
H39	H	2.046228	0.174759	0.643476
O40	O	1.661636	-0.125137	0.599759
H41	H	1.586052	-0.169250	0.550263
H42	H	1.690313	-0.108364	0.412942
H43	H	2.440589	0.107480	0.000008
H44	H	2.154287	0.463099	0.000011
H45	H	2.148969	0.620077	-0.000005
O46	O	2.113383	0.138625	0.400249
H47	H	2.191036	0.108579	0.356506
O48	O	1.581878	0.556730	0.000010
H49	H	1.604047	0.627397	0.000022
H50	H	1.626050	0.393387	-0.000001
