data_functionalizedCrystal
_audit_creation_method	'MofGen! by Chris Wilmer'
_symmetry_space_group_name_H-M	'P1'
_symmetry_Int_Tables_number	1
_symmetry_cell_setting	triclinic
loop_
_symmetry_equiv_pos_as_xyz
  x,y,z
_cell_length_a	16.109318
_cell_length_b	16.109301
_cell_length_c	14.048226
_cell_angle_alpha	90.005033
_cell_angle_beta	90.001267
_cell_angle_gamma	83.465022
loop_
_atom_site_label
_atom_site_type_symbol
_atom_site_fract_x
_atom_site_fract_y
_atom_site_fract_z
O1	O	1.103123	0.106934	0.079084
O2	O	1.603123	0.606934	0.579084
O3	O	0.861063	0.120219	0.079104
O4	O	1.361063	0.620219	0.579104
O5	O	0.988743	-0.007454	0.079084
O6	O	1.488743	0.492546	0.579084
O7	O	0.975444	0.234607	0.079105
O8	O	1.475444	0.734607	0.579105
O9	O	0.988731	-0.007455	-0.079237
O10	O	1.488731	0.492545	0.420763
O11	O	0.861051	0.120218	-0.079217
O12	O	1.361051	0.620218	0.420783
O13	O	1.103111	0.106933	-0.079237
O14	O	1.603111	0.606933	0.420763
Zn15	Zn	0.982079	0.113575	-0.104364
Zn16	Zn	1.482079	0.613575	0.395636
Zn17	Zn	0.982095	0.113577	0.104231
Zn18	Zn	1.482095	0.613577	0.604231
O19	O	0.975432	0.234606	-0.079217
O20	O	1.475432	0.734606	0.420783
C21	C	0.830083	0.119677	-0.000054
C22	C	1.330083	0.619677	0.499946
C23	C	0.737788	0.118057	-0.000047
C24	C	1.237788	0.618057	0.499953
C25	C	0.438721	0.112822	0.086237
C26	C	0.938721	0.612822	0.586237
C27	C	0.525442	0.114340	0.086243
C28	C	1.025442	0.614340	0.586243
C29	C	0.525448	0.114327	-0.086368
C30	C	1.025448	0.614327	0.413632
C31	C	0.438729	0.112804	-0.086373
C32	C	0.938729	0.612804	0.413627
C33	C	0.395367	0.112056	-0.000068
C34	C	0.895367	0.612056	0.499932
C35	C	0.568807	0.115096	-0.000057
C36	C	1.068807	0.615096	0.499943
C37	C	0.662835	0.116742	-0.000051
C38	C	1.162835	0.616742	0.499949
C39	C	0.301334	0.110409	-0.000073
C40	C	0.801334	0.610409	0.499927
C41	C	0.988198	-0.038430	-0.000077
C42	C	1.488198	0.461570	0.499923
C43	C	0.986583	-0.130725	-0.000078
C44	C	1.486583	0.369275	0.499922
C45	C	1.058590	-0.352993	-0.000069
C46	C	1.558590	0.147007	0.499931
C47	C	1.057066	-0.439713	-0.000061
C48	C	1.557066	0.060287	0.499939
C49	C	0.905579	-0.419848	-0.000053
C50	C	1.405579	0.080152	0.499947
C51	C	0.907104	-0.333130	-0.000054
C52	C	1.407104	0.166870	0.499946
C53	C	0.983612	-0.299704	-0.000067
C54	C	1.483612	0.200296	0.499933
C55	C	0.980563	-0.473144	-0.000058
C56	C	1.480563	0.026856	0.499942
C57	C	0.978910	-0.567170	-0.000049
C58	C	1.478910	-0.067170	0.499951
C59	C	0.985265	-0.205672	-0.000074
C60	C	1.485265	0.294328	0.499926
C61	C	1.134092	0.107474	-0.000077
C62	C	1.634092	0.607474	0.499923
C63	C	1.226387	0.109095	-0.000077
C64	C	1.726387	0.609095	0.499923
C65	C	0.975976	0.265581	-0.000054
C66	C	1.475976	0.765581	0.499946
C67	C	0.977592	0.357877	-0.000046
C68	C	1.477592	0.857877	0.499954
N69	N	0.982074	0.113574	-0.246725
N70	N	1.482074	0.613574	0.253275
C71	C	1.032481	0.164020	-0.296538
C72	C	1.532481	0.664020	0.203462
C73	C	1.032492	0.164016	-0.396196
C74	C	1.532492	0.664016	0.103804
C75	C	0.982091	0.113570	-0.446038
C76	C	1.482091	0.613570	0.053962
C77	C	0.931682	0.063119	-0.396217
C78	C	1.431682	0.563119	0.103783
C79	C	0.931677	0.063118	-0.296562
C80	C	1.431677	0.563118	0.203438
C81	C	0.931696	0.063124	-0.603932
C82	C	1.431696	0.563124	-0.103932
C83	C	0.931700	0.063125	-0.703594
C84	C	1.431700	0.563125	-0.203594
C85	C	1.032511	0.164022	-0.703566
C86	C	1.532511	0.664022	-0.203566
C87	C	1.032506	0.164022	-0.603910
C88	C	1.532506	0.664022	-0.103910
C89	C	0.982096	0.113571	-0.554096
C90	C	1.482096	0.613571	-0.054096
N91	N	0.982107	0.113571	0.246592
N92	N	1.482107	0.613571	0.746592
H93	H	0.403429	0.112179	-0.156657
H94	H	0.903429	0.612179	0.343343
H95	H	0.846043	-0.289740	-0.000049
H96	H	1.346043	0.210260	0.499951
N97	N	0.823062	-0.455900	-0.000043
N98	N	1.323062	0.044100	0.499957
H99	H	0.833472	-0.518923	-0.000046
H100	H	1.333472	-0.018923	0.499954
H101	H	0.790252	-0.436408	-0.058733
H102	H	1.290252	0.063592	0.441267
H103	H	1.120888	-0.325781	-0.000078
H104	H	1.620888	0.174219	0.499922
N105	N	0.572199	0.115177	0.179330
N106	N	1.072199	0.615177	0.679330
H107	H	0.633716	0.116253	0.166241
H108	H	1.133716	0.616253	0.666241
H109	H	0.563790	0.063406	0.217019
H110	H	1.063790	0.563406	0.717019
N111	N	1.086839	0.218434	-0.242783
N112	N	1.586839	0.718434	0.257217
H113	H	1.118774	0.250388	-0.289466
H114	H	1.618774	0.750388	0.210534
H115	H	1.127489	0.182198	-0.201435
H116	H	1.627489	0.682198	0.298565
H117	H	0.403419	0.112212	0.156512
H118	H	0.903419	0.612212	0.656512
N119	N	0.877310	0.008709	-0.242829
N120	N	1.377310	0.508709	0.257171
H121	H	0.913522	-0.031972	-0.201488
H122	H	1.413522	0.468028	0.298512
H123	H	0.845390	-0.023193	-0.289584
H124	H	1.345390	0.476807	0.210416
N125	N	0.572216	0.115141	-0.179450
N126	N	1.072216	0.615141	0.320550
H127	H	0.633730	0.116226	-0.166353
H128	H	1.133730	0.616226	0.333647
H129	H	0.550302	0.166382	-0.217134
H130	H	1.050302	0.666382	0.282866
N131	N	1.137933	-0.497193	-0.000068
N132	N	1.637933	0.002807	0.499932
H133	H	1.171319	-0.486437	0.058616
H134	H	1.671319	0.013563	0.558616
H135	H	1.171239	-0.486423	-0.058802
H136	H	1.671239	0.013577	0.441198
N137	N	1.086899	0.218385	-0.449925
N138	N	1.586899	0.718385	0.050075
H139	H	1.118836	0.250332	-0.403228
H140	H	1.618836	0.750332	0.096772
H141	H	1.050677	0.259025	-0.491299
H142	H	1.550677	0.759025	0.008701
H143	H	1.073542	0.205103	-0.563332
H144	H	1.573542	0.705103	-0.063332
H145	H	1.073553	0.205104	-0.744129
H146	H	1.573553	0.705104	-0.244129
N147	N	0.877315	0.008715	-0.449974
N148	N	1.377315	0.508715	0.050026
H149	H	0.845383	-0.023244	-0.403292
H150	H	1.345383	0.476756	0.096708
H151	H	0.913577	-0.031915	-0.491326
H152	H	1.413577	0.468085	0.008674
N153	N	0.877329	0.008730	-0.757356
N154	N	1.377329	0.508730	-0.257356
H155	H	0.845394	-0.023231	-0.710680
H156	H	1.345394	0.476769	-0.210680
H157	H	0.913586	-0.031898	-0.798716
H158	H	1.413586	0.468102	-0.298716
H159	H	0.890648	0.022041	-0.563376
H160	H	1.390648	0.522041	-0.063376
