data_functionalizedCrystal
_audit_creation_method	'MofGen! by Chris Wilmer'
_symmetry_space_group_name_H-M	'P1'
_symmetry_Int_Tables_number	1
_symmetry_cell_setting	triclinic
loop_
_symmetry_equiv_pos_as_xyz
  x,y,z
_cell_length_a	14.908571
_cell_length_b	12.594516
_cell_length_c	12.594517
_cell_angle_alpha	89.999530
_cell_angle_beta	93.293622
_cell_angle_gamma	86.712497
loop_
_atom_site_label
_atom_site_type_symbol
_atom_site_fract_x
_atom_site_fract_y
_atom_site_fract_z
Zn1	Zn	1.379074	-0.518062	0.695590
Zn2	Zn	1.379030	-0.695987	0.517615
Zn3	Zn	1.228257	-0.507738	0.507371
Zn4	Zn	1.228192	-0.685707	0.685295
O5	O	1.303638	-0.601873	0.601468
O6	O	1.505311	-0.550287	0.680578
O7	O	1.359039	-0.670996	0.367311
O8	O	1.248308	-0.360165	0.532359
O9	O	1.505280	-0.681008	0.549820
O10	O	1.359112	-0.367750	0.670644
O11	O	1.248266	-0.532691	0.359784
O12	O	1.102005	-0.522723	0.522376
O13	O	1.248198	-0.663487	0.835606
O14	O	1.101957	-0.653476	0.653097
O15	O	1.359050	-0.540319	0.843170
O16	O	1.358976	-0.843566	0.539837
O17	O	1.248156	-0.836013	0.663031
C18	C	1.069247	-0.585864	0.585508
C19	C	0.968974	-0.579041	0.578706
C20	C	1.303579	-0.878410	0.601453
C21	C	1.303636	-0.996720	0.601488
C22	C	0.780549	-0.702584	0.701860
C23	C	0.686333	-0.696177	0.695472
C24	C	0.686325	-0.559814	0.559549
C25	C	0.780541	-0.566221	0.565937
C26	C	0.827649	-0.637610	0.637093
C27	C	0.921867	-0.644022	0.643475
C28	C	0.921857	-0.507655	0.507558
C29	C	0.827641	-0.501247	0.501170
C30	C	1.243356	-1.061903	0.668443
C31	C	1.221402	-1.131226	0.569828
C32	C	1.325672	-1.138202	0.700126
C33	C	1.281639	-1.064481	0.502819
C34	C	1.385948	-1.071453	0.633185
C35	C	1.364025	-1.140746	0.534505
C36	C	1.538944	-0.617946	0.617490
C37	C	1.639218	-0.624795	0.624318
C38	C	1.303622	-0.601908	0.879088
C39	C	1.303615	-0.601923	0.997392
C40	C	1.303722	-0.324258	0.601507
C41	C	1.303758	-0.205955	0.601524
C42	C	1.243321	-0.668886	1.133295
C43	C	1.221284	-0.570287	1.060992
C44	C	1.325611	-0.700509	1.068121
C45	C	1.281528	-0.503228	1.135872
C46	C	1.385893	-0.633518	1.143009
C47	C	1.363888	-0.534854	1.070741
C48	C	1.303636	-0.601871	1.324927
C49	C	1.303607	-0.601882	1.206619
H50	H	0.960221	-0.702153	0.701413
O51	O	1.129121	-0.534845	1.013501
H52	H	1.130154	-0.534449	0.925452
H53	H	1.414873	-0.478139	1.043339
H54	H	1.192287	-1.027413	0.724971
H55	H	0.789272	-0.443122	0.443240
H56	H	0.647953	-0.501686	0.501624
O57	O	1.350272	-0.810965	1.028630
H58	H	1.300126	-0.866407	1.053570
H59	H	0.960216	-0.454750	0.454818
H60	H	0.818905	-0.760717	0.759793
H61	H	1.262841	-0.419808	1.165549
O62	O	1.129269	-1.166248	0.534317
H63	H	1.102887	-1.214198	0.598279
O64	O	1.478019	-0.668994	1.190568
H65	H	1.496125	-0.750916	1.163532
O66	O	1.431619	-1.186178	0.459437
H67	H	1.499656	-1.161110	0.485089
H68	H	1.192297	-0.725454	1.160892
H69	H	1.455485	-1.044991	0.660012
O70	O	0.635527	-0.766348	0.765232
H71	H	0.684117	-0.817100	0.815743
O72	O	1.350304	-1.181025	0.810599
H73	H	1.300107	-1.149320	0.865994
H74	H	1.262970	-1.032274	0.419389
