data_functionalizedCrystal
_audit_creation_method	'MofGen! by Chris Wilmer'
_symmetry_space_group_name_H-M	'P1'
_symmetry_Int_Tables_number	1
_symmetry_cell_setting	triclinic
loop_
_symmetry_equiv_pos_as_xyz
  x,y,z
_cell_length_a	17.699083
_cell_length_b	27.732048
_cell_length_c	16.176319
_cell_angle_alpha	90.008398
_cell_angle_beta	89.999950
_cell_angle_gamma	82.962835
loop_
_atom_site_label
_atom_site_type_symbol
_atom_site_fract_x
_atom_site_fract_y
_atom_site_fract_z
O1	O	1.003539	0.061125	0.068640
O2	O	1.336872	0.394458	0.401973
O3	O	1.670205	0.727791	0.735306
O4	O	0.783090	0.069077	0.068668
O5	O	1.116424	0.402411	0.402001
O6	O	1.449757	0.735744	0.735335
O7	O	0.900161	-0.005271	0.068637
O8	O	1.233494	0.328062	0.401971
O9	O	1.566828	0.661396	0.735304
O10	O	0.886468	0.135473	0.068670
O11	O	1.219801	0.468807	0.402004
O12	O	1.553134	0.802140	0.735337
O13	O	0.900147	-0.005271	-0.068856
O14	O	1.233481	0.328062	0.264477
O15	O	1.566814	0.661395	0.597811
O16	O	0.783077	0.069077	-0.068825
O17	O	1.116410	0.402411	0.264508
O18	O	1.449743	0.735744	0.597841
O19	O	1.003525	0.061125	-0.068853
O20	O	1.336858	0.394458	0.264480
O21	O	1.670192	0.727791	0.597813
Cu22	Cu	0.893300	0.065101	-0.081394
Cu23	Cu	1.226633	0.398434	0.251940
Cu24	Cu	1.559966	0.731768	0.585273
Cu25	Cu	0.893316	0.065101	0.081208
Cu26	Cu	1.226649	0.398434	0.414541
Cu27	Cu	1.559982	0.731768	0.747875
O28	O	0.886454	0.135473	-0.068823
O29	O	1.219787	0.468806	0.264511
O30	O	1.553121	0.802140	0.597844
C31	C	0.754889	0.068792	-0.000075
C32	C	1.088222	0.402126	0.333258
C33	C	1.421556	0.735459	0.666591
C34	C	0.670878	0.067938	-0.000065
C35	C	1.004212	0.401271	0.333268
C36	C	1.337545	0.734604	0.666602
C37	C	0.621873	0.111579	-0.000055
C38	C	0.955206	0.444912	0.333278
C39	C	1.288539	0.778245	0.666612
C40	C	0.542936	0.110772	-0.000066
C41	C	0.876270	0.444106	0.333267
C42	C	1.209603	0.777439	0.666601
C43	C	0.513007	0.066325	-0.000081
C44	C	0.846341	0.399658	0.333252
C45	C	1.179674	0.732991	0.666586
C46	C	0.562019	0.022680	-0.000094
C47	C	0.895353	0.356014	0.333240
C48	C	1.228686	0.689347	0.666573
C49	C	0.640954	0.023487	-0.000089
C50	C	0.974287	0.356820	0.333245
C51	C	1.307621	0.690154	0.666578
C52	C	0.243685	0.019426	-0.000115
C53	C	0.577018	0.352760	0.333219
C54	C	0.910352	0.686093	0.666552
C55	C	0.164744	0.018623	-0.000117
C56	C	0.498078	0.351956	0.333216
C57	C	0.831411	0.685290	0.666549
C58	C	0.145667	0.106712	-0.000092
C59	C	0.479001	0.440045	0.333241
C60	C	0.812334	0.773378	0.666575
C61	C	0.224602	0.107518	-0.000087
C62	C	0.557935	0.440852	0.333246
C63	C	0.891269	0.774185	0.666579
C64	C	0.273607	0.063874	-0.000104
C65	C	0.606940	0.397208	0.333229
C66	C	0.940274	0.730541	0.666563
C67	C	0.359199	0.064749	-0.000094
C68	C	0.692532	0.398082	0.333240
C69	C	1.025865	0.731416	0.666573
C70	C	0.427418	0.065450	-0.000085
C71	C	0.760751	0.398783	0.333248
C72	C	1.094084	0.732116	0.666581
C73	C	0.899867	-0.023279	-0.000112
C74	C	1.233200	0.310054	0.333222
C75	C	1.566534	0.643388	0.666555
C76	C	0.899001	-0.076937	-0.000118
C77	C	1.232335	0.256396	0.333215
C78	C	1.565668	0.589730	0.666548
C79	C	0.962734	-0.415523	-0.000084
C80	C	1.296067	-0.082190	0.333249
C81	C	1.629400	0.251144	0.666583
C82	C	0.959522	-0.617194	-0.000072
C83	C	1.292856	-0.283861	0.333261
C84	C	1.626189	0.049473	0.666595
O85	O	1.017801	-0.648240	-0.000043
O86	O	1.351134	-0.314907	0.333290
O87	O	1.684468	0.018426	0.666623
N88	N	0.890104	-0.636567	-0.000064
N89	N	1.223437	-0.303234	0.333269
N90	N	1.556771	0.030099	0.666603
C91	C	0.821484	-0.605520	-0.000053
C92	C	1.154817	-0.272186	0.333280
C93	C	1.488150	0.061147	0.666613
O94	O	0.762366	-0.626625	-0.000038
O95	O	1.095699	-0.293292	0.333296
O96	O	1.429032	0.040041	0.666629
C97	C	0.824696	-0.403849	-0.000059
C98	C	1.158029	-0.070516	0.333274
C99	C	1.491363	0.262817	0.666607
C100	C	0.894119	-0.384479	-0.000076
C101	C	1.227452	-0.051146	0.333257
C102	C	1.560785	0.282188	0.666591
C103	C	1.032151	-0.396152	-0.000100
C104	C	1.365484	-0.062819	0.333234
C105	C	1.698817	0.270515	0.666567
C106	C	1.032953	-0.345737	-0.000107
C107	C	1.366286	-0.012404	0.333226
C108	C	1.699619	0.320929	0.666560
C109	C	0.964338	-0.314693	-0.000099
C110	C	1.297671	0.018640	0.333234
C111	C	1.631004	0.351973	0.666568
C112	C	0.894921	-0.334064	-0.000083
C113	C	1.228254	-0.000731	0.333250
C114	C	1.561587	0.332602	0.666583
C115	C	0.756076	-0.372802	-0.000043
C116	C	1.089410	-0.039469	0.333290
C117	C	1.422743	0.293864	0.666624
C118	C	0.756886	-0.322382	-0.000042
C119	C	1.090219	0.010951	0.333291
C120	C	1.423552	0.344284	0.666624
C121	C	0.826308	-0.303012	-0.000059
C122	C	1.159642	0.030321	0.333274
C123	C	1.492975	0.363655	0.666608
C124	C	0.827108	-0.252605	-0.000083
C125	C	1.160441	0.080728	0.333251
C126	C	1.493775	0.414061	0.666584
N127	N	0.896526	-0.233232	-0.000091
N128	N	1.229859	0.100101	0.333242
N129	N	1.563193	0.433435	0.666576
C130	C	0.965141	-0.264276	-0.000099
C131	C	1.298474	0.069057	0.333234
C132	C	1.631808	0.402391	0.666568
C133	C	0.819802	-0.711400	-0.000052
C134	C	1.153136	-0.378066	0.333281
C135	C	1.486469	-0.044733	0.666615
C136	C	0.818999	-0.761817	-0.000052
C137	C	1.152332	-0.428484	0.333281
C138	C	1.485666	-0.095150	0.666615
C139	C	0.957038	-0.773488	-0.000069
C140	C	1.290371	-0.440155	0.333264
C141	C	1.623704	-0.106821	0.666598
C142	C	0.957840	-0.723070	-0.000075
C143	C	1.291174	-0.389736	0.333258
C144	C	1.624507	-0.056403	0.666592
C145	C	0.889220	-0.692026	-0.000060
C146	C	1.222554	-0.358693	0.333273
C147	C	1.555887	-0.025360	0.666607
C148	C	0.966820	-0.158401	-0.000115
C149	C	1.300154	0.174933	0.333218
C150	C	1.633487	0.508266	0.666551
C151	C	0.967616	-0.107981	-0.000126
C152	C	1.300950	0.225352	0.333207
C153	C	1.634283	0.558686	0.666540
C154	C	0.829578	-0.096314	-0.000105
C155	C	1.162911	0.237019	0.333228
C156	C	1.496245	0.570352	0.666562
C157	C	0.828781	-0.146730	-0.000098
C158	C	1.162115	0.186604	0.333235
C159	C	1.495448	0.519937	0.666568
C160	C	0.897409	-0.177772	-0.000101
C161	C	1.230742	0.155561	0.333233
C162	C	1.564076	0.488894	0.666566
O163	O	0.768860	-0.221531	-0.000102
O164	O	1.102194	0.111802	0.333231
O165	O	1.435527	0.445136	0.666564
O166	O	1.024251	-0.243161	-0.000096
O167	O	1.357584	0.090172	0.333237
O168	O	1.690917	0.423506	0.666570
C169	C	0.961931	-0.465938	-0.000077
C170	C	1.295265	-0.132604	0.333257
C171	C	1.628598	0.200729	0.666590
C172	C	0.892514	-0.485309	-0.000061
C173	C	1.225848	-0.151975	0.333272
C174	C	1.559181	0.181358	0.666606
C175	C	0.823899	-0.454265	-0.000053
C176	C	1.157233	-0.120931	0.333280
C177	C	1.490566	0.212402	0.666614
C178	C	0.891711	-0.535726	-0.000061
C179	C	1.225045	-0.202393	0.333272
C180	C	1.558378	0.130941	0.666606
C181	C	0.960326	-0.566770	-0.000069
C182	C	1.293659	-0.233437	0.333264
C183	C	1.626993	0.099897	0.666598
C184	C	1.029744	-0.547397	-0.000077
C185	C	1.363078	-0.214063	0.333256
C186	C	1.696411	0.119270	0.666590
C187	C	1.030546	-0.496982	-0.000085
C188	C	1.363880	-0.163648	0.333249
C189	C	1.697213	0.169685	0.666582
C190	C	0.754481	-0.473638	-0.000045
C191	C	1.087815	-0.140305	0.333289
C192	C	1.421148	0.193029	0.666622
C193	C	0.753685	-0.524053	-0.000038
C194	C	1.087018	-0.190720	0.333295
C195	C	1.420351	0.142613	0.666628
C196	C	0.822300	-0.555097	-0.000046
C197	C	1.155633	-0.221764	0.333287
C198	C	1.488966	0.111569	0.666620
C199	C	1.031726	0.061410	-0.000108
C200	C	1.365060	0.394743	0.333225
C201	C	1.698393	0.728076	0.666558
C202	C	1.115737	0.062264	-0.000113
C203	C	1.449070	0.395598	0.333220
C204	C	1.782404	0.728931	0.666554
C205	C	0.886748	0.153481	-0.000072
C206	C	1.220082	0.486814	0.333261
C207	C	1.553415	0.820148	0.666595
C208	C	0.887614	0.207139	-0.000060
C209	C	1.220947	0.540472	0.333273
C210	C	1.554281	0.873806	0.666607
N211	N	0.893294	0.065100	-0.195759
N212	N	1.226627	0.398434	0.137575
N213	N	1.559960	0.731767	0.470908
C214	C	0.938850	0.094382	-0.239018
C215	C	1.272184	0.427715	0.094315
C216	C	1.605517	0.761048	0.427648
C217	C	0.938859	0.094380	-0.325565
C218	C	1.272192	0.427713	0.007768
C219	C	1.605525	0.761046	0.341101
C220	C	0.893305	0.065099	-0.368851
C221	C	1.226639	0.398432	-0.035518
C222	C	1.559972	0.731766	0.297815
C223	C	0.847747	0.035814	-0.325586
C224	C	1.181080	0.369148	0.007748
C225	C	1.514414	0.702481	0.341081
C226	C	0.847743	0.035814	-0.239040
C227	C	1.181077	0.369147	0.094293
C228	C	1.514410	0.702481	0.427626
C229	C	0.847761	0.035815	-0.674614
C230	C	1.181094	0.369148	-0.341281
C231	C	1.514428	0.702482	-0.007947
C232	C	0.847766	0.035819	-0.761166
C233	C	1.181100	0.369152	-0.427832
C234	C	1.514433	0.702485	-0.094499
C235	C	0.938876	0.094381	-0.761139
C236	C	1.272209	0.427714	-0.427806
C237	C	1.605543	0.761047	-0.094472
C238	C	0.938873	0.094380	-0.674594
C239	C	1.272206	0.427714	-0.341260
C240	C	1.605539	0.761047	-0.007927
C241	C	0.893317	0.065094	-0.631336
C242	C	1.226651	0.398427	-0.298002
C243	C	1.559984	0.731761	0.035331
C244	C	0.893310	0.065096	-0.537491
C245	C	1.226644	0.398429	-0.204158
C246	C	1.559977	0.731762	0.129175
C247	C	0.893308	0.065100	-0.462694
C248	C	1.226641	0.398433	-0.129361
C249	C	1.559975	0.731766	0.203973
N250	N	0.893328	0.065098	0.195573
N251	N	1.226661	0.398431	0.528907
N252	N	1.559994	0.731764	0.862240
H253	H	0.646234	0.147773	-0.000042
H254	H	0.979567	0.481106	0.333291
H255	H	1.312901	0.814440	0.666624
H256	H	0.105758	0.142249	-0.000083
H257	H	0.439091	0.475582	0.333250
H258	H	0.772424	0.808915	0.666584
H259	H	0.503039	0.146309	-0.000057
H260	H	0.836372	0.479643	0.333277
H261	H	1.169705	0.812976	0.666610
H262	H	0.248965	0.143712	-0.000071
H263	H	0.582299	0.477045	0.333262
H264	H	0.915632	0.810379	0.666595
H265	H	0.680855	-0.012050	-0.000096
H266	H	1.014188	0.321283	0.333237
H267	H	1.347521	0.654617	0.666570
H268	H	0.283576	-0.016112	-0.000129
H269	H	0.616909	0.317222	0.333204
H270	H	0.950243	0.650555	0.666537
H271	H	0.763920	-0.686128	-0.000040
H272	H	1.097254	-0.352794	0.333293
H273	H	1.430587	-0.019461	0.666627
C274	C	0.131824	-0.030272	-0.000142
C275	C	0.465157	0.303062	0.333191
C276	C	0.798491	0.636395	0.666525
H277	H	0.172314	-0.056149	-0.000160
H278	H	0.505647	0.277184	0.333174
H279	H	0.838981	0.610517	0.666507
H280	H	0.101426	-0.032420	0.047802
H281	H	0.434760	0.300914	0.381136
H282	H	0.768093	0.634247	0.714469
H283	H	0.101429	-0.032411	-0.048097
H284	H	0.434763	0.300922	0.285236
H285	H	0.768096	0.634255	0.618569
H286	H	0.537645	-0.013510	-0.000118
H287	H	0.870979	0.319824	0.333216
H288	H	1.204312	0.653157	0.666549
H289	H	0.810667	0.011968	-0.639404
H290	H	1.144001	0.345302	-0.306070
H291	H	1.477334	0.678635	0.027263
C292	C	1.106912	-0.475681	-0.000094
C293	C	1.440245	-0.142347	0.333239
C294	C	1.773579	0.190986	0.666572
H295	H	1.147656	-0.501396	-0.000091
H296	H	1.480989	-0.168062	0.333243
H297	H	1.814322	0.165271	0.666576
H298	H	1.110098	-0.456260	-0.048041
H299	H	1.443431	-0.122927	0.285292
H300	H	1.776765	0.210407	0.618626
H301	H	1.110102	-0.456253	0.047859
H302	H	1.443435	-0.122920	0.381192
H303	H	1.776768	0.210414	0.714525
H304	H	1.085613	-0.572682	-0.000087
H305	H	1.418946	-0.239348	0.333246
H306	H	1.752280	0.093985	0.666579
H307	H	1.014370	-0.707302	-0.000088
H308	H	1.347704	-0.373969	0.333246
H309	H	1.681037	-0.040636	0.666579
C310	C	1.043984	-0.086676	-0.000140
C311	C	1.377317	0.246657	0.333194
C312	C	1.710651	0.579990	0.666527
H313	H	1.084732	-0.112389	-0.000134
H314	H	1.418065	0.220945	0.333199
H315	H	1.751398	0.554278	0.666532
H316	H	1.047166	-0.067257	-0.048088
H317	H	1.380500	0.266076	0.285245
H318	H	1.713833	0.599410	0.618578
H319	H	1.047171	-0.067247	0.047811
H320	H	1.380504	0.266087	0.381145
H321	H	1.713838	0.599420	0.714478
C322	C	1.032512	-0.807642	-0.000065
C323	C	1.365846	-0.474309	0.333268
C324	C	1.699179	-0.140976	0.666602
H325	H	1.022085	-0.840442	-0.000054
H326	H	1.355418	-0.507109	0.333279
H327	H	1.688752	-0.173775	0.666613
H328	H	1.061012	-0.801789	-0.048009
H329	H	1.394345	-0.468455	0.285325
H330	H	1.727678	-0.135122	0.618658
H331	H	1.060996	-0.801773	0.047891
H332	H	1.394330	-0.468440	0.381224
H333	H	1.727663	-0.135107	0.714558
H334	H	1.022703	-0.183670	-0.000114
H335	H	1.356037	0.149663	0.333219
H336	H	1.689370	0.482996	0.666552
H337	H	1.089484	-0.329971	-0.000117
H338	H	1.422817	0.003362	0.333216
H339	H	1.756150	0.336696	0.666550
C340	C	0.742634	-0.783119	-0.000040
C341	C	1.075968	-0.449786	0.333293
C342	C	1.409301	-0.116452	0.666626
H343	H	0.701889	-0.757406	-0.000027
H344	H	1.035222	-0.424072	0.333306
H345	H	1.368555	-0.090739	0.666640
H346	H	0.739440	-0.802549	-0.047984
H347	H	1.072773	-0.469216	0.285349
H348	H	1.406106	-0.135882	0.618682
H349	H	0.739457	-0.802538	0.047916
H350	H	1.072790	-0.469205	0.381249
H351	H	1.406124	-0.135871	0.714582
C352	C	0.679710	-0.394099	-0.000018
C353	C	1.013044	-0.060766	0.333316
C354	C	1.346377	0.272568	0.666649
H355	H	0.638968	-0.368383	-0.000002
H356	H	0.972301	-0.035050	0.333331
H357	H	1.305635	0.298283	0.666665
H358	H	0.676509	-0.413529	-0.047960
H359	H	1.009842	-0.080196	0.285373
H360	H	1.343175	0.253137	0.618707
H361	H	0.676534	-0.413516	0.047940
H362	H	1.009867	-0.080183	0.381273
H363	H	1.343201	0.253150	0.714607
C364	C	0.681402	-0.288237	-0.000029
C365	C	1.014735	0.045096	0.333304
C366	C	1.348069	0.378430	0.666637
H367	H	0.639946	-0.306998	-0.000025
H368	H	0.973280	0.026336	0.333308
H369	H	1.306613	0.359669	0.666642
H370	H	0.678849	-0.268320	0.047915
H371	H	1.012183	0.065013	0.381248
H372	H	1.345516	0.398346	0.714582
H373	H	0.678837	-0.268333	-0.047985
H374	H	1.012171	0.065000	0.285348
H375	H	1.345504	0.398333	0.618682
H376	H	1.088028	-0.421424	-0.000103
H377	H	1.421362	-0.088090	0.333230
H378	H	1.754695	0.245243	0.666564
C379	C	0.988994	0.126591	-0.808725
C380	C	1.322327	0.459924	-0.475392
C381	C	1.655661	0.793258	-0.142058
H382	H	0.982481	0.122395	-0.866468
H383	H	1.315814	0.455729	-0.533135
H384	H	1.649148	0.789062	-0.199801
H385	H	0.974540	0.159675	-0.794533
H386	H	1.307873	0.493009	-0.461200
H387	H	1.641207	0.826342	-0.127867
H388	H	1.040885	0.117566	-0.794538
H389	H	1.374218	0.450899	-0.461204
H390	H	1.707552	0.784233	-0.127871
C391	C	0.752419	-0.168038	-0.000078
C392	C	1.085753	0.165295	0.333255
C393	C	1.419086	0.498628	0.666588
H394	H	0.711670	-0.142327	-0.000069
H395	H	1.045004	0.191006	0.333264
H396	H	1.378337	0.524340	0.666598
H397	H	0.749224	-0.187474	-0.048015
H398	H	1.082557	0.145859	0.285318
H399	H	1.415891	0.479193	0.618651
H400	H	0.749248	-0.187452	0.047884
H401	H	1.082581	0.145881	0.381218
H402	H	1.415914	0.479214	0.714551
H403	H	0.810661	0.011971	-0.360836
H404	H	1.143994	0.345304	-0.027503
H405	H	1.477327	0.678638	0.305830
C406	C	0.754108	-0.062160	-0.000091
C407	C	1.087441	0.271173	0.333242
C408	C	1.420774	0.604507	0.666575
H409	H	0.764534	-0.029360	-0.000088
H410	H	1.097868	0.303973	0.333246
H411	H	1.431201	0.637306	0.666579
H412	H	0.725604	-0.068025	-0.048029
H413	H	1.058937	0.265308	0.285304
H414	H	1.392271	0.598642	0.618638
H415	H	0.725629	-0.068019	0.047871
H416	H	1.058962	0.265315	0.381204
H417	H	1.392295	0.598648	0.714537
C418	C	0.677315	-0.545355	-0.000017
C419	C	1.010648	-0.212022	0.333316
C420	C	1.343981	0.121312	0.666649
H421	H	0.636569	-0.519641	-0.000005
H422	H	0.969902	-0.186308	0.333328
H423	H	1.303236	0.147025	0.666662
H424	H	0.674116	-0.564788	-0.047957
H425	H	1.007449	-0.231455	0.285376
H426	H	1.340783	0.101879	0.618710
H427	H	0.674141	-0.564771	0.047943
H428	H	1.007474	-0.231438	0.381276
H429	H	1.340807	0.101896	0.714610
H430	H	0.698605	-0.448366	-0.000036
H431	H	1.031939	-0.115033	0.333297
H432	H	1.365272	0.218300	0.666630
C433	C	0.988964	0.126588	-0.191411
C434	C	1.322297	0.459922	0.141922
C435	C	1.655630	0.793255	0.475256
H436	H	1.016103	0.144023	-0.229574
H437	H	1.349436	0.477356	0.103760
H438	H	1.682769	0.810689	0.437093
H439	H	0.957691	0.148860	-0.157642
H440	H	1.291025	0.482194	0.175691
H441	H	1.624358	0.815527	0.509024
H442	H	1.024029	0.106747	-0.157657
H443	H	1.357363	0.440080	0.175676
H444	H	1.690696	0.773413	0.509009
H445	H	0.975957	0.118222	-0.360783
H446	H	1.309290	0.451556	-0.027450
H447	H	1.642624	0.784889	0.305883
C448	C	0.797660	0.003607	-0.808783
C449	C	1.130994	0.336941	-0.475450
C450	C	1.464327	0.670274	-0.142116
H451	H	0.804182	0.007807	-0.866521
H452	H	1.137516	0.341141	-0.533188
H453	H	1.470849	0.674474	-0.199855
H454	H	0.812114	-0.029478	-0.794613
H455	H	1.145447	0.303856	-0.461280
H456	H	1.478781	0.637189	-0.127946
H457	H	0.745767	0.012630	-0.794600
H458	H	1.079100	0.345963	-0.461266
H459	H	1.412433	0.679296	-0.127933
H460	H	0.975964	0.118226	-0.639354
H461	H	1.309297	0.451559	-0.306021
H462	H	1.642630	0.784892	0.027312
H463	H	0.810646	0.011970	-0.203820
H464	H	1.143980	0.345304	0.129514
H465	H	1.477313	0.678637	0.462847
