data_functionalizedCrystal
_audit_creation_method	'MofGen! by Chris Wilmer'
_symmetry_space_group_name_H-M	'P1'
_symmetry_Int_Tables_number	1
_symmetry_cell_setting	triclinic
loop_
_symmetry_equiv_pos_as_xyz
  x,y,z
_cell_length_a	8.559649
_cell_length_b	10.489741
_cell_length_c	7.088929
_cell_angle_alpha	83.712943
_cell_angle_beta	95.325015
_cell_angle_gamma	77.158919
loop_
_atom_site_label
_atom_site_type_symbol
_atom_site_fract_x
_atom_site_fract_y
_atom_site_fract_z
O1	O	2.103400	-0.028523	-0.158957
O2	O	1.638952	0.037276	-0.158967
O3	O	1.881746	-0.182335	-0.158950
O4	O	1.860607	0.191088	-0.158973
O5	O	1.914192	-0.211743	0.159027
O6	O	1.671399	0.007868	0.159010
O7	O	2.135846	-0.057931	0.159021
Cu8	Cu	1.906585	-0.027717	0.188049
Cu9	Cu	1.868214	0.007062	-0.187996
O10	O	1.893053	0.161680	0.159004
C11	C	1.595703	0.027558	0.000020
C12	C	1.418493	0.042401	0.000017
C13	C	1.896372	-0.244403	0.000037
C14	C	1.891596	-0.385529	0.000034
C15	C	1.737113	-0.437401	0.000016
C16	C	1.826086	-0.551707	0.156797
C17	C	1.794133	-0.522692	-0.156703
C18	C	1.980646	-0.497989	0.156944
C19	C	1.948657	-0.468948	-0.156697
C20	C	2.037747	-0.583242	0.000122
C21	C	2.179096	-0.048213	0.000029
C22	C	2.356304	-0.063054	0.000020
C23	C	1.878426	0.223748	0.000012
C24	C	1.883201	0.364876	0.000003
N25	N	1.933585	-0.052180	0.452539
N26	N	1.841226	0.031513	-0.452486
H27	H	1.336155	0.144049	-0.000000
H28	H	1.610115	-0.374390	0.000171
O29	O	1.763980	-0.595003	0.314780
C30	C	1.605485	-0.519567	0.314250
H31	H	1.553192	-0.474150	0.161682
H32	H	1.607630	-0.437733	0.407169
C33	C	1.564324	-0.664842	0.581635
C34	C	1.500092	-0.609069	0.394246
H35	H	1.499313	-0.720048	0.630987
H36	H	1.671107	-0.715663	0.581997
H37	H	1.566108	-0.596636	0.659043
H38	H	1.498328	-0.677274	0.316836
H39	H	1.393306	-0.558262	0.393872
H40	H	2.000441	-0.432522	-0.289249
O41	O	2.074843	-0.483923	0.315056
C42	C	2.203852	-0.431156	0.259118
H43	H	2.169662	-0.376214	0.107817
H44	H	2.315591	-0.514603	0.262894
C45	C	2.282012	-0.402489	0.583129
C46	C	2.240014	-0.334999	0.397304
H47	H	2.304325	-0.343180	0.668371
H48	H	2.195100	-0.438044	0.620817
H49	H	2.375122	-0.472026	0.586248
H50	H	2.146894	-0.265475	0.394183
H51	H	2.326911	-0.299430	0.359618
O52	O	2.189479	-0.657999	-0.000032
C53	C	2.254535	-0.614141	-0.163892
H54	H	2.190199	-0.507260	-0.218004
H55	H	2.237165	-0.678462	-0.280111
C56	C	2.514989	-0.754999	-0.046330
C57	C	2.435979	-0.623721	-0.112783
H58	H	2.626914	-0.760913	-0.014809
H59	H	2.471160	-0.784551	0.064062
H60	H	2.500497	-0.808584	-0.143191
H61	H	2.450455	-0.570141	-0.015915
H62	H	2.479816	-0.594160	-0.223159
H63	H	1.715223	-0.534512	-0.289262
H64	H	1.745507	0.118244	0.465862
H65	H	1.438631	-0.164693	0.000017
H66	H	2.029323	-0.138908	0.534202
