data_functionalizedCrystal
_audit_creation_method	'MofGen! by Chris Wilmer'
_symmetry_space_group_name_H-M	'P1'
_symmetry_Int_Tables_number	1
_symmetry_cell_setting	triclinic
loop_
_symmetry_equiv_pos_as_xyz
  x,y,z
_cell_length_a	10.654549
_cell_length_b	10.654558
_cell_length_c	16.776229
_cell_angle_alpha	89.993278
_cell_angle_beta	89.993896
_cell_angle_gamma	84.486468
loop_
_atom_site_label
_atom_site_type_symbol
_atom_site_fract_x
_atom_site_fract_y
_atom_site_fract_z
O1	O	1.667851	0.176399	-0.066270
O2	O	1.302373	0.193206	-0.066276
O3	O	1.493510	0.002064	-0.066267
O4	O	1.476714	0.367541	-0.066279
O5	O	1.493484	0.002052	0.066309
O6	O	1.302347	0.193194	0.066301
O7	O	1.667825	0.176387	0.066306
Zn8	Zn	1.485082	0.184788	0.087353
Zn9	Zn	1.485116	0.184804	-0.087322
O10	O	1.476688	0.367529	0.066298
C11	C	1.255562	0.191966	0.000012
C12	C	1.116119	0.188274	0.000010
C13	C	1.492262	-0.044740	0.000021
C14	C	1.488566	-0.184183	0.000020
C15	C	0.905607	0.297337	0.000010
C16	C	1.036628	0.300815	0.000005
C17	C	1.064583	0.072247	0.000012
C18	C	0.933565	0.068770	0.000011
C19	C	1.198898	0.442868	-0.046448
C20	C	1.250429	0.558892	-0.046439
C21	C	1.195558	0.658661	0.000014
C22	C	1.089156	0.642410	0.046477
C23	C	1.037632	0.526383	0.046475
C24	C	1.092501	0.426620	0.000003
C25	C	0.771291	-0.073275	0.046470
C26	C	0.719764	-0.189303	0.046474
C27	C	0.774635	-0.289082	0.000026
C28	C	0.881042	-0.272843	-0.046425
C29	C	0.932568	-0.156815	-0.046429
C30	C	0.877689	-0.057036	0.000018
C31	C	1.486814	-0.249711	0.072284
C32	C	1.483351	-0.380733	0.072276
C33	C	1.483389	-0.380688	-0.072266
C34	C	1.486860	-0.249669	-0.072257
C35	C	1.552038	-0.568797	0.159091
C36	C	1.550264	-0.634326	0.231359
C37	C	1.477911	-0.582842	0.295167
C38	C	1.407302	-0.465826	0.286710
C39	C	1.409065	-0.400301	0.214441
C40	C	1.481447	-0.451788	0.150636
C41	C	1.418163	-0.061602	-0.159068
C42	C	1.419916	0.003926	-0.231338
C43	C	1.492261	-0.047555	-0.295152
C44	C	1.562852	-0.164573	-0.286702
C45	C	1.561098	-0.230101	-0.214432
C46	C	1.488756	-0.178611	-0.150618
C47	C	1.714636	0.177627	0.000017
C48	C	1.854079	0.181319	0.000014
C49	C	1.477937	0.414333	0.000008
C50	C	1.481632	0.553776	0.000004
N51	N	1.485068	0.184777	0.206564
N52	N	1.485140	0.184806	-0.206534
C53	C	1.569730	0.100175	0.248285
C54	C	1.569737	0.100174	0.331737
C55	C	1.485087	0.184782	0.373467
C56	C	1.400416	0.269388	0.331740
C57	C	1.400404	0.269382	0.248290
C58	C	1.400462	0.269413	0.668288
C59	C	1.400483	0.269415	0.751744
C60	C	1.569795	0.100205	0.751735
C61	C	1.569783	0.100199	0.668284
C62	C	1.485108	0.184800	0.626565
C63	C	1.485100	0.184798	0.536077
C64	C	1.485100	0.184791	0.463954
H65	H	0.840893	0.388982	0.000012
H66	H	0.726603	0.007969	0.084295
C67	C	1.627932	-0.763033	0.240667
H68	H	1.616501	-0.794690	0.292843
H69	H	1.714659	-0.753353	0.232325
H70	H	1.600522	-0.820471	0.202582
C71	C	1.049615	-0.138945	-0.097522
H72	H	1.072448	-0.055558	-0.090865
H73	H	1.031041	-0.152696	-0.152027
H74	H	1.117579	-0.197548	-0.081180
C75	C	1.631637	-0.625430	0.088907
H76	H	1.673416	-0.704509	0.104293
H77	H	1.692369	-0.569818	0.074430
H78	H	1.578221	-0.636929	0.044697
C79	C	1.028804	0.752152	0.097582
H80	H	0.958065	0.725853	0.125255
H81	H	1.002275	0.821581	0.064101
H82	H	1.088837	0.776712	0.134933
H83	H	1.331519	0.338301	0.634326
H84	H	1.638738	0.031314	0.785712
C85	C	1.488700	-0.177676	0.151783
H86	H	1.491006	-0.090258	0.141440
H87	H	1.561232	-0.208095	0.181479
H88	H	1.415005	-0.190221	0.181471
C89	C	1.481495	-0.452724	-0.151764
H90	H	1.479163	-0.540138	-0.141421
H91	H	1.555177	-0.440184	-0.181458
H92	H	1.408950	-0.422298	-0.181455
H93	H	1.243577	0.361641	-0.084285
H94	H	1.618573	-0.325389	-0.207559
C95	C	1.307341	0.362466	0.797646
H96	H	1.256897	0.412838	0.760848
H97	H	1.352957	0.415179	0.830193
H98	H	1.254688	0.316770	0.830206
C99	C	1.331398	-0.271604	0.205126
H100	H	1.342808	-0.239958	0.152945
H101	H	1.358790	-0.214161	0.243207
H102	H	1.244667	-0.281302	0.213467
H103	H	1.621744	-0.206501	-0.338670
H104	H	1.493627	0.005779	-0.354012
H105	H	1.331487	0.338274	0.365722
C106	C	1.342346	0.132689	-0.240617
H107	H	1.353766	0.164347	-0.292793
H108	H	1.369832	0.190071	-0.202529
H109	H	1.255597	0.123091	-0.232261
H110	H	1.337063	0.572116	-0.084274
C111	C	0.717965	-0.416716	0.000032
H112	H	0.765893	-0.473813	-0.034283
H113	H	0.633251	-0.405121	-0.018225
H114	H	0.719819	-0.449966	0.052610
H115	H	1.638667	0.031282	0.214314
C116	C	0.920595	0.508504	0.097569
H117	H	0.895289	0.584543	0.125236
H118	H	0.940407	0.442541	0.134911
H119	H	0.853867	0.487424	0.064072
C120	C	1.662877	0.007123	0.377627
H121	H	1.713302	-0.043254	0.340822
H122	H	1.617265	-0.045585	0.410194
H123	H	1.715549	0.052809	0.410166
C124	C	1.252234	0.786286	0.000019
H125	H	1.323453	0.781678	-0.034307
H126	H	1.277387	0.805532	0.052591
H127	H	1.190827	0.850386	-0.018244
C128	C	1.338565	-0.004977	-0.088875
H129	H	1.296755	0.074086	-0.104264
H130	H	1.391965	0.006524	-0.044664
H131	H	1.277838	-0.060610	-0.074408
H132	H	1.129315	-0.019386	0.000011
H133	H	0.925722	-0.354092	-0.084246
C134	C	1.327706	-0.409202	0.356899
H135	H	1.336776	-0.464980	0.401153
H136	H	1.241557	-0.397405	0.341563
H137	H	1.355702	-0.330287	0.371294
C138	C	1.662893	0.007126	0.622386
H139	H	1.713308	-0.043270	0.659186
H140	H	1.715558	0.052784	0.589817
H141	H	1.617243	-0.045579	0.589846
H142	H	1.331463	0.338272	0.214321
H143	H	0.633138	-0.202528	0.084314
H144	H	1.476468	-0.636206	0.354009
