data_functionalizedCrystal
_audit_creation_method	'MofGen! by Chris Wilmer'
_symmetry_space_group_name_H-M	'P1'
_symmetry_Int_Tables_number	1
_symmetry_cell_setting	triclinic
loop_
_symmetry_equiv_pos_as_xyz
  x,y,z
_cell_length_a	18.101398
_cell_length_b	18.101397
_cell_length_c	19.078593
_cell_angle_alpha	92.214579
_cell_angle_beta	92.228540
_cell_angle_gamma	90.016023
loop_
_atom_site_label
_atom_site_type_symbol
_atom_site_fract_x
_atom_site_fract_y
_atom_site_fract_z
Zn1	Zn	1.115800	-0.311351	-0.397698
Zn2	Zn	1.615800	0.188649	0.102302
Zn3	Zn	1.120565	-0.430337	-0.280017
Zn4	Zn	1.620565	0.069663	0.219983
Zn5	Zn	0.996803	-0.306506	-0.280055
Zn6	Zn	1.496803	0.193494	0.219945
Zn7	Zn	0.991934	-0.435144	-0.397672
Zn8	Zn	1.491934	0.064856	0.102328
O9	O	1.056276	-0.370834	-0.338860
O10	O	1.556276	0.129166	0.161140
O11	O	1.220065	-0.327150	-0.382082
O12	O	1.720065	0.172850	0.117918
O13	O	1.108179	-0.409871	-0.181549
O14	O	1.608179	0.090129	0.318451
O15	O	1.012632	-0.203517	-0.295687
O16	O	1.512632	0.296483	0.204313
O17	O	1.223566	-0.414569	-0.295623
O18	O	1.723566	0.085431	0.204377
O19	O	1.100059	-0.207076	-0.382119
O20	O	1.600059	0.292924	0.117881
O21	O	1.017252	-0.318892	-0.181577
O22	O	1.517252	0.181108	0.318423
O23	O	0.892524	-0.323554	-0.295662
O24	O	1.392524	0.176446	0.204338
O25	O	1.004334	-0.422763	-0.496148
O26	O	1.504334	0.077237	0.003852
O27	O	0.888947	-0.418064	-0.382075
O28	O	1.388947	0.081936	0.117925
O29	O	1.095338	-0.331812	-0.496167
O30	O	1.595338	0.168188	0.003833
O31	O	1.103458	-0.534606	-0.295598
O32	O	1.603458	-0.034606	0.204402
O33	O	1.008953	-0.538138	-0.382038
O34	O	1.508953	-0.038138	0.117962
C35	C	0.863865	-0.370806	-0.338870
C36	C	1.363865	0.129194	0.161130
C37	C	0.781550	-0.370812	-0.338891
C38	C	1.281550	0.129188	0.161109
C39	C	0.482460	-0.370854	-0.338862
C40	C	0.982460	0.129146	0.161138
C41	C	0.511570	-0.430583	-0.392962
C42	C	1.011570	0.069417	0.107038
C43	C	0.597179	-0.430412	-0.393184
C44	C	1.097179	0.069588	0.106816
C45	C	0.630842	-0.370834	-0.338876
C46	C	1.130842	0.129166	0.161124
C47	C	0.598938	-0.293669	-0.359146
C48	C	1.098938	0.206331	0.140854
C49	C	0.513278	-0.294030	-0.359530
C50	C	1.013278	0.205970	0.140470
C51	C	0.517079	-0.387597	-0.264362
C52	C	1.017079	0.112403	0.235638
C53	C	0.602713	-0.389325	-0.264760
C54	C	1.102713	0.110675	0.235240
C55	C	0.714701	-0.370818	-0.338883
C56	C	1.214701	0.129182	0.161117
C57	C	0.398601	-0.370866	-0.338856
C58	C	0.898601	0.129134	0.161144
C59	C	1.056214	-0.563244	-0.338826
C60	C	1.556214	-0.063244	0.161174
C61	C	1.056254	-0.645558	-0.338835
C62	C	1.556254	-0.145558	0.161165
C63	C	1.056346	-0.944652	-0.338900
C64	C	1.556346	-0.444652	0.161100
C65	C	1.115652	-0.911067	-0.284368
C66	C	1.615652	-0.411067	0.215632
C67	C	1.115844	-0.825455	-0.284509
C68	C	1.615844	-0.325455	0.215491
C69	C	1.056300	-0.796268	-0.338867
C70	C	1.556300	-0.296268	0.161133
C71	C	1.074402	-0.830340	-0.413038
C72	C	1.574402	-0.330340	0.086962
C73	C	1.074856	-0.915973	-0.412741
C74	C	1.574856	-0.415973	0.087259
C75	C	0.978759	-0.912370	-0.319902
C76	C	1.478759	-0.412370	0.180098
C77	C	0.979214	-0.826652	-0.318247
C78	C	1.479214	-0.326652	0.181753
C79	C	1.056273	-0.712408	-0.338853
C80	C	1.556273	-0.212408	0.161147
C81	C	1.056375	-1.028512	-0.338918
C82	C	1.556375	-0.528512	0.161082
C83	C	1.249438	-0.370864	-0.338851
C84	C	1.749438	0.129136	0.161149
C85	C	1.331752	-0.370876	-0.338847
C86	C	1.831752	0.129124	0.161153
C87	C	1.048761	-0.378364	-0.522405
C88	C	1.548761	0.121636	-0.022405
C89	C	1.045559	-0.381573	-0.600620
C90	C	1.545559	0.118427	-0.100620
C91	C	1.056357	-0.177675	-0.338910
C92	C	1.556357	0.322325	0.161090
C93	C	1.056392	-0.095361	-0.338931
C94	C	1.556392	0.404639	0.161069
C95	C	1.063804	-0.363281	-0.156030
C96	C	1.563804	0.136719	0.343970
C97	C	1.067149	-0.359863	-0.077815
C98	C	1.567149	0.140137	0.422185
C99	C	1.021695	-0.405944	-0.040868
C100	C	1.521695	0.094056	0.459132
C101	C	1.024834	-0.402727	0.032624
C102	C	1.524834	0.097273	0.532624
C103	C	1.073432	-0.353431	0.069167
C104	C	1.573432	0.146569	0.569167
C105	C	1.118889	-0.307345	0.032215
C106	C	1.618889	0.192655	0.532215
C107	C	1.115745	-0.310560	-0.041276
C108	C	1.615745	0.189440	0.458724
C109	C	1.087872	-0.338701	0.288937
C110	C	1.587872	0.161299	0.788937
C111	C	1.091013	-0.335492	0.362433
C112	C	1.591013	0.164508	0.862433
C113	C	0.996957	-0.430873	0.362837
C114	C	1.496957	0.069127	0.862837
C115	C	0.993821	-0.434086	0.289345
C116	C	1.493821	0.065914	0.789345
C117	C	1.039275	-0.387997	0.252399
C118	C	1.539275	0.112003	0.752399
N119	N	1.076643	-0.350143	0.144287
N120	N	1.576643	0.149857	0.644287
N121	N	1.036060	-0.391282	0.177280
N122	N	1.536060	0.108718	0.677280
H123	H	0.491071	-0.279469	-0.413993
H124	H	0.991071	0.220531	0.086007
H125	H	0.982124	-0.446089	-0.070616
H126	H	1.482124	0.053911	0.429384
H127	H	0.987828	-0.440259	0.062703
H128	H	1.487828	0.059741	0.562703
H129	H	0.615406	-0.419578	-0.448384
H130	H	1.115406	0.080422	0.051616
H131	H	1.158455	-0.267205	0.061974
H132	H	1.658455	0.232795	0.561974
H133	H	1.152757	-0.273033	-0.071357
H134	H	1.652757	0.226967	0.428643
Cl135	Cl	0.630420	-0.518916	-0.373601
Cl136	Cl	1.130420	-0.018916	0.126399
H137	H	0.620866	-0.248093	-0.320971
H138	H	1.120866	0.251907	0.179029
Cl139	Cl	1.145054	-0.280800	0.242501
Cl140	Cl	1.645054	0.219200	0.742501
H141	H	0.491483	-0.488096	-0.380400
H142	H	0.991483	0.011904	0.119600
H143	H	0.494096	-0.248105	-0.321933
H144	H	0.994096	0.251895	0.178067
H145	H	0.961701	-0.931834	-0.266756
H146	H	1.461701	-0.431834	0.233244
H147	H	0.618182	-0.278780	-0.413016
H148	H	1.118182	0.221220	0.086984
Cl149	Cl	1.098857	-0.789580	-0.199608
Cl150	Cl	1.598857	-0.289580	0.300392
H151	H	1.033385	-0.938432	-0.454771
H152	H	1.533385	-0.438432	0.045229
Cl153	Cl	1.009542	-0.801574	-0.477456
Cl154	Cl	1.509542	-0.301574	0.022544
H155	H	1.104847	-0.929431	-0.229206
H156	H	1.604847	-0.429431	0.270794
Cl157	Cl	0.932732	-0.496068	0.243410
Cl158	Cl	1.432732	0.003932	0.743410
H159	H	0.496234	-0.442743	-0.245942
H160	H	0.996234	0.057257	0.254058
Cl161	Cl	1.204001	-0.945006	-0.303548
Cl162	Cl	1.704001	-0.445006	0.196452
Cl163	Cl	0.635036	-0.476975	-0.241161
Cl164	Cl	1.135036	0.023025	0.258839
Cl165	Cl	1.204670	-0.794540	-0.303918
Cl166	Cl	1.704670	-0.294540	0.196082
H167	H	0.625854	-0.348735	-0.222286
H168	H	1.125854	0.151265	0.277714
Cl169	Cl	0.939815	-0.488805	0.409287
Cl170	Cl	1.439815	0.011195	0.909287
Cl171	Cl	0.488350	-0.320373	-0.202126
Cl172	Cl	0.988350	0.179627	0.297874
H173	H	0.487798	-0.419903	-0.447842
H174	H	0.987798	0.080097	0.052158
H175	H	1.131477	-0.936561	-0.428834
H176	H	1.631477	-0.436561	0.071166
Cl177	Cl	1.160814	-0.798189	-0.438307
Cl178	Cl	1.660814	-0.298189	0.061693
Cl179	Cl	1.152115	-0.273518	0.408372
Cl180	Cl	1.652115	0.226482	0.908372
Cl181	Cl	0.958049	-0.791887	-0.233976
Cl182	Cl	1.458049	-0.291887	0.266024
Cl183	Cl	0.907701	-0.795979	-0.375080
Cl184	Cl	1.407701	-0.295979	0.124920
H185	H	0.934609	-0.934273	-0.359620
H186	H	1.434609	-0.434273	0.140380
