data_functionalizedCrystal
_audit_creation_method	'MofGen! by Chris Wilmer'
_symmetry_space_group_name_H-M	'P1'
_symmetry_Int_Tables_number	1
_symmetry_cell_setting	triclinic
loop_
_symmetry_equiv_pos_as_xyz
  x,y,z
_cell_length_a	15.944551
_cell_length_b	14.421503
_cell_length_c	15.944551
_cell_angle_alpha	90.003340
_cell_angle_beta	96.501262
_cell_angle_gamma	90.003141
loop_
_atom_site_label
_atom_site_type_symbol
_atom_site_fract_x
_atom_site_fract_y
_atom_site_fract_z
O1	O	1.114529	0.077017	-0.108320
O2	O	0.869980	0.077040	-0.121677
O3	O	0.998933	0.077020	0.007276
O4	O	0.985576	0.077038	-0.237273
O5	O	0.998911	-0.077204	0.007257
O6	O	0.869958	-0.077183	-0.121696
O7	O	1.114508	-0.077206	-0.108340
Cu8	Cu	0.992231	-0.091277	-0.115020
Cu9	Cu	0.992256	0.091110	-0.114997
O10	O	0.985555	-0.077186	-0.237293
C11	C	0.838675	-0.000069	-0.121132
C12	C	0.745429	-0.000060	-0.119470
C13	C	0.530572	-0.000084	-0.035565
C14	C	0.469563	0.075959	-0.074518
C15	C	0.574703	-0.000071	-0.116462
C16	C	0.469564	-0.076093	-0.074556
C17	C	0.409790	-0.000086	-0.113551
C18	C	0.514922	0.076035	-0.155437
C19	C	0.514929	-0.076086	-0.155464
C20	C	0.453937	-0.000024	-0.194476
C21	C	0.669705	-0.000062	-0.118137
C22	C	0.314789	-0.000089	-0.111883
N23	N	0.992219	-0.219558	-0.115035
C24	C	0.932581	-0.469202	-0.174636
C25	C	1.008481	-0.531011	-0.190943
C26	C	0.992240	-0.408719	-0.115015
C27	C	0.916359	-0.531005	-0.098727
C28	C	0.992253	-0.591441	-0.114997
C29	C	1.068178	-0.469167	-0.131360
C30	C	0.976007	-0.469156	-0.039111
C31	C	1.051961	-0.530936	-0.055386
C32	C	0.992231	-0.303458	-0.115027
C33	C	0.992270	-0.696700	-0.114985
C34	C	1.145813	-0.000096	-0.108885
C35	C	1.239059	-0.000098	-0.110547
C36	C	0.998367	-0.000092	0.038561
C37	C	0.996705	-0.000093	0.131807
N38	N	0.992275	0.219392	-0.114975
C39	C	0.986120	-0.000072	-0.268577
C40	C	0.987782	-0.000066	-0.361823
C41	C	0.912801	-0.000072	0.346663
C42	C	0.951753	-0.076117	0.407671
C43	C	0.993698	-0.000085	0.302533
C44	C	0.951793	0.075935	0.407674
C45	C	0.990787	-0.000074	0.467445
C46	C	1.032672	-0.076193	0.362312
C47	C	1.032701	0.075927	0.362308
C48	C	1.071711	-0.000136	0.423298
C49	C	0.995372	-0.000092	0.207530
C50	C	0.989119	-0.000073	0.562446
H51	H	0.563905	0.000005	0.031573
H52	H	1.066897	0.140214	0.342186
H53	H	0.917575	0.140230	0.427758
Br54	Br	1.183726	-0.000212	0.478568
Br55	Br	0.548244	0.183305	-0.212412
Br56	Br	0.436062	0.183108	-0.017481
H57	H	1.022224	-0.558180	-0.255126
Br58	Br	0.548471	-0.183236	-0.212462
H59	H	0.420779	0.000023	-0.261683
H60	H	0.845652	-0.000141	0.313356
H61	H	0.449469	-0.140379	-0.040333
Br62	Br	0.953064	-0.423832	0.067833
H63	H	0.882181	-0.442096	-0.225096
Br64	Br	1.175170	-0.424092	-0.154432
Br65	Br	1.136147	-0.575839	0.028668
H66	H	0.917527	-0.140401	0.427771
Br67	Br	0.809397	-0.576283	-0.075777
H68	H	1.066850	-0.140554	0.342314
