data_functionalizedCrystal
_audit_creation_method	'MofGen! by Chris Wilmer'
_symmetry_space_group_name_H-M	'P1'
_symmetry_Int_Tables_number	1
_symmetry_cell_setting	triclinic
loop_
_symmetry_equiv_pos_as_xyz
  x,y,z
_cell_length_a	16.109301
_cell_length_b	15.995350
_cell_length_c	14.586319
_cell_angle_alpha	89.998440
_cell_angle_beta	89.999213
_cell_angle_gamma	83.476928
loop_
_atom_site_label
_atom_site_type_symbol
_atom_site_fract_x
_atom_site_fract_y
_atom_site_fract_z
O1	O	1.103160	0.107624	-0.076178
O2	O	0.861101	0.121018	-0.076192
O3	O	0.988747	-0.007569	-0.076184
O4	O	0.975514	0.236210	-0.076186
O5	O	0.988739	-0.007570	0.076297
O6	O	0.861093	0.121016	0.076289
O7	O	1.103151	0.107622	0.076303
Cu8	Cu	0.982121	0.114319	0.090219
Cu9	Cu	0.982131	0.114321	-0.090107
O10	O	0.975505	0.236208	0.076295
C11	C	0.830122	0.120474	0.000047
C12	C	0.737826	0.118848	0.000041
C13	C	0.988196	-0.038764	0.000055
C14	C	0.986556	-0.131714	0.000050
C15	C	0.515573	0.191366	0.000051
C16	C	0.428853	0.189831	0.000057
C17	C	0.448686	0.037268	0.000055
C18	C	0.535405	0.038804	0.000055
C19	C	0.568846	0.115855	0.000049
C20	C	0.395406	0.112785	0.000054
C21	C	0.301380	0.111120	0.000061
C22	C	0.662879	0.117520	0.000044
C23	C	0.980665	-0.469460	0.000053
C24	C	0.889758	-0.422001	-0.000295
C25	C	0.891399	-0.325311	0.000049
C26	C	0.983587	-0.301900	0.000051
C27	C	1.028421	-0.342991	0.087126
C28	C	1.026137	-0.439626	0.087198
C29	C	1.028025	-0.439983	-0.086201
C30	C	1.028003	-0.343037	-0.087351
C31	C	0.985243	-0.207203	0.000053
C32	C	0.979012	-0.564157	0.000057
C33	C	1.134130	0.108166	0.000062
C34	C	1.226426	0.109792	0.000062
C35	C	0.976056	0.267404	0.000054
C36	C	0.977697	0.360354	0.000053
N37	N	0.982120	0.114317	0.217050
N38	N	0.982139	0.114317	-0.216939
C39	C	1.038660	0.057398	0.452061
C40	C	1.038662	0.057396	0.548042
C41	C	0.925593	0.171238	0.548044
C42	C	0.925587	0.171236	0.452064
C43	C	0.982125	0.114316	0.404075
C44	C	0.982134	0.114317	0.596036
C45	C	0.982136	0.114315	0.700103
C46	C	0.982122	0.114317	0.300001
H47	H	0.385481	0.251320	0.000061
C48	C	0.411898	-0.047485	0.000056
C49	C	0.470499	-0.130547	0.000058
C50	C	0.433714	-0.215302	0.000058
C51	C	0.338327	-0.216997	0.000054
C52	C	0.279720	-0.133932	0.000051
C53	C	0.316505	-0.049177	0.000052
H54	H	0.541116	-0.129295	0.000061
H55	H	0.477099	-0.276792	0.000060
H56	H	0.311096	-0.279738	0.000053
H57	H	0.209103	-0.135183	0.000048
H58	H	0.273120	0.012313	0.000050
C59	C	1.118572	-0.482912	-0.087002
C60	C	1.192038	-0.429198	-0.084309
C61	C	1.282581	-0.472130	-0.085104
C62	C	1.299658	-0.568776	-0.088591
C63	C	1.226189	-0.622495	-0.091284
C64	C	1.135646	-0.579563	-0.090489
H65	H	1.179399	-0.357650	-0.081728
H66	H	1.336967	-0.432363	-0.083110
H67	H	1.366683	-0.600557	-0.089179
H68	H	1.238829	-0.694043	-0.093866
H69	H	1.081260	-0.619330	-0.092483
C70	C	0.986343	-0.304650	0.174667
C71	C	0.983380	-0.209542	0.192973
C72	C	0.941296	-0.171203	0.280511
C73	C	0.902177	-0.227971	0.349743
C74	C	0.905139	-0.323085	0.331439
C75	C	0.947223	-0.361424	0.243901
H76	H	1.012339	-0.167514	0.141721
H77	H	0.939104	-0.100794	0.294060
H78	H	0.871024	-0.199590	0.414544
H79	H	0.876180	-0.365113	0.382691
H80	H	0.949415	-0.431834	0.230352
H81	H	0.879546	0.217586	0.412992
H82	H	0.853427	-0.440522	-0.062738
H83	H	0.578782	-0.022690	0.000056
C84	C	0.552359	0.276121	0.000053
C85	C	0.609246	0.298165	-0.079127
C86	C	0.646028	0.382923	-0.079123
C87	C	0.625923	0.445635	0.000061
C88	C	0.569033	0.423592	0.079246
C89	C	0.532251	0.338835	0.079242
H90	H	0.624131	0.251740	-0.137749
H91	H	0.688142	0.399240	-0.137742
H92	H	0.653151	0.508378	0.000064
H93	H	0.554148	0.470018	0.137868
H94	H	0.490138	0.322518	0.137861
C95	C	1.119917	-0.323933	0.091513
C96	C	1.155071	-0.270710	0.015899
C97	C	1.246566	-0.251651	0.020285
C98	C	1.302908	-0.285814	0.100286
C99	C	1.267754	-0.339040	0.175906
C100	C	1.176259	-0.358099	0.171520
H101	H	1.113362	-0.245418	-0.043328
H102	H	1.272588	-0.212249	-0.035695
H103	H	1.370638	-0.271705	0.103532
H104	H	1.309462	-0.364332	0.235133
H105	H	1.150236	-0.397501	0.227500
H106	H	0.856156	-0.296879	-0.062370
C107	C	1.116296	-0.483223	0.092561
C108	C	1.190141	-0.430074	0.096767
C109	C	1.280298	-0.473666	0.102139
C110	C	1.296610	-0.570407	0.103306
C111	C	1.222763	-0.623561	0.099100
C112	C	1.132606	-0.579969	0.093727
H113	H	1.178068	-0.358456	0.095903
H114	H	1.334965	-0.434318	0.105253
H115	H	1.363350	-0.602676	0.107283
H116	H	1.234836	-0.695179	0.099963
H117	H	1.077940	-0.619318	0.090613
H118	H	1.084696	0.011050	0.412990
H119	H	1.084697	0.011047	0.587109
H120	H	0.998307	-0.460513	-0.152198
H121	H	0.879562	0.217582	0.587126
C122	C	0.840880	-0.448451	0.083586
C123	C	0.883148	-0.512899	0.152300
C124	C	0.834272	-0.539352	0.236181
C125	C	0.743127	-0.501357	0.251347
C126	C	0.700853	-0.436906	0.182631
C127	C	0.749730	-0.410453	0.098750
H128	H	0.950624	-0.541028	0.141075
H129	H	0.865566	-0.587063	0.287050
H130	H	0.706945	-0.520939	0.313441
H131	H	0.633378	-0.408777	0.193856
H132	H	0.718435	-0.362742	0.047882
H133	H	0.855912	-0.297438	0.062570
C134	C	0.983744	-0.306136	-0.174353
C135	C	0.890793	-0.315652	-0.190325
C136	C	0.846512	-0.278741	-0.277311
C137	C	0.895182	-0.232314	-0.348325
C138	C	0.988139	-0.222796	-0.332355
C139	C	1.032420	-0.259707	-0.245369
H140	H	0.854760	-0.350022	-0.137754
H141	H	0.777699	-0.285788	-0.289133
H142	H	0.862403	-0.204990	-0.412718
H143	H	1.024172	-0.188426	-0.384926
H144	H	1.101233	-0.252661	-0.233547
H145	H	0.993437	-0.457919	0.152287
H146	H	1.095231	-0.327694	-0.092608
