data_functionalizedCrystal
_audit_creation_method	'MofGen! by Chris Wilmer'
_symmetry_space_group_name_H-M	'P1'
_symmetry_Int_Tables_number	1
_symmetry_cell_setting	triclinic
loop_
_symmetry_equiv_pos_as_xyz
  x,y,z
_cell_length_a	19.077105
_cell_length_b	18.101397
_cell_length_c	18.101390
_cell_angle_alpha	89.964547
_cell_angle_beta	87.685241
_cell_angle_gamma	87.716700
loop_
_atom_site_label
_atom_site_type_symbol
_atom_site_fract_x
_atom_site_fract_y
_atom_site_fract_z
Zn1	Zn	1.075991	-0.340357	-0.464148
Zn2	Zn	1.075917	-0.464211	-0.340298
Zn3	Zn	0.958298	-0.335408	-0.335352
Zn4	Zn	0.958270	-0.459177	-0.459131
O5	O	1.017119	-0.399788	-0.399732
O6	O	1.174472	-0.360964	-0.451889
O7	O	1.060296	-0.447160	-0.236008
O8	O	0.973953	-0.232433	-0.352467
O9	O	1.174418	-0.451959	-0.360896
O10	O	1.060422	-0.236069	-0.447093
O11	O	0.973881	-0.352529	-0.232374
O12	O	0.859803	-0.347648	-0.347602
O13	O	0.973905	-0.443380	-0.563430
O14	O	0.859782	-0.438581	-0.438541
O15	O	1.060394	-0.356083	-0.567116
O16	O	1.060268	-0.567174	-0.356031
O17	O	0.973833	-0.563476	-0.443337
C18	C	0.834255	-0.392032	-0.391991
C19	C	0.756025	-0.388732	-0.388697
C20	C	0.719280	-0.434596	-0.434422
C21	C	0.645775	-0.431486	-0.431330
C22	C	0.609016	-0.382513	-0.382509
C23	C	0.645766	-0.336644	-0.336782
C24	C	0.719270	-0.339751	-0.339878
C25	C	0.389181	-0.368131	-0.368184
C26	C	0.315672	-0.365029	-0.365090
C27	C	0.315686	-0.459870	-0.459640
C28	C	0.389191	-0.462977	-0.462729
C29	C	0.425935	-0.417104	-0.417004
N30	N	0.533881	-0.379334	-0.379346
N31	N	0.501068	-0.420280	-0.420171
C32	C	1.017059	-0.592196	-0.399694
C33	C	1.017097	-0.674512	-0.399705
C34	C	1.017187	-0.973607	-0.399776
C35	C	1.071418	-0.944571	-0.344686
C36	C	1.071606	-0.858960	-0.344842
C37	C	1.017143	-0.825222	-0.399740
C38	C	1.037247	-0.857074	-0.478649
C39	C	1.037667	-0.942737	-0.478355
C40	C	0.942707	-0.938964	-0.376626
C41	C	0.943075	-0.853330	-0.374899
C42	C	1.017116	-0.741362	-0.399724
C43	C	1.017215	-1.057467	-0.399797
C44	C	1.200697	-0.407575	-0.407504
C45	C	1.278927	-0.410894	-0.410816
C46	C	1.017155	-0.399722	-0.592895
C47	C	1.017170	-0.399694	-0.675210
C48	C	1.017199	-0.206630	-0.399788
C49	C	1.017232	-0.124317	-0.399811
C50	C	1.017195	-0.399672	-0.825920
C51	C	1.071614	-0.344742	-0.859593
C52	C	1.071841	-0.344907	-0.945221
C53	C	1.017220	-0.399649	-0.974304
C54	C	1.037074	-0.478601	-0.944028
C55	C	1.037454	-0.478300	-0.858399
C56	C	0.942791	-0.376322	-0.854337
C57	C	0.943204	-0.374604	-0.940006
C58	C	1.017233	-0.399641	-1.058164
C59	C	1.017184	-0.399686	-0.742060
C60	C	1.017124	-0.399802	-0.207322
C61	C	1.017245	-0.399627	-0.125013
H62	H	1.058993	-0.964693	-0.286107
O63	O	0.986192	-0.534471	-0.968807
H64	H	0.960007	-0.559629	-0.919600
O65	O	1.109779	-0.972176	-0.503846
H66	H	1.110793	-1.033527	-0.503894
H67	H	1.059029	-0.837471	-0.286430
H68	H	0.928227	-0.316486	-0.959713
H69	H	0.900517	-0.411416	-0.959568
H70	H	1.059436	-0.286472	-0.965737
O71	O	0.987225	-0.534604	-0.828766
H72	H	1.004147	-0.590241	-0.850091
H73	H	1.090854	-0.498264	-0.967770
H74	H	1.126981	-0.360626	-0.968044
H75	H	0.924655	-0.319575	-0.831980
H76	H	1.126777	-0.840752	-0.360408
O77	O	1.109488	-0.503973	-0.834976
H78	H	1.143724	-0.516483	-0.884795
O79	O	0.922988	-0.825650	-0.297959
H80	H	0.873637	-0.791158	-0.299385
O81	O	1.055392	-0.267107	-0.831663
H82	H	1.100888	-0.247554	-0.801868
H83	H	0.285745	-0.325141	-0.325338
H84	H	0.902249	-0.416289	-0.832331
H85	H	0.615831	-0.296766	-0.297033
O86	O	0.428814	-0.318666	-0.318867
H87	H	0.462283	-0.353188	-0.282548
H88	H	0.285761	-0.497216	-0.496868
O89	O	0.758902	-0.290289	-0.290549
H90	H	0.744810	-0.231586	-0.302755
O91	O	0.758927	-0.487414	-0.487083
H92	H	0.721024	-0.518777	-0.518365
O93	O	0.606216	-0.481027	-0.480646
H94	H	0.572742	-0.446591	-0.517035
H95	H	0.998955	-0.835090	-0.520935
H96	H	1.126287	-0.968361	-0.360086
O97	O	0.428839	-0.515790	-0.515393
H98	H	0.390939	-0.547155	-0.546676
H99	H	0.999897	-0.961861	-0.520986
O100	O	1.108557	-0.831617	-0.504490
H101	H	1.129794	-0.796293	-0.461268
H102	H	0.924417	-0.959855	-0.319919
H103	H	0.900496	-0.830139	-0.411834
O104	O	0.889147	-0.963683	-0.429610
H105	H	0.915404	-1.000443	-0.472239
O106	O	1.144235	-0.365342	-0.834181
H107	H	1.141739	-0.414534	-0.797672
