data_functionalizedCrystal
_audit_creation_method	'MofGen! by Chris Wilmer'
_symmetry_space_group_name_H-M	'P1'
_symmetry_Int_Tables_number	1
_symmetry_cell_setting	triclinic
loop_
_symmetry_equiv_pos_as_xyz
  x,y,z
_cell_length_a	19.288864
_cell_length_b	11.792241
_cell_length_c	17.766277
_cell_angle_alpha	89.993523
_cell_angle_beta	89.976791
_cell_angle_gamma	83.664831
loop_
_atom_site_label
_atom_site_type_symbol
_atom_site_fract_x
_atom_site_fract_y
_atom_site_fract_z
O1	O	0.922157	0.141582	-0.062836
O2	O	0.720005	0.160681	-0.062785
O3	O	0.825987	-0.014113	-0.062806
O4	O	0.816176	0.316377	-0.062814
O5	O	0.825968	-0.014122	0.062382
O6	O	0.719986	0.160673	0.062404
O7	O	0.922139	0.141573	0.062352
Cu8	Cu	0.821061	0.151122	0.073809
Cu9	Cu	0.821083	0.151133	-0.074241
O10	O	0.816157	0.316368	0.062374
C11	C	0.694116	0.160063	-0.000184
C12	C	0.617002	0.158218	-0.000164
C13	C	0.572888	0.260779	-0.000178
C14	C	0.500431	0.259046	-0.000187
C15	C	0.472091	0.154746	-0.000196
C16	C	0.516215	0.052171	-0.000177
C17	C	0.588670	0.053907	-0.000161
C18	C	0.363370	0.072757	-0.044078
C19	C	0.290916	0.071025	-0.044099
C20	C	0.248615	0.149387	-0.000241
C21	C	0.278776	0.229499	0.043627
C22	C	0.351232	0.231235	0.043643
C23	C	0.393526	0.152852	-0.000212
C24	C	0.125935	0.250076	-0.000263
C25	C	0.053477	0.248339	-0.000267
C26	C	0.069262	0.041460	-0.000265
C27	C	0.141718	0.043201	-0.000254
C28	C	0.170050	0.147512	-0.000257
C29	C	0.825361	-0.056399	-0.000212
C30	C	0.823517	-0.182385	-0.000212
C31	C	0.820125	-0.413045	-0.000224
C32	C	0.822009	-0.284689	-0.000218
C33	C	0.948028	0.142192	-0.000250
C34	C	1.025142	0.144037	-0.000275
C35	C	0.816783	0.358654	-0.000222
C36	C	0.818627	0.484640	-0.000226
N37	N	0.821050	0.151114	0.177939
N38	N	0.821099	0.151132	-0.178371
C39	C	0.867994	0.073753	0.217316
C40	C	0.867998	0.073748	0.296118
C41	C	0.821065	0.151123	0.335540
C42	C	0.774112	0.228490	0.296153
C43	C	0.774105	0.228486	0.217353
C44	C	0.812354	0.254534	0.460377
C45	C	0.812366	0.254540	0.539175
C46	C	0.821084	0.151137	0.578586
C47	C	0.829804	0.047723	0.539188
C48	C	0.829797	0.047719	0.460388
C49	C	0.821067	0.151136	0.420985
C50	C	0.868035	0.073764	0.703409
C51	C	0.868034	0.073757	0.782213
C52	C	0.774151	0.228509	0.782246
C53	C	0.774148	0.228506	0.703444
C54	C	0.821094	0.151135	0.664030
H55	H	0.493136	-0.032752	-0.000195
H56	H	0.735876	0.291484	0.185291
N57	N	0.040334	-0.065092	-0.000282
N58	N	0.079734	-0.156660	-0.000277
H59	H	0.059302	-0.231917	-0.000287
N60	N	0.260125	-0.010819	-0.088907
N61	N	0.276184	-0.115090	-0.077840
H62	H	0.254441	-0.172898	-0.109487
N63	N	0.186774	-0.061575	-0.000241
N64	N	0.161465	-0.154696	-0.000246
H65	H	0.193285	-0.228700	-0.000235
H66	H	0.906259	0.010754	0.814274
H67	H	0.836895	-0.036484	0.428313
N68	N	0.803458	0.360156	0.420112
N69	N	0.803455	0.360139	0.349756
H70	H	0.797172	0.434731	0.321318
N71	N	0.726219	0.307562	0.822505
N72	N	0.727564	0.412464	0.813695
H73	H	0.693710	0.468297	0.842133
N74	N	0.726171	0.307513	0.336429
N75	N	0.726183	0.307508	0.406785
H76	H	0.692321	0.363316	0.435231
H77	H	0.149004	0.335012	-0.000255
H78	H	0.906219	0.010750	0.185228
N79	N	0.406588	-0.007287	-0.088872
N80	N	0.452276	-0.075409	-0.058226
H81	H	0.482801	-0.131938	-0.089859
N82	N	0.633735	-0.050862	-0.000135
N83	N	0.630902	-0.120313	0.052638
H84	H	0.662731	-0.194307	0.052657
H85	H	0.017560	0.331860	-0.000274
H86	H	0.906227	0.010749	0.328185
H87	H	0.595951	0.345717	-0.000182
H88	H	0.836902	-0.036478	0.571275
H89	H	0.244336	0.293308	0.079341
N90	N	0.915903	-0.005414	0.663156
N91	N	0.957753	-0.074586	0.698328
H92	H	0.991528	-0.130560	0.669901
N93	N	0.455369	0.363825	-0.000197
N94	N	0.480675	0.456948	-0.000195
H95	H	0.448852	0.530950	-0.000203
N96	N	0.726191	0.307538	0.663228
N97	N	0.684286	0.376615	0.698431
H98	H	0.650411	0.432433	0.670030
H99	H	0.805270	0.338745	0.571247
H100	H	0.375786	0.296462	0.079364
