data_functionalizedCrystal
_audit_creation_method	'MofGen! by Chris Wilmer'
_symmetry_space_group_name_H-M	'P1'
_symmetry_Int_Tables_number	1
_symmetry_cell_setting	triclinic
loop_
_symmetry_equiv_pos_as_xyz
  x,y,z
_cell_length_a	23.532361
_cell_length_b	23.532357
_cell_length_c	22.010155
_cell_angle_alpha	89.998697
_cell_angle_beta	89.995873
_cell_angle_gamma	82.828980
loop_
_atom_site_label
_atom_site_type_symbol
_atom_site_fract_x
_atom_site_fract_y
_atom_site_fract_z
O1	O	0.755269	0.069002	-0.050471
O2	O	1.255269	0.569002	0.449529
O3	O	0.589400	0.079033	-0.050487
O4	O	1.089400	0.579033	0.449513
O5	O	0.677351	-0.008917	-0.050466
O6	O	1.177351	0.491083	0.449534
O7	O	0.667317	0.156952	-0.050492
O8	O	1.167317	0.656952	0.449508
O9	O	0.677335	-0.008903	0.050584
O10	O	1.177335	0.491097	0.550584
O11	O	0.589384	0.079047	0.050563
O12	O	1.089384	0.579047	0.550563
O13	O	0.755253	0.069015	0.050579
O14	O	1.255253	0.569015	0.550579
Cu15	Cu	0.672317	0.074032	0.059798
Cu16	Cu	1.172317	0.574032	0.559798
Cu17	Cu	0.672336	0.074017	-0.059706
Cu18	Cu	1.172336	0.574017	0.440294
O19	O	0.667302	0.156966	0.050558
O20	O	1.167302	0.656966	0.550558
C21	C	0.568175	0.078789	0.000036
C22	C	1.068175	0.578789	0.500036
C23	C	0.504957	0.078034	0.000031
C24	C	1.004957	0.578034	0.500031
C25	C	0.231722	0.074723	-0.055047
C26	C	0.731722	0.574723	0.444953
C27	C	0.291122	0.075438	-0.055049
C28	C	0.791122	0.575438	0.444951
O29	O	0.321855	0.075782	-0.101894
O30	O	0.821855	0.575782	0.398106
N31	N	0.320819	0.075806	0.000034
N32	N	0.820819	0.575806	0.500034
C33	C	0.291114	0.075454	0.055122
C34	C	0.791114	0.575454	0.555122
O35	O	0.321828	0.075832	0.101974
O36	O	0.821828	0.575832	0.601974
C37	C	0.231716	0.074735	0.055123
C38	C	0.731716	0.574735	0.555123
C39	C	0.202021	0.074372	0.000036
C40	C	0.702021	0.574372	0.500036
C41	C	0.202028	0.074360	-0.110129
C42	C	0.702028	0.574360	0.389871
C43	C	0.142632	0.073646	-0.110127
C44	C	0.642632	0.573646	0.389873
C45	C	0.112931	0.073295	-0.055044
C46	C	0.612931	0.573295	0.444956
C47	C	0.142626	0.073658	0.000038
C48	C	0.642626	0.573658	0.500038
C49	C	0.202013	0.074378	0.110210
C50	C	0.702013	0.574378	0.610210
C51	C	0.142611	0.073659	0.110206
C52	C	0.642611	0.573659	0.610206
C53	C	0.112916	0.073296	0.055120
C54	C	0.612916	0.573296	0.555120
C55	C	0.053529	0.072594	0.055124
C56	C	0.553529	0.572594	0.555124
N57	N	0.023832	0.072225	0.000041
N58	N	0.523832	0.572225	0.500041
C59	C	0.053533	0.072576	-0.055043
C60	C	0.553533	0.572576	0.444957
C61	C	0.415854	0.076963	0.055115
C62	C	0.915854	0.576963	0.555115
C63	C	0.475250	0.077686	0.055115
C64	C	0.975250	0.577686	0.555115
C65	C	0.475254	0.077669	-0.055056
C66	C	0.975254	0.577669	0.444944
C67	C	0.415856	0.076950	-0.055055
C68	C	0.915856	0.576950	0.444945
C69	C	0.386157	0.076594	0.000033
C70	C	0.886157	0.576594	0.500033
C71	C	-0.071202	0.071078	-0.055035
C72	C	0.428798	0.571078	0.444965
C73	C	-0.130604	0.070366	-0.055028
C74	C	0.369396	0.570366	0.444972
C75	C	-0.130602	0.070380	0.055142
C76	C	0.369398	0.570380	0.555142
C77	C	-0.071206	0.071095	0.055136
C78	C	0.428794	0.571095	0.555136
C79	C	-0.041508	0.071441	0.000043
C80	C	0.458492	0.571441	0.500043
O81	O	0.022758	0.072247	0.101944
O82	O	0.522758	0.572247	0.601944
O83	O	0.022813	0.072190	-0.101887
O84	O	0.522813	0.572190	0.398113
C85	C	0.677092	-0.030127	0.000061
C86	C	1.177092	0.469873	0.500061
C87	C	0.676337	-0.093345	0.000066
C88	C	1.176337	0.406655	0.500066
C89	C	0.671609	-0.485363	-0.055049
C90	C	1.171609	0.014637	0.444951
C91	C	0.670892	-0.544762	-0.055053
C92	C	1.170892	-0.044762	0.444947
O93	O	0.670509	-0.575484	-0.101899
O94	O	1.170509	-0.075484	0.398101
N95	N	0.670527	-0.574466	0.000029
N96	N	1.170527	-0.074466	0.500029
C97	C	0.670875	-0.544767	0.055118
C98	C	1.170875	-0.044767	0.555118
O99	O	0.670498	-0.575486	0.101969
O100	O	1.170498	-0.075486	0.601969
C101	C	0.671588	-0.485368	0.055121
C102	C	1.171588	0.014632	0.555121
C103	C	0.671958	-0.455668	0.000035
C104	C	1.171958	0.044332	0.500035
C105	C	0.671979	-0.455663	-0.110130
C106	C	1.171979	0.044337	0.389870
C107	C	0.672697	-0.396267	-0.110127
C108	C	1.172697	0.103733	0.389873
C109	C	0.673046	-0.366573	-0.055042
C110	C	1.173046	0.133427	0.444958
C111	C	0.672676	-0.396273	0.000039
C112	C	1.172676	0.103727	0.500039
C113	C	0.671931	-0.455669	0.110209
C114	C	1.171931	0.044331	0.610209
C115	C	0.672643	-0.396266	0.110207
C116	C	1.172643	0.103734	0.610207
C117	C	0.673014	-0.366566	0.055122
C118	C	1.173014	0.133434	0.555122
C119	C	0.673743	-0.307183	0.055127
C120	C	1.173743	0.192817	0.555127
N121	N	0.674108	-0.277479	0.000046
N122	N	1.174108	0.222521	0.500046
C123	C	0.673759	-0.307174	-0.055039
C124	C	1.173759	0.192826	0.444961
C125	C	0.669376	-0.669508	0.055107
C126	C	1.169376	-0.169508	0.555107
C127	C	0.668667	-0.728906	0.055105
C128	C	1.168667	-0.228906	0.555105
C129	C	0.668683	-0.728897	-0.055066
C130	C	1.168683	-0.228897	0.444934
C131	C	0.669396	-0.669499	-0.055063
C132	C	1.169396	-0.169499	0.444937
C133	C	0.669740	-0.639804	0.000026
C134	C	1.169740	-0.139804	0.500026
C135	C	0.675268	-0.182440	-0.055027
C136	C	1.175268	0.317560	0.444973
C137	C	0.675988	-0.123040	-0.055018
C138	C	1.175988	0.376960	0.444982
C139	C	0.675969	-0.123054	0.055152
C140	C	1.175969	0.376946	0.555152
C141	C	0.675251	-0.182449	0.055144
C142	C	1.175251	0.317551	0.555144
C143	C	0.674899	-0.212140	0.000049
C144	C	1.174899	0.287860	0.500049
O145	O	0.674124	-0.276422	0.101949
O146	O	1.174124	0.223578	0.601949
O147	O	0.674128	-0.276446	-0.101882
O148	O	1.174128	0.223554	0.398118
C149	C	0.776477	0.069260	0.000054
C150	C	1.276477	0.569260	0.500054
C151	C	0.839695	0.070015	0.000056
C152	C	1.339695	0.570015	0.500056
C153	C	0.667560	0.178176	0.000030
C154	C	1.167560	0.678176	0.500030
C155	C	0.668315	0.241394	0.000020
C156	C	1.168315	0.741394	0.500020
N157	N	0.672308	0.074043	0.143850
N158	N	1.172308	0.574043	0.643850
N159	N	0.672349	0.074002	-0.143758
N160	N	1.172349	0.574002	0.356242
C161	C	0.711283	0.035078	0.563639
C162	C	1.211283	0.535078	1.063639
C163	C	0.711285	0.035074	0.627246
C164	C	1.211285	0.535074	1.127246
O165	O	0.744400	0.001952	0.660146
O166	O	1.244400	0.501952	1.160146
N167	N	0.672335	0.074005	0.659057
N168	N	1.172335	0.574005	1.159057
C169	C	0.633376	0.112938	0.627257
C170	C	1.133376	0.612938	1.127257
O171	O	0.600246	0.146051	0.660156
O172	O	1.100246	0.646051	1.160156
C173	C	0.633371	0.112939	0.563651
C174	C	1.133371	0.612939	1.063651
C175	C	0.672328	0.074009	0.531843
C176	C	1.172328	0.574009	1.031843
C177	C	0.750235	-0.003849	0.531831
C178	C	1.250235	0.496151	1.031831
C179	C	0.750233	-0.003844	0.468228
C180	C	1.250233	0.496156	0.968228
C181	C	0.711278	0.035087	0.436432
C182	C	1.211278	0.535087	0.936432
C183	C	0.672326	0.074014	0.468240
C184	C	1.172326	0.574014	0.968240
C185	C	0.594410	0.151869	0.531852
C186	C	1.094410	0.651869	1.031852
C187	C	0.594408	0.151866	0.468241
C188	C	1.094408	0.651866	0.968241
C189	C	0.633365	0.112937	0.436434
C190	C	1.133365	0.612937	0.936434
C191	C	0.633369	0.112951	0.372841
C192	C	1.133369	0.612951	0.872841
N193	N	0.672319	0.074020	0.341030
N194	N	1.172319	0.574020	0.841030
C195	C	0.711273	0.035088	0.372826
C196	C	1.211273	0.535088	0.872826
C197	C	0.633389	0.112933	0.760835
C198	C	1.133389	0.612933	1.260835
C199	C	0.633396	0.112935	0.824440
C200	C	1.133396	0.612935	1.324440
C201	C	0.711304	0.035070	0.824425
C202	C	1.211304	0.535070	1.324425
C203	C	0.711299	0.035071	0.760819
C204	C	1.211299	0.535071	1.260819
C205	C	0.672339	0.074002	0.729024
C206	C	1.172339	0.574002	1.229024
C207	C	0.711266	0.035101	0.239255
C208	C	1.211266	0.535101	0.739255
C209	C	0.711262	0.035111	0.175646
C210	C	1.211262	0.535111	0.675646
C211	C	0.633352	0.112974	0.175667
C212	C	1.133352	0.612974	0.675667
C213	C	0.633358	0.112967	0.239270
C214	C	1.133358	0.612967	0.739270
C215	C	0.672317	0.074026	0.271062
C216	C	1.172317	0.574026	0.771062
O217	O	0.600269	0.146054	0.339902
O218	O	1.100269	0.646054	0.839902
O219	O	0.744393	0.001976	0.339920
O220	O	1.244393	0.501976	0.839920
H221	H	0.499448	0.077954	-0.099908
H222	H	0.999448	0.577954	0.400092
C223	C	0.669798	-0.636833	-0.115656
C224	C	1.169798	-0.136833	0.384344
H225	H	0.669485	-0.663030	-0.148460
H226	H	1.169485	-0.163030	0.351540
H227	H	0.703291	-0.618198	-0.117945
H228	H	1.203291	-0.118198	0.382055
H229	H	0.636854	-0.609125	-0.117950
H230	H	1.136854	-0.109125	0.382050
C231	C	0.507908	0.078087	0.115710
C232	C	1.007908	0.578087	0.615710
H233	H	0.481707	0.077771	0.148513
H234	H	0.981707	0.577771	0.648513
H235	H	0.526542	0.111581	0.118000
H236	H	1.026542	0.611581	0.618000
H237	H	0.535616	0.045143	0.118005
H238	H	1.035616	0.545143	0.618005
C239	C	0.671512	-0.488328	0.170802
C240	C	1.171512	0.011672	0.670802
H241	H	0.671038	-0.527958	0.162921
H242	H	1.171038	-0.027958	0.662921
H243	H	0.638405	-0.474045	0.193421
H244	H	1.138405	0.025955	0.693421
H245	H	0.704843	-0.483133	0.193445
H246	H	1.204843	0.016867	0.693445
C247	C	0.383188	0.076583	0.115715
C248	C	0.883188	0.576583	0.615715
H249	H	0.409384	0.076911	0.148517
H250	H	0.909384	0.576911	0.648517
H251	H	0.364556	0.043089	0.118019
H252	H	0.864556	0.543089	0.618019
H253	H	0.355477	0.109526	0.118000
H254	H	0.855477	0.609526	0.618000
C255	C	0.234664	0.074778	0.170806
C256	C	0.734664	0.574778	0.670806
H257	H	0.208460	0.074461	0.203606
H258	H	0.708460	0.574461	0.703606
H259	H	0.253294	0.108275	0.173097
H260	H	0.753294	0.608275	0.673097
H261	H	0.262375	0.041837	0.173105
H262	H	0.762375	0.541837	0.673105
C263	C	0.590501	0.155792	0.140684
C264	C	1.090501	0.655792	0.640684
H265	H	0.596078	0.150210	0.098247
H266	H	1.096078	0.650210	0.598247
H267	H	0.596454	0.193774	0.151102
H268	H	1.096454	0.693774	0.651102
H269	H	0.552530	0.149795	0.151112
H270	H	1.052530	0.649795	0.651112
C271	C	0.754153	-0.007758	0.859406
C272	C	1.254153	0.492242	1.359406
H273	H	0.777356	-0.030943	0.831356
H274	H	1.277356	0.469057	1.331356
H275	H	0.733804	-0.031357	0.884221
H276	H	1.233804	0.468643	1.384221
H277	H	0.777741	0.012609	0.884215
H278	H	1.277741	0.512609	1.384215
H279	H	0.601642	0.144672	0.265168
H280	H	1.101642	0.644672	0.765168
C281	C	0.668293	-0.761568	-0.115659
C282	C	1.168293	-0.261568	0.384341
H283	H	0.667808	-0.801196	-0.107767
H284	H	1.167808	-0.301196	0.392233
H285	H	0.701628	-0.756377	-0.138293
H286	H	1.201628	-0.256377	0.361707
H287	H	0.635191	-0.747294	-0.138291
H288	H	1.135191	-0.247294	0.361709
C289	C	0.109944	0.073271	0.170804
C290	C	0.609944	0.573271	0.670804
H291	H	0.136139	0.073595	0.203607
H292	H	0.636139	0.573595	0.703607
H293	H	0.091310	0.039777	0.173102
H294	H	0.591310	0.539777	0.673102
H295	H	0.082235	0.106215	0.173091
H296	H	0.582235	0.606215	0.673091
C297	C	0.793096	-0.046654	0.433245
C298	C	1.293096	0.453346	0.933245
H299	H	0.787529	-0.041075	0.390807
H300	H	1.287529	0.458925	0.890807
H301	H	0.787151	-0.084638	0.443664
H302	H	1.287151	0.415362	0.943664
H303	H	0.831063	-0.040647	0.443676
H304	H	1.331063	0.459353	0.943676
H305	H	0.118460	0.073348	-0.154984
H306	H	0.618460	0.573348	0.345016
H307	H	0.562680	0.183568	0.442357
H308	H	1.062680	0.683568	0.942357
C309	C	-0.163264	0.069966	-0.115625
C310	C	0.336736	0.569966	0.384375
H311	H	-0.137064	0.070271	-0.148430
H312	H	0.362936	0.570271	0.351570
H313	H	-0.190975	0.102903	-0.117923
H314	H	0.309025	0.602903	0.382077
H315	H	-0.181895	0.036466	-0.117910
H316	H	0.318105	0.536466	0.382090
H317	H	0.743021	0.003371	0.734925
H318	H	1.243021	0.503371	1.234925
C319	C	0.793089	-0.046676	0.566799
C320	C	1.293089	0.453324	1.066799
H321	H	0.787518	-0.041111	0.609239
H322	H	1.287518	0.458889	1.109239
H323	H	0.831057	-0.040687	0.556363
H324	H	1.331057	0.459313	1.056363
H325	H	0.787123	-0.084656	0.556373
H326	H	1.287123	0.415344	1.056373
H327	H	0.601680	0.144641	0.850334
H328	H	1.101680	0.644641	1.350334
C329	C	-0.038543	0.071466	-0.115636
C330	C	0.461457	0.571466	0.384364
H331	H	-0.064743	0.071153	-0.148436
H332	H	0.435257	0.571153	0.351564
H333	H	-0.010830	0.038530	-0.117931
H334	H	0.489170	0.538530	0.382069
H335	H	-0.019915	0.104967	-0.117932
H336	H	0.480085	0.604967	0.382068
H337	H	0.601664	0.144640	0.734951
H338	H	1.101664	0.644640	1.234951
C339	C	0.673024	-0.363606	0.170806
C340	C	1.173024	0.136394	0.670806
H341	H	0.672705	-0.389806	0.203608
H342	H	1.172705	0.110194	0.703608
H343	H	0.640088	-0.335893	0.173095
H344	H	1.140088	0.164107	0.673095
H345	H	0.706525	-0.344978	0.173104
H346	H	1.206525	0.155022	0.673104
C347	C	0.673101	-0.363602	-0.170719
C348	C	1.173101	0.136398	0.329281
H349	H	0.673582	-0.323972	-0.162836
H350	H	1.173582	0.176028	0.337164
H351	H	0.639771	-0.368799	-0.193356
H352	H	1.139771	0.131201	0.306644
H353	H	0.706209	-0.377880	-0.193346
H354	H	1.206209	0.122120	0.306654
C355	C	0.674846	-0.215120	0.115736
C356	C	1.174846	0.284880	0.615736
H357	H	0.675154	-0.188925	0.148542
H358	H	1.175154	0.311075	0.648542
H359	H	0.707778	-0.242837	0.118032
H360	H	1.207778	0.257163	0.618032
H361	H	0.641341	-0.233744	0.118018
H362	H	1.141341	0.266256	0.618018
H363	H	0.676256	-0.098866	0.100001
H364	H	1.176256	0.401134	0.600001
H365	H	0.226204	0.074643	-0.154988
H366	H	0.726204	0.574643	0.345012
H367	H	0.742987	0.003410	0.149750
H368	H	1.242987	0.503410	0.649750
C369	C	0.383198	0.076550	-0.115649
C370	C	0.883198	0.576550	0.384351
H371	H	0.409399	0.076860	-0.148452
H372	H	0.909399	0.576860	0.351548
H373	H	0.355485	0.109485	-0.117945
H374	H	0.855485	0.609485	0.382055
H375	H	0.364570	0.043048	-0.117938
H376	H	0.864570	0.543048	0.382062
H377	H	-0.047029	0.071401	0.099992
H378	H	0.452971	0.571401	0.599992
H379	H	0.562688	0.183569	0.557741
H380	H	1.062688	0.683569	1.057741
H381	H	-0.154796	0.070097	0.099990
H382	H	0.345204	0.570097	0.599990
C383	C	0.676396	-0.090370	-0.115613
C384	C	1.176396	0.409630	0.384387
H385	H	0.676880	-0.050742	-0.107725
H386	H	1.176880	0.449258	0.392275
H387	H	0.643067	-0.095563	-0.138252
H388	H	1.143067	0.404437	0.361748
H389	H	0.709504	-0.104648	-0.138239
H390	H	1.209504	0.395352	0.361761
C391	C	0.674896	-0.215094	-0.115629
C392	C	1.174896	0.284906	0.384371
H393	H	0.675227	-0.188893	-0.148428
H394	H	1.175227	0.311107	0.351572
H395	H	0.641404	-0.233731	-0.117940
H396	H	1.141404	0.266269	0.382060
H397	H	0.707842	-0.242801	-0.117910
H398	H	1.207842	0.257199	0.382090
C399	C	0.671601	-0.488319	-0.170729
C400	C	1.171601	0.011681	0.329271
H401	H	0.671928	-0.462116	-0.203527
H402	H	1.171928	0.037884	0.296473
H403	H	0.638109	-0.506955	-0.173035
H404	H	1.138109	-0.006955	0.326965
H405	H	0.704547	-0.516025	-0.173016
H406	H	1.204547	-0.016025	0.326984
H407	H	0.669658	-0.645335	0.099970
H408	H	1.169658	-0.145335	0.599970
H409	H	0.742990	0.003391	0.265133
H410	H	1.242990	0.503391	0.765133
C411	C	0.668265	-0.761571	0.115699
C412	C	1.168265	-0.261571	0.615699
H413	H	0.668571	-0.735373	0.148503
H414	H	1.168571	-0.235373	0.648503
H415	H	0.701200	-0.789284	0.117996
H416	H	1.201200	-0.289284	0.617996
H417	H	0.634763	-0.780198	0.117985
H418	H	1.134763	-0.280198	0.617985
