data_functionalizedCrystal
_audit_creation_method	'MofGen! by Chris Wilmer'
_symmetry_space_group_name_H-M	'P1'
_symmetry_Int_Tables_number	1
_symmetry_cell_setting	triclinic
loop_
_symmetry_equiv_pos_as_xyz
  x,y,z
_cell_length_a	11.792241
_cell_length_b	10.268362
_cell_length_c	11.792254
_cell_angle_alpha	89.998485
_cell_angle_beta	84.196007
_cell_angle_gamma	90.000220
loop_
_atom_site_label
_atom_site_type_symbol
_atom_site_fract_x
_atom_site_fract_y
_atom_site_fract_z
O1	O	-1.506917	0.108155	-0.155561
O2	O	-1.006917	0.608155	0.344439
O3	O	-1.176576	0.108190	-0.171594
O4	O	-0.676576	0.608190	0.328406
O5	O	-1.349755	0.108162	0.001592
O6	O	-0.849755	0.608162	0.501592
O7	O	-1.333737	0.108182	-0.328747
O8	O	-0.833737	0.608182	0.171253
O9	O	-1.349739	-0.108438	0.001586
O10	O	-0.849739	0.391562	0.501586
O11	O	-1.176560	-0.108411	-0.171600
O12	O	-0.676560	0.391589	0.328400
O13	O	-1.506900	-0.108446	-0.155567
O14	O	-1.006900	0.391554	0.344433
Cu15	Cu	-1.341728	-0.128206	-0.163584
Cu16	Cu	-0.841728	0.371794	0.336416
Cu17	Cu	-1.341748	0.127950	-0.163577
Cu18	Cu	-0.841748	0.627950	0.336423
O19	O	-1.333721	-0.108418	-0.328753
O20	O	-0.833721	0.391582	0.171247
C21	C	-1.134277	-0.000106	-0.170590
C22	C	-0.634277	0.499894	0.329410
C23	C	-1.008263	-0.000093	-0.167576
C24	C	-0.508263	0.499907	0.332424
N25	N	-1.341723	-0.308372	-0.163588
N26	N	-0.841723	0.191628	0.336412
C27	C	-1.341731	-0.426214	-0.163589
C28	C	-0.841731	0.073786	0.336411
C29	C	-1.341745	-0.574052	-0.163579
C30	C	-0.841745	-0.074052	0.336421
C31	C	-0.777551	-0.000128	-0.162033
C32	C	-0.277551	0.499872	0.337967
C33	C	-0.905936	-0.000109	-0.165112
C34	C	-0.405936	0.499891	0.334888
C35	C	-0.549199	-0.000144	-0.156571
C36	C	-0.049199	0.499856	0.343429
C37	C	-0.675213	-0.000138	-0.159586
C38	C	-0.175213	0.499862	0.340414
C39	C	-1.348738	-0.000138	0.043880
C40	C	-0.848738	0.499862	0.543880
C41	C	-1.345718	-0.000136	0.169893
C42	C	-0.845718	0.499864	0.669893
N43	N	-1.341762	0.308115	-0.163564
N44	N	-0.841762	0.808115	0.336436
C45	C	-1.334738	-0.000116	-0.371041
C46	C	-0.834738	0.499884	0.128959
C47	C	-1.337758	-0.000109	-0.497054
C48	C	-0.837758	0.499891	0.002946
C49	C	-1.343264	-0.000131	0.272229
C50	C	-0.843264	0.499869	0.772229
C51	C	-1.340196	-0.000119	0.400616
C52	C	-0.840196	0.499881	0.900616
