data_functionalizedCrystal
_audit_creation_method	'MofGen! by Chris Wilmer'
_symmetry_space_group_name_H-M	'P1'
_symmetry_Int_Tables_number	1
_symmetry_cell_setting	triclinic
loop_
_symmetry_equiv_pos_as_xyz
  x,y,z
_cell_length_a	18.101395
_cell_length_b	16.959455
_cell_length_c	18.101389
_cell_angle_alpha	90.017877
_cell_angle_beta	89.983159
_cell_angle_gamma	89.971949
loop_
_atom_site_label
_atom_site_type_symbol
_atom_site_fract_x
_atom_site_fract_y
_atom_site_fract_z
Zn1	Zn	-0.294968	-1.208351	-0.418719
Zn2	Zn	-0.418793	-1.208240	-0.294881
Zn3	Zn	-0.294964	-1.076171	-0.294894
Zn4	Zn	-0.418765	-1.076119	-0.418684
O5	O	-0.356872	-1.142220	-0.356795
O6	O	-0.311407	-1.318947	-0.402301
O7	O	-0.402377	-1.190696	-0.191250
O8	O	-0.191331	-1.093774	-0.311341
O9	O	-0.402381	-1.318865	-0.311318
O10	O	-0.191334	-1.190885	-0.402314
O11	O	-0.311400	-1.093666	-0.191260
O12	O	-0.311373	-0.965553	-0.311306
O13	O	-0.402333	-1.093684	-0.522321
O14	O	-0.402329	-0.965515	-0.402253
O15	O	-0.311380	-1.190834	-0.522348
O16	O	-0.522422	-1.190645	-0.311284
O17	O	-0.522402	-1.093576	-0.402241
C18	C	-0.549283	-1.142114	-0.356773
C19	C	-0.631597	-1.142141	-0.356788
C20	C	-0.356848	-0.936854	-0.356778
C21	C	-0.356855	-0.848997	-0.356788
C22	C	-0.356854	-1.142266	-0.549957
C23	C	-0.356846	-1.142285	-0.632271
C24	C	-0.930688	-1.142315	-0.356828
C25	C	-0.899381	-1.081383	-0.414198
C26	C	-0.813763	-1.081094	-0.414019
C27	C	-0.782305	-1.142229	-0.356809
C28	C	-0.813441	-1.119677	-0.278760
C29	C	-0.899087	-1.119284	-0.279103
C30	C	-0.899040	-1.225932	-0.376821
C31	C	-0.813389	-1.225440	-0.378532
C32	C	-0.698446	-1.142181	-0.356794
C33	C	-1.014547	-1.142360	-0.356839
C34	C	-0.163710	-1.142348	-0.356833
C35	C	-0.081396	-1.142402	-0.356849
C36	C	-0.356897	-1.348388	-0.356812
C37	C	-0.356908	-1.436245	-0.356820
C38	C	-0.309473	-0.477517	-0.309537
C39	C	-0.404333	-0.477526	-0.404095
C40	C	-0.404323	-0.560072	-0.404090
C41	C	-0.356887	-0.601344	-0.356808
C42	C	-0.309462	-0.560071	-0.309530
C43	C	-0.451752	-0.601351	-0.451362
C44	C	-0.451744	-0.683902	-0.451359
C45	C	-0.404304	-0.725176	-0.404079
C46	C	-0.356877	-0.683898	-0.356800
C47	C	-0.309441	-0.725170	-0.309518
C48	C	-0.262009	-0.683893	-0.262242
C49	C	-0.262022	-0.601345	-0.262250
C50	C	-0.404291	-0.807725	-0.404070
C51	C	-0.309430	-0.807724	-0.309510
C52	C	-0.356707	-1.142331	-0.931362
C53	C	-0.413750	-1.080996	-0.900020
C54	C	-0.414015	-1.081162	-0.814402
C55	C	-0.356776	-1.142308	-0.782979
C56	C	-0.377964	-1.225587	-0.814077
C57	C	-0.378339	-1.225245	-0.899722
C58	C	-0.278348	-1.121111	-0.899786
C59	C	-0.278801	-1.119258	-0.814136
C60	C	-0.356813	-1.142300	-0.699120
C61	C	-0.356671	-1.142345	-1.015222
C62	C	-0.356838	-1.142220	-0.164384
C63	C	-0.356637	-1.142354	-0.082071
H64	H	-0.792710	-1.095203	-0.471891
H65	H	-0.434636	-1.243887	-0.792634
H66	H	-0.471478	-1.094867	-0.921546
Br67	Br	-0.779706	-0.977790	-0.391953
H68	H	-0.792050	-1.059201	-0.261521
H69	H	-0.435620	-1.243234	-0.919705
Br70	Br	-0.933648	-1.104661	-0.510973
Br71	Br	-0.935369	-0.978711	-0.392425
Br72	Br	-0.510813	-1.104559	-0.780257
H73	H	-0.442957	-0.443917	-0.442585
H74	H	-0.919123	-1.058161	-0.262168
H75	H	-0.400627	-1.019056	-0.920612
Br76	Br	-0.245098	-0.421503	-0.245386
H77	H	-0.919798	-1.161739	-0.234901
Br78	Br	-0.312049	-1.303946	-0.934285
Br79	Br	-0.779485	-1.191317	-0.205569
Br80	Br	-0.934972	-1.260203	-0.470063
H81	H	-0.793037	-1.242446	-0.435972
Br82	Br	-0.777686	-1.305114	-0.313970
H83	H	-0.919284	-1.271328	-0.335036
Br84	Br	-0.197642	-0.739916	-0.198068
Br85	Br	-0.245044	-0.863730	-0.245344
H86	H	-0.490365	-0.717503	-0.489854
Br87	Br	-0.516152	-0.545336	-0.515499
H88	H	-0.337722	-1.272513	-0.793725
H89	H	-0.262823	-1.057972	-0.793810
Br90	Br	-0.468663	-0.863741	-0.468218
H91	H	-0.400756	-1.019407	-0.793376
Br92	Br	-0.246175	-1.021653	-0.935771
H93	H	-0.223407	-0.567730	-0.223760
H94	H	-0.234044	-1.160672	-0.792746
H95	H	-0.235848	-1.165785	-0.920056
