data_functionalizedCrystal
_audit_creation_method	'MofGen! by Chris Wilmer'
_symmetry_space_group_name_H-M	'P1'
_symmetry_Int_Tables_number	1
_symmetry_cell_setting	triclinic
loop_
_symmetry_equiv_pos_as_xyz
  x,y,z
_cell_length_a	23.532407
_cell_length_b	22.610064
_cell_length_c	23.532407
_cell_angle_alpha	89.999397
_cell_angle_beta	97.151288
_cell_angle_gamma	90.005499
loop_
_atom_site_label
_atom_site_type_symbol
_atom_site_fract_x
_atom_site_fract_y
_atom_site_fract_z
O1	O	0.755263	0.049153	-0.069127
O2	O	0.589400	0.049163	-0.079131
O3	O	0.677333	0.049147	0.008803
O4	O	0.667330	0.049169	-0.157061
O5	O	0.677318	-0.049222	0.008790
O6	O	0.589385	-0.049206	-0.079143
O7	O	0.755248	-0.049216	-0.069140
Zn8	Zn	0.672314	-0.064829	-0.074144
Zn9	Zn	0.672334	0.064777	-0.074127
O10	O	0.667315	-0.049200	-0.157074
C11	C	0.568176	-0.000020	-0.078882
C12	C	0.504959	-0.000017	-0.078116
C13	C	0.238792	-0.000040	-0.022921
C14	C	0.298192	-0.000040	-0.023632
O15	O	0.334937	-0.000066	0.020153
N16	N	0.320818	-0.000029	-0.075909
C17	C	0.284041	-0.000024	-0.127477
O18	O	0.308740	-0.000015	-0.172007
C19	C	0.224642	-0.000029	-0.126765
C20	C	0.202019	-0.000034	-0.074485
C21	C	0.216168	-0.000046	0.029354
C22	C	0.156772	-0.000045	0.030066
C23	C	0.119999	-0.000038	-0.021499
C24	C	0.142623	-0.000033	-0.073774
C25	C	0.187865	-0.000028	-0.178333
C26	C	0.128463	-0.000033	-0.177616
C27	C	0.105840	-0.000038	-0.125336
C28	C	0.046454	-0.000025	-0.124627
N29	N	0.023828	-0.000036	-0.072351
C30	C	0.060600	-0.000043	-0.020787
C31	C	0.408783	-0.000016	-0.128968
C32	C	0.468181	-0.000007	-0.129681
C33	C	0.482328	-0.000024	-0.025836
C34	C	0.422929	-0.000028	-0.025124
C35	C	0.386157	-0.000027	-0.076692
C36	C	-0.064136	-0.000041	-0.019297
C37	C	-0.123538	-0.000037	-0.018590
C38	C	-0.137680	-0.000024	-0.122435
C39	C	-0.078284	-0.000024	-0.123142
C40	C	-0.041512	-0.000034	-0.071568
O41	O	0.009675	-0.000001	-0.168390
O42	O	0.035892	-0.000060	0.023737
N43	N	0.672304	-0.153282	-0.074155
C44	C	0.711273	-0.561930	-0.035196
C45	C	0.711276	-0.623850	-0.035192
O46	O	0.744384	-0.655875	-0.002076
N47	N	0.672334	-0.654819	-0.074115
C48	C	0.633383	-0.623864	-0.113041
O49	O	0.600259	-0.655891	-0.146148
C50	C	0.633377	-0.561945	-0.113042
C51	C	0.672326	-0.530980	-0.074120
C52	C	0.750217	-0.530965	0.003723
C53	C	0.750215	-0.469049	0.003718
C54	C	0.711268	-0.438099	-0.035206
C55	C	0.672323	-0.469064	-0.074125
C56	C	0.594424	-0.530992	-0.151965
C57	C	0.594422	-0.469069	-0.151963
C58	C	0.633370	-0.438104	-0.113041
C59	C	0.633374	-0.376199	-0.113055
N60	N	0.672316	-0.345230	-0.074131
C61	C	0.711263	-0.376180	-0.035207
C62	C	0.633396	-0.753898	-0.113036
C63	C	0.633403	-0.815816	-0.113038
C64	C	0.711296	-0.815797	-0.035188
C65	C	0.711291	-0.753878	-0.035189
C66	C	0.672338	-0.722929	-0.074112
C67	C	0.711255	-0.246153	-0.035221
C68	C	0.711251	-0.184232	-0.035231
C69	C	0.633357	-0.184256	-0.113079
C70	C	0.633363	-0.246171	-0.113071
C71	C	0.672314	-0.277118	-0.074137
O72	O	0.600281	-0.344134	-0.146152
O73	O	0.744376	-0.344146	-0.002101
C74	C	0.776472	-0.000031	-0.069389
C75	C	0.839689	-0.000031	-0.070155
C76	C	0.677071	-0.000039	0.030012
C77	C	0.676305	-0.000043	0.093229
N78	N	0.672349	0.153229	-0.074111
C79	C	0.667577	-0.000012	-0.178283
C80	C	0.668343	-0.000004	-0.241500
C81	C	0.723538	-0.000014	0.492332
C82	C	0.722827	-0.000009	0.551733
O83	O	0.766613	0.000010	0.588477
N84	N	0.670551	-0.000007	0.574359
C85	C	0.618982	-0.000002	0.537581
O86	O	0.574452	0.000001	0.562281
C87	C	0.619695	-0.000003	0.478182
C88	C	0.671974	-0.000011	0.455559
C89	C	0.775814	-0.000022	0.469709
C90	C	0.776525	-0.000028	0.410313
C91	C	0.724961	-0.000025	0.373540
C92	C	0.672685	-0.000017	0.396163
C93	C	0.568127	0.000006	0.441406
C94	C	0.568843	0.000006	0.382003
C95	C	0.621123	-0.000003	0.359381
C96	C	0.621832	-0.000020	0.299994
N97	N	0.674109	-0.000023	0.277368
C98	C	0.725673	-0.000025	0.314141
C99	C	0.617491	-0.000001	0.662324
C100	C	0.616778	-0.000005	0.721722
C101	C	0.720623	-0.000011	0.735869
C102	C	0.721335	-0.000011	0.676470
C103	C	0.669767	-0.000003	0.639698
C104	C	0.727163	-0.000038	0.189404
C105	C	0.727869	-0.000046	0.130002
C106	C	0.624025	-0.000037	0.115860
C107	C	0.623318	-0.000032	0.175257
C108	C	0.674891	-0.000030	0.212028
O109	O	0.578069	-0.000037	0.263215
O110	O	0.770196	-0.000021	0.289433
H111	H	0.404515	-0.000033	0.017447
C112	C	0.590561	-0.849871	-0.155852
H113	H	0.567363	-0.822565	-0.179029
H114	H	0.610905	-0.874027	-0.179458
H115	H	0.566970	-0.874023	-0.135478
H116	H	0.743005	-0.728670	-0.003495
H117	H	0.562709	-0.556196	-0.183659
H118	H	0.575496	0.000000	0.632386
H119	H	0.378846	-0.000010	-0.170964
C120	C	0.754132	-0.849850	0.007634
H121	H	0.748549	-0.891161	0.002062
H122	H	0.792106	-0.839702	0.001648
H123	H	0.748156	-0.839703	0.045614
C124	C	0.793066	-0.565000	0.046541
H125	H	0.816258	-0.537682	0.069712
H126	H	0.772727	-0.589161	0.070151
H127	H	0.816661	-0.589146	0.026169
H128	H	0.819097	-0.000032	0.391900
C129	C	0.512119	0.000014	0.341554
H130	H	0.520026	0.000015	0.302937
H131	H	0.490660	-0.034285	0.348385
H132	H	0.490679	0.034326	0.348383
C133	C	-0.178135	-0.000014	-0.179152
H134	H	-0.156158	-0.000006	-0.210392
H135	H	-0.201605	-0.034317	-0.181034
H136	H	-0.201596	0.034294	-0.181026
C137	C	0.212737	-0.000031	-0.235841
H138	H	0.182322	-0.000037	-0.266443
H139	H	0.235619	0.034270	-0.238285
H140	H	0.235608	-0.034341	-0.238279
C141	C	0.551576	-0.435026	-0.194781
H142	H	0.557146	-0.393714	-0.189209
H143	H	0.557541	-0.445177	-0.232759
H144	H	0.513603	-0.445180	-0.188781
C145	C	0.510618	0.000021	0.466278
H146	H	0.480016	0.000030	0.435863
H147	H	0.508166	-0.034280	0.489157
H148	H	0.508189	0.034332	0.489151
H149	H	0.601677	-0.728702	-0.144737
H150	H	0.512280	-0.000029	0.016150
C151	C	0.565812	-0.000021	0.200143
H152	H	0.535205	-0.000016	0.169733
H153	H	0.563365	-0.034317	0.223028
H154	H	0.563386	0.034294	0.223012
H155	H	0.742969	-0.159021	-0.003536
H156	H	0.817806	-0.000022	0.499644
H157	H	0.601653	-0.271384	-0.144770
H158	H	0.601648	-0.159046	-0.144772
H159	H	0.770443	-0.000055	0.111587
C160	C	0.783892	-0.000041	0.229844
H161	H	0.815123	-0.000052	0.207856
H162	H	0.785786	0.034262	0.253310
H163	H	0.785768	-0.034349	0.253309
H164	H	0.582043	-0.000037	0.085909
C165	C	0.778842	-0.000015	0.651590
H166	H	0.809447	-0.000013	0.682003
H167	H	0.781276	-0.034317	0.628711
H168	H	0.781286	0.034294	0.628716
H169	H	0.742972	-0.271343	-0.003517
C170	C	0.559273	-0.000002	0.746603
H171	H	0.566228	-0.000003	0.787246
H172	H	0.538061	0.034302	0.733956
H173	H	0.538053	-0.034309	0.733962
C174	C	0.777343	-0.000002	0.776327
H175	H	0.769428	0.000007	0.814941
H176	H	0.798796	-0.034304	0.769507
H177	H	0.798793	0.034307	0.769497
H178	H	-0.034204	-0.000049	0.022699
C179	C	0.793052	-0.434995	0.046539
H180	H	0.816240	-0.462303	0.069723
H181	H	0.816644	-0.410834	0.026179
H182	H	0.772695	-0.410847	0.070146
H183	H	-0.059864	-0.000019	-0.165712
C184	C	-0.148420	-0.000046	0.038919
H185	H	-0.118009	-0.000057	0.069526
H186	H	-0.171294	0.034256	0.041364
H187	H	-0.171300	-0.034355	0.041350
H188	H	0.138359	-0.000052	0.072637
H189	H	0.246104	-0.000053	0.071347
H190	H	0.486595	0.000005	-0.172252
H191	H	0.098525	-0.000034	-0.219610
