data_functionalizedCrystal
_audit_creation_method	'MofGen! by Chris Wilmer'
_symmetry_space_group_name_H-M	'P1'
_symmetry_Int_Tables_number	1
_symmetry_cell_setting	triclinic
loop_
_symmetry_equiv_pos_as_xyz
  x,y,z
_cell_length_a	18.215407
_cell_length_b	17.640280
_cell_length_c	18.215399
_cell_angle_alpha	78.773632
_cell_angle_beta	89.985640
_cell_angle_gamma	78.798252
loop_
_atom_site_label
_atom_site_type_symbol
_atom_site_fract_x
_atom_site_fract_y
_atom_site_fract_z
Zn1	Zn	1.184356	-0.314711	-0.356902
Zn2	Zn	1.209181	-0.446897	-0.208985
Zn3	Zn	1.061300	-0.314736	-0.233850
Zn4	Zn	1.086154	-0.446840	-0.332026
O5	O	1.135248	-0.380796	-0.282941
O6	O	1.290636	-0.332260	-0.337285
O7	O	1.189552	-0.429399	-0.109293
O8	O	1.056833	-0.204126	-0.270990
O9	O	1.308875	-0.429376	-0.228611
O10	O	1.147242	-0.204108	-0.361396
O11	O	1.080904	-0.332301	-0.127561
O12	O	0.961610	-0.332246	-0.246869
O13	O	1.099193	-0.429279	-0.438317
O14	O	0.979870	-0.429303	-0.318998
O15	O	1.171342	-0.332205	-0.456593
O16	O	1.213652	-0.557496	-0.204490
O17	O	1.123264	-0.557454	-0.294888
C18	C	0.944037	-0.380772	-0.282933
C19	C	0.862240	-0.380780	-0.282943
C20	C	0.664568	-0.330316	-0.339584
C21	C	0.587710	-0.330323	-0.339585
C22	C	0.606684	-0.431298	-0.226306
C23	C	0.683539	-0.431287	-0.226303
C24	C	0.712479	-0.380797	-0.282946
C25	C	0.558767	-0.380815	-0.282951
C26	C	0.475434	-0.380823	-0.282951
C27	C	0.795817	-0.380788	-0.282944
C28	C	1.173869	-0.586154	-0.244307
C29	C	1.190459	-0.674007	-0.227804
C30	C	1.009520	-0.962973	-0.408580
C31	C	1.025110	-1.045524	-0.393050
C32	C	1.119289	-1.045502	-0.299014
C33	C	1.103709	-0.962949	-0.314539
C34	C	1.048824	-0.921691	-0.369322
C35	C	1.143013	-0.921667	-0.275281
C36	C	1.127432	-0.839122	-0.290803
C37	C	1.072547	-0.797858	-0.345582
C38	C	1.033242	-0.839146	-0.384844
C39	C	1.197895	-0.962927	-0.220494
C40	C	1.237198	-0.921645	-0.181237
C41	C	1.221621	-0.839098	-0.196762
C42	C	1.166736	-0.797834	-0.251541
C43	C	1.260926	-0.797810	-0.157500
C44	C	1.245344	-0.715264	-0.173021
C45	C	1.151155	-0.715288	-0.267062
C46	C	1.327205	-0.380821	-0.282950
C47	C	1.409006	-0.380832	-0.282953
C48	C	1.135271	-0.380733	-0.474906
C49	C	1.135280	-0.380706	-0.556710
C50	C	1.096496	-0.174637	-0.321742
C51	C	1.079982	-0.086784	-0.338276
C52	C	1.078741	-0.330113	-0.754423
C53	C	1.078751	-0.330097	-0.831285
C54	C	1.191890	-0.431205	-0.812252
C55	C	1.191877	-0.431224	-0.735391
C56	C	1.135302	-0.380674	-0.706479
C57	C	1.135326	-0.380639	-0.860202
C58	C	1.135337	-0.380622	-0.943539
C59	C	1.135290	-0.380692	-0.623137
C60	C	1.135257	-0.380802	-0.091734
C61	C	1.135348	-0.380606	-0.009972
H62	H	1.106467	-0.681695	-0.311678
C63	C	0.696053	-0.275627	-0.401142
C64	C	0.748610	-0.320435	-0.439827
C65	C	0.777619	-0.270080	-0.496545
H66	H	0.719594	-0.241133	-0.379614
H67	H	0.656534	-0.245577	-0.434914
H68	H	0.788122	-0.350472	-0.406060
H69	H	0.725086	-0.354927	-0.461371
H70	H	0.738101	-0.240029	-0.530316
H71	H	0.801157	-0.235589	-0.475010
H72	H	0.813277	-0.300475	-0.522804
H73	H	1.281884	-0.955248	-0.136630
C74	C	1.055623	-0.708236	-0.362280
C75	C	1.031765	-0.680973	-0.297321
C76	C	1.016178	-0.598418	-0.312673
H77	H	1.017291	-0.689476	-0.400491
H78	H	1.099574	-0.689489	-0.378536
H79	H	0.987819	-0.699712	-0.281076
H80	H	1.070087	-0.699711	-0.259102
H81	H	1.060129	-0.579671	-0.328929
H82	H	0.977847	-0.579666	-0.350886
H83	H	0.999995	-0.579910	-0.268600
C84	C	0.735579	-0.485968	-0.164741
C85	C	0.771236	-0.441143	-0.126057
C86	C	0.819172	-0.491483	-0.069337
H87	H	0.772122	-0.520452	-0.186267
H88	H	0.707359	-0.516030	-0.130969
H89	H	0.799455	-0.411095	-0.159823
H90	H	0.734713	-0.406661	-0.104514
H91	H	0.790952	-0.521545	-0.035565
H92	H	0.855710	-0.525965	-0.090869
H93	H	0.843366	-0.461077	-0.043078
H94	H	0.583112	-0.472406	-0.180190
C95	C	0.535565	-0.275548	-0.400997
C96	C	0.462060	-0.286346	-0.388869
C97	C	0.414003	-0.235891	-0.445422
H98	H	0.550268	-0.287132	-0.448275
H99	H	0.538115	-0.222409	-0.400297
H100	H	0.459513	-0.339473	-0.389575
H101	H	0.447334	-0.274756	-0.341601
H102	H	0.416553	-0.182751	-0.444723
H103	H	0.428712	-0.247479	-0.492697
H104	H	0.364123	-0.243205	-0.437197
H105	H	1.277349	-0.681653	-0.141052
C106	C	1.253381	-0.485949	-0.843709
C107	C	1.292157	-0.441186	-0.896247
C108	C	1.348815	-0.491588	-0.925232
H109	H	1.231797	-0.520392	-0.867267
H110	H	1.287105	-0.516052	-0.804172
H111	H	1.258438	-0.411097	-0.935778
H112	H	1.313757	-0.406745	-0.872707
H113	H	1.382540	-0.521691	-0.885694
H114	H	1.327225	-0.526029	-0.948786
H115	H	1.375136	-0.461224	-0.960876
C116	C	0.973708	-0.794200	-0.444326
C117	C	0.968490	-0.713075	-0.449524
C118	C	0.913665	-0.671647	-0.504314
H119	H	0.926780	-0.807675	-0.431028
H120	H	0.986994	-0.807645	-0.491270
H121	H	0.955199	-0.699636	-0.402590
H122	H	1.015404	-0.699577	-0.462831
H123	H	0.926951	-0.685092	-0.551259
H124	H	0.866741	-0.685129	-0.491011
H125	H	0.910122	-0.616600	-0.507853
H126	H	0.993109	-1.079133	-0.425031
C127	C	0.949887	-0.918313	-0.468073
C128	C	0.918792	-0.972131	-0.499130
C129	C	0.863856	-0.931019	-0.553930
H130	H	0.971862	-0.886074	-0.506284
H131	H	0.911729	-0.886164	-0.445961
H132	H	0.956944	-1.004266	-0.521242
H133	H	0.896803	-1.004372	-0.460938
H134	H	0.825698	-0.898871	-0.531818
H135	H	0.885837	-0.898781	-0.592135
H136	H	0.842747	-0.967528	-0.575004
C137	C	1.178866	-1.090442	-0.239580
C138	C	1.184107	-1.171569	-0.234394
C139	C	1.238984	-1.212990	-0.179655
H140	H	1.165636	-1.077036	-0.192618
H141	H	1.225773	-1.076923	-0.252937
H142	H	1.137209	-1.185082	-0.221033
H143	H	1.197346	-1.184998	-0.281342
H144	H	1.285892	-1.199471	-0.193012
H145	H	1.225750	-1.199578	-0.132697
H146	H	1.242553	-1.268038	-0.176134
C147	C	1.017227	-0.275210	-0.723170
C148	C	0.967684	-0.230944	-0.781609
C149	C	0.910999	-0.180368	-0.752847
H150	H	1.038800	-0.240708	-0.699680
H151	H	0.990800	-0.305435	-0.687513
H152	H	0.994108	-0.200721	-0.817253
H153	H	0.946092	-0.265425	-0.805104
H154	H	0.884572	-0.210594	-0.717190
H155	H	0.932579	-0.145872	-0.729358
H156	H	0.877374	-0.150334	-0.792492
C157	C	1.320502	-0.842752	-0.098066
C158	C	1.325740	-0.923878	-0.092881
C159	C	1.380617	-0.965302	-0.038142
H160	H	1.307273	-0.829347	-0.051103
H161	H	1.367410	-0.829235	-0.111423
H162	H	1.278842	-0.937390	-0.079520
H163	H	1.338978	-0.937307	-0.139829
H164	H	1.427525	-0.951785	-0.051499
H165	H	1.367383	-0.951890	0.008817
H166	H	1.384183	-1.020350	-0.034622
H167	H	1.210581	-1.030141	-0.207861
C168	C	1.017271	-0.275334	-0.883350
C169	C	0.978506	-0.320076	-0.919027
C170	C	0.921854	-0.269656	-0.966985
H171	H	1.038859	-0.240874	-0.919885
H172	H	0.983538	-0.245250	-0.855137
H173	H	1.012233	-0.350146	-0.947238
H174	H	0.956901	-0.354534	-0.882511
H175	H	0.888121	-0.239572	-0.938773
H176	H	0.943449	-0.235198	-1.003515
H177	H	0.895541	-0.300006	-0.991193
C178	C	1.253377	-0.486152	-0.683458
C179	C	1.302939	-0.530399	-0.725230
C180	C	1.359602	-0.580999	-0.677416
H181	H	1.231786	-0.520664	-0.646975
H182	H	1.279795	-0.455944	-0.659179
H183	H	1.276525	-0.560604	-0.749497
H184	H	1.324548	-0.495908	-0.761710
H185	H	1.386020	-0.550791	-0.653137
H186	H	1.338005	-0.615505	-0.640936
H187	H	1.393241	-0.611021	-0.705752
