data_functionalizedCrystal
_audit_creation_method	'MofGen! by Chris Wilmer'
_symmetry_space_group_name_H-M	'P1'
_symmetry_Int_Tables_number	1
_symmetry_cell_setting	triclinic
loop_
_symmetry_equiv_pos_as_xyz
  x,y,z
_cell_length_a	10.654537
_cell_length_b	13.101039
_cell_length_c	10.654545
_cell_angle_alpha	86.602829
_cell_angle_beta	95.516298
_cell_angle_gamma	86.610747
loop_
_atom_site_label
_atom_site_type_symbol
_atom_site_fract_x
_atom_site_fract_y
_atom_site_fract_z
O1	O	-1.674695	0.085188	0.169486
O2	O	-1.309215	0.085194	0.186301
O3	O	-1.500357	0.085190	-0.004846
O4	O	-1.483553	0.085192	0.360633
O5	O	-1.486643	-0.085239	0.008892
O6	O	-1.295501	-0.085235	0.200039
O7	O	-1.660981	-0.085242	0.183224
Zn8	Zn	-1.476064	-0.112298	0.193812
Zn9	Zn	-1.494132	0.112250	0.175713
O10	O	-1.469839	-0.085238	0.374371
C11	C	-1.255560	-0.000020	0.191937
C12	C	-1.116117	-0.000017	0.188249
C13	C	-1.088148	-0.000004	0.416812
C14	C	-1.008655	0.000007	0.529356
C15	C	-0.877637	0.000007	0.525883
C16	C	-0.826110	-0.000006	0.409854
C17	C	-0.905603	-0.000017	0.297310
C18	C	-1.036623	-0.000014	0.300796
C19	C	-0.933571	-0.000038	0.068750
C20	C	-1.064590	-0.000031	0.072220
C21	C	-0.882044	-0.000052	-0.047279
C22	C	-0.961538	-0.000055	-0.159826
C23	C	-1.092563	-0.000054	-0.156348
C24	C	-1.144083	-0.000042	-0.040324
N25	N	-1.463741	-0.265546	0.206164
C26	C	-1.446976	-0.474588	0.222981
C27	C	-1.523225	-0.525466	0.146538
C28	C	-1.513897	-0.641784	0.155895
C29	C	-1.456303	-0.358260	0.213625
C30	C	-0.714635	-0.000027	0.177592
C31	C	-0.854077	-0.000027	0.181293
C32	C	-1.492266	-0.000023	-0.044775
C33	C	-1.488574	-0.000017	-0.184219
N34	N	-1.506465	0.265499	0.163351
C35	C	-1.503541	0.185791	-0.199204
C36	C	-1.509294	0.278694	-0.272207
C37	C	-1.505825	0.278696	-0.403226
C38	C	-1.496598	0.185783	-0.461243
C39	C	-1.490845	0.092880	-0.388241
C40	C	-1.494318	0.092889	-0.257220
C41	C	-1.475869	-0.092925	-0.373255
C42	C	-1.479347	-0.092929	-0.242237
C43	C	-1.466643	-0.185837	-0.431272
C44	C	-1.460898	-0.278743	-0.358271
C45	C	-1.464369	-0.278740	-0.227244
C46	C	-1.473594	-0.185832	-0.169234
C47	C	-1.477930	-0.000023	0.414300
C48	C	-1.481623	-0.000022	0.553743
H49	H	-1.050623	0.000015	0.623825
H50	H	-1.595511	-0.481665	0.074067
O51	O	-1.518341	0.368854	-0.215657
C52	C	-1.520156	0.348938	-0.084360
H53	H	-1.553856	0.269081	-0.064883
H54	H	-1.420929	0.353380	-0.035219
C55	C	-1.569265	0.527141	-0.057555
C56	C	-1.610666	0.429062	-0.033633
H57	H	-1.625090	0.576566	-0.026261
H58	H	-1.568037	0.540559	-0.146011
H59	H	-1.486575	0.530827	-0.016603
H60	H	-1.693347	0.425372	-0.074598
H61	H	-1.611910	0.415644	0.054818
O62	O	-1.360861	-0.526991	0.309409
C63	C	-1.370596	-0.633144	0.299614
H64	H	-1.468825	-0.647655	0.254571
H65	H	-1.296437	-0.663603	0.238516
C66	C	-1.228071	-0.670530	0.487616
C67	C	-1.348721	-0.688353	0.432303
H68	H	-1.214572	-0.704587	0.569464
H69	H	-1.221507	-0.599013	0.494214
H70	H	-1.166286	-0.695912	0.436689
H71	H	-1.410504	-0.662960	0.483222
H72	H	-1.355295	-0.759868	0.425718
H73	H	-1.506380	0.185799	-0.092524
O74	O	-1.451711	-0.369014	-0.414542
C75	C	-1.339446	-0.425537	-0.364660
H76	H	-1.268893	-0.371173	-0.323735
H77	H	-1.361350	-0.483469	-0.286947
C78	C	-1.369189	-0.549229	-0.520700
C79	C	-1.282529	-0.482457	-0.470444
H80	H	-1.334081	-0.584345	-0.585950
H81	H	-1.444826	-0.511152	-0.554304
H82	H	-1.387434	-0.597497	-0.455928
H83	H	-1.264298	-0.434183	-0.535212
H84	H	-1.206888	-0.520528	-0.436853
H85	H	-1.510498	0.354346	-0.462663
H86	H	-1.194830	0.000019	0.419650
O87	O	-1.458737	-0.368897	-0.156140
C88	C	-1.463815	-0.348982	-0.028061
H89	H	-1.431037	-0.269134	-0.011745
H90	H	-1.565024	-0.353399	-0.002830
C91	C	-1.417179	-0.527192	0.035681
C92	C	-1.376911	-0.429125	0.055724
H93	H	-1.363578	-0.576630	0.087366
H94	H	-1.413763	-0.540611	-0.050608
H95	H	-1.501521	-0.530858	0.056706
H96	H	-1.292577	-0.425455	0.034684
H97	H	-1.380311	-0.415707	0.142012
H98	H	-0.812912	0.000009	0.617526
H99	H	-1.476427	-0.185821	-0.062553
H100	H	-0.719425	-0.000019	0.407037
H101	H	-0.775360	-0.000057	-0.050099
H102	H	-0.919573	-0.000065	-0.254288
H103	H	-1.493759	0.185793	-0.567925
H104	H	-1.157280	-0.000066	-0.247996
H105	H	-1.250764	-0.000029	-0.037482
H106	H	-1.463811	-0.185830	-0.537955
