data_functionalizedCrystal
_audit_creation_method	'MofGen! by Chris Wilmer'
_symmetry_space_group_name_H-M	'P1'
_symmetry_Int_Tables_number	1
_symmetry_cell_setting	triclinic
loop_
_symmetry_equiv_pos_as_xyz
  x,y,z
_cell_length_a	9.065218
_cell_length_b	16.776229
_cell_length_c	9.065218
_cell_angle_alpha	89.995234
_cell_angle_beta	94.984115
_cell_angle_gamma	90.007185
loop_
_atom_site_label
_atom_site_type_symbol
_atom_site_fract_x
_atom_site_fract_y
_atom_site_fract_z
O1	O	1.960407	0.066287	-0.216360
O2	O	1.531122	0.066288	-0.234107
O3	O	1.754638	0.066285	-0.010591
O4	O	1.736891	0.066289	-0.439876
O5	O	1.754607	-0.066291	-0.010577
O6	O	1.531092	-0.066289	-0.234093
O7	O	1.960377	-0.066290	-0.216346
Zn8	Zn	1.745729	-0.087339	-0.225217
Zn9	Zn	1.745769	0.087336	-0.225236
O10	O	1.736861	-0.066288	-0.439862
C11	C	1.476120	-0.000001	-0.232394
C12	C	1.312277	-0.000000	-0.227294
N13	N	1.745713	-0.206550	-0.225203
C14	C	1.844717	-0.248268	-0.126272
C15	C	1.844725	-0.331720	-0.126271
C16	C	1.745735	-0.373453	-0.225209
C17	C	1.646721	-0.331729	-0.324145
C18	C	1.646707	-0.248278	-0.324138
C19	C	1.646775	-0.668276	-0.324175
C20	C	1.646799	-0.751733	-0.324177
C21	C	1.844793	-0.751718	-0.126308
C22	C	1.844779	-0.668267	-0.126301
C23	C	1.745760	-0.626551	-0.225231
C24	C	1.745750	-0.536062	-0.225229
C25	C	1.745751	-0.463940	-0.225220
C26	C	2.015378	0.000000	-0.218059
C27	C	2.179221	0.000005	-0.223158
C28	C	1.752917	-0.000001	0.044403
C29	C	1.747817	0.000002	0.208245
N30	N	1.745797	0.206548	-0.225238
C31	C	1.738582	0.000001	-0.494855
C32	C	1.743681	0.000002	-0.658698
H33	H	1.925340	-0.365687	-0.045713
H34	H	1.566185	-0.785710	-0.404748
O35	O	1.940728	-0.207786	-0.029928
C36	C	1.914785	-0.228234	0.116451
H37	H	1.796635	-0.251176	0.118777
H38	H	1.995970	-0.276684	0.158628
C39	C	2.081496	-0.125952	0.213378
C40	C	1.936377	-0.154123	0.216235
H41	H	2.094821	-0.080239	0.274932
H42	H	2.098979	-0.112177	0.114760
H43	H	2.149133	-0.166334	0.248522
H44	H	1.868744	-0.113745	0.181075
H45	H	1.918883	-0.167889	0.314850
O46	O	1.550413	-0.372142	-0.420302
C47	C	1.463047	-0.317423	-0.507641
H48	H	1.460571	-0.257941	-0.447115
H49	H	1.512404	-0.308534	-0.617930
C50	C	1.307324	-0.423064	-0.610163
C51	C	1.304273	-0.350009	-0.535818
H52	H	1.209386	-0.443166	-0.627551
H53	H	1.366187	-0.459931	-0.551326
H54	H	1.348462	-0.415647	-0.702062
H55	H	1.263153	-0.357429	-0.443914
H56	H	1.245399	-0.313145	-0.594641
O57	O	1.940902	-0.792157	-0.029986
C58	C	1.914944	-0.771789	0.116418
H59	H	1.858066	-0.711203	0.117027
H60	H	1.840895	-0.818765	0.163073
C61	C	2.133309	-0.842335	0.211748
C62	C	2.063462	-0.767920	0.212497
H63	H	2.224919	-0.839951	0.271018
H64	H	2.150795	-0.856060	0.113114
H65	H	2.071586	-0.881474	0.250624
H66	H	2.125176	-0.728784	0.173605
H67	H	2.045989	-0.754187	0.311128
O68	O	1.940620	-0.627707	-0.029911
C69	C	1.860174	-0.579563	0.062229
H70	H	1.745607	-0.567009	0.004869
H71	H	1.848444	-0.611848	0.171258
C72	C	2.083618	-0.515737	0.163530
C73	C	1.942910	-0.500313	0.093074
H74	H	2.134655	-0.466854	0.182564
H75	H	2.137818	-0.548175	0.101459
H76	H	2.073824	-0.542644	0.254380
H77	H	1.952707	-0.473417	0.002219
H78	H	1.888714	-0.467869	0.155131
H79	H	1.566153	-0.634317	-0.404730
H80	H	1.566086	-0.214312	-0.404696
