data_functionalizedCrystal
_audit_creation_method	'MofGen! by Chris Wilmer'
_symmetry_space_group_name_H-M	'P1'
_symmetry_Int_Tables_number	1
_symmetry_cell_setting	triclinic
loop_
_symmetry_equiv_pos_as_xyz
  x,y,z
_cell_length_a	23.532355
_cell_length_b	27.732064
_cell_length_c	22.010155
_cell_angle_alpha	90.006488
_cell_angle_beta	89.991030
_cell_angle_gamma	82.738461
loop_
_atom_site_label
_atom_site_type_symbol
_atom_site_fract_x
_atom_site_fract_y
_atom_site_fract_z
O1	O	0.755167	0.058553	-0.050437
O2	O	0.589282	0.067069	-0.050456
O3	O	0.677372	-0.007578	-0.050448
O4	O	0.667077	0.133200	-0.050445
O5	O	0.677345	-0.007568	0.050602
O6	O	0.589256	0.067079	0.050594
O7	O	0.755141	0.058562	0.050613
Cu8	Cu	0.672196	0.062822	0.059830
Cu9	Cu	0.672227	0.062810	-0.059673
O10	O	0.667051	0.133210	0.050605
C11	C	0.568053	0.066861	0.000067
C12	C	0.504835	0.066221	0.000059
C13	C	0.112815	0.062205	0.055167
C14	C	0.053417	0.061596	0.055170
O15	O	0.022687	0.061269	0.102015
N16	N	0.023724	0.061289	0.000087
C17	C	0.053432	0.061586	-0.055001
O18	O	0.022722	0.061268	-0.101853
C19	C	0.112830	0.062191	-0.055003
C20	C	0.142520	0.062503	0.000083
C21	C	0.142505	0.062517	0.110249
C22	C	0.201899	0.063126	0.110246
C23	C	0.231603	0.063425	0.055162
C24	C	0.201914	0.063113	0.000081
C25	C	0.142538	0.062484	-0.110090
C26	C	0.201940	0.063089	-0.110087
C27	C	0.231629	0.063402	-0.055001
C28	C	0.291012	0.064021	-0.055006
N29	N	0.320705	0.064328	0.000076
C30	C	0.291001	0.064030	0.055160
C31	C	-0.071307	0.060313	-0.054993
C32	C	-0.130704	0.059711	-0.054992
C33	C	-0.130714	0.059721	0.055179
C34	C	-0.071317	0.060326	0.055177
C35	C	-0.041613	0.060621	0.000089
C36	C	0.415732	0.065311	0.055151
C37	C	0.475131	0.065923	0.055143
C38	C	0.475137	0.065911	-0.055027
C39	C	0.415743	0.065302	-0.055020
C40	C	0.386042	0.065000	0.000074
O41	O	0.321780	0.064346	-0.101827
O42	O	0.321720	0.064341	0.102004
C43	C	0.677141	-0.025580	0.000075
C44	C	0.676486	-0.079236	0.000069
C45	C	0.619970	-0.456386	0.000060
C46	C	0.622381	-0.254723	0.000060
O47	O	0.578526	-0.223531	0.000031
N48	N	0.674616	-0.235523	0.000066
C49	C	0.726253	-0.266743	0.000068
O50	O	0.770738	-0.245785	0.000066
C51	C	0.723841	-0.468406	0.000064
C52	C	0.671603	-0.487602	0.000064
C53	C	0.567735	-0.475583	0.000060
C54	C	0.567133	-0.525996	0.000063
C55	C	0.618766	-0.557212	0.000067
C56	C	0.671000	-0.538015	0.000068
C57	C	0.775477	-0.499625	0.000061
C58	C	0.774870	-0.550043	0.000059
C59	C	0.722631	-0.569239	0.000059
C60	C	0.722031	-0.619644	0.000075
N61	N	0.669795	-0.638844	0.000069
C62	C	0.618163	-0.607628	0.000065
C63	C	0.727515	-0.160867	0.000071
C64	C	0.728118	-0.110451	0.000073
C65	C	0.624246	-0.098435	0.000064
C66	C	0.623644	-0.148851	0.000066
C67	C	0.675280	-0.180066	0.000065
C68	C	0.616902	-0.713499	0.000073
C69	C	0.616304	-0.763917	0.000079
C70	C	0.720176	-0.775929	0.000085
C71	C	0.720774	-0.725516	0.000082
C72	C	0.669132	-0.694301	0.000074
O73	O	0.765862	-0.650864	0.000097
O74	O	0.573684	-0.628595	0.000053
C75	C	0.620572	-0.405973	0.000057
C76	C	0.672807	-0.386776	0.000057
C77	C	0.724439	-0.417992	0.000061
C78	C	0.673410	-0.336361	0.000059
C79	C	0.621777	-0.305145	0.000056
C80	C	0.569542	-0.324345	0.000050
C81	C	0.568940	-0.374758	0.000053
C82	C	0.776675	-0.398793	0.000067
C83	C	0.777273	-0.348379	0.000064
C84	C	0.725640	-0.317163	0.000060
C85	C	0.776370	0.058770	0.000089
C86	C	0.839587	0.059410	0.000092
C87	C	0.667282	0.151212	0.000081
C88	C	0.667937	0.204867	0.000083
N89	N	0.672178	0.062829	0.143883
C90	C	0.637926	0.033648	0.436483
C91	C	0.637921	0.033649	0.372875
O92	O	0.608779	0.008836	0.339974
N93	N	0.672199	0.062816	0.341067
C94	C	0.706488	0.091980	0.372870
O95	O	0.735644	0.116788	0.339974
C96	C	0.706495	0.091975	0.436476
C97	C	0.672211	0.062810	0.468281
C98	C	0.603645	0.004485	0.468288
C99	C	0.603648	0.004484	0.531891
C100	C	0.637933	0.033646	0.563689
C101	C	0.672215	0.062809	0.531884
C102	C	0.740787	0.121136	0.468278
C103	C	0.740791	0.121128	0.531888
C104	C	0.706507	0.091963	0.563693
C105	C	0.706503	0.091971	0.627286
N106	N	0.672226	0.062804	0.659094
C107	C	0.637941	0.033642	0.627296
C108	C	0.706471	0.091986	0.239292
C109	C	0.706461	0.091994	0.175687
C110	C	0.637895	0.033663	0.175697
C111	C	0.637902	0.033658	0.239303
C112	C	0.672193	0.062820	0.271100
C113	C	0.637951	0.033643	0.760867
C114	C	0.637956	0.033646	0.824476
C115	C	0.706524	0.091975	0.824460
C116	C	0.706517	0.091974	0.760857
C117	C	0.672229	0.062804	0.729062
O118	O	0.735632	0.116770	0.660228
O119	O	0.608795	0.008833	0.660200
N120	N	0.672241	0.062808	0.856274
H121	H	-0.047147	0.060581	0.100033
H122	H	0.610030	0.009890	0.734987
C123	C	0.744172	0.124081	0.140708
N124	N	0.772581	0.148248	0.114365
H125	H	0.610035	0.009896	0.850369
H126	H	0.499333	0.066156	-0.099875
C127	C	0.565935	-0.027602	0.566868
N128	N	0.537528	-0.051772	0.593209
H129	H	0.768717	0.144875	0.557774
C130	C	0.833478	-0.433124	0.000079
N131	N	0.876266	-0.458981	0.000094
H132	H	0.734393	0.115737	0.265177
H133	H	0.575725	-0.019265	0.442405
C134	C	0.600190	0.001572	0.274283
N135	N	0.571786	-0.022598	0.300626
C136	C	0.512746	-0.289998	0.000043
N137	N	0.469970	-0.264125	0.000034
H138	H	0.770657	-0.094826	0.000082
H139	H	0.526401	-0.390382	0.000054
H140	H	0.581106	-0.164477	0.000069
H141	H	0.769566	-0.186279	0.000071
C142	C	0.831675	-0.584377	0.000061
N143	N	0.874461	-0.610237	0.000065
C144	C	0.509666	-0.547106	0.000056
N145	N	0.466378	-0.563001	0.000048
C146	C	0.778508	0.153216	0.433306
N147	N	0.806925	0.177378	0.406967
C148	C	0.834744	-0.327270	0.000065
N149	N	0.878030	-0.311371	0.000060
C150	C	0.234610	0.063415	-0.170690
N151	N	0.259216	0.063661	-0.216336
H152	H	0.762214	-0.801354	0.000091
H153	H	0.609978	0.009917	0.149795
H154	H	0.734426	0.115729	0.734960
C155	C	0.778239	-0.704399	0.000085
N156	N	0.821523	-0.688497	0.000080
H157	H	0.574850	-0.688090	0.000066
H158	H	0.734437	0.115719	0.850362
H159	H	0.391556	0.065070	0.100014
C160	C	0.507787	0.066264	0.115745
N161	N	0.532381	0.066519	0.161389
H162	H	0.226068	0.063378	0.155103
C163	C	0.109894	0.062133	-0.170690
N164	N	0.085308	0.061865	-0.216338
H165	H	0.118327	0.062273	0.155107
C166	C	-0.163400	0.059388	0.115773
N167	N	-0.188020	0.059136	0.161409
C168	C	-0.163356	0.059372	-0.115591
N169	N	-0.187947	0.059112	-0.161236
C170	C	0.558835	-0.785029	0.000077
N171	N	0.515550	-0.800930	0.000074
H172	H	0.391567	0.065055	-0.099875
C173	C	0.510930	-0.441253	0.000056
N174	N	0.468141	-0.415398	0.000056
C175	C	0.567450	-0.064088	0.000055
N176	N	0.524673	-0.038216	0.000043
C177	C	-0.038639	0.060643	-0.115598
N178	N	-0.014036	0.060890	-0.161246
H179	H	0.818016	-0.484004	0.000061
