data_functionalizedCrystal
_audit_creation_method	'MofGen! by Chris Wilmer'
_symmetry_space_group_name_H-M	'P1'
_symmetry_Int_Tables_number	1
_symmetry_cell_setting	triclinic
loop_
_symmetry_equiv_pos_as_xyz
  x,y,z
_cell_length_a	16.992694
_cell_length_b	15.944551
_cell_length_c	16.053802
_cell_angle_alpha	92.564789
_cell_angle_beta	87.249047
_cell_angle_gamma	87.083481
loop_
_atom_site_label
_atom_site_type_symbol
_atom_site_fract_x
_atom_site_fract_y
_atom_site_fract_z
O1	O	1.043704	0.174798	-0.069327
O2	O	1.543704	0.674798	0.430673
O3	O	0.815419	0.172843	-0.069352
O4	O	1.315419	0.672843	0.430648
O5	O	0.935795	0.051964	-0.069332
O6	O	1.435795	0.551964	0.430668
O7	O	0.923328	0.295677	-0.069348
O8	O	1.423328	0.795677	0.430652
O9	O	0.929169	0.058588	0.069526
O10	O	1.429169	0.558588	0.569526
O11	O	0.808793	0.179467	0.069506
O12	O	1.308793	0.679467	0.569506
O13	O	1.037078	0.181422	0.069530
O14	O	1.537078	0.681422	0.569530
Zn15	Zn	0.921884	0.181497	0.091565
Zn16	Zn	1.421884	0.681497	0.591565
Zn17	Zn	0.930613	0.172769	-0.091386
Zn18	Zn	1.430613	0.672769	0.408614
O19	O	0.916702	0.302301	0.069510
O20	O	1.416702	0.802301	0.569510
C21	C	0.782894	0.173641	0.000074
C22	C	1.282894	0.673641	0.500074
C23	C	0.695850	0.166141	0.000065
C24	C	1.195850	0.666141	0.500065
C25	C	0.645613	0.238506	0.000061
C26	C	1.145613	0.738506	0.500061
C27	C	0.563826	0.231454	0.000073
C28	C	1.063826	0.731454	0.500073
C29	C	0.532276	0.152037	0.000083
C30	C	1.032276	0.652037	0.500083
C31	C	0.582519	0.079667	0.000089
C32	C	1.082519	0.579667	0.500089
C33	C	0.664305	0.086719	0.000083
C34	C	1.164305	0.586719	0.500083
C35	C	0.288676	0.122807	0.000107
C36	C	0.788676	0.622807	0.500107
C37	C	0.206884	0.115759	0.000111
C38	C	0.706884	0.615759	0.500111
C39	C	0.188196	0.267548	0.000095
C40	C	0.688196	0.767548	0.500095
C41	C	0.269984	0.274593	0.000084
C42	C	0.769984	0.774593	0.500084
C43	C	0.320220	0.202223	0.000095
C44	C	0.820220	0.702223	0.500095
N45	N	0.448677	0.144827	0.000092
N46	N	0.948677	0.644827	0.500092
N47	N	0.403818	0.209434	0.000092
N48	N	0.903818	0.709434	0.500092
C49	C	0.931964	0.023948	0.000097
C50	C	1.431964	0.523948	0.500097
C51	C	0.930413	-0.069402	0.000098
C52	C	1.430413	0.430598	0.500098
C53	C	0.852090	-0.289513	0.000078
C54	C	1.352090	0.210487	0.500078
C55	C	0.885194	-0.344825	0.068547
C56	C	1.385194	0.155175	0.568547
C57	C	0.927606	-0.240317	0.000091
C58	C	1.427606	0.259683	0.500091
C59	C	0.891744	-0.351338	-0.068356
C60	C	1.391744	0.148662	0.431644
C61	C	0.924889	-0.405412	0.000081
C62	C	1.424889	0.094588	0.500081
C63	C	0.960728	-0.294396	0.068617
C64	C	1.460728	0.205604	0.568617
C65	C	0.967271	-0.300907	-0.068348
C66	C	1.467271	0.199093	0.431652
C67	C	1.000429	-0.356196	0.000138
C68	C	1.500429	0.143804	0.500138
C69	C	0.929169	-0.145209	0.000098
C70	C	1.429169	0.354791	0.500098
C71	C	0.923332	-0.500518	0.000080
C72	C	1.423332	-0.000518	0.500080
C73	C	1.069603	0.180624	0.000103
C74	C	1.569603	0.680624	0.500103
C75	C	1.156648	0.188124	0.000106
C76	C	1.656648	0.688124	0.500106
C77	C	0.920533	0.330318	0.000079
C78	C	1.420533	0.830318	0.500079
C79	C	0.922085	0.423667	0.000073
C80	C	1.422085	0.923667	0.500073
N81	N	0.915931	0.187453	0.216424
N82	N	1.415931	0.687453	0.716424
N83	N	0.936572	0.166806	-0.216246
N84	N	1.436572	0.666806	0.283754
C85	C	0.967170	0.136040	0.260127
C86	C	1.467170	0.636040	0.760127
C87	C	0.963014	0.140215	0.347533
C88	C	1.463014	0.640215	0.847533
C89	C	0.907622	0.195808	0.391235
C90	C	1.407622	0.695808	0.891235
C91	C	0.856378	0.247223	0.347526
C92	C	1.356378	0.747223	0.847526
C93	C	0.860531	0.243043	0.260121
C94	C	1.360531	0.743043	0.760121
C95	C	0.889481	0.214042	0.652641
C96	C	1.389481	0.714042	1.152641
C97	C	0.885333	0.218220	0.740052
C98	C	1.385333	0.718220	1.240052
C99	C	0.991968	0.111209	0.740053
C100	C	1.491968	0.611209	1.240053
C101	C	0.996120	0.107038	0.652646
C102	C	1.496120	0.607038	1.152646
C103	C	0.944873	0.158450	0.608945
C104	C	1.444873	0.658450	1.108945
N105	N	0.903374	0.200078	0.480578
N106	N	1.403374	0.700078	0.980578
N107	N	0.949118	0.154175	0.519604
N108	N	1.449118	0.654175	1.019604
H109	H	0.329568	0.063878	0.000117
H110	H	0.829568	0.563878	0.500117
H111	H	0.181201	0.051085	0.000118
H112	H	0.681201	0.551085	0.500118
C113	C	1.138556	-0.331257	0.000931
C114	C	1.638556	0.168743	0.500931
C115	C	1.085120	-0.395271	0.000207
C116	C	1.585120	0.104729	0.500207
H117	H	1.190840	-0.355378	0.000985
H118	H	1.690840	0.144622	0.500985
H119	H	1.133019	-0.299441	-0.047266
H120	H	1.633019	0.200559	0.452734
H121	H	1.128055	-0.295546	0.049576
H122	H	1.628055	0.204454	0.549576
H123	H	1.095618	-0.430978	-0.048441
H124	H	1.595618	0.069022	0.451559
H125	H	1.090661	-0.427101	0.048410
H126	H	1.590661	0.072899	0.548410
H127	H	0.811273	0.292485	0.383113
H128	H	1.311273	0.792485	0.883113
C129	C	0.977838	-0.303257	-0.218116
C130	C	1.477838	0.196743	0.281884
C131	C	1.014079	-0.274558	-0.146483
C132	C	1.514079	0.225442	0.353517
H133	H	1.006730	-0.286983	-0.266357
H134	H	1.506730	0.213017	0.233643
H135	H	0.976794	-0.362791	-0.218955
H136	H	1.476794	0.137209	0.281045
H137	H	0.925414	-0.279447	-0.217621
H138	H	1.425414	0.220553	0.282379
H139	H	1.066502	-0.298373	-0.146975
H140	H	1.566502	0.201627	0.353025
H141	H	1.015132	-0.215012	-0.145644
H142	H	1.515132	0.284988	0.354356
C143	C	1.003992	0.099100	0.481518
C144	C	1.503992	0.599100	0.981518
C145	C	1.019337	0.083700	0.395572
C146	C	1.519337	0.583700	0.895572
H147	H	1.038762	0.064203	0.511173
H148	H	1.538762	0.564203	1.011173
H149	H	1.011827	0.156414	0.495829
H150	H	1.511827	0.656414	0.995829
H151	H	0.950982	0.087112	0.495840
H152	H	1.450982	0.587112	0.995840
H153	H	1.072346	0.095694	0.381248
H154	H	1.572346	0.595694	0.881248
H155	H	1.011509	0.026373	0.381255
H156	H	1.511509	0.526373	0.881255
H157	H	0.989876	-0.269501	0.126566
H158	H	1.489876	0.230499	0.626566
C159	C	0.988807	0.018143	0.161898
C160	C	1.488807	0.518143	0.661898
C161	C	1.028038	0.074889	0.212114
C162	C	1.528038	0.574889	0.712114
H163	H	1.026380	-0.019619	0.132263
H164	H	1.526380	0.480381	0.632263
H165	H	0.954534	-0.012609	0.196022
H166	H	1.454534	0.487391	0.696022
H167	H	0.958910	0.048173	0.123344
H168	H	1.458910	0.548173	0.623344
H169	H	1.057931	0.044859	0.250672
H170	H	1.557931	0.544859	0.750672
H171	H	1.062325	0.105644	0.177987
H172	H	1.562325	0.605644	0.677987
H173	H	0.705207	0.027792	0.000086
H174	H	1.205207	0.527792	0.500086
C175	C	0.724688	-0.272167	0.071941
C176	C	1.224688	0.227833	0.571941
C177	C	0.767471	-0.250211	0.000157
C178	C	1.267471	0.249789	0.500157
H179	H	0.672452	-0.247897	0.071993
H180	H	1.172452	0.252103	0.571993
H181	H	0.723100	-0.331603	0.072431
H182	H	1.223100	0.168397	0.572431
H183	H	0.749493	-0.251875	0.120081
H184	H	1.249493	0.248125	0.620081
H185	H	0.742669	-0.270508	-0.047984
H186	H	1.242669	0.229492	0.452016
H187	H	0.769055	-0.190762	-0.000340
H188	H	1.269055	0.309238	0.499660
H189	H	0.147286	0.326467	0.000088
H190	H	0.647286	0.826467	0.500088
H191	H	0.556825	0.015004	0.000110
H192	H	1.056825	0.515004	0.500110
C193	C	1.004306	0.002746	0.838358
C194	C	1.504306	0.502746	1.338358
C195	C	1.048288	0.054691	0.788092
C196	C	1.548288	0.554691	1.288092
H197	H	1.039076	-0.032153	0.868011
H198	H	1.539076	0.467847	1.368011
H199	H	0.970732	0.036456	0.876889
H200	H	1.470732	0.536456	1.376889
H201	H	0.973290	-0.031305	0.804260
H202	H	1.473290	0.468695	1.304260
H203	H	1.079299	0.088746	0.822191
H204	H	1.579299	0.588746	1.322191
H205	H	1.081875	0.020977	0.749557
H206	H	1.581875	0.520977	1.249557
H207	H	1.041224	0.061770	0.617066
H208	H	1.541224	0.561770	1.117066
H209	H	0.862556	-0.376319	-0.126245
H210	H	1.362556	0.123681	0.373755
C211	C	0.838011	-0.458963	0.146217
C212	C	1.338011	0.041037	0.646217
C213	C	0.838351	-0.371144	0.146679
C214	C	1.338351	0.128856	0.646679
H215	H	0.809092	-0.475208	0.194453
H216	H	1.309092	0.024792	0.694453
H217	H	0.814011	-0.479323	0.097602
H218	H	1.314011	0.020677	0.597602
H219	H	0.890701	-0.481916	0.146296
H220	H	1.390701	0.018084	0.646296
H221	H	0.785660	-0.348191	0.146594
H222	H	1.285660	0.151809	0.646594
H223	H	0.862349	-0.350776	0.195307
H224	H	1.362349	0.149224	0.695307
H225	H	0.840224	0.263494	0.775630
H226	H	1.340224	0.763494	1.275630
H227	H	0.847755	0.255905	0.617067
H228	H	1.347755	0.755905	1.117067
C229	C	0.754718	0.349245	0.268894
C230	C	1.254718	0.849245	0.768894
C231	C	0.804212	0.299563	0.212080
C232	C	1.304212	0.799563	0.712080
H233	H	0.719950	0.384140	0.239234
H234	H	1.219950	0.884140	0.739234
H235	H	0.724896	0.314001	0.302994
H236	H	1.224896	0.814001	0.802994
H237	H	0.785744	0.383300	0.302976
H238	H	1.285744	0.883300	0.802976
H239	H	0.773185	0.265503	0.178002
H240	H	1.273185	0.765503	0.678002
H241	H	0.834036	0.334811	0.177966
H242	H	1.334036	0.834811	0.677966
H243	H	0.671294	0.303176	0.000052
H244	H	1.171294	0.803176	0.500052
H245	H	0.522926	0.290381	0.000068
H246	H	1.022926	0.790381	0.500068
H247	H	0.295666	0.339262	0.000066
H248	H	0.795666	0.839262	0.500066
