data_functionalizedCrystal
_audit_creation_method	'MofGen! by Chris Wilmer'
_symmetry_space_group_name_H-M	'P1'
_symmetry_Int_Tables_number	1
_symmetry_cell_setting	triclinic
loop_
_symmetry_equiv_pos_as_xyz
  x,y,z
_cell_length_a	21.395362
_cell_length_b	12.645331
_cell_length_c	21.395355
_cell_angle_alpha	90.028442
_cell_angle_beta	89.979451
_cell_angle_gamma	89.975955
loop_
_atom_site_label
_atom_site_type_symbol
_atom_site_fract_x
_atom_site_fract_y
_atom_site_fract_z
Zn1	Zn	-0.249607	-1.620664	-0.354318
Zn2	Zn	0.250393	-1.120664	0.145682
Zn3	Zn	-0.354367	-1.620501	-0.249536
Zn4	Zn	0.145633	-1.120501	0.250464
Zn5	Zn	-0.249597	-1.443372	-0.249547
Zn6	Zn	0.250403	-0.943372	0.250453
Zn7	Zn	-0.354340	-1.443323	-0.354269
Zn8	Zn	0.145660	-0.943323	0.145731
O9	O	-0.301978	-1.531965	-0.301918
O10	O	0.198022	-1.031965	0.198082
O11	O	-0.263519	-1.768989	-0.340434
O12	O	0.236481	-1.268989	0.159566
O13	O	-0.340476	-1.596958	-0.161860
O14	O	0.159524	-1.096958	0.338140
O15	O	-0.161920	-1.466978	-0.263470
O16	O	0.338080	-0.966978	0.236530
O17	O	-0.340486	-1.768870	-0.263451
O18	O	0.159514	-1.268870	0.236549
O19	O	-0.161928	-1.597234	-0.340444
O20	O	0.338072	-1.097234	0.159556
O21	O	-0.263502	-1.466821	-0.161868
O22	O	0.236498	-0.966821	0.338132
O23	O	-0.263476	-1.295018	-0.263423
O24	O	0.236524	-0.795018	0.236577
O25	O	-0.340440	-1.466894	-0.441954
O26	O	0.159560	-0.966894	0.058046
O27	O	-0.340430	-1.294982	-0.340362
O28	O	0.159570	-0.794982	0.159638
O29	O	-0.263493	-1.597186	-0.441989
O30	O	0.236507	-1.097186	0.058011
O31	O	-0.442041	-1.596910	-0.263405
O32	O	0.057959	-1.096910	0.236595
O33	O	-0.442022	-1.466737	-0.340352
O34	O	0.057978	-0.966737	0.159648
C35	C	-0.301949	-1.256535	-0.301889
C36	C	0.198051	-0.756535	0.198111
C37	C	-0.301952	-1.138705	-0.301892
C38	C	0.198048	-0.638705	0.198108
C39	C	-0.253310	-0.971129	-0.253750
C40	C	0.246690	-0.471129	0.246250
C41	C	-0.253441	-1.093688	-0.253543
C42	C	0.246559	-0.593688	0.246457
C43	C	-0.367949	-1.094160	-0.283845
C44	C	0.132051	-0.594160	0.216155
C45	C	-0.367678	-0.971562	-0.283512
C46	C	0.132322	-0.471562	0.216488
C47	C	-0.285208	-0.971566	-0.368251
C48	C	0.214792	-0.471566	0.131749
C49	C	-0.283740	-1.094172	-0.367887
C50	C	0.216260	-0.594172	0.132113
C51	C	-0.464765	-1.531829	-0.301885
C52	C	0.035235	-1.031829	0.198115
C53	C	-0.534407	-1.531868	-0.301893
C54	C	-0.034407	-1.031868	0.198107
C55	C	-0.567067	-1.599653	-0.342002
C56	C	-0.067067	-1.099653	0.157998
C57	C	-0.632502	-1.599691	-0.342017
C58	C	-0.132502	-1.099691	0.157983
C59	C	-0.665275	-1.531954	-0.301912
C60	C	-0.165275	-1.031954	0.198088
C61	C	-0.632607	-1.464156	-0.261800
C62	C	-0.132607	-0.964156	0.238200
C63	C	-0.567173	-1.464113	-0.261790
C64	C	-0.067173	-0.964113	0.238210
C65	C	-0.768975	-1.523702	-0.245473
C66	C	-0.268975	-1.023702	0.254527
C67	C	-0.834408	-1.523752	-0.245482
C68	C	-0.334408	-1.023752	0.254518
C69	C	-0.867096	-1.532080	-0.301942
C70	C	-0.367096	-1.032080	0.198058
C71	C	-0.834343	-1.540379	-0.358396
C72	C	-0.334343	-1.040379	0.141604
C73	C	-0.768909	-1.540336	-0.358386
C74	C	-0.268909	-1.040336	0.141614
C75	C	-0.736227	-1.531992	-0.301918
C76	C	-0.236227	-1.031992	0.198082
C77	C	-0.970708	-1.599909	-0.342071
C78	C	-0.470708	-1.099909	0.157929
C79	C	-1.036145	-1.599939	-0.342088
C80	C	-0.536145	-1.099939	0.157912
C81	C	-1.036248	-1.464409	-0.261865
C82	C	-0.536248	-0.964409	0.238135
C83	C	-0.970813	-1.464374	-0.261855
C84	C	-0.470813	-0.964374	0.238145
C85	C	-0.938047	-1.532129	-0.301957
C86	C	-0.438047	-1.032129	0.198043
C87	C	-0.138554	-1.532130	-0.301964
C88	C	0.361446	-1.032130	0.198036
C89	C	-0.068913	-1.532200	-0.301983
C90	C	0.431087	-1.032200	0.198017
C91	C	-0.301965	-1.532053	-0.465341
C92	C	0.198035	-1.032053	0.034659
C93	C	-0.301960	-1.532090	-0.534982
C94	C	0.198040	-1.032090	-0.034982
C95	C	-0.301994	-0.808470	-0.301937
C96	C	0.198006	-0.308470	0.198063
C97	C	-0.301970	-0.926300	-0.301921
C98	C	0.198030	-0.426300	0.198079
C99	C	-0.261892	-1.599930	-0.567715
C100	C	0.238108	-1.099930	-0.067715
C101	C	-0.261865	-1.599929	-0.633150
C102	C	0.238135	-1.099929	-0.133150
C103	C	-0.301917	-1.532099	-0.665851
C104	C	0.198083	-1.032099	-0.165851
C105	C	-0.341988	-1.464245	-0.633110
C106	C	0.158012	-0.964245	-0.133110
C107	C	-0.342009	-1.464241	-0.567676
C108	C	0.157991	-0.964241	-0.067676
C109	C	-0.358332	-1.523681	-0.769514
C110	C	0.141668	-1.023681	-0.269514
C111	C	-0.358312	-1.523693	-0.834947
C112	C	0.141688	-1.023693	-0.334947
C113	C	-0.301851	-1.532105	-0.867672
C114	C	0.198149	-1.032105	-0.367672
C115	C	-0.245409	-1.540528	-0.834955
C116	C	0.254591	-1.040528	-0.334955
C117	C	-0.245430	-1.540524	-0.769521
C118	C	0.254570	-1.040524	-0.269521
C119	C	-0.301898	-1.532095	-0.736803
C120	C	0.198102	-1.032095	-0.236803
C121	C	-0.261750	-1.599947	-0.971357
C122	C	0.238250	-1.099947	-0.471357
C123	C	-0.261722	-1.599938	-1.036793
C124	C	0.238278	-1.099938	-0.536793
C125	C	-0.341851	-1.464260	-1.036752
C126	C	0.158149	-0.964260	-0.536752
C127	C	-0.341873	-1.464264	-0.971317
C128	C	0.158127	-0.964264	-0.471317
C129	C	-0.301824	-1.532113	-0.938623
C130	C	0.198176	-1.032113	-0.438623
C131	C	-0.301945	-1.531938	-0.139130
C132	C	0.198055	-1.031938	0.360870
C133	C	-0.301774	-1.532106	-0.069489
C134	C	0.198226	-1.032106	0.430511
H135	H	-0.264522	-1.122959	-0.204392
H136	H	0.235478	-0.622959	0.295608
H137	H	-0.659099	-1.654881	-0.374686
H138	H	-0.159099	-1.154881	0.125314
N139	N	-0.416018	-1.515143	-0.736100
N140	N	0.083982	-1.015143	-0.236100
N141	N	-0.432445	-1.587147	-0.699622
N142	N	0.067555	-1.087147	-0.199622
H143	H	-0.473187	-1.581131	-0.676028
H144	H	0.026813	-1.081131	-0.176028
H145	H	-0.204220	-0.941683	-0.264939
H146	H	0.295780	-0.441683	0.235061
H147	H	-1.062931	-1.409250	-0.229215
H148	H	-0.562931	-0.909250	0.270785
H149	H	-0.405160	-0.941906	-0.317067
H150	H	0.094840	-0.441906	0.182933
N151	N	-0.187787	-1.549124	-0.736091
N152	N	0.312213	-1.049124	-0.236091
N153	N	-0.179033	-1.624850	-0.699596
N154	N	0.320967	-1.124850	-0.199596
H155	H	-0.138322	-1.630921	-0.675984
H156	H	0.361678	-1.130921	-0.175984
H157	H	-0.374597	-1.409014	-0.659739
H158	H	0.125403	-0.909014	-0.159739
N159	N	-0.187724	-1.549109	-0.868364
N160	N	0.312276	-1.049109	-0.368364
N161	N	-0.137337	-1.556622	-0.839146
N162	N	0.362663	-1.056622	-0.339146
H163	H	-0.096598	-1.562684	-0.862742
H164	H	0.403402	-1.062684	-0.362742
N165	N	-0.324994	-1.132590	-0.415306
N166	N	0.175006	-0.632590	0.084694
N167	N	-0.329504	-1.229750	-0.425083
N168	N	0.170496	-0.729750	0.074917
H169	H	-0.358659	-1.256870	-0.458563
H170	H	0.141341	-0.756870	0.041437
H171	H	-0.374637	-1.408993	-0.541026
H172	H	0.125363	-0.908993	-0.041026
N173	N	-0.867870	-1.515264	-0.187825
N174	N	-0.367870	-1.015264	0.312175
N175	N	-0.926293	-1.515304	-0.187840
N176	N	-0.426293	-1.015304	0.312160
H177	H	-0.949926	-1.509307	-0.147119
H178	H	-0.449926	-1.009307	0.352881
H179	H	-0.320651	-0.942576	-0.404143
H180	H	0.179349	-0.442576	0.095857
H181	H	-0.382413	-1.124807	-0.235877
H182	H	0.117587	-0.624807	0.264123
H183	H	-0.374505	-1.409027	-0.944665
H184	H	0.125495	-0.909027	-0.444665
H185	H	-0.944219	-1.409181	-0.229191
H186	H	-0.444219	-0.909181	0.270809
H187	H	-0.229136	-1.655188	-0.944736
H188	H	0.270864	-1.155188	-0.444736
H189	H	-0.742366	-1.516917	-0.199493
H190	H	-0.242366	-1.016917	0.300507
H191	H	-0.944029	-1.655076	-0.374727
H192	H	-0.444029	-1.155076	0.125273
N193	N	-0.222818	-1.130706	-0.384970
N194	N	0.277182	-0.630706	0.115030
N195	N	-0.215641	-1.184994	-0.433283
N196	N	0.284359	-0.684994	0.066717
H197	H	-0.172614	-1.210799	-0.445348
H198	H	0.327386	-0.710799	0.054652
H199	H	-1.062736	-1.655137	-0.374752
H200	H	-0.562736	-1.155137	0.125248
N201	N	-0.533608	-1.668868	-0.382968
N202	N	-0.033608	-1.168868	0.117032
N203	N	-0.562782	-1.729386	-0.418778
N204	N	-0.062782	-1.229386	0.081222
H205	H	-0.539151	-1.778269	-0.447712
H206	H	-0.039151	-1.278269	0.052288
N207	N	-0.735433	-1.548779	-0.416038
N208	N	-0.235433	-1.048779	0.083962
N209	N	-0.698863	-1.624448	-0.424858
N210	N	-0.198863	-1.124448	0.075142
H211	H	-0.675216	-1.630395	-0.465574
H212	H	-0.175216	-1.130395	0.034426
N213	N	-0.415956	-1.515079	-0.868372
N214	N	0.084044	-1.015079	-0.368372
N215	N	-0.415931	-1.515084	-0.926795
N216	N	0.084069	-1.015084	-0.426795
H217	H	-0.456644	-1.508998	-0.950402
H218	H	0.043356	-1.008998	-0.450402
N219	N	-0.192040	-1.131463	-0.267715
N220	N	0.307960	-0.631463	0.232285
N221	N	-0.148790	-1.067282	-0.277828
N222	N	0.351210	-0.567282	0.222172
H223	H	-0.105421	-1.093954	-0.287829
H224	H	0.394579	-0.593954	0.212171
H225	H	-0.237921	-0.940687	-0.384659
H226	H	0.262079	-0.440687	0.115341
N227	N	-0.220783	-1.669238	-1.070221
N228	N	0.279217	-1.169238	-0.570221
N229	N	-0.185029	-1.729806	-1.041020
N230	N	0.314971	-1.229806	-0.541020
H231	H	-0.156114	-1.778751	-1.064628
H232	H	0.343886	-1.278751	-0.564628
H233	H	-0.405176	-1.123318	-0.317831
H234	H	0.094824	-0.623318	0.182169
N235	N	-0.267049	-0.932402	-0.192455
N236	N	0.232951	-0.432402	0.307545
N237	N	-0.312523	-0.871931	-0.184094
N238	N	0.187477	-0.371931	0.315906
H239	H	-0.322229	-0.844578	-0.140805
H240	H	0.177771	-0.344578	0.359195
N241	N	-0.666090	-1.394964	-0.220842
N242	N	-0.166090	-0.894964	0.279158
N243	N	-0.724513	-1.395011	-0.220855
N244	N	-0.224513	-0.895011	0.279145
H245	H	-0.748161	-1.346138	-0.191929
H246	H	-0.248161	-0.846138	0.308071
H247	H	-0.229280	-1.655177	-0.541100
H248	H	0.270720	-1.155177	-0.041100
N249	N	-0.385515	-0.935625	-0.222680
N250	N	0.114485	-0.435625	0.277320
N251	N	-0.398076	-1.001088	-0.180766
N252	N	0.101924	-0.501088	0.319234
H253	H	-0.410673	-0.975714	-0.137801
H254	H	0.089327	-0.475714	0.362199
H255	H	-0.540580	-1.408913	-0.229128
H256	H	-0.040580	-0.908913	0.270872
N257	N	-0.220926	-1.669228	-0.666585
N258	N	0.279074	-1.169228	-0.166585
N259	N	-0.185168	-1.729793	-0.637387
N260	N	0.314832	-1.229793	-0.137387
H261	H	-0.156254	-1.778735	-0.660998
H262	H	0.343746	-1.278735	-0.160998
H263	H	-0.860956	-1.547162	-0.404372
H264	H	-0.360956	-1.047162	0.095628
H265	H	-0.374456	-1.409021	-1.063376
H266	H	0.125544	-0.909021	-0.563376
