data_functionalizedCrystal
_audit_creation_method	'MofGen! by Chris Wilmer'
_symmetry_space_group_name_H-M	'P1'
_symmetry_Int_Tables_number	1
_symmetry_cell_setting	triclinic
loop_
_symmetry_equiv_pos_as_xyz
  x,y,z
_cell_length_a	19.288864
_cell_length_b	16.992695
_cell_length_c	17.766277
_cell_angle_alpha	89.993690
_cell_angle_beta	89.976791
_cell_angle_gamma	86.902234
loop_
_atom_site_label
_atom_site_type_symbol
_atom_site_fract_x
_atom_site_fract_y
_atom_site_fract_z
O1	O	0.927053	0.097795	-0.062838
O2	O	1.427053	0.597795	0.437162
O3	O	0.725561	0.110988	-0.062787
O4	O	1.225561	0.610988	0.437213
O5	O	0.825499	-0.009748	-0.062806
O6	O	1.325499	0.490252	0.437194
O7	O	0.827114	0.218531	-0.062819
O8	O	1.327114	0.718531	0.437181
O9	O	0.825480	-0.009754	0.062382
O10	O	1.325480	0.490246	0.562382
O11	O	0.725542	0.110982	0.062402
O12	O	1.225542	0.610982	0.562402
O13	O	0.927034	0.097789	0.062351
O14	O	1.427034	0.597789	0.562351
Cu15	Cu	0.826286	0.104385	0.073807
Cu16	Cu	1.326286	0.604385	0.573807
Cu17	Cu	0.826308	0.104392	-0.074243
Cu18	Cu	1.326308	0.604392	0.425757
O19	O	0.827095	0.218525	0.062370
O20	O	1.327095	0.718525	0.562370
C21	C	0.699650	0.110560	-0.000186
C22	C	1.199650	0.610560	0.499814
C23	C	0.622472	0.109286	-0.000166
C24	C	1.122472	0.609286	0.499834
C25	C	0.581905	0.180128	-0.000182
C26	C	1.081905	0.680128	0.499818
C27	C	0.509388	0.178931	-0.000190
C28	C	1.009388	0.678931	0.499810
C29	C	0.477442	0.106888	-0.000198
C30	C	0.977442	0.606888	0.499802
C31	C	0.518018	0.036036	-0.000178
C32	C	1.018018	0.536036	0.499822
C33	C	0.590534	0.037235	-0.000162
C34	C	1.090534	0.537235	0.499838
C35	C	0.365886	0.050256	-0.044079
C36	C	0.865886	0.550256	0.455921
C37	C	0.293371	0.049059	-0.044099
C38	C	0.793371	0.549059	0.455901
C39	C	0.253780	0.103186	-0.000243
C40	C	0.753780	0.603186	0.499757
C41	C	0.286711	0.158522	0.043624
C42	C	0.786711	0.658522	0.543624
C43	C	0.359227	0.159722	0.043640
C44	C	0.859227	0.659722	0.543640
C45	C	0.398811	0.105579	-0.000214
C46	C	0.898811	0.605579	0.499786
C47	C	0.134581	0.172735	-0.000267
C48	C	0.634581	0.672735	0.499733
C49	C	0.062063	0.171535	-0.000270
C50	C	0.562063	0.671535	0.499730
C51	C	0.070695	0.028638	-0.000266
C52	C	0.570695	0.528638	0.499734
C53	C	0.143212	0.029840	-0.000254
C54	C	0.643212	0.529840	0.499746
C55	C	0.175150	0.101891	-0.000259
C56	C	0.675150	0.601891	0.499741
C57	C	0.823411	-0.038957	-0.000211
C58	C	1.323411	0.461043	0.499789
C59	C	0.817211	-0.125979	-0.000210
C60	C	1.317211	0.374021	0.499790
C61	C	0.877039	-0.176431	-0.000224
C62	C	1.377039	0.323569	0.499776
C63	C	0.871208	-0.258197	-0.000230
C64	C	1.371208	0.241803	0.499770
C65	C	0.805549	-0.289509	-0.000216
C66	C	1.305549	0.210491	0.499784
C67	C	0.745717	-0.239051	-0.000204
C68	C	1.245717	0.260949	0.499796
C69	C	0.751548	-0.157287	-0.000204
C70	C	1.251548	0.342713	0.499796
C71	C	0.781382	-0.533022	-0.000220
C72	C	1.281382	-0.033022	0.499780
C73	C	0.775556	-0.614793	-0.000218
C74	C	1.275556	-0.114793	0.499782
C75	C	0.901048	-0.633933	-0.000246
C76	C	1.401048	-0.133933	0.499754
C77	C	0.906873	-0.552166	-0.000241
C78	C	1.406873	-0.052166	0.499759
C79	C	0.847041	-0.501715	-0.000233
C80	C	1.347041	-0.001715	0.499767
N81	N	0.799588	-0.373087	-0.000219
N82	N	1.299588	0.126913	0.499781
N83	N	0.853002	-0.418138	-0.000235
N84	N	1.353002	0.081862	0.499765
C85	C	0.952944	0.098217	-0.000252
C86	C	1.452944	0.598217	0.499748
C87	C	1.030122	0.099491	-0.000277
C88	C	1.530122	0.599491	0.499723
C89	C	0.829183	0.247733	-0.000226
C90	C	1.329183	0.747733	0.499774
C91	C	0.835384	0.334756	-0.000233
C92	C	1.335384	0.834756	0.499767
N93	N	0.826275	0.104379	0.177937
N94	N	1.326275	0.604379	0.677937
N95	N	0.826324	0.104391	-0.178373
N96	N	1.326324	0.604391	0.321627
C97	C	0.870544	0.050944	0.217316
C98	C	1.370544	0.550944	0.717316
C99	C	0.870548	0.050940	0.296117
C100	C	1.370548	0.550940	0.796117
C101	C	0.826290	0.104385	0.335538
C102	C	1.326290	0.604385	0.835538
C103	C	0.782012	0.157825	0.296150
C104	C	1.282012	0.657825	0.796150
C105	C	0.782005	0.157822	0.217350
C106	C	1.282005	0.657822	0.717350
C107	C	0.821154	0.175815	0.460373
C108	C	1.321154	0.675815	0.960373
C109	C	0.821167	0.175819	0.539172
C110	C	1.321167	0.675819	1.039172
C111	C	0.826309	0.104395	0.578584
C112	C	1.326309	0.604395	1.078584
C113	C	0.831454	0.032964	0.539188
C114	C	1.331454	0.532964	1.039188
C115	C	0.831446	0.032961	0.460387
C116	C	1.331446	0.532961	0.960387
C117	C	0.826293	0.104394	0.420983
C118	C	1.326293	0.604394	0.920983
C119	C	0.870585	0.050951	0.703408
C120	C	1.370585	0.550951	1.203408
C121	C	0.870584	0.050946	0.782212
C122	C	1.370584	0.550946	1.282212
C123	C	0.782051	0.157838	0.782243
C124	C	1.282051	0.657838	1.282243
C125	C	0.782049	0.157836	0.703441
C126	C	1.282049	0.657836	1.203441
C127	C	0.826319	0.104393	0.664029
C128	C	1.326319	0.604393	1.164029
H129	H	0.160587	0.231403	-0.000259
H130	H	0.660587	0.731403	0.499741
H131	H	0.176243	-0.027848	-0.000246
H132	H	0.676243	0.472152	0.499754
H133	H	0.254478	0.202597	0.079337
H134	H	0.754478	0.702597	0.579337
O135	O	0.977691	-0.518392	-0.000275
O136	O	1.477691	-0.018392	0.499725
H137	H	1.018315	-0.567212	-0.000297
H138	H	1.518315	-0.067212	0.499703
H139	H	0.029034	0.229226	-0.000279
H140	H	0.529034	0.729226	0.499721
H141	H	0.745975	0.201340	0.328250
H142	H	1.245975	0.701340	0.828250
O143	O	0.965580	-0.688345	-0.000260
O144	O	1.465580	-0.188345	0.499740
H145	H	0.950498	-0.750462	-0.000263
H146	H	1.450498	-0.250462	0.499737
H147	H	0.722085	-0.640283	-0.000195
H148	H	1.222085	-0.140283	0.499805
H149	H	0.930505	-0.150943	-0.000231
H150	H	1.430505	0.349057	0.499769
O151	O	0.935737	-0.312616	-0.000233
O152	O	1.435737	0.187384	0.499767
H153	H	0.982373	-0.277105	-0.000229
H154	H	1.482373	0.222895	0.499771
H155	H	0.816982	0.233982	0.571243
H156	H	1.316982	0.733982	1.071243
O157	O	0.674898	-0.272823	-0.000180
O158	O	1.174898	0.227177	0.499820
H159	H	0.669247	-0.309620	-0.051198
H160	H	1.169247	0.190380	0.448802
H161	H	0.745954	0.201337	0.185287
H162	H	1.245954	0.701337	0.685287
H163	H	0.607904	0.238798	-0.000187
H164	H	1.107904	0.738798	0.499813
H165	H	0.906599	0.007424	0.328185
H166	H	1.406599	0.507424	0.828185
H167	H	0.044686	-0.030021	-0.000318
H168	H	0.544686	0.469979	0.499682
H169	H	0.732662	-0.491954	-0.000213
H170	H	1.232662	0.008046	0.499787
O171	O	0.257854	-0.010629	-0.091400
O172	O	0.757854	0.489371	0.408600
H173	H	0.297566	-0.048079	-0.121879
H174	H	0.797566	0.451921	0.378121
H175	H	0.702829	-0.116209	-0.000192
H176	H	1.202829	0.383791	0.499808
O177	O	0.918281	-0.006706	0.174804
O178	O	1.418281	0.493294	0.674804
H179	H	0.949060	-0.043870	0.215431
H180	H	1.449060	0.456130	0.715431
H181	H	0.835634	-0.025201	0.428314
H182	H	1.335634	0.474799	0.928314
O183	O	0.836995	-0.044081	0.581682
O184	O	1.336995	0.455919	1.081682
H185	H	0.836126	-0.032083	0.643095
H186	H	1.336126	0.467917	1.143095
H187	H	0.906631	0.007432	0.671317
H188	H	1.406631	0.507432	1.171317
O189	O	0.918334	-0.006696	0.824684
O190	O	1.418334	0.493304	1.324684
H191	H	0.910896	0.002275	0.886101
H192	H	1.410896	0.502275	1.386101
O193	O	0.734310	0.215480	0.660960
O194	O	1.234310	0.715480	1.160960
H195	H	0.703538	0.252649	0.701608
H196	H	1.203538	0.752649	1.201608
O197	O	0.815590	0.252858	0.417872
O198	O	1.315590	0.752858	0.917872
H199	H	0.816436	0.240857	0.356459
H200	H	1.316436	0.740857	0.856459
H201	H	0.746013	0.201352	0.814338
H202	H	1.246013	0.701352	1.314338
H203	H	0.492003	-0.022623	-0.000194
H204	H	0.992003	0.477377	0.499806
O205	O	0.465619	0.255342	-0.000215
O206	O	0.965619	0.755342	0.499785
H207	H	0.500011	0.305643	-0.000220
H208	H	1.000011	0.805643	0.499780
O209	O	0.394751	0.219371	0.090981
O210	O	0.894751	0.719371	0.590981
H211	H	0.355044	0.256799	0.121490
H212	H	0.855044	0.756799	0.621490
H213	H	0.398115	0.006177	-0.079797
H214	H	0.898115	0.506177	0.420203
H215	H	0.623564	-0.020455	-0.000150
H216	H	1.123564	0.479545	0.499850
