data_functionalizedCrystal
_audit_creation_method	'MofGen! by Chris Wilmer'
_symmetry_space_group_name_H-M	'P1'
_symmetry_Int_Tables_number	1
_symmetry_cell_setting	triclinic
loop_
_symmetry_equiv_pos_as_xyz
  x,y,z
_cell_length_a	17.699083
_cell_length_b	19.188930
_cell_length_c	16.776229
_cell_angle_alpha	89.988225
_cell_angle_beta	89.998886
_cell_angle_gamma	83.213899
loop_
_atom_site_label
_atom_site_type_symbol
_atom_site_fract_x
_atom_site_fract_y
_atom_site_fract_z
O1	O	1.003962	0.088294	-0.066185
O2	O	0.783569	0.099782	-0.066213
O3	O	0.900126	-0.007611	-0.066183
O4	O	0.887405	0.195686	-0.066215
O5	O	0.900110	-0.007617	0.066394
O6	O	0.783553	0.099775	0.066364
O7	O	1.003947	0.088288	0.066391
Zn8	Zn	0.893748	0.094030	0.087427
Zn9	Zn	0.893768	0.094039	-0.087249
O10	O	0.887390	0.195680	0.066361
C11	C	0.755365	0.099367	0.000072
C12	C	0.671348	0.098132	0.000062
C13	C	0.622644	0.161169	0.000053
C14	C	0.543702	0.160004	0.000063
C15	C	0.513466	0.095802	0.000078
C16	C	0.562176	0.032761	0.000090
C17	C	0.641117	0.033926	0.000085
C18	C	0.243819	0.028060	0.000111
C19	C	0.164873	0.026900	0.000113
C20	C	0.146405	0.154139	0.000088
C21	C	0.225345	0.155304	0.000084
C22	C	0.274049	0.092263	0.000100
C23	C	0.359646	0.093526	0.000090
C24	C	0.427870	0.094538	0.000082
C25	C	0.899706	-0.033625	0.000108
C26	C	0.898469	-0.111131	0.000114
C27	C	0.966861	-0.155978	0.000127
C28	C	0.965699	-0.228804	0.000114
C29	C	0.896142	-0.256778	0.000105
C30	C	0.827741	-0.211921	0.000088
C31	C	0.828905	-0.139098	0.000093
N32	N	0.842969	-0.364845	0.045216
N33	N	0.841868	-0.434025	0.045213
C34	C	0.892632	-0.476191	0.000088
N35	N	0.944550	-0.446565	-0.045024
N36	N	0.945653	-0.377379	-0.045018
C37	C	0.894873	-0.335742	0.000099
C38	C	0.959769	-0.600004	0.000085
C39	C	0.958604	-0.672830	0.000067
C40	C	0.820644	-0.655946	0.000049
C41	C	0.821811	-0.583121	0.000059
C42	C	0.891375	-0.555155	0.000081
C43	C	1.032151	0.088703	0.000104
C44	C	1.116167	0.089938	0.000109
C45	C	0.887810	0.221695	0.000069
C46	C	0.889046	0.299201	0.000057
N47	N	0.893739	0.094024	0.206638
N48	N	0.893782	0.094040	-0.206460
C49	C	0.945366	0.046490	0.248368
C50	C	0.945370	0.046490	0.331821
C51	C	0.893751	0.094027	0.373541
C52	C	0.842118	0.141563	0.331805
C53	C	0.842111	0.141559	0.248354
C54	C	0.842146	0.141576	0.668352
C55	C	0.842158	0.141578	0.751808
C56	C	0.945405	0.046507	0.751818
C57	C	0.945398	0.046503	0.668368
C58	C	0.893763	0.094037	0.626639
C59	C	0.893758	0.094036	0.536150
C60	C	0.893759	0.094031	0.464028
H61	H	0.647256	0.213450	0.000040
H62	H	0.800070	0.180265	0.214378
C63	C	0.753673	-0.089760	0.000081
H64	H	0.764329	-0.042384	0.000082
H65	H	0.725131	-0.098237	0.046306
H66	H	0.725151	-0.098216	-0.046165
C67	C	1.033839	-0.722163	0.000082
H68	H	1.075432	-0.695074	0.000104
H69	H	1.036265	-0.750912	-0.046152
H70	H	1.036240	-0.750931	0.046319
H71	H	0.764009	-0.678722	0.000038
H72	H	0.680771	-0.017406	0.000093
H73	H	0.766119	-0.546605	0.000054
C74	C	0.092830	0.223484	0.000081
H75	H	0.041485	0.213599	0.000095
H76	H	0.101969	0.249817	-0.046158
H77	H	0.101977	0.249813	0.046313
C78	C	0.751228	-0.242687	0.000075
H79	H	0.710662	-0.205544	0.000061
H80	H	0.747897	-0.270754	0.046304
H81	H	0.747917	-0.270733	-0.046167
H82	H	1.016412	-0.577233	0.000099
C83	C	0.528918	-0.037860	0.000105
H84	H	0.474929	-0.029527	0.000098
H85	H	0.545651	-0.063814	0.046340
H86	H	0.545651	-0.063805	-0.046130
C87	C	0.785356	0.193867	0.622460
H88	H	0.754623	0.222182	0.659262
H89	H	0.753930	0.168789	0.589917
H90	H	0.812485	0.222901	0.589896
H91	H	0.504050	0.211335	0.000054
C92	C	0.785360	0.193858	0.797700
H93	H	0.754599	0.222160	0.760896
H94	H	0.812478	0.222898	0.830247
H95	H	0.753951	0.168761	0.830260
H96	H	1.023506	-0.133213	0.000142
H97	H	0.987404	0.007783	0.214405
C98	C	1.040933	-0.278144	0.000133
H99	H	1.082529	-0.251058	0.000151
H100	H	1.043357	-0.306897	-0.046098
H101	H	1.043332	-0.306909	0.046372
H102	H	0.987409	0.007784	0.365797
C103	C	1.002177	-0.005789	0.622480
H104	H	1.032921	-0.034104	0.659286
H105	H	1.033594	0.019287	0.589911
H106	H	0.975039	-0.034825	0.589941
C107	C	0.785339	0.193854	0.377695
H108	H	0.792742	0.187054	0.433372
H109	H	0.734852	0.186331	0.364029
H110	H	0.793406	0.240444	0.364001
H111	H	0.987447	0.007800	0.785803
C112	C	0.258605	0.225924	0.000065
H113	H	0.312595	0.217589	0.000056
H114	H	0.241876	0.251874	0.046292
H115	H	0.241872	0.251874	-0.046178
H116	H	0.140258	-0.025384	0.000126
H117	H	0.283465	-0.023272	0.000125
