data_functionalizedCrystal
_audit_creation_method	'MofGen! by Chris Wilmer'
_symmetry_space_group_name_H-M	'P1'
_symmetry_Int_Tables_number	1
_symmetry_cell_setting	triclinic
loop_
_symmetry_equiv_pos_as_xyz
  x,y,z
_cell_length_a	18.215407
_cell_length_b	16.625546
_cell_length_c	18.215399
_cell_angle_alpha	90.029595
_cell_angle_beta	90.019350
_cell_angle_gamma	90.022916
loop_
_atom_site_label
_atom_site_type_symbol
_atom_site_fract_x
_atom_site_fract_y
_atom_site_fract_z
Zn1	Zn	1.125081	-0.320997	0.416110
Zn2	Zn	1.458414	0.012336	0.749443
Zn3	Zn	1.791747	0.345670	1.082776
Zn4	Zn	1.124995	-0.455838	0.293041
Zn5	Zn	1.458329	-0.122505	0.626374
Zn6	Zn	1.791662	0.210829	0.959707
Zn7	Zn	1.002014	-0.321024	0.293057
Zn8	Zn	1.335348	0.012309	0.626390
Zn9	Zn	1.668681	0.345642	0.959724
Zn10	Zn	1.001984	-0.455792	0.416066
Zn11	Zn	1.335318	-0.122459	0.749399
Zn12	Zn	1.668651	0.210874	1.082732
O13	O	1.063519	-0.388413	0.354568
O14	O	1.396852	-0.055080	0.687902
O15	O	1.730185	0.278254	1.021235
O16	O	1.228054	-0.338892	0.399796
O17	O	1.561387	-0.005558	0.733129
O18	O	1.894720	0.327775	1.066463
O19	O	1.108659	-0.437985	0.190059
O20	O	1.441992	-0.104652	0.523392
O21	O	1.775325	0.228681	0.856725
O22	O	1.018388	-0.208188	0.309405
O23	O	1.351721	0.125145	0.642739
O24	O	1.685054	0.458478	0.976072
O25	O	1.227991	-0.437959	0.309378
O26	O	1.561324	-0.104626	0.642711
O27	O	1.894658	0.228708	0.976044
O28	O	1.108804	-0.208168	0.399812
O29	O	1.442137	0.125165	0.733145
O30	O	1.775471	0.458499	1.066478
O31	O	1.018305	-0.338938	0.190070
O32	O	1.351638	-0.005605	0.523404
O33	O	1.684972	0.327728	0.856737
O34	O	0.899026	-0.338894	0.309363
O35	O	1.232360	-0.005560	0.642696
O36	O	1.565693	0.327773	0.976029
O37	O	1.018337	-0.437881	0.519056
O38	O	1.351670	-0.104547	0.852389
O39	O	1.685003	0.228786	1.185722
O40	O	0.899004	-0.437907	0.399737
O41	O	1.232337	-0.104574	0.733070
O42	O	1.565671	0.228759	1.066403
O43	O	1.108775	-0.338847	0.519088
O44	O	1.442108	-0.005514	0.852421
O45	O	1.775442	0.327819	1.185755
O46	O	1.108629	-0.568664	0.309335
O47	O	1.441963	-0.235331	0.642668
O48	O	1.775296	0.098002	0.976002
O49	O	1.018254	-0.568631	0.399721
O50	O	1.351587	-0.235297	0.733054
O51	O	1.684921	0.098036	1.066387
C52	C	0.872313	-0.388399	0.354547
C53	C	1.205646	-0.055066	0.687880
C54	C	1.538979	0.278268	1.021214
C55	C	0.790514	-0.388413	0.354556
C56	C	1.123847	-0.055079	0.687889
C57	C	1.457180	0.278254	1.021222
C58	C	1.063449	-0.597904	0.354537
C59	C	1.396782	-0.264570	0.687871
C60	C	1.730116	0.068763	1.021204
C61	C	1.063487	-0.687525	0.354549
C62	C	1.396820	-0.354192	0.687882
C63	C	1.730153	-0.020858	1.021215
C64	C	0.602327	-0.440050	0.401554
C65	C	0.935661	-0.106717	0.734887
C66	C	1.268994	0.226617	1.068221
C67	C	0.525469	-0.440053	0.401563
C68	C	0.858802	-0.106719	0.734897
C69	C	1.192135	0.226614	1.068230
C70	C	0.525462	-0.336790	0.307598
C71	C	0.858795	-0.003457	0.640932
C72	C	1.192129	0.329876	0.974265
C73	C	0.602319	-0.336784	0.307593
C74	C	0.935653	-0.003451	0.640927
C75	C	1.268986	0.329882	0.974260
C76	C	0.640750	-0.388419	0.354570
C77	C	0.974083	-0.055085	0.687904
C78	C	1.307417	0.278248	1.021237
C79	C	0.487034	-0.388427	0.354584
C80	C	0.820367	-0.055094	0.687918
C81	C	1.153701	0.278239	1.021251
C82	C	0.403700	-0.388430	0.354594
C83	C	0.737034	-0.055096	0.687927
C84	C	1.070367	0.278237	1.021261
C85	C	0.724089	-0.388416	0.354562
C86	C	1.057422	-0.055082	0.687895
C87	C	1.390756	0.278251	1.021228
C88	C	1.063615	-1.015700	0.354625
C89	C	1.396948	-0.682367	0.687959
C90	C	1.730282	-0.349034	1.021292
C91	C	1.063577	-0.924392	0.354606
C92	C	1.396910	-0.591059	0.687940
C93	C	1.730244	-0.257725	1.021273
C94	C	1.063550	-0.851616	0.354587
C95	C	1.396884	-0.518282	0.687920
C96	C	1.730217	-0.184949	1.021253
C97	C	1.063513	-0.760301	0.354568
C98	C	1.396847	-0.426968	0.687902
C99	C	1.730180	-0.093635	1.021235
C100	C	1.255472	-0.388427	0.354590
C101	C	1.588805	-0.055094	0.687923
C102	C	1.922138	0.278239	1.021256
C103	C	1.337271	-0.388433	0.354599
C104	C	1.670604	-0.055100	0.687932
C105	C	2.003937	0.278233	1.021266
C106	C	1.063562	-0.388356	0.546521
C107	C	1.396895	-0.055022	0.879855
C108	C	1.730229	0.278311	1.213188
C109	C	1.063580	-0.388331	0.628320
C110	C	1.396914	-0.054998	0.961653
C111	C	1.730247	0.278335	1.294987
C112	C	1.063609	-0.178104	0.354615
C113	C	1.396942	0.155229	0.687949
C114	C	1.730275	0.488563	1.021282
C115	C	1.063647	-0.088483	0.354635
C116	C	1.396980	0.244850	0.687969
C117	C	1.730314	0.578184	1.021302
C118	C	1.063518	-0.388412	0.163362
C119	C	1.396851	-0.055078	0.496695
C120	C	1.730185	0.278255	0.830029
C121	C	1.063642	-0.388209	0.081563
C122	C	1.396976	-0.054876	0.414897
C123	C	1.730309	0.278458	0.748230
C124	C	1.110699	-0.336695	0.893396
C125	C	1.444032	-0.003362	1.226729
C126	C	1.777365	0.329972	1.560063
C127	C	1.110690	-0.336717	0.816537
C128	C	1.444023	-0.003384	1.149870
C129	C	1.777357	0.329950	1.483204
C130	C	1.016522	-0.439851	0.816493
C131	C	1.349855	-0.106518	1.149826
C132	C	1.683188	0.226816	1.483160
C133	C	1.016535	-0.439833	0.893351
C134	C	1.349868	-0.106499	1.226684
C135	C	1.683201	0.226834	1.560017
C136	C	1.063622	-0.388250	0.931800
C137	C	1.396955	-0.054917	1.265133
C138	C	1.730289	0.278417	1.598467
C139	C	1.063601	-0.388290	0.778084
C140	C	1.396934	-0.054957	1.111417
C141	C	1.730267	0.278376	1.444750
C142	C	1.063591	-0.388314	0.694750
C143	C	1.396924	-0.054981	1.028083
C144	C	1.730257	0.278352	1.361417
C145	C	1.063633	-0.388227	1.015139
C146	C	1.396966	-0.054894	1.348472
C147	C	1.730300	0.278440	1.681806
H148	H	0.494188	-0.482095	0.439823
H149	H	0.827522	-0.148761	0.773157
H150	H	1.160855	0.184572	1.106490
O151	O	0.643764	-0.281090	0.256915
O152	O	0.977097	0.052243	0.590248
O153	O	1.310430	0.385577	0.923581
H154	H	0.703663	-0.289755	0.264811
H155	H	1.036997	0.043579	0.598145
H156	H	1.370330	0.376912	0.931478
O157	O	1.161466	-0.281108	0.775118
O158	O	1.494800	0.052225	1.108452
O159	O	1.828133	0.385559	1.441785
H160	H	1.198896	-0.317206	0.740107
H161	H	1.532229	0.016127	1.073441
H162	H	1.865563	0.349460	1.406774
O163	O	0.643782	-0.495718	0.452237
O164	O	0.977115	-0.162384	0.785570
O165	O	1.310449	0.170949	1.118904
H166	H	0.678775	-0.536702	0.419242
H167	H	1.012108	-0.203369	0.752575
H168	H	1.345442	0.129965	1.085909
O169	O	0.484013	-0.281127	0.256907
O170	O	0.817346	0.052207	0.590240
O171	O	1.150680	0.385540	0.923574
H172	H	0.424114	-0.289817	0.264790
H173	H	0.757447	0.043516	0.598124
H174	H	1.090780	0.376849	0.931457
O175	O	1.161491	-0.281072	0.934870
O176	O	1.494824	0.052262	1.268203
O177	O	1.828158	0.385595	1.601537
H178	H	1.194230	-0.245233	0.895250
H179	H	1.527564	0.088100	1.228583
H180	H	1.860897	0.421434	1.561916
H181	H	0.978184	-0.481846	0.785178
H182	H	1.311517	-0.148513	1.118512
H183	H	1.644850	0.184820	1.451845
H184	H	0.978199	-0.481819	0.924620
H185	H	1.311532	-0.148486	1.257953
H186	H	1.644865	0.184847	1.591287
