data_functionalizedCrystal
_audit_creation_method	'MofGen! by Chris Wilmer'
_symmetry_space_group_name_H-M	'P1'
_symmetry_Int_Tables_number	1
_symmetry_cell_setting	triclinic
loop_
_symmetry_equiv_pos_as_xyz
  x,y,z
_cell_length_a	13.032831
_cell_length_b	16.625546
_cell_length_c	13.033388
_cell_angle_alpha	82.835440
_cell_angle_beta	89.094871
_cell_angle_gamma	82.826778
loop_
_atom_site_label
_atom_site_type_symbol
_atom_site_fract_x
_atom_site_fract_y
_atom_site_fract_z
Zn1	Zn	1.498212	-0.544714	0.780744
Zn2	Zn	1.831546	-0.211381	1.114077
Zn3	Zn	2.164879	0.121953	1.447410
Zn4	Zn	1.519991	-0.664802	0.608758
Zn5	Zn	1.853325	-0.331469	0.942091
Zn6	Zn	2.186658	0.001865	1.275425
Zn7	Zn	1.348128	-0.510984	0.586996
Zn8	Zn	1.681461	-0.177650	0.920330
Zn9	Zn	2.014794	0.155683	1.253663
Zn10	Zn	1.326198	-0.660480	0.758877
Zn11	Zn	1.659531	-0.327147	1.092211
Zn12	Zn	1.992865	0.006187	1.425544
O13	O	1.423132	-0.595245	0.683844
O14	O	1.756466	-0.261912	1.017177
O15	O	2.089799	0.071422	1.350510
O16	O	1.645015	-0.576569	0.776188
O17	O	1.978349	-0.243236	1.109521
O18	O	2.311682	0.090097	1.442854
O19	O	1.515485	-0.632090	0.461962
O20	O	1.848819	-0.298757	0.795295
O21	O	2.182152	0.034576	1.128628
O22	O	1.368100	-0.402636	0.612741
O23	O	1.701433	-0.069303	0.946074
O24	O	2.034766	0.264031	1.279408
O25	O	1.661016	-0.664797	0.649831
O26	O	1.994350	-0.331464	0.983164
O27	O	2.327683	0.001869	1.316497
O28	O	1.478366	-0.427418	0.755086
O29	O	1.811699	-0.094084	1.088420
O30	O	2.145033	0.239249	1.421753
O31	O	1.389218	-0.519081	0.445974
O32	O	1.722551	-0.185747	0.779307
O33	O	2.055885	0.147586	1.112640
O34	O	1.201304	-0.514889	0.591538
O35	O	1.534638	-0.181556	0.924872
O36	O	1.867971	0.151777	1.258205
O37	O	1.330724	-0.657431	0.905687
O38	O	1.664057	-0.324097	1.239021
O39	O	1.997391	0.009236	1.572354
O40	O	1.185193	-0.624724	0.717818
O41	O	1.518526	-0.291390	1.051152
O42	O	1.851860	0.041943	1.384485
O43	O	1.457102	-0.572378	0.921752
O44	O	1.790435	-0.239045	1.255086
O45	O	2.123769	0.094289	1.588419
O46	O	1.494221	-0.777051	0.628628
O47	O	1.827555	-0.443717	0.961961
O48	O	2.160888	-0.110384	1.295294
O49	O	1.351842	-0.773875	0.738920
O50	O	1.685175	-0.440542	1.072253
O51	O	2.018509	-0.107208	1.405586
C52	C	1.155933	-0.565678	0.649945
C53	C	1.489267	-0.232345	0.983278
C54	C	1.822600	0.100989	1.316611
C55	C	1.041621	-0.553051	0.635467
C56	C	1.374955	-0.219717	0.968800
C57	C	1.708288	0.113616	1.302134
C58	C	0.982725	-0.601835	0.691400
C59	C	1.316059	-0.268502	1.024733
C60	C	1.649392	0.064831	1.358066
C61	C	0.864578	-0.588786	0.676438
C62	C	1.197911	-0.255452	1.009771
C63	C	1.531244	0.077881	1.343104
C64	C	1.423040	-0.804721	0.683788
C65	C	1.756374	-0.471388	1.017122
C66	C	2.089707	-0.138055	1.350455
C67	C	1.423091	-0.894350	0.683811
C68	C	1.756424	-0.561016	1.017144
C69	C	2.089757	-0.227683	1.350478
C70	C	1.423257	-1.222554	0.683941
C71	C	1.756590	-0.889221	1.017274
C72	C	2.089923	-0.555888	1.350607
C73	C	1.423207	-1.131238	0.683907
C74	C	1.756540	-0.797904	1.017240
C75	C	2.089873	-0.464571	1.350574
C76	C	1.423173	-1.058455	0.683875
C77	C	1.756506	-0.725121	1.017209
C78	C	2.089840	-0.391788	1.350542
C79	C	1.423125	-0.967133	0.683843
C80	C	1.756458	-0.633799	1.017176
C81	C	2.089791	-0.300466	1.350509
C82	C	1.691374	-0.624928	0.717876
C83	C	2.024708	-0.291595	1.051209
C84	C	2.358041	0.041739	1.384542
C85	C	1.805683	-0.637577	0.732378
C86	C	2.139017	-0.304244	1.065711
C87	C	2.472350	0.029090	1.399045
C88	C	1.389037	-0.618185	0.952077
C89	C	1.722371	-0.284852	1.285410
C90	C	2.055704	0.048482	1.618744
C91	C	1.374508	-0.627960	1.066382
C92	C	1.707841	-0.294627	1.399716
C93	C	2.041175	0.038706	1.733049
C94	C	1.423250	-0.384956	0.683925
C95	C	1.756583	-0.051622	1.017259
C96	C	2.089916	0.281711	1.350592
C97	C	1.423300	-0.295343	0.683960
C98	C	1.756633	0.037991	1.017294
C99	C	2.089966	0.371324	1.350627
C100	C	1.415558	-0.600346	1.243434
C101	C	1.748891	-0.267012	1.576768
C102	C	2.082224	0.066321	1.910101
C103	C	1.430569	-0.590235	1.125293
C104	C	1.763902	-0.256902	1.458627
C105	C	2.097236	0.076432	1.791960
C106	C	1.457086	-0.572409	1.416653
C107	C	1.790419	-0.239075	1.749986
C108	C	2.123752	0.094258	2.083319
C109	C	1.471611	-0.562625	1.302347
C110	C	1.804944	-0.229292	1.635680
C111	C	2.138278	0.104041	1.969014
H112	H	1.019770	-0.653260	0.750366
H113	H	1.353103	-0.319927	1.083699
H114	H	1.686436	0.013406	1.417033
H115	H	1.315391	-0.667733	1.103401
H116	H	1.648724	-0.334400	1.436734
H117	H	1.982058	-0.001067	1.770067
H118	H	1.356452	-0.640122	1.280460
H119	H	1.689786	-0.306789	1.613793
H120	H	2.023119	0.026545	1.947126
H121	H	0.827537	-0.537352	0.617475
H122	H	1.160870	-0.204018	0.950808
H123	H	1.494203	0.129315	1.284141
H124	H	1.530709	-0.522842	1.265320
H125	H	1.864042	-0.189509	1.598654
H126	H	2.197375	0.143824	1.931987
H127	H	1.489671	-0.550449	1.088271
H128	H	1.823004	-0.217116	1.421605
H129	H	2.156337	0.116218	1.754938
H130	H	0.842722	-0.689004	0.791352
H131	H	1.176055	-0.355671	1.124685
H132	H	1.509388	-0.022338	1.458018
H133	H	1.004576	-0.501620	0.576508
H134	H	1.337909	-0.168287	0.909842
H135	H	1.671242	0.165046	1.243175
