data_functionalizedCrystal
_audit_creation_method	'MofGen! by Chris Wilmer'
_symmetry_space_group_name_H-M	'P1'
_symmetry_Int_Tables_number	1
_symmetry_cell_setting	triclinic
loop_
_symmetry_equiv_pos_as_xyz
  x,y,z
_cell_length_a	17.699083
_cell_length_b	27.732048
_cell_length_c	16.176319
_cell_angle_alpha	89.988239
_cell_angle_beta	89.998611
_cell_angle_gamma	82.962835
loop_
_atom_site_label
_atom_site_type_symbol
_atom_site_fract_x
_atom_site_fract_y
_atom_site_fract_z
O1	O	1.003540	0.061127	-0.068640
O2	O	0.783091	0.069080	-0.068668
O3	O	0.900162	-0.005269	-0.068637
O4	O	0.886469	0.135475	-0.068670
O5	O	0.900146	-0.005273	0.068856
O6	O	0.783075	0.069075	0.068825
O7	O	1.003524	0.061122	0.068853
Cu8	Cu	0.893298	0.065098	0.081394
Cu9	Cu	0.893317	0.065104	-0.081208
O10	O	0.886453	0.135471	0.068823
C11	C	0.754889	0.068792	0.000075
C12	C	0.670878	0.067938	0.000065
C13	C	0.621873	0.111579	0.000055
C14	C	0.542936	0.110772	0.000066
C15	C	0.513007	0.066325	0.000081
C16	C	0.562019	0.022680	0.000094
C17	C	0.640954	0.023487	0.000089
C18	C	0.243685	0.019426	0.000115
C19	C	0.164744	0.018623	0.000117
C20	C	0.145667	0.106712	0.000092
C21	C	0.224602	0.107518	0.000087
C22	C	0.273607	0.063874	0.000104
C23	C	0.359199	0.064749	0.000094
C24	C	0.427418	0.065450	0.000085
C25	C	0.899867	-0.023279	0.000112
C26	C	0.899001	-0.076937	0.000118
C27	C	0.962734	-0.415523	0.000084
C28	C	0.959522	-0.617194	0.000072
O29	O	1.017801	-0.648240	0.000043
N30	N	0.890104	-0.636567	0.000064
C31	C	0.821484	-0.605520	0.000053
O32	O	0.762366	-0.626625	0.000038
C33	C	0.824696	-0.403849	0.000059
C34	C	0.894119	-0.384479	0.000076
C35	C	1.032151	-0.396152	0.000100
C36	C	1.032953	-0.345737	0.000107
C37	C	0.964338	-0.314693	0.000099
C38	C	0.894921	-0.334064	0.000083
C39	C	0.756076	-0.372802	0.000043
C40	C	0.756886	-0.322382	0.000042
C41	C	0.826308	-0.303012	0.000059
C42	C	0.827108	-0.252605	0.000083
N43	N	0.896526	-0.233232	0.000091
C44	C	0.965141	-0.264276	0.000099
C45	C	0.819802	-0.711400	0.000052
C46	C	0.818999	-0.761817	0.000052
C47	C	0.957038	-0.773488	0.000069
C48	C	0.957840	-0.723070	0.000075
C49	C	0.889220	-0.692026	0.000060
C50	C	0.966820	-0.158401	0.000115
C51	C	0.967616	-0.107981	0.000126
C52	C	0.829578	-0.096314	0.000105
C53	C	0.828781	-0.146730	0.000098
C54	C	0.897409	-0.177772	0.000101
O55	O	0.768860	-0.221531	0.000102
O56	O	1.024251	-0.243161	0.000096
C57	C	0.961931	-0.465938	0.000077
C58	C	0.892514	-0.485309	0.000061
C59	C	0.823899	-0.454265	0.000053
C60	C	0.891711	-0.535726	0.000061
C61	C	0.960326	-0.566770	0.000069
C62	C	1.029744	-0.547397	0.000077
C63	C	1.030546	-0.496982	0.000085
C64	C	0.754481	-0.473638	0.000045
C65	C	0.753685	-0.524053	0.000038
C66	C	0.822300	-0.555097	0.000046
C67	C	1.031726	0.061410	0.000108
C68	C	1.115737	0.062264	0.000113
C69	C	0.886748	0.153481	0.000072
C70	C	0.887614	0.207139	0.000060
N71	N	0.893290	0.065094	0.195759
N72	N	0.893331	0.065104	-0.195573
C73	C	0.945145	0.032186	0.239037
C74	C	0.945149	0.032185	0.325584
C75	C	0.893301	0.065096	0.368851
C76	C	0.841441	0.098005	0.325568
C77	C	0.841434	0.098003	0.239022
C78	C	0.841467	0.098014	0.674596
C79	C	0.841479	0.098015	0.761147
C80	C	0.945181	0.032197	0.761157
C81	C	0.945174	0.032194	0.674612
C82	C	0.893312	0.065102	0.631336
C83	C	0.893308	0.065102	0.537491
C84	C	0.893309	0.065099	0.462694
H85	H	1.024151	-0.092213	0.000142
H86	H	0.987408	0.005400	0.796402
H87	H	1.088028	-0.421424	0.000103
H88	H	0.701006	-0.297108	0.000029
C89	C	0.784395	0.134204	0.191414
C90	C	0.727389	0.170422	0.239004
C91	C	0.670345	0.206622	0.191397
C92	C	0.670306	0.206604	0.096200
C93	C	0.727314	0.170385	0.048605
C94	C	0.784358	0.134185	0.096212
H95	H	0.727416	0.170436	0.309479
H96	H	0.628144	0.233433	0.226630
H97	H	0.628079	0.233401	0.060959
H98	H	0.727287	0.170370	-0.021870
H99	H	0.826559	0.107373	0.060978
C100	C	0.677312	-0.545356	0.000023
C101	C	0.657755	-0.578420	0.071409
C102	C	0.581385	-0.599720	0.071387
C103	C	0.524571	-0.587955	-0.000021
C104	C	0.544127	-0.554889	-0.071412
C105	C	0.620497	-0.533589	-0.071390
H106	H	0.699813	-0.587131	0.124275
H107	H	0.566909	-0.624198	0.124236
H108	H	0.468037	-0.603723	-0.000037
H109	H	0.502069	-0.546179	-0.124278
H110	H	0.634973	-0.509112	-0.124239
H111	H	1.089484	-0.329971	0.000117
C112	C	1.042310	-0.192543	0.000125
C113	C	1.099342	-0.190429	0.071536
C114	C	1.174831	-0.224571	0.071553
C115	C	1.193286	-0.260826	0.000158
C116	C	1.136252	-0.262941	-0.071259
C117	C	1.060764	-0.228799	-0.071276
H118	H	1.085682	-0.163590	0.124392
H119	H	1.217051	-0.223006	0.124421
H120	H	1.249167	-0.286100	0.000170
H121	H	1.149912	-0.289781	-0.124115
H122	H	1.018543	-0.230365	-0.124143
C123	C	0.784428	0.134214	0.626995
C124	C	0.727420	0.170431	0.674584
C125	C	0.670380	0.206633	0.626976
C126	C	0.670347	0.206619	0.531779
C127	C	0.727358	0.170401	0.484185
C128	C	0.784398	0.134199	0.531793
H129	H	0.727442	0.170443	0.745059
H130	H	0.628177	0.233444	0.662209
H131	H	0.628123	0.233418	0.496537
H132	H	0.727336	0.170389	0.413710
H133	H	0.826601	0.107388	0.496559
H134	H	0.283576	-0.016112	0.000129
H135	H	0.987368	0.005389	0.203814
C136	C	0.529100	-0.026213	0.000109
C137	C	0.442276	-0.027103	0.000108
C138	C	0.409359	-0.075998	0.000120
C139	C	0.463267	-0.124003	0.000132
C140	C	0.550097	-0.123115	0.000133
C141	C	0.583013	-0.074220	0.000121
H142	H	0.402366	0.008434	0.000099
H143	H	0.345082	-0.076656	0.000119
H144	H	0.438900	-0.160198	0.000141
H145	H	0.590007	-0.158652	0.000142
H146	H	0.647291	-0.073562	0.000122
H147	H	1.085613	-0.572682	0.000087
H148	H	0.140380	-0.017574	0.000131
H149	H	0.799222	0.124800	0.360801
C150	C	1.034205	-0.701765	0.000086
C151	C	1.091025	-0.713523	0.071490
C152	C	1.167394	-0.692221	0.071499
C153	C	1.186943	-0.659161	0.000104
C154	C	1.130121	-0.647401	-0.071306
C155	C	1.053753	-0.668703	-0.071315
H156	H	1.076555	-0.737998	0.124346
H157	H	1.209457	-0.700927	0.124361
H158	H	1.243475	-0.643392	0.000110
H159	H	1.144591	-0.622926	-0.124162
H160	H	1.011690	-0.659997	-0.124177
H161	H	0.680855	-0.012050	0.000096
C162	C	0.678998	-0.439495	0.000044
C163	C	0.621950	-0.441605	-0.071353
C164	C	0.546460	-0.407465	-0.071346
C165	C	0.528019	-0.371214	0.000058
C166	C	0.585069	-0.369102	0.071461
C167	C	0.660558	-0.403243	0.071454
H168	H	0.635599	-0.468441	-0.124215
H169	H	0.504228	-0.409028	-0.124204
H170	H	0.472137	-0.345941	0.000063
H171	H	0.571419	-0.342266	0.124323
H172	H	0.702790	-0.401679	0.124311
C173	C	1.002191	-0.004011	0.373194
C174	C	1.059245	-0.040200	0.325608
C175	C	1.116288	-0.076399	0.373220
C176	C	1.116277	-0.076408	0.468417
C177	C	1.059221	-0.040217	0.516007
C178	C	1.002178	-0.004019	0.468396
H179	H	1.059254	-0.040195	0.255133
H180	H	1.158525	-0.103189	0.337990
H181	H	1.158504	-0.103204	0.503662
H182	H	1.059212	-0.040223	0.586482
H183	H	0.959941	0.022772	0.503626
H184	H	1.012907	-0.798773	0.000076
H185	H	0.773714	-0.071029	0.000101
C186	C	0.752421	-0.168044	0.000084
C187	C	0.695578	-0.156314	0.071471
C188	C	0.619217	-0.177625	0.071446
C189	C	0.599700	-0.210667	0.000035
C190	C	0.656544	-0.222399	-0.071356
C191	C	0.732904	-0.201087	-0.071332
H192	H	0.710025	-0.131853	0.124338
H193	H	0.577138	-0.168941	0.124296
H194	H	0.543173	-0.226443	0.000017
H195	H	0.642097	-0.246860	-0.124224
H196	H	0.774984	-0.209772	-0.124181
C197	C	1.106914	-0.475679	0.000094
C198	C	1.163736	-0.487443	0.071495
C199	C	1.240108	-0.466145	0.071502
C200	C	1.259658	-0.433084	0.000108
C201	C	1.202834	-0.421318	-0.071297
C202	C	1.126462	-0.442616	-0.071304
H203	H	1.149266	-0.511919	0.124349
H204	H	1.282173	-0.474855	0.124361
H205	H	1.316193	-0.417318	0.000114
H206	H	1.217305	-0.396843	-0.124151
H207	H	1.084398	-0.433906	-0.124164
H208	H	0.646234	0.147773	0.000042
H209	H	0.799256	0.124815	0.796374
H210	H	0.503039	0.146309	0.000057
H211	H	0.248965	0.143712	0.000071
H212	H	0.763920	-0.686128	0.000040
H213	H	0.105758	0.142249	0.000083
H214	H	0.762468	-0.777584	0.000053
H215	H	0.699545	-0.388565	0.000024
H216	H	0.987396	0.005397	0.639386
