data_functionalizedCrystal
_audit_creation_method	'MofGen! by Chris Wilmer'
_symmetry_space_group_name_H-M	'P1'
_symmetry_Int_Tables_number	1
_symmetry_cell_setting	triclinic
loop_
_symmetry_equiv_pos_as_xyz
  x,y,z
_cell_length_a	16.120490
_cell_length_b	16.120444
_cell_length_c	11.169409
_cell_angle_alpha	92.861473
_cell_angle_beta	87.080796
_cell_angle_gamma	90.165174
loop_
_atom_site_label
_atom_site_type_symbol
_atom_site_fract_x
_atom_site_fract_y
_atom_site_fract_z
Zn1	Zn	1.254505	-0.395597	-0.798889
Zn2	Zn	1.504505	-0.145597	-0.548889
Zn3	Zn	1.754505	0.104403	-0.298889
Zn4	Zn	2.004505	0.354403	-0.048889
Zn5	Zn	1.247337	-0.534676	-0.607813
Zn6	Zn	1.497337	-0.284676	-0.357813
Zn7	Zn	1.747337	-0.034676	-0.107813
Zn8	Zn	1.997337	0.215324	0.142187
Zn9	Zn	1.115435	-0.388577	-0.587565
Zn10	Zn	1.365435	-0.138577	-0.337565
Zn11	Zn	1.615435	0.111423	-0.087565
Zn12	Zn	1.865435	0.361423	0.162435
Zn13	Zn	1.108354	-0.527542	-0.797798
Zn14	Zn	1.358354	-0.277542	-0.547798
Zn15	Zn	1.608354	-0.027542	-0.297798
Zn16	Zn	1.858354	0.222458	-0.047798
O17	O	1.181408	-0.461598	-0.698017
O18	O	1.431408	-0.211598	-0.448017
O19	O	1.681408	0.038402	-0.198017
O20	O	1.931408	0.288402	0.051983
O21	O	1.369920	-0.419969	-0.782473
O22	O	1.619920	-0.169969	-0.532473
O23	O	1.869920	0.080031	-0.282473
O24	O	2.119920	0.330031	-0.032473
O25	O	1.229803	-0.515343	-0.437178
O26	O	1.479803	-0.265343	-0.187178
O27	O	1.729803	-0.015343	0.062822
O28	O	1.979803	0.234657	0.312822
O29	O	1.139846	-0.273146	-0.607581
O30	O	1.389846	-0.023146	-0.357581
O31	O	1.639846	0.226854	-0.107581
O32	O	1.889846	0.476854	0.142419
O33	O	1.364653	-0.522150	-0.642091
O34	O	1.614653	-0.272150	-0.392091
O35	O	1.864653	-0.022150	-0.142091
O36	O	2.114653	0.227850	0.107909
O37	O	1.242020	-0.278303	-0.762840
O38	O	1.492020	-0.028303	-0.512840
O39	O	1.742020	0.221697	-0.262840
O40	O	1.992020	0.471697	-0.012840
O41	O	1.132895	-0.408006	-0.422302
O42	O	1.382895	-0.158006	-0.172302
O43	O	1.632895	0.091994	0.077698
O44	O	1.882895	0.341994	0.327698
O45	O	0.998129	-0.401088	-0.606523
O46	O	1.248129	-0.151088	-0.356523
O47	O	1.498129	0.098912	-0.106523
O48	O	1.748129	0.348912	0.143477
O49	O	1.127778	-0.509992	-0.965892
O50	O	1.377778	-0.259992	-0.715892
O51	O	1.627778	-0.009992	-0.465892
O52	O	1.877778	0.240008	-0.215892
O53	O	0.992928	-0.503185	-0.760980
O54	O	1.242928	-0.253185	-0.510980
O55	O	1.492928	-0.003185	-0.260980
O56	O	1.742928	0.246815	-0.010980
O57	O	1.235154	-0.413052	-0.966694
O58	O	1.485154	-0.163052	-0.716694
O59	O	1.735154	0.086948	-0.466694
O60	O	1.985154	0.336948	-0.216694
O61	O	1.222937	-0.650092	-0.641032
O62	O	1.472937	-0.400092	-0.391032
O63	O	1.722937	-0.150092	-0.141032
O64	O	1.972937	0.099908	0.108968
O65	O	1.120828	-0.644851	-0.780613
O66	O	1.370828	-0.394851	-0.530613
O67	O	1.620828	-0.144851	-0.280613
O68	O	1.870828	0.105149	-0.030613
C69	C	0.965356	-0.450602	-0.681436
C70	C	1.215356	-0.200602	-0.431436
C71	C	1.465356	0.049398	-0.181436
C72	C	1.715356	0.299398	0.068564
C73	C	0.872927	-0.445917	-0.674373
C74	C	1.122927	-0.195917	-0.424373
C75	C	1.372927	0.054083	-0.174373
C76	C	1.622927	0.304083	0.075627
C77	C	0.659960	-0.485890	-0.734656
C78	C	0.909960	-0.235890	-0.484656
C79	C	1.159960	0.014110	-0.234656
C80	C	1.409960	0.264110	0.015344
C81	C	0.703703	-0.437373	-0.661476
C82	C	0.953703	-0.187373	-0.411476
C83	C	1.203703	0.062627	-0.161476
C84	C	1.453703	0.312627	0.088524
C85	C	0.797868	-0.442128	-0.668654
C86	C	1.047868	-0.192128	-0.418654
C87	C	1.297868	0.057872	-0.168654
C88	C	1.547868	0.307872	0.081346
C89	C	0.565786	-0.481135	-0.727480
C90	C	0.815786	-0.231135	-0.477480
C91	C	1.065786	0.018865	-0.227480
C92	C	1.315786	0.268865	0.022520
C93	C	1.170359	-0.677644	-0.712929
C94	C	1.420359	-0.427644	-0.462929
C95	C	1.670359	-0.177644	-0.212929
C96	C	1.920359	0.072356	0.037071
C97	C	1.165708	-0.770073	-0.719355
C98	C	1.415708	-0.520073	-0.469355
C99	C	1.665708	-0.270073	-0.219355
C100	C	1.915708	-0.020073	0.030645
C101	C	1.205736	-0.983054	-0.664956
C102	C	1.455736	-0.733054	-0.414956
C103	C	1.705736	-0.483054	-0.164956
C104	C	1.955736	-0.233054	0.085044
C105	C	1.157233	-0.939298	-0.731101
C106	C	1.407233	-0.689298	-0.481101
C107	C	1.657233	-0.439298	-0.231101
C108	C	1.907233	-0.189298	0.018899
C109	C	1.161950	-0.845133	-0.724564
C110	C	1.411950	-0.595133	-0.474564
C111	C	1.661950	-0.345133	-0.224564
C112	C	1.911950	-0.095133	0.025436
C113	C	1.201020	-1.077229	-0.671492
C114	C	1.451020	-0.827229	-0.421492
C115	C	1.701020	-0.577229	-0.171492
C116	C	1.951020	-0.327229	0.078508
C117	C	1.398303	-0.472638	-0.714662
C118	C	1.648303	-0.222638	-0.464662
C119	C	1.898303	0.027362	-0.214662
C120	C	2.148303	0.277362	0.035338
C121	C	1.490730	-0.477343	-0.721756
C122	C	1.740730	-0.227343	-0.471756
C123	C	1.990730	0.022657	-0.221756
C124	C	2.240730	0.272657	0.028244
C125	C	1.181476	-0.461509	-1.011058
C126	C	1.431476	-0.211509	-0.761058
C127	C	1.681476	0.038491	-0.511058
C128	C	1.931476	0.288491	-0.261058
C129	C	1.181505	-0.461471	-1.144457
C130	C	1.431505	-0.211471	-0.894457
C131	C	1.681505	0.038529	-0.644457
C132	C	1.931505	0.288529	-0.394457
C133	C	1.192522	-0.244710	-0.683073
C134	C	1.442522	0.005290	-0.433073
C135	C	1.692522	0.255290	-0.183073
C136	C	1.942522	0.505290	0.066927
C137	C	1.197258	-0.152285	-0.676706
C138	C	1.447258	0.097715	-0.426706
C139	C	1.697258	0.347715	-0.176706
C140	C	1.947258	0.597715	0.073294
C141	C	1.181390	-0.461629	-0.386193
C142	C	1.431390	-0.211629	-0.136193
C143	C	1.681390	0.038371	0.113807
C144	C	1.931390	0.288371	0.363807
C145	C	1.181534	-0.461441	-0.252790
C146	C	1.431534	-0.211441	-0.002790
C147	C	1.681534	0.038559	0.247210
C148	C	1.931534	0.288559	0.497210
H149	H	0.693227	-0.530995	-0.802692
H150	H	0.943227	-0.280995	-0.552692
H151	H	1.193227	-0.030995	-0.302692
H152	H	1.443227	0.219005	-0.052692
H153	H	0.670434	-0.392265	-0.593434
H154	H	0.920434	-0.142265	-0.343434
H155	H	1.170434	0.107735	-0.093434
H156	H	1.420434	0.357735	0.156566
H157	H	1.112165	-0.972558	-0.792638
H158	H	1.362165	-0.722558	-0.542638
H159	H	1.612165	-0.472558	-0.292638
H160	H	1.862165	-0.222558	-0.042638
H161	H	1.250800	-0.949798	-0.603422
H162	H	1.500800	-0.699798	-0.353422
H163	H	1.750800	-0.449798	-0.103422
H164	H	2.000800	-0.199798	0.146578
