data_functionalizedCrystal
_audit_creation_method	'MofGen! by Chris Wilmer'
_symmetry_space_group_name_H-M	'P1'
_symmetry_Int_Tables_number	1
_symmetry_cell_setting	triclinic
loop_
_symmetry_equiv_pos_as_xyz
  x,y,z
_cell_length_a	19.077114
_cell_length_b	19.077367
_cell_length_c	19.076919
_cell_angle_alpha	85.521998
_cell_angle_beta	85.527261
_cell_angle_gamma	94.531155
loop_
_atom_site_label
_atom_site_type_symbol
_atom_site_fract_x
_atom_site_fract_y
_atom_site_fract_z
Zn1	Zn	0.252715	-1.051078	-0.365992
Zn2	Zn	0.586049	-0.717745	-0.032659
Zn3	Zn	0.919382	-0.384411	0.300675
Zn4	Zn	0.365873	-1.050988	-0.252844
Zn5	Zn	0.699206	-0.717654	0.080489
Zn6	Zn	1.032539	-0.384321	0.413822
Zn7	Zn	0.252733	-0.937932	-0.252844
Zn8	Zn	0.586066	-0.604599	0.080489
Zn9	Zn	0.919399	-0.271266	0.413823
Zn10	Zn	0.375714	-0.928004	-0.375821
Zn11	Zn	0.709047	-0.594670	-0.042488
Zn12	Zn	1.042381	-0.261337	0.290846
O13	O	0.311759	-0.992000	-0.311875
O14	O	0.645092	-0.658667	0.021458
O15	O	0.978425	-0.325334	0.354791
O16	O	0.263600	-1.149887	-0.346869
O17	O	0.596933	-0.816554	-0.013536
O18	O	0.930267	-0.483220	0.319797
O19	O	0.346753	-1.040108	-0.154025
O20	O	0.680086	-0.706775	0.179308
O21	O	1.013420	-0.373441	0.512641
O22	O	0.153905	-0.957134	-0.263740
O23	O	0.487239	-0.623801	0.069594
O24	O	0.820572	-0.290467	0.402927
O25	O	0.346736	-1.149821	-0.263740
O26	O	0.680069	-0.816488	0.069593
O27	O	1.013403	-0.483154	0.402926
O28	O	0.153893	-1.040262	-0.346869
O29	O	0.487226	-0.706928	-0.013536
O30	O	0.820559	-0.373595	0.319798
O31	O	0.263629	-0.957047	-0.154025
O32	O	0.596963	-0.623713	0.179308
O33	O	0.930296	-0.290380	0.512642
O34	O	0.273172	-0.837794	-0.273271
O35	O	0.606505	-0.504461	0.060063
O36	O	0.939839	-0.171127	0.393396
O37	O	0.363509	-0.940212	-0.473336
O38	O	0.696843	-0.606879	-0.140003
O39	O	1.030176	-0.273546	0.193330
O40	O	0.363526	-0.830500	-0.363621
O41	O	0.696859	-0.497166	-0.030288
O42	O	1.030193	-0.163833	0.303045
O43	O	0.273143	-1.030635	-0.466115
O44	O	0.606476	-0.697301	-0.132782
O45	O	0.939809	-0.363968	0.200552
O46	O	0.466003	-1.030481	-0.273271
O47	O	0.799336	-0.697147	0.060062
O48	O	1.132670	-0.363814	0.393395
O49	O	0.473233	-0.940125	-0.363622
O50	O	0.806567	-0.606792	-0.030288
O51	O	1.139900	-0.273458	0.303045
C52	C	0.319419	-0.808524	-0.319513
C53	C	0.652753	-0.475190	0.013820
C54	C	0.986086	-0.141857	0.347154
C55	C	0.322714	-0.730030	-0.322798
C56	C	0.656048	-0.396697	0.010536
C57	C	0.989381	-0.063363	0.343869
C58	C	0.495242	-0.984234	-0.319528
C59	C	0.828575	-0.650901	0.013806
C60	C	1.161909	-0.317568	0.347139
C61	C	0.573735	-0.980975	-0.322822
C62	C	0.907069	-0.647642	0.010511
C63	C	1.240402	-0.314309	0.343844
C64	C	0.277155	-0.696930	-0.277371
C65	C	0.610488	-0.363597	0.055962
C66	C	0.943822	-0.030264	0.389295
C67	C	0.280257	-0.623177	-0.280458
C68	C	0.613590	-0.289844	0.052875
C69	C	0.946924	0.043490	0.386209
C70	C	0.328916	-0.582524	-0.328975
C71	C	0.662249	-0.249191	0.004359
C72	C	0.995582	0.084142	0.337692
C73	C	0.374480	-0.615629	-0.374403
C74	C	0.707813	-0.282296	-0.041070
C75	C	1.041147	0.051038	0.292264
C76	C	0.371381	-0.689381	-0.371312
C77	C	0.704714	-0.356048	-0.037979
C78	C	1.038047	-0.022714	0.295354
C79	C	0.343239	-0.361544	-0.343251
C80	C	0.676573	-0.028211	-0.009918
C81	C	1.009906	0.305123	0.323416
C82	C	0.346334	-0.287787	-0.346339
C83	C	0.679667	0.045546	-0.013006
C84	C	1.013000	0.378879	0.320327
C85	C	0.252111	-0.295340	-0.252393
C86	C	0.585445	0.037993	0.080940
C87	C	0.918778	0.371326	0.414273
C88	C	0.249014	-0.369093	-0.249310
C89	C	0.582347	-0.035760	0.084023
C90	C	0.915680	0.297573	0.417357
C91	C	0.294580	-0.402192	-0.294736
C92	C	0.627914	-0.068858	0.038598
C93	C	0.961247	0.264475	0.371931
N94	N	0.332086	-0.507137	-0.332132
N95	N	0.665420	-0.173803	0.001201
N96	N	0.998753	0.159530	0.334534
N97	N	0.291413	-0.477578	-0.291574
N98	N	0.624746	-0.144245	0.041759
N99	N	0.958079	0.189089	0.375092
C100	C	0.606824	-1.026521	-0.277365
C101	C	0.940157	-0.693188	0.055968
C102	C	1.273491	-0.359855	0.389301
C103	C	0.680577	-1.023460	-0.280468
C104	C	1.013910	-0.690127	0.052865
C105	C	1.347244	-0.356794	0.386199
C106	C	0.721240	-0.974849	-0.329025
C107	C	1.054573	-0.641516	0.004309
C108	C	1.387907	-0.308183	0.337642
C109	C	0.688147	-0.929301	-0.374486
C110	C	1.021480	-0.595968	-0.041153
C111	C	1.354813	-0.262635	0.292180
C112	C	0.614395	-0.932366	-0.371387
C113	C	0.947728	-0.599033	-0.038053
C114	C	1.281062	-0.265700	0.295280
C115	C	0.942221	-0.960638	-0.343339
C116	C	1.275554	-0.627304	-0.010006
C117	C	1.608887	-0.293971	0.323327
C118	C	1.015977	-0.957575	-0.346434
C119	C	1.349311	-0.624241	-0.013101
C120	C	1.682644	-0.290908	0.320232
C121	C	1.008402	-1.051735	-0.252416
C122	C	1.341736	-0.718402	0.080917
C123	C	1.675069	-0.385068	0.414250
C124	C	0.934650	-1.054793	-0.249318
C125	C	1.267983	-0.721459	0.084015
C126	C	1.601316	-0.388126	0.417349
C127	C	0.901563	-1.009247	-0.294782
C128	C	1.234896	-0.675914	0.038551
C129	C	1.568229	-0.342581	0.371885
N130	N	0.796628	-0.971718	-0.332196
N131	N	1.129961	-0.638385	0.001137
N132	N	1.463294	-0.305051	0.334471
N133	N	0.826176	-1.012383	-0.291614
N134	N	1.159510	-0.679049	0.041719
N135	N	1.492843	-0.345716	0.375053
C136	C	1.127559	-0.999809	-0.304217
C137	C	1.460892	-0.666476	0.029116
C138	C	1.794226	-0.333143	0.362449
C139	C	1.049066	-1.003121	-0.300977
C140	C	1.382399	-0.669787	0.032356
C141	C	1.715732	-0.336454	0.365689
C142	C	0.319422	-0.984326	-0.496065
C143	C	0.652755	-0.650993	-0.162731
C144	C	0.986088	-0.317659	0.170602
C145	C	0.322687	-0.981056	-0.574555
C146	C	0.656021	-0.647722	-0.241222
C147	C	0.989354	-0.314389	0.092111
C148	C	0.304064	-0.176194	-0.304201
C149	C	0.637397	0.157139	0.029132
C150	C	0.970731	0.490473	0.362465
C151	C	0.300774	-0.254688	-0.300913
C152	C	0.634108	0.078646	0.032420
C153	C	0.967441	0.411979	0.365753
C154	C	0.277175	-1.026595	-0.607672
C155	C	0.610508	-0.693261	-0.274338
C156	C	0.943841	-0.359928	0.058995
C157	C	0.280241	-1.023513	-0.681422
C158	C	0.613574	-0.690180	-0.348089
C159	C	0.946907	-0.356847	-0.014755
C160	C	0.328823	-0.974896	-0.722055
C161	C	0.662157	-0.641563	-0.388721
C162	C	0.995490	-0.308229	-0.055388
C163	C	0.374338	-0.929352	-0.688933
C164	C	0.707671	-0.596019	-0.355600
C165	C	1.041005	-0.262685	-0.022267
C166	C	0.371268	-0.932430	-0.615184
C167	C	0.704601	-0.599097	-0.281851
C168	C	1.037935	-0.265764	0.051482
C169	C	0.343047	-0.960638	-0.943024
C170	C	0.676380	-0.627304	-0.609691
C171	C	1.009714	-0.293971	-0.276358
C172	C	0.346115	-0.957564	-1.016778
C173	C	0.679448	-0.624231	-0.683445
C174	C	1.012782	-0.290897	-0.350112
C175	C	0.252016	-1.051725	-1.009262
C176	C	0.585350	-0.718392	-0.675929
C177	C	0.918683	-0.385058	-0.342595
C178	C	0.248953	-1.054802	-0.935512
C179	C	0.582287	-0.721469	-0.602178
C180	C	0.915620	-0.388135	-0.268845
C181	C	0.294466	-1.009256	-0.902397
C182	C	0.627799	-0.675922	-0.569063
C183	C	0.961132	-0.342589	-0.235730
N184	N	0.331960	-0.971747	-0.797440
N185	N	0.665293	-0.638413	-0.464106
N186	N	0.998627	-0.305080	-0.130773
N187	N	0.291325	-1.012402	-0.827013
N188	N	0.624658	-0.679069	-0.493680
N189	N	0.957992	-0.345735	-0.160347
C190	C	0.304072	-0.999688	-0.128399
C191	C	0.637406	-0.666354	0.204934
C192	C	0.970739	-0.333021	0.538268
C193	C	0.300602	-1.003103	-0.049895
C194	C	0.633936	-0.669770	0.283439
C195	C	0.967269	-0.336437	0.616772
H196	H	0.237527	-0.730025	-0.237869
H197	H	0.570860	-0.396691	0.095464
H198	H	0.904193	-0.063358	0.428798
N199	N	0.392144	-0.911524	-0.907315
N200	N	0.725477	-0.578190	-0.573982
N201	N	1.058811	-0.244857	-0.240649
H202	H	0.382830	-0.920846	-0.854430
H203	H	0.716163	-0.587513	-0.521096
H204	H	1.049497	-0.254180	-0.187763
H205	H	0.383797	-0.861017	-0.921847
H206	H	0.717131	-0.527684	-0.588513
H207	H	1.050464	-0.194350	-0.255180
H208	H	0.721260	-0.889724	-0.414025
H209	H	1.054594	-0.556391	-0.080692
H210	H	1.387927	-0.223058	0.252641
N211	N	0.426968	-0.571786	-0.426728
N212	N	0.760301	-0.238453	-0.093394
N213	N	1.093635	0.094880	0.239939
H214	H	0.422018	-0.520042	-0.421794
H215	H	0.755351	-0.186708	-0.088461
H216	H	1.088685	0.146625	0.244872
H217	H	0.417614	-0.583050	-0.476184
H218	H	0.750947	-0.249717	-0.142850
H219	H	1.084280	0.083617	0.190483
H220	H	0.408480	-0.716329	-0.408303
H221	H	0.741814	-0.382996	-0.074970
H222	H	1.075147	-0.049663	0.258363
H223	H	0.573720	-1.066103	-0.237822
H224	H	0.907054	-0.732769	0.095511
H225	H	1.240387	-0.399436	0.428844
N226	N	0.231121	-0.587476	-0.231461
N227	N	0.564454	-0.254142	0.101873
N228	N	0.897787	0.079191	0.435206
H229	H	0.199823	-0.624420	-0.200259
H230	H	0.533156	-0.291087	0.133074
H231	H	0.866490	0.042247	0.466407
H232	H	0.200970	-0.557057	-0.260180
H233	H	0.534303	-0.223724	0.073154
H234	H	0.867636	0.109610	0.406487
H235	H	0.901543	-1.094376	-0.209779
H236	H	1.234876	-0.761042	0.123554
H237	H	1.568210	-0.427709	0.456887
H238	H	1.035350	-1.088816	-0.215403
H239	H	1.368683	-0.755483	0.117930
H240	H	1.702017	-0.422150	0.451264
H241	H	0.707514	-1.060548	-0.243452
H242	H	1.040847	-0.727215	0.089881
H243	H	1.374181	-0.393882	0.423215
N244	N	0.426724	-0.876898	-0.732754
N245	N	0.760057	-0.543565	-0.399421
N246	N	1.093390	-0.210231	-0.066088
H247	H	0.421761	-0.881855	-0.784500
H248	H	0.755094	-0.548521	-0.451167
H249	H	1.088428	-0.215188	-0.117833
H250	H	0.476170	-0.886273	-0.721512
H251	H	0.809503	-0.552940	-0.388178
H252	H	1.142837	-0.219607	-0.054845
H253	H	1.049084	-0.917998	-0.385987
H254	H	1.382417	-0.584664	-0.052654
H255	H	1.715750	-0.251331	0.280680
N256	N	0.578698	-0.883244	-0.420411
N257	N	0.912031	-0.549910	-0.087078
N258	N	1.245365	-0.216577	0.246255
H259	H	0.593145	-0.891535	-0.470959
H260	H	0.926478	-0.558202	-0.137626
H261	H	1.259811	-0.224869	0.195708
H262	H	0.593240	-0.832739	-0.411985
H263	H	0.926573	-0.499406	-0.078652
H264	H	1.259907	-0.166073	0.254682
N265	N	0.202978	-0.259640	-0.203393
N266	N	0.536311	0.073694	0.129941
N267	N	0.869644	0.407027	0.463274
H268	H	0.171684	-0.296585	-0.172188
H269	H	0.505018	0.036749	0.161145
H270	H	0.838351	0.370082	0.494479
H271	H	0.172822	-0.229223	-0.232108
H272	H	0.506156	0.104111	0.101225
H273	H	0.839489	0.437444	0.434559
H274	H	0.209395	-0.402188	-0.209798
H275	H	0.542729	-0.068855	0.123536
H276	H	0.876062	0.264478	0.456869
N277	N	0.420350	-0.883307	-0.579462
N278	N	0.753683	-0.549974	-0.246129
N279	N	1.087017	-0.216641	0.087205
H280	H	0.451592	-0.852040	-0.616392
H281	H	0.784926	-0.518707	-0.283058
H282	H	1.118259	-0.185373	0.050275
H283	H	0.450560	-0.911937	-0.549025
H284	H	0.783893	-0.578604	-0.215691
H285	H	1.117226	-0.245270	0.117642
N286	N	0.906540	-0.911507	-0.392365
N287	N	1.239873	-0.578174	-0.059032
N288	N	1.573206	-0.244841	0.274302
H289	H	0.876067	-0.940084	-0.422637
H290	H	1.209401	-0.606750	-0.089304
H291	H	1.542734	-0.273417	0.244029
H292	H	0.943535	-0.880257	-0.423544
H293	H	1.276869	-0.546923	-0.090211
H294	H	1.610202	-0.213590	0.243122
N295	N	0.196526	-1.107214	-0.891690
N296	N	0.529859	-0.773881	-0.558357
N297	N	0.863193	-0.440547	-0.225024
H298	H	0.201482	-1.102248	-0.839945
H299	H	0.534815	-0.768914	-0.506612
H300	H	0.868148	-0.435581	-0.173279
H301	H	0.205925	-1.156654	-0.902929
H302	H	0.539259	-0.823321	-0.569596
H303	H	0.872592	-0.489987	-0.236262
H304	H	0.237616	-1.066187	-0.574593
H305	H	0.570949	-0.732853	-0.241260
H306	H	0.904282	-0.399520	0.092073
N307	N	0.398812	-0.243938	-0.398677
N308	N	0.732145	0.089396	-0.065343
N309	N	1.065479	0.422729	0.267990
H310	H	0.427208	-0.276096	-0.426986
H311	H	0.760541	0.057238	-0.093653
H312	H	1.093874	0.390571	0.239681
H313	H	0.431534	-0.213147	-0.372524
H314	H	0.764867	0.120186	-0.039191
H315	H	1.098200	0.453519	0.294142
H316	H	0.380343	-0.388483	-0.380240
H317	H	0.713676	-0.055150	-0.046907
H318	H	1.047010	0.278183	0.286427
H319	H	0.243181	-1.060598	-0.708382
H320	H	0.576514	-0.727265	-0.375049
H321	H	0.909848	-0.393931	-0.041715
N322	N	0.202929	-1.100846	-1.044978
N323	N	0.536263	-0.767513	-0.711645
N324	N	0.869596	-0.434180	-0.378311
H325	H	0.212243	-1.091521	-1.097863
H326	H	0.545577	-0.758188	-0.764530
H327	H	0.878910	-0.424854	-0.431197
H328	H	0.152416	-1.092532	-1.030444
H329	H	0.485749	-0.759198	-0.697110
H330	H	0.819082	-0.425865	-0.363777
N331	N	0.398519	-0.905127	-1.060606
N332	N	0.731853	-0.571793	-0.727273
N333	N	1.065186	-0.238460	-0.393940
H334	H	0.426885	-0.876739	-1.028438
H335	H	0.760218	-0.543406	-0.695105
H336	H	1.093552	-0.210073	-0.361771
H337	H	0.372409	-0.872393	-1.091371
H338	H	0.705743	-0.539060	-0.758037
H339	H	1.039076	-0.205727	-0.424704
