data_functionalizedCrystal
_audit_creation_method	'MofGen! by Chris Wilmer'
_symmetry_space_group_name_H-M	'P1'
_symmetry_Int_Tables_number	1
_symmetry_cell_setting	triclinic
loop_
_symmetry_equiv_pos_as_xyz
  x,y,z
_cell_length_a	10.654554
_cell_length_b	14.853568
_cell_length_c	9.730223
_cell_angle_alpha	89.999011
_cell_angle_beta	89.999311
_cell_angle_gamma	95.939034
loop_
_atom_site_label
_atom_site_type_symbol
_atom_site_fract_x
_atom_site_fract_y
_atom_site_fract_z
O1	O	1.666516	-0.126644	-0.114279
O2	O	1.300913	-0.138704	-0.114280
O3	O	1.493480	-0.001497	-0.114286
O4	O	1.473949	-0.263851	-0.114273
O5	O	1.493477	-0.001494	0.114294
O6	O	1.300910	-0.138702	0.114300
O7	O	1.666513	-0.126642	0.114301
Zn8	Zn	1.483711	-0.132671	0.150592
Zn9	Zn	1.483715	-0.132675	-0.150571
O10	O	1.473946	-0.263849	0.114307
C11	C	1.254123	-0.137817	0.000010
C12	C	1.114707	-0.135165	0.000009
C13	C	0.903386	-0.213462	0.000010
C14	C	1.034381	-0.215954	0.000010
C15	C	1.064032	-0.051878	-0.000006
C16	C	0.933039	-0.049387	-0.000015
C17	C	0.886268	-0.308190	0.000026
C18	C	1.017263	-0.310682	0.000026
C19	C	1.492593	0.032098	-0.000001
C20	C	1.489941	0.132196	-0.000015
C21	C	1.364340	0.545403	0.000002
C22	C	1.593114	0.565457	0.000002
C23	C	1.595608	0.471410	-0.000004
C24	C	1.482466	0.414355	-0.000005
C25	C	1.366830	0.451347	0.000000
C26	C	1.711242	0.434410	0.000005
C27	C	1.713740	0.340358	-0.000000
C28	C	1.600597	0.283301	-0.000011
C29	C	1.484956	0.320299	-0.000007
C30	C	1.371815	0.263244	-0.000008
C31	C	1.256173	0.300240	-0.000014
C32	C	1.253687	0.394291	-0.000011
C33	C	1.603083	0.189251	-0.000014
C34	C	1.374305	0.169188	-0.000010
C35	C	1.713303	-0.127529	0.000008
C36	C	1.852718	-0.130181	-0.000000
C37	C	1.474832	0.702556	0.000014
C38	C	1.477482	0.602458	0.000003
N39	N	1.483718	-0.132670	-0.356108
C40	C	1.559808	-0.187974	-0.571935
C41	C	1.559811	-0.187973	-0.428053
C42	C	1.407625	-0.077359	-0.428054
C43	C	1.407629	-0.077356	-0.571934
C44	C	1.647667	-0.251839	-0.571934
C45	C	1.647671	-0.251838	-0.428051
N46	N	1.483718	-0.132669	0.356129
H47	H	1.052585	-0.340851	-0.098669
C48	C	1.593092	-0.343486	-0.632232
N49	N	1.551987	-0.412516	-0.677650
C50	C	0.877311	0.042228	-0.000029
N51	N	0.835337	0.111236	-0.000034
C52	C	1.781844	-0.222078	-0.624687
N53	N	1.882903	-0.199660	-0.664420
H54	H	1.697236	0.159133	-0.000000
C55	C	1.775906	-0.213692	-0.367757
N56	N	1.872482	-0.184942	-0.322342
H57	H	1.282169	0.122739	-0.000017
H58	H	1.345683	-0.032311	-0.630499
C59	C	1.323924	-0.016523	-0.348909
N60	N	1.260875	0.029297	-0.289299
H61	H	1.615817	-0.322903	-0.389002
H62	H	1.046239	-0.347714	0.095699
H63	H	1.129444	0.013902	-0.000020
C64	C	1.835689	0.497175	0.000015
N65	N	1.929427	0.544454	0.000022
H66	H	1.164053	0.253774	-0.000005
C67	C	1.126492	0.434994	0.000011
N68	N	1.030690	0.465655	0.000040
H69	H	0.840319	-0.336809	0.098719
C70	C	0.829368	-0.356408	-0.129204
N71	N	0.786512	-0.392723	-0.226540
H72	H	1.270187	0.575530	-0.000008
H73	H	1.807903	0.310244	0.000003
H74	H	1.685229	0.611916	0.000014
