data_functionalizedCrystal
_audit_creation_method	'MofGen! by Chris Wilmer'
_symmetry_space_group_name_H-M	'P1'
_symmetry_Int_Tables_number	1
_symmetry_cell_setting	triclinic
loop_
_symmetry_equiv_pos_as_xyz
  x,y,z
_cell_length_a	9.065215
_cell_length_b	12.376897
_cell_length_c	9.065218
_cell_angle_alpha	77.484532
_cell_angle_beta	85.015291
_cell_angle_gamma	77.496653
loop_
_atom_site_label
_atom_site_type_symbol
_atom_site_fract_x
_atom_site_fract_y
_atom_site_fract_z
O1	O	1.934840	0.093981	0.190746
O2	O	1.505553	0.093986	0.208495
O3	O	1.729070	0.093981	-0.015022
O4	O	1.711322	0.093986	0.414262
O5	O	1.780189	-0.094018	0.036163
O6	O	1.556672	-0.094013	0.259680
O7	O	1.985959	-0.094018	0.241930
Zn8	Zn	1.779432	-0.123864	0.258932
Zn9	Zn	1.712080	0.123832	0.191494
O10	O	1.762441	-0.094013	0.465447
C11	C	1.476126	-0.000013	0.232382
C12	C	1.312282	-0.000011	0.227284
N13	N	1.825408	-0.292910	0.304955
C14	C	1.559335	-0.647966	0.038610
C15	C	1.527132	-0.529635	0.006394
C16	C	1.601698	-0.470448	0.081032
C17	C	1.708473	-0.529604	0.187890
C18	C	1.740687	-0.647946	0.220101
C19	C	1.783050	-0.470428	0.262523
C20	C	1.889825	-0.529584	0.369382
C21	C	1.922034	-0.647915	0.401588
C22	C	1.847468	-0.707102	0.326950
C23	C	1.750836	-0.352085	0.230313
C24	C	1.932188	-0.352066	0.411804
C25	C	1.964391	-0.470397	0.444020
C26	C	2.015385	-0.000016	0.218042
C27	C	2.179227	-0.000011	0.223139
C28	C	1.752924	-0.000016	-0.044416
C29	C	1.747822	-0.000011	-0.208261
N30	N	1.666115	0.292878	0.145458
C31	C	1.738587	-0.000013	0.494841
C32	C	1.743686	-0.000011	0.658683
H33	H	1.663898	-0.303932	0.143309
H34	H	2.008989	-0.696077	0.488586
C35	C	2.080331	-0.534835	0.559923
C36	C	2.092601	-0.651134	0.572122
C37	C	2.199403	-0.710529	0.678861
H38	H	2.049112	-0.515587	0.655321
H39	H	2.175692	-0.515495	0.528636
H40	H	1.997260	-0.670466	0.603416
H41	H	2.123839	-0.670415	0.476753
H42	H	2.294763	-0.691188	0.647574
H43	H	2.168173	-0.691272	0.774250
H44	H	2.207752	-0.789443	0.687141
H45	H	1.440200	-0.481478	-0.080614
C46	C	1.566464	-0.341973	0.045914
C47	C	1.456966	-0.302834	-0.063611
C48	C	1.424446	-0.184485	-0.095982
H49	H	1.655868	-0.315040	0.008764
H50	H	1.529245	-0.315173	0.135406
H51	H	1.494189	-0.329622	-0.153085
H52	H	1.367539	-0.329736	-0.026493
H53	H	1.387227	-0.157686	-0.006490
H54	H	1.513858	-0.157564	-0.133126
H55	H	1.350139	-0.157914	-0.170287
H56	H	1.498645	-0.696167	-0.022159
H57	H	1.873676	-0.803458	0.353182
C58	C	2.012879	-0.287762	0.493037
C59	C	1.906251	-0.219868	0.573262
C60	C	1.980523	-0.160621	0.648119
H61	H	2.067408	-0.241491	0.421100
H62	H	2.081048	-0.339906	0.561361
H63	H	1.838109	-0.167730	0.504944
H64	H	1.851717	-0.266111	0.645224
H65	H	2.048692	-0.212765	0.716444
H66	H	2.035050	-0.114356	0.576172
H67	H	1.908190	-0.114556	0.702572
