data_functionalizedCrystal
_audit_creation_method	'MofGen! by Chris Wilmer'
_symmetry_space_group_name_H-M	'P1'
_symmetry_Int_Tables_number	1
_symmetry_cell_setting	triclinic
loop_
_symmetry_equiv_pos_as_xyz
  x,y,z
_cell_length_a	15.995292
_cell_length_b	15.995292
_cell_length_c	15.186229
_cell_angle_alpha	89.999448
_cell_angle_beta	89.995469
_cell_angle_gamma	83.468616
loop_
_atom_site_label
_atom_site_type_symbol
_atom_site_fract_x
_atom_site_fract_y
_atom_site_fract_z
O1	O	1.110992	0.107697	-0.073246
O2	O	1.444325	0.441030	0.260087
O3	O	1.777659	0.774363	0.593421
O4	O	0.867207	0.121075	-0.073242
O5	O	1.200541	0.454409	0.260091
O6	O	1.533874	0.787742	0.593425
O7	O	0.995789	-0.007506	-0.073245
O8	O	1.329122	0.325827	0.260088
O9	O	1.662456	0.659160	0.593421
O10	O	0.982410	0.236278	-0.073243
O11	O	1.315744	0.569612	0.260091
O12	O	1.649077	0.902945	0.593424
O13	O	0.995781	-0.007508	0.073212
O14	O	1.329114	0.325825	0.406545
O15	O	1.662447	0.659158	0.739879
O16	O	0.867199	0.121074	0.073215
O17	O	1.200532	0.454407	0.406549
O18	O	1.533866	0.787740	0.739882
O19	O	1.110984	0.107695	0.073211
O20	O	1.444317	0.441028	0.406545
O21	O	1.777650	0.774361	0.739878
Zn22	Zn	0.989090	0.114384	0.096467
Zn23	Zn	1.322423	0.447717	0.429800
Zn24	Zn	1.655757	0.781051	0.763133
Zn25	Zn	0.989101	0.114386	-0.096497
Zn26	Zn	1.322434	0.447720	0.236836
Zn27	Zn	1.655768	0.781053	0.570169
O28	O	0.982402	0.236277	0.073215
O29	O	1.315735	0.569610	0.406548
O30	O	1.649069	0.902943	0.739881
C31	C	0.836008	0.120530	-0.000013
C32	C	1.169341	0.453863	0.333321
C33	C	1.502674	0.787197	0.666654
C34	C	0.743055	0.118898	-0.000011
C35	C	1.076388	0.452231	0.333322
C36	C	1.409722	0.785564	0.666655
C37	C	0.405318	0.112896	-0.000021
C38	C	0.738651	0.446229	0.333312
C39	C	1.071985	0.779563	0.666645
C40	C	0.428611	0.205703	-0.000347
C41	C	0.761944	0.539036	0.332986
C42	C	1.095278	0.872370	0.666319
C43	C	0.525286	0.207467	-0.000013
C44	C	0.858619	0.540800	0.333320
C45	C	1.191953	0.874134	0.666653
C46	C	0.572873	0.115874	-0.000017
C47	C	0.906207	0.449207	0.333316
C48	C	1.239540	0.782541	0.666650
C49	C	0.543776	0.069474	0.083614
C50	C	0.877109	0.402807	0.416947
C51	C	1.210443	0.736141	0.750280
C52	C	0.446986	0.068357	0.083680
C53	C	0.780319	0.401690	0.417013
C54	C	1.113652	0.735023	0.750347
C55	C	0.447141	0.066464	-0.082869
C56	C	0.780474	0.399797	0.250464
C57	C	1.113807	0.733130	0.583797
C58	C	0.543632	0.069903	-0.083971
C59	C	0.876966	0.403236	0.249363
C60	C	1.210299	0.736570	0.582696
C61	C	0.667569	0.117552	-0.000011
C62	C	1.000902	0.450885	0.333322
C63	C	1.334236	0.784219	0.666655
C64	C	0.310622	0.111215	-0.000021
C65	C	0.643956	0.444549	0.333312
C66	C	0.977289	0.777882	0.666646
C67	C	0.995240	-0.038703	-0.000019
C68	C	1.328574	0.294631	0.333314
C69	C	1.661907	0.627964	0.666648
C70	C	0.993608	-0.131655	-0.000026
C71	C	1.326941	0.201678	0.333308
C72	C	1.660275	0.535011	0.666641
C73	C	0.987607	-0.469393	-0.000017
C74	C	1.320940	-0.136059	0.333316
C75	C	1.654273	0.197274	0.666649
C76	C	1.080413	-0.446100	0.000308
C77	C	1.413747	-0.112766	0.333641
C78	C	1.747080	0.220567	0.666975
C79	C	1.082177	-0.349424	-0.000025
C80	C	1.415511	-0.016091	0.333308
C81	C	1.748844	0.317242	0.666642
C82	C	0.990584	-0.301837	-0.000021
C83	C	1.323918	0.031496	0.333312
C84	C	1.657251	0.364829	0.666646
C85	C	0.944190	-0.330928	-0.083652
C86	C	1.277524	0.002406	0.249682
C87	C	1.610857	0.335739	0.583015
C88	C	0.943073	-0.427718	-0.083719
C89	C	1.276406	-0.094385	0.249615
C90	C	1.609740	0.238949	0.582948
C91	C	0.941168	-0.427577	0.082831
C92	C	1.274501	-0.094243	0.416164
C93	C	1.607835	0.239090	0.749498
C94	C	0.944607	-0.331085	0.083933
C95	C	1.277941	0.002249	0.417266
C96	C	1.611274	0.335582	0.750600
C97	C	0.992263	-0.207141	-0.000026
C98	C	1.325596	0.126192	0.333307
C99	C	1.658929	0.459525	0.666641
C100	C	0.985926	-0.564088	-0.000018
C101	C	1.319259	-0.230755	0.333315
C102	C	1.652592	0.102579	0.666648
C103	C	1.142183	0.108240	-0.000020
C104	C	1.475517	0.441574	0.333313
C105	C	1.808850	0.774907	0.666647
C106	C	1.235136	0.109873	-0.000027
C107	C	1.568469	0.443206	0.333306
C108	C	1.901803	0.776539	0.666640
C109	C	0.982951	0.267473	-0.000014
C110	C	1.316284	0.600806	0.333320
C111	C	1.649617	0.934140	0.666653
C112	C	0.984583	0.360426	-0.000013
C113	C	1.317916	0.693759	0.333321
C114	C	1.651250	1.027092	0.666654
N115	N	0.989088	0.114382	0.228159
N116	N	1.322422	0.447715	0.561493
N117	N	1.655755	0.781048	0.894826
N118	N	0.989109	0.114382	-0.228190
N119	N	1.322443	0.447715	0.105143
N120	N	1.655776	0.781048	0.438477
C121	C	1.046044	0.057465	0.453880
C122	C	1.379377	0.390798	0.787214
C123	C	1.712710	0.724132	1.120547
C124	C	1.046046	0.057463	0.546070
C125	C	1.379380	0.390796	0.879403
C126	C	1.712713	0.724130	1.212737
C127	C	0.932148	0.171301	0.546082
C128	C	1.265481	0.504635	0.879416
C129	C	1.598815	0.837968	1.212749
C130	C	0.932142	0.171299	0.453894
C131	C	1.265475	0.504632	0.787228
C132	C	1.598809	0.837965	1.120561
C133	C	0.989095	0.114381	0.407796
C134	C	1.322428	0.447715	0.741129
C135	C	1.655761	0.781048	1.074463
C136	C	0.989103	0.114382	0.592173
C137	C	1.322436	0.447715	0.925507
C138	C	1.655770	0.781049	1.258840
C139	C	0.989106	0.114380	0.692130
C140	C	1.322439	0.447714	1.025463
C141	C	1.655772	0.781047	1.358796
C142	C	0.989091	0.114382	0.307833
C143	C	1.322425	0.447715	0.641167
C144	C	1.655758	0.781048	0.974500
H145	H	0.543678	0.244023	0.060039
H146	H	0.877012	0.577357	0.393373
H147	H	1.210345	0.910690	0.726706
H148	H	0.885780	0.217643	0.583625
H149	H	1.219113	0.550977	0.916958
H150	H	1.552446	0.884310	1.250292
H151	H	0.544308	0.243801	-0.059965
H152	H	0.877642	0.577134	0.273368
H153	H	1.210975	0.910467	0.606701
Cl154	Cl	1.138614	-0.321013	-0.092750
Cl155	Cl	1.471947	0.012320	0.240584
Cl156	Cl	1.805280	0.345654	0.573917
Cl157	Cl	0.403415	0.111262	-0.180736
Cl158	Cl	0.736748	0.444595	0.152597
Cl159	Cl	1.070081	0.777928	0.485931
Cl160	Cl	0.835700	-0.449156	0.083708
Cl161	Cl	1.169033	-0.115823	0.417042
Cl162	Cl	1.502367	0.217510	0.750375
Cl163	Cl	0.383792	0.260630	0.091729
Cl164	Cl	0.717125	0.593963	0.425062
Cl165	Cl	1.050458	0.927296	0.758395
H166	H	0.975211	-0.454540	-0.146237
H167	H	1.308544	-0.121207	0.187096
H168	H	1.641877	0.212127	0.520430
Cl169	Cl	0.860539	0.242852	0.395954
Cl170	Cl	1.193873	0.576186	0.729287
Cl171	Cl	1.527206	0.909519	1.062620
H172	H	0.400611	0.241476	-0.060323
H173	H	0.733944	0.574809	0.273010
H174	H	1.067277	0.908142	0.606344
Cl175	Cl	0.594549	-0.033319	-0.091772
Cl176	Cl	0.927883	0.300014	0.241561
Cl177	Cl	1.261216	0.633348	0.574895
H178	H	0.970391	-0.455672	0.146223
H179	H	1.303725	-0.122339	0.479556
H180	H	1.637058	0.210995	0.812889
Cl181	Cl	1.117638	-0.014091	0.395932
Cl182	Cl	1.450971	0.319242	0.729265
Cl183	Cl	1.784305	0.652575	1.062598
H184	H	0.420158	0.100490	0.146198
H185	H	0.753492	0.433823	0.479532
H186	H	1.086825	0.767157	0.812865
H187	H	0.432449	0.000310	0.087477
H188	H	0.765783	0.333644	0.420810
H189	H	1.099116	0.666977	0.754143
Cl190	Cl	0.592989	-0.034591	0.088411
Cl191	Cl	0.926323	0.298742	0.421744
Cl192	Cl	1.259656	0.632076	0.755077
H193	H	0.978389	-0.312527	0.145802
H194	H	1.311723	0.020806	0.479136
H195	H	1.645056	0.354139	0.812469
H196	H	1.118512	-0.330408	0.059923
H197	H	1.451846	0.002926	0.393257
H198	H	1.785179	0.336259	0.726590
H199	H	0.875027	-0.442254	-0.087505
H200	H	1.208360	-0.108921	0.245829
H201	H	1.541693	0.224413	0.579162
Cl202	Cl	0.841386	-0.280165	0.091737
Cl203	Cl	1.174720	0.053168	0.425070
Cl204	Cl	1.508053	0.386501	0.758404
Cl205	Cl	0.574725	0.119219	0.179711
Cl206	Cl	0.908058	0.452552	0.513044
Cl207	Cl	1.241392	0.785885	0.846378
H208	H	1.092418	0.011115	0.583590
H209	H	1.425752	0.344449	0.916923
H210	H	1.759085	0.677782	1.250256
Cl211	Cl	0.425564	-0.039005	-0.083745
Cl212	Cl	0.758897	0.294328	0.249589
Cl213	Cl	1.092230	0.627661	0.582922
Cl214	Cl	0.572335	0.122034	-0.179497
Cl215	Cl	0.905669	0.455368	0.153837
Cl216	Cl	1.239002	0.788701	0.487170
H217	H	1.116182	-0.474105	0.060283
H218	H	1.449515	-0.140772	0.393617
H219	H	1.782849	0.192562	0.726950
H220	H	1.115990	-0.475124	-0.059332
H221	H	1.449324	-0.141791	0.274002
H222	H	1.782657	0.191543	0.607335
Cl223	Cl	0.840131	-0.281702	-0.088457
Cl224	Cl	1.173464	0.051631	0.244877
Cl225	Cl	1.506797	0.384965	0.578210
Cl226	Cl	0.993943	-0.299972	-0.179749
Cl227	Cl	1.327276	0.033361	0.153584
Cl228	Cl	1.660609	0.366695	0.486918
