data_functionalizedCrystal
_audit_creation_method	'MofGen! by Chris Wilmer'
_symmetry_space_group_name_H-M	'P1'
_symmetry_Int_Tables_number	1
_symmetry_cell_setting	triclinic
loop_
_symmetry_equiv_pos_as_xyz
  x,y,z
_cell_length_a	17.077404
_cell_length_b	25.639239
_cell_length_c	17.077396
_cell_angle_alpha	89.968371
_cell_angle_beta	89.981638
_cell_angle_gamma	90.037254
loop_
_atom_site_label
_atom_site_type_symbol
_atom_site_fract_x
_atom_site_fract_y
_atom_site_fract_z
Zn1	Zn	1.199965	-0.208179	-0.443802
Zn2	Zn	1.699965	0.291821	0.056198
Zn3	Zn	1.199835	-0.295617	-0.312528
Zn4	Zn	1.699835	0.204383	0.187472
Zn5	Zn	1.068697	-0.208194	-0.312552
Zn6	Zn	1.568697	0.291806	0.187448
Zn7	Zn	1.068627	-0.295582	-0.443755
Zn8	Zn	1.568627	0.204418	0.056245
O9	O	1.134281	-0.251893	-0.378159
O10	O	1.634281	0.248107	0.121841
O11	O	1.309795	-0.219786	-0.426398
O12	O	1.809795	0.280214	0.073602
O13	O	1.182413	-0.284041	-0.202685
O14	O	1.682413	0.215959	0.297315
O15	O	1.086194	-0.135027	-0.329992
O16	O	1.586194	0.364973	0.170008
O17	O	1.309699	-0.284026	-0.329952
O18	O	1.809699	0.215974	0.170048
O19	O	1.182636	-0.135016	-0.426421
O20	O	1.682636	0.364984	0.073579
O21	O	1.086067	-0.219812	-0.202702
O22	O	1.586067	0.280188	0.297298
O23	O	0.958841	-0.219778	-0.329947
O24	O	1.458841	0.280222	0.170053
O25	O	1.086075	-0.283967	-0.553608
O26	O	1.586075	0.216033	-0.053608
O27	O	0.958790	-0.283982	-0.426341
O28	O	1.458790	0.216018	0.073659
O29	O	1.182568	-0.219753	-0.553642
O30	O	1.682568	0.280247	-0.053642
O31	O	1.182346	-0.368777	-0.329906
O32	O	1.682346	0.131223	0.170094
O33	O	1.085949	-0.368752	-0.426318
O34	O	1.585949	0.131248	0.073682
C35	C	0.930333	-0.251878	-0.378142
C36	C	1.430333	0.248122	0.121858
C37	C	0.843083	-0.251884	-0.378153
C38	C	1.343083	0.248116	0.121847
C39	C	0.802144	-0.218494	-0.428449
C40	C	1.302144	0.281506	0.071551
C41	C	0.720163	-0.218498	-0.428452
C42	C	1.220163	0.281502	0.071548
C43	C	0.679124	-0.251894	-0.378163
C44	C	1.179124	0.248106	0.121837
C45	C	0.720069	-0.285286	-0.327862
C46	C	1.220069	0.214714	0.172138
C47	C	0.802048	-0.285280	-0.327855
C48	C	1.302048	0.214720	0.172145
C49	C	0.549199	-0.285298	-0.327881
C50	C	1.049199	0.214702	0.172119
C51	C	0.467215	-0.285305	-0.327889
C52	C	0.967215	0.214695	0.172111
C53	C	0.467314	-0.218516	-0.428479
C54	C	0.967314	0.281484	0.071521
C55	C	0.549293	-0.218509	-0.428472
C56	C	1.049293	0.281491	0.071528
C57	C	0.590233	-0.251902	-0.378171
C58	C	1.090233	0.248098	0.121829
C59	C	1.134147	-0.387736	-0.378121
C60	C	1.634147	0.112264	0.121879
C61	C	1.134161	-0.445850	-0.378131
C62	C	1.634161	0.054150	0.121869
C63	C	1.084077	-0.697042	-0.428345
C64	C	1.584077	-0.197042	0.071655
C65	C	1.084048	-0.642438	-0.428335
C66	C	1.584048	-0.142438	0.071665
O67	O	1.041336	-0.614201	-0.471002
O68	O	1.541336	-0.114201	0.028998
N69	N	1.134260	-0.615124	-0.378172
N70	N	1.634260	-0.115124	0.121828
C71	C	1.184510	-0.642416	-0.328021
C72	C	1.684510	-0.142416	0.171979
O73	O	1.227217	-0.614169	-0.285353
O74	O	1.727217	-0.114169	0.214647
C75	C	1.184542	-0.697019	-0.328034
C76	C	1.684542	-0.197019	0.171966
C77	C	1.134322	-0.724331	-0.378195
C78	C	1.634322	-0.224331	0.121805
C79	C	1.033861	-0.724354	-0.478502
C80	C	1.533861	-0.224354	0.021498
C81	C	1.033890	-0.778955	-0.478510
C82	C	1.533890	-0.278955	0.021490
C83	C	1.084134	-0.806243	-0.428360
C84	C	1.584134	-0.306243	0.071640
C85	C	1.134350	-0.778932	-0.378203
C86	C	1.634350	-0.278932	0.121797
C87	C	1.234795	-0.724311	-0.277887
C88	C	1.734795	-0.224311	0.222113
C89	C	1.234824	-0.778918	-0.277906
C90	C	1.734824	-0.278918	0.222094
C91	C	1.184603	-0.806230	-0.328066
C92	C	1.684603	-0.306230	0.171934
C93	C	1.184622	-0.860821	-0.328061
C94	C	1.684622	-0.360821	0.171939
N95	N	1.134411	-0.888135	-0.378225
N96	N	1.634411	-0.388135	0.121775
C97	C	1.084166	-0.860847	-0.428374
C98	C	1.584166	-0.360847	0.071626
C99	C	1.184439	-0.527746	-0.327997
C100	C	1.684439	-0.027746	0.172003
C101	C	1.184403	-0.473143	-0.327979
C102	C	1.684403	0.026857	0.172021
C103	C	1.083942	-0.473169	-0.428295
C104	C	1.583942	0.026831	0.071705
C105	C	1.083975	-0.527772	-0.428308
C106	C	1.583975	-0.027772	0.071692
C107	C	1.134227	-0.555060	-0.378160
C108	C	1.634227	-0.055060	0.121840
C109	C	1.084229	-0.975512	-0.428386
C110	C	1.584229	-0.475512	0.071614
C111	C	1.084259	-1.030117	-0.428387
C112	C	1.584259	-0.530117	0.071613
C113	C	1.184723	-1.030087	-0.328075
C114	C	1.684723	-0.530087	0.171925
C115	C	1.184690	-0.975486	-0.328070
C116	C	1.684690	-0.475486	0.171930
C117	C	1.134440	-0.948200	-0.378232
C118	C	1.634440	-0.448200	0.121768
O119	O	1.227315	-0.889093	-0.285419
O120	O	1.727315	-0.389093	0.214581
O121	O	1.041474	-0.889100	-0.471042
O122	O	1.541474	-0.389100	0.028958
C123	C	1.339025	-0.251908	-0.378177
C124	C	1.839025	0.248092	0.121823
C125	C	1.426275	-0.251915	-0.378185
C126	C	1.926275	0.248085	0.121815
C127	C	1.134329	-0.251855	-0.582904
C128	C	1.634329	0.248145	-0.082904
C129	C	1.134349	-0.251838	-0.670153
C130	C	1.634349	0.248162	-0.170153
C131	C	1.134437	-0.115520	-0.378214
C132	C	1.634437	0.384480	0.121786
C133	C	1.134504	-0.057406	-0.378238
C134	C	1.634504	0.442594	0.121762
C135	C	1.184595	-0.218399	-0.711163
C136	C	1.684595	0.281601	-0.211163
C137	C	1.184604	-0.218381	-0.793143
C138	C	1.684604	0.281619	-0.293143
C139	C	1.134371	-0.251806	-0.834113
C140	C	1.634371	0.248194	-0.334113
C141	C	1.084120	-0.285247	-0.793098
C142	C	1.584120	0.214753	-0.293098
C143	C	1.084107	-0.285262	-0.711119
C144	C	1.584107	0.214738	-0.211119
C145	C	1.084151	-0.285216	-0.963968
C146	C	1.584151	0.214784	-0.463968
C147	C	1.084165	-0.285202	-1.045953
C148	C	1.584165	0.214798	-0.545953
C149	C	1.184649	-0.218335	-1.045993
C150	C	1.684649	0.281665	-0.545993
C151	C	1.184636	-0.218350	-0.964014
C152	C	1.684636	0.281650	-0.464014
C153	C	1.134385	-0.251792	-0.923004
C154	C	1.634385	0.248208	-0.423004
C155	C	1.134279	-0.251894	-0.174211
C156	C	1.634279	0.248106	0.325789
C157	C	1.134411	-0.251763	-0.086962
C158	C	1.634411	0.248237	0.413038
H159	H	0.582705	-0.191318	-0.469426
H160	H	1.082705	0.308682	0.030574
H161	H	1.043085	-0.550006	-0.469158
H162	H	1.543085	-0.050006	0.030842
O163	O	0.985086	-0.697908	-0.527328
O164	O	1.485086	-0.197908	-0.027328
C165	C	1.002213	-0.711196	-0.605583
C166	C	1.502213	-0.211196	-0.105583
H167	H	1.032423	-0.750816	-0.607243
H168	H	1.532423	-0.250816	-0.107243
H169	H	0.945539	-0.713098	-0.640725
H170	H	1.445539	-0.213098	-0.140725
H171	H	1.042525	-0.680421	-0.632061
H172	H	1.542525	-0.180421	-0.132061
O173	O	1.283548	-0.697848	-0.229056
O174	O	1.783548	-0.197848	0.270944
C175	C	1.266443	-0.711232	-0.150806
C176	C	1.766443	-0.211232	0.349194
H177	H	1.236277	-0.750895	-0.149162
H178	H	1.736277	-0.250895	0.350838
H179	H	1.323123	-0.713090	-0.115670
H180	H	1.823123	-0.213090	0.384330
H181	H	1.226100	-0.680536	-0.124311
H182	H	1.726100	-0.180536	0.375689
H183	H	1.225289	-0.450910	-0.287124
H184	H	1.725289	0.049090	0.212876
O185	O	1.283752	-0.805364	-0.229227
O186	O	1.783752	-0.305364	0.270773
C187	C	1.361967	-0.791965	-0.246472
C188	C	1.861967	-0.291965	0.253528
H189	H	1.363545	-0.752307	-0.276649
H190	H	1.863545	-0.252307	0.223351
H191	H	1.397202	-0.790091	-0.189855
H192	H	1.897202	-0.290091	0.310145
H193	H	1.388402	-0.822662	-0.286856
H194	H	1.888402	-0.322662	0.213144
H195	H	1.225563	-0.191105	-1.079386
H196	H	1.725563	0.308895	-0.579386
O197	O	0.842092	-0.186027	-0.477193
O198	O	1.342092	0.313973	0.022807
C199	C	0.889506	-0.152206	-0.432591
C200	C	1.389506	0.347794	0.067409
H201	H	0.901752	-0.170595	-0.373052
H202	H	1.401752	0.329405	0.126948
H203	H	0.947171	-0.145221	-0.464581
H204	H	1.447171	0.354779	0.035419
H205	H	0.857939	-0.113456	-0.424074
H206	H	1.357939	0.386544	0.075926
O207	O	0.427466	-0.186149	-0.477379
O208	O	0.927466	0.313851	0.022621
C209	C	0.380056	-0.215964	-0.528012
C210	C	0.880056	0.284036	-0.028012
H211	H	0.367726	-0.255562	-0.500214
H212	H	0.867726	0.244438	-0.000214
H213	H	0.322432	-0.194679	-0.538600
H214	H	0.822432	0.305321	-0.038600
H215	H	0.411670	-0.221760	-0.586164
H216	H	0.911670	0.278240	-0.086164
H217	H	1.043312	-0.953302	-0.469234
H218	H	1.543312	-0.453302	0.030766
H219	H	1.043184	-0.312486	-0.677730
H220	H	1.543184	0.187514	-0.177730
H221	H	1.225503	-0.191182	-0.677811
H222	H	1.725503	0.308818	-0.177811
H223	H	0.686834	-0.191309	-0.469410
H224	H	1.186834	0.308691	0.030590
H225	H	0.992994	-0.801187	-0.519355
H226	H	1.492994	-0.301187	-0.019355
O227	O	0.588935	-0.317812	-0.279106
O228	O	1.088935	0.182188	0.220894
C229	C	0.568853	-0.369936	-0.296114
C230	C	1.068853	0.130064	0.203886
H231	H	0.546336	-0.372627	-0.358817
H232	H	1.046336	0.127373	0.141183
H233	H	0.622742	-0.395757	-0.289283
H234	H	1.122742	0.104243	0.210717
H235	H	0.521242	-0.383573	-0.253994
H236	H	1.021242	0.116427	0.246006
O237	O	1.233537	-0.949033	-0.279311
O238	O	1.733537	-0.449033	0.220689
C239	C	1.277869	-0.984831	-0.235030
C240	C	1.777869	-0.484831	0.264970
H241	H	1.280589	-1.023738	-0.267190
H242	H	1.780589	-0.523738	0.232810
H243	H	1.339713	-0.969019	-0.226703
H244	H	1.839713	-0.469019	0.273297
H245	H	1.249155	-0.990682	-0.175391
H246	H	1.749155	-0.490682	0.324609
H247	H	0.835380	-0.312469	-0.286898
H248	H	1.335380	0.187531	0.213102
O249	O	0.427309	-0.317797	-0.279147
O250	O	0.927309	0.182203	0.220853
C251	C	0.379865	-0.351601	-0.323745
C252	C	0.879865	0.148399	0.176255
H253	H	0.404598	-0.354890	-0.385554
H254	H	0.904598	0.145110	0.114446
H255	H	0.378881	-0.391810	-0.295233
H256	H	0.878881	0.108190	0.204767
H257	H	0.317752	-0.335438	-0.326509
H258	H	0.817752	0.164562	0.173491
H259	H	1.043259	-0.312419	-1.079308
H260	H	1.543259	0.187581	-0.579308
H261	H	0.686648	-0.312476	-0.286912
H262	H	1.186648	0.187524	0.213088
H263	H	1.043216	-0.312460	-0.826462
H264	H	1.543216	0.187540	-0.326462
O265	O	1.035326	-0.317759	-0.924251
O266	O	1.535326	0.182241	-0.424251
C267	C	0.990986	-0.347255	-0.977989
C268	C	1.490986	0.152745	-0.477989
H269	H	1.023138	-0.349045	-1.036436
H270	H	1.523138	0.150955	-0.536436
H271	H	0.982586	-0.388456	-0.954290
H272	H	1.482586	0.111544	-0.454290
H273	H	0.931381	-0.328115	-0.986694
H274	H	1.431381	0.171885	-0.486694
H275	H	1.225627	-1.052315	-0.287241
H276	H	1.725627	-0.552315	0.212759
O277	O	1.035250	-0.446632	-0.477101
O278	O	1.535250	0.053368	0.022899
C279	C	1.079903	-0.414985	-0.527815
C280	C	1.579903	0.085015	-0.027815
H281	H	1.141731	-0.431400	-0.532719
H282	H	1.641731	0.068600	-0.032719
H283	H	1.051482	-0.414352	-0.588201
H284	H	1.551482	0.085648	-0.088201
H285	H	1.082603	-0.373613	-0.503534
H286	H	1.582603	0.126387	-0.003534
O287	O	1.035449	-1.056566	-0.477192
O288	O	1.535449	-0.556566	0.022808
C289	C	0.991087	-1.020767	-0.521440
C290	C	1.491087	-0.520767	-0.021440
H291	H	1.023220	-0.981822	-0.524177
H292	H	1.523220	-0.481822	-0.024177
H293	H	0.982686	-1.036520	-0.583284
H294	H	1.482686	-0.536520	-0.083284
H295	H	0.931483	-1.015011	-0.492641
H296	H	1.431483	-0.515011	0.007359
O297	O	1.233274	-0.554170	-0.279197
O298	O	1.733274	-0.054170	0.220803
C299	C	1.277593	-0.518348	-0.234937
C300	C	1.777593	-0.018348	0.265063
H301	H	1.245414	-0.479450	-0.232191
H302	H	1.745414	0.020550	0.267809
H303	H	1.286010	-0.534142	-0.173097
H304	H	1.786010	-0.034142	0.326903
H305	H	1.337192	-0.512484	-0.263732
H306	H	1.837192	-0.012484	0.236268
H307	H	1.225521	-0.191153	-0.826530
H308	H	1.725521	0.308847	-0.326530
H309	H	1.225544	-0.191135	-0.930658
H310	H	1.725544	0.308865	-0.430658
