data_functionalizedCrystal
_audit_creation_method	'MofGen! by Chris Wilmer'
_symmetry_space_group_name_H-M	'P1'
_symmetry_Int_Tables_number	1
_symmetry_cell_setting	triclinic
loop_
_symmetry_equiv_pos_as_xyz
  x,y,z
_cell_length_a	18.215407
_cell_length_b	12.827892
_cell_length_c	18.215399
_cell_angle_alpha	89.975972
_cell_angle_beta	89.982187
_cell_angle_gamma	90.009715
loop_
_atom_site_label
_atom_site_type_symbol
_atom_site_fract_x
_atom_site_fract_y
_atom_site_fract_z
Zn1	Zn	1.125121	-0.416197	-0.416096
Zn2	Zn	1.125051	-0.590956	-0.293038
Zn3	Zn	1.002054	-0.416213	-0.293048
Zn4	Zn	1.002041	-0.590880	-0.416068
O5	O	1.063567	-0.503561	-0.354563
O6	O	1.228096	-0.439404	-0.399780
O7	O	1.108711	-0.567815	-0.190055
O8	O	1.018414	-0.269975	-0.309387
O9	O	1.228044	-0.567799	-0.309370
O10	O	1.108831	-0.269963	-0.399790
O11	O	1.018346	-0.439432	-0.190062
O12	O	0.899068	-0.439358	-0.309359
O13	O	1.018392	-0.567669	-0.519056
O14	O	0.899058	-0.567685	-0.399741
O15	O	1.108819	-0.439330	-0.519077
O16	O	1.108698	-0.737182	-0.309342
O17	O	1.018323	-0.737126	-0.399732
C18	C	0.872360	-0.503515	-0.354548
C19	C	0.790562	-0.503521	-0.354559
C20	C	0.525525	-0.436835	-0.401714
C21	C	0.602384	-0.436818	-0.401712
C22	C	0.602349	-0.570322	-0.307427
C23	C	0.525492	-0.570343	-0.307434
C24	C	0.487082	-0.503594	-0.354576
C25	C	0.640798	-0.503555	-0.354567
C26	C	0.724132	-0.503538	-0.354564
C27	C	0.403743	-0.503613	-0.354580
C28	C	1.063521	-0.775071	-0.354549
C29	C	1.063569	-0.891224	-0.354568
C30	C	1.018838	-0.943016	-0.399262
C31	C	1.018887	-1.063066	-0.399283
C32	C	1.255520	-0.503608	-0.354577
C33	C	1.337318	-0.503628	-0.354584
C34	C	1.063612	-0.503489	-0.546516
C35	C	1.063631	-0.503459	-0.628314
C36	C	1.063632	-0.230991	-0.354592
C37	C	1.063660	-0.114838	-0.354605
C38	C	1.110733	-0.436570	-0.816521
C39	C	1.110742	-0.436540	-0.893379
C40	C	1.016580	-0.570186	-0.893346
C41	C	1.016569	-0.570210	-0.816489
C42	C	1.063649	-0.503404	-0.778078
C43	C	1.063670	-0.503349	-0.931794
C44	C	1.063679	-0.503316	-1.015128
C45	C	1.063639	-0.503435	-0.694739
C46	C	1.063564	-0.503558	-0.163356
C47	C	1.063688	-0.503294	-0.081558
H48	H	0.633632	-0.624664	-0.269044
Br49	Br	0.954944	-0.868797	-0.463016
H50	H	0.980594	-1.107606	-0.437550
Br51	Br	1.127501	-1.040617	-0.290828
Br52	Br	0.952657	-0.660910	-0.764312
Br53	Br	1.174649	-0.345840	-0.945549
H54	H	0.494254	-0.382483	-0.440100
Br55	Br	0.473314	-0.660953	-0.243457
H56	H	0.633681	-0.382457	-0.440097
Br57	Br	1.174626	-0.345903	-0.764394
H58	H	1.101899	-0.935760	-0.316316
Br59	Br	0.952691	-0.660850	-0.945480
