data_functionalizedCrystal
_audit_creation_method	'MofGen! by Chris Wilmer'
_symmetry_space_group_name_H-M	'P1'
_symmetry_Int_Tables_number	1
_symmetry_cell_setting	triclinic
loop_
_symmetry_equiv_pos_as_xyz
  x,y,z
_cell_length_a	14.853558
_cell_length_b	14.044190
_cell_length_c	13.930277
_cell_angle_alpha	89.990896
_cell_angle_beta	89.993309
_cell_angle_gamma	88.411455
loop_
_atom_site_label
_atom_site_type_symbol
_atom_site_fract_x
_atom_site_fract_y
_atom_site_fract_z
O1	O	1.206179	0.123725	-0.079830
O2	O	1.706179	0.623725	0.420170
O3	O	0.944888	0.138478	-0.079836
O4	O	1.444888	0.638478	0.420164
O5	O	1.071608	-0.006889	-0.079814
O6	O	1.571608	0.493111	0.420186
O7	O	1.079459	0.269091	-0.079852
O8	O	1.579459	0.769091	0.420148
O9	O	1.071589	-0.006892	0.079848
O10	O	1.571589	0.493108	0.579848
O11	O	0.944868	0.138474	0.079826
O12	O	1.444868	0.638474	0.579826
O13	O	1.206160	0.123722	0.079832
O14	O	1.706160	0.623722	0.579832
Zn15	Zn	1.075511	0.131097	0.105178
Zn16	Zn	1.575511	0.631097	0.605178
Zn17	Zn	1.075536	0.131102	-0.105183
Zn18	Zn	1.575536	0.631102	0.394817
O19	O	1.079439	0.269088	0.079810
O20	O	1.579439	0.769088	0.579810
C21	C	0.911236	0.137809	-0.000006
C22	C	1.411236	0.637809	0.499994
C23	C	0.810994	0.135811	-0.000007
C24	C	1.310994	0.635811	0.499993
C25	C	0.763910	0.134875	-0.087042
C26	C	1.263910	0.634875	0.412958
C27	C	0.763886	0.134861	0.087027
C28	C	1.263886	0.634861	0.587027
C29	C	0.669703	0.132978	0.087029
C30	C	1.169703	0.632978	0.587029
C31	C	0.622619	0.132042	-0.000006
C32	C	1.122619	0.632042	0.499994
C33	C	0.669718	0.132989	-0.087043
C34	C	1.169718	0.632989	0.412957
C35	C	0.622598	0.132021	0.174065
C36	C	1.122598	0.632021	0.674065
C37	C	0.528409	0.130137	0.174070
C38	C	1.028409	0.630137	0.674070
C39	C	0.481323	0.129208	0.087034
C40	C	0.981323	0.629208	0.587034
C41	C	0.528428	0.130157	-0.000007
C42	C	1.028428	0.630157	0.499993
C43	C	0.481344	0.129221	-0.087042
C44	C	0.981344	0.629221	0.412958
C45	C	0.528447	0.130176	-0.174084
C46	C	1.028447	0.630176	0.325916
C47	C	0.622632	0.132061	-0.174079
C48	C	1.122632	0.632061	0.325921
C49	C	0.387137	0.127324	0.087029
C50	C	0.887137	0.627324	0.587029
C51	C	0.387152	0.127335	-0.087043
C52	C	0.887152	0.627335	0.412957
C53	C	1.068164	-0.042209	0.000019
C54	C	1.568164	0.457791	0.500019
C55	C	1.057920	-0.147448	0.000027
C56	C	1.557920	0.352552	0.500027
C57	C	1.111846	-0.397666	-0.000009
C58	C	1.611846	0.102334	0.499991
C59	C	1.039205	-0.340130	-0.000004
C60	C	1.539205	0.159870	0.499996
C61	C	1.049620	-0.232912	0.000014
C62	C	1.549620	0.267088	0.500014
C63	C	1.101432	-0.504893	-0.000026
C64	C	1.601432	-0.004893	0.499974
C65	C	1.239811	0.124390	-0.000001
C66	C	1.739811	0.624390	0.499999
C67	C	1.340053	0.126388	-0.000006
C68	C	1.840053	0.626388	0.499994
C69	C	1.082883	0.304408	-0.000026
C70	C	1.582883	0.804408	0.499974
C71	C	1.093128	0.409647	-0.000040
C72	C	1.593128	0.909647	0.499960
N73	N	1.075500	0.131094	0.248745
N74	N	1.575500	0.631094	0.748745
N75	N	1.075554	0.131097	-0.248749
N76	N	1.575554	0.631097	0.251251
C77	C	1.019420	0.195444	0.701004
C78	C	1.519420	0.695444	1.201004
C79	C	1.131677	0.066751	0.700993
C80	C	1.631677	0.566751	1.200993
C81	C	1.131666	0.066748	0.600497
C82	C	1.631666	0.566748	1.100497
C83	C	1.075532	0.131095	0.550250
C84	C	1.575532	0.631095	1.050250
C85	C	1.019409	0.195445	0.600499
C86	C	1.519409	0.695445	1.100499
C87	C	1.187794	0.002406	0.550241
C88	C	1.687794	0.502406	1.050241
C89	C	1.187786	0.002401	0.449739
C90	C	1.687786	0.502401	0.949739
C91	C	1.131647	0.066744	0.399490
C92	C	1.631647	0.566744	0.899490
C93	C	1.075521	0.131096	0.449745
C94	C	1.575521	0.631096	0.949745
C95	C	1.019388	0.195443	0.399498
C96	C	1.519388	0.695443	0.899498
C97	C	0.963257	0.259791	0.449752
C98	C	1.463257	0.759791	0.949752
C99	C	0.963270	0.259789	0.550251
C100	C	1.463270	0.759789	1.050251
C101	C	1.131633	0.066747	0.298991
C102	C	1.631633	0.566747	0.798991
C103	C	1.019377	0.195444	0.298993
C104	C	1.519377	0.695444	0.798993
H105	H	0.348823	0.126579	-0.157918
H106	H	0.848823	0.626579	0.342082
F107	F	1.203350	-0.356802	0.000005
F108	F	1.703350	0.143198	0.500005
F109	F	0.959626	0.263928	0.245525
F110	F	1.459626	0.763928	0.745525
H111	H	1.177339	0.014360	0.258080
H112	H	1.677339	0.514360	0.758080
F113	F	0.814039	0.135893	-0.179673
F114	F	1.314039	0.635893	0.320327
F115	F	0.903523	0.328278	0.396265
F116	F	1.403523	0.828278	0.896265
F117	F	0.947694	-0.380993	-0.000009
F118	F	1.447694	0.119007	0.499991
F119	F	0.903538	0.328269	0.603737
F120	F	1.403538	0.828269	1.103737
F121	F	0.337012	0.126294	0.179658
F122	F	0.837012	0.626294	0.679658
H123	H	1.177384	0.014366	0.741907
H124	H	1.677384	0.514366	1.241907
F125	F	0.959680	0.263922	0.754485
F126	F	1.459680	0.763922	1.254485
H127	H	1.233490	-0.049995	0.408829
H128	H	1.733490	0.450005	0.908829
F129	F	0.478327	0.129162	-0.266710
F130	F	0.978327	0.629162	0.233290
F131	F	0.672769	0.133068	-0.266706
F132	F	1.172769	0.633068	0.233294
H133	H	0.490066	0.129358	0.244944
H134	H	0.990066	0.629358	0.744944
H135	H	1.233501	-0.049979	0.591155
H136	H	1.733501	0.450021	1.091155
H137	H	0.802228	0.135615	0.157887
H138	H	1.302228	0.635615	0.657887
H139	H	0.660941	0.132774	0.244924
H140	H	1.160941	0.632774	0.744924
