data_functionalizedCrystal
_audit_creation_method	'MofGen! by Chris Wilmer'
_symmetry_space_group_name_H-M	'P1'
_symmetry_Int_Tables_number	1
_symmetry_cell_setting	triclinic
loop_
_symmetry_equiv_pos_as_xyz
  x,y,z
_cell_length_a	23.196402
_cell_length_b	20.875621
_cell_length_c	20.875641
_cell_angle_alpha	87.033849
_cell_angle_beta	62.441816
_cell_angle_gamma	58.313896
loop_
_atom_site_label
_atom_site_type_symbol
_atom_site_fract_x
_atom_site_fract_y
_atom_site_fract_z
Zr1	Zr	0.623613	0.622042	-0.112332
O2	O	0.737692	0.523059	-0.206170
O3	O	0.505241	0.652388	-0.083568
O4	O	0.616980	0.657127	-0.212886
O5	O	0.632681	0.514578	0.025159
O6	O	0.616631	0.762881	-0.218181
O7	O	0.625953	0.518319	-0.076852
O8	O	0.416749	0.754403	0.013145
O9	O	0.832563	0.523056	-0.206167
O10	O	0.555258	0.744250	-0.075250
O11	O	0.560540	0.662536	0.004831
O12	O	0.692099	0.668116	-0.147424
O13	O	0.697381	0.586401	-0.067343
Zr14	Zr	0.633787	0.784740	0.041917
Zr15	Zr	0.623056	0.790707	-0.120778
Zr16	Zr	0.634344	0.616076	0.050363
Zr17	Zr	0.774921	0.622038	-0.112329
Zr18	Zr	0.482479	0.784744	0.041913
O19	O	0.752159	0.754395	0.013153
O20	O	0.736901	0.762878	-0.218178
O21	O	0.752951	0.514575	0.025161
O22	O	0.519708	0.883724	0.135754
O23	O	0.504449	0.892207	-0.095577
O24	O	0.520499	0.643904	0.147763
O25	O	0.624719	0.892204	-0.095574
O26	O	0.640420	0.749655	0.142470
O27	O	0.640769	0.643901	0.147766
O28	O	0.631447	0.888463	0.006437
O29	O	0.832121	0.657122	-0.212881
O30	O	0.425279	0.749660	0.142465
O31	O	0.424837	0.883726	0.135752
O32	O	0.416307	0.888468	0.006431
O33	O	0.841093	0.518314	-0.076847
O34	O	0.840651	0.652380	-0.083560
O35	O	0.565301	0.738666	0.077009
O36	O	0.560019	0.820381	-0.003073
O37	O	0.696860	0.744247	-0.075247
O38	O	0.702142	0.662532	0.004835
C39	C	0.439437	0.703396	-0.035212
C40	C	0.375203	0.703397	-0.035214
C41	C	-0.090396	0.746046	-0.076996
C42	C	-0.030038	0.746045	-0.077003
C43	C	0.002901	0.703392	-0.035201
C44	C	-0.024509	0.660721	0.006596
C45	C	-0.084861	0.660718	0.006595
C46	C	0.069299	0.706837	0.031068
C47	C	0.129647	0.706846	0.031070
C48	C	0.189049	0.703397	-0.035201
C49	C	0.188090	0.699956	-0.101474
C50	C	0.127738	0.699953	-0.101474
C51	C	0.068344	0.703390	-0.035196
C52	C	0.281904	0.746059	-0.077006
C53	C	0.342267	0.746052	-0.077015
C54	C	0.347789	0.660733	0.006591
C55	C	0.287433	0.660736	0.006592
C56	C	0.254491	0.703403	-0.035205
C57	C	0.629396	0.492417	-0.024643
C58	C	0.629632	0.420815	-0.021058
C59	C	0.626039	0.389236	-0.075573
C60	C	0.626257	0.321960	-0.072201
C61	C	0.630074	0.286261	-0.014315
C62	C	0.633666	0.317845	0.040206
C63	C	0.633442	0.385123	0.036835
C64	C	0.631135	0.084830	0.001793
C65	C	0.631361	0.017546	0.005158
C66	C	0.623951	0.021667	-0.107248
C67	C	0.623732	0.088943	-0.110616
C68	C	0.627320	0.120524	-0.056093
N69	N	0.630300	0.217492	-0.010868
N70	N	0.627089	0.189294	-0.059538
C71	C	0.817963	0.703387	-0.035203
C72	C	0.882197	0.703385	-0.035202
C73	C	0.615277	0.710854	-0.238714
C74	C	0.610721	0.713387	-0.307782
C75	C	0.628004	0.914365	-0.045772
C76	C	0.627768	0.985967	-0.049357
C77	C	0.680009	0.674837	-0.377905
C78	C	0.675723	0.677227	-0.442800
C79	C	0.602150	0.718163	-0.437570
C80	C	0.532857	0.756718	-0.367440
C81	C	0.537143	0.754332	-0.302547
C82	C	0.581672	0.729564	-0.627610
C83	C	0.577391	0.731945	-0.692511
C84	C	0.720258	0.652455	-0.767866
C85	C	0.724537	0.650069	-0.702968
C86	C	0.655245	0.688628	-0.632844
N87	N	0.597768	0.720605	-0.503902
N88	N	0.659628	0.686190	-0.566514
C89	C	0.642123	0.695928	0.168299
C90	C	0.646679	0.693395	0.237367
C91	C	0.438741	0.914369	-0.045776
C92	C	0.374270	0.985973	-0.049363
C93	C	0.452860	0.695933	0.168294
C94	C	0.393181	0.693401	0.237361
C95	C	0.452164	0.906906	0.157730
C96	C	0.392249	0.975978	0.223211
C97	C	0.805236	0.499876	-0.228145
C98	C	0.865151	0.430805	-0.293627
C99	C	0.818659	0.492413	-0.024639
C100	C	0.883130	0.420809	-0.021052
C101	C	0.804540	0.710850	-0.238710
C102	C	0.864219	0.713381	-0.307776
C103	C	0.341509	0.979860	-0.088730
C104	C	0.280939	1.047134	-0.092116
C105	C	0.253129	1.120520	-0.056129
C106	C	0.285896	1.126632	-0.016761
C107	C	0.346469	1.059359	-0.013380
C108	C	0.367641	0.731952	0.307478
C109	C	0.311576	0.729570	0.372380
C110	C	0.281047	0.688642	0.367163
C111	C	0.306593	0.650087	0.297039
C112	C	0.362661	0.652464	0.232138
C113	C	0.361355	1.051075	0.212160
C114	C	0.305067	1.115982	0.273680
C115	C	0.279669	1.105789	0.346251
C116	C	0.310569	1.030683	0.357301
C117	C	0.366860	0.965778	0.295781
C118	C	0.896052	0.355707	-0.282575
C119	C	0.952359	0.290800	-0.344095
C120	C	0.977760	0.300993	-0.416666
C121	C	0.946856	0.376099	-0.427716
C122	C	0.890555	0.441004	-0.366197
C123	C	0.915897	0.426922	0.018308
C124	C	0.976482	0.359649	0.021676
C125	C	1.004295	0.286263	-0.014313
C126	C	0.971524	0.280151	-0.053679
C127	C	0.910944	0.347424	-0.057050
C128	C	0.894730	0.754316	-0.302535
C129	C	0.950796	0.756710	-0.367425
C130	C	0.976355	0.718163	-0.437555
C131	C	0.945838	0.677227	-0.442795
C132	C	0.889768	0.674838	-0.377906
H133	H	0.255084	0.780798	-0.111042
H134	H	0.621029	-0.004052	-0.151637
Br135	Br	0.204954	0.685423	0.455250
Br136	Br	0.878168	0.526509	0.067155
Br137	Br	0.620866	0.437674	-0.154141
Br138	Br	0.203272	1.193883	0.429735
Br139	Br	0.397312	0.600143	0.136982
Br140	Br	0.981336	0.389919	-0.526210
Br141	Br	0.268695	0.695288	-0.191418
H142	H	0.020936	0.709641	0.085037
H143	H	0.873929	0.785706	-0.245438
H144	H	0.623330	0.296250	-0.116591
H145	H	0.289882	1.022395	0.416396
Br146	Br	0.408778	0.863862	0.310793
H147	H	0.265115	0.626000	0.040629
Br148	Br	1.009277	0.180549	-0.102515
Br149	Br	1.086512	0.194971	-0.009731
H150	H	0.865395	0.502150	-0.375204
H151	H	1.003154	0.364641	0.053734
H152	H	0.279914	1.177130	0.264670
Br153	Br	0.861590	0.341852	-0.184094
Br154	Br	0.866478	0.339113	-0.110468
Br155	Br	0.126438	0.695276	-0.191413
H156	H	0.373136	1.064347	0.018681
Br157	Br	0.638311	0.427984	0.110828
Br158	Br	0.848373	0.619271	-0.385032
H159	H	0.634058	0.110536	0.046187
H160	H	0.975638	0.790043	-0.363145
Br161	Br	0.248142	1.226234	0.032077
Br162	Br	0.265153	0.594545	0.289971
Br163	Br	1.052452	0.721412	-0.525613
H164	H	0.732145	0.645837	-0.499894
H165	H	0.130418	0.709655	0.085035
H166	H	0.636769	0.288777	0.087341
Br167	Br	0.618556	0.137391	-0.189177
H168	H	0.966657	0.645843	-0.499903
Br169	Br	0.824391	0.594468	-0.710069
Br170	Br	0.487632	0.781858	-0.532448
H171	H	0.002315	0.625991	0.040629
Br172	Br	0.814293	0.600129	-0.863034
Br173	Br	-0.135084	0.803932	-0.133738
Br174	Br	0.433006	0.812278	-0.360342
H175	H	0.392492	0.765280	0.311740
Br176	Br	0.636547	-0.030903	0.083722
Br177	Br	0.007165	0.803947	-0.133727
H178	H	0.364585	0.780788	-0.111053
H179	H	-0.107174	0.625977	0.040630
Br180	Br	0.994286	0.188881	-0.329081
Br181	Br	0.392495	0.602835	0.063312
H182	H	0.739920	0.641497	-0.382171
H183	H	0.517476	0.765279	-0.688244
Br184	Br	0.379240	0.880274	-0.137579
Br185	Br	0.236480	1.038821	-0.145545
Br186	Br	0.276918	0.781901	0.467538
H187	H	1.023605	0.248137	-0.466753
Br188	Br	0.395815	1.064930	0.113678
H189	H	0.480722	0.785723	-0.245450
H190	H	0.203806	1.175292	-0.058886
