data_functionalizedCrystal
_audit_creation_method	'MofGen! by Chris Wilmer'
_symmetry_space_group_name_H-M	'P1'
_symmetry_Int_Tables_number	1
_symmetry_cell_setting	triclinic
loop_
_symmetry_equiv_pos_as_xyz
  x,y,z
_cell_length_a	14.395555
_cell_length_b	18.760492
_cell_length_c	18.760487
_cell_angle_alpha	89.967220
_cell_angle_beta	60.022033
_cell_angle_gamma	120.002609
loop_
_atom_site_label
_atom_site_type_symbol
_atom_site_fract_x
_atom_site_fract_y
_atom_site_fract_z
Zr1	Zr	1.016791	0.093131	0.686710
O2	O	1.210586	0.207020	0.572903
O3	O	0.822995	0.058217	0.721595
O4	O	1.016790	0.206926	0.721606
O5	O	1.016791	-0.058992	0.572887
O6	O	1.016790	0.206854	0.838909
O7	O	1.016791	0.058311	0.572892
O8	O	0.670125	-0.059160	0.838890
O9	O	1.363456	0.207022	0.572907
O10	O	0.902706	0.043274	0.824019
O11	O	0.902706	-0.044214	0.736473
O12	O	1.130875	0.130873	0.736486
O13	O	1.130876	0.043385	0.648940
Zr14	Zr	1.016791	-0.094068	0.873787
Zr15	Zr	1.016790	0.093016	0.873795
Zr16	Zr	1.016791	-0.093953	0.686702
Zr17	Zr	1.260600	0.093134	0.686716
Zr18	Zr	0.772981	-0.094071	0.873781
O19	O	1.210586	-0.059153	0.838902
O20	O	1.210586	0.206856	0.838914
O21	O	1.210587	-0.058990	0.572892
O22	O	0.822995	-0.207956	0.987594
O23	O	0.822994	0.058053	0.987606
O24	O	0.822995	-0.207793	0.721584
O25	O	1.016790	0.058055	0.987610
O26	O	1.016791	-0.207863	0.838891
O27	O	1.016791	-0.207791	0.721588
O28	O	1.016790	-0.059247	0.987605
O29	O	1.363456	0.206930	0.721614
O30	O	0.670126	-0.207867	0.838883
O31	O	0.670125	-0.207958	0.987591
O32	O	0.670125	-0.059251	0.987597
O33	O	1.363456	0.058315	0.572900
O34	O	1.363456	0.058223	0.721608
O35	O	0.902706	-0.131809	0.824011
O36	O	0.902706	-0.044321	0.911557
O37	O	1.130875	0.043277	0.824024
O38	O	1.130876	-0.044211	0.736479
C39	C	0.711822	-0.000472	0.780242
C40	C	0.608319	-0.000473	0.780239
C41	C	1.016790	0.233546	0.780259
C42	C	1.016790	0.312968	0.780262
C43	C	1.016791	-0.234482	0.780239
C44	C	1.016791	-0.313904	0.780235
C45	C	0.547727	-0.048178	0.732508
C46	C	0.561983	0.034161	0.697919
C47	C	0.409667	-0.082787	0.814807
C48	C	0.624002	0.081914	0.745602
C49	C	0.471622	-0.035093	0.862536
C50	C	0.485925	0.047295	0.827967
C51	C	1.321759	-0.000465	0.780256
C52	C	1.425262	-0.000464	0.780258
C53	C	1.016791	-0.000324	0.546234
C54	C	1.016791	-0.000275	0.466812
C55	C	0.897684	0.603056	0.825931
C56	C	1.135897	0.694506	0.734545
C57	C	1.135899	0.619885	0.734551
C58	C	1.016791	0.536846	0.780246
C59	C	0.897682	0.528427	0.825936
C60	C	1.255006	0.628298	0.688855
C61	C	1.255013	0.553674	0.688858
C62	C	1.135904	0.470633	0.734559
C63	C	1.016790	0.462217	0.780251
C64	C	0.897682	0.379178	0.825947
C65	C	0.778567	0.370760	0.871645
C66	C	0.778573	0.445386	0.871637
C67	C	1.135897	0.396007	0.734567
C68	C	0.897681	0.304549	0.825952
C69	C	1.135897	0.045105	0.085304
C70	C	0.897684	-0.046349	0.176694
C71	C	0.897682	-0.046274	0.251316
C72	C	1.016790	-0.000508	0.242935
C73	C	1.135899	0.045184	0.159931
C74	C	0.778575	-0.091957	0.334324
C75	C	0.778568	-0.091883	0.408953
C76	C	0.897677	-0.046121	0.400572
C77	C	1.016791	-0.000429	0.317562
C78	C	1.135899	0.045337	0.309181
C79	C	1.255015	0.091025	0.226172
C80	C	1.255008	0.090945	0.151551
C81	C	0.897684	-0.046042	0.475193
C82	C	1.135901	0.045416	0.383809
C83	C	1.016790	-0.000612	1.014263
C84	C	1.016790	-0.000661	1.093685
C85	C	0.711822	-0.000616	1.014256
C86	C	0.608318	-0.000666	1.093676
C87	C	0.711823	-0.234486	0.780232
C88	C	0.608320	-0.313909	0.780226
C89	C	0.711822	-0.234630	1.014246
C90	C	0.608319	-0.314102	1.093662
C91	C	1.321759	0.233693	0.546252
C92	C	1.425262	0.313165	0.466835
C93	C	1.321759	-0.000321	0.546241
C94	C	1.425263	-0.000271	0.466821
C95	C	1.321758	0.233549	0.780266
C96	C	1.425262	0.312973	0.780272
C97	C	0.559712	0.045042	1.085278
C98	C	0.462473	0.045013	1.159895
C99	C	0.413835	-0.000731	1.242908
C100	C	0.462451	-0.046440	1.251304
C101	C	0.559695	-0.046405	1.176688
C102	C	0.559713	-0.396939	0.825917
C103	C	0.462475	-0.471573	0.825908
C104	C	0.413837	-0.463175	0.780213
C105	C	0.462453	-0.380136	0.734516
C106	C	0.559697	-0.305504	0.734520
C107	C	0.559713	-0.305755	1.176663
C108	C	0.462474	-0.380421	1.251290
C109	C	0.413836	-0.463432	1.242915
C110	C	0.462452	-0.471777	1.159906
C111	C	0.559696	-0.397112	1.085280
C112	C	1.473880	0.304819	0.383834
C113	C	1.571150	0.379484	0.309207
C114	C	1.619792	0.462495	0.317582
C115	C	1.571170	0.470840	0.400591
C116	C	1.473909	0.396176	0.475217
C117	C	1.473879	-0.045971	0.475219
C118	C	1.571145	-0.045921	0.400603
C119	C	1.619786	-0.000175	0.317590
C120	C	1.571166	0.045531	0.309194
C121	C	1.473908	0.045486	0.383809
C122	C	1.473868	0.304547	0.825976
C123	C	1.571108	0.379166	0.825998
C124	C	1.619745	0.462211	0.780311
C125	C	1.571129	0.470635	0.734605
C126	C	1.473885	0.396016	0.734588
H127	H	0.574953	-0.088460	0.692089
H128	H	1.351977	0.695911	0.651650
H129	H	0.458982	0.087698	0.868330
F130	F	1.422132	-0.094662	0.563561
F131	F	1.422121	0.216171	0.874607
F132	F	1.622837	0.370182	0.874642
H133	H	1.434327	0.082698	0.376960
H134	H	0.422838	-0.373311	0.697312
F135	F	1.262663	0.093722	-0.003037
F136	F	1.723296	-0.000135	0.238184
F137	F	1.723245	0.541620	0.780335
F138	F	0.611409	-0.095062	1.185639
H139	H	1.232880	0.402863	0.697353
H140	H	0.334652	-0.000753	1.303657
F141	F	0.610586	0.072446	0.606961
H142	H	1.610784	0.082776	0.241595
H143	H	0.599259	-0.403921	1.017700
F144	F	1.723306	0.541954	0.238151
F145	F	0.651814	0.436437	0.920262
F146	F	0.743681	0.172951	0.707295
H147	H	0.422838	-0.539375	1.153100
H148	H	0.681589	0.303140	0.908845
F149	F	0.423044	-0.073402	0.953476
H150	H	0.599259	-0.237900	0.697316
F151	F	1.622915	0.559024	0.685978
F152	F	0.611464	-0.217415	1.185596
F153	F	0.770930	-0.095049	0.185610
H154	H	0.422836	-0.083683	1.318903
F155	F	0.289928	-0.173779	0.853011
H156	H	0.599303	-0.403793	0.863128
H157	H	1.232869	0.762119	0.697338
H158	H	0.800687	0.236938	0.863166
H159	H	1.434281	0.237233	0.376998
H160	H	0.422903	-0.539179	0.863123
H161	H	1.434320	0.402889	0.697367
F162	F	0.770919	0.594099	0.874565
H163	H	0.334655	-0.523952	0.780216
F164	F	0.410746	-0.371521	1.339626
H165	H	1.352004	0.560537	0.651649
F166	F	0.310339	-0.542890	1.322347
H167	H	1.610787	0.538437	0.407400
F168	F	1.262674	0.094123	0.374879
F169	F	0.651797	-0.140510	0.497290
H170	H	1.434325	0.402982	0.542798
H171	H	1.610721	0.372672	0.241625
H172	H	1.351992	0.128292	0.219358
H173	H	1.351986	0.128141	0.083961
F174	F	0.651822	-0.140657	0.343238
H175	H	0.800702	-0.083248	0.542775
H176	H	1.610716	-0.083144	0.407456
H177	H	0.599312	0.082303	1.017692
H178	H	0.422902	0.082235	1.153042
