data_functionalizedCrystal
_audit_creation_method	'MofGen! by Chris Wilmer'
_symmetry_space_group_name_H-M	'P1'
_symmetry_Int_Tables_number	1
_symmetry_cell_setting	triclinic
loop_
_symmetry_equiv_pos_as_xyz
  x,y,z
_cell_length_a	17.699083
_cell_length_b	10.723024
_cell_length_c	16.176319
_cell_angle_alpha	89.994397
_cell_angle_beta	89.998611
_cell_angle_gamma	83.875442
loop_
_atom_site_label
_atom_site_type_symbol
_atom_site_fract_x
_atom_site_fract_y
_atom_site_fract_z
O1	O	1.005074	0.157797	-0.068628
O2	O	1.505074	0.657797	0.431372
O3	O	0.784825	0.178327	-0.068655
O4	O	1.284825	0.678327	0.431345
O5	O	0.900030	-0.013601	-0.068638
O6	O	1.400030	0.486399	0.431362
O7	O	0.889869	0.349725	-0.068646
O8	O	1.389869	0.849725	0.431354
O9	O	0.900014	-0.013613	0.068855
O10	O	1.400014	0.486387	0.568855
O11	O	0.784809	0.178315	0.068838
O12	O	1.284809	0.678315	0.568838
O13	O	1.005058	0.157785	0.068865
O14	O	1.505058	0.657785	0.568865
Cu15	Cu	0.894932	0.168049	0.081406
Cu16	Cu	1.394932	0.668049	0.581406
Cu17	Cu	0.894951	0.168063	-0.081196
Cu18	Cu	1.394951	0.668063	0.418804
O19	O	0.889853	0.349713	0.068848
O20	O	1.389853	0.849713	0.568848
C21	C	0.756616	0.177585	0.000088
C22	C	1.256616	0.677585	0.500088
C23	C	0.672584	0.175378	0.000078
C24	C	1.172584	0.675378	0.500078
C25	C	0.624673	0.288036	0.000076
C26	C	1.124673	0.788036	0.500076
C27	C	0.545717	0.285955	0.000086
C28	C	1.045717	0.785955	0.500086
C29	C	0.514672	0.171215	0.000093
C30	C	1.014672	0.671215	0.500093
C31	C	0.562589	0.058549	0.000098
C32	C	1.062589	0.558549	0.500098
C33	C	0.641544	0.060631	0.000093
C34	C	1.141544	0.560631	0.500093
C35	C	0.244173	0.050148	0.000118
C36	C	0.744173	0.550148	0.500118
C37	C	0.165212	0.048075	0.000121
C38	C	0.665212	0.548075	0.500121
C39	C	0.148346	0.275473	0.000112
C40	C	0.648346	0.775473	0.500112
C41	C	0.227301	0.277555	0.000107
C42	C	0.727301	0.777555	0.500107
C43	C	0.275210	0.164889	0.000116
C44	C	0.775210	0.664889	0.500116
C45	C	0.360824	0.167147	0.000106
C46	C	0.860824	0.667147	0.500106
C47	C	0.429060	0.168956	0.000097
C48	C	0.929060	0.668956	0.500097
C49	C	0.899283	-0.060094	0.000107
C50	C	1.399283	0.439906	0.500107
C51	C	0.897070	-0.198610	0.000104
C52	C	1.397070	0.301390	0.500104
C53	C	0.961533	-0.274698	0.000111
C54	C	1.461533	0.225302	0.500111
C55	C	0.959248	-0.417863	0.000108
C56	C	1.459248	0.082137	0.500108
C57	C	1.033268	0.158527	0.000120
C58	C	1.533268	0.658527	0.500120
C59	C	1.117300	0.160734	0.000125
C60	C	1.617300	0.660734	0.500125
C61	C	0.890601	0.396206	0.000100
C62	C	1.390601	0.896206	0.500100
C63	C	0.892813	0.534723	0.000098
C64	C	1.392813	1.034723	0.500098
N65	N	0.894924	0.168038	0.195771
N66	N	1.394924	0.668038	0.695771
N67	N	0.894965	0.168064	-0.195561
N68	N	1.394965	0.668064	0.304439
C69	C	0.945953	0.083087	0.239042
C70	C	1.445953	0.583087	0.739042
C71	C	0.945957	0.083085	0.325590
C72	C	1.445957	0.583085	0.825590
C73	C	0.894935	0.168042	0.368863
C74	C	1.394935	0.668042	0.868863
C75	C	0.843901	0.252997	0.325586
C76	C	1.343901	0.752997	0.825586
C77	C	0.843894	0.252992	0.239040
C78	C	1.343894	0.752992	0.739040
C79	C	0.843927	0.253021	0.674614
C80	C	1.343927	0.753021	1.174614
C81	C	0.843940	0.253022	0.761165
C82	C	1.343940	0.753022	1.261165
C83	C	0.945989	0.083115	0.761163
C84	C	1.445989	0.583115	1.261163
C85	C	0.945983	0.083109	0.674618
C86	C	1.445983	0.583109	1.174618
C87	C	0.894946	0.168059	0.631348
C88	C	1.394946	0.668059	1.131348
C89	C	0.894942	0.168058	0.537503
C90	C	1.394942	0.668058	1.037503
C91	C	0.894943	0.168050	0.462706
C92	C	1.394943	0.668050	0.962706
H93	H	0.139939	-0.045366	0.000127
H94	H	0.639939	0.454634	0.500127
H95	H	0.987507	0.013911	0.360821
H96	H	1.487507	0.513911	0.860821
C97	C	1.046865	-0.084846	0.752467
C98	C	1.546865	0.415154	1.252467
C99	C	1.002083	-0.010283	0.808728
C100	C	1.502083	0.489717	1.308728
H101	H	1.081496	-0.142498	0.781831
H102	H	1.581496	0.357502	1.281831
H103	H	1.015128	-0.129661	0.718718
H104	H	1.515128	0.370339	1.218718
H105	H	1.074353	-0.032946	0.718704
H106	H	1.574353	0.467054	1.218704
H107	H	0.974591	-0.062183	0.842486
H108	H	1.474591	0.437817	1.342486
H109	H	1.033824	0.034534	0.842491
H110	H	1.533824	0.534534	1.342491
C111	C	0.743061	0.420980	0.683321
C112	C	1.243061	0.920980	1.183321
C113	C	0.787835	0.346407	0.627059
C114	C	1.287835	0.846407	1.127059
H115	H	0.708434	0.478640	0.653958
H116	H	1.208434	0.978640	1.153958
H117	H	0.715575	0.369096	0.717084
H118	H	1.215575	0.869096	1.217084
H119	H	0.774809	0.465796	0.717069
H120	H	1.274809	0.965796	1.217069
H121	H	0.756087	0.301584	0.593315
H122	H	1.256087	0.801584	1.093315
H123	H	0.815323	0.398298	0.593281
H124	H	1.315323	0.898298	1.093281
H125	H	1.018413	-0.233851	0.000123
H126	H	1.518413	0.266149	0.500123
H127	H	0.837625	-0.399906	0.000098
H128	H	1.337625	0.100094	0.500098
C129	C	0.761110	-0.156009	0.000082
C130	C	1.261110	0.343991	0.500082
C131	C	0.820278	-0.253736	0.000089
C132	C	1.320278	0.246264	0.500089
H133	H	0.713702	-0.190042	0.000067
H134	H	1.213702	0.309958	0.500067
H135	H	0.764738	-0.105873	0.048029
H136	H	1.264738	0.394127	0.548029
H137	H	0.764759	-0.105846	-0.047866
H138	H	1.264759	0.394154	0.452134
H139	H	0.816634	-0.303894	0.048040
H140	H	1.316634	0.196106	0.548040
H141	H	0.816649	-0.303893	-0.047863
H142	H	1.316649	0.196107	0.452137
H143	H	0.680552	-0.031107	0.000094
H144	H	1.180552	0.468893	0.500094
C145	C	0.800562	0.469106	0.352208
C146	C	1.300562	0.969106	0.852208
C147	C	0.787811	0.346383	0.373145
C148	C	1.287811	0.846383	0.873145
H149	H	0.765930	0.526758	0.381564
H150	H	1.265930	1.026758	0.881564
H151	H	0.851134	0.482553	0.366390
H152	H	1.351134	0.982553	0.866390
H153	H	0.793256	0.481239	0.294469
H154	H	1.293256	0.981239	0.794469
H155	H	0.795123	0.334247	0.430883
H156	H	1.295123	0.834247	0.930883
H157	H	0.737227	0.332931	0.358968
H158	H	1.237227	0.832931	0.858968
H159	H	0.802341	0.322166	0.203809
H160	H	1.302341	0.822166	0.703809
H161	H	0.987503	0.013910	0.203815
H162	H	1.487503	0.513910	0.703815
C163	C	0.600063	0.512607	0.000075
C164	C	1.100063	1.012607	0.500075
C165	C	0.658793	0.414165	0.000070
C166	C	1.158793	0.914165	0.500070
H167	H	0.621127	0.590474	0.000079
H168	H	1.121127	1.090474	0.500079
H169	H	0.569619	0.507071	-0.047867
H170	H	1.069619	1.007071	0.452133
H171	H	0.569619	0.507047	0.048027
H172	H	1.069619	1.007047	0.548027
H173	H	0.689234	0.419718	-0.047885
H174	H	1.189234	0.919718	0.452115
H175	H	0.689250	0.419703	0.048017
H176	H	1.189250	0.919703	0.548017
C177	C	1.075987	-0.483859	-0.070559
C178	C	1.575987	0.016141	0.429441
C179	C	1.033752	-0.506108	0.000115
C180	C	1.533752	-0.006108	0.500115
H181	H	1.121987	-0.538335	-0.070550
H182	H	1.621987	-0.038335	0.429450
H183	H	1.047339	-0.498929	-0.118500
H184	H	1.547339	0.001071	0.381500
H185	H	1.087290	-0.399223	-0.070548
H186	H	1.587290	0.100777	0.429452
H187	H	1.022445	-0.590741	0.000100
H188	H	1.522445	-0.090741	0.500100
H189	H	1.062407	-0.491047	0.048068
H190	H	1.562407	0.008953	0.548068
H191	H	0.987531	0.013933	0.639387
H192	H	1.487531	0.513933	1.139387
H193	H	0.506711	0.377693	0.000084
H194	H	1.006711	0.877693	0.500084
C195	C	0.449047	-0.045618	0.000102
C196	C	0.949047	0.454382	0.500102
C197	C	0.528466	-0.067578	0.000104
C198	C	1.028466	0.432422	0.500104
H199	H	0.427985	-0.123486	0.000098
H200	H	0.927985	0.376514	0.500098
H201	H	0.432647	0.000745	0.048045
H202	H	0.932647	0.500745	0.548045
H203	H	0.432650	0.000765	-0.047849
H204	H	0.932650	0.500765	0.452151
H205	H	0.544865	-0.113952	0.048058
H206	H	1.044865	0.386048	0.548058
H207	H	0.544874	-0.113960	-0.047845
H208	H	1.044874	0.386040	0.452155
H209	H	0.802389	0.322207	0.796397
H210	H	1.302389	0.822207	1.296397
H211	H	0.283172	-0.041591	0.000126
H212	H	0.783172	0.458409	0.500126
H213	H	0.109328	0.367210	0.000109
H214	H	0.609328	0.867210	0.500109
C215	C	0.202696	0.502128	0.000109
C216	C	0.702696	1.002128	0.500109
C217	C	0.261424	0.403680	0.000104
C218	C	0.761424	0.903680	0.500104
H219	H	0.223763	0.579992	0.000115
H220	H	0.723763	1.079992	0.500115
H221	H	0.172253	0.496596	-0.047834
H222	H	0.672253	0.996596	0.452166
H223	H	0.172251	0.496570	0.048060
H224	H	0.672251	0.996570	0.548060
H225	H	0.291865	0.409233	-0.047851
H226	H	0.791865	0.909233	0.452149
H227	H	0.291880	0.409215	0.048052
H228	H	0.791880	0.909215	0.548052
