data_functionalizedCrystal
_audit_creation_method	'MofGen! by Chris Wilmer'
_symmetry_space_group_name_H-M	'P1'
_symmetry_Int_Tables_number	1
_symmetry_cell_setting	triclinic
loop_
_symmetry_equiv_pos_as_xyz
  x,y,z
_cell_length_a	10.540539
_cell_length_b	14.519709
_cell_length_c	13.596369
_cell_angle_alpha	90.006934
_cell_angle_beta	90.003252
_cell_angle_gamma	84.102818
loop_
_atom_site_label
_atom_site_type_symbol
_atom_site_fract_x
_atom_site_fract_y
_atom_site_fract_z
O1	O	-1.684562	-0.129969	-0.081747
O2	O	-1.184562	0.370031	0.418253
O3	O	-1.315024	-0.142215	-0.081760
O4	O	-0.815024	0.357785	0.418240
O5	O	-1.509591	-0.001906	-0.081744
O6	O	-1.009591	0.498094	0.418256
O7	O	-1.489995	-0.270278	-0.081763
O8	O	-0.989995	0.229722	0.418237
O9	O	-1.509571	-0.001899	0.081838
O10	O	-1.009571	0.498101	0.581838
O11	O	-1.315004	-0.142207	0.081823
O12	O	-0.815004	0.357793	0.581823
O13	O	-1.684542	-0.129962	0.081835
O14	O	-1.184542	0.370038	0.581835
Zn15	Zn	-1.499770	-0.136083	0.107802
Zn16	Zn	-0.999770	0.363917	0.607802
Zn17	Zn	-1.499796	-0.136093	-0.107726
Zn18	Zn	-0.999796	0.363907	0.392274
O19	O	-1.489976	-0.270270	0.081820
O20	O	-0.989976	0.229730	0.581820
C21	C	-1.508668	0.032462	0.000047
C22	C	-1.008668	0.532462	0.500047
C23	C	-1.505931	0.134858	0.000048
C24	C	-1.005931	0.634858	0.500048
C25	C	-1.267720	-0.141293	0.000030
C26	C	-0.767720	0.358707	0.500030
C27	C	-1.126800	-0.138545	0.000026
C28	C	-0.626800	0.361455	0.500026
C29	C	-1.731846	-0.130884	0.000043
C30	C	-1.231846	0.369116	0.500043
C31	C	-1.872766	-0.133631	0.000041
C32	C	-1.372766	0.366369	0.500041
C33	C	-0.944448	-0.033266	0.000415
C34	C	-0.444448	0.466734	0.500415
C35	C	-1.091038	-0.036051	0.000036
C36	C	-0.591038	0.463949	0.500036
C37	C	-1.064635	-0.187874	-0.093388
C38	C	-0.564635	0.312126	0.406612
C39	C	-0.918127	-0.184376	-0.093456
C40	C	-0.418127	0.315624	0.406544
C41	C	-0.917595	-0.186453	0.092569
C42	C	-0.417595	0.313547	0.592569
C43	C	-1.064567	-0.187396	0.093793
C44	C	-0.564567	0.312604	0.593793
C45	C	-1.490899	-0.304639	0.000026
C46	C	-0.990899	0.195361	0.500026
C47	C	-1.493635	-0.407035	0.000019
C48	C	-0.993635	0.092965	0.500019
N49	N	-1.499762	-0.136076	0.254893
N50	N	-0.999762	0.363924	0.754893
C51	C	-1.495856	0.509808	0.000022
C52	C	-0.995856	1.009808	0.500022
C53	C	-1.498654	0.405485	0.000029
C54	C	-0.998654	0.905485	0.500029
C55	C	-1.500893	0.322337	0.000036
C56	C	-1.000893	0.822337	0.500036
C57	C	-1.503692	0.218007	0.000041
C58	C	-1.003692	0.718007	0.500041
N59	N	-1.499814	-0.136093	-0.254818
N60	N	-0.999814	0.363907	0.245182
C61	C	-1.499794	-0.136094	0.656184
C62	C	-0.999794	0.363906	1.156184
C63	C	-1.499781	-0.136092	0.544533
C64	C	-0.999781	0.363908	1.044533
C65	C	-1.499779	-0.136086	0.455542
C66	C	-0.999779	0.363914	0.955542
C67	C	-1.499765	-0.136082	0.343884
C68	C	-0.999765	0.363918	0.843884
H69	H	-1.134040	0.002763	0.066999
H70	H	-0.634040	0.502763	0.566999
O71	O	-1.095645	-0.286378	0.101273
O72	O	-0.595645	0.213622	0.601273
H73	H	-1.156192	-0.302374	0.037987
H74	H	-0.656192	0.197626	0.537987
H75	H	-1.086220	-0.263143	-0.096869
H76	H	-0.586220	0.236857	0.403131
O77	O	-1.121497	-0.142491	-0.185477
O78	O	-0.621497	0.357509	0.314523
H79	H	-1.194015	-0.084812	-0.164951
H80	H	-0.694015	0.415188	0.335049
H81	H	-0.886379	-0.153279	0.163375
H82	H	-0.386379	0.346721	0.663375
O83	O	-0.907124	0.020381	0.089152
O84	O	-0.407124	0.520381	0.589152
H85	H	-0.837075	-0.023910	0.133936
H86	H	-0.337075	0.476090	0.633936
O87	O	-1.119294	-0.139671	0.185342
O88	O	-0.619294	0.360329	0.685342
H89	H	-1.190526	-0.081402	0.164160
H90	H	-0.690526	0.418598	0.664160
H91	H	-0.869612	-0.260483	0.093195
H92	H	-0.369612	0.239517	0.593195
O93	O	-0.853572	-0.282010	-0.099080
O94	O	-0.353572	0.217990	0.400920
H95	H	-0.793841	-0.289714	-0.166388
H96	H	-0.293841	0.210286	0.333612
H97	H	-0.914661	0.007051	-0.066199
H98	H	-0.414661	0.507051	0.433801
H99	H	-0.890297	-0.147924	-0.163278
H100	H	-0.390297	0.352076	0.336722
H101	H	-1.133190	0.003030	-0.067038
H102	H	-0.633190	0.503030	0.432962
