data_functionalizedCrystal
_audit_creation_method	'MofGen! by Chris Wilmer'
_symmetry_space_group_name_H-M	'P1'
_symmetry_Int_Tables_number	1
_symmetry_cell_setting	triclinic
loop_
_symmetry_equiv_pos_as_xyz
  x,y,z
_cell_length_a	10.654550
_cell_length_b	19.188930
_cell_length_c	9.730223
_cell_angle_alpha	89.993564
_cell_angle_beta	89.996251
_cell_angle_gamma	83.814841
loop_
_atom_site_label
_atom_site_type_symbol
_atom_site_fract_x
_atom_site_fract_y
_atom_site_fract_z
O1	O	1.665759	0.098059	-0.114420
O2	O	1.300083	0.107401	-0.114400
O3	O	1.493474	0.001144	-0.114384
O4	O	1.472368	0.204317	-0.114436
O5	O	1.493471	0.001146	0.114196
O6	O	1.300081	0.107404	0.114180
O7	O	1.665757	0.098061	0.114160
Zn8	Zn	1.482918	0.102733	0.150462
Zn9	Zn	1.482921	0.102730	-0.150702
O10	O	1.472366	0.204319	0.114144
C11	C	1.253298	0.106717	-0.000107
C12	C	1.113898	0.104664	-0.000098
C13	C	1.492789	-0.024871	-0.000090
C14	C	1.490737	-0.102389	-0.000078
C15	C	1.033089	0.167227	-0.000134
C16	C	0.902109	0.165295	-0.000157
C17	C	0.932761	0.038231	-0.000114
C18	C	1.063738	0.040164	-0.000081
C19	C	1.015391	0.240587	-0.000165
C20	C	0.884411	0.238654	-0.000188
C21	C	1.604213	-0.146570	-0.000078
C22	C	1.602285	-0.219407	-0.000099
C23	C	1.486876	-0.248058	-0.000094
C24	C	1.373386	-0.203867	-0.000102
C25	C	1.375316	-0.131032	-0.000094
N26	N	1.398658	-0.356639	0.077701
N27	N	1.396832	-0.425830	0.077696
C28	C	1.481052	-0.467505	-0.000121
N29	N	1.567186	-0.437377	-0.077917
N30	N	1.569016	-0.368180	-0.077906
C31	C	1.484770	-0.327034	-0.000104
C32	C	1.592445	-0.590665	-0.000147
C33	C	1.590513	-0.663502	-0.000177
C34	C	1.361610	-0.647960	-0.000166
C35	C	1.363545	-0.575125	-0.000149
C36	C	1.478966	-0.546481	-0.000133
C37	C	1.712541	0.098746	-0.000136
C38	C	1.851941	0.100798	-0.000154
C39	C	1.473051	0.230334	-0.000153
C40	C	1.475102	0.307852	-0.000174
N41	N	1.482925	0.102735	0.355998
N42	N	1.482924	0.102722	-0.356238
C43	C	1.568581	0.055700	0.427932
C44	C	1.568577	0.055692	0.571815
C45	C	1.397260	0.149759	0.571818
C46	C	1.397258	0.149764	0.427938
C47	C	1.667493	0.001393	0.427930
C48	C	1.667490	0.001385	0.571813
H49	H	1.129530	-0.010781	-0.000032
H50	H	1.282908	-0.095058	-0.000094
O51	O	1.261246	-0.231662	-0.000339
C52	C	1.192085	-0.209116	-0.118704
H53	H	1.259583	-0.193634	-0.201447
H54	H	1.138905	-0.253489	-0.158443
H55	H	1.121842	-0.161997	-0.091936
H56	H	1.638050	-0.049327	0.616444
O57	O	1.314100	0.195538	0.641550
C58	C	1.334139	0.264762	0.606416
H59	H	1.382548	0.264933	0.501950
H60	H	1.239553	0.298654	0.601493
H61	H	1.396515	0.286675	0.687394
O62	O	0.884093	-0.024439	0.000136
C63	C	0.925420	-0.062622	0.118519
H64	H	0.952437	-0.024916	0.201261
H65	H	0.846227	-0.092711	0.158246
H66	H	1.011009	-0.101113	0.091781
O67	O	1.775720	0.021813	0.374626
C68	C	1.746690	0.082150	0.293113
H69	H	1.652044	0.110375	0.326735
H70	H	1.823516	0.118634	0.306102
H71	H	1.741038	0.066233	0.180590
O72	O	1.253346	-0.532174	-0.000378
C73	C	1.247629	-0.489556	-0.118739
H74	H	1.311994	-0.515907	-0.201488
H75	H	1.146429	-0.481856	-0.158472
H76	H	1.279837	-0.436445	-0.091969
O77	O	1.700865	-0.706323	-0.000117
C78	C	1.803144	-0.665419	-0.000134
H79	H	1.770964	-0.611226	0.043150
H80	H	1.882623	-0.691904	0.066230
H81	H	1.838552	-0.660050	-0.109791
H82	H	0.838270	0.260826	0.098490
H83	H	1.044114	0.269279	0.095493
H84	H	1.050553	0.263945	-0.098858
H85	H	1.686428	-0.567342	-0.000140
O86	O	0.833796	0.271525	-0.114369
C87	C	0.771811	0.223913	-0.193098
H88	H	0.745008	0.179826	-0.124125
H89	H	0.682881	0.252395	-0.240720
H90	H	0.837419	0.201019	-0.278110
O91	O	1.643032	-0.062597	0.381420
C92	C	1.523975	-0.077294	0.429878
H93	H	1.464023	-0.026105	0.455439
H94	H	1.474809	-0.106513	0.347186
H95	H	1.536820	-0.111149	0.526189
H96	H	1.763748	0.013347	0.610855
H97	H	1.698197	-0.123254	-0.000069
H98	H	1.694693	-0.255386	-0.000105
O99	O	1.249610	-0.675899	-0.000107
C100	C	1.272235	-0.749660	-0.000158
H101	H	1.370326	-0.766290	0.043117
H102	H	1.198405	-0.772386	0.066197
H103	H	1.266270	-0.769948	-0.109824
H104	H	1.327501	0.188057	0.369371
