data_functionalizedCrystal
_audit_creation_method	'MofGen! by Chris Wilmer'
_symmetry_space_group_name_H-M	'P1'
_symmetry_Int_Tables_number	1
_symmetry_cell_setting	triclinic
loop_
_symmetry_equiv_pos_as_xyz
  x,y,z
_cell_length_a	19.188930
_cell_length_b	19.288856
_cell_length_c	18.266242
_cell_angle_alpha	90.008438
_cell_angle_beta	89.993453
_cell_angle_gamma	96.861229
loop_
_atom_site_label
_atom_site_type_symbol
_atom_site_fract_x
_atom_site_fract_y
_atom_site_fract_z
O1	O	0.087066	-0.921361	-0.060923
O2	O	0.098822	-0.719100	-0.060918
O3	O	-0.008712	-0.826067	-0.060906
O4	O	0.194600	-0.814394	-0.060934
O5	O	-0.008708	-0.826053	0.060856
O6	O	0.098826	-0.719086	0.060844
O7	O	0.087070	-0.921347	0.060839
Zn8	Zn	0.092949	-0.820214	0.080174
Zn9	Zn	0.092943	-0.820233	-0.080253
O10	O	0.194604	-0.814380	0.060828
C11	C	0.098447	-0.693217	-0.000036
C12	C	0.097314	-0.616113	-0.000034
C13	C	0.152749	-0.052076	-0.000031
C14	C	0.153819	-0.124522	-0.000036
C15	C	0.090723	-0.169224	-0.000027
C16	C	0.026552	-0.141474	-0.000031
C17	C	0.025484	-0.069029	-0.000033
C18	C	0.043667	-0.290486	0.042639
C19	C	0.044738	-0.362930	0.042645
C20	C	0.094016	-0.392671	-0.000024
C21	C	0.142234	-0.349957	-0.042691
C22	C	0.141166	-0.277511	-0.042693
C23	C	0.091875	-0.247780	-0.000025
C24	C	0.159343	-0.498967	-0.000032
C25	C	0.160411	-0.571416	-0.000042
C26	C	0.033142	-0.588367	-0.000029
C27	C	0.032076	-0.515920	-0.000026
C28	C	0.095179	-0.471224	-0.000024
C29	C	-0.034721	-0.825682	-0.000023
C30	C	-0.112226	-0.824548	-0.000017
C31	C	-0.157156	-0.887312	-0.000015
C32	C	-0.229980	-0.886246	-0.000026
C33	C	-0.257870	-0.822412	-0.000025
C34	C	-0.212929	-0.759639	-0.000031
C35	C	-0.140107	-0.760707	-0.000027
N36	N	-0.365868	-0.773613	0.041414
N37	N	-0.435047	-0.772603	0.041411
C38	C	-0.477278	-0.819190	-0.000040
N39	N	-0.447719	-0.866837	-0.041479
N40	N	-0.378534	-0.867849	-0.041474
C41	C	-0.336832	-0.821247	-0.000030
C42	C	-0.601173	-0.880804	-0.000052
C43	C	-0.673998	-0.879735	-0.000068
C44	C	-0.656945	-0.753125	-0.000066
C45	C	-0.584122	-0.754196	-0.000057
C46	C	-0.556241	-0.818037	-0.000046
C47	C	0.220613	-0.814765	-0.000057
C48	C	0.298118	-0.815900	-0.000068
C49	C	0.087448	0.052770	-0.000039
C50	C	0.088586	-0.024333	-0.000031
N51	N	0.092952	-0.820207	0.189661
C52	C	0.135170	-0.862240	0.771930
C53	C	0.135177	-0.862233	0.695285
C54	C	0.092939	-0.820238	0.656974
C55	C	0.050706	-0.778233	0.695313
C56	C	0.050706	-0.778236	0.771957
N57	N	0.031779	-0.818556	0.536644
N58	N	0.031781	-0.818557	0.463836
C59	C	0.092939	-0.820225	0.426051
N60	N	0.154095	-0.821905	0.463825
N61	N	0.154092	-0.821908	0.536640
C62	C	0.092935	-0.820229	0.573867
C63	C	0.135180	-0.862215	0.304614
C64	C	0.135189	-0.862203	0.227967
C65	C	0.050711	-0.778208	0.227997
C66	C	0.050710	-0.778216	0.304642
C67	C	0.092943	-0.820223	0.342946
N68	N	0.092939	-0.820244	0.810261
H69	H	0.212662	-0.594001	-0.000048
H70	H	0.180426	-0.242737	-0.077434
H71	H	0.016325	-0.744010	0.196804
H72	H	0.169583	-0.896400	0.196760
Cl73	Cl	-0.002387	-0.725421	0.352831
Cl74	Cl	0.188276	-0.915021	0.352771
Cl75	Cl	-0.015873	-0.416619	0.096288
H76	H	0.003536	-0.266279	0.077386
Cl77	Cl	-0.247990	-0.679390	-0.000036
H78	H	-0.547539	-0.703086	-0.000054
H79	H	-0.018232	-0.624763	-0.000027
H80	H	0.204132	-0.015688	-0.000033
H81	H	-0.103524	-0.709594	-0.000028
Cl82	Cl	-0.002390	-0.725437	0.820146
Cl83	Cl	0.234487	-0.159407	-0.000034
H84	H	-0.578471	-0.932787	-0.000047
H85	H	0.169561	-0.896444	0.803113
Cl86	Cl	-0.730484	-0.958647	-0.000070
Cl87	Cl	-0.286475	-0.965157	-0.000024
Cl88	Cl	-0.692000	-0.672875	-0.000069
Cl89	Cl	0.188260	-0.915043	0.647089
Cl90	Cl	-0.002389	-0.725436	0.647151
Cl91	Cl	-0.048590	-0.481042	-0.000029
H92	H	-0.026767	-0.046443	-0.000033
H93	H	0.210725	-0.462574	-0.000031
Cl94	Cl	-0.052769	-0.197670	-0.000022
Cl95	Cl	0.204194	-0.387335	-0.096328
H96	H	-0.134460	-0.939297	-0.000009
