data_functionalizedCrystal
_audit_creation_method	'MofGen! by Chris Wilmer'
_symmetry_space_group_name_H-M	'P1'
_symmetry_Int_Tables_number	1
_symmetry_cell_setting	triclinic
loop_
_symmetry_equiv_pos_as_xyz
  x,y,z
_cell_length_a	12.827893
_cell_length_b	16.120444
_cell_length_c	12.827885
_cell_angle_alpha	87.135329
_cell_angle_beta	90.019081
_cell_angle_gamma	92.926457
loop_
_atom_site_label
_atom_site_type_symbol
_atom_site_fract_x
_atom_site_fract_y
_atom_site_fract_z
Zn1	Zn	1.576496	-0.331868	0.611895
Zn2	Zn	2.076496	0.168132	1.111895
Zn3	Zn	1.567494	-0.471303	0.446001
Zn4	Zn	2.067494	0.028697	0.946001
Zn5	Zn	1.401735	-0.331908	0.437172
Zn6	Zn	1.901735	0.168092	0.937172
Zn7	Zn	1.392831	-0.471241	0.620698
Zn8	Zn	1.892831	0.028759	1.120698
O9	O	1.484639	-0.401580	0.528942
O10	O	1.984639	0.098420	1.028942
O11	O	1.721537	-0.350373	0.589900
O12	O	2.221537	0.149627	1.089900
O13	O	1.545465	-0.452855	0.298596
O14	O	2.045465	0.047145	0.798596
O15	O	1.432411	-0.215237	0.452971
O16	O	1.932411	0.284763	0.952971
O17	O	1.714924	-0.452816	0.468018
O18	O	2.214924	0.047184	0.968018
O19	O	1.560808	-0.215207	0.581340
O20	O	2.060808	0.284793	1.081340
O21	O	1.423682	-0.350442	0.292110
O22	O	1.923682	0.149558	0.792110
O23	O	1.254318	-0.350382	0.461506
O24	O	1.754318	0.149618	0.961506
O25	O	1.417235	-0.452710	0.765763
O26	O	1.917235	0.047290	1.265763
O27	O	1.247776	-0.452750	0.596341
O28	O	1.747776	0.047250	1.096341
O29	O	1.552173	-0.350313	0.759296
O30	O	2.052173	0.149687	1.259296
O31	O	1.536831	-0.587961	0.476553
O32	O	2.036831	-0.087961	0.976553
O33	O	1.408506	-0.587915	0.604902
O34	O	1.908506	-0.087915	1.104902
C35	C	1.213130	-0.401564	0.528922
C36	C	1.713130	0.098436	1.028922
C37	C	1.096976	-0.401577	0.528939
C38	C	1.596976	0.098423	1.028939
C39	C	0.928413	-0.350990	0.589371
C40	C	1.428413	0.149010	1.089371
C41	C	1.048464	-0.350975	0.589355
C42	C	1.548464	0.149025	1.089355
C43	C	1.470754	-0.618188	0.542664
C44	C	1.970754	-0.118188	1.042664
C45	C	1.464909	-0.710854	0.548569
C46	C	1.964909	-0.210854	1.048569
C47	C	1.515214	-0.921799	0.498532
C48	C	2.015214	-0.421799	0.998532
C49	C	1.454258	-0.880510	0.559362
C50	C	1.954258	-0.380510	1.059362
C51	C	1.460186	-0.786105	0.553355
C52	C	1.960186	-0.286105	1.053355
C53	C	1.509287	-1.016213	0.504538
C54	C	2.009287	-0.516213	1.004538
C55	C	1.757208	-0.401597	0.528962
C56	C	2.257208	0.098403	1.028962
C57	C	1.873361	-0.401604	0.528971
C58	C	2.373361	0.098396	1.028971
C59	C	1.484715	-0.401500	0.801507
C60	C	1.984715	0.098500	1.301507
C61	C	1.484748	-0.401466	0.917658
C62	C	1.984748	0.098534	1.417658
C63	C	1.498607	-0.184126	0.515189
C64	C	1.998607	0.315874	1.015189
C65	C	1.504559	-0.091460	0.509328
C66	C	2.004559	0.408540	1.009328
C67	C	1.484627	-0.401600	0.257433
C68	C	1.984627	0.098400	0.757433
C69	C	1.484812	-0.401399	0.141268
C70	C	1.984812	0.098601	0.641268
C71	C	1.551527	-0.350787	0.966242
C72	C	2.051527	0.149213	1.466242
C73	C	1.551562	-0.350750	1.086290
C74	C	2.051562	0.149250	1.586290
H75	H	1.049652	-0.444910	0.477223
H76	H	1.549652	0.055090	0.977223
C77	C	1.377736	-0.928530	0.635805
C78	C	1.877736	-0.428530	1.135805
H79	H	1.340274	-0.890208	0.673184
H80	H	1.840274	-0.390208	1.173184
H81	H	1.330136	-0.962559	0.597908
H82	H	1.830136	-0.462559	1.097908
H83	H	1.415600	-0.962440	0.683495
H84	H	1.915600	-0.462440	1.183495
C85	C	1.591713	-0.873776	0.422081
C86	C	2.091713	-0.373776	0.922081
H87	H	1.585698	-0.815706	0.428018
H88	H	2.085698	-0.315706	0.928018
H89	H	1.661051	-0.887927	0.438307
H90	H	2.161051	-0.387927	0.938307
H91	H	1.575563	-0.888052	0.352743
H92	H	2.075563	-0.388052	0.852743
C93	C	1.628731	-0.292208	0.902380
C94	C	2.128731	0.207792	1.402380
H95	H	1.618585	-0.299922	0.830072
H96	H	2.118585	0.200078	1.330072
H97	H	1.617063	-0.236173	0.916670
H98	H	2.117063	0.263827	1.416670
H99	H	1.698186	-0.304404	0.920992
H100	H	2.198186	0.195596	1.420992
C101	C	0.872034	-0.292467	0.659256
C102	C	1.372034	0.207533	1.159256
H103	H	0.922140	-0.260716	0.697155
H104	H	1.422140	0.239284	1.197155
H105	H	0.831753	-0.256140	0.617028
H106	H	1.331753	0.243860	1.117028
H107	H	0.827437	-0.324448	0.706719
H108	H	1.327437	0.175552	1.206719
H109	H	1.608737	-0.307365	1.128084
H110	H	2.108737	0.192635	1.628084
C111	C	1.407583	-0.460031	1.084829
C112	C	1.907583	0.039969	1.584829
H113	H	1.365719	-0.491810	1.134895
H114	H	1.865719	0.008190	1.634895
H115	H	1.364123	-0.428132	1.040219
H116	H	1.864123	0.071868	1.540219
H117	H	1.445274	-0.496342	1.044561
H118	H	1.945274	0.003658	1.544561
H119	H	1.427595	-0.444822	0.964938
H120	H	1.927595	0.055178	1.464938
C121	C	1.112396	-0.292437	0.659218
C122	C	1.612396	0.207563	1.159218
H123	H	1.184696	-0.300111	0.650048
H124	H	1.684696	0.199889	1.150048
H125	H	1.098137	-0.236395	0.640514
H126	H	1.598137	0.263605	1.140514
H127	H	1.093808	-0.304703	0.730205
H128	H	1.593808	0.195297	1.230205
C129	C	0.929739	-0.460135	0.459098
C130	C	1.429739	0.039865	0.959098
H131	H	0.879632	-0.491897	0.421211
H132	H	1.379632	0.008103	0.921211
H133	H	0.974346	-0.428169	0.411639
H134	H	1.474346	0.071831	0.911639
H135	H	0.970008	-0.496465	0.501344
H136	H	1.470008	0.003535	1.001344
