data_functionalizedCrystal
_audit_creation_method	'MofGen! by Chris Wilmer'
_symmetry_space_group_name_H-M	'P1'
_symmetry_Int_Tables_number	1
_symmetry_cell_setting	triclinic
loop_
_symmetry_equiv_pos_as_xyz
  x,y,z
_cell_length_a	19.077442
_cell_length_b	19.077367
_cell_length_c	19.076919
_cell_angle_alpha	85.521998
_cell_angle_beta	90.066548
_cell_angle_gamma	89.883403
loop_
_atom_site_label
_atom_site_type_symbol
_atom_site_fract_x
_atom_site_fract_y
_atom_site_fract_z
Zn1	Zn	-0.251017	-1.072176	-0.344928
Zn2	Zn	0.082316	-0.738843	-0.011595
Zn3	Zn	0.415650	-0.405510	0.321739
Zn4	Zn	-0.363414	-1.081533	-0.222349
Zn5	Zn	-0.030081	-0.748200	0.110985
Zn6	Zn	0.303253	-0.414866	0.444318
Zn7	Zn	-0.251034	-0.959032	-0.231779
Zn8	Zn	0.082299	-0.625699	0.101555
Zn9	Zn	0.415632	-0.292365	0.434888
Zn10	Zn	-0.373189	-0.959371	-0.344505
Zn11	Zn	-0.039856	-0.626037	-0.011172
Zn12	Zn	0.293478	-0.292704	0.322161
O13	O	-0.309664	-1.018028	-0.285890
O14	O	0.023670	-0.684695	0.047443
O15	O	0.357003	-0.351361	0.380776
O16	O	-0.261829	-1.171894	-0.324898
O17	O	0.071505	-0.838561	0.008435
O18	O	0.404838	-0.505227	0.341768
O19	O	-0.344423	-1.069057	-0.125123
O20	O	-0.011089	-0.735724	0.208210
O21	O	0.322244	-0.402390	0.541543
O22	O	-0.152871	-0.969983	-0.250912
O23	O	0.180462	-0.636650	0.082422
O24	O	0.513795	-0.303316	0.415755
O25	O	-0.344406	-1.178769	-0.234840
O26	O	-0.011073	-0.845435	0.098494
O27	O	0.322261	-0.512102	0.431827
O28	O	-0.152859	-1.053110	-0.334042
O29	O	0.180475	-0.719776	-0.000709
O30	O	0.513808	-0.386443	0.332625
O31	O	-0.261858	-0.979056	-0.132051
O32	O	0.071475	-0.645723	0.201282
O33	O	0.404809	-0.312389	0.534615
O34	O	-0.271336	-0.860600	-0.250502
O35	O	0.061997	-0.527267	0.082832
O36	O	0.395330	-0.193933	0.416165
O37	O	-0.361067	-0.970560	-0.443038
O38	O	-0.027733	-0.637227	-0.109704
O39	O	0.305600	-0.303894	0.223629
O40	O	-0.361083	-0.860849	-0.333321
O41	O	-0.027750	-0.527516	0.000012
O42	O	0.305584	-0.194182	0.333345
O43	O	-0.271307	-1.053438	-0.443348
O44	O	0.062026	-0.720105	-0.110015
O45	O	0.395359	-0.386772	0.223318
O46	O	-0.462871	-1.069386	-0.234430
O47	O	-0.129538	-0.736052	0.098904
O48	O	0.203795	-0.402719	0.432237
O49	O	-0.470053	-0.979633	-0.324178
O50	O	-0.136720	-0.646300	0.009156
O51	O	0.196613	-0.312967	0.342489
C52	C	-0.317273	-0.835191	-0.292889
C53	C	0.016060	-0.501857	0.040444
C54	C	0.349394	-0.168524	0.373777
C55	C	-0.320546	-0.756972	-0.295899
C56	C	0.012788	-0.423639	0.037434
C57	C	0.346121	-0.090305	0.370767
C58	C	-0.275293	-0.720069	-0.254271
C59	C	0.058041	-0.386736	0.079063
C60	C	0.391374	-0.053402	0.412396
C61	C	-0.278374	-0.646575	-0.257098
C62	C	0.054959	-0.313241	0.076235
C63	C	0.388293	0.020092	0.409568
C64	C	-0.326705	-0.609984	-0.301559
C65	C	0.006628	-0.276651	0.031774
C66	C	0.339961	0.056682	0.365107
C67	C	-0.371964	-0.646893	-0.343190
C68	C	-0.038630	-0.313560	-0.009857
C69	C	0.294703	0.019774	0.323477
C70	C	-0.368885	-0.720386	-0.340358
C71	C	-0.035552	-0.387053	-0.007024
C72	C	0.297781	-0.053720	0.326309
C73	C	-0.340933	-0.390200	-0.314642
C74	C	-0.007600	-0.056867	0.018691
C75	C	0.325734	0.276467	0.352025
C76	C	-0.344007	-0.316701	-0.317472
C77	C	-0.010673	0.016632	0.015861
C78	C	0.322660	0.349965	0.349194
C79	C	-0.250417	-0.316388	-0.231380
C80	C	0.082916	0.016945	0.101954
C81	C	0.416249	0.350278	0.435287
C82	C	-0.247340	-0.389883	-0.228555
C83	C	0.085993	-0.056549	0.104779
C84	C	0.419326	0.276784	0.438112
C85	C	-0.292601	-0.426785	-0.270182
C86	C	0.040733	-0.093452	0.063151
C87	C	0.374066	0.239882	0.396484
N88	N	-0.329855	-0.534861	-0.304453
N89	N	0.003479	-0.201528	0.028881
N90	N	0.336812	0.131805	0.362214
N91	N	-0.289454	-0.501907	-0.267285
N92	N	0.043879	-0.168574	0.066048
N93	N	0.377212	0.164760	0.399382
C94	C	-0.491914	-1.025580	-0.278249
C95	C	-0.158581	-0.692247	0.055084
C96	C	0.174753	-0.358913	0.388418
C97	C	-0.569880	-1.028874	-0.275001
C98	C	-0.236547	-0.695541	0.058332
C99	C	0.096787	-0.362208	0.391665
C100	C	-1.008340	-1.052454	-0.251688
C101	C	-0.675006	-0.719120	0.081646
C102	C	-0.341673	-0.385787	0.414979
C103	C	-0.935083	-1.049352	-0.254741
C104	C	-0.601749	-0.716019	0.078592
C105	C	-0.268416	-0.382685	0.411925
C106	C	-0.902221	-1.001042	-0.302962
C107	C	-0.568888	-0.667708	0.030372
C108	C	-0.235555	-0.334375	0.363705
C109	C	-0.942621	-0.955825	-0.348127
C110	C	-0.609287	-0.622492	-0.014794
C111	C	-0.275954	-0.289158	0.318540
C112	C	-1.015876	-0.958924	-0.345070
C113	C	-0.682543	-0.625590	-0.011736
C114	C	-0.349210	-0.292257	0.321597
C115	C	-0.683535	-0.986757	-0.317109
C116	C	-0.350202	-0.653423	0.016224
C117	C	-0.016868	-0.320090	0.349558
C118	C	-0.610274	-0.983663	-0.320164
C119	C	-0.276941	-0.650329	0.013169
C120	C	0.056393	-0.316996	0.346502
C121	C	-0.602741	-1.077189	-0.226777
C122	C	-0.269408	-0.743856	0.106556
C123	C	0.063926	-0.410523	0.439889
C124	C	-0.675998	-1.080287	-0.223727
C125	C	-0.342665	-0.746953	0.109606
C126	C	-0.009332	-0.413620	0.442939
C127	C	-0.716391	-1.035068	-0.268890
C128	C	-0.383058	-0.701734	0.064443
C129	C	-0.049725	-0.368401	0.397777
N130	N	-0.827341	-0.997872	-0.306085
N131	N	-0.494008	-0.664538	0.027248
N132	N	-0.160674	-0.331205	0.360581
N133	N	-0.791270	-1.038235	-0.265762
N134	N	-0.457937	-0.704901	0.067571
N135	N	-0.124603	-0.371568	0.400904
C136	C	-0.126701	-1.010465	-0.293576
C137	C	0.206632	-0.677132	0.039757
C138	C	0.539965	-0.343798	0.373091
C139	C	-0.048734	-1.007242	-0.296851
C140	C	0.284600	-0.673909	0.036482
C141	C	0.617933	-0.340575	0.369816
C142	C	-0.317275	-1.010993	-0.469441
C143	C	0.016058	-0.677660	-0.136107
C144	C	0.349391	-0.344327	0.197226
C145	C	-0.320519	-1.007996	-0.547659
C146	C	0.012814	-0.674662	-0.214326
C147	C	0.346148	-0.341329	0.119008
C148	C	-0.302021	-0.201579	-0.278858
C149	C	0.031312	0.131754	0.054476
C150	C	0.364646	0.465087	0.387809
C151	C	-0.298753	-0.279798	-0.275844
C152	C	0.034580	0.053535	0.057490
C153	C	0.367913	0.386868	0.390823
C154	C	-0.275312	-1.049735	-0.584569
C155	C	0.058021	-0.716402	-0.251236
C156	C	0.391354	-0.383068	0.082098
C157	C	-0.278358	-1.046910	-0.658064
C158	C	0.054976	-0.713576	-0.324731
C159	C	0.388309	-0.380243	0.008603
C160	C	-0.326614	-1.002348	-0.694647
C161	C	0.006719	-0.669015	-0.361314
C162	C	0.340053	-0.335681	-0.027980
C163	C	-0.371823	-0.960604	-0.657732
C164	C	-0.038489	-0.627271	-0.324399
C165	C	0.294844	-0.293937	0.008935
C166	C	-0.368773	-0.963426	-0.584239
C167	C	-0.035440	-0.630093	-0.250906
C168	C	0.297893	-0.296759	0.082428
C169	C	-0.340742	-0.989277	-0.914431
C170	C	-0.007408	-0.655944	-0.581098
C171	C	0.325925	-0.322611	-0.247765
C172	C	-0.343789	-0.986460	-0.987929
C173	C	-0.010456	-0.653127	-0.654596
C174	C	0.322878	-0.319793	-0.321263
C175	C	-0.250323	-1.072765	-0.988256
C176	C	0.083011	-0.739432	-0.654923
C177	C	0.416344	-0.406098	-0.321590
C178	C	-0.247281	-1.075586	-0.914761
C179	C	0.086053	-0.742253	-0.581428
C180	C	0.419386	-0.408920	-0.248095
C181	C	-0.292487	-1.033840	-0.877853
C182	C	0.040847	-0.700506	-0.544520
C183	C	0.374180	-0.367173	-0.211186
N184	N	-0.329729	-0.999461	-0.769771
N185	N	0.003604	-0.666127	-0.436437
N186	N	0.336937	-0.332794	-0.103104
N187	N	-0.289367	-1.036724	-0.802731
N188	N	0.043966	-0.703390	-0.469398
N189	N	0.377299	-0.370057	-0.136065
C190	C	-0.302029	-1.025074	-0.103054
C191	C	0.031304	-0.691740	0.230279
C192	C	0.364638	-0.358407	0.563612
C193	C	-0.298582	-1.028199	-0.024839
C194	C	0.034751	-0.694866	0.308494
C195	C	0.368084	-0.361533	0.641827
H196	H	-0.235930	-0.749855	-0.218071
H197	H	0.097403	-0.416522	0.115262
H198	H	0.430736	-0.083188	0.448595
Br199	Br	-0.217034	-1.103593	-0.708151
Br200	Br	0.116299	-0.770260	-0.374818
Br201	Br	0.449633	-0.436926	-0.041484
Br202	Br	-0.409600	-0.267043	-0.377820
Br203	Br	-0.076267	0.066290	-0.044487
Br204	Br	0.257067	0.399624	0.288846
H205	H	-0.383087	-0.950170	-1.017713
H206	H	-0.049753	-0.616837	-0.684380
H207	H	0.283580	-0.283504	-0.351047
Br208	Br	-0.565677	-0.918096	-0.385613
Br209	Br	-0.232343	-0.584763	-0.052279
Br210	Br	0.100990	-0.251429	0.281054
H211	H	-1.048765	-0.922111	-0.381850
H212	H	-0.715431	-0.588778	-0.048517
H213	H	-0.382098	-0.255444	0.284817
Br214	Br	-0.188996	-0.266303	-0.174888
Br215	Br	0.144337	0.067030	0.158446
Br216	Br	0.477670	0.400363	0.491779
H217	H	-0.207987	-1.111875	-0.884980
H218	H	0.125346	-0.778542	-0.551647
H219	H	0.458680	-0.445208	-0.218314
Br220	Br	-0.216954	-0.596494	-0.200602
Br221	Br	0.116380	-0.263161	0.132731
Br222	Br	0.449713	0.070173	0.466065
Br223	Br	-0.188974	-1.129417	-1.038350
Br224	Br	0.144360	-0.796084	-0.705016
Br225	Br	0.477693	-0.462750	-0.371683
Br226	Br	-0.738345	-0.925399	-0.378413
Br227	Br	-0.405012	-0.592066	-0.045080
Br228	Br	-0.071678	-0.258732	0.288254
H229	H	-0.411319	-0.617096	-0.379388
H230	H	-0.077986	-0.283762	-0.046054
H231	H	0.255347	0.049571	0.287279
Br232	Br	-0.209823	-1.110220	-0.534927
Br233	Br	0.123510	-0.776887	-0.201594
Br234	Br	0.456843	-0.443554	0.131740
H235	H	-0.377562	-0.955295	-0.884388
H236	H	-0.044228	-0.621962	-0.551055
H237	H	0.289105	-0.288628	-0.217722
H238	H	-0.207988	-0.419670	-0.192345
H239	H	0.125345	-0.086337	0.140989
H240	H	0.458678	0.246997	0.474322
H241	H	-0.411111	-0.924318	-0.687524
H242	H	-0.077778	-0.590985	-0.354191
H243	H	0.255555	-0.257652	-0.020858
H244	H	-0.377787	-0.420237	-0.348538
H245	H	-0.044454	-0.086904	-0.015205
H246	H	0.288879	0.246430	0.318128
H247	H	-0.702749	-1.119625	-0.184460
H248	H	-0.369415	-0.786291	0.148874
H249	H	-0.036082	-0.452958	0.482207
Br250	Br	-0.430307	-0.770471	-0.396851
Br251	Br	-0.096974	-0.437137	-0.063518
Br252	Br	0.236359	-0.103804	0.269815
Br253	Br	-0.430124	-0.906773	-0.534146
Br254	Br	-0.096790	-0.573440	-0.200813
Br255	Br	0.236543	-0.240106	0.132521
Br256	Br	-1.052930	-1.118026	-0.186247
Br257	Br	-0.719596	-0.784693	0.147086
Br258	Br	-0.386263	-0.451359	0.480419
H259	H	-0.569846	-1.114004	-0.190007
H260	H	-0.236513	-0.780670	0.143326
H261	H	0.096820	-0.447337	0.476659
Br262	Br	-0.880264	-1.110720	-0.193452
Br263	Br	-0.546931	-0.777387	0.139881
Br264	Br	-0.213598	-0.444054	0.473215
Br265	Br	-0.898024	-0.890259	-0.413569
Br266	Br	-0.564691	-0.556925	-0.080235
Br267	Br	-0.231357	-0.223592	0.253098
