data_functionalizedCrystal
_audit_creation_method	'MofGen! by Chris Wilmer'
_symmetry_space_group_name_H-M	'P1'
_symmetry_Int_Tables_number	1
_symmetry_cell_setting	triclinic
loop_
_symmetry_equiv_pos_as_xyz
  x,y,z
_cell_length_a	21.395362
_cell_length_b	16.625546
_cell_length_c	21.395356
_cell_angle_alpha	89.972354
_cell_angle_beta	89.957023
_cell_angle_gamma	90.038346
loop_
_atom_site_label
_atom_site_type_symbol
_atom_site_fract_x
_atom_site_fract_y
_atom_site_fract_z
Zn1	Zn	0.957889	-0.320680	-0.354586
Zn2	Zn	0.957809	-0.455517	-0.249808
Zn3	Zn	0.853106	-0.320739	-0.249787
Zn4	Zn	0.853089	-0.455512	-0.354513
O5	O	0.905473	-0.388112	-0.302174
O6	O	1.045557	-0.338544	-0.340726
O7	O	0.943893	-0.437665	-0.162128
O8	O	0.867047	-0.207899	-0.263710
O9	O	1.045497	-0.437608	-0.263747
O10	O	0.944031	-0.207856	-0.340706
O11	O	0.866969	-0.338645	-0.162112
O12	O	0.765426	-0.338640	-0.263640
O13	O	0.867017	-0.437599	-0.442201
O14	O	0.765413	-0.437657	-0.340582
O15	O	0.944014	-0.338539	-0.442254
O16	O	0.943876	-0.568349	-0.263676
O17	O	0.866939	-0.568345	-0.340602
C18	C	0.742686	-0.388155	-0.302101
C19	C	0.673044	-0.388192	-0.302085
C20	C	0.905414	-0.597603	-0.302147
C21	C	0.905446	-0.687224	-0.302157
C22	C	0.640341	-0.439819	-0.342088
C23	C	0.574905	-0.439799	-0.342116
C24	C	0.542176	-0.388161	-0.302129
C25	C	0.574887	-0.336525	-0.262123
C26	C	0.640321	-0.336540	-0.262101
C27	C	0.438451	-0.381677	-0.245724
C28	C	0.373019	-0.381668	-0.245745
C29	C	0.340355	-0.388109	-0.302198
C30	C	0.373133	-0.394577	-0.358632
C31	C	0.438567	-0.394592	-0.358610
C32	C	0.471224	-0.388138	-0.302149
C33	C	0.236699	-0.439716	-0.342236
C34	C	0.171263	-0.439691	-0.342265
C35	C	0.171246	-0.336421	-0.262266
C36	C	0.236681	-0.336442	-0.262242
C37	C	0.269404	-0.388094	-0.302227
C38	C	0.905555	-1.015400	-0.302222
C39	C	0.905523	-0.924091	-0.302206
C40	C	0.905500	-0.851315	-0.302189
C41	C	0.905469	-0.760001	-0.302174
C42	C	1.068897	-0.388070	-0.302247
C43	C	1.138538	-0.388052	-0.302278
C44	C	0.905522	-0.388062	-0.465597
C45	C	0.905544	-0.388041	-0.535238
C46	C	0.905550	-0.177803	-0.302214
C47	C	0.905582	-0.088182	-0.302231
C48	C	0.865500	-0.336475	-0.567933
C49	C	0.865497	-0.336460	-0.633369
C50	C	0.905550	-0.388002	-0.666107
C51	C	0.945597	-0.439578	-0.633404
C52	C	0.945594	-0.439597	-0.567969
C53	C	0.962003	-0.394322	-0.769812
C54	C	0.962008	-0.394297	-0.835245
C55	C	0.905561	-0.387948	-0.867927
C56	C	0.849108	-0.381607	-0.835169
C57	C	0.849104	-0.381626	-0.769735
C58	C	0.905558	-0.387988	-0.737059
C59	C	0.865511	-0.336363	-0.971575
C60	C	0.865508	-0.336354	-1.037012
C61	C	0.945613	-0.439468	-1.037045
C62	C	0.945611	-0.439481	-0.971610
C63	C	0.905561	-0.387925	-0.938879
C64	C	0.905460	-0.388104	-0.139386
C65	C	0.905561	-0.387898	-0.069745
H66	H	0.666980	-0.481877	-0.374647
C67	C	0.787007	-0.374660	-0.733703
N68	N	0.740233	-0.369417	-0.706564
H69	H	0.263344	-0.481770	-0.374796
C70	C	0.272656	-0.279656	-0.218229
N71	N	0.299753	-0.236881	-0.185077
H72	H	1.007975	-0.399456	-0.861912
H73	H	0.346336	-0.376406	-0.199794
C74	C	0.989660	-0.496310	-0.532004
N75	N	1.022857	-0.539020	-0.504913
H76	H	0.465040	-0.376429	-0.199750
H77	H	1.007973	-0.399485	-0.743207
C78	C	0.538924	-0.496597	-0.386123
N79	N	0.511825	-0.539379	-0.419268
C80	C	0.538884	-0.279723	-0.218137
N81	N	0.511766	-0.236937	-0.185007
C82	C	0.989570	-0.496385	-0.669416
N83	N	1.022660	-0.539214	-0.696541
H84	H	0.666948	-0.294498	-0.229525
H85	H	0.465252	-0.399856	-0.404560
H86	H	0.832885	-0.294497	-0.541288
H87	H	0.346540	-0.399820	-0.404602
H88	H	0.832890	-0.294465	-0.659994
H89	H	0.144598	-0.294373	-0.229711
C90	C	0.135289	-0.496494	-0.386269
N91	N	0.108193	-0.539283	-0.419411
C92	C	0.821449	-0.279659	-0.935569
N93	N	0.788260	-0.236950	-0.908450
C94	C	0.787010	-0.374631	-0.871115
N95	N	0.740240	-0.369378	-0.898192
H96	H	0.832895	-0.294365	-1.063631
H97	H	0.978226	-0.481433	-1.063700
H98	H	0.978220	-0.481470	-0.944989
