data_functionalizedCrystal
_audit_creation_method	'MofGen! by Chris Wilmer'
_symmetry_space_group_name_H-M	'P1'
_symmetry_Int_Tables_number	1
_symmetry_cell_setting	triclinic
loop_
_symmetry_equiv_pos_as_xyz
  x,y,z
_cell_length_a	23.532407
_cell_length_b	23.532407
_cell_length_c	12.376457
_cell_angle_alpha	101.199798
_cell_angle_beta	78.781502
_cell_angle_gamma	82.848712
loop_
_atom_site_label
_atom_site_type_symbol
_atom_site_fract_x
_atom_site_fract_y
_atom_site_fract_z
O1	O	0.766236	0.058165	-0.093942
O2	O	1.099569	0.391498	0.239391
O3	O	1.432903	0.724831	0.572724
O4	O	0.600375	0.068165	-0.093962
O5	O	0.933708	0.401499	0.239372
O6	O	1.267041	0.734832	0.572705
O7	O	0.688304	-0.019764	-0.093931
O8	O	1.021638	0.313569	0.239403
O9	O	1.354971	0.646903	0.572736
O10	O	0.678306	0.146094	-0.093973
O11	O	1.011640	0.479428	0.239360
O12	O	1.344973	0.812761	0.572693
O13	O	0.666330	0.002188	0.094074
O14	O	0.999663	0.335522	0.427407
O15	O	1.332997	0.668855	0.760740
O16	O	0.578400	0.090118	0.094043
O17	O	0.911734	0.423451	0.427376
O18	O	1.245067	0.756785	0.760709
O19	O	0.744261	0.080117	0.094062
O20	O	1.077595	0.413451	0.427396
O21	O	1.410928	0.746784	0.760729
Zn22	Zn	0.657842	0.088603	0.123902
Zn23	Zn	0.991175	0.421936	0.457236
Zn24	Zn	1.324509	0.755270	0.790569
Zn25	Zn	0.686794	0.059680	-0.123802
Zn26	Zn	1.020128	0.393013	0.209532
Zn27	Zn	1.353461	0.726346	0.542865
O28	O	0.656332	0.168047	0.094031
O29	O	0.989665	0.501380	0.427365
O30	O	1.322998	0.834714	0.760698
C31	C	0.568172	0.078887	0.000038
C32	C	0.901505	0.412220	0.333372
C33	C	1.234838	0.745553	0.666705
C34	C	0.504956	0.078120	0.000032
C35	C	0.838289	0.411453	0.333365
C36	C	1.171622	0.744787	0.666698
C37	C	0.238783	0.022930	0.000077
C38	C	0.572116	0.356263	0.333410
C39	C	0.905450	0.689597	0.666743
C40	C	0.298183	0.023641	0.000076
C41	C	0.631516	0.356975	0.333410
C42	C	0.964850	0.690308	0.666743
O43	O	0.334922	-0.020139	0.000127
O44	O	0.668255	0.313195	0.333460
O45	O	1.001588	0.646528	0.666793
N46	N	0.320812	0.075915	0.000055
N47	N	0.654145	0.409249	0.333388
N48	N	0.987478	0.742582	0.666722
C49	C	0.284035	0.127482	0.000046
C50	C	0.617369	0.460816	0.333379
C51	C	0.950702	0.794149	0.666713
O52	O	0.308737	0.172011	0.000029
O53	O	0.642070	0.505344	0.333362
O54	O	0.975404	0.838677	0.666696
C55	C	0.224635	0.126771	0.000055
C56	C	0.557969	0.460105	0.333388
C57	C	0.891302	0.793438	0.666721
C58	C	0.202011	0.074493	0.000064
C59	C	0.535345	0.407826	0.333398
C60	C	0.868678	0.741159	0.666731
C61	C	0.216158	-0.029344	0.000088
C62	C	0.549492	0.303989	0.333421
C63	C	0.882825	0.637322	0.666754
C64	C	0.156762	-0.030056	0.000086
C65	C	0.490096	0.303278	0.333419
C66	C	0.823429	0.636611	0.666753
C67	C	0.119991	0.021507	0.000073
C68	C	0.453324	0.354841	0.333407
C69	C	0.786658	0.688174	0.666740
C70	C	0.142615	0.073781	0.000063
C71	C	0.475949	0.407115	0.333396
C72	C	0.809282	0.740448	0.666729
C73	C	0.187859	0.178339	0.000054
C74	C	0.521192	0.511672	0.333387
C75	C	0.854526	0.845005	0.666720
C76	C	0.128455	0.177623	0.000063
C77	C	0.461789	0.510957	0.333396
C78	C	0.795122	0.844290	0.666730
C79	C	0.105832	0.125345	0.000073
C80	C	0.439165	0.458678	0.333406
C81	C	0.772498	0.792011	0.666739
C82	C	0.046448	0.124633	0.000048
C83	C	0.379781	0.457966	0.333382
C84	C	0.713115	0.791299	0.666715
N85	N	0.023819	0.072359	0.000070
N86	N	0.357153	0.405692	0.333403
N87	N	0.690486	0.739026	0.666736
C88	C	0.060591	0.020796	0.000082
C89	C	0.393924	0.354129	0.333415
C90	C	0.727257	0.687463	0.666749
C91	C	0.408780	0.128972	0.000030
C92	C	0.742113	0.462305	0.333363
C93	C	1.075446	0.795639	0.666697
C94	C	0.468180	0.129683	0.000013
C95	C	0.801513	0.463016	0.333347
C96	C	1.134846	0.796349	0.666680
C97	C	0.482323	0.025842	0.000046
C98	C	0.815656	0.359175	0.333379
C99	C	1.148990	0.692508	0.666712
C100	C	0.422923	0.025130	0.000054
C101	C	0.756256	0.358464	0.333388
C102	C	1.089590	0.691797	0.666721
C103	C	0.386151	0.076698	0.000051
C104	C	0.719484	0.410031	0.333384
C105	C	1.052818	0.743365	0.666718
C106	C	-0.064145	0.019306	0.000078
C107	C	0.269188	0.352639	0.333411
C108	C	0.602521	0.685973	0.666744
C109	C	-0.123547	0.018599	0.000071
C110	C	0.209787	0.351932	0.333405
C111	C	0.543120	0.685265	0.666738
C112	C	-0.137686	0.122440	0.000045
C113	C	0.195648	0.455773	0.333378
C114	C	0.528981	0.789107	0.666712
C115	C	-0.078289	0.123147	0.000045
C116	C	0.255044	0.456480	0.333379
C117	C	0.588378	0.789814	0.666712
C118	C	-0.041520	0.071576	0.000065
C119	C	0.291813	0.404909	0.333399
C120	C	0.625147	0.738242	0.666732
O121	O	0.009674	0.168390	0.000003
O122	O	0.343008	0.501724	0.333336
O123	O	0.676341	0.835057	0.666669
O124	O	0.035879	-0.023723	0.000114
O125	O	0.369212	0.309610	0.333447
O126	O	0.702546	0.642943	0.666781
C127	C	0.677062	-0.030004	0.000074
C128	C	1.010396	0.303330	0.333408
C129	C	1.343729	0.636663	0.666741
C130	C	0.676295	-0.093220	0.000083
C131	C	1.009629	0.240114	0.333416
C132	C	1.342962	0.573447	0.666750
C133	C	0.723535	-0.492329	0.000027
C134	C	1.056869	-0.158996	0.333360
C135	C	1.390202	0.174337	0.666693
C136	C	0.722825	-0.551730	0.000018
C137	C	1.056158	-0.218397	0.333351
C138	C	1.389492	0.114936	0.666685
O139	O	0.766615	-0.588479	-0.000019
O140	O	1.099948	-0.255146	0.333315
O141	O	1.433282	0.078187	0.666648
N142	N	0.670549	-0.574357	0.000013
N143	N	1.003883	-0.241024	0.333346
N144	N	1.337216	0.092309	0.666679
C145	C	0.618982	-0.537581	0.000004
C146	C	0.952315	-0.204247	0.333338
C147	C	1.285649	0.129086	0.666671
O148	O	0.574452	-0.562281	-0.000002
O149	O	0.907786	-0.228948	0.333331
O150	O	1.241119	0.104386	0.666665
C151	C	0.619694	-0.478182	0.000005
C152	C	0.953027	-0.144848	0.333338
C153	C	1.286361	0.188485	0.666672
C154	C	0.671972	-0.455557	0.000022
C155	C	1.005305	-0.122224	0.333355
C156	C	1.338638	0.211110	0.666689
C157	C	0.775809	-0.469704	0.000042
C158	C	1.109142	-0.136371	0.333375
C159	C	1.442476	0.196963	0.666709
C160	C	0.776519	-0.410307	0.000053
C161	C	1.109852	-0.076973	0.333386
C162	C	1.443186	0.256360	0.666720
C163	C	0.724955	-0.373534	0.000048
C164	C	1.058289	-0.040201	0.333381
C165	C	1.391622	0.293132	0.666715
C166	C	0.672682	-0.396160	0.000033
C167	C	1.006015	-0.062826	0.333366
C168	C	1.339348	0.270507	0.666699
C169	C	0.568128	-0.441407	-0.000011
C170	C	0.901462	-0.108074	0.333322
C171	C	1.234795	0.225260	0.666655
C172	C	0.568845	-0.382005	-0.000011
C173	C	0.902178	-0.048671	0.333322
C174	C	1.235512	0.284662	0.666655
C175	C	0.621123	-0.359380	0.000005
C176	C	0.954456	-0.026047	0.333339
C177	C	1.287789	0.307287	0.666672
C178	C	0.621828	-0.299990	0.000039
C179	C	0.955161	0.033344	0.333372
C180	C	1.288495	0.366677	0.666705
N181	N	0.674104	-0.277363	0.000044
N182	N	1.007437	0.055970	0.333377
N183	N	1.340770	0.389304	0.666711
C184	C	0.725667	-0.314135	0.000049
C185	C	1.059001	0.019198	0.333382
C186	C	1.392334	0.352531	0.666715
C187	C	0.617491	-0.662324	0.000001
C188	C	0.950824	-0.328990	0.333335
C189	C	1.284158	0.004343	0.666668
C190	C	0.616777	-0.721721	0.000009
C191	C	0.950111	-0.388387	0.333342
C192	C	1.283444	-0.055054	0.666675
C193	C	0.720621	-0.735867	0.000020
C194	C	1.053954	-0.402533	0.333353
C195	C	1.387287	-0.069200	0.666687
C196	C	0.721333	-0.676467	0.000021
C197	C	1.054666	-0.343134	0.333354
C198	C	1.388000	-0.009801	0.666687
C199	C	0.669767	-0.639697	0.000007
C200	C	1.003100	-0.306363	0.333340
C201	C	1.336433	0.026970	0.666673
C202	C	0.727154	-0.189396	0.000072
C203	C	1.060487	0.143938	0.333406
C204	C	1.393821	0.477271	0.666739
C205	C	0.727859	-0.129992	0.000088
C206	C	1.061192	0.203341	0.333421
C207	C	1.394526	0.536675	0.666754
C208	C	0.624017	-0.115852	0.000070
C209	C	0.957350	0.217481	0.333404
C210	C	1.290683	0.550815	0.666737
C211	C	0.623311	-0.175250	0.000061
C212	C	0.956644	0.158084	0.333394
C213	C	1.289977	0.491417	0.666728
C214	C	0.674885	-0.212021	0.000058
C215	C	1.008218	0.121312	0.333391
C216	C	1.341551	0.454645	0.666725
O217	O	0.578061	-0.263207	0.000071
O218	O	0.911395	0.070126	0.333404
O219	O	1.244728	0.403460	0.666737
O220	O	0.770191	-0.289428	0.000040
O221	O	1.103525	0.043905	0.333374
O222	O	1.436858	0.377238	0.666707
C223	C	0.776465	0.069396	0.000060
C224	C	1.109798	0.402729	0.333393
C225	C	1.443131	0.736062	0.666726
C226	C	0.839682	0.070161	0.000059
C227	C	1.173015	0.403495	0.333392
C228	C	1.506349	0.736828	0.666725
C229	C	0.667574	0.178286	0.000024
C230	C	1.000908	0.511619	0.333357
C231	C	1.334241	0.844953	0.666690
C232	C	0.668342	0.241501	0.000008
C233	C	1.001675	0.574834	0.333341
C234	C	1.335009	0.908168	0.666674
N235	N	0.638087	0.108342	0.292954
N236	N	0.971420	0.441676	0.626287
N237	N	1.304754	0.775009	0.959620
N238	N	0.706554	0.039936	-0.292853
N239	N	1.039887	0.373269	0.040480
N240	N	1.373221	0.706603	0.373814
C241	C	0.752412	-0.005896	0.647979
C242	C	1.085745	0.327437	0.981312
C243	C	1.419078	0.660771	1.314646
C244	C	0.766235	-0.019712	0.529644
C245	C	1.099568	0.313622	0.862977
C246	C	1.432902	0.646955	1.196311
C247	C	0.734199	0.012301	0.470466
C248	C	1.067532	0.345634	0.803799
C249	C	1.400866	0.678967	1.137132
C250	C	0.688338	0.058131	0.529634
C251	C	1.021671	0.391464	0.862967
C252	C	1.355004	0.724797	1.196300
C253	C	0.674516	0.071951	0.647980
C254	C	1.007849	0.405284	0.981314
C255	C	1.341182	0.738617	1.314647
C256	C	0.656303	0.090147	0.470467
C257	C	0.989637	0.423481	0.803800
C258	C	1.322970	0.756814	1.137134
C259	C	0.610442	0.135978	0.529635
C260	C	0.943775	0.469311	0.862968
C261	C	1.277108	0.802644	1.196302
C262	C	0.596622	0.149795	0.647970
C263	C	0.929955	0.483128	0.981303
C264	C	1.263289	0.816462	1.314637
C265	C	0.628658	0.117783	0.707148
C266	C	0.961991	0.451116	1.040482
C267	C	1.295325	0.784449	1.373815
C268	C	0.670125	0.076327	0.352120
C269	C	1.003458	0.409661	0.685454
C270	C	1.336792	0.742994	1.018787
C271	C	0.592229	0.154174	0.352122
C272	C	0.925562	0.487508	0.685455
C273	C	1.258896	0.820841	1.018788
C274	C	0.578406	0.167990	0.470457
C275	C	0.911739	0.501323	0.803790
C276	C	1.245072	0.834656	1.137123
H277	H	0.404507	-0.017439	0.000063
H278	H	0.737841	0.315894	0.333396
H279	H	1.071174	0.649227	0.666730
F280	F	0.547818	0.198577	0.710942
F281	F	0.881151	0.531910	1.044275
F282	F	1.214485	0.865244	1.377608
F283	F	0.561134	-0.745790	0.000011
F284	F	0.894467	-0.412457	0.333345
F285	F	1.227801	-0.079124	0.666678
H286	H	0.778494	-0.031953	0.696170
H287	H	1.111828	0.301380	1.029503
H288	H	1.445161	0.634713	1.362836
F289	F	0.613944	0.132484	0.833096
F290	F	0.947277	0.465818	1.166429
F291	F	1.280610	0.799151	1.499763
F292	F	-0.025021	-0.035582	0.000099
F293	F	0.308312	0.297751	0.333432
F294	F	0.641645	0.631085	0.666765
F295	F	0.132693	-0.085699	0.000088
F296	F	0.466027	0.247634	0.333421
F297	F	0.799360	0.580968	0.666754
H298	H	0.803575	-0.057026	0.481474
H299	H	1.136909	0.276308	0.814807
H300	H	1.470242	0.609641	1.148140
F301	F	0.529598	0.216765	0.533440
F302	F	0.862931	0.550098	0.866774
F303	F	1.196264	0.883432	1.200107
H304	H	-0.059868	0.165716	0.000036
H305	H	0.273466	0.499050	0.333370
H306	H	0.606799	0.832383	0.666703
F307	F	0.558134	0.188248	0.289145
F308	F	0.891467	0.521581	0.622478
F309	F	1.224800	0.854915	0.955811
H310	H	-0.141963	-0.023975	0.000076
H311	H	0.191370	0.309358	0.333410
H312	H	0.524704	0.642692	0.666743
F313	F	0.562602	-0.623192	-0.000003
F314	F	0.895935	-0.289859	0.333330
F315	F	1.229269	0.043474	0.666663
F316	F	0.255285	-0.084229	0.000104
F317	F	0.588618	0.249104	0.333437
F318	F	0.921952	0.582437	0.666771
H319	H	0.745456	0.001050	0.374112
H320	H	1.078789	0.334383	0.707445
H321	H	1.412123	0.667716	1.040778
H322	H	0.512274	-0.016144	0.000056
H323	H	0.845607	0.317190	0.333389
H324	H	1.178940	0.650523	0.666723
H325	H	0.486596	0.172251	-0.000010
H326	H	0.819929	0.505584	0.333323
H327	H	1.153263	0.838918	0.666656
H328	H	0.526852	-0.352068	-0.000025
H329	H	0.860186	-0.018735	0.333309
H330	H	1.193519	0.314599	0.666642
H331	H	0.206269	0.220909	0.000041
H332	H	0.539602	0.554242	0.333374
H333	H	0.872936	0.887576	0.666707
H334	H	0.378843	0.170966	0.000019
H335	H	0.712177	0.504299	0.333352
H336	H	1.045510	0.837633	0.666686
H337	H	-0.167635	0.164420	0.000029
H338	H	0.165698	0.497754	0.333362
H339	H	0.499032	0.831087	0.666696
H340	H	0.769151	-0.219329	0.000066
H341	H	1.102484	0.114004	0.333399
H342	H	1.435818	0.447337	0.666732
H343	H	0.098517	0.219618	0.000066
H344	H	0.431850	0.552951	0.333399
H345	H	0.765184	0.886284	0.666732
F346	F	0.783502	-0.105917	0.000105
F347	F	1.116836	0.227416	0.333438
F348	F	1.450169	0.560749	0.666772
H349	H	0.819089	-0.391892	0.000062
H350	H	1.152423	-0.058559	0.333395
H351	H	1.485756	0.274774	0.666729
F352	F	0.569142	-0.076706	0.000066
F353	F	0.902475	0.256627	0.333399
F354	F	1.235808	0.589961	0.666732
H355	H	0.817801	-0.499640	0.000042
H356	H	1.151135	-0.166306	0.333375
H357	H	1.484468	0.167027	0.666709
F358	F	0.512487	-0.465473	-0.000034
F359	F	0.845820	-0.132140	0.333299
F360	F	1.179153	0.201194	0.666633
H361	H	0.707466	0.039012	0.303956
H362	H	1.040799	0.372346	0.637289
H363	H	1.374132	0.705679	0.970623
F364	F	0.567669	-0.199327	0.000063
F365	F	0.901002	0.134006	0.333397
F366	F	1.234336	0.467340	0.666730
H367	H	0.762607	-0.765818	0.000020
H368	H	1.095941	-0.432485	0.333353
H369	H	1.429274	-0.099152	0.666686
F370	F	0.776973	-0.652394	0.000038
F371	F	1.110307	-0.319061	0.333372
F372	F	1.443640	0.014272	0.666705
