data_functionalizedCrystal
_audit_creation_method	'MofGen! by Chris Wilmer'
_symmetry_space_group_name_H-M	'P1'
_symmetry_Int_Tables_number	1
_symmetry_cell_setting	triclinic
loop_
_symmetry_equiv_pos_as_xyz
  x,y,z
_cell_length_a	11.792241
_cell_length_b	10.654550
_cell_length_c	9.130313
_cell_angle_alpha	90.000110
_cell_angle_beta	89.996046
_cell_angle_gamma	84.339159
loop_
_atom_site_label
_atom_site_type_symbol
_atom_site_fract_x
_atom_site_fract_y
_atom_site_fract_z
O1	O	-1.507300	-0.172130	-0.121653
O2	O	-1.007300	0.327870	0.378347
O3	O	-1.177000	-0.189870	-0.121687
O4	O	-0.677000	0.310130	0.378313
O5	O	-1.349744	0.001761	-0.121664
O6	O	-0.849744	0.501761	0.378336
O7	O	-1.334556	-0.363761	-0.121676
O8	O	-0.834556	0.136239	0.378324
O9	O	-1.349742	0.001756	0.121935
O10	O	-0.849742	0.501756	0.621935
O11	O	-1.176998	-0.189875	0.121912
O12	O	-0.676998	0.310125	0.621912
O13	O	-1.507298	-0.172135	0.121946
O14	O	-1.007298	0.327865	0.621946
Cu15	Cu	-1.342148	-0.181006	0.144171
Cu16	Cu	-0.842148	0.318994	0.644171
Cu17	Cu	-1.342150	-0.180999	-0.143912
Cu18	Cu	-0.842150	0.319001	0.356088
O19	O	-1.334554	-0.363766	0.121923
O20	O	-0.834554	0.136234	0.621923
C21	C	-1.134705	-0.188758	0.000108
C22	C	-0.634705	0.311242	0.500108
C23	C	-1.008684	-0.185423	0.000095
C24	C	-0.508684	0.314577	0.500095
C25	C	-1.348628	0.048553	0.000134
C26	C	-0.848628	0.548553	0.500134
C27	C	-1.345291	0.187987	0.000128
C28	C	-0.845291	0.687987	0.500128
C29	C	-1.549592	-0.173247	0.000147
C30	C	-1.049592	0.326753	0.500147
C31	C	-1.675614	-0.176582	0.000151
C32	C	-1.175614	0.323418	0.500151
C33	C	-0.777958	-0.179290	0.000138
C34	C	-0.277958	0.320710	0.500138
C35	C	-0.906351	-0.182697	0.000114
C36	C	-0.406351	0.317303	0.500114
C37	C	-1.335670	-0.410558	0.000122
C38	C	-0.835670	0.089442	0.500122
C39	C	-1.339006	-0.549992	0.000118
C40	C	-0.839006	-0.049992	0.500118
N41	N	-1.342154	-0.181009	0.346794
N42	N	-0.842154	0.318991	0.846794
C43	C	-1.447000	0.267760	0.000143
C44	C	-0.947000	0.767760	0.500143
C45	C	-1.443858	0.398772	0.000133
C46	C	-0.943858	0.898772	0.500133
C47	C	-1.237290	0.370224	0.000099
C48	C	-0.737290	0.870224	0.500099
C49	C	-1.240433	0.239215	0.000099
C50	C	-0.740433	0.739215	0.500099
C51	C	-1.566261	0.284243	0.000169
C52	C	-1.066261	0.784243	0.500169
C53	C	-1.563120	0.415255	0.000159
C54	C	-1.063120	0.915255	0.500159
N55	N	-1.342152	-0.180986	-0.346535
N56	N	-0.842152	0.319014	0.153465
C57	C	-1.418665	-0.096184	0.423456
C58	C	-0.918665	0.403816	0.923456
C59	C	-1.418662	-0.096169	0.576793
C60	C	-0.918662	0.403831	1.076793
C61	C	-1.265633	-0.265815	0.576792
C62	C	-0.765633	0.234185	1.076792
C63	C	-1.265632	-0.265823	0.423458
C64	C	-0.765632	0.234177	0.923458
C65	C	-1.507018	0.001757	0.423458
C66	C	-1.007018	0.501757	0.923458
C67	C	-1.507015	0.001772	0.576795
C68	C	-1.007015	0.501772	1.076795
H69	H	-1.157611	0.174267	0.000066
H70	H	-0.657611	0.674267	0.500066
H71	H	-1.604238	0.248721	0.105354
H72	H	-1.104238	0.748721	0.605354
H73	H	-1.599163	0.461002	-0.105017
H74	H	-1.099163	0.961002	0.394983
H75	H	-1.589425	-0.028599	0.375907
H76	H	-1.089425	0.471401	0.875907
H77	H	-1.203321	-0.334884	0.361041
H78	H	-0.703321	0.165116	0.861041
H79	H	-1.203330	-0.334868	0.639228
H80	H	-0.703330	0.165132	1.139228
Br81	Br	-1.638010	0.485078	0.170071
Br82	Br	-1.138010	0.985078	0.670071
H83	H	-1.612910	0.255019	-0.101765
H84	H	-1.112910	0.755019	0.398235
Br85	Br	-1.461040	0.153671	0.656059
Br86	Br	-0.961040	0.653671	1.156059
Br87	Br	-1.474722	0.162554	0.354075
Br88	Br	-0.974722	0.662554	0.854075
Br89	Br	-1.652388	-0.033666	0.646187
Br90	Br	-1.152388	0.466334	1.146187
H91	H	-1.151917	0.411951	0.000073
H92	H	-0.651917	0.911951	0.500073
