data_functionalizedCrystal
_audit_creation_method	'MofGen! by Chris Wilmer'
_symmetry_space_group_name_H-M	'P1'
_symmetry_Int_Tables_number	1
_symmetry_cell_setting	triclinic
loop_
_symmetry_equiv_pos_as_xyz
  x,y,z
_cell_length_a	23.532355
_cell_length_b	27.731996
_cell_length_c	22.010155
_cell_angle_alpha	89.998256
_cell_angle_beta	89.997414
_cell_angle_gamma	82.724443
loop_
_atom_site_label
_atom_site_type_symbol
_atom_site_fract_x
_atom_site_fract_y
_atom_site_fract_z
O1	O	0.755145	0.058554	-0.050450
O2	O	0.589257	0.067071	-0.050471
O3	O	0.677369	-0.007579	-0.050447
O4	O	0.667034	0.133204	-0.050474
O5	O	0.677353	-0.007568	0.050604
O6	O	0.589241	0.067082	0.050580
O7	O	0.755129	0.058565	0.050600
Cu8	Cu	0.672184	0.062825	0.059817
Cu9	Cu	0.672203	0.062811	-0.059687
O10	O	0.667018	0.133215	0.050576
C11	C	0.568033	0.066863	0.000052
C12	C	0.504816	0.066223	0.000045
C13	C	0.112803	0.062208	0.055154
C14	C	0.053405	0.061599	0.055156
O15	O	0.022680	0.061273	0.102001
N16	N	0.023706	0.061291	0.000074
C17	C	0.053409	0.061587	-0.055015
O18	O	0.022693	0.061268	-0.101866
C19	C	0.112806	0.062192	-0.055016
C20	C	0.142501	0.062505	0.000069
C21	C	0.142498	0.062520	0.110235
C22	C	0.201892	0.063130	0.110232
C23	C	0.231591	0.063428	0.055148
C24	C	0.201895	0.063115	0.000067
C25	C	0.142509	0.062485	-0.110104
C26	C	0.201910	0.063090	-0.110101
C27	C	0.231605	0.063403	-0.055015
C28	C	0.290987	0.064022	-0.055020
N29	N	0.320686	0.064330	0.000062
C30	C	0.290988	0.064033	0.055146
C31	C	-0.071330	0.060314	-0.055007
C32	C	-0.130727	0.059713	-0.055005
C33	C	-0.130726	0.059724	0.055166
C34	C	-0.071329	0.060329	0.055164
C35	C	-0.041631	0.060623	0.000076
C36	C	0.415719	0.065314	0.055137
C37	C	0.475118	0.065926	0.055129
C38	C	0.475112	0.065912	-0.055042
C39	C	0.415719	0.065303	-0.055034
C40	C	0.386024	0.065002	0.000060
O41	O	0.321751	0.064347	-0.101841
O42	O	0.321712	0.064345	0.101990
C43	C	0.677148	-0.025581	0.000080
C44	C	0.676509	-0.079238	0.000087
C45	C	0.672494	-0.411966	-0.055026
C46	C	0.670066	-0.613628	-0.055037
O47	O	0.669735	-0.639704	-0.101883
N48	N	0.669756	-0.638839	0.000045
C49	C	0.670049	-0.613632	0.055134
O50	O	0.669723	-0.639702	0.101984
C51	C	0.672473	-0.411971	0.055144
C52	C	0.672789	-0.386762	0.000058
C53	C	0.672810	-0.386758	-0.110107
C54	C	0.673420	-0.336346	-0.110104
C55	C	0.673715	-0.311142	-0.055020
C56	C	0.673399	-0.336350	0.000062
C57	C	0.672762	-0.386764	0.110232
C58	C	0.673367	-0.336345	0.110230
C59	C	0.673683	-0.311137	0.055144
C60	C	0.674304	-0.260735	0.055149
N61	N	0.674614	-0.235523	0.000067
C62	C	0.674320	-0.260727	-0.055017
C63	C	0.668777	-0.719507	0.055124
C64	C	0.668172	-0.769922	0.055122
C65	C	0.668188	-0.769915	-0.055049
C66	C	0.668797	-0.719499	-0.055046
C67	C	0.669087	-0.694295	0.000042
C68	C	0.675602	-0.154858	-0.055006
C69	C	0.676214	-0.104442	-0.054998
C70	C	0.676195	-0.104454	0.055173
C71	C	0.675585	-0.154866	0.055165
C72	C	0.675287	-0.180067	0.000071
O73	O	0.674629	-0.234627	0.101971
O74	O	0.674633	-0.234646	-0.101860
C75	C	0.671884	-0.462378	-0.055029
C76	C	0.671569	-0.487587	0.000052
C77	C	0.671863	-0.462383	0.055136
C78	C	0.670964	-0.538002	0.000049
C79	C	0.670669	-0.563205	-0.055035
C80	C	0.670979	-0.537994	-0.110117
C81	C	0.671589	-0.487582	-0.110114
C82	C	0.671553	-0.487594	0.110218
C83	C	0.670944	-0.538006	0.110210
C84	C	0.670649	-0.563210	0.055126
C85	C	0.776353	0.058772	0.000076
C86	C	0.839570	0.059412	0.000079
C87	C	0.667238	0.151217	0.000047
C88	C	0.667877	0.204874	0.000037
N89	N	0.672175	0.062834	0.143869
N90	N	0.672216	0.062798	-0.143740
C91	C	0.711221	0.029761	0.563659
C92	C	0.711223	0.029758	0.627267
O93	O	0.744399	0.001645	0.660167
N94	N	0.672202	0.062801	0.659076
C95	C	0.633172	0.095847	0.627275
O96	O	0.599982	0.123952	0.660172
C97	C	0.633168	0.095848	0.563668
C98	C	0.672195	0.062805	0.531862
C99	C	0.750244	-0.003279	0.531853
C100	C	0.750242	-0.003275	0.468250
C101	C	0.711216	0.029769	0.436453
C102	C	0.672193	0.062809	0.468259
C103	C	0.594135	0.128891	0.531868
C104	C	0.594133	0.128888	0.468257
C105	C	0.633161	0.095846	0.436451
C106	C	0.633165	0.095857	0.372859
N107	N	0.672186	0.062814	0.341049
C108	C	0.711211	0.029770	0.372846
C109	C	0.633185	0.095842	0.760852
C110	C	0.633192	0.095845	0.824458
C111	C	0.711242	0.029755	0.824445
C112	C	0.711238	0.029755	0.760839
C113	C	0.672206	0.062799	0.729043
C114	C	0.711204	0.029781	0.239275
C115	C	0.711200	0.029789	0.175666
C116	C	0.633148	0.095877	0.175684
C117	C	0.633154	0.095871	0.239287
C118	C	0.672184	0.062819	0.271081
O119	O	0.600005	0.123955	0.339918
O120	O	0.744391	0.001665	0.339941
H121	H	-0.047155	0.060584	0.100020
H122	H	0.499303	0.066156	-0.099890
H123	H	0.601402	0.122755	0.734967
N124	N	0.593286	0.129636	0.143206
N125	N	0.593655	0.174314	0.150306
H126	H	0.565500	0.198155	0.127367
H127	H	0.226087	0.063329	-0.154962
N128	N	0.672505	-0.412490	-0.166385
N129	N	0.672785	-0.389967	-0.215555
H130	H	0.672573	-0.408137	-0.255306
H131	H	0.669054	-0.698978	-0.099902
N132	N	0.675296	-0.180603	-0.111276
N133	N	0.634799	-0.204076	-0.123583
H134	H	0.634586	-0.222260	-0.163323
N135	N	0.676541	-0.078701	-0.111275
N136	N	0.676278	-0.101214	-0.160452
H137	H	0.676509	-0.083037	-0.200197
N138	N	0.593285	0.129616	0.271783
N139	N	0.558074	0.114428	0.307272
H140	H	0.529912	0.138257	0.330220
H141	H	0.673594	-0.315826	0.155090
H142	H	0.673675	-0.315826	-0.154960
H143	H	0.667949	-0.790444	-0.099901
N144	N	0.751096	-0.004015	0.856925
N145	N	0.750710	-0.048691	0.849815
H146	H	0.778854	-0.072542	0.872753
N147	N	0.593331	0.129607	0.856934
N148	N	0.558494	0.159108	0.828528
H149	H	0.530338	0.182953	0.851462
N150	N	0.669089	-0.693767	0.111399
N151	N	0.709589	-0.670296	0.123700
H152	H	0.709813	-0.652120	0.163444
H153	H	0.671794	-0.467079	0.155075
N154	N	0.751058	-0.003976	0.143183
N155	N	0.750673	-0.048652	0.150289
H156	H	0.778818	-0.072501	0.127349
H157	H	0.562356	0.155796	0.557756
N158	N	0.751080	-0.003973	0.271746
N159	N	0.786297	0.011204	0.307233
H160	H	0.814461	-0.012632	0.330167
N161	N	0.675272	-0.180625	0.111428
N162	N	0.715087	-0.213420	0.123726
H163	H	0.714861	-0.231609	0.163463
N164	N	0.232227	0.063447	0.166498
N165	N	0.259810	0.097862	0.178794
H166	H	0.281232	0.098084	0.218535
N167	N	0.790144	-0.037020	0.435800
N168	N	0.789812	-0.081702	0.442915
H169	H	0.818009	-0.105532	0.420011
N170	N	0.505440	0.066251	0.111406
N171	N	0.478912	0.065986	0.160583
H172	H	0.500325	0.066215	0.200328
N173	N	0.112175	0.062165	-0.166367
N174	N	0.073468	0.095899	-0.178676
H175	H	0.052044	0.095672	-0.218414
N176	N	0.385383	0.065006	0.111407
N177	N	0.357801	0.030591	0.123714
H178	H	0.336374	0.030376	0.163455
H179	H	0.667923	-0.790443	0.099978
N180	N	0.676501	-0.078696	0.111432
N181	N	0.677044	-0.033684	0.111420
H182	H	0.677258	-0.015490	0.151153
N183	N	0.554256	0.162644	0.435789
N184	N	0.519417	0.192140	0.464200
H185	H	0.491254	0.215981	0.441271
N186	N	0.385390	0.064980	-0.111306
N187	N	0.397595	0.030964	-0.148179
H188	H	0.376179	0.030731	-0.187922
H189	H	0.672505	-0.407280	0.155089
N190	N	0.790113	-0.037041	0.564317
N191	N	0.824948	-0.066537	0.535898
H192	H	0.853110	-0.090382	0.558822
N193	N	0.112178	0.062213	0.166513
N194	N	0.138710	0.062491	0.215683
H195	H	0.117300	0.062277	0.255433
N196	N	-0.161078	0.059424	0.111429
N197	N	-0.214111	0.058885	0.111416
H198	H	-0.235550	0.058675	0.151150
N199	N	0.751077	-0.004024	0.728362
N200	N	0.785899	-0.033539	0.756767
H201	H	0.814027	-0.057407	0.733834
H202	H	0.671846	-0.467062	-0.154970
H203	H	-0.154901	0.059465	-0.099862
N204	N	-0.041005	0.060616	-0.111287
N205	N	-0.067535	0.060341	-0.160460
H206	H	-0.046121	0.060553	-0.200208
N207	N	0.670686	-0.563753	-0.166380
N208	N	0.670144	-0.608766	-0.166366
H209	H	0.669936	-0.626960	-0.206099
N210	N	0.670628	-0.563746	0.166489
N211	N	0.670891	-0.541230	0.215664
H212	H	0.670664	-0.559407	0.255411
