data_functionalizedCrystal
_audit_creation_method	'MofGen! by Chris Wilmer'
_symmetry_space_group_name_H-M	'P1'
_symmetry_Int_Tables_number	1
_symmetry_cell_setting	triclinic
loop_
_symmetry_equiv_pos_as_xyz
  x,y,z
_cell_length_a	17.699104
_cell_length_b	16.176319
_cell_length_c	17.699083
_cell_angle_alpha	89.992304
_cell_angle_beta	96.712734
_cell_angle_gamma	90.009138
loop_
_atom_site_label
_atom_site_type_symbol
_atom_site_fract_x
_atom_site_fract_y
_atom_site_fract_z
O1	O	-1.004069	-0.068781	0.095788
O2	O	-0.783693	-0.068776	0.108224
O3	O	-0.900107	-0.068771	-0.008183
O4	O	-0.887655	-0.068785	0.212195
O5	O	-0.900091	0.068722	-0.008190
O6	O	-0.783677	0.068718	0.108217
O7	O	-1.004053	0.068712	0.095781
Cu8	Cu	-0.893863	0.081269	0.101998
Cu9	Cu	-0.893882	-0.081332	0.102007
O10	O	-0.887639	0.068708	0.212187
C11	C	-0.755488	-0.000028	0.107772
C12	C	-0.671471	-0.000026	0.106427
N13	N	-0.893856	0.195634	0.101991
C14	C	-0.146600	-0.000030	0.167171
C15	C	-0.225543	-0.000034	0.168430
C16	C	-0.274161	-0.000030	0.100095
C17	C	-0.243831	-0.000031	0.030496
C18	C	-0.164889	-0.000033	0.029238
C19	C	-0.562197	-0.000023	0.035569
C20	C	-0.641144	-0.000018	0.036833
C21	C	-0.622852	-0.000024	0.174762
C22	C	-0.543909	-0.000026	0.173503
C23	C	-0.513587	-0.000031	0.103905
C24	C	-0.427987	-0.000029	0.102541
C25	C	-0.359759	-0.000027	0.101459
C26	C	-0.899653	-0.000024	-0.036383
C27	C	-0.898314	-0.000024	-0.120402
C28	C	-0.032258	-0.000033	0.096233
C29	C	-0.116275	-0.000029	0.097578
N30	N	-0.893896	-0.195698	0.102007
C31	C	-0.945419	0.238901	0.050468
C32	C	-0.945423	0.325448	0.050467
C33	C	-0.893866	0.368727	0.101994
C34	C	-0.842297	0.325455	0.153520
C35	C	-0.842290	0.238909	0.153517
C36	C	-0.842323	0.674483	0.153535
C37	C	-0.842335	0.761035	0.153536
C38	C	-0.945456	0.761021	0.050484
C39	C	-0.945449	0.674476	0.050481
C40	C	-0.893877	0.631211	0.102004
C41	C	-0.893873	0.537367	0.102004
C42	C	-0.893874	0.462570	0.101999
C43	C	-0.966647	-0.000024	-0.169017
C44	C	-0.965385	-0.000032	-0.247961
C45	C	-0.895789	-0.000033	-0.278287
C46	C	-0.827451	-0.000035	-0.229665
C47	C	-0.828714	-0.000033	-0.150723
C48	C	-0.822356	-0.000041	-0.548028
C49	C	-0.821098	-0.000040	-0.626976
C50	C	-0.959026	-0.000040	-0.645266
C51	C	-0.960289	-0.000038	-0.566324
C52	C	-0.891952	-0.000045	-0.517709
C53	C	-0.893321	-0.000038	-0.432110
C54	C	-0.894419	-0.000033	-0.363885
C55	C	-0.888093	-0.000041	0.240388
C56	C	-0.889431	-0.000047	0.324406
H57	H	-0.107020	-0.000027	0.222818
H58	H	-0.250230	-0.000043	0.225100
N59	N	-0.296263	-0.000020	-0.043211
H60	H	-0.286533	-0.050988	-0.073579
H61	H	-0.350853	0.000016	-0.031794
N62	N	-0.752385	-0.000041	-0.262369
H63	H	-0.761952	-0.000039	-0.319755
H64	H	-0.722484	0.050929	-0.244580
H65	H	-0.537518	-0.000025	-0.021102
H66	H	-0.800301	0.203683	0.195472
N67	N	-0.755013	-0.000038	-0.098283
H68	H	-0.710732	-0.000038	-0.129472
H69	H	-0.752524	0.050932	-0.065135
H70	H	-0.680728	-0.000017	-0.018817
H71	H	-0.504328	-0.000025	0.229149
N72	N	-1.001022	0.192213	-0.005106
H73	H	-1.054723	0.207254	0.003544
H74	H	-0.992341	0.207303	-0.058789
H75	H	-0.140200	-0.000033	-0.027432
H76	H	-0.766711	-0.000046	-0.508455
N77	N	-0.786690	0.372126	0.209102
H78	H	-0.732991	0.357083	0.200447
H79	H	-0.794583	0.433504	0.201264
H80	H	-0.647550	-0.000023	0.231432
N81	N	-1.035356	-0.000033	-0.533621
H82	H	-1.065292	-0.051003	-0.551351
H83	H	-1.025725	0.000001	-0.476240
H84	H	-0.987410	0.360675	0.008512
H85	H	-1.014670	-0.000039	-0.684858
H86	H	-1.023320	-0.000019	-0.144333
H87	H	-0.987434	0.639241	0.008525
H88	H	-0.764421	-0.000039	-0.651664
H89	H	-0.800333	0.639264	0.195488
H90	H	-1.021028	-0.000030	-0.287541
H91	H	-0.987446	0.796257	0.008529
N92	N	-0.786721	0.807718	0.209109
H93	H	-0.754046	0.767178	0.241746
H94	H	-0.753329	0.843641	0.180164
