data_functionalizedCrystal
_audit_creation_method	'MofGen! by Chris Wilmer'
_symmetry_space_group_name_H-M	'P1'
_symmetry_Int_Tables_number	1
_symmetry_cell_setting	triclinic
loop_
_symmetry_equiv_pos_as_xyz
  x,y,z
_cell_length_a	14.853567
_cell_length_b	17.038272
_cell_length_c	13.330367
_cell_angle_alpha	89.995338
_cell_angle_beta	89.995418
_cell_angle_gamma	87.373243
loop_
_atom_site_label
_atom_site_type_symbol
_atom_site_fract_x
_atom_site_fract_y
_atom_site_fract_z
O1	O	1.204051	0.102086	-0.083355
O2	O	0.942507	0.114247	-0.083372
O3	O	1.071724	-0.005651	-0.083356
O4	O	1.074833	0.221984	-0.083372
O5	O	1.071704	-0.005654	0.083491
O6	O	0.942486	0.114244	0.083475
O7	O	1.204031	0.102083	0.083492
Cu8	Cu	1.073257	0.108164	0.098718
Cu9	Cu	1.073281	0.108167	-0.098598
O10	O	1.074813	0.221981	0.083476
C11	C	0.908866	0.113695	0.000049
C12	C	0.808658	0.112043	0.000043
C13	C	0.390240	0.033841	0.000071
C14	C	0.379678	0.176283	0.000060
C15	C	0.473828	0.177835	0.000056
C16	C	0.526189	0.107390	0.000059
C17	C	0.484399	0.035392	0.000064
C18	C	0.515626	0.249832	0.000041
C19	C	0.609782	0.251388	0.000036
C20	C	0.662144	0.180941	0.000046
C21	C	0.620349	0.108940	0.000052
C22	C	0.672709	0.038495	0.000055
C23	C	0.630915	-0.033507	0.000068
C24	C	0.536762	-0.035055	0.000074
C25	C	0.756298	0.182489	0.000040
C26	C	0.766869	0.040045	0.000048
C27	C	1.068887	-0.034784	0.000067
C28	C	1.060451	-0.121588	0.000067
C29	C	1.137904	-0.171601	0.000073
C30	C	1.129972	-0.253162	0.000063
C31	C	1.044586	-0.284709	0.000054
C32	C	0.967127	-0.234690	0.000045
C33	C	0.975060	-0.153130	0.000047
C34	C	1.016561	-0.530503	0.000038
C35	C	1.008634	-0.612069	0.000038
C36	C	1.171480	-0.630535	0.000055
C37	C	1.179405	-0.548974	0.000063
C38	C	1.101946	-0.498962	0.000049
C39	C	1.036476	-0.368077	0.000047
C40	C	1.110056	-0.415595	0.000049
C41	C	1.237671	0.102636	0.000068
C42	C	1.337879	0.104287	0.000068
C43	C	1.077651	0.251114	0.000050
C44	C	1.086087	0.337918	0.000044
N45	N	1.073246	0.108161	0.237499
N46	N	1.073298	0.108163	-0.237380
C47	C	1.016059	0.161237	0.710115
C48	C	1.130526	0.055091	0.710098
C49	C	1.130516	0.055088	0.605079
C50	C	1.073277	0.108162	0.552574
C51	C	1.016049	0.161237	0.605087
C52	C	1.187750	0.002019	0.552558
C53	C	1.187743	0.002015	0.447534
C54	C	1.130499	0.055085	0.395026
C55	C	1.073267	0.108162	0.447546
C56	C	1.016028	0.161236	0.395041
C57	C	0.958791	0.214310	0.447558
C58	C	0.958805	0.214308	0.552580
C59	C	1.130485	0.055087	0.290005
C60	C	1.016018	0.161237	0.290012
H61	H	0.337041	0.233636	0.000049
H62	H	1.234542	-0.671263	0.000064
O63	O	0.925703	-0.642749	0.000202
C64	C	0.916235	-0.689392	0.086602
H65	H	0.964817	-0.670055	0.147006
H66	H	0.844126	-0.682151	0.115596
H67	H	0.932103	-0.753685	0.067072
O68	O	0.349690	-0.036118	0.000258
C69	C	0.375934	-0.079076	0.086656
H70	H	0.398723	-0.036979	0.147048
H71	H	0.316414	-0.112407	0.115669
H72	H	0.433883	-0.122580	0.067115
O73	O	0.884163	-0.265296	-0.000145
C74	C	0.836573	-0.239727	-0.086548
H75	H	0.886403	-0.222706	-0.146940
H76	H	0.794429	-0.289174	-0.115558
H77	H	0.790405	-0.186629	-0.067017
O78	O	1.205142	-0.301826	0.000201
C79	C	1.205423	-0.349554	0.086619
H80	H	1.133538	-0.353755	0.115421
H81	H	1.234304	-0.410814	0.067179
H82	H	1.248654	-0.322690	0.147135
H83	H	1.234347	-0.041201	0.404780
O84	O	1.192949	-0.384861	-0.000076
C85	C	1.202428	-0.338246	-0.086499
H86	H	1.132927	-0.318016	-0.115319
H87	H	1.242453	-0.284798	-0.067058
H88	H	1.239569	-0.374229	-0.147001
H89	H	1.177091	0.011879	0.247250
H90	H	0.472987	0.307185	0.000029
O91	O	0.817824	-0.028336	-0.000084
C92	C	0.872583	-0.031711	-0.086516
H93	H	0.882102	0.030357	-0.115333
H94	H	0.941029	-0.060764	-0.067087
H95	H	0.838901	-0.067455	-0.147016
H96	H	0.911989	-0.112410	0.000042
H97	H	0.969455	0.204447	0.752877
H98	H	0.673560	-0.090863	0.000063
O99	O	0.941252	-0.482011	-0.000098
C100	C	0.889801	-0.496309	-0.086523
H101	H	0.907205	-0.558148	-0.115334
H102	H	0.815042	-0.490662	-0.067089
H103	H	0.905549	-0.451679	-0.147030
O104	O	0.496120	-0.104971	-0.000099
C105	C	0.441961	-0.110113	-0.086498
H106	H	0.467347	-0.069230	-0.146896
H107	H	0.445560	-0.173120	-0.115501
H108	H	0.369184	-0.092149	-0.066962
H109	H	0.790322	0.241112	0.000031
O110	O	0.650231	0.321394	0.000076
C111	C	0.583825	0.383237	0.000048
H112	H	0.518255	0.361250	0.031634
H113	H	0.607329	0.433494	0.048487
H114	H	0.572194	0.404974	-0.079998
O115	O	1.220868	-0.140996	-0.000098
C116	C	1.268478	-0.166555	-0.086497
H117	H	1.218662	-0.183567	-0.146895
H118	H	1.310631	-0.117106	-0.115500
H119	H	1.314640	-0.219657	-0.066960
H120	H	0.966954	-0.393771	0.000041
H121	H	0.969403	0.204453	0.247269
H122	H	1.248935	-0.523295	0.000071
H123	H	0.912191	0.257526	0.404796
O124	O	0.903170	0.265755	0.603709
C125	C	0.844335	0.223790	0.664461
H126	H	0.875556	0.162659	0.680187
H127	H	0.832590	0.256401	0.738316
H128	H	0.777284	0.218375	0.624010
H129	H	1.177133	0.011884	0.752851
H130	H	1.234357	-0.041188	0.595312
