data_functionalizedCrystal
_audit_creation_method	'MofGen! by Chris Wilmer'
_symmetry_space_group_name_H-M	'P1'
_symmetry_Int_Tables_number	1
_symmetry_cell_setting	triclinic
loop_
_symmetry_equiv_pos_as_xyz
  x,y,z
_cell_length_a	14.044191
_cell_length_b	14.044220
_cell_length_c	12.503584
_cell_angle_alpha	93.843789
_cell_angle_beta	86.161964
_cell_angle_gamma	93.190327
loop_
_atom_site_label
_atom_site_type_symbol
_atom_site_fract_x
_atom_site_fract_y
_atom_site_fract_z
O1	O	1.282208	0.225144	-0.089273
O2	O	1.782208	0.725144	0.410727
O3	O	1.005537	0.216831	-0.089287
O4	O	1.505537	0.716831	0.410713
O5	O	1.139719	0.082652	-0.089269
O6	O	1.639719	0.582652	0.410731
O7	O	1.148026	0.359323	-0.089290
O8	O	1.648026	0.859323	0.410710
O9	O	1.129629	0.092763	0.089371
O10	O	1.629629	0.592763	0.589371
O11	O	0.995446	0.226942	0.089354
O12	O	1.495446	0.726942	0.589354
O13	O	1.272118	0.235255	0.089368
O14	O	1.772118	0.735255	0.589368
Cu15	Cu	1.132861	0.232022	0.105672
Cu16	Cu	1.632861	0.732022	0.605672
Cu17	Cu	1.144794	0.220064	-0.105591
Cu18	Cu	1.644794	0.720064	0.394409
O19	O	1.137936	0.369434	0.089350
O20	O	1.637936	0.869434	0.589350
C21	C	0.964870	0.218250	0.000032
C22	C	1.464870	0.718250	0.500032
C23	C	0.858727	0.207402	0.000027
C24	C	1.358727	0.707402	0.500027
C25	C	0.613268	0.264503	0.000034
C26	C	1.113268	0.764503	0.500034
C27	C	0.664393	0.187587	0.000038
C28	C	1.164393	0.687587	0.500038
C29	C	0.772531	0.198615	0.000032
C30	C	1.272531	0.698615	0.500032
C31	C	0.505121	0.253477	0.000040
C32	C	1.005121	0.753477	0.500040
C33	C	1.131038	0.052086	0.000051
C34	C	1.631038	0.552086	0.500051
C35	C	1.120194	-0.054057	0.000052
C36	C	1.620194	0.445943	0.500052
C37	C	1.100368	-0.248396	0.000036
C38	C	1.600368	0.251604	0.500036
C39	C	1.177283	-0.299524	0.000036
C40	C	1.677283	0.200476	0.500036
C41	C	1.166252	-0.407661	0.000027
C42	C	1.666252	0.092339	0.500027
C43	C	1.111398	-0.140249	0.000045
C44	C	1.611398	0.359751	0.500045
C45	C	1.312785	0.233836	0.000046
C46	C	1.812785	0.733836	0.500046
C47	C	1.418929	0.244683	0.000044
C48	C	1.918929	0.744683	0.500044
C49	C	1.146617	0.400000	0.000027
C50	C	1.646617	0.900000	0.500027
C51	C	1.157462	0.506143	0.000020
C52	C	1.657462	1.006143	0.500020
N53	N	1.124475	0.240432	0.254263
N54	N	1.624475	0.740432	0.754263
C55	C	1.112139	0.252812	0.473377
C56	C	1.612139	0.752812	0.973377
C57	C	1.165517	0.199280	0.526711
C58	C	1.665517	0.699280	1.026711
C59	C	1.158653	0.206168	0.648633
C60	C	1.658653	0.706168	1.148633
C61	C	1.119002	0.245925	0.351444
C62	C	1.619002	0.745925	0.851444
N63	N	1.153184	0.211657	0.745818
N64	N	1.653184	0.711657	1.245818
H65	H	0.626954	0.113450	-0.000032
H66	H	1.126954	0.613450	0.499968
N67	N	1.275481	-0.249934	0.000068
N68	N	1.775481	0.250066	0.500068
H69	H	1.325276	-0.299124	0.000072
H70	H	1.825276	0.200876	0.500072
H71	H	1.287143	-0.212457	-0.066149
H72	H	1.787143	0.287543	0.433851
N73	N	1.002174	-0.297981	0.000029
N74	N	1.502174	0.202019	0.500029
H75	H	1.008115	-0.369321	0.000027
H76	H	1.508115	0.130679	0.500027
H77	H	0.962626	-0.275110	0.066257
H78	H	1.462626	0.224890	0.566257
H79	H	1.216370	0.148277	0.480805
H80	H	1.716370	0.648277	0.980805
N81	N	0.662856	0.362695	0.000020
N82	N	1.162856	0.862695	0.500020
H83	H	0.734196	0.356752	0.000014
H84	H	1.234196	0.856752	0.500014
H85	H	0.647462	0.394753	-0.066211
H86	H	1.147462	0.894753	0.433789
N87	N	1.044782	0.320369	0.534173
N88	N	1.544782	0.820369	1.034173
H89	H	1.049368	0.315774	0.613913
H90	H	1.549368	0.815774	1.113913
H91	H	1.062740	0.387924	0.514581
H92	H	1.562740	0.887924	1.014581
