data_functionalizedCrystal
_audit_creation_method	'MofGen! by Chris Wilmer'
_symmetry_space_group_name_H-M	'P1'
_symmetry_Int_Tables_number	1
_symmetry_cell_setting	triclinic
loop_
_symmetry_equiv_pos_as_xyz
  x,y,z
_cell_length_a	16.974897
_cell_length_b	8.634740
_cell_length_c	15.455425
_cell_angle_alpha	92.553917
_cell_angle_beta	96.649483
_cell_angle_gamma	91.968344
loop_
_atom_site_label
_atom_site_type_symbol
_atom_site_fract_x
_atom_site_fract_y
_atom_site_fract_z
O1	O	1.071352	0.208842	0.147251
O2	O	0.842264	0.232514	0.131188
O3	O	0.945964	-0.003839	0.138458
O4	O	0.967652	0.445196	0.139982
O5	O	0.938836	-0.015863	-0.006302
O6	O	0.835136	0.220490	-0.013571
O7	O	1.064224	0.196818	0.002492
Cu8	Cu	0.949029	0.207556	-0.018757
Cu9	Cu	0.957459	0.221776	0.152438
O10	O	0.960525	0.433172	-0.004778
C11	C	0.809067	0.225374	0.056731
C12	C	0.720769	0.221996	0.050540
C13	C	0.683164	0.226966	0.126533
C14	C	0.600198	0.223815	0.120704
C15	C	0.554838	0.215683	0.038879
C16	C	0.592449	0.210717	-0.037120
C17	C	0.675413	0.213879	-0.031289
C18	C	0.306295	0.205534	0.012979
C19	C	0.223325	0.202367	0.007154
C20	C	0.231080	0.215468	0.164979
C21	C	0.314046	0.218621	0.170802
C22	C	0.351649	0.213663	0.094803
N23	N	0.470034	0.212457	0.032918
N24	N	0.436452	0.216900	0.100765
C25	C	0.937487	-0.067320	0.065735
C26	C	0.922837	-0.238559	0.064713
C27	C	1.097421	0.203958	0.076951
C28	C	1.185720	0.207337	0.083148
C29	C	0.969002	0.496653	0.067947
C30	C	0.983651	0.667892	0.068975
N31	N	0.943106	0.197554	-0.139166
C32	C	0.910367	0.141788	-0.685460
C33	C	0.914845	0.149412	-0.594339
C34	C	0.972342	0.247024	-0.544914
C35	C	1.025368	0.337006	-0.586613
C36	C	1.020892	0.329372	-0.677732
C37	C	0.991657	0.279903	-0.271984
C38	C	0.996127	0.287533	-0.180860
C39	C	0.885605	0.099936	-0.188592
C40	C	0.881131	0.092318	-0.279712
C41	C	0.934160	0.182294	-0.321403
N42	N	0.976920	0.254822	-0.451774
N43	N	0.929585	0.174486	-0.414541
N44	N	0.963387	0.231766	0.272847
H45	H	0.569585	0.227863	0.182586
Cl46	Cl	1.068433	0.410210	-0.118724
Cl47	Cl	1.081348	-0.253505	0.075834
Cl48	Cl	0.825146	-0.317156	0.057868
H49	H	0.863543	0.062310	-0.725696
Cl50	Cl	0.535425	0.200506	-0.139985
H51	H	0.834312	0.012830	-0.319948
Cl52	Cl	0.848166	0.036338	-0.541930
H53	H	1.072186	0.416476	-0.546364
Cl54	Cl	0.371064	0.228835	0.273671
H55	H	0.842432	0.026681	-0.154637
H56	H	1.034836	0.353169	-0.305918
Cl57	Cl	0.166301	0.192112	-0.095718
Cl58	Cl	0.740180	0.237179	0.229404
Cl59	Cl	0.183803	0.221684	0.260514
Cl60	Cl	0.722688	0.207637	-0.126828
Cl61	Cl	0.353556	0.199298	-0.082563
Cl62	Cl	1.087553	0.442486	-0.730146
