data_functionalizedCrystal
_audit_creation_method	'MofGen! by Chris Wilmer'
_symmetry_space_group_name_H-M	'P1'
_symmetry_Int_Tables_number	1
_symmetry_cell_setting	triclinic
loop_
_symmetry_equiv_pos_as_xyz
  x,y,z
_cell_length_a	16.109301
_cell_length_b	27.731996
_cell_length_c	14.586319
_cell_angle_alpha	89.990257
_cell_angle_beta	89.998857
_cell_angle_gamma	83.041486
loop_
_atom_site_label
_atom_site_type_symbol
_atom_site_fract_x
_atom_site_fract_y
_atom_site_fract_z
O1	O	1.102341	0.062132	-0.076202
O2	O	1.602341	0.562132	0.423798
O3	O	0.860181	0.069864	-0.076217
O4	O	1.360181	0.569864	0.423783
O5	O	0.988805	-0.004369	-0.076189
O6	O	1.488805	0.495631	0.423811
O7	O	0.973718	0.136365	-0.076230
O8	O	1.473718	0.636365	0.423770
O9	O	0.988796	-0.004370	0.076292
O10	O	1.488796	0.495630	0.576292
O11	O	0.860172	0.069863	0.076264
O12	O	1.360172	0.569863	0.576264
O13	O	1.102333	0.062131	0.076279
O14	O	1.602333	0.562131	0.576279
Cu15	Cu	0.981252	0.065997	0.090194
Cu16	Cu	1.481252	0.565997	0.590194
Cu17	Cu	0.981262	0.065998	-0.090132
Cu18	Cu	1.481262	0.565998	0.409868
O19	O	0.973709	0.136364	0.076251
O20	O	1.473709	0.636364	0.576251
C21	C	0.829206	0.069550	0.000022
C22	C	1.329206	0.569550	0.500022
C23	C	0.736923	0.068611	0.000018
C24	C	1.236923	0.568611	0.500018
C25	C	0.427404	0.109590	0.000022
C26	C	0.927404	0.609590	0.500022
C27	C	0.514113	0.110477	0.000016
C28	C	1.014113	0.610477	0.500016
C29	C	0.535105	0.022402	0.000029
C30	C	1.035105	0.522402	0.500029
C31	C	0.448397	0.021515	0.000028
C32	C	0.948397	0.521515	0.500028
C33	C	0.394549	0.065111	0.000029
C34	C	0.894549	0.565111	0.500029
C35	C	0.567965	0.066884	0.000025
C36	C	1.067965	0.566884	0.500025
C37	C	0.661979	0.067845	0.000019
C38	C	1.161979	0.567845	0.500019
C39	C	0.300529	0.064150	0.000034
C40	C	0.800529	0.564150	0.500034
C41	C	0.988490	-0.022378	0.000054
C42	C	1.488490	0.477622	0.500054
C43	C	0.987557	-0.076038	0.000064
C44	C	1.487557	0.423962	0.500064
C45	C	0.981689	-0.408778	-0.083099
C46	C	1.481689	0.091222	0.416901
C47	C	0.978144	-0.610452	-0.083115
C48	C	1.478144	-0.110452	0.416885
O49	O	0.977654	-0.636524	-0.153804
O50	O	1.477654	-0.136524	0.346196
N51	N	0.977699	-0.635671	0.000001
N52	N	1.477699	-0.135671	0.500001
C53	C	0.978134	-0.610469	0.083128
C54	C	1.478134	-0.110469	0.583128
O55	O	0.977666	-0.636547	0.153823
O56	O	1.477666	-0.136547	0.653823
C57	C	0.981673	-0.408796	0.083143
C58	C	1.481673	0.091204	0.583143
C59	C	0.982127	-0.383580	0.000021
C60	C	1.482127	0.116420	0.500021
C61	C	0.982141	-0.383562	-0.166214
C62	C	1.482141	0.116438	0.333786
C63	C	0.983032	-0.333147	-0.166209
C64	C	1.483032	0.166853	0.333791
C65	C	0.983470	-0.307949	-0.083089
C66	C	1.483470	0.192051	0.416911
C67	C	0.983018	-0.333165	0.000026
C68	C	1.483018	0.166835	0.500026
C69	C	0.982103	-0.383595	0.166269
C70	C	1.482103	0.116405	0.666269
C71	C	0.982986	-0.333173	0.166265
C72	C	1.482986	0.166827	0.666265
C73	C	0.983439	-0.307957	0.083143
C74	C	1.483439	0.192043	0.583143
C75	C	0.984346	-0.257552	0.083151
C76	C	1.484346	0.242448	0.583151
N77	N	0.984791	-0.232332	0.000035
N78	N	1.484791	0.267668	0.500035
C79	C	0.984353	-0.257531	-0.083085
C80	C	1.484353	0.242469	0.416915
C81	C	0.976278	-0.716350	0.083114
C82	C	1.476278	-0.216350	0.583114
C83	C	0.975395	-0.766768	0.083110
C84	C	1.475395	-0.266768	0.583110
C85	C	0.975403	-0.766747	-0.083133
C86	C	1.475403	-0.266747	0.416867
C87	C	0.976292	-0.716329	-0.083128
C88	C	1.476292	-0.216329	0.416872
C89	C	0.976723	-0.691130	-0.000003
C90	C	1.476723	-0.191130	0.499997
C91	C	0.986225	-0.151656	-0.083069
C92	C	1.486225	0.348344	0.416931
C93	C	0.987119	-0.101237	-0.083056
C94	C	1.487119	0.398763	0.416944
C95	C	0.987106	-0.101262	0.083186
C96	C	1.487106	0.398738	0.583186
C97	C	0.986217	-0.151677	0.083175
C98	C	1.486217	0.348323	0.583175
C99	C	0.985773	-0.176872	0.000040
C100	C	1.485773	0.323128	0.500040
O101	O	0.984827	-0.231448	0.153803
O102	O	1.484827	0.268552	0.653803
O103	O	0.984803	-0.231443	-0.153770
O104	O	1.484803	0.268557	0.346230
C105	C	0.980798	-0.459193	-0.083104
C106	C	1.480798	0.040807	0.416896
C107	C	0.980345	-0.484410	0.000011
C108	C	1.480345	0.015590	0.500011
C109	C	0.980783	-0.459211	0.083132
C110	C	1.480783	0.040789	0.583132
C111	C	0.979462	-0.534828	0.000008
C112	C	1.479462	-0.034828	0.500008
C113	C	0.979024	-0.560026	-0.083112
C114	C	1.479024	-0.060026	0.416888
C115	C	0.979469	-0.534807	-0.166229
C116	C	1.479469	-0.034807	0.333771
C117	C	0.980360	-0.484392	-0.166224
C118	C	1.480360	0.015608	0.333776
C119	C	0.980338	-0.484431	0.166248
C120	C	1.480338	0.015569	0.666248
C121	C	0.979449	-0.534846	0.166236
C122	C	1.479449	-0.034846	0.666236
C123	C	0.979010	-0.560044	0.083116
C124	C	1.479010	-0.060044	0.583116
C125	C	1.133308	0.062445	0.000038
C126	C	1.633308	0.562445	0.500038
C127	C	1.225591	0.063384	0.000036
C128	C	1.725591	0.563384	0.500036
C129	C	0.974023	0.154373	0.000006
C130	C	1.474023	0.654373	0.500006
C131	C	0.974957	0.208033	-0.000010
C132	C	1.474957	0.708033	0.499990
N133	N	0.981250	0.065996	0.217026
N134	N	1.481250	0.565996	0.717026
N135	N	0.981270	0.065996	-0.216964
N136	N	1.481270	0.565996	0.283036
C137	C	1.038223	0.033136	0.452044
C138	C	1.538223	0.533136	0.952044
C139	C	1.038226	0.033135	0.548026
C140	C	1.538226	0.533135	1.048026
C141	C	0.924291	0.098857	0.548011
C142	C	1.424291	0.598857	1.048011
C143	C	0.924285	0.098855	0.452031
C144	C	1.424285	0.598855	0.952031
C145	C	0.981256	0.065996	0.404051
C146	C	1.481256	0.565996	0.904051
C147	C	0.981264	0.065996	0.596011
C148	C	1.481264	0.565996	1.096011
C149	C	0.981266	0.065995	0.700078
C150	C	1.481266	0.565995	1.200078
C151	C	0.981253	0.065996	0.299977
C152	C	1.481253	0.565996	0.799977
H153	H	0.540858	0.146696	0.000009
H154	H	1.040858	0.646696	0.500009
O155	O	0.412953	-0.026461	0.000035
O156	O	0.912953	0.473539	0.500035
H157	H	0.373943	-0.028970	0.062179
H158	H	0.873943	0.471030	0.562179
O159	O	0.976748	-0.689175	0.172776
O160	O	1.476748	-0.189175	0.672776
H161	H	1.033836	-0.670522	0.176756
H162	H	1.533836	-0.170522	0.676756
O163	O	0.593183	-0.024618	0.000047
O164	O	1.093183	0.475382	0.500047
H165	H	0.658996	-0.016530	0.000060
H166	H	1.158996	0.483470	0.500060
H167	H	0.985859	-0.172164	-0.150765
H168	H	1.485859	0.327836	0.349235
H169	H	0.987490	-0.080708	-0.150747
H170	H	1.487490	0.419292	0.349253
H171	H	0.877892	0.125613	0.412952
H172	H	1.377892	0.625613	0.912952
O173	O	0.974908	-0.793935	-0.172780
O174	O	1.474908	-0.293935	0.327220
H175	H	0.918384	-0.779931	-0.212624
H176	H	1.418384	-0.279931	0.287376
H177	H	0.983398	-0.312620	-0.233895
H178	H	1.483398	0.187380	0.266105
H179	H	0.981781	-0.404073	-0.233904
H180	H	1.481781	0.095927	0.266096
O181	O	0.978957	-0.562042	0.255895
O182	O	1.478957	-0.062042	0.755895
H183	H	0.979403	-0.536044	0.313689
H184	H	1.479403	-0.036044	0.813689
H185	H	0.975038	-0.787296	0.150797
H186	H	1.475038	-0.287296	0.650797
H187	H	1.084612	0.006379	0.412981
H188	H	1.584612	0.506379	0.912981
H189	H	0.383562	0.145088	0.000022
H190	H	0.883562	0.645088	0.500022
O191	O	0.980826	-0.457256	0.255903
O192	O	1.480826	0.042744	0.755903
H193	H	0.980377	-0.483268	0.313691
H194	H	1.480377	0.016732	0.813691
O195	O	0.980837	-0.457201	-0.255882
O196	O	1.480837	0.042799	0.244118
H197	H	1.037931	-0.438553	-0.259871
H198	H	1.537931	0.061447	0.240129
O199	O	0.976767	-0.689130	-0.172779
O200	O	1.476767	-0.189130	0.327221
H201	H	0.976307	-0.715127	-0.230573
H202	H	1.476307	-0.215127	0.269427
O203	O	1.099679	-0.002299	0.599794
O204	O	1.599679	0.497701	1.099794
H205	H	1.139297	-0.025143	0.550302
H206	H	1.639297	0.474857	1.050302
O207	O	0.981605	-0.410785	0.255922
O208	O	1.481605	0.089215	0.755922
H209	H	0.982046	-0.384784	0.313712
H210	H	1.482046	0.115216	0.813712
H211	H	0.983324	-0.312658	0.233958
H212	H	1.483324	0.187342	0.733958
H213	H	0.985855	-0.172210	0.150859
H214	H	1.485855	0.327790	0.650859
O215	O	0.862857	0.134304	0.599760
O216	O	1.362857	0.634304	1.099760
H217	H	0.822723	0.113955	0.643511
H218	H	1.322723	0.613955	1.143511
O219	O	0.987578	-0.074079	0.172836
O220	O	1.487578	0.425921	0.672836
H221	H	0.988264	-0.034785	0.158867
H222	H	1.488264	0.465215	0.658867
O223	O	0.978989	-0.561989	-0.255883
O224	O	1.478989	-0.061989	0.244117
H225	H	0.978287	-0.601282	-0.241912
H226	H	1.478287	-0.101282	0.258088
