data_functionalizedCrystal
_audit_creation_method	'MofGen! by Chris Wilmer'
_symmetry_space_group_name_H-M	'P1'
_symmetry_Int_Tables_number	1
_symmetry_cell_setting	triclinic
loop_
_symmetry_equiv_pos_as_xyz
  x,y,z
_cell_length_a	15.944551
_cell_length_b	15.944551
_cell_length_c	13.101039
_cell_angle_alpha	86.638405
_cell_angle_beta	93.353409
_cell_angle_gamma	83.498738
loop_
_atom_site_label
_atom_site_type_symbol
_atom_site_fract_x
_atom_site_fract_y
_atom_site_fract_z
O1	O	1.119139	0.103702	0.085109
O2	O	0.874591	0.117057	0.085135
O3	O	1.003542	-0.011895	0.085112
O4	O	0.990187	0.232654	0.085132
O5	O	0.994290	-0.002627	-0.085316
O6	O	0.865339	0.126324	-0.085293
O7	O	1.109887	0.112969	-0.085319
Zn8	Zn	0.986144	0.121118	-0.112365
Zn9	Zn	0.998334	0.108908	0.112181
O10	O	0.980935	0.241921	-0.085296
C11	C	0.838671	0.121136	-0.000076
C12	C	0.745425	0.119473	-0.000066
C13	C	0.530567	0.035570	-0.000093
C14	C	0.474109	0.069963	0.083940
C15	C	0.574699	0.116467	-0.000079
C16	C	0.465009	0.079119	-0.084088
C17	C	0.409785	0.113557	-0.000095
C18	C	0.519473	0.150878	0.084024
C19	C	0.510375	0.160027	-0.084080
C20	C	0.453936	0.194477	-0.000026
C21	C	0.669702	0.118140	-0.000068
C22	C	0.314784	0.111889	-0.000098
C23	C	0.998362	-0.038555	-0.000102
C24	C	0.996700	-0.131801	-0.000102
C25	C	0.912796	-0.346659	-0.000079
C26	C	0.947197	-0.403107	-0.084115
C27	C	0.993693	-0.302527	-0.000094
C28	C	0.956338	-0.412227	0.083914
C29	C	0.990783	-0.467441	-0.000082
C30	C	1.028112	-0.357743	-0.084199
C31	C	1.037245	-0.366861	0.083905
C32	C	1.071703	-0.423290	-0.000151
C33	C	0.995367	-0.207525	-0.000102
C34	C	0.989114	-0.562442	-0.000081
C35	C	1.145807	0.108890	-0.000106
C36	C	1.239053	0.110553	-0.000108
C37	C	0.986116	0.268581	-0.000080
C38	C	0.987778	0.361827	-0.000072
N39	N	0.977830	0.129451	-0.265612
C40	C	0.966520	0.140796	-0.474653
C41	C	1.017962	0.089227	-0.525538
C42	C	1.011668	0.095539	-0.641855
C43	C	0.972812	0.134484	-0.358325
N44	N	1.006654	0.100569	0.265428
H45	H	0.457855	0.031884	0.154979
O46	O	0.548063	0.186995	0.168845
C47	C	0.636306	0.188110	0.167837
H48	H	0.663801	0.136898	0.118033
H49	H	0.650297	0.252594	0.135355
C50	C	0.642888	0.234301	0.339062
C51	C	0.676659	0.171396	0.277899
H52	H	0.667780	0.223995	0.406952
H53	H	0.583437	0.233553	0.339740
H54	H	0.654550	0.288031	0.311981
H55	H	0.664988	0.117669	0.304972
H56	H	0.736109	0.172135	0.277228
O57	O	0.414421	0.274653	0.000212
C58	C	0.442365	0.312161	0.088915
H59	H	0.467614	0.260586	0.150556
H60	H	0.494809	0.352317	0.069673
C61	C	0.336928	0.431901	0.052828
C62	C	0.367932	0.368556	0.128539
H63	H	0.291016	0.466692	0.077269
H64	H	0.318103	0.406634	-0.006935
H65	H	0.380639	0.465355	0.036800
H66	H	0.324225	0.335097	0.144557
H67	H	0.386748	0.393820	0.188307
O68	O	1.082514	-0.347475	0.168759
C69	C	1.044456	-0.375138	0.257189
H70	H	0.974882	-0.380809	0.237064
H71	H	1.077890	-0.439445	0.287845
C72	C	1.137151	-0.303863	0.364281
C73	C	1.051698	-0.310821	0.339564
H74	H	1.141621	-0.264191	0.415095
H75	H	1.162795	-0.285228	0.304704
H76	H	1.165003	-0.357456	0.389821
H77	H	1.023850	-0.257231	0.314012
H78	H	1.026050	-0.329446	0.399138
O79	O	1.064235	-0.329142	-0.169020
C80	C	1.065350	-0.240899	-0.168011
H81	H	1.014134	-0.213411	-0.118204
H82	H	1.129831	-0.226912	-0.135532
C83	C	1.111553	-0.234295	-0.339238
C84	C	1.048644	-0.200533	-0.278071
H85	H	1.101252	-0.209395	-0.407128
H86	H	1.110805	-0.293746	-0.339918
H87	H	1.165281	-0.222637	-0.312160
H88	H	0.994919	-0.212201	-0.305143
H89	H	1.049382	-0.141083	-0.277399
H90	H	0.925968	-0.436168	0.154965
O91	O	0.436423	0.042771	-0.168737
C92	C	0.397303	-0.028888	-0.138578
H93	H	0.422491	-0.053204	-0.057757
H94	H	0.325964	-0.010916	-0.139821
C95	C	0.385979	-0.068733	-0.312392
C96	C	0.416920	-0.098602	-0.213131
H97	H	0.398075	-0.111734	-0.358382
H98	H	0.412331	-0.020453	-0.332713
H99	H	0.326531	-0.053756	-0.313414
H100	H	0.476367	-0.113568	-0.212107
H101	H	0.390578	-0.146886	-0.192812
H102	H	0.917757	0.189683	-0.518441
H103	H	0.526650	0.198078	-0.155122
O104	O	0.832663	-0.306940	-0.000346
C105	C	0.785498	-0.325113	-0.089095
H106	H	0.830372	-0.343752	-0.150717
H107	H	0.747285	-0.379545	-0.069918
C108	C	0.669869	-0.223361	-0.053017
C109	C	0.724983	-0.246248	-0.128706
H110	H	0.632537	-0.174715	-0.077450
H111	H	0.701643	-0.211120	0.006777
H112	H	0.638033	-0.268728	-0.037043
H113	H	0.756825	-0.200885	-0.144669
H114	H	0.693213	-0.258479	-0.188504
O115	O	0.901706	-0.422591	-0.168754
C116	C	0.833298	-0.464945	-0.138584
H117	H	0.848257	-0.495239	-0.057619
H118	H	0.773841	-0.417751	-0.140190
C119	C	0.800312	-0.496832	-0.312271
C120	C	0.818687	-0.534046	-0.212831
H121	H	0.791295	-0.539455	-0.358072
H122	H	0.846397	-0.468295	-0.332599
H123	H	0.750766	-0.457505	-0.313595
H124	H	0.868238	-0.573364	-0.211507
H125	H	0.772610	-0.562592	-0.192505
O126	O	1.075968	0.030822	-0.473142
C127	C	1.069295	0.037314	-0.366987
H128	H	1.039002	0.103406	-0.352388
H129	H	1.028466	-0.011654	-0.336714
C130	C	1.195289	-0.059900	-0.329573
C131	C	1.158088	0.021277	-0.311641
H132	H	1.250059	-0.069796	-0.295431
H133	H	1.199783	-0.064277	-0.401091
H134	H	1.161256	-0.100698	-0.304345
H135	H	1.192115	0.062073	-0.336880
H136	H	1.153602	0.025660	-0.240125
H137	H	1.138907	-0.456446	-0.000205
H138	H	0.563905	-0.031573	0.000006
