data_functionalizedCrystal
_audit_creation_method	'MofGen! by Chris Wilmer'
_symmetry_space_group_name_H-M	'P1'
_symmetry_Int_Tables_number	1
_symmetry_cell_setting	triclinic
loop_
_symmetry_equiv_pos_as_xyz
  x,y,z
_cell_length_a	12.759401
_cell_length_b	12.759400
_cell_length_c	12.759393
_cell_angle_alpha	89.969548
_cell_angle_beta	90.022497
_cell_angle_gamma	89.984606
loop_
_atom_site_label
_atom_site_type_symbol
_atom_site_fract_x
_atom_site_fract_y
_atom_site_fract_z
Zn1	Zn	-1.606267	-0.418192	-0.594064
Zn2	Zn	-1.106267	0.081808	-0.094064
Zn3	Zn	-1.606159	-0.593908	-0.418384
Zn4	Zn	-1.106159	-0.093908	0.081616
Zn5	Zn	-1.430566	-0.418246	-0.418395
Zn6	Zn	-0.930566	0.081754	0.081605
Zn7	Zn	-1.430558	-0.593832	-0.594017
Zn8	Zn	-0.930558	-0.093832	-0.094017
O9	O	-1.518388	-0.506045	-0.506215
O10	O	-1.018388	-0.006045	-0.006215
O11	O	-1.753274	-0.441511	-0.570775
O12	O	-1.253274	0.058489	-0.070775
O13	O	-1.582824	-0.570660	-0.271365
O14	O	-1.082824	-0.070660	0.228635
O15	O	-1.453922	-0.271218	-0.441722
O16	O	-0.953922	0.228782	0.058278
O17	O	-1.753194	-0.570608	-0.441704
O18	O	-1.253194	-0.070608	0.058296
O19	O	-1.583009	-0.271178	-0.570785
O20	O	-1.083009	0.228822	-0.070785
O21	O	-1.453817	-0.441602	-0.271372
O22	O	-0.953817	0.058398	0.228628
O23	O	-1.283544	-0.441529	-0.441676
O24	O	-0.783544	0.058471	0.058324
O25	O	-1.453909	-0.570479	-0.741044
O26	O	-0.953909	-0.070479	-0.241044
O27	O	-1.283538	-0.570531	-0.570705
O28	O	-0.783538	-0.070531	-0.070705
O29	O	-1.583001	-0.441437	-0.741079
O30	O	-1.083001	0.058563	-0.241079
O31	O	-1.582816	-0.740919	-0.441658
O32	O	-1.082816	-0.240919	0.058342
O33	O	-1.453803	-0.740863	-0.570695
O34	O	-0.953803	-0.240863	-0.070695
C35	C	-1.245420	-0.506029	-0.506187
C36	C	-0.745420	-0.006029	-0.006187
C37	C	-1.128644	-0.506047	-0.506200
C38	C	-0.628644	-0.006047	-0.006200
C39	C	-1.073806	-0.573320	-0.573278
C40	C	-0.573806	-0.073320	-0.073278
C41	C	-0.964082	-0.573323	-0.573296
C42	C	-0.464082	-0.073323	-0.073296
C43	C	-0.964043	-0.438776	-0.439148
C44	C	-0.464043	0.061224	0.060852
C45	C	-1.073765	-0.438769	-0.439136
C46	C	-0.573765	0.061231	0.060864
C47	C	-1.518326	-0.779012	-0.506193
C48	C	-1.018326	-0.279012	-0.006193
C49	C	-1.518395	-0.895789	-0.506219
C50	C	-1.018395	-0.395789	-0.006219
C51	C	-0.792421	-0.506059	-0.506237
C52	C	-0.292421	-0.006059	-0.006237
C53	C	-0.909197	-0.506057	-0.506229
C54	C	-0.409197	-0.006057	-0.006229
C55	C	-1.585711	-1.060376	-0.439138
C56	C	-1.085711	-0.560376	0.060862
C57	C	-1.585648	-0.950652	-0.439105
C58	C	-1.085648	-0.450652	0.060895
C59	C	-1.451194	-0.950655	-0.573363
C60	C	-0.951194	-0.450655	-0.073363
C61	C	-1.451252	-1.060377	-0.573390
C62	C	-0.951252	-0.560377	-0.073390
C63	C	-1.518466	-0.505944	-0.780248
C64	C	-1.018466	-0.005944	-0.280248
C65	C	-1.518500	-0.505901	-0.897025
C66	C	-1.018500	-0.005901	-0.397025
C67	C	-1.518478	-0.232011	-0.506260
C68	C	-1.018478	0.267989	-0.006260
C69	C	-1.518517	-0.115235	-0.506279
C70	C	-1.018517	0.384765	-0.006279
C71	C	-1.585723	-0.438698	-0.951907
C72	C	-1.085723	0.061302	-0.451907
C73	C	-1.585741	-0.438653	-1.061631
C74	C	-1.085741	0.061347	-0.561631
C75	C	-1.451309	-0.573022	-1.061582
C76	C	-0.951309	-0.073022	-0.561582
C77	C	-1.451287	-0.573061	-0.951860
C78	C	-0.951287	-0.073061	-0.451860
C79	C	-1.518370	-0.506069	-0.233248
C80	C	-1.018370	-0.006069	0.266752
C81	C	-1.518540	-0.505816	-0.116471
C82	C	-1.018540	-0.005816	0.383529
H83	H	-0.919438	-0.628102	-0.627919
H84	H	-0.419438	-0.128102	-0.127919
Cl85	Cl	-1.366647	-0.881684	-0.657736
Cl86	Cl	-0.866647	-0.381684	-0.157736
H87	H	-1.640450	-0.384009	-0.907264
H88	H	-1.140450	0.115991	-0.407264
Cl89	Cl	-1.142708	-0.354183	-0.354809
Cl90	Cl	-0.642708	0.145817	0.145191
H91	H	-1.396530	-1.105045	-0.628067
H92	H	-0.896530	-0.605045	-0.128067
H93	H	-1.118485	-0.628099	-0.627888
H94	H	-0.618485	-0.128099	-0.127888
Cl95	Cl	-1.670268	-1.129336	-0.354765
Cl96	Cl	-1.170268	-0.629336	0.145235
H97	H	-1.396589	-0.627704	-1.106242
H98	H	-0.896589	-0.127704	-0.606242
Cl99	Cl	-1.670264	-0.354174	-1.130621
Cl100	Cl	-1.170264	0.145826	-0.630621
Cl101	Cl	-0.895044	-0.354206	-0.354842
Cl102	Cl	-0.395044	0.145794	0.145158
Cl103	Cl	-1.366764	-0.657546	-0.882860
Cl104	Cl	-0.866764	-0.157546	-0.382860
Cl105	Cl	-1.670126	-0.881691	-0.354695
Cl106	Cl	-1.170126	-0.381691	0.145305
