data_functionalizedCrystal
_audit_creation_method	'MofGen! by Chris Wilmer'
_symmetry_space_group_name_H-M	'P1'
_symmetry_Int_Tables_number	1
_symmetry_cell_setting	triclinic
loop_
_symmetry_equiv_pos_as_xyz
  x,y,z
_cell_length_a	19.288864
_cell_length_b	22.610064
_cell_length_c	19.288865
_cell_angle_alpha	90.009265
_cell_angle_beta	96.863755
_cell_angle_gamma	89.970430
loop_
_atom_site_label
_atom_site_type_symbol
_atom_site_fract_x
_atom_site_fract_y
_atom_site_fract_z
O1	O	0.921360	-0.049381	-0.086646
O2	O	1.421360	0.450619	0.413354
O3	O	0.719099	-0.049341	-0.098334
O4	O	1.219099	0.450659	0.401666
O5	O	0.826074	-0.049351	0.008640
O6	O	1.326074	0.450649	0.508640
O7	O	0.814385	-0.049372	-0.193620
O8	O	1.314385	0.450628	0.306380
O9	O	0.826042	0.049019	0.008639
O10	O	1.326042	0.549019	0.508639
O11	O	0.719067	0.049028	-0.098335
O12	O	1.219067	0.549028	0.401665
O13	O	0.921328	0.048988	-0.086646
O14	O	1.421328	0.548988	0.413354
Zn15	Zn	0.820192	0.064626	-0.092491
Zn16	Zn	1.320192	0.564626	0.407509
Zn17	Zn	0.820235	-0.064979	-0.092490
Zn18	Zn	1.320235	0.435021	0.407510
O19	O	0.814353	0.048997	-0.193621
O20	O	1.314353	0.548997	0.306379
C21	C	0.693207	-0.000152	-0.097959
C22	C	1.193207	0.499848	0.402041
C23	C	0.616103	-0.000136	-0.096830
C24	C	1.116103	0.499864	0.403170
N25	N	0.820168	0.153079	-0.092491
N26	N	1.320168	0.653079	0.407509
C27	C	0.571407	-0.000152	-0.159598
C28	C	1.071407	0.499848	0.340402
C29	C	0.498960	-0.000158	-0.158537
C30	C	0.998960	0.499842	0.341463
C31	C	0.471212	-0.000161	-0.094705
C32	C	0.971212	0.499839	0.405295
C33	C	0.515918	-0.000142	-0.031929
C34	C	1.015918	0.499858	0.468071
C35	C	0.588364	-0.000129	-0.032991
C36	C	1.088364	0.499871	0.467009
C37	C	0.362961	-0.034638	-0.044525
C38	C	0.862961	0.465362	0.455475
C39	C	0.290517	-0.034654	-0.043465
C40	C	0.790517	0.465346	0.456535
C41	C	0.247767	-0.000196	-0.091425
C42	C	0.747767	0.499804	0.408575
C43	C	0.277468	0.034270	-0.140456
C44	C	0.777468	0.534270	0.359544
C45	C	0.349913	0.034283	-0.141519
C46	C	0.849913	0.534283	0.358481
C47	C	0.392658	-0.000174	-0.093546
C48	C	0.892658	0.499826	0.406454
C49	C	0.124514	-0.000218	-0.153047
C50	C	0.624514	0.499782	0.346953
C51	C	0.052066	-0.000221	-0.151984
C52	C	0.552066	0.499779	0.348016
C53	C	0.069026	-0.000210	-0.025374
C54	C	0.569026	0.499790	0.474626
C55	C	0.141473	-0.000201	-0.026439
C56	C	0.641473	0.499799	0.473561
C57	C	0.169212	-0.000208	-0.090278
C58	C	0.669212	0.499792	0.409722
C59	C	0.862222	0.561707	-0.134509
C60	C	1.362222	1.061707	0.365491
C61	C	0.862230	0.623627	-0.134508
C62	C	1.362230	1.123627	0.365492
O63	O	0.897961	0.655634	-0.170225
O64	O	1.397961	1.155634	0.329775
N65	N	0.820241	0.654616	-0.092489
N66	N	1.320241	1.154616	0.407511
C67	C	0.778246	0.623682	-0.050463
C68	C	1.278246	1.123682	0.449537
O69	O	0.742532	0.655726	-0.014723
O70	O	1.242532	1.155726	0.485277
C71	C	0.778242	0.561763	-0.050461
C72	C	1.278242	1.061763	0.449539
C73	C	0.820229	0.530777	-0.092488
C74	C	1.320229	1.030777	0.407512
C75	C	0.904206	0.530721	-0.176532
C76	C	1.404206	1.030721	0.323468
C77	C	0.904197	0.468805	-0.176534
C78	C	1.404197	0.968805	0.323466
C79	C	0.862203	0.437876	-0.134513
C80	C	1.362203	0.937876	0.365487
C81	C	0.820219	0.468861	-0.092490
C82	C	1.320219	0.968861	0.407510
C83	C	0.736251	0.530830	-0.008432
C84	C	1.236251	1.030830	0.491568
C85	C	0.736251	0.468907	-0.008433
C86	C	1.236251	0.968907	0.491567
C87	C	0.778238	0.437921	-0.050460
C88	C	1.278238	0.937921	0.449540
C89	C	0.778217	0.376016	-0.050471
C90	C	1.278217	0.876016	0.449529
N91	N	0.820206	0.345027	-0.092490
N92	N	1.320206	0.845027	0.407510
C93	C	0.862200	0.375957	-0.134511
C94	C	1.362200	0.875957	0.365489
C95	C	0.778258	0.753715	-0.050470
C96	C	1.278258	1.253715	0.449530
C97	C	0.778258	0.815633	-0.050476
C98	C	1.278258	1.315633	0.449524
C99	C	0.862243	0.815574	-0.134519
C100	C	1.362243	1.315574	0.365481
C101	C	0.862239	0.753655	-0.134517
C102	C	1.362239	1.253655	0.365483
C103	C	0.820247	0.722726	-0.092489
C104	C	1.320247	1.222726	0.407511
C105	C	0.862177	0.245929	-0.134512
C106	C	1.362177	0.745929	0.365488
C107	C	0.862161	0.184008	-0.134512
C108	C	1.362161	0.684008	0.365488
C109	C	0.778179	0.184073	-0.050466
C110	C	1.278179	0.684073	0.449534
C111	C	0.778191	0.245989	-0.050468
C112	C	1.278191	0.745989	0.449532
C113	C	0.820195	0.276915	-0.092493
C114	C	1.320195	0.776915	0.407507
O115	O	0.742506	0.343969	-0.014770
O116	O	1.242506	0.843969	0.485230
O117	O	0.897914	0.343905	-0.170239
O118	O	1.397914	0.843905	0.329761
C119	C	0.947220	-0.000203	-0.087022
C120	C	1.447220	0.499797	0.412978
C121	C	1.024324	-0.000222	-0.088151
C122	C	1.524324	0.499778	0.411849
C123	C	0.825682	-0.000164	0.034516
C124	C	1.325682	0.499836	0.534516
C125	C	0.824553	-0.000159	0.111620
C126	C	1.324553	0.499841	0.611620
N127	N	0.820254	0.846568	-0.092494
N128	N	1.320254	1.346568	0.407506
C129	C	0.814745	-0.000190	-0.219497
C130	C	1.314745	0.499810	0.280503
C131	C	0.815874	-0.000200	-0.296601
C132	C	1.315874	0.499800	0.203399
C133	C	0.887321	-0.000168	0.156316
C134	C	1.387321	0.499832	0.656316
C135	C	0.886260	-0.000177	0.228763
C136	C	1.386260	0.499823	0.728763
C137	C	0.822428	-0.000165	0.256511
C138	C	1.322428	0.499835	0.756511
C139	C	0.759652	-0.000159	0.211805
C140	C	1.259652	0.499841	0.711805
C141	C	0.760714	-0.000156	0.139359
C142	C	1.260714	0.499844	0.639359
C143	C	0.772237	0.034301	0.364798
C144	C	1.272237	0.534301	0.864798
C145	C	0.771177	0.034302	0.437242
C146	C	1.271177	0.534302	0.937242
C147	C	0.819148	-0.000178	0.479956
C148	C	1.319148	0.499822	0.979956
C149	C	0.868191	-0.034650	0.450219
C150	C	1.368191	0.465350	0.950219
C151	C	0.869253	-0.034647	0.377773
C152	C	1.369253	0.465353	0.877773
C153	C	0.821269	-0.000169	0.335065
C154	C	1.321269	0.499831	0.835065
C155	C	0.880770	-0.000198	0.603209
C156	C	1.380770	0.499802	1.103209
C157	C	0.879707	-0.000211	0.675657
C158	C	1.379707	0.499789	1.175657
C159	C	0.753097	-0.000187	0.658697
C160	C	1.253097	0.499813	1.158697
C161	C	0.754162	-0.000180	0.586250
C162	C	1.254162	0.499820	1.086250
C163	C	0.818001	-0.000183	0.558511
C164	C	1.318001	0.499817	1.058511
H165	H	0.593987	-0.000159	-0.211580
H166	H	1.093987	0.499841	0.288420
H167	H	0.744056	0.728537	-0.016248
H168	H	1.244056	1.228537	0.483752
C169	C	0.908355	0.149927	-0.180744
C170	C	1.408355	0.649927	0.319256
N171	N	0.943149	0.124260	-0.215563
N172	N	1.443149	0.624260	0.284437
H173	H	0.930822	-0.000222	0.712049
H174	H	1.430822	0.499778	1.212049
H175	H	0.015674	-0.000230	-0.203099
H176	H	0.515674	0.499770	0.296901
H177	H	0.896381	0.271103	-0.168732
H178	H	1.396381	0.771103	0.331268
C179	C	0.719464	0.072237	0.317819
C180	C	1.219464	0.572237	0.817819
N181	N	0.679718	0.100810	0.282436
N182	N	1.179718	0.600810	0.782436
C183	C	0.950395	0.434729	-0.222758
C184	C	1.450395	0.934729	0.277242
N185	N	0.985197	0.409066	-0.257573
N186	N	1.485197	0.909066	0.242427
C187	C	0.230448	0.072180	-0.193215
C188	C	0.730448	0.572180	0.306785
N189	N	0.195029	0.100732	-0.232951
N190	N	0.695029	0.600732	0.267049
C191	C	0.689436	-0.000142	0.242328
C192	C	1.189436	0.499858	0.742328
N193	N	0.636547	-0.000129	0.265319
N194	N	1.136547	0.499871	0.765319
H195	H	0.709599	-0.000148	0.102967
H196	H	1.209599	0.499852	0.602967
H197	H	0.701123	-0.000180	0.681288
H198	H	1.201123	0.499820	1.181288
H199	H	0.147101	-0.000215	-0.205028
H200	H	0.647101	0.499785	0.294972
C201	C	0.038509	-0.000212	0.044843
C202	C	0.538509	0.499788	0.544843
N203	N	0.015519	-0.000212	0.097732
N204	N	0.515519	0.499788	0.597732
C205	C	0.690061	0.564901	0.037801
C206	C	1.190061	1.064901	0.537801
N207	N	0.655269	0.590562	0.072628
N208	N	1.155269	1.090562	0.572628
C209	C	0.257853	-0.072564	0.010474
C210	C	0.757853	0.427436	0.510474
N211	N	0.233253	-0.101116	0.051104
N212	N	0.733253	0.398884	0.551104
C213	C	0.685111	-0.000166	0.537082
C214	C	1.185111	0.499834	1.037082
N215	N	0.633099	-0.000158	0.500048
N216	N	1.133099	0.499842	1.000048
H217	H	0.702056	0.443728	0.025792
H218	H	1.202056	0.943728	0.525792
H219	H	0.624756	-0.000117	0.018124
H220	H	1.124756	0.499883	0.518124
H221	H	0.397764	-0.062702	-0.005469
H222	H	0.897764	0.437298	0.494531
C223	C	0.732002	0.280074	-0.004239
C224	C	1.232002	0.780074	0.495761
N225	N	0.697218	0.305743	0.030589
N226	N	1.197218	0.805743	0.530589
H227	H	0.374093	0.062349	-0.181440
H228	H	0.874093	0.562349	0.318560
C229	C	0.485395	-0.000145	0.038287
C230	C	0.985395	0.499855	0.538287
N231	N	0.462404	-0.000146	0.091176
N232	N	0.962404	0.499854	0.591176
H233	H	0.177866	-0.000192	0.024674
H234	H	0.677866	0.499808	0.524674
H235	H	0.938405	0.555897	-0.210750
H236	H	1.438405	1.055897	0.289250
H237	H	0.731241	0.062368	0.461449
H238	H	1.231241	0.562368	0.961449
C239	C	0.908433	0.719576	-0.180744
C240	C	1.408433	1.219576	0.319256
N241	N	0.943230	0.693911	-0.215562
N242	N	1.443230	1.193911	0.284438
C243	C	0.732061	0.849711	-0.004251
C244	C	1.232061	1.349711	0.495749
N245	N	0.697266	0.875376	0.030570
N246	N	1.197266	1.375376	0.530570
C247	C	0.449785	-0.000183	-0.227589
C248	C	0.949785	0.499817	0.272411
N249	N	0.412748	-0.000204	-0.279600
N250	N	0.912748	0.499796	0.220400
H251	H	0.743987	0.158879	-0.016256
H252	H	1.243987	0.658879	0.483744
C253	C	0.955312	-0.000184	0.277938
C254	C	1.455312	0.499816	0.777938
N255	N	1.007323	-0.000187	0.314975
N256	N	1.507323	0.499813	0.814975
H257	H	0.896435	0.840768	-0.168736
H258	H	1.396435	1.340768	0.331264
H259	H	0.939303	-0.000172	0.133736
H260	H	1.439303	0.499828	0.633736
C261	C	0.923194	-0.072570	0.345064
C262	C	1.423194	0.427430	0.845064
N263	N	0.963821	-0.101137	0.320427
N264	N	1.463821	0.398863	0.820427
H265	H	0.907253	-0.062727	0.484995
H266	H	1.407253	0.437273	0.984995
H267	H	0.932751	-0.000203	0.580622
H268	H	1.432751	0.499797	1.080622
