data_functionalizedCrystal
_audit_creation_method	'MofGen! by Chris Wilmer'
_symmetry_space_group_name_H-M	'P1'
_symmetry_Int_Tables_number	1
_symmetry_cell_setting	triclinic
loop_
_symmetry_equiv_pos_as_xyz
  x,y,z
_cell_length_a	13.897448
_cell_length_b	10.685969
_cell_length_c	13.897449
_cell_angle_alpha	94.372737
_cell_angle_beta	90.010270
_cell_angle_gamma	94.348258
loop_
_atom_site_label
_atom_site_type_symbol
_atom_site_fract_x
_atom_site_fract_y
_atom_site_fract_z
Zn1	Zn	-0.497105	-1.928901	0.432123
Zn2	Zn	-0.658364	-1.928817	0.270830
Zn3	Zn	-0.484739	-1.717942	0.283229
Zn4	Zn	-0.646004	-1.717863	0.444469
O5	O	-0.571553	-1.823381	0.357663
O6	O	-0.528844	-2.105461	0.400372
O7	O	-0.635330	-1.900841	0.137493
O8	O	-0.351402	-1.745994	0.303002
O9	O	-0.647320	-2.105400	0.281870
O10	O	-0.360487	-1.900985	0.412395
O11	O	-0.507769	-1.745912	0.146602
O12	O	-0.495784	-1.541359	0.314973
O13	O	-0.626255	-1.745860	0.577813
O14	O	-0.614264	-1.541302	0.433435
O15	O	-0.516859	-1.900909	0.568743
O16	O	-0.791702	-1.900765	0.293841
O17	O	-0.782621	-1.745779	0.421413
C18	C	-0.552342	-1.495548	0.376890
C19	C	-0.544146	-1.355299	0.385138
C20	C	-0.822162	-1.823288	0.357640
C21	C	-0.929380	-1.823365	0.357656
C22	C	-1.125683	-1.823497	0.357709
C23	C	-1.016446	-1.823420	0.357683
C24	C	-0.319967	-1.823507	0.357704
C25	C	-0.212757	-1.823561	0.357722
C26	C	-0.571557	-1.823385	0.609255
C27	C	-0.571559	-1.823387	0.716469
C28	C	-0.590831	-1.152494	0.338350
C29	C	-0.599022	-1.292742	0.330092
C30	C	-0.571562	-1.823355	0.912766
C31	C	-0.571563	-1.823369	0.803533
C32	C	-0.571568	-1.823364	1.107049
C33	C	-0.571559	-1.823354	0.999836
H34	H	-0.490896	-1.301563	0.438581
H35	H	-0.652284	-1.346485	0.276654
