data_functionalizedCrystal
_audit_creation_method	'MofGen! by Chris Wilmer'
_symmetry_space_group_name_H-M	'P1'
_symmetry_Int_Tables_number	1
_symmetry_cell_setting	triclinic
loop_
_symmetry_equiv_pos_as_xyz
  x,y,z
_cell_length_a	19.805407
_cell_length_b	21.295417
_cell_length_c	19.805399
_cell_angle_alpha	90.030843
_cell_angle_beta	90.019573
_cell_angle_gamma	90.030507
loop_
_atom_site_label
_atom_site_type_symbol
_atom_site_fract_x
_atom_site_fract_y
_atom_site_fract_z
Zn1	Zn	1.034716	-0.250624	0.382704
Zn2	Zn	1.534716	0.249376	0.882704
Zn3	Zn	1.034623	-0.355893	0.269510
Zn4	Zn	1.534623	0.144107	0.769510
Zn5	Zn	0.921531	-0.250641	0.269529
Zn6	Zn	1.421531	0.249359	0.769529
Zn7	Zn	0.921486	-0.355859	0.382656
Zn8	Zn	1.421486	0.144141	0.882656
O9	O	0.978089	-0.303254	0.326100
O10	O	1.478089	0.196746	0.826100
O11	O	1.129421	-0.264595	0.367701
O12	O	1.629421	0.235405	0.867701
O13	O	1.019601	-0.341952	0.174796
O14	O	1.519601	0.158048	0.674796
O15	O	0.936603	-0.162549	0.284570
O16	O	1.436603	0.337451	0.784570
O17	O	1.129352	-0.341935	0.284537
O18	O	1.629352	0.158065	0.784537
O19	O	1.019760	-0.162537	0.367719
O20	O	1.519760	0.337463	0.867719
O21	O	0.936513	-0.264624	0.174810
O22	O	1.436513	0.235376	0.674810
O23	O	0.826809	-0.264592	0.284523
O24	O	1.326809	0.235408	0.784523
O25	O	0.936527	-0.341878	0.477379
O26	O	1.436527	0.158122	0.977379
O27	O	0.826776	-0.341895	0.367638
O28	O	1.326776	0.158105	0.867638
O29	O	1.019717	-0.264562	0.477415
O30	O	1.519717	0.235438	0.977415
O31	O	1.019558	-0.443977	0.284491
O32	O	1.519558	0.056023	0.784491
O33	O	0.936437	-0.443953	0.367619
O34	O	1.436437	0.056047	0.867619
C35	C	0.802233	-0.303242	0.326078
C36	C	1.302233	0.196758	0.826078
C37	C	0.727001	-0.303252	0.326085
C38	C	1.227001	0.196748	0.826085
C39	C	0.691658	-0.343564	0.369292
C40	C	1.191658	0.156436	0.869292
C41	C	0.620969	-0.343566	0.369302
C42	C	1.120969	0.156434	0.869302
C43	C	0.585626	-0.303257	0.326100
C44	C	1.085626	0.196743	0.826100
C45	C	0.620974	-0.262940	0.282890
C46	C	1.120974	0.237060	0.782890
C47	C	0.691661	-0.262936	0.282885
C48	C	1.191661	0.237064	0.782885
C49	C	0.335901	-0.262954	0.282913
C50	C	0.835901	0.237046	0.782913
C51	C	0.265209	-0.262962	0.282920
C52	C	0.765209	0.237038	0.782920
C53	C	0.265209	-0.343583	0.369330
C54	C	0.765209	0.156417	0.869330
C55	C	0.335896	-0.343579	0.369324
C56	C	0.835896	0.156421	0.869324
C57	C	0.371238	-0.303261	0.326117
C58	C	0.871238	0.196739	0.826117
C59	C	0.447887	-0.303259	0.326109
C60	C	0.947887	0.196741	0.826109
C61	C	0.508979	-0.303261	0.326105
C62	C	1.008979	0.196739	0.826105
C63	C	0.978001	-0.466806	0.326062
C64	C	1.478001	0.033194	0.826062
C65	C	0.978024	-0.536774	0.326069
C66	C	1.478024	-0.036774	0.826069
C67	C	1.021344	-0.569632	0.282828
C68	C	1.521344	-0.069632	0.782828
C69	C	1.021376	-0.635375	0.282844
C70	C	1.521376	-0.135375	0.782844
C71	C	0.978076	-0.668256	0.326092
C72	C	1.478076	-0.168256	0.826092
C73	C	0.934753	-0.635390	0.369341
C74	C	1.434753	-0.135390	0.869341
C75	C	0.934728	-0.569649	0.369330
C76	C	1.434728	-0.069649	0.869330
N77	N	0.918865	-0.771522	0.331245
N78	N	1.418865	-0.271522	0.831245
N79	N	0.918892	-0.833974	0.331252
N80	N	1.418892	-0.333974	0.831252
C81	C	0.978152	-0.866331	0.326131
C82	C	1.478152	-0.366331	0.826131
N83	N	1.037386	-0.833878	0.320989
N84	N	1.537386	-0.333878	0.820989
N85	N	1.037358	-0.771421	0.320979
N86	N	1.537358	-0.271421	0.820979
C87	C	0.978099	-0.739542	0.326110
C88	C	1.478099	-0.239542	0.826110
C89	C	1.021509	-0.970475	0.282905
C90	C	1.521509	-0.470475	0.782905
C91	C	1.021542	-1.036219	0.282925
C92	C	1.521542	-0.536219	0.782925
C93	C	0.934914	-1.036233	0.369419
C94	C	1.434914	-0.536233	0.869419
C95	C	0.934887	-0.970490	0.369402
C96	C	1.434887	-0.470490	0.869402
C97	C	0.978184	-0.937615	0.326142
C98	C	1.478184	-0.437615	0.826142
C99	C	1.154632	-0.303267	0.326122
C100	C	1.654632	0.196733	0.826122
C101	C	1.229864	-0.303272	0.326132
C102	C	1.729864	0.196728	0.826132
C103	C	0.978127	-0.303214	0.502643
C104	C	1.478127	0.196786	1.002643
C105	C	0.978143	-0.303198	0.577875
C106	C	1.478143	0.196802	1.077875
C107	C	0.978197	-0.139064	0.326152
C108	C	1.478197	0.360936	0.826152
C109	C	0.978243	-0.069096	0.326175
C110	C	1.478243	0.430904	0.826175
C111	C	0.978090	-0.303248	0.150244
C112	C	1.478090	0.196752	0.650244
C113	C	0.978205	-0.303088	0.075012
C114	C	1.478205	0.196912	0.575012
C115	C	1.021461	-0.262937	0.613238
C116	C	1.521461	0.237063	1.113238
C117	C	1.021468	-0.262919	0.683927
C118	C	1.521468	0.237081	1.183927
C119	C	0.978160	-0.303165	0.719250
C120	C	1.478160	0.196835	1.219250
C121	C	0.934838	-0.343427	0.683882
C122	C	1.434838	0.156573	1.183882
C123	C	0.934828	-0.343442	0.613195
C124	C	1.434828	0.156558	1.113195
C125	C	0.934876	-0.343368	0.968955
C126	C	1.434876	0.156632	1.468955
C127	C	0.934891	-0.343352	1.039647
C128	C	1.434891	0.156648	1.539647
C129	C	1.021516	-0.262846	1.039687
C130	C	1.521516	0.237154	1.539687
C131	C	1.021506	-0.262860	0.969000
C132	C	1.521506	0.237140	1.469000
C133	C	0.978182	-0.303120	0.933638
C134	C	1.478182	0.196880	1.433638
C135	C	0.978174	-0.303138	0.856989
C136	C	1.478174	0.196862	1.356989
C137	C	0.978171	-0.303150	0.795897
C138	C	1.478171	0.196850	1.295897
H139	H	0.592192	-0.230118	0.247718
H140	H	1.092192	0.269882	0.747718
N141	N	0.890640	-0.936924	0.413578
N142	N	1.390640	-0.436924	0.913578
N143	N	0.895099	-0.944224	0.476039
N144	N	1.395099	-0.444224	0.976039
H145	H	0.863850	-0.920519	0.507244
H146	H	1.363850	-0.420519	1.007244
H147	H	0.720429	-0.376391	0.404470
H148	H	1.220429	0.123609	0.904470
H149	H	0.592196	-0.376393	0.404485
H150	H	1.092196	0.123607	0.904485
H151	H	0.364669	-0.376405	0.404501
H152	H	0.864669	0.123595	0.904501
N153	N	0.890619	-0.384483	0.932834
N154	N	1.390619	0.115517	1.432834
N155	N	0.847493	-0.362335	0.893396
N156	N	1.347493	0.137665	1.393396
H157	H	0.816232	-0.391373	0.867883
H158	H	1.316232	0.108627	1.367883
N159	N	1.065769	-0.221724	1.075821
N160	N	1.565769	0.278276	1.575821
N161	N	1.065774	-0.221713	1.138934
N162	N	1.565774	0.278287	1.638934
H163	H	1.097028	-0.192673	1.164453
H164	H	1.597028	0.307327	1.664453
N165	N	1.065709	-0.221826	0.577170
N166	N	1.565709	0.278174	1.077170
N167	N	1.104381	-0.185882	0.608756
N168	N	1.604381	0.314118	1.108756
H169	H	1.135631	-0.156844	0.583285
H170	H	1.635631	0.343156	1.083285
N171	N	0.229096	-0.384766	0.413461
N172	N	0.729096	0.115234	0.913461
N173	N	0.165983	-0.384767	0.413463
N174	N	0.665983	0.115233	0.913463
H175	H	0.140479	-0.413853	0.444628
H176	H	0.640479	0.086147	0.944628
H177	H	0.899621	-0.376126	1.068406
H178	H	1.399621	0.123874	1.568406
H179	H	0.899451	-0.542895	0.404542
H180	H	1.399451	-0.042895	0.904542
N181	N	0.890512	-0.668975	0.413507
N182	N	1.390512	-0.168975	0.913507
N183	N	0.828056	-0.661686	0.408955
N184	N	1.328056	-0.161686	0.908955
H185	H	0.796809	-0.685406	0.440149
H186	H	1.296809	-0.185406	0.940149
N187	N	1.065567	-0.536044	0.238645
N188	N	1.565567	-0.036044	0.738645
N189	N	1.108668	-0.499300	0.262481
N190	N	1.608668	0.000700	0.762481
H191	H	1.139896	-0.475573	0.231274
H192	H	1.639896	0.024427	0.731274
N193	N	0.229115	-0.221783	0.238783
N194	N	0.729115	0.278217	0.738783
N195	N	0.260678	-0.185787	0.200209
N196	N	0.760678	0.314213	0.700209
H197	H	0.235187	-0.156706	0.169037
H198	H	0.735187	0.343294	0.669037
N199	N	0.890598	-0.384528	0.719972
N200	N	1.390598	0.115472	1.219972
N201	N	0.890612	-0.384511	0.783085
N202	N	1.390612	0.115489	1.283085
H203	H	0.859367	-0.413540	0.808574
H204	H	1.359367	0.086460	1.308574
N205	N	0.371986	-0.221771	0.238772
N206	N	0.871986	0.278229	0.738772
N207	N	0.340418	-0.185789	0.200199
N208	N	0.840418	0.314211	0.700199
H209	H	0.365905	-0.156703	0.169020
H210	H	0.865905	0.343297	0.669020
H211	H	0.720437	-0.230107	0.247704
H212	H	1.220437	0.269893	0.747704
H213	H	0.899547	-0.376219	0.584402
H214	H	1.399547	0.123781	1.084402
H215	H	1.056654	-0.662134	0.247632
H216	H	1.556654	-0.162134	0.747632
H217	H	1.056822	-1.062971	0.247714
H218	H	1.556822	-0.562971	0.747714
H219	H	1.056767	-0.943707	0.247681
H220	H	1.556767	-0.443707	0.747681
H221	H	0.899661	-1.063004	0.404636
H222	H	1.399661	-0.563004	0.904636
N223	N	1.065720	-0.221790	0.720039
N224	N	1.565720	0.278210	1.220039
N225	N	1.104388	-0.185863	0.688492
N226	N	1.604388	0.314137	1.188492
H227	H	1.135644	-0.156813	0.713996
H228	H	1.635644	0.343187	1.213996
H229	H	1.056774	-0.230090	0.940243
H230	H	1.556774	0.269910	1.440243
