data_functionalizedCrystal
_audit_creation_method	'MofGen! by Chris Wilmer'
_symmetry_space_group_name_H-M	'P1'
_symmetry_Int_Tables_number	1
_symmetry_cell_setting	triclinic
loop_
_symmetry_equiv_pos_as_xyz
  x,y,z
_cell_length_a	12.645330
_cell_length_b	13.897449
_cell_length_c	13.897441
_cell_angle_alpha	90.018596
_cell_angle_beta	89.973671
_cell_angle_gamma	89.981028
loop_
_atom_site_label
_atom_site_type_symbol
_atom_site_fract_x
_atom_site_fract_y
_atom_site_fract_z
Zn1	Zn	-0.421980	-1.474682	-0.545403
Zn2	Zn	0.078020	-0.974682	-0.045403
Zn3	Zn	-0.599272	-1.474582	-0.384114
Zn4	Zn	-0.099272	-0.974582	0.115886
Zn5	Zn	-0.422027	-1.313377	-0.384122
Zn6	Zn	0.077973	-0.813377	0.115878
Zn7	Zn	-0.599205	-1.313353	-0.545367
Zn8	Zn	-0.099205	-0.813353	-0.045367
O9	O	-0.510621	-1.393999	-0.464751
O10	O	-0.010621	-0.893999	0.035249
O11	O	-0.445506	-1.609651	-0.524020
O12	O	0.054494	-1.109651	-0.024020
O13	O	-0.575808	-1.453166	-0.249133
O14	O	-0.075808	-0.953166	0.250867
O15	O	-0.273673	-1.334827	-0.405535
O16	O	0.226327	-0.834827	0.094465
O17	O	-0.575762	-1.609577	-0.405521
O18	O	-0.075762	-1.109577	0.094479
O19	O	-0.273639	-1.453337	-0.524028
O20	O	0.226361	-0.953337	-0.024028
O21	O	-0.445587	-1.334730	-0.249139
O22	O	0.054413	-0.834730	0.250861
O23	O	-0.445522	-1.178393	-0.405499
O24	O	0.054478	-0.678393	0.094501
O25	O	-0.575648	-1.334785	-0.680353
O26	O	-0.075648	-0.834785	-0.180353
O27	O	-0.575694	-1.178375	-0.523965
O28	O	-0.075694	-0.678375	-0.023965
O29	O	-0.445441	-1.453313	-0.680380
O30	O	0.054559	-0.953313	-0.180380
O31	O	-0.747610	-1.453143	-0.405486
O32	O	-0.247610	-0.953143	0.094514
O33	O	-0.747561	-1.334689	-0.523957
O34	O	-0.247561	-0.834689	-0.023957
C35	C	-0.510607	-1.143384	-0.464729
C36	C	-0.010607	-0.643384	0.035271
C37	C	-0.510626	-1.036171	-0.464743
C38	C	-0.010626	-0.536171	0.035257
C39	C	-0.786051	-1.393928	-0.464738
C40	C	-0.286051	-0.893928	0.035262
C41	C	-0.903881	-1.393987	-0.464764
C42	C	-0.403881	-0.893987	0.035236
C43	C	-0.510532	-1.394058	-0.716344
C44	C	-0.010532	-0.894058	-0.216344
C45	C	-0.510494	-1.394083	-0.823558
C46	C	-0.010494	-0.894083	-0.323558
C47	C	-1.071458	-1.319774	-0.539525
C48	C	-0.571458	-0.819774	-0.039525
C49	C	-0.948899	-1.319395	-0.539284
C50	C	-0.448899	-0.819395	-0.039284
C51	C	-0.948478	-1.366471	-0.363109
C52	C	-0.448478	-0.866471	0.136891
C53	C	-1.071077	-1.366018	-0.363563
C54	C	-0.571077	-0.866018	0.136437
C55	C	-1.070967	-1.496168	-0.490835
C56	C	-0.570967	-0.996168	0.009165
C57	C	-0.948360	-1.495542	-0.493058
C58	C	-0.448360	-0.995542	0.006942
C59	C	-0.234116	-1.394096	-0.464786
C60	C	0.265884	-0.894096	0.035214
C61	C	-0.116286	-1.394137	-0.464801
C62	C	0.383714	-0.894137	0.035199
C63	C	-0.510636	-1.645592	-0.464774
C64	C	-0.010636	-1.145592	0.035226
C65	C	-0.510642	-1.752806	-0.464784
C66	C	-0.010642	-1.252806	0.035216
C67	C	-0.510630	-0.839875	-0.464768
C68	C	-0.010630	-0.339875	0.035232
C69	C	-0.510625	-0.949108	-0.464751
C70	C	-0.010625	-0.449108	0.035249
C71	C	-0.510464	-1.394103	-0.910628
C72	C	-0.010464	-0.894103	-0.410628
C73	C	-0.510416	-1.394130	-1.019861
C74	C	-0.010416	-0.894130	-0.519861
C75	C	-0.510633	-1.393995	-0.214137
C76	C	-0.010633	-0.893995	0.285863
C77	C	-0.510372	-1.394157	-0.106924
C78	C	-0.010372	-0.894157	0.393076
H79	H	-0.918742	-1.336610	-0.614661
H80	H	-0.418742	-0.836610	-0.114661
Br81	Br	-1.120477	-1.348196	-0.665576
Br82	Br	-0.620477	-0.848196	-0.165576
H83	H	-1.100734	-1.417831	-0.305989
H84	H	-0.600734	-0.917831	0.194011
H85	H	-1.099955	-1.551570	-0.436411
H86	H	-0.599955	-1.051570	0.063589
Br87	Br	-1.122992	-1.194490	-0.511171
Br88	Br	-0.622992	-0.694490	-0.011171
Br89	Br	-0.900166	-1.193318	-0.510544
Br90	Br	-0.400166	-0.693318	-0.010544
Br91	Br	-1.122370	-1.538006	-0.612285
Br92	Br	-0.622370	-1.038006	-0.112285
Br93	Br	-0.899887	-1.453881	-0.267772
Br94	Br	-0.399887	-0.953881	0.232228
H95	H	-0.919207	-1.516293	-0.567871
H96	H	-0.419207	-1.016293	-0.067871
Br97	Br	-1.118908	-1.241705	-0.326802
Br98	Br	-0.618908	-0.741705	0.173198
Br99	Br	-0.897470	-1.243451	-0.325681
Br100	Br	-0.397470	-0.743451	0.174319
H101	H	-0.917709	-1.553863	-0.442596
H102	H	-0.417709	-1.053863	0.057404
