data_functionalizedCrystal
_audit_creation_method	'MofGen! by Chris Wilmer'
_symmetry_space_group_name_H-M	'P1'
_symmetry_Int_Tables_number	1
_symmetry_cell_setting	triclinic
loop_
_symmetry_equiv_pos_as_xyz
  x,y,z
_cell_length_a	9.065218
_cell_length_b	12.503552
_cell_length_c	9.065218
_cell_angle_alpha	93.573739
_cell_angle_beta	94.984115
_cell_angle_gamma	93.575569
loop_
_atom_site_label
_atom_site_type_symbol
_atom_site_fract_x
_atom_site_fract_y
_atom_site_fract_z
O1	O	1.968806	0.089319	-0.207941
O2	O	1.539521	0.089320	-0.225688
O3	O	1.763037	0.089317	-0.002172
O4	O	1.745291	0.089322	-0.431457
O5	O	1.746208	-0.089325	-0.018997
O6	O	1.522692	-0.089322	-0.242512
O7	O	1.951977	-0.089323	-0.224766
Cu8	Cu	1.735798	-0.105634	-0.235175
Cu9	Cu	1.755700	0.105631	-0.215278
O10	O	1.728462	-0.089320	-0.448281
C11	C	1.476120	-0.000001	-0.232394
C12	C	1.312277	-0.000000	-0.227294
N13	N	1.721810	-0.254227	-0.249168
C14	C	1.790268	-0.526661	-0.180683
C15	C	1.701247	-0.473335	-0.269754
C16	C	1.712691	-0.351412	-0.258297
C17	C	1.778825	-0.648595	-0.192138
C18	C	2.015378	0.000000	-0.218059
C19	C	2.179222	0.000007	-0.223158
C20	C	1.752917	-0.000002	0.044402
C21	C	1.747818	0.000003	0.208246
N22	N	1.769699	0.254224	-0.201273
C23	C	1.738582	0.000001	-0.494855
C24	C	1.743682	0.000003	-0.658698
H25	H	1.616439	-0.519250	-0.354614
H26	H	1.875072	-0.480751	-0.095830
