data_functionalizedCrystal
_audit_creation_method	'MofGen! by Chris Wilmer'
_symmetry_space_group_name_H-M	'P1'
_symmetry_Int_Tables_number	1
_symmetry_cell_setting	triclinic
loop_
_symmetry_equiv_pos_as_xyz
  x,y,z
_cell_length_a	23.096457
_cell_length_b	23.096457
_cell_length_c	14.395555
_cell_angle_alpha	59.997528
_cell_angle_beta	89.995804
_cell_angle_gamma	59.999106
loop_
_atom_site_label
_atom_site_type_symbol
_atom_site_fract_x
_atom_site_fract_y
_atom_site_fract_z
Zr1	Zr	0.557793	0.633728	-0.121912
O2	O	0.465347	0.754522	-0.270236
O3	O	0.586131	0.512939	-0.076444
O4	O	0.586136	0.633731	-0.270243
O5	O	0.465341	0.633725	0.076437
O6	O	0.681418	0.633729	-0.270246
O7	O	0.465342	0.633729	-0.076437
O8	O	0.681409	0.417653	0.076424
O9	O	0.465350	0.849801	-0.270234
O10	O	0.669327	0.562618	-0.057053
O11	O	0.598218	0.562616	0.057038
O12	O	0.598224	0.704834	-0.171135
O13	O	0.527114	0.704833	-0.057045
Zr14	Zr	0.709755	0.633717	0.121900
Zr15	Zr	0.709757	0.633724	-0.121917
Zr16	Zr	0.557790	0.633721	0.121905
Zr17	Zr	0.557797	0.785687	-0.121908
Zr18	Zr	0.709751	0.481758	0.121896
O19	O	0.681417	0.754507	0.076432
O20	O	0.681421	0.754517	-0.270243
O21	O	0.465344	0.754512	0.076440
O22	O	0.802201	0.512924	0.270224
O23	O	0.802204	0.512933	-0.076452
O24	O	0.586127	0.512929	0.270231
O25	O	0.802207	0.633721	-0.076449
O26	O	0.681412	0.633714	0.270231
O27	O	0.586130	0.633716	0.270234
O28	O	0.802206	0.633717	0.076425
O29	O	0.586141	0.849798	-0.270238
O30	O	0.681407	0.417647	0.270226
O31	O	0.802198	0.417644	0.270222
O32	O	0.802200	0.417650	0.076420
O33	O	0.465348	0.849796	-0.076432
O34	O	0.586139	0.849793	-0.076436
O35	O	0.669324	0.562611	0.171123
O36	O	0.740434	0.562613	0.057033
O37	O	0.669330	0.704829	-0.057050
O38	O	0.598221	0.704828	0.057041
C39	C	0.633769	0.443645	-0.000011
C40	C	0.633768	0.379134	-0.000012
C41	C	0.581295	-0.028894	-0.084224
C42	C	0.581289	0.031725	-0.084223
C43	C	0.633779	0.009544	-0.000007
C44	C	0.686269	-0.073265	0.084232
C45	C	0.686269	-0.133882	0.084236
N46	N	0.696027	0.065644	0.025491
N47	N	0.696024	0.123230	0.025480
C48	C	0.633780	0.192174	-0.000011
N49	N	0.571535	0.201365	-0.025513
N50	N	0.571539	0.143775	-0.025508
C51	C	0.633784	0.075266	-0.000001
C52	C	0.581284	0.340702	-0.084239
C53	C	0.581278	0.401320	-0.084231
C54	C	0.686263	0.296327	0.084221
C55	C	0.686264	0.235712	0.084216
C56	C	0.633775	0.257905	-0.000019
C57	C	0.443690	0.633727	0.000001
C58	C	0.379177	0.633729	0.000003
C59	C	0.348875	0.633737	-0.084222
C60	C	0.288263	0.633730	-0.084222
C61	C	0.257947	0.633730	-0.000005
C62	C	0.288258	0.633717	0.084234
C63	C	0.348873	0.633717	0.084239
N64	N	0.139595	0.680085	0.025492
N65	N	0.082013	0.680088	0.025481
C66	C	0.075317	0.633731	-0.000011
N67	N	0.128375	0.587382	-0.025514
N68	N	0.185961	0.587383	-0.025509
C69	C	0.192220	0.633731	-0.000000
C70	C	-0.020707	0.633730	-0.084241
C71	C	-0.081318	0.633717	-0.084233
C72	C	-0.081325	0.633713	0.084219
C73	C	-0.020712	0.633718	0.084216
C74	C	0.009592	0.633730	-0.000020
C75	C	0.823858	0.633718	-0.000012
C76	C	0.888371	0.633717	-0.000015
C77	C	0.633777	0.633731	-0.304983
C78	C	0.633778	0.633734	-0.408490
C79	C	0.633779	0.823801	-0.000001
C80	C	0.633780	0.888312	0.000000
C81	C	0.595002	0.711277	-0.531281
C82	C	0.661859	0.672512	-0.562124
C83	C	0.566925	0.672496	-0.562070
C84	C	0.700675	0.594969	-0.437969
C85	C	0.605693	0.594964	-0.437919
C86	C	0.672590	0.556142	-0.468688
C87	C	0.633771	0.633714	0.304971
C88	C	0.633770	0.633711	0.408478
C89	C	0.823853	0.443640	-0.000017
C90	C	0.888365	0.379128	-0.000021
C91	C	0.633766	0.443636	0.304967
C92	C	0.633763	0.379122	0.408472
C93	C	0.823850	0.443632	0.304960
C94	C	0.888360	0.379116	0.408463
C95	C	0.443698	0.823814	-0.304972
C96	C	0.379188	0.888329	-0.408475
C97	C	0.443695	0.823805	0.000005
C98	C	0.379183	0.888318	0.000009
C99	C	0.633782	0.823809	-0.304979
C100	C	0.633785	0.888323	-0.408483
C101	C	0.881543	0.348835	-0.059584
C102	C	0.942152	0.288227	-0.059611
C103	C	1.009583	0.257909	-0.000066
C104	C	1.016403	0.288208	0.059499
C105	C	0.955794	0.348819	0.059518
C106	C	0.670879	0.348824	0.516640
C107	C	0.670874	0.288215	0.613904
C108	C	0.633756	0.257901	0.602996
C109	C	0.596636	0.288206	0.494815
C110	C	0.596638	0.348818	0.397555
C111	C	0.955779	0.348820	0.397515
C112	C	1.016399	0.288210	0.494757
C113	C	1.009598	0.257892	0.602947
C114	C	0.942172	0.288195	0.613893
C115	C	0.881554	0.348808	0.516651
C116	C	0.311768	0.918633	-0.397527
C117	C	0.251149	0.979262	-0.494769
C118	C	0.257950	1.009582	-0.602959
C119	C	0.325376	0.979276	-0.613905
C120	C	0.385994	0.918652	-0.516663
C121	C	0.386005	0.918617	0.059562
C122	C	0.325396	0.979242	0.059562
C123	C	0.257965	1.009561	0.000014
C124	C	0.251145	0.979259	-0.059547
C125	C	0.311754	0.918640	-0.059552
C126	C	0.670909	0.918617	-0.397539
C127	C	0.670926	0.979226	-0.494783
C128	C	0.633813	1.009545	-0.602972
C129	C	0.596687	0.979245	-0.613914
C130	C	0.596676	0.918633	-0.516670
H131	H	0.538544	0.358774	-0.152827
H132	H	0.566441	0.893974	-0.525598
N133	N	1.089137	0.255491	0.123727
H134	H	1.094820	0.230330	0.207041
H135	H	1.094789	0.301760	0.092417
H136	H	0.538536	0.468739	-0.152817
N137	N	0.710926	0.255526	0.730571
H138	H	0.705295	0.212530	0.790539
H139	H	0.691445	0.301822	0.739573
H140	H	0.208620	1.058921	0.000028
H141	H	0.562269	0.776846	-0.556721
N142	N	-0.114010	0.633705	0.175063
H143	H	-0.157007	0.633704	0.162284
H144	H	-0.128659	0.684189	0.171347
H145	H	1.058928	0.208555	-0.000090
N146	N	0.808839	0.381464	0.528473
H147	H	0.771463	0.424461	0.450461
H148	H	0.803222	0.406563	0.571485
N149	N	0.011981	0.633699	0.175066
H150	H	-0.016418	0.633694	0.228423
H151	H	0.011894	0.684181	0.138252
N152	N	0.808820	0.381524	-0.123812
H153	H	0.771452	0.424516	-0.114767
H154	H	0.803212	0.335225	-0.092542
H155	H	0.566416	0.373480	0.309482
H156	H	0.581922	0.562220	-0.384401
N157	N	0.458731	0.885923	0.123785
H158	H	0.464410	0.860779	0.207096
H159	H	0.464363	0.932209	0.092444
N160	N	0.742874	0.272392	0.175064
H161	H	0.734909	0.323355	0.162285
H162	H	0.791042	0.238872	0.171347
N163	N	0.524681	-0.004949	-0.175079
H164	H	0.476488	0.028555	-0.171407
H165	H	0.532703	-0.055945	-0.162257
N166	N	0.556611	0.255502	0.483055
H167	H	0.519260	0.266046	0.520758
H168	H	0.590712	0.194664	0.520747
H169	H	0.961331	0.373496	0.309430
H170	H	0.936645	0.263501	0.701994
H171	H	0.306189	0.893972	-0.108045
H172	H	1.071295	0.263544	0.485825
N173	N	1.074983	0.192516	0.707824
H174	H	1.118722	0.177927	0.684461
H175	H	1.074952	0.142257	0.754591
H176	H	0.729005	-0.091322	0.152804
H177	H	0.196253	1.003927	-0.485835
N178	N	0.304414	0.885948	-0.280850
H179	H	0.327913	0.896491	-0.237844
H180	H	0.327889	0.825112	-0.237935
N181	N	0.710908	0.381517	0.528427
H182	H	0.705283	0.424513	0.450406
H183	H	0.762815	0.335222	0.571440
N184	N	0.934787	0.255556	-0.123860
H185	H	0.882872	0.283957	-0.161566
H186	H	0.958319	0.194706	-0.069189
H187	H	0.208584	1.058946	-0.682130
H188	H	0.330905	1.003971	-0.702004
H189	H	0.538540	0.099149	-0.152797
N190	N	0.332764	1.011925	0.123789
H191	H	0.284141	1.054938	0.114749
H192	H	0.359579	1.037013	0.092501
N193	N	0.742881	-0.223188	0.175079
H194	H	0.776134	-0.228046	0.228434
H195	H	0.770413	-0.250623	0.138245
H196	H	0.196235	1.003955	-0.108029
H197	H	0.440889	0.893980	-0.525591
N198	N	0.011983	0.633740	-0.175088
H199	H	0.026682	0.583255	-0.171412
H200	H	0.054951	0.633776	-0.162258
H201	H	0.729005	0.168294	0.152797
N202	N	0.693327	0.715915	-0.633023
H203	H	0.664006	0.774495	-0.657523
H204	H	0.693514	0.715056	-0.702483
N205	N	0.710940	0.885925	-0.280858
H206	H	0.734460	0.914318	-0.288698
H207	H	0.748251	0.825075	-0.237917
N208	N	0.710972	1.011897	-0.482967
H209	H	0.734473	0.983495	-0.399673
H210	H	0.676898	1.072747	-0.520723
N211	N	0.633837	1.074912	-0.707851
H212	H	0.662990	1.089497	-0.684490
H213	H	0.583552	1.125176	-0.754626
H214	H	0.566471	1.003940	-0.702014
H215	H	0.373548	0.633744	-0.152810
H216	H	0.961359	0.373476	0.108029
N217	N	-0.113999	0.633727	-0.175086
H218	H	-0.164390	0.684210	-0.219332
H219	H	-0.113854	0.583207	-0.138269
N220	N	0.255558	0.633747	-0.175067
H221	H	0.291340	0.583269	-0.171410
H222	H	0.240858	0.684271	-0.252335
N223	N	0.255569	0.633708	0.175078
H224	H	0.212571	0.633710	0.162295
H225	H	0.240922	0.684190	0.171368
H226	H	0.757235	0.562214	-0.384613
N227	N	0.633759	0.192526	0.707903
H228	H	0.662908	0.177933	0.778080
H229	H	0.654869	0.142267	0.707853
H230	H	0.705423	0.490519	-0.443033
N231	N	0.492040	0.715917	-0.632916
H232	H	0.480102	0.764008	-0.711102
H233	H	0.458064	0.736047	-0.594943
N234	N	0.381565	0.633698	0.175093
H235	H	0.353169	0.633691	0.228451
H236	H	0.381475	0.684182	0.138274
