data_functionalizedCrystal
_audit_creation_method	'MofGen! by Chris Wilmer'
_symmetry_space_group_name_H-M	'P1'
_symmetry_Int_Tables_number	1
_symmetry_cell_setting	triclinic
loop_
_symmetry_equiv_pos_as_xyz
  x,y,z
_cell_length_a	12.784905
_cell_length_b	8.597299
_cell_length_c	11.295675
_cell_angle_alpha	78.153499
_cell_angle_beta	86.338485
_cell_angle_gamma	100.727065
loop_
_atom_site_label
_atom_site_type_symbol
_atom_site_fract_x
_atom_site_fract_y
_atom_site_fract_z
O1	O	1.403222	-0.021600	0.101245
O2	O	1.093969	-0.089528	0.108213
O3	O	1.256364	0.176503	0.080918
O4	O	1.240827	-0.287631	0.128540
O5	O	1.270594	0.199832	-0.119520
O6	O	1.108199	-0.066200	-0.092225
O7	O	1.417452	0.001729	-0.099193
Cu8	Cu	1.264125	-0.030105	-0.114011
Cu9	Cu	1.247296	-0.057694	0.123031
O10	O	1.255057	-0.264303	-0.071898
C11	C	1.061498	-0.082282	0.008447
C12	C	0.943543	-0.095427	0.009796
C13	C	0.746361	0.172383	-0.017661
C14	C	0.635533	0.160040	-0.016395
C15	C	0.611056	-0.132456	0.013603
C16	C	0.721884	-0.120113	0.012337
C17	C	0.789533	0.032312	-0.003298
C18	C	0.900364	0.044655	-0.004572
C19	C	0.875885	-0.247840	0.025434
C20	C	0.765057	-0.260184	0.026700
C21	C	1.262604	0.247165	-0.025351
C22	C	1.259984	0.422958	-0.043381
C23	C	1.449923	-0.005518	0.000575
C24	C	1.567877	0.007626	-0.000765
N25	N	1.275969	-0.010699	-0.280733
C26	C	1.248818	0.665035	0.034375
C27	C	1.251441	0.489242	0.052413
C28	C	1.150079	-0.216881	-0.508922
C29	C	1.159054	-0.202197	-0.635088
C30	C	1.302899	0.033345	-0.659234
C31	C	1.293924	0.018661	-0.533067
C32	C	1.217510	-0.106455	-0.457915
C33	C	1.208531	-0.121130	-0.331748
C34	C	1.352380	0.114403	-0.355895
C35	C	1.361355	0.129087	-0.482061
N36	N	1.235461	-0.077087	0.289752
H37	H	0.555957	-0.256554	0.026347
H38	H	1.146309	-0.223002	-0.270560
Cl39	Cl	0.581262	0.336137	-0.034448
H40	H	1.265281	0.500701	-0.139200
Cl41	Cl	1.243243	0.369224	0.200347
Cl42	Cl	1.398967	0.190609	-0.753720
Cl43	Cl	1.457415	0.286365	-0.576545
Cl44	Cl	1.437147	0.253239	-0.291762
Cl45	Cl	1.054008	-0.374150	-0.414446
H46	H	0.955443	0.168768	-0.017305
H47	H	1.104146	-0.292119	-0.676613
Cl48	Cl	0.930166	-0.423938	0.043472
Cl49	Cl	0.831410	0.363999	-0.037331
H50	H	0.709962	-0.384284	0.039434
