data_functionalizedCrystal
_audit_creation_method	'MofGen! by Chris Wilmer'
_symmetry_space_group_name_H-M	'P1'
_symmetry_Int_Tables_number	1
_symmetry_cell_setting	triclinic
loop_
_symmetry_equiv_pos_as_xyz
  x,y,z
_cell_length_a	18.215407
_cell_length_b	18.215405
_cell_length_c	17.077396
_cell_angle_alpha	89.967575
_cell_angle_beta	89.985449
_cell_angle_gamma	90.022344
loop_
_atom_site_label
_atom_site_type_symbol
_atom_site_fract_x
_atom_site_fract_y
_atom_site_fract_z
Zn1	Zn	1.125055	-0.293028	-0.443769
Zn2	Zn	1.625055	0.206972	0.056231
Zn3	Zn	1.124968	-0.416103	-0.312496
Zn4	Zn	1.624968	0.083897	0.187504
Zn5	Zn	1.001992	-0.293050	-0.312523
Zn6	Zn	1.501992	0.206950	0.187477
Zn7	Zn	1.001953	-0.416052	-0.443726
Zn8	Zn	1.501953	0.083948	0.056274
O9	O	1.063492	-0.354558	-0.378129
O10	O	1.563492	0.145442	0.121871
O11	O	1.228028	-0.309367	-0.426362
O12	O	1.728028	0.190633	0.073638
O13	O	1.108635	-0.399811	-0.202653
O14	O	1.608635	0.100189	0.297347
O15	O	1.018370	-0.190063	-0.329963
O16	O	1.518370	0.309937	0.170037
O17	O	1.227964	-0.399790	-0.329917
O18	O	1.727964	0.100210	0.170083
O19	O	1.108783	-0.190047	-0.426389
O20	O	1.608783	0.309953	0.073611
O21	O	1.018286	-0.309404	-0.202673
O22	O	1.518286	0.190596	0.297327
O23	O	0.899003	-0.309354	-0.329921
O24	O	1.399003	0.190646	0.170079
O25	O	1.018303	-0.399702	-0.553579
O26	O	1.518303	0.100298	-0.053579
O27	O	0.898974	-0.399723	-0.426315
O28	O	1.398974	0.100277	0.073685
O29	O	1.108745	-0.309317	-0.553611
O30	O	1.608745	0.190683	-0.053611
O31	O	1.108597	-0.519081	-0.329875
O32	O	1.608597	-0.019081	0.170125
O33	O	1.018219	-0.519043	-0.426288
O34	O	1.518219	-0.019043	0.073712
C35	C	0.872286	-0.354536	-0.378117
C36	C	1.372286	0.145464	0.121883
C37	C	0.790487	-0.354544	-0.378130
C38	C	1.290487	0.145456	0.121870
C39	C	0.525434	-0.401691	-0.428252
C40	C	1.025434	0.098309	0.071748
C41	C	0.602293	-0.401685	-0.428248
C42	C	1.102293	0.098315	0.071752
C43	C	0.602292	-0.307442	-0.328019
C44	C	1.102292	0.192558	0.171981
C45	C	0.525435	-0.307453	-0.328020
C46	C	1.025435	0.192547	0.171980
C47	C	0.487008	-0.354576	-0.378140
C48	C	0.987008	0.145424	0.121860
C49	C	0.640724	-0.354559	-0.378136
C50	C	1.140724	0.145441	0.121864
C51	C	0.724057	-0.354552	-0.378132
C52	C	1.224057	0.145448	0.121868
C53	C	0.403669	-0.354584	-0.378144
C54	C	0.903669	0.145416	0.121856
C55	C	1.063415	-0.545765	-0.378091
C56	C	1.563415	-0.045765	0.121909
C57	C	1.063449	-0.627564	-0.378101
C58	C	1.563449	-0.127564	0.121899
C59	C	1.110619	-0.815753	-0.327991
C60	C	1.610619	-0.315753	0.172009
C61	C	1.110652	-0.892611	-0.328010
C62	C	1.610652	-0.392611	0.171990
C63	C	1.016459	-0.892612	-0.428323
C64	C	1.516459	-0.392612	0.071677
C65	C	1.016431	-0.815755	-0.428308
C66	C	1.516431	-0.315755	0.071692
C67	C	1.063510	-0.777327	-0.378137
C68	C	1.563510	-0.277327	0.121863
C69	C	1.063571	-0.931043	-0.378171
C70	C	1.563571	-0.431043	0.121829
C71	C	1.063606	-1.014377	-0.378192
C72	C	1.563606	-0.514377	0.121808
C73	C	1.063475	-0.693988	-0.378117
C74	C	1.563475	-0.193988	0.121883
C75	C	1.255445	-0.354582	-0.378141
C76	C	1.755445	0.145418	0.121859
C77	C	1.337244	-0.354591	-0.378147
C78	C	1.837244	0.145409	0.121853
C79	C	1.063590	-0.162605	-0.378184
C80	C	1.563590	0.337395	0.121816
C81	C	1.063632	-0.080806	-0.378207
C82	C	1.563632	0.419194	0.121793
C83	C	1.063529	-0.354501	-0.582873
C84	C	1.563529	0.145499	-0.082873
C85	C	1.063545	-0.354477	-0.670123
C86	C	1.563545	0.145523	-0.170123
C87	C	1.016514	-0.307397	-0.711123
C88	C	1.516514	0.192603	-0.211123
C89	C	1.016526	-0.307380	-0.793103
C90	C	1.516526	0.192620	-0.293103
C91	C	1.063573	-0.354440	-0.834082
C92	C	1.563573	0.145560	-0.334082
C93	C	1.110606	-0.401526	-0.793077
C94	C	1.610606	0.098474	-0.293077
C95	C	1.110590	-0.401546	-0.711098
C96	C	1.610590	0.098454	-0.211098
C97	C	1.110638	-0.401480	-0.963947
C98	C	1.610638	0.098520	-0.463947
C99	C	1.110655	-0.401460	-1.045932
C100	C	1.610655	0.098540	-0.545932
C101	C	1.016574	-0.307314	-1.045953
C102	C	1.516574	0.192686	-0.545953
C103	C	1.016558	-0.307334	-0.963974
C104	C	1.516558	0.192666	-0.463974
C105	C	1.063592	-0.354419	-0.922974
C106	C	1.563592	0.145581	-0.422974
C107	C	1.063498	-0.354562	-0.174181
C108	C	1.563498	0.145438	0.325819
C109	C	1.063625	-0.354379	-0.086932
C110	C	1.563625	0.145621	0.413068
H111	H	0.494147	-0.269085	-0.287209
H112	H	0.994147	0.230915	0.212791
O113	O	1.161325	-0.452320	-0.666875
O114	O	1.661325	0.047680	-0.166875
H115	H	1.148683	-0.510073	-0.682596
H116	H	1.648683	-0.010073	-0.182596
O117	O	1.161473	-0.934053	-0.273929
O118	O	1.661473	-0.434053	0.226071
H119	H	1.153595	-0.993953	-0.282376
H120	H	1.653595	-0.493953	0.217624
O121	O	0.965668	-0.934058	-0.482420
O122	O	1.465668	-0.434058	0.017580
H123	H	0.973593	-0.993958	-0.473998
H124	H	1.473593	-0.493958	0.026002
O125	O	1.161406	-0.774299	-0.273896
O126	O	1.661406	-0.274299	0.226104
H127	H	1.148841	-0.789103	-0.212276
H128	H	1.648841	-0.289103	0.287724
O129	O	0.483984	-0.452571	-0.482247
O130	O	0.983984	0.047429	0.017753
H131	H	0.523620	-0.485355	-0.517066
H132	H	1.023620	0.014645	-0.017066
O133	O	0.965607	-0.774301	-0.482384
O134	O	1.465607	-0.274301	0.017616
H135	H	0.932863	-0.813933	-0.517262
H136	H	1.432863	-0.313933	-0.017262
H137	H	0.978207	-0.269070	-0.677764
H138	H	1.478207	0.230930	-0.177764
H139	H	0.633576	-0.440051	-0.469053
H140	H	1.133576	0.059949	0.030947
H141	H	0.978226	-0.269045	-0.826482
H142	H	1.478226	0.230955	-0.326482
O143	O	0.965826	-0.256567	-0.919769
O144	O	1.465826	0.243433	-0.419769
H145	H	0.933122	-0.223824	-0.962050
H146	H	1.433122	0.276176	-0.462050
H147	H	0.978278	-0.268975	-1.079339
H148	H	1.478278	0.231025	-0.579339
H149	H	1.148965	-0.439780	-1.079294
H150	H	1.648965	0.060220	-0.579294
H151	H	1.148945	-0.439815	-0.930567
H152	H	1.648945	0.060185	-0.430567
H153	H	0.633589	-0.269075	-0.287213
H154	H	1.133589	0.230925	0.212787
O155	O	1.161350	-0.452290	-0.837268
O156	O	1.661350	0.047710	-0.337268
H157	H	1.198824	-0.419349	-0.874623
H158	H	1.698824	0.080651	-0.374623
