data_functionalizedCrystal
_audit_creation_method	'MofGen! by Chris Wilmer'
_symmetry_space_group_name_H-M	'P1'
_symmetry_Int_Tables_number	1
_symmetry_cell_setting	triclinic
loop_
_symmetry_equiv_pos_as_xyz
  x,y,z
_cell_length_a	21.606444
_cell_length_b	14.560438
_cell_length_c	14.560438
_cell_angle_alpha	60.000905
_cell_angle_beta	90.000130
_cell_angle_gamma	60.000721
loop_
_atom_site_label
_atom_site_type_symbol
_atom_site_fract_x
_atom_site_fract_y
_atom_site_fract_z
Zr1	Zr	0.596220	1.005315	-0.120539
O2	O	0.497396	1.196912	-0.267179
O3	O	0.626515	0.813715	-0.075589
O4	O	0.626512	1.005319	-0.267189
O5	O	0.497401	1.005305	0.075563
O6	O	0.728362	1.005326	-0.267195
O7	O	0.497399	1.005308	-0.075578
O8	O	0.728367	0.662581	0.075544
O9	O	0.497396	1.348050	-0.267176
O10	O	0.715445	0.892529	-0.056419
O11	O	0.639438	0.892522	0.056380
O12	O	0.639434	1.118111	-0.169205
O13	O	0.563427	1.118104	-0.056407
Zr14	Zr	0.758663	1.005321	0.120504
Zr15	Zr	0.758659	1.005325	-0.120548
Zr16	Zr	0.596225	1.005311	0.120513
Zr17	Zr	0.596221	1.246362	-0.120535
Zr18	Zr	0.758663	0.764274	0.120500
O19	O	0.728368	1.196921	0.075554
O20	O	0.728362	1.196926	-0.267191
O21	O	0.497401	1.196906	0.075566
O22	O	0.857488	0.813724	0.267144
O23	O	0.857482	0.813730	-0.075601
O24	O	0.626521	0.813710	0.267156
O25	O	0.857482	1.005331	-0.075598
O26	O	0.728371	1.005317	0.267154
O27	O	0.626521	1.005310	0.267160
O28	O	0.857485	1.005328	0.075543
O29	O	0.626513	1.348058	-0.267183
O30	O	0.728371	0.662578	0.267148
O31	O	0.857488	0.662586	0.267141
O32	O	0.857484	0.662590	0.075537
O33	O	0.497399	1.348046	-0.075572
O34	O	0.626516	1.348055	-0.075579
O35	O	0.715449	0.892525	0.169170
O36	O	0.791457	0.892532	0.056372
O37	O	0.715446	1.118114	-0.056415
O38	O	0.639438	1.118107	0.056384
C39	C	0.677441	0.703804	-0.000023
C40	C	0.677441	0.601473	-0.000025
C41	C	0.474256	1.005305	-0.000007
C42	C	0.405296	1.005301	-0.000003
C43	C	0.717115	0.553401	-0.058905
C44	C	0.717118	0.457241	-0.058895
C45	C	0.637768	0.457239	0.058877
C46	C	0.637769	0.553390	0.058873
C47	C	0.412574	0.887550	0.058866
C48	C	0.347777	0.887554	0.058867
C49	C	0.275703	1.005309	-0.000008
C50	C	0.268426	1.123069	-0.058879
C51	C	0.333223	1.123064	-0.058873
C52	C	0.007108	1.123092	-0.058904
C53	C	-0.057690	1.123087	-0.058909
C54	C	0.021662	0.887581	0.058836
C55	C	0.086459	0.887576	0.058842
C56	C	0.079177	1.005335	-0.000023
C57	C	0.149438	1.005330	-0.000022
C58	C	0.205442	1.005316	-0.000017
C59	C	0.880628	1.005331	-0.000028
C60	C	0.949587	1.005335	-0.000032
C61	C	0.677437	1.005323	-0.301537
C62	C	0.677435	1.005325	-0.403870
C63	C	0.677442	1.306832	-0.000012
C64	C	0.677442	1.409163	-0.000010
C65	C	0.637759	1.123074	-0.510819
C66	C	0.637768	1.123068	-0.606968
C67	C	0.717130	0.887553	-0.489204
C68	C	0.717125	0.887560	-0.393058
C69	C	0.677447	1.005313	0.301502
C70	C	0.677449	1.005311	0.403835
C71	C	0.880627	0.703817	-0.000034
C72	C	0.949587	0.601491	-0.000040
C73	C	0.677447	0.703799	0.301496
C74	C	0.677448	0.601466	0.403827
C75	C	0.880632	0.703812	0.301485
C76	C	0.949593	0.601484	0.403813
C77	C	0.474251	1.306824	-0.301520
C78	C	0.405290	1.409152	-0.403848
C79	C	0.474256	1.306819	-0.000001
C80	C	0.405297	1.409145	0.000005
C81	C	0.677437	1.306837	-0.301531
C82	C	0.677435	1.409170	-0.403862
C83	C	0.942293	0.553435	-0.058928
C84	C	1.007082	0.457302	-0.058956
C85	C	1.079163	0.409219	-0.000088
C86	C	1.086454	0.457284	0.058802
C87	C	1.021666	0.553422	0.058822
C88	C	1.021660	0.553433	0.392987
C89	C	1.086463	0.457298	0.489125
C90	C	1.079197	0.409209	0.596088
C91	C	1.007122	0.457269	0.606912
C92	C	0.942322	0.553409	0.510774
C93	C	0.333223	1.457215	-0.393022
C94	C	0.268421	1.553380	-0.489160
C95	C	0.275687	1.601474	-0.596123
C96	C	0.347761	1.553407	-0.606947
C97	C	0.412562	1.457250	-0.510810
C98	C	0.412590	1.457211	0.058883
C99	C	0.347802	1.553371	0.058884
C100	C	0.275721	1.601457	0.000013
C101	C	0.268429	1.553388	-0.058872
C102	C	0.333217	1.457236	-0.058880
C103	C	0.717125	0.553390	0.510778
C104	C	0.717118	0.457246	0.606925
C105	C	0.637756	0.457261	0.489157
C106	C	0.637759	0.553409	0.393012
H107	H	0.749419	0.592545	-0.106861
N108	N	0.759931	0.605220	0.522448
H109	H	0.739119	0.645109	0.564924
H110	H	0.753905	0.673371	0.445278
N111	N	0.164195	0.760570	0.122331
H112	H	0.158974	0.685973	0.159626
H113	H	0.192810	0.755434	0.181526
H114	H	0.883608	0.592584	-0.106879
N115	N	0.759905	0.405407	-0.122412
H116	H	0.723512	0.422133	-0.181653
H117	H	0.799837	0.308908	-0.068342
H118	H	0.605467	0.418080	0.106828
H119	H	1.001218	0.418101	0.694014
N120	N	0.594973	0.605241	0.122384
H121	H	0.555046	0.701757	0.068387
H122	H	0.631418	0.588418	0.181629
N123	N	0.355670	1.605215	0.122391
H124	H	0.384287	1.531861	0.204758
H125	H	0.303665	1.673449	0.113365
H126	H	0.471257	0.791659	0.106815
H127	H	0.605460	1.218952	-0.694048
N128	N	0.190692	1.250080	-0.122370
H129	H	0.150746	1.232218	-0.113444
H130	H	0.184691	1.301508	-0.204707
H131	H	1.131911	0.330936	-0.000113
N132	N	0.490328	1.405378	0.122369
H133	H	0.530272	1.337171	0.113439
H134	H	0.496333	1.365566	0.204708
N135	N	1.029543	0.605242	0.122345
H136	H	1.004434	0.701757	0.068356
H137	H	1.085053	0.560090	0.159623
N138	N	0.759914	0.405383	0.722283
H139	H	0.739108	0.478736	0.731296
H140	H	0.815410	0.365466	0.731219
N141	N	0.999208	0.405474	-0.122477
H142	H	0.943713	0.450519	-0.159753
H143	H	1.024365	0.308954	-0.068426
H144	H	0.749443	0.791673	-0.480415
H145	H	0.222973	1.679750	0.000028
N146	N	0.594955	0.405419	0.477494
H147	H	0.600976	0.337209	0.554630
H148	H	0.615790	0.365605	0.434972
N149	N	-0.135433	1.250098	-0.122396
H150	H	-0.164086	1.255358	-0.181653
H151	H	-0.130153	1.324626	-0.159611
N152	N	1.149088	0.305507	0.699781
H153	H	1.180273	0.338975	0.699818
H154	H	1.180211	0.225769	0.699748
N155	N	1.029518	0.605271	0.277634
H156	H	1.058137	0.645170	0.268627
H157	H	0.977513	0.673416	0.218426
N158	N	0.029509	0.760572	0.122327
H159	H	0.004396	0.755313	0.181579
H160	H	0.085013	0.686045	0.159547
H161	H	0.749438	0.791669	-0.305969
N162	N	0.190683	1.605237	-0.122345
H163	H	0.150754	1.673429	-0.113387
H164	H	0.184689	1.531794	-0.091407
N165	N	0.355625	0.760552	0.122362
H166	H	0.411116	0.685954	0.159653
H167	H	0.330467	0.755431	0.068294
H168	H	0.001169	1.218978	-0.106857
N169	N	1.164193	0.405471	0.477437
H170	H	1.158957	0.450519	0.395087
H171	H	1.192810	0.308952	0.514765
N172	N	0.325374	1.250068	-0.122381
H173	H	0.377358	1.232198	-0.113442
H174	H	0.296721	1.301492	-0.091466
H175	H	0.605445	0.592557	0.305922
H176	H	1.145151	0.418120	0.106730
N177	N	0.594956	1.250085	-0.522475
H178	H	0.569824	1.324677	-0.604820
H179	H	0.631385	1.255220	-0.485147
N180	N	0.864593	0.605225	0.522459
H181	H	0.869831	0.560163	0.604810
H182	H	0.835984	0.588477	0.485143
H183	H	0.327293	1.418062	-0.305936
N184	N	0.190690	1.605208	-0.477472
H185	H	0.195927	1.560134	-0.395122
H186	H	0.162072	1.588485	-0.514804
N187	N	0.205791	1.705184	-0.699809
H188	H	0.159037	1.728324	-0.676710
H189	H	0.205821	1.671654	-0.746048
N190	N	0.325336	1.405395	-0.122378
H191	H	0.350442	1.308882	-0.068379
H192	H	0.350433	1.422209	-0.181638
N193	N	0.355595	1.605277	-0.722315
H194	H	0.330478	1.701793	-0.764825
H195	H	0.330480	1.588456	-0.764729
N196	N	0.490290	1.405411	-0.522494
H197	H	0.485053	1.450473	-0.604845
H198	H	0.518898	1.308896	-0.485183
