data_functionalizedCrystal
_audit_creation_method	'MofGen! by Chris Wilmer'
_symmetry_space_group_name_H-M	'P1'
_symmetry_Int_Tables_number	1
_symmetry_cell_setting	triclinic
loop_
_symmetry_equiv_pos_as_xyz
  x,y,z
_cell_length_a	14.048226
_cell_length_b	14.971475
_cell_length_c	14.971494
_cell_angle_alpha	96.386382
_cell_angle_beta	89.995286
_cell_angle_gamma	90.005580
loop_
_atom_site_label
_atom_site_type_symbol
_atom_site_fract_x
_atom_site_fract_y
_atom_site_fract_z
O1	O	-0.079137	-1.186957	0.116518
O2	O	0.420863	-0.686957	0.616518
O3	O	-0.079143	-0.926555	0.130487
O4	O	0.420857	-0.426555	0.630487
O5	O	-0.079138	-1.063732	-0.006698
O6	O	0.420862	-0.563732	0.493302
O7	O	-0.079143	-1.049781	0.253702
O8	O	0.420857	-0.549781	0.753702
O9	O	0.079183	-1.063715	-0.006706
O10	O	0.579183	-0.563715	0.493294
O11	O	0.079178	-0.926539	0.130479
O12	O	0.579178	-0.426539	0.630479
O13	O	0.079184	-1.186940	0.116510
O14	O	0.579184	-0.686940	0.616510
Zn15	Zn	0.104318	-1.056737	0.123493
Zn16	Zn	0.604318	-0.556737	0.623493
Zn17	Zn	-0.104277	-1.056759	0.123504
Zn18	Zn	0.395723	-0.556759	0.623504
O19	O	0.079179	-1.049764	0.253694
O20	O	0.579179	-0.549764	0.753694
C21	C	0.000017	-0.893222	0.129860
C22	C	0.500017	-0.393222	0.629860
C23	C	0.000014	-0.793925	0.127993
C24	C	0.500014	-0.293925	0.627993
C25	C	0.000021	-1.063098	-0.040026
C26	C	0.500021	-0.563098	0.459974
C27	C	0.000017	-1.061224	-0.139323
C28	C	0.500017	-0.561224	0.360677
N29	N	0.246679	-1.056729	0.123485
N30	N	0.746679	-0.556729	0.623485
N31	N	-0.246638	-1.056774	0.123504
N32	N	0.253362	-0.556774	0.623504
C33	C	0.296499	-1.117489	0.062765
C34	C	0.796499	-0.617489	0.562765
C35	C	0.396157	-1.117495	0.062764
C36	C	0.896157	-0.617495	0.562764
C37	C	0.445992	-1.056744	0.123489
C38	C	0.945992	-0.556744	0.623489
C39	C	0.396165	-0.995977	0.184212
C40	C	0.896165	-0.495977	0.684212
C41	C	0.296509	-0.995967	0.184207
C42	C	0.796509	-0.495967	0.684207
C43	C	0.603879	-0.996003	0.184218
C44	C	1.103879	-0.496003	0.684218
C45	C	0.703542	-0.996013	0.184224
C46	C	1.203542	-0.496013	0.684224
C47	C	0.703527	-1.117531	0.062775
C48	C	1.203527	-0.617531	0.562775
C49	C	0.603871	-1.117521	0.062771
C50	C	1.103871	-0.617521	0.562771
C51	C	0.554050	-1.056755	0.123495
C52	C	1.054050	-0.556755	0.623495
C53	C	0.086316	-0.747271	0.127109
C54	C	0.586316	-0.247271	0.627109
C55	C	0.086317	-0.653972	0.125341
C56	C	0.586317	-0.153972	0.625341
C57	C	0.000014	-0.607328	0.124462
C58	C	0.500014	-0.107328	0.624462
C59	C	-0.086294	-0.653989	0.125344
C60	C	0.413706	-0.153989	0.625344
C61	C	-0.086293	-0.747287	0.127106
C62	C	0.413707	-0.247287	0.627106
C63	C	-0.086289	-0.459526	0.121673
C64	C	0.413711	0.040474	0.621673
C65	C	-0.086290	-0.366221	0.119913
C66	C	0.413710	0.133779	0.619913
C67	C	0.086321	-0.366211	0.119909
C68	C	0.586321	0.133789	0.619909
C69	C	0.086322	-0.459509	0.121670
C70	C	0.586322	0.040491	0.621670
C71	C	0.000013	-0.506163	0.122553
C72	C	0.500013	-0.006163	0.622553
C73	C	0.000020	-0.220272	0.117143
C74	C	0.500020	0.279728	0.617143
C75	C	0.000012	-0.319567	0.119029
C76	C	0.500012	0.180433	0.619029
C77	C	-0.086285	-1.060355	-0.185963
C78	C	0.413715	-0.560355	0.314037
C79	C	-0.086287	-1.058589	-0.279262
C80	C	0.413713	-0.558589	0.220738
C81	C	0.000015	-1.057698	-0.325920
C82	C	0.500015	-0.557698	0.174080
C83	C	0.086324	-1.058565	-0.279273
C84	C	0.586324	-0.558565	0.220727
C85	C	0.086324	-1.060325	-0.185975
C86	C	0.586324	-0.560325	0.314025
C87	C	0.086318	-1.054899	-0.473736
C88	C	0.586318	-0.554899	0.026264
C89	C	0.086318	-1.053140	-0.567041
C90	C	0.586318	-0.553140	-0.067041
C91	C	-0.086293	-1.053163	-0.567023
C92	C	0.413707	-0.553163	-0.067023
C93	C	-0.086293	-1.054923	-0.473725
C94	C	0.413707	-0.554923	0.026275
C95	C	0.000016	-1.055791	-0.427085
C96	C	0.500016	-0.555791	0.072915
C97	C	0.000017	-1.050397	0.287023
C98	C	0.500017	-0.550397	0.787023
C99	C	0.000016	-1.052271	0.386319
C100	C	0.500016	-0.552271	0.886319
H101	H	0.255929	-1.166963	0.013320
H102	H	0.755929	-0.666963	0.513320
H103	H	0.156597	-0.328221	0.119190
H104	H	0.656597	0.171779	0.619190
H105	H	-0.156571	-0.497509	0.122392
H106	H	0.343429	0.002491	0.622392
Cl107	Cl	0.458790	-1.193880	-0.013572
Cl108	Cl	0.958790	-0.693880	0.486428
H109	H	0.156592	-0.615993	0.124606
H110	H	0.656592	-0.115993	0.624606
Cl111	Cl	0.541252	-0.919607	0.260558
Cl112	Cl	1.041252	-0.419607	0.760558
Cl113	Cl	0.194818	-0.518145	0.122784
Cl114	Cl	0.694818	-0.018145	0.622784
H115	H	-0.156562	-1.057885	-0.317233
H116	H	0.343438	-0.557885	0.182767
H117	H	0.563295	-1.166993	0.013329
H118	H	1.063295	-0.666993	0.513329
H119	H	-0.156563	-0.616004	0.124622
H120	H	0.343437	-0.116004	0.624622
H121	H	0.436747	-0.946508	0.233652
H122	H	0.936747	-0.446508	0.733652
Cl123	Cl	0.233879	-0.919576	0.260542
Cl124	Cl	0.733879	-0.419576	0.760542
H125	H	0.156593	-1.057834	-0.317268
H126	H	0.656593	-0.557834	0.182732
Cl127	Cl	-0.194786	-0.307584	0.118806
Cl128	Cl	0.305214	0.192416	0.618806
H129	H	0.156594	-0.785241	0.127832
H130	H	0.656594	-0.285241	0.627832
H131	H	0.744096	-1.167008	0.013332
H132	H	1.244096	-0.667008	0.513332
Cl133	Cl	-0.194792	-0.805938	0.128212
Cl134	Cl	0.305208	-0.305938	0.628212
H135	H	-0.156563	-1.061085	-0.147982
H136	H	0.343437	-0.561085	0.352018
H137	H	-0.156568	-1.055655	-0.435740
H138	H	0.343432	-0.555655	0.064260
Cl139	Cl	-0.194796	-1.052064	-0.625655
Cl140	Cl	0.305204	-0.552064	-0.125655
H141	H	0.156600	-1.055586	-0.435761
H142	H	0.656600	-0.555586	0.064239
Cl143	Cl	0.194813	-1.052022	-0.625695
Cl144	Cl	0.694813	-0.552022	-0.125695
H145	H	0.156600	-1.061020	-0.148000
H146	H	0.656600	-0.561020	0.352000
Cl147	Cl	0.766185	-0.919635	0.260566
Cl148	Cl	1.266185	-0.419635	0.760566
