data_functionalizedCrystal
_audit_creation_method	'MofGen! by Chris Wilmer'
_symmetry_space_group_name_H-M	'P1'
_symmetry_Int_Tables_number	1
_symmetry_cell_setting	triclinic
loop_
_symmetry_equiv_pos_as_xyz
  x,y,z
_cell_length_a	25.639243
_cell_length_b	21.295416
_cell_length_c	21.295411
_cell_angle_alpha	89.980829
_cell_angle_beta	90.027104
_cell_angle_gamma	89.966945
loop_
_atom_site_label
_atom_site_type_symbol
_atom_site_fract_x
_atom_site_fract_y
_atom_site_fract_z
Zn1	Zn	0.799313	0.250635	0.355965
Zn2	Zn	0.799232	0.355887	0.250695
Zn3	Zn	0.711872	0.250641	0.250705
Zn4	Zn	0.711847	0.355875	0.355922
O5	O	0.755566	0.303260	0.303322
O6	O	0.872467	0.264600	0.342014
O7	O	0.787620	0.341933	0.162607
O8	O	0.723516	0.162551	0.264691
O9	O	0.872408	0.341928	0.264673
O10	O	0.787758	0.162546	0.342024
O11	O	0.723437	0.264609	0.162615
O12	O	0.638704	0.264598	0.264649
O13	O	0.723473	0.341908	0.444017
O14	O	0.638685	0.341913	0.341951
O15	O	0.787734	0.264588	0.444049
O16	O	0.787596	0.443975	0.264631
O17	O	0.723395	0.443966	0.341941
C18	C	0.619724	0.303255	0.303297
C19	C	0.561609	0.303269	0.303301
C20	C	0.755498	0.466811	0.303294
C21	C	0.755517	0.536779	0.303303
C22	C	0.788976	0.569629	0.263091
C23	C	0.789001	0.635372	0.263108
C24	C	0.755557	0.668262	0.303331
C25	C	0.722095	0.635404	0.343551
C26	C	0.722075	0.569662	0.343537
N27	N	0.709819	0.771531	0.308125
N28	N	0.709840	0.833982	0.308135
C29	C	0.755616	0.866336	0.303375
N30	N	0.801371	0.833880	0.298594
N31	N	0.801350	0.771423	0.298581
C32	C	0.755575	0.739547	0.303350
C33	C	0.789105	0.970472	0.263179
C34	C	0.789130	1.036216	0.263200
C35	C	0.722220	1.036246	0.343640
C36	C	0.722199	0.970504	0.343622
C37	C	0.755641	0.937621	0.303388
C38	C	0.201272	0.263058	0.343661
C39	C	0.146667	0.263058	0.343665
O40	O	0.118452	0.228857	0.377949
N41	N	0.119327	0.303258	0.303339
C42	C	0.146594	0.343457	0.263003
O43	O	0.118325	0.377649	0.228703
C44	C	0.201197	0.343453	0.262996
C45	C	0.228535	0.303255	0.303329
C46	C	0.228609	0.222863	0.383989
C47	C	0.283210	0.222864	0.383986
C48	C	0.310473	0.263061	0.343654
C49	C	0.283135	0.303257	0.303325
C50	C	0.228463	0.383649	0.222657
C51	C	0.283070	0.383642	0.222653
C52	C	0.310407	0.343443	0.262986
C53	C	0.364999	0.343455	0.262990
N54	N	0.392339	0.303255	0.303316
C55	C	0.365076	0.263058	0.343648
C56	C	0.031923	0.343459	0.263019
C57	C	-0.022679	0.343466	0.263028
C58	C	-0.022602	0.263066	0.343689
C59	C	0.032002	0.263063	0.343683
C60	C	0.059264	0.303259	0.303344
C61	C	0.479741	0.263065	0.343638
C62	C	0.534347	0.263072	0.343633
C63	C	0.534264	0.343469	0.262970
C64	C	0.479664	0.343465	0.262977
C65	C	0.452404	0.303257	0.303313
O66	O	0.393249	0.377636	0.228722
O67	O	0.393352	0.228865	0.377936
C68	C	0.891939	0.303264	0.303347
C69	C	0.950053	0.303266	0.303358
C70	C	0.755609	0.303246	0.467512
C71	C	0.755628	0.303241	0.537480
C72	C	0.755649	1.139069	0.303374
C73	C	0.755687	1.069101	0.303424
C74	C	0.755553	0.303227	0.139770
C75	C	0.755636	0.303056	0.069802
C76	C	0.789087	0.262978	0.570364
C77	C	0.789086	0.262951	0.636107
C78	C	0.755632	0.303197	0.668963
C79	C	0.722166	0.343462	0.636071
C80	C	0.722164	0.343484	0.570329
N81	N	0.751598	0.358265	0.772180
N82	N	0.751603	0.358243	0.834632
C83	C	0.755635	0.303133	0.867038
N84	N	0.759672	0.248046	0.834633
N85	N	0.759670	0.248069	0.772175
C86	C	0.755630	0.303178	0.740248
C87	C	0.789096	0.262838	0.971207
C88	C	0.789091	0.262810	1.036951
C89	C	0.722174	0.343327	1.036914
C90	C	0.722175	0.343349	0.971171
C91	C	0.755639	0.303106	0.938322
H92	H	0.816208	0.542858	0.230331
C93	C	0.564415	0.218846	0.388001
N94	N	0.587060	0.185533	0.421416
H95	H	0.054116	0.376197	0.230172
H96	H	0.694828	0.542915	0.376284
C97	C	-0.052744	0.387690	0.218662
N98	N	-0.075388	0.420998	0.185241
H99	H	0.816249	0.662124	0.230362
C100	C	0.825899	0.934298	0.218930
N101	N	0.853614	0.907054	0.185604
C102	C	0.825940	1.072351	0.218960
N103	N	0.853665	1.099568	0.185637
C104	C	0.685374	0.387599	1.073051
N105	N	0.657655	0.420945	1.100274
H106	H	0.694991	1.063025	0.376393
H107	H	0.694951	0.943755	0.376364
C108	C	0.825899	0.218662	0.672287
N109	N	0.853627	0.185305	0.699536
H110	H	0.694926	0.376229	0.662826
C111	C	0.685356	0.387779	0.534156
N112	N	0.657633	0.421143	0.506909
H113	H	0.054256	0.230329	0.376524
C114	C	-0.052601	0.218844	0.388052
N115	N	-0.075199	0.185538	0.421463
C116	C	0.449763	0.218838	0.388014
N117	N	0.427184	0.185530	0.421441
C118	C	0.313274	0.178634	0.428347
N119	N	0.335915	0.145314	0.461759
H120	H	0.816341	0.230066	0.944460
H121	H	0.816337	0.230020	1.063724
C122	C	0.198404	0.427862	0.178279
N123	N	0.175764	0.461163	0.144847
C124	C	0.313055	0.427864	0.178278
N125	N	0.335638	0.461173	0.144857
C126	C	0.685369	0.387644	0.934997
N127	N	0.657644	0.421008	0.907751
H128	H	0.694865	0.662187	0.376302
C129	C	0.449592	0.387690	0.218615
N130	N	0.426945	0.420998	0.185196
H131	H	0.206418	0.190126	0.416833
H132	H	0.556472	0.376198	0.230134
H133	H	0.816335	0.230208	0.543623
