data_functionalizedCrystal
_audit_creation_method	'MofGen! by Chris Wilmer'
_symmetry_space_group_name_H-M	'P1'
_symmetry_Int_Tables_number	1
_symmetry_cell_setting	triclinic
loop_
_symmetry_equiv_pos_as_xyz
  x,y,z
_cell_length_a	14.853569
_cell_length_b	15.072220
_cell_length_c	14.853567
_cell_angle_alpha	90.002676
_cell_angle_beta	96.364752
_cell_angle_gamma	90.010530
loop_
_atom_site_label
_atom_site_type_symbol
_atom_site_fract_x
_atom_site_fract_y
_atom_site_fract_z
O1	O	1.196375	0.073734	-0.117705
O2	O	0.933916	0.073744	-0.131725
O3	O	1.072156	0.073742	0.006515
O4	O	1.058135	0.073737	-0.255945
O5	O	1.072122	-0.073824	0.006507
O6	O	0.933881	-0.073821	-0.131732
O7	O	1.196341	-0.073831	-0.117713
Zn8	Zn	1.065106	-0.097255	-0.124724
Zn9	Zn	1.065151	0.097168	-0.124714
O10	O	1.058100	-0.073828	-0.255952
C11	C	0.900310	-0.000037	-0.131093
C12	C	0.800226	-0.000033	-0.129189
C13	C	0.763850	-0.000028	-0.046178
C14	C	0.742560	-0.000041	-0.210410
C15	C	0.648526	-0.000042	-0.208624
C16	C	0.612150	-0.000038	-0.125613
C17	C	0.669807	-0.000032	-0.044389
C18	C	0.590862	-0.000057	-0.289847
C19	C	0.496821	-0.000059	-0.288064
C20	C	0.460443	-0.000048	-0.205052
C21	C	0.518107	-0.000041	-0.123824
C22	C	0.481730	-0.000037	-0.040813
C23	C	0.539393	-0.000024	0.040415
C24	C	0.633429	-0.000021	0.038623
C25	C	0.366407	-0.000051	-0.203259
C26	C	0.387688	-0.000040	-0.039024
N27	N	1.065082	-0.229944	-0.124730
C28	C	1.065149	-0.589145	-0.124710
C29	C	0.990930	-0.551537	-0.198431
C30	C	0.991101	-0.448711	-0.198700
C31	C	1.065115	-0.410941	-0.124720
C32	C	1.159208	-0.448237	-0.145384
C33	C	1.158792	-0.551095	-0.145908
C34	C	1.046113	-0.551243	-0.030108
C35	C	1.043956	-0.448380	-0.030736
C36	C	1.065101	-0.310228	-0.124724
C37	C	1.065169	-0.689859	-0.124708
C38	C	1.229947	-0.000048	-0.118344
C39	C	1.330030	-0.000046	-0.120249
C40	C	1.071504	-0.000038	0.040100
C41	C	1.069600	-0.000031	0.140183
N42	N	1.065182	0.229857	-0.124700
C43	C	1.058753	-0.000047	-0.289537
C44	C	1.060657	-0.000048	-0.389621
C45	C	0.979434	-0.000044	0.552718
C46	C	1.143667	-0.000050	0.573998
C47	C	1.145457	-0.000045	0.479964
C48	C	1.064234	-0.000041	0.422303
C49	C	0.981222	-0.000042	0.458675
C50	C	1.228468	-0.000053	0.443585
C51	C	1.230262	-0.000049	0.349545
C52	C	1.149038	-0.000038	0.291882
C53	C	1.066022	-0.000038	0.328260
C54	C	0.984800	-0.000034	0.270599
C55	C	0.901783	-0.000028	0.306974
C56	C	0.899998	-0.000031	0.401012
C57	C	1.150822	-0.000035	0.197845
C58	C	0.986587	-0.000032	0.176556
H59	H	0.449880	-0.000068	-0.354205
H60	H	1.218413	-0.000046	0.168232
H61	H	0.920767	-0.576296	-0.186303
H62	H	0.974739	-0.424004	-0.015057
C63	C	0.808691	-0.000036	0.441027
H64	H	0.819261	-0.000051	0.505291
H65	H	0.775248	0.051422	0.421255
H66	H	0.775238	-0.051503	0.421236
H67	H	1.094492	-0.422672	0.026703
H68	H	0.319463	-0.000069	-0.269395
H69	H	1.176361	-0.422470	-0.213595
C70	C	0.782573	-0.000047	-0.301714
H71	H	0.846836	-0.000040	-0.291146
H72	H	0.762779	-0.051507	-0.335165
H73	H	0.762800	0.051418	-0.335158
H74	H	0.509763	-0.000014	0.108003
C75	C	1.321572	-0.000053	0.309535
H76	H	1.311006	-0.000056	0.245271
H77	H	1.355034	0.051402	0.329327
H78	H	1.355003	-0.051523	0.329312
H79	H	0.358078	-0.000032	0.028574
H80	H	1.100236	-0.575562	0.024754
C81	C	1.233006	-0.000056	0.637418
H82	H	1.282701	-0.000060	0.602286
H83	H	1.235732	0.051400	0.674553
H84	H	1.235711	-0.051525	0.674535
H85	H	0.921164	-0.423498	-0.186371
C86	C	0.897243	-0.000023	0.113131
H87	H	0.910194	-0.000017	0.051915
H88	H	0.863192	-0.051477	0.124166
H89	H	0.863229	0.051448	0.124175
H90	H	1.215751	-0.575971	-0.094337
H91	H	0.680385	-0.000012	0.104755
C92	C	1.007141	-0.586436	-0.292733
H93	H	1.058945	-0.623823	-0.287374
H94	H	0.955708	-0.619181	-0.317770
H95	H	1.016789	-0.537826	-0.331232
H96	H	0.911844	-0.000035	0.582339
H97	H	1.003269	-0.424099	-0.268901
H98	H	0.835651	-0.000030	0.260014
C99	C	0.827267	-0.000009	0.043169
H100	H	0.792131	0.000001	0.092861
H101	H	0.864394	-0.051461	0.045894
H102	H	0.864393	0.051464	0.045880
C103	C	0.630876	-0.000065	-0.381150
H104	H	0.695139	-0.000051	-0.370580
H105	H	0.611090	-0.051529	-0.414596
H106	H	0.611099	0.051396	-0.414598
C107	C	1.317806	-0.000057	0.507006
H108	H	1.367502	-0.000068	0.471876
H109	H	1.320533	0.051403	0.544135
H110	H	1.320507	-0.051522	0.544129
H111	H	1.175548	-0.575078	-0.214904
H112	H	1.215760	-0.423769	-0.093123
H113	H	0.978984	-0.577230	-0.010267
