data_functionalizedCrystal
_audit_creation_method	'MofGen! by Chris Wilmer'
_symmetry_space_group_name_H-M	'P1'
_symmetry_Int_Tables_number	1
_symmetry_cell_setting	triclinic
loop_
_symmetry_equiv_pos_as_xyz
  x,y,z
_cell_length_a	16.120484
_cell_length_b	12.759401
_cell_length_c	12.759393
_cell_angle_alpha	89.980324
_cell_angle_beta	92.864008
_cell_angle_gamma	92.925831
loop_
_atom_site_label
_atom_site_type_symbol
_atom_site_fract_x
_atom_site_fract_y
_atom_site_fract_z
Zn1	Zn	-0.331856	1.584983	-0.615149
Zn2	Zn	0.168144	2.084983	-0.115149
Zn3	Zn	-0.471292	1.575931	-0.448362
Zn4	Zn	0.028708	2.075931	0.051638
Zn5	Zn	-0.331898	1.409279	-0.439491
Zn6	Zn	0.168102	1.909279	0.060509
Zn7	Zn	-0.471231	1.400335	-0.623999
Zn8	Zn	0.028769	1.900335	-0.123999
O9	O	-0.401569	1.492632	-0.531750
O10	O	0.098431	1.992632	-0.031750
O11	O	-0.350361	1.730803	-0.593033
O12	O	0.149639	2.230803	-0.093033
O13	O	-0.452844	1.553780	-0.300167
O14	O	0.047156	2.053780	0.199833
O15	O	-0.215227	1.440118	-0.455376
O16	O	0.284773	1.940118	0.044624
O17	O	-0.452803	1.724153	-0.470496
O18	O	0.047197	2.224153	0.029504
O19	O	-0.215196	1.569207	-0.584432
O20	O	0.284804	2.069207	-0.084432
O21	O	-0.350432	1.431341	-0.293649
O22	O	0.149568	1.931341	0.206351
O23	O	-0.350373	1.261072	-0.463958
O24	O	0.149627	1.761072	0.036042
O25	O	-0.452699	1.424874	-0.769844
O26	O	0.047301	1.924874	-0.269844
O27	O	-0.452740	1.254501	-0.599515
O28	O	0.047260	1.754501	-0.099515
O29	O	-0.350302	1.560534	-0.763342
O30	O	0.149698	2.060534	-0.263342
O31	O	-0.587949	1.545107	-0.479077
O32	O	-0.087949	2.045107	0.020923
O33	O	-0.587904	1.416097	-0.608117
O34	O	-0.087904	1.916097	-0.108117
C35	C	-0.401555	1.219666	-0.531735
C36	C	0.098445	1.719666	-0.031735
C37	C	-0.401569	1.102888	-0.531754
C38	C	0.098431	1.602888	-0.031754
C39	C	-0.348323	1.051483	-0.595669
C40	C	0.151677	1.551483	-0.095669
C41	C	-0.348332	0.941759	-0.595677
C42	C	0.151668	1.441759	-0.095677
C43	C	-0.454838	0.934853	-0.467851
C44	C	0.045162	1.434853	0.032149
C45	C	-0.454825	1.044576	-0.467839
C46	C	0.045175	1.544576	0.032161
C47	C	-0.618176	1.478678	-0.545543
C48	C	-0.118176	1.978678	-0.045543
C49	C	-0.710842	1.472804	-0.551478
C50	C	-0.210842	1.972804	-0.051478
C51	C	-0.880503	1.462086	-0.562337
C52	C	-0.380503	1.962086	-0.062337
C53	C	-0.921795	1.523366	-0.501181
C54	C	-0.421795	2.023366	-0.001181
C55	C	-1.016200	1.517403	-0.507223
C56	C	-0.516200	2.017403	-0.007223
C57	C	-0.786089	1.468048	-0.556297
C58	C	-0.286089	1.968048	-0.056297
C59	C	-0.184116	1.506670	-0.517927
C60	C	0.315884	2.006670	-0.017927
C61	C	-0.091450	1.512652	-0.512036
C62	C	0.408550	2.012652	-0.012036
C63	C	-0.401489	1.492716	-0.805779
C64	C	0.098511	1.992716	-0.305779
C65	C	-0.401455	1.492751	-0.922553
C66	C	0.098545	1.992751	-0.422553
C67	C	-0.401584	1.766664	-0.531767
C68	C	0.098416	2.266664	-0.031767
C69	C	-0.401591	1.883441	-0.531774
C70	C	0.098409	2.383441	-0.031774
C71	C	-0.348128	1.563395	-0.974031
C72	C	0.151872	2.063395	-0.474031
C73	C	-0.348092	1.563415	-1.083753
C74	C	0.151908	2.063415	-0.583753
C75	C	-0.454717	1.422144	-1.090510
C76	C	0.045283	1.922144	-0.590510
C77	C	-0.454748	1.422120	-0.980790
C78	C	0.045252	1.922120	-0.480790
C79	C	-0.401589	1.492613	-0.258784
C80	C	0.098411	1.992613	0.241216
C81	C	-0.401388	1.492796	-0.141995
C82	C	0.098612	1.992796	0.358005
H83	H	-0.498185	1.086430	-0.415786
H84	H	0.001815	1.586430	0.084214
C85	C	-0.502156	0.763588	-0.411120
C86	C	-0.002156	1.263588	0.088880
C87	C	-0.513383	0.870752	-0.397609
C88	C	-0.013383	1.370752	0.102391
H89	H	-0.538306	0.724018	-0.367760
H90	H	-0.038306	1.224018	0.132240
H91	H	-0.446136	0.749203	-0.392292
H92	H	0.053864	1.249203	0.107708
H93	H	-0.514428	0.744862	-0.482473
H94	H	-0.014428	1.244862	0.017527
H95	H	-0.501106	0.889479	-0.326257
H96	H	-0.001106	1.389479	0.173743
H97	H	-0.569417	0.885142	-0.416430
H98	H	-0.069417	1.385142	0.083570
C99	C	-0.235904	1.585279	-1.199995
C100	C	0.264096	2.085279	-0.699995
C101	C	-0.289469	1.641068	-1.140332
C102	C	0.210531	2.141068	-0.640332
H103	H	-0.199707	1.633222	-1.234917
H104	H	0.300293	2.133222	-0.734917
H105	H	-0.267638	1.543237	-1.250383
H106	H	0.232362	2.043237	-0.750383
H107	H	-0.204032	1.541557	-1.155143
H108	H	0.295968	2.041557	-0.655143
H109	H	-0.321346	1.684785	-1.185186
H110	H	0.178654	2.184785	-0.685186
H111	H	-0.257732	1.683129	-1.089938
H112	H	0.242268	2.183129	-0.589938
C113	C	-0.788222	1.591324	-0.433161
C114	C	-0.288222	2.091324	0.066839
C115	C	-0.873811	1.600226	-0.424361
C116	C	-0.373811	2.100226	0.075639
H117	H	-0.758598	1.638765	-0.385729
H118	H	-0.258598	2.138765	0.114271
H119	H	-0.773946	1.607560	-0.502857
H120	H	-0.273946	2.107560	-0.002857
H121	H	-0.774075	1.521610	-0.416845
H122	H	-0.274075	2.021610	0.083155
H123	H	-0.887958	1.669938	-0.440685
H124	H	-0.387958	2.169938	0.059315
H125	H	-0.888092	1.583996	-0.354650
H126	H	-0.388092	2.083996	0.145350
C127	C	-1.014075	1.394108	-0.630312
C128	C	-0.514075	1.894108	-0.130312
C129	C	-0.928487	1.385210	-0.639129
C130	C	-0.428487	1.885210	-0.139129
H131	H	-1.043703	1.346641	-0.677714
H132	H	-0.543703	1.846641	-0.177714
H133	H	-1.028228	1.463804	-0.646649
H134	H	-0.528228	1.963804	-0.146649
H135	H	-1.028337	1.377896	-0.560596
H136	H	-0.528337	1.877896	-0.060596
H137	H	-0.914223	1.401431	-0.708844
H138	H	-0.414223	1.901431	-0.208844
H139	H	-0.914327	1.315499	-0.622800
H140	H	-0.414327	1.815499	-0.122800
C141	C	-0.236183	1.182093	-0.603350
C142	C	0.263817	1.682093	-0.103350
C143	C	-0.289780	1.115583	-0.665915
C144	C	0.210220	1.615583	-0.165915
H145	H	-0.200043	1.221667	-0.646720
H146	H	0.299957	1.721667	-0.146720
H147	H	-0.204257	1.141322	-0.555622
H148	H	0.295743	1.641322	-0.055622
H149	H	-0.267902	1.228411	-0.565290
H150	H	0.232098	1.728411	-0.065290
H151	H	-0.258061	1.069261	-0.703970
H152	H	0.241939	1.569261	-0.203970
H153	H	-0.321709	1.156359	-0.713662
H154	H	0.178291	1.656359	-0.213662
H155	H	-0.304731	1.620905	-0.926617
H156	H	0.195269	2.120905	-0.426617
H157	H	-0.498109	1.364641	-1.137940
H158	H	0.001891	1.864641	-0.637940
C159	C	-0.595931	1.361820	-0.955958
C160	C	-0.095931	1.861820	-0.455958
C161	C	-0.513372	1.344467	-0.924195
C162	C	-0.013372	1.844467	-0.424195
H163	H	-0.632118	1.313885	-0.921011
H164	H	-0.132118	1.813885	-0.421011
H165	H	-0.603538	1.351720	-1.029627
H166	H	-0.103538	1.851720	-0.529627
H167	H	-0.608130	1.431623	-0.938758
H168	H	-0.108130	1.931623	-0.438758
H169	H	-0.501171	1.274667	-0.941402
H170	H	-0.001171	1.774667	-0.441402
H171	H	-0.505761	1.354559	-0.850509
H172	H	-0.005761	1.854559	-0.350509
C173	C	-0.243064	0.959613	-0.722035
C174	C	0.256936	1.459613	-0.222035
C175	C	-0.289807	0.885255	-0.665940
C176	C	0.210193	1.385255	-0.165940
H177	H	-0.206936	0.924727	-0.765418
H178	H	0.293064	1.424727	-0.265418
H179	H	-0.211126	1.004439	-0.674292
H180	H	0.288874	1.504439	-0.174292
H181	H	-0.279434	1.000089	-0.764453
H182	H	0.220566	1.500089	-0.264453
H183	H	-0.253437	0.844783	-0.623517
H184	H	0.246563	1.344783	-0.123517
H185	H	-0.321748	0.840410	-0.713690
H186	H	0.178252	1.340410	-0.213690
