data_functionalizedCrystal
_audit_creation_method	'MofGen! by Chris Wilmer'
_symmetry_space_group_name_H-M	'P1'
_symmetry_Int_Tables_number	1
_symmetry_cell_setting	triclinic
loop_
_symmetry_equiv_pos_as_xyz
  x,y,z
_cell_length_a	14.395555
_cell_length_b	14.560438
_cell_length_c	14.560438
_cell_angle_alpha	60.000095
_cell_angle_beta	90.000916
_cell_angle_gamma	59.998745
loop_
_atom_site_label
_atom_site_type_symbol
_atom_site_fract_x
_atom_site_fract_y
_atom_site_fract_z
Zr1	Zr	0.894809	1.005367	-0.120566
O2	O	0.746469	1.196973	-0.267214
O3	O	0.940291	0.813758	-0.075607
O4	O	0.940274	1.005372	-0.267215
O5	O	0.746490	1.005357	0.075534
O6	O	1.093141	1.005378	-0.267219
O7	O	0.746486	1.005360	-0.075606
O8	O	1.093171	0.662617	0.075533
O9	O	0.746460	1.348119	-0.267217
O10	O	1.073762	0.892576	-0.056439
O11	O	0.959682	0.892569	0.056358
O12	O	0.959662	1.118169	-0.169235
O13	O	0.845582	1.118162	-0.056438
Zr14	Zr	1.138621	1.005374	0.120481
Zr15	Zr	1.138614	1.005378	-0.120571
Zr16	Zr	0.894815	1.005363	0.120487
Zr17	Zr	0.894794	1.246427	-0.120570
Zr18	Zr	1.138635	0.764314	0.120485
O19	O	1.093138	1.196983	0.075523
O20	O	1.093130	1.196989	-0.267222
O21	O	0.746478	1.196967	0.075531
O22	O	1.286960	0.813768	0.267130
O23	O	1.286951	0.813774	-0.075615
O24	O	0.940300	0.813752	0.267138
O25	O	1.286939	1.005384	-0.075619
O26	O	1.093155	1.005369	0.267131
O27	O	0.940288	1.005363	0.267134
O28	O	1.286943	1.005381	0.075522
O29	O	0.940253	1.348127	-0.267222
O30	O	1.093176	0.662614	0.267137
O31	O	1.286969	0.662622	0.267132
O32	O	1.286964	0.662625	0.075528
O33	O	0.746465	1.348116	-0.075613
O34	O	0.940258	1.348124	-0.075617
O35	O	1.073767	0.892572	0.169150
O36	O	1.187848	0.892579	0.056353
O37	O	1.073748	1.118172	-0.056443
O38	O	0.959668	1.118165	0.056354
C39	C	1.016733	0.703842	-0.000037
C40	C	1.016740	0.601505	-0.000035
C41	C	1.100927	0.374016	0.083220
C42	C	1.100954	0.470151	0.083226
C43	C	0.932498	0.636725	-0.083313
C44	C	0.932476	0.540590	-0.083323
C45	C	0.711751	1.005357	-0.000035
C46	C	0.608249	1.005352	-0.000033
C47	C	0.609873	0.882349	0.061467
C48	C	0.516854	0.943837	0.106042
C49	C	0.516839	0.943869	-0.044575
C50	C	0.516594	1.066841	0.044604
C51	C	0.516593	1.066855	-0.106072
C52	C	0.423557	1.128434	-0.061524
C53	C	1.321678	1.005384	-0.000049
C54	C	1.425180	1.005389	-0.000052
C55	C	1.016707	1.005376	-0.301562
C56	C	1.016704	1.005377	-0.403895
C57	C	1.016696	1.306899	-0.000048
C58	C	1.016690	1.409236	-0.000050
C59	C	0.957147	1.123132	-0.510849
C60	C	0.957160	1.123126	-0.606998
C61	C	1.076290	0.887599	-0.489224
C62	C	1.076283	0.887607	-0.393078
C63	C	1.016722	1.005365	0.301477
C64	C	1.016725	1.005364	0.403810
C65	C	1.321697	0.703855	-0.000044
C66	C	1.425205	0.601524	-0.000044
C67	C	1.016741	0.703837	0.301483
C68	C	1.016750	0.601499	0.403818
C69	C	1.321705	0.703850	0.301476
C70	C	1.425215	0.601517	0.403808
C71	C	0.711725	1.306891	-0.301560
C72	C	0.608214	1.409224	-0.403893
C73	C	0.711733	1.306886	-0.000041
C74	C	0.608224	1.409217	-0.000040
C75	C	1.016688	1.306904	-0.301567
C76	C	1.016679	1.409242	-0.403902
C77	C	1.414285	0.553444	-0.058918
C78	C	1.511545	0.457300	-0.058923
C79	C	1.630644	0.457321	0.058830
C80	C	1.533384	0.553469	0.058827
C81	C	1.076305	0.553420	0.510771
C82	C	1.076300	0.457272	0.606922
C83	C	0.957184	0.457286	0.489152
C84	C	0.957183	0.553439	0.393003
C85	C	1.533394	0.553442	0.393008
C86	C	1.630649	0.457297	0.489164
C87	C	1.511534	0.457307	0.606917
C88	C	1.414281	0.553457	0.510762
H89	H	1.169500	0.267064	0.151026
H90	H	1.124795	0.791715	-0.480430
N91	N	0.846482	0.770894	-0.168383
N92	N	0.836144	0.815910	-0.269667
H93	H	0.775395	0.910668	-0.329751
N94	N	1.137159	0.408138	0.716171
N95	N	1.215577	0.290091	0.782958
H96	H	1.258563	0.255389	0.860118
H97	H	1.124803	0.592552	0.519582
H98	H	1.718733	0.418182	0.106762
N99	N	1.544556	0.602583	0.118965
N100	N	1.641147	0.559665	0.171528
H101	H	1.649037	0.594355	0.213996
N102	N	1.137139	0.767304	-0.283824
N103	N	1.190325	0.662163	-0.274180
H104	H	1.233308	0.577201	-0.197021
N105	N	0.896352	0.602530	0.283751
N106	N	0.921605	0.527405	0.255062
H107	H	0.878643	0.562077	0.177904
N108	N	1.500368	0.408185	0.716166
N109	N	1.449633	0.354533	0.744843
H110	H	1.441744	0.319837	0.822001
H111	H	1.326204	0.592579	-0.106867
N112	N	1.500370	0.408209	-0.119074
N113	N	1.403774	0.451135	-0.171635
H114	H	1.395877	0.416468	-0.214122
H115	H	0.515933	0.891851	0.195711
H116	H	1.326191	0.592603	0.519564
H117	H	0.863878	0.569279	-0.151138
N118	N	1.544539	0.602568	0.283751
N119	N	1.457701	0.688417	0.197905
H120	H	1.465574	0.723115	0.120740
H121	H	0.689636	0.778338	0.113544
H122	H	1.169549	0.441463	0.151032
H123	H	0.517418	1.118789	0.082371
N124	N	0.517798	1.132011	-0.218539
N125	N	0.519196	1.090069	-0.275713
H126	H	0.520051	1.136077	-0.355147
N127	N	0.896348	0.408177	0.478130
N128	N	0.896357	0.322326	0.563983
H129	H	0.853392	0.287640	0.556198
H130	H	0.343922	1.232529	-0.113528
N131	N	1.741141	0.408193	0.478110
N132	N	1.770155	0.354535	0.427953
H133	H	1.848192	0.319857	0.420141
N134	N	0.515705	0.878612	-0.091812
N135	N	0.594536	0.761938	-0.046873
H136	H	0.593742	0.715840	-0.080224
H137	H	0.908634	1.219029	-0.519663
H138	H	0.908663	1.219014	-0.694082
