data_functionalizedCrystal
_audit_creation_method	'MofGen! by Chris Wilmer'
_symmetry_space_group_name_H-M	'P1'
_symmetry_Int_Tables_number	1
_symmetry_cell_setting	triclinic
loop_
_symmetry_equiv_pos_as_xyz
  x,y,z
_cell_length_a	16.109302
_cell_length_b	27.732048
_cell_length_c	14.586319
_cell_angle_alpha	89.991275
_cell_angle_beta	89.994552
_cell_angle_gamma	83.052218
loop_
_atom_site_label
_atom_site_type_symbol
_atom_site_fract_x
_atom_site_fract_y
_atom_site_fract_z
O1	O	1.102361	0.062132	-0.076292
O2	O	0.860204	0.069863	-0.076286
O3	O	0.988803	-0.004368	-0.076271
O4	O	0.973761	0.136363	-0.076306
O5	O	0.988794	-0.004369	0.076209
O6	O	0.860195	0.069862	0.076195
O7	O	1.102352	0.062131	0.076189
Cu8	Cu	0.981273	0.065996	0.090115
Cu9	Cu	0.981283	0.065998	-0.090211
O10	O	0.973753	0.136362	0.076175
C11	C	0.829228	0.069550	-0.000044
C12	C	0.736944	0.068610	-0.000041
C13	C	0.524626	0.066438	0.083068
C14	C	0.437917	0.065551	0.083065
C15	C	0.437937	0.065554	-0.083178
C16	C	0.524645	0.066438	-0.083174
C17	C	0.567987	0.066883	-0.000049
C18	C	0.394569	0.065111	-0.000056
C19	C	0.300555	0.064149	-0.000060
C20	C	0.662007	0.067844	-0.000045
C21	C	0.988483	-0.022376	-0.000028
C22	C	0.987532	-0.076035	-0.000021
C23	C	1.057541	-0.414557	-0.000070
C24	C	1.054013	-0.616232	-0.000082
O25	O	1.118031	-0.647219	-0.000124
N26	N	0.977759	-0.635675	-0.000080
C27	C	0.902381	-0.604696	-0.000080
O28	O	0.837441	-0.625861	-0.000087
C29	C	0.905910	-0.403022	-0.000074
C30	C	0.982169	-0.383582	-0.000067
C31	C	1.133794	-0.395117	-0.000064
C32	C	1.134675	-0.344701	-0.000056
C33	C	1.059303	-0.313726	-0.000053
C34	C	0.983050	-0.333167	-0.000059
C35	C	0.830533	-0.372044	-0.000080
C36	C	0.831422	-0.321623	-0.000081
C37	C	0.907681	-0.302183	-0.000074
C38	C	0.908559	-0.251776	-0.000048
N39	N	0.984813	-0.232333	-0.000051
C40	C	1.060185	-0.263308	-0.000053
C41	C	0.900534	-0.710577	-0.000081
C42	C	0.899652	-0.760996	-0.000081
C43	C	1.051284	-0.772528	-0.000085
C44	C	1.052165	-0.722109	-0.000079
C45	C	0.976788	-0.691134	-0.000084
C46	C	1.062030	-0.157431	-0.000035
C47	C	1.062904	-0.107010	-0.000023
C48	C	0.911272	-0.095482	-0.000024
C49	C	0.910397	-0.145898	-0.000031
C50	C	0.985783	-0.176872	-0.000040
O51	O	0.844576	-0.220760	-0.000017
O52	O	1.125116	-0.242134	-0.000066
C53	C	1.056660	-0.464973	-0.000078
C54	C	0.980407	-0.484413	-0.000083
C55	C	0.905035	-0.453438	-0.000081
C56	C	0.979524	-0.534832	-0.000083
C57	C	1.054896	-0.565807	-0.000086
C58	C	1.131150	-0.546364	-0.000089
C59	C	1.132032	-0.495948	-0.000080
C60	C	0.828780	-0.472881	-0.000078
C61	C	0.827905	-0.523298	-0.000085
C62	C	0.903277	-0.554273	-0.000088
C63	C	1.133328	0.062444	-0.000054
C64	C	1.225611	0.063384	-0.000063
C65	C	0.974073	0.154370	-0.000070
C66	C	0.975023	0.208029	-0.000084
N67	N	0.981271	0.065995	0.216947
N68	N	0.981291	0.065995	-0.217043
C69	C	1.038234	0.033137	0.451959
C70	C	1.038236	0.033135	0.547941
C71	C	0.924323	0.098855	0.547937
C72	C	0.924317	0.098854	0.451958
C73	C	0.981277	0.065995	0.403971
C74	C	0.981285	0.065995	0.595932
C75	C	0.981287	0.065994	0.699999
C76	C	0.981274	0.065995	0.299898
H77	H	0.559951	0.066799	-0.150862
H78	H	1.125006	-0.091186	-0.000016
H79	H	0.877932	0.125611	0.412883
C80	C	0.749606	-0.287970	-0.000272
C81	C	0.745678	-0.258688	-0.078729
C82	C	0.670319	-0.227687	-0.078940
H83	H	0.746709	-0.268022	0.052841
H84	H	0.704043	-0.306755	-0.000326
H85	H	0.791228	-0.239905	-0.078666
H86	H	0.748560	-0.278623	-0.131855
H87	H	0.624756	-0.246472	-0.078994
H88	H	0.667429	-0.207742	-0.025823
H89	H	0.667640	-0.207819	-0.132175
H90	H	1.112655	-0.797757	-0.000087
C91	C	0.571541	0.066888	0.173411
C92	C	0.515007	0.066295	0.246199
C93	C	0.558194	0.066700	0.329439
H94	H	0.598668	0.095395	0.176999
H95	H	0.612053	0.039051	0.176919
H96	H	0.474510	0.094130	0.242692
H97	H	0.487878	0.037790	0.242642
H98	H	0.598706	0.038863	0.332947
H99	H	0.585320	0.095208	0.333017
H100	H	0.519844	0.066293	0.378835
C101	C	0.390822	0.064967	0.173280
C102	C	0.350956	0.022890	0.178155
C103	C	0.307576	0.022330	0.261257
H104	H	0.350230	0.092757	0.176823
H105	H	0.429038	0.065330	0.222808
H106	H	0.312743	0.022531	0.128640
H107	H	0.391529	-0.004907	0.174628
H108	H	0.345792	0.022694	0.310786
H109	H	0.266988	0.050122	0.264792
H110	H	0.280528	-0.006220	0.264579
H111	H	0.402637	0.065193	-0.150856
C112	C	1.143814	-0.191111	0.000103
C113	C	1.147727	-0.220410	0.078537
C114	C	1.223047	-0.251446	0.078696
H115	H	1.189417	-0.172367	0.000156
H116	H	1.146641	-0.211043	-0.053045
H117	H	1.144908	-0.200481	0.131671
H118	H	1.102141	-0.239165	0.078500
H119	H	1.225875	-0.271378	0.025548
H120	H	1.268645	-0.232698	0.078746
H121	H	1.225710	-0.271332	0.131907
H122	H	1.196773	-0.328878	-0.000054
H123	H	1.195174	-0.420332	-0.000070
H124	H	0.837554	-0.776819	-0.000070
H125	H	1.114262	-0.706285	-0.000074
C126	C	1.214769	-0.474780	-0.000225
C127	C	1.219707	-0.446156	-0.078660
C128	C	1.295911	-0.426647	-0.078821
H129	H	1.259596	-0.500404	-0.000276
H130	H	1.218277	-0.455330	0.052922
H131	H	1.216206	-0.465605	-0.131793
H132	H	1.174897	-0.420525	-0.078626
H133	H	1.299420	-0.407197	-0.025674
H134	H	1.340732	-0.452274	-0.078870
H135	H	1.299268	-0.407220	-0.132033
C136	C	0.818600	-0.677032	-0.000030
C137	C	0.751641	-0.704857	-0.000000
C138	C	0.676151	-0.673974	0.000065
H139	H	0.815666	-0.657107	-0.053187
H140	H	0.815742	-0.657136	0.053167
H141	H	0.754497	-0.724744	-0.053191
H142	H	0.754547	-0.724780	0.053153
H143	H	0.673293	-0.654079	0.053262
H144	H	0.673225	-0.654051	-0.053093
H145	H	0.630710	-0.692849	0.000094
H146	H	1.084613	0.006380	0.412891
C147	C	1.099945	-0.002594	0.600090
C148	C	1.056046	-0.032201	0.655189
C149	C	1.112865	-0.065128	0.703232
H150	H	1.134352	0.014743	0.637597
H151	H	1.133853	-0.022191	0.557791
H152	H	1.022152	-0.012608	0.697483
H153	H	1.021642	-0.049549	0.617705
H154	H	1.146774	-0.084724	0.660933
H155	H	1.147269	-0.047786	0.740734
H156	H	1.083088	-0.085223	0.740615
C157	C	0.747648	-0.393048	-0.000139
C158	C	0.681841	-0.355121	-0.000167
C159	C	0.605472	-0.374449	-0.000235
H160	H	0.744017	-0.412474	0.053016
H161	H	0.744110	-0.412455	-0.053337
H162	H	0.685378	-0.335721	0.053026
H163	H	0.685445	-0.335692	-0.053319
H164	H	0.601933	-0.393857	-0.053434
H165	H	0.601849	-0.393875	0.052921
H166	H	0.560812	-0.348719	-0.000263
H167	H	0.848301	-0.161727	-0.000011
C168	C	0.829470	-0.061822	-0.000214
C169	C	0.825559	-0.032543	-0.078674
C170	C	0.750210	-0.001532	-0.078894
H171	H	0.826578	-0.041872	0.052897
H172	H	0.783898	-0.080600	-0.000269
H173	H	0.871118	-0.013767	-0.078611
H174	H	0.828436	-0.052480	-0.131798
H175	H	0.704639	-0.020310	-0.078949
H176	H	0.747325	0.018414	-0.025780
H177	H	0.747543	0.018334	-0.132132
C178	C	1.212896	-0.580080	-0.000141
C179	C	1.195790	-0.628393	-0.000173
C180	C	1.271067	-0.659468	-0.000240
H181	H	1.244256	-0.574261	0.053016
H182	H	1.244199	-0.574212	-0.053338
H183	H	1.164500	-0.634259	0.053018
H184	H	1.164442	-0.634228	-0.053326
H185	H	1.302370	-0.653600	-0.053437
H186	H	1.302422	-0.653644	0.052918
H187	H	1.259471	-0.692252	-0.000270
H188	H	0.765801	-0.539120	-0.000082
C189	C	0.862582	0.134511	0.600205
C190	C	0.874792	0.127490	0.694532
C191	C	0.817941	0.160334	0.742707
H192	H	0.807125	0.129285	0.584600
H193	H	0.871203	0.166782	0.584513
H194	H	0.866164	0.095227	0.710218
H195	H	0.930238	0.132720	0.710164
H196	H	0.826562	0.192605	0.727014
H197	H	0.762488	0.155105	0.727095
H198	H	0.826223	0.155577	0.806712
H199	H	0.767402	-0.447666	-0.000078
