data_functionalizedCrystal
_audit_creation_method	'MofGen! by Chris Wilmer'
_symmetry_space_group_name_H-M	'P1'
_symmetry_Int_Tables_number	1
_symmetry_cell_setting	triclinic
loop_
_symmetry_equiv_pos_as_xyz
  x,y,z
_cell_length_a	15.711784
_cell_length_b	15.538191
_cell_length_c	9.130313
_cell_angle_alpha	90.002806
_cell_angle_beta	89.998183
_cell_angle_gamma	83.430448
loop_
_atom_site_label
_atom_site_type_symbol
_atom_site_fract_x
_atom_site_fract_y
_atom_site_fract_z
O1	O	1.000647	0.466241	-0.121803
O2	O	0.769292	0.401511	-0.121800
O3	O	0.930005	0.312266	-0.121809
O4	O	0.839935	0.555486	-0.121794
O5	O	0.930002	0.312269	0.121790
O6	O	0.769290	0.401514	0.121799
O7	O	1.000644	0.466244	0.121796
Cu8	Cu	0.884967	0.433879	0.144040
Cu9	Cu	0.884970	0.433876	-0.144044
O10	O	0.839932	0.555489	0.121805
C11	C	0.740405	0.390938	-0.000000
C12	C	0.654335	0.359420	0.000000
C13	C	0.566616	0.240766	-0.000006
C14	C	0.647487	0.270391	-0.000005
C15	C	0.580307	0.418861	-0.000002
C16	C	0.499428	0.389249	-0.000010
C17	C	0.492590	0.300200	-0.000010
C18	C	0.425403	0.448683	-0.000014
C19	C	0.344532	0.419073	-0.000013
C20	C	0.337685	0.330028	-0.000009
C21	C	0.411719	0.270590	-0.000009
C22	C	0.432243	0.537731	-0.000003
C23	C	0.358218	0.597165	-0.000007
C24	C	0.277344	0.567555	-0.000017
C25	C	0.270498	0.478511	-0.000013
C26	C	0.203311	0.626993	-0.000017
C27	C	0.122439	0.597383	-0.000017
C28	C	0.189627	0.448901	-0.000013
C29	C	0.939427	0.280419	-0.000014
C30	C	0.967497	0.185518	-0.000029
C31	C	0.688628	-0.198370	0.000006
C32	C	0.715024	-0.287540	0.000009
C33	C	0.863494	-0.258820	0.000006
C34	C	0.837111	-0.169646	-0.000004
C35	C	0.749677	-0.139429	-0.000003
C36	C	0.898159	-0.110705	-0.000012
C37	C	0.871778	-0.021538	-0.000015
C38	C	0.784348	0.008686	-0.000009
C39	C	0.723295	-0.050263	-0.000005
C40	C	0.985593	-0.140924	-0.000003
C41	C	1.046642	-0.081982	-0.000012
C42	C	1.020260	0.007186	-0.000024
C43	C	0.932830	0.037411	-0.000019
C44	C	1.081313	0.066135	-0.000028
C45	C	1.054931	0.155301	-0.000031
C46	C	0.906449	0.126577	-0.000021
C47	C	1.029532	0.476817	-0.000007
C48	C	1.115601	0.508335	-0.000017
C49	C	0.830510	0.587336	0.000007
C50	C	0.802439	0.682237	0.000013
N51	N	0.884970	0.433883	0.346663
N52	N	0.884974	0.433867	-0.346666
C53	C	0.956141	0.394390	0.423311
C54	C	0.956142	0.394379	0.576648
C55	C	0.813797	0.473362	0.576675
C56	C	0.813794	0.473367	0.423341
C57	C	1.038325	0.348793	0.423296
C58	C	1.038326	0.348782	0.576633
H59	H	0.707761	0.221985	-0.000007
C60	C	0.736425	0.516237	0.659664
C61	C	0.674087	0.550806	0.559714
C62	C	0.602794	0.590299	0.636106
H63	H	0.753252	0.561358	0.719499
H64	H	0.713512	0.474446	0.719436
H65	H	0.696997	0.592593	0.499968
H66	H	0.657235	0.505702	0.499876
H67	H	0.579881	0.548508	0.695878
H68	H	0.619630	0.635417	0.695938
H69	H	0.560486	0.613752	0.568302
H70	H	0.585887	0.491364	0.000003
C71	C	1.048503	0.255895	0.368067
C72	C	1.054733	0.199064	0.487579
C73	C	1.064097	0.113484	0.436759
H74	H	1.098949	0.245942	0.310294
H75	H	1.000169	0.246342	0.310313
H76	H	1.103062	0.208613	0.545309
H77	H	1.004293	0.208989	0.545364
H78	H	1.015763	0.103931	0.379005
H79	H	1.114543	0.103540	0.378985
H80	H	1.068317	0.074914	0.517838
C81	C	1.105133	0.401780	0.360099
C82	C	1.088385	0.487700	0.407742
C83	C	1.149914	0.536541	0.349583
H84	H	1.102894	0.400080	0.256186
H85	H	1.160475	0.378334	0.392268
H86	H	1.033057	0.511139	0.375565
H87	H	1.090631	0.489426	0.511648
H88	H	1.205257	0.513095	0.381753
H89	H	1.147671	0.534834	0.245672
H90	H	1.138564	0.594841	0.381912
C91	C	0.519969	0.570053	0.000071
C92	C	0.510115	0.660756	0.000121
C93	C	0.590908	0.690561	0.000209
H94	H	0.550743	0.549426	-0.084857
H95	H	0.550681	0.549381	0.085050
H96	H	0.479416	0.681420	-0.084850
H97	H	0.479355	0.681407	0.085043
H98	H	0.621620	0.669889	0.085188
H99	H	0.621676	0.669928	-0.084721
H100	H	0.584233	0.752106	0.000256
C101	C	0.365523	0.693867	-0.000239
C102	C	0.325572	0.731450	-0.125553
C103	C	0.332272	0.820532	-0.125812
H104	H	0.424248	0.703110	-0.000312
H105	H	0.338426	0.719563	0.084661
H106	H	0.352671	0.705762	-0.210431
H107	H	0.266844	0.722231	-0.125507
H108	H	0.305175	0.846228	-0.040911
H109	H	0.390999	0.829766	-0.125880
H110	H	0.305160	0.846045	-0.210828
H111	H	0.835251	0.151181	-0.000031
C112	C	1.014192	-0.237743	-0.000310
C113	C	0.982495	-0.275069	-0.125662
C114	C	1.008833	-0.364253	-0.126008
H115	H	0.992754	-0.263331	0.084534
H116	H	1.075007	-0.247332	-0.000385
H117	H	0.921693	-0.265486	-0.125574
H118	H	1.003930	-0.249506	-0.210526
H119	H	1.069648	-0.373842	-0.126082
H120	H	0.987393	-0.389833	-0.041158
H121	H	0.987338	-0.389589	-0.211063
C122	C	0.404231	0.173918	-0.000320
C123	C	0.359781	0.152583	-0.125663
C124	C	0.352874	0.063540	-0.126007
H125	H	0.374050	0.159182	0.084530
H126	H	0.459886	0.142723	-0.000403
H127	H	0.304136	0.183768	-0.125566
H128	H	0.389950	0.167297	-0.210533
H129	H	0.408529	0.032345	-0.126091
H130	H	0.322694	0.048813	-0.041152
H131	H	0.322722	0.049052	-0.211057
H132	H	0.934683	-0.283436	0.000011
H133	H	0.271833	0.305921	0.000005
C134	C	0.755820	0.105519	0.000215
C135	C	0.787558	0.142859	0.125519
C136	C	0.761305	0.232060	0.125765
H137	H	0.695020	0.115192	0.000293
H138	H	0.777298	0.131030	-0.084691
H139	H	0.766075	0.117356	0.210404
H140	H	0.848356	0.133210	0.125469
H141	H	0.782784	0.257571	0.040859
H142	H	0.700505	0.241724	0.125838
H143	H	0.782842	0.257408	0.210775
C144	C	0.628325	-0.017617	0.000052
C145	C	0.580502	-0.088318	0.000082
C146	C	0.493018	-0.058277	0.000151
H147	H	0.614840	0.016548	-0.084876
H148	H	0.614904	0.016547	0.085032
H149	H	0.593917	-0.122468	-0.084889
H150	H	0.593960	-0.122490	0.085003
H151	H	0.479597	-0.024113	0.085131
H152	H	0.479542	-0.024112	-0.084778
H153	H	0.460559	-0.106243	0.000185
H154	H	0.208892	0.699497	-0.000002
C155	C	1.141579	-0.114743	0.000281
C156	C	1.179952	-0.084399	0.125615
C157	C	1.267405	-0.114567	0.125937
H158	H	1.167864	-0.094251	-0.084575
H159	H	1.148587	-0.176291	0.000363
H160	H	1.172950	-0.022864	0.125519
H161	H	1.153692	-0.104889	0.210491
H162	H	1.274414	-0.176115	0.126019
H163	H	1.293682	-0.094073	0.041076
H164	H	1.293451	-0.093990	0.210980
C165	C	1.112334	0.394772	0.632231
C166	C	1.166998	0.337412	0.717307
C167	C	1.235185	0.379742	0.768534
H168	H	1.090670	0.443167	0.690142
H169	H	1.143185	0.413989	0.551345
H170	H	1.136153	0.318208	0.798181
H171	H	1.188684	0.289015	0.659427
H172	H	1.266035	0.398958	0.687649
H173	H	1.213513	0.428136	0.826440
H174	H	1.272286	0.340827	0.826253
H175	H	0.062164	0.645781	-0.000014
H176	H	0.184060	0.376389	-0.000028
H177	H	0.617431	-0.173766	-0.000004
H178	H	0.561049	0.168254	-0.000021
C179	C	1.121341	0.219164	-0.000131
C180	C	1.203558	0.173617	-0.000179
C181	C	1.264756	0.232419	-0.000289
H182	H	1.114253	0.254577	0.084790
H183	H	1.114179	0.254528	-0.085117
H184	H	1.210716	0.138268	0.084799
H185	H	1.210673	0.138207	-0.085094
H186	H	1.257595	0.267783	-0.085276
H187	H	1.257660	0.267829	0.084633
H188	H	1.320547	0.201524	-0.000336
H189	H	1.152501	0.041518	-0.000015
H190	H	0.755837	0.505516	0.360935
H191	H	0.665304	-0.335530	0.000037
H192	H	1.039184	0.280850	0.624176
