data_functionalizedCrystal
_audit_creation_method	'MofGen! by Chris Wilmer'
_symmetry_space_group_name_H-M	'P1'
_symmetry_Int_Tables_number	1
_symmetry_cell_setting	triclinic
loop_
_symmetry_equiv_pos_as_xyz
  x,y,z
_cell_length_a	17.077404
_cell_length_b	19.076808
_cell_length_c	19.076919
_cell_angle_alpha	89.878360
_cell_angle_beta	92.282280
_cell_angle_gamma	92.321444
loop_
_atom_site_label
_atom_site_type_symbol
_atom_site_fract_x
_atom_site_fract_y
_atom_site_fract_z
Zn1	Zn	1.169470	-0.295779	-0.386032
Zn2	Zn	1.169801	-0.408573	-0.263801
Zn3	Zn	1.043683	-0.291074	-0.268543
Zn4	Zn	1.033114	-0.413251	-0.381271
O5	O	1.104017	-0.352169	-0.324912
O6	O	1.279360	-0.310753	-0.369826
O7	O	1.157633	-0.389060	-0.166099
O8	O	1.064654	-0.193362	-0.288104
O9	O	1.279603	-0.393622	-0.280024
O10	O	1.157069	-0.196818	-0.374423
O11	O	1.064975	-0.302734	-0.169582
O12	O	0.932435	-0.307270	-0.283488
O13	O	1.046640	-0.401595	-0.480234
O14	O	0.924670	-0.397033	-0.366309
O15	O	1.146820	-0.315288	-0.483732
O16	O	1.147384	-0.507530	-0.275407
O17	O	1.046961	-0.510967	-0.361712
C18	C	0.900071	-0.352149	-0.324897
C19	C	0.812820	-0.352158	-0.324906
C20	C	0.771697	-0.309090	-0.371732
C21	C	0.689717	-0.309095	-0.371735
C22	C	0.648860	-0.352171	-0.324915
C23	C	0.689988	-0.395240	-0.278085
C24	C	0.771968	-0.395232	-0.278079
C25	C	0.519116	-0.395257	-0.278102
C26	C	0.437131	-0.395267	-0.278108
C27	C	0.436866	-0.309120	-0.371758
C28	C	0.518845	-0.309111	-0.371752
C29	C	0.559968	-0.352182	-0.324922
C30	C	1.096082	-0.534747	-0.317544
C31	C	1.092758	-0.612855	-0.314415
C32	C	1.139273	-0.651291	-0.357924
C33	C	1.136146	-0.724683	-0.354985
C34	C	1.086509	-0.759636	-0.308535
C35	C	1.039989	-0.721195	-0.265025
C36	C	1.043112	-0.647805	-0.267967
C37	C	1.072010	-0.978941	-0.294915
C38	C	1.068892	-1.052336	-0.291974
C39	C	1.165049	-1.055819	-0.381936
C40	C	1.168171	-0.982427	-0.384871
C41	C	1.121648	-0.943993	-0.341364
N42	N	1.083314	-0.834654	-0.305528
N43	N	1.124840	-0.868977	-0.344374
C44	C	1.308759	-0.352190	-0.324927
C45	C	1.396009	-0.352200	-0.324934
C46	C	1.095514	-0.359488	-0.508192
C47	C	1.091891	-0.362607	-0.586295
C48	C	1.112004	-0.168879	-0.332324
C49	C	1.115407	-0.090772	-0.335482
C50	C	1.142345	-0.319139	-0.624810
C51	C	1.138931	-0.322067	-0.698196
C52	C	1.085066	-0.368466	-0.733066
C53	C	1.034607	-0.411936	-0.694545
C54	C	1.038018	-0.409004	-0.621161
C55	C	1.069269	-0.382050	-0.952347
C56	C	1.065864	-0.384980	-1.025737
C57	C	1.170187	-0.295109	-1.029383
C58	C	1.173596	-0.292184	-0.955996
C59	C	1.123134	-0.335651	-0.917483
N60	N	1.081577	-0.371462	-0.808078
N61	N	1.126620	-0.332652	-0.842472
C62	C	1.112534	-0.344828	-0.142347
C63	C	1.116318	-0.341512	-0.064252
H64	H	0.656716	-0.430311	-0.239960
H65	H	1.005233	-0.616511	-0.232539
H66	H	0.403867	-0.430344	-0.239984
H67	H	1.179696	-0.622837	-0.395746
H68	H	1.217460	-0.254403	-0.927611
C69	C	1.201750	-0.964514	-0.504798
C70	C	1.222736	-0.944011	-0.435932
H71	H	1.235438	-0.940794	-0.536318
H72	H	1.206547	-1.013717	-0.509267
H73	H	1.149035	-0.952922	-0.515515
H74	H	1.275449	-0.955607	-0.425213
H75	H	1.217946	-0.894797	-0.431460
H76	H	1.211269	-0.259720	-1.060749
H77	H	1.186209	-0.281357	-0.596425
C78	C	1.034089	-0.864901	-0.259481
C79	C	1.020876	-0.936699	-0.247090
H80	H	1.002515	-0.838821	-0.229957
H81	H	1.087820	-0.852429	-0.249720
H82	H	1.020878	-0.854758	-0.307169
H83	H	1.034092	-0.946843	-0.199403
H84	H	0.967132	-0.949175	-0.256845
H85	H	0.656238	-0.274026	-0.409866
H86	H	1.028191	-0.417454	-0.920997
H87	H	1.174030	-0.755974	-0.390409
C88	C	1.058945	-1.131127	-0.194127
C89	C	1.014327	-1.090755	-0.240909
H90	H	1.025261	-1.154840	-0.162599
H91	H	1.086194	-1.164519	-0.219616
H92	H	1.095629	-1.101397	-0.168430
H93	H	0.977646	-1.120486	-0.266610
H94	H	0.987064	-1.057359	-0.215416
H95	H	0.805449	-0.430301	-0.239948
H96	H	1.180017	-0.286672	-0.729552
C97	C	0.510353	-0.223953	-0.464316
C98	C	0.563757	-0.261760	-0.423214
H99	H	0.538082	-0.194716	-0.496082
H100	H	0.475814	-0.255685	-0.489912
H101	H	0.480954	-0.195810	-0.434827
H102	H	0.593153	-0.289907	-0.452703
H103	H	0.598310	-0.230024	-0.397617
C104	C	0.963074	-0.473515	-1.014766
C105	C	1.006649	-0.435983	-1.064067
H106	H	0.926518	-0.504997	-1.038432
H107	H	0.997428	-0.499256	-0.985060
H108	H	0.935714	-0.441742	-0.987379
H109	H	1.034014	-0.467756	-1.091451
H110	H	0.972290	-0.410240	-1.093786
H111	H	0.403380	-0.274049	-0.409887
C112	C	1.202954	-1.169866	-0.417378
C113	C	1.216177	-1.098068	-0.429764
H114	H	1.234515	-1.195948	-0.446911
H115	H	1.216168	-1.180015	-0.369699
H116	H	1.149212	-1.182330	-0.427134
H117	H	1.269918	-1.085603	-0.420002
H118	H	1.202968	-1.087915	-0.477454
H119	H	0.999570	-0.749660	-0.227206
H120	H	0.990747	-0.449713	-0.722942
C121	C	0.934579	-0.498150	-0.624923
C122	C	0.982571	-0.456798	-0.578821
H123	H	0.900353	-0.527661	-0.598783
H124	H	0.904549	-0.468677	-0.654773
H125	H	0.966290	-0.526168	-0.652469
H126	H	0.950860	-0.428776	-0.551279
H127	H	1.012603	-0.486274	-0.548958
H128	H	0.552596	-0.430328	-0.239966
C129	C	0.763192	-0.223936	-0.464297
C130	C	0.816604	-0.261739	-0.423199
H131	H	0.790916	-0.194699	-0.496067
H132	H	0.728651	-0.255670	-0.489888
H133	H	0.733796	-0.195793	-0.434806
H134	H	0.845996	-0.289886	-0.452689
H135	H	0.851158	-0.230001	-0.397606
