data_functionalizedCrystal
_audit_creation_method	'MofGen! by Chris Wilmer'
_symmetry_space_group_name_H-M	'P1'
_symmetry_Int_Tables_number	1
_symmetry_cell_setting	triclinic
loop_
_symmetry_equiv_pos_as_xyz
  x,y,z
_cell_length_a	13.032831
_cell_length_b	21.295417
_cell_length_c	13.032268
_cell_angle_alpha	97.141788
_cell_angle_beta	90.886977
_cell_angle_gamma	82.833712
loop_
_atom_site_label
_atom_site_type_symbol
_atom_site_fract_x
_atom_site_fract_y
_atom_site_fract_z
Zn1	Zn	1.498345	-0.425104	-0.780742
Zn2	Zn	1.520057	-0.518889	-0.608741
Zn3	Zn	1.348211	-0.398808	-0.586989
Zn4	Zn	1.326306	-0.515485	-0.758867
O5	O	1.423230	-0.464571	-0.683835
O6	O	1.645141	-0.449974	-0.776184
O7	O	1.515515	-0.493379	-0.461941
O8	O	1.368207	-0.314217	-0.612741
O9	O	1.661094	-0.518877	-0.649816
O10	O	1.478510	-0.333536	-0.755091
O11	O	1.389261	-0.405156	-0.445960
O12	O	1.201389	-0.401856	-0.591531
O13	O	1.330873	-0.513077	-0.905684
O14	O	1.185295	-0.487579	-0.717809
O15	O	1.457269	-0.446673	-0.921755
O16	O	1.494275	-0.606517	-0.628605
O17	O	1.351927	-0.604016	-0.738902
C18	C	1.156026	-0.441495	-0.649936
C19	C	1.041712	-0.431640	-0.635459
C20	C	1.423105	-0.628108	-0.683766
C21	C	1.423142	-0.698080	-0.683783
C22	C	0.982824	-0.469715	-0.691391
C23	C	0.864674	-0.459530	-0.676429
C24	C	1.480533	-0.740949	-0.757947
C25	C	1.480566	-0.806697	-0.757977
C26	C	1.423221	-0.829572	-0.683826
C27	C	1.365818	-0.786694	-0.609656
C28	C	1.365778	-0.720948	-0.609635
N29	N	1.426890	-0.926160	-0.592840
N30	N	1.426933	-0.988616	-0.592864
C31	C	1.423335	-1.027660	-0.683888
N32	N	1.419712	-1.001890	-0.774891
N33	N	1.419674	-0.939428	-0.774866
C34	C	1.423257	-0.900862	-0.683842
C35	C	1.480765	-1.141821	-0.758090
C36	C	1.480790	-1.207569	-0.758121
C37	C	1.366049	-1.187565	-0.609792
C38	C	1.366017	-1.121818	-0.609769
C39	C	1.423381	-1.098950	-0.683918
C40	C	1.691477	-0.487738	-0.717866
C41	C	1.805788	-0.497610	-0.732369
C42	C	1.389206	-0.482429	-0.952078
C43	C	1.374707	-0.490038	-1.066387
C44	C	1.423380	-0.300400	-0.683930
C45	C	1.423444	-0.230440	-0.683970
C46	C	1.430781	-0.460576	-1.125302
C47	C	1.415797	-0.468440	-1.243447
C48	C	1.457181	-0.446743	-0.416643
C49	C	1.471879	-0.438974	-0.302359
H50	H	1.019877	-0.509851	-0.750356
C51	C	1.542690	-0.853283	-0.838602
C52	C	1.476067	-0.890386	-0.897102
C53	C	1.533254	-0.933302	-0.971389
H54	H	1.592530	-0.880230	-0.805107
H55	H	1.576823	-0.830274	-0.882823
H56	H	1.441951	-0.913393	-0.852887
H57	H	1.426226	-0.863456	-0.930620
H58	H	1.567387	-0.910293	-1.015610
H59	H	1.583093	-0.960244	-0.937885
H60	H	1.488058	-0.958477	-1.011096
H61	H	1.527470	-1.123201	-0.818469
H62	H	1.527524	-1.242473	-0.818518
H63	H	1.530978	-0.407922	-1.265337
C64	C	1.295811	-0.531439	-1.115548
C65	C	1.246966	-0.557084	-1.038297
C66	C	1.174271	-0.595219	-1.083540
H67	H	1.329735	-0.565075	-1.162422
H68	H	1.245693	-0.506268	-1.151754
H69	H	1.297076	-0.582253	-1.002107
H70	H	1.213021	-0.523461	-0.991418
H71	H	1.124152	-0.570048	-1.119746
H72	H	1.208203	-0.628852	-1.130413
H73	H	1.141113	-0.612619	-1.031132
C74	C	1.303445	-0.674503	-0.528988
C75	C	1.253246	-0.708604	-0.464040
C76	C	1.195828	-0.665840	-0.389727
H77	H	1.253529	-0.647596	-0.562469
H78	H	1.348473	-0.649273	-0.489138
H79	H	1.208221	-0.733823	-0.503885
H80	H	1.303137	-0.735509	-0.430535
H81	H	1.240856	-0.640610	-0.349877
H82	H	1.145917	-0.638935	-0.423217
H83	H	1.161768	-0.688971	-0.345645
H84	H	0.827625	-0.419387	-0.617467
H85	H	1.489877	-0.429527	-1.088274
C86	C	1.337079	-0.509841	-1.293002
C87	C	1.337894	-0.509430	-1.400335
C88	C	1.265407	-0.547569	-1.446022
H89	H	1.270138	-0.493550	-1.266807
H90	H	1.354311	-0.552290	-1.277393
H91	H	1.320656	-0.466990	-1.415937
H92	H	1.404817	-0.525727	-1.426559
H93	H	1.282639	-0.590017	-1.430413
H94	H	1.198471	-0.531274	-1.419819
H95	H	1.265957	-0.547300	-1.518853
C96	C	1.303665	-0.811653	-0.529202
C97	C	1.316006	-0.878407	-0.545075
C98	C	1.258770	-0.901420	-0.470973
H99	H	1.232610	-0.796014	-0.535357
H100	H	1.327540	-0.797627	-0.462006
H101	H	1.292126	-0.892426	-0.612254
H102	H	1.387047	-0.894062	-0.538911
H103	H	1.282645	-0.887394	-0.403778
H104	H	1.187719	-0.885777	-0.477134
H105	H	1.267143	-0.946714	-0.481727
C106	C	1.303885	-1.212518	-0.529344
C107	C	1.316216	-1.279272	-0.545223
C108	C	1.258968	-1.302284	-0.471130
H109	H	1.232833	-1.196875	-0.535503
H110	H	1.327756	-1.198496	-0.462145
H111	H	1.292340	-1.293288	-0.612405
H112	H	1.387255	-1.294932	-0.539055
H113	H	1.282839	-1.288262	-0.403932
H114	H	1.187919	-1.286637	-0.477296
H115	H	1.267334	-1.347578	-0.481889
H116	H	0.842834	-0.537748	-0.791341
H117	H	1.527238	-0.722333	-0.818325
C118	C	0.992129	-0.378181	-0.556839
C119	C	0.884803	-0.378725	-0.557596
C120	C	0.839098	-0.329495	-0.485168
H121	H	1.007667	-0.338370	-0.574131
H122	H	1.018380	-0.384236	-0.489892
H123	H	0.858561	-0.372665	-0.624528
H124	H	0.869234	-0.418524	-0.540293
H125	H	0.865349	-0.335550	-0.418221
H126	H	0.854644	-0.289688	-0.502467
H127	H	0.766274	-0.329861	-0.485666
C128	C	1.303693	-1.075373	-0.529119
C129	C	1.253501	-1.109476	-0.464168
C130	C	1.196086	-1.066712	-0.389851
H131	H	1.253774	-1.048467	-0.562597
H132	H	1.348723	-1.050143	-0.489272
H133	H	1.208475	-1.134695	-0.504010
H134	H	1.303396	-1.136380	-0.430666
H135	H	1.241115	-1.041482	-0.350004
H136	H	1.146172	-1.039808	-0.423338
H137	H	1.162031	-1.089845	-0.345767
