data_functionalizedCrystal
_audit_creation_method	'MofGen! by Chris Wilmer'
_symmetry_space_group_name_H-M	'P1'
_symmetry_Int_Tables_number	1
_symmetry_cell_setting	triclinic
loop_
_symmetry_equiv_pos_as_xyz
  x,y,z
_cell_length_a	30.711293
_cell_length_b	30.706025
_cell_length_c	30.700862
_cell_angle_alpha	120.000090
_cell_angle_beta	90.000363
_cell_angle_gamma	59.983279
loop_
_atom_site_label
_atom_site_type_symbol
_atom_site_fract_x
_atom_site_fract_y
_atom_site_fract_z
O1	O	-0.298560	-0.384230	-0.012980
O2	O	-0.235274	-0.295030	0.012880
O3	O	-0.235240	-0.384228	-0.076322
O4	O	-0.298594	-0.295033	0.076221
O5	O	-0.307688	-0.311777	-0.076313
O6	O	-0.307723	-0.222579	0.012889
O7	O	-0.371009	-0.311779	-0.012971
Cu8	Cu	-0.345981	-0.260564	-0.000040
Cu9	Cu	-0.260302	-0.346246	-0.000051
O10	O	-0.371043	-0.222581	0.076231
C11	C	-0.110241	0.007429	0.039176
C12	C	-0.136559	-0.018656	0.039547
C13	C	-0.031366	-0.071445	0.039179
C14	C	-0.057804	-0.097410	0.039549
C15	C	-0.110216	-0.071444	0.039181
C16	C	-0.057829	-0.018657	0.039545
C17	C	-0.158445	0.183349	0.024886
C18	C	-0.183278	0.233174	0.020846
C19	C	-0.235216	0.258168	0.018819
C20	C	-0.262141	0.312185	0.014429
C21	C	-0.262319	0.233337	0.020837
C22	C	-0.237488	0.183521	0.024884
C23	C	-0.185548	0.158527	0.026909
C24	C	-0.237917	-0.133888	0.024905
C25	C	-0.262900	-0.162751	0.020870
C26	C	-0.235942	-0.216724	0.018843
C27	C	-0.263022	-0.248028	0.014459
C28	C	-0.183998	-0.241828	0.020858
C29	C	-0.159019	-0.212960	0.024903
C30	C	-0.185984	-0.158988	0.026923
C31	C	0.158800	-0.133894	0.024896
C32	C	0.212660	-0.162763	0.020852
C33	C	0.239689	-0.216736	0.018827
C34	C	0.298088	-0.248042	0.014439
C35	C	0.212860	-0.241839	0.020842
C36	C	0.159003	-0.212970	0.024884
C37	C	0.131975	-0.158993	0.026916
C38	C	-0.158625	0.104505	0.031292
C39	C	-0.137164	0.061446	0.034788
C40	C	0.027030	-0.102747	0.034793
C41	C	0.073577	-0.127696	0.031299
C42	C	-0.137301	-0.102744	0.034797
C43	C	-0.158892	-0.127692	0.031305
C44	C	-0.371613	-0.469667	-0.018875
C45	C	-0.344722	-0.523429	-0.015183
C46	C	-0.424026	-0.443579	-0.019241
C47	C	-0.371645	-0.390783	-0.018864
C48	C	-0.344788	-0.360201	-0.015161
C49	C	-0.424058	-0.364815	-0.019230
C50	C	-0.450493	-0.390785	-0.018865
C51	C	-0.507941	-0.360206	-0.015162
C52	C	-0.345298	-0.443577	-0.019240
C53	C	-0.110049	-0.535722	-0.503977
C54	C	-0.057625	-0.588516	-0.530318
C55	C	-0.110049	-0.535722	-0.425101
C56	C	-0.057625	-0.588515	-0.451562
C57	C	-0.031170	-0.614604	-0.503986
C58	C	-0.136385	-0.509754	-0.451553
C59	C	-0.237823	-0.393668	-0.552126
C60	C	-0.262827	-0.364627	-0.576949
C61	C	-0.235874	-0.389554	-0.628899
C62	C	-0.262979	-0.358063	-0.655813
C63	C	-0.183918	-0.443527	-0.656025
C64	C	-0.158921	-0.472568	-0.631204
C65	C	-0.185876	-0.447636	-0.579252
C66	C	0.159041	-0.790545	-0.631770
C67	C	0.212907	-0.840376	-0.656777
C68	C	0.239931	-0.865372	-0.629829
C69	C	0.298337	-0.919396	-0.656935
C70	C	0.213082	-0.840537	-0.577873
C71	C	0.159216	-0.790715	-0.552871
C72	C	0.132199	-0.765719	-0.579825
C73	C	-0.237824	-0.393667	-0.234876
C74	C	-0.262826	-0.364622	-0.181005
C75	C	-0.235873	-0.389549	-0.153987
C76	C	-0.262978	-0.358057	-0.095576
C77	C	-0.183919	-0.443517	-0.180839
C78	C	-0.158920	-0.472558	-0.234708
C79	C	-0.185879	-0.447631	-0.261724
C80	C	-0.158764	-0.479128	-0.552341
C81	C	-0.137156	-0.504230	-0.530889
C82	C	-0.137156	-0.504230	-0.366693
C83	C	-0.158765	-0.479128	-0.320135
C84	C	0.027236	-0.668627	-0.531096
C85	C	0.073791	-0.711691	-0.552708
O86	O	0.469843	-0.311788	-0.012980
O87	O	0.317331	-0.222593	0.012869
O88	O	0.406527	-0.311801	-0.076328
O89	O	0.380647	-0.222580	0.076217
O90	O	0.406550	-0.384244	-0.076324
O91	O	0.317353	-0.295036	0.012873
O92	O	0.469866	-0.384231	-0.012976
Cu93	Cu	0.393612	-0.346248	-0.000051
Cu94	Cu	0.393585	-0.260576	-0.000056
O95	O	0.380670	-0.295023	0.076221
O96	O	-0.370916	0.456546	-0.013002
O97	O	-0.307555	0.329869	0.012853
O98	O	-0.307548	0.329849	-0.076346
O99	O	-0.370924	0.456566	0.076198
O100	O	-0.235127	0.329849	-0.076348
O101	O	-0.235134	0.329868	0.012852
O102	O	-0.298495	0.456545	-0.013003
Cu103	Cu	-0.260202	0.393207	-0.000076
Cu104	Cu	-0.345848	0.393208	-0.000074
O105	O	-0.298503	0.456565	0.076196
O106	O	0.470124	-1.063774	-0.692551
O107	O	0.317595	-0.937080	-0.629197
O108	O	0.406754	-0.937078	-0.629194
O109	O	0.380966	-1.063776	-0.692554
O110	O	0.406756	-0.937080	-0.701640
O111	O	0.317597	-0.937082	-0.701643
O112	O	0.470126	-1.063776	-0.764997
Cu113	Cu	0.393862	-1.000429	-0.739935
Cu114	Cu	0.393860	-1.000427	-0.654259
O115	O	0.380968	-1.063778	-0.765000
O116	O	-0.298597	-0.295029	-0.764570
O117	O	-0.235239	-0.384228	-0.701240
O118	O	-0.235275	-0.295029	-0.701227
O119	O	-0.298561	-0.384229	-0.764583
O120	O	-0.307722	-0.222580	-0.628773
O121	O	-0.307686	-0.311779	-0.628786
O122	O	-0.371045	-0.222580	-0.692115
Cu123	Cu	-0.345981	-0.260564	-0.653835
Cu124	Cu	-0.260303	-0.346244	-0.739521
O125	O	-0.371008	-0.311779	-0.692128
C126	C	-0.450593	-0.137148	0.234779
C127	C	-0.508050	-0.083387	0.261663
C128	C	-0.424138	-0.163236	0.261112
C129	C	-0.371714	-0.216030	0.155895
C130	C	-0.344832	-0.246610	0.098435
C131	C	-0.345378	-0.241998	0.182347
C132	C	-0.371715	-0.216029	0.234771
C133	C	-0.344834	-0.246608	0.261647
C134	C	-0.424137	-0.163237	0.182355
C135	C	0.374767	-0.216006	0.234769
C136	C	0.378475	-0.246579	0.261651
C137	C	0.374383	-0.163215	0.261103
C138	C	0.374766	-0.216018	0.155887
C139	C	0.378472	-0.246603	0.098428
C140	C	0.374382	-0.163227	0.182341
C141	C	0.374743	-0.137134	0.234764
C142	C	0.378425	-0.083375	0.261641
C143	C	0.374406	-0.241980	0.182345
C144	C	-0.371658	0.609254	0.234748
C145	C	-0.344802	0.639837	0.261628
C146	C	-0.424072	0.635225	0.261084
C147	C	-0.371624	0.530362	0.155866
C148	C	-0.344731	0.476594	0.098406
C149	C	-0.424038	0.556453	0.182323
C150	C	-0.450507	0.609253	0.234747
C151	C	-0.507956	0.639835	0.261628
C152	C	-0.345309	0.556454	0.182323
C153	C	0.432912	-0.614317	-0.503984
C154	C	0.433272	-0.588236	-0.530323
C155	C	0.432889	-0.535433	-0.425107
C156	C	0.433249	-0.509471	-0.451565
C157	C	0.432887	-0.535444	-0.503989
C158	C	0.433274	-0.588225	-0.451561
C159	C	0.418691	-0.790245	-0.552141
C160	C	0.414670	-0.840075	-0.576966
C161	C	0.412651	-0.865075	-0.628915
C162	C	0.408281	-0.919097	-0.655831
C163	C	0.414657	-0.840247	-0.656039
C164	C	0.418685	-0.790427	-0.631216
C165	C	0.420702	-0.765426	-0.579265
C166	C	0.418589	-0.473019	-0.631763
C167	C	0.414543	-0.444160	-0.656767
C168	C	0.412498	-0.390184	-0.629818
C169	C	0.408103	-0.358883	-0.656921
C170	C	0.414506	-0.365072	-0.577862
C171	C	0.418561	-0.393937	-0.552863
C172	C	0.420599	-0.447912	-0.579819
C173	C	0.418598	-0.472961	-0.234886
C174	C	0.414547	-0.444086	-0.181015
C175	C	0.412504	-0.390110	-0.153995
C176	C	0.408109	-0.358797	-0.095584
C177	C	0.414508	-0.365010	-0.180845
C178	C	0.418557	-0.393886	-0.234713
C179	C	0.420607	-0.447866	-0.261731
C180	C	0.425065	-0.711401	-0.552351
C181	C	0.428545	-0.668338	-0.530898
C182	C	0.428497	-0.504124	-0.366699
C183	C	0.424997	-0.479170	-0.320142
C184	C	0.428493	-0.504148	-0.531096
C185	C	0.424991	-0.479204	-0.552705
O186	O	0.406520	-0.311722	0.371239
O187	O	0.380652	-0.222546	0.307887
O188	O	0.469843	-0.311740	0.307881
O189	O	0.317328	-0.222529	0.371245
O190	O	0.469864	-0.384194	0.235435
O191	O	0.380673	-0.295000	0.235441
O192	O	0.406541	-0.384176	0.298793
Cu193	Cu	0.393609	-0.346204	0.260502
Cu194	Cu	0.393584	-0.260518	0.346177
O195	O	0.317349	-0.294983	0.298799
C196	C	-0.031313	-0.071565	-0.504016
C197	C	-0.057748	-0.097537	-0.530352
C198	C	-0.110196	0.007326	-0.425134
C199	C	-0.136510	-0.018766	-0.451590
C200	C	-0.110162	-0.071565	-0.504015
C201	C	-0.057781	-0.018765	-0.451591
C202	C	0.158856	-0.134018	-0.552184
C203	C	0.212715	-0.162887	-0.577013
C204	C	0.239750	-0.216870	-0.628963
C205	C	0.298150	-0.248180	-0.655882
C206	C	0.212921	-0.241981	-0.656085
C207	C	0.159064	-0.213108	-0.631259
C208	C	0.132032	-0.159124	-0.579306
C209	C	-0.158251	-0.213634	-0.631786
C210	C	-0.183057	-0.242678	-0.656789
C211	C	-0.234995	-0.217752	-0.629837
C212	C	-0.261892	-0.249242	-0.656938
C213	C	-0.262129	-0.163773	-0.577880
C214	C	-0.237327	-0.134725	-0.552882
C215	C	-0.185383	-0.159664	-0.579841
C216	C	-0.158420	0.183292	-0.234912
C217	C	-0.183257	0.233126	-0.181041
C218	C	-0.235197	0.258125	-0.154017
C219	C	-0.262129	0.312156	-0.095606
C220	C	-0.262295	0.233287	-0.180865
C221	C	-0.237456	0.183453	-0.234734
C222	C	-0.185518	0.158463	-0.261755
C223	C	0.073634	-0.127823	-0.552389
C224	C	0.027085	-0.102871	-0.530933
C225	C	-0.137125	0.061357	-0.366725
C226	C	-0.158591	0.104427	-0.320167
C227	C	-0.137055	-0.103060	-0.531121
C228	C	-0.158492	-0.128165	-0.552728
H229	H	-0.179626	0.003184	0.040147
C230	C	0.420844	-0.532395	-0.661415
H231	H	0.423539	-0.545987	-0.639084
H232	H	0.451046	-0.563432	-0.693066
H233	H	0.389329	-0.524392	-0.670377
H234	H	0.136797	-0.089945	0.026549
C235	C	-0.267579	-0.074517	0.027137
H236	H	-0.302092	-0.063697	0.025365
H237	H	-0.248130	-0.081134	-0.002149
H238	H	-0.270822	-0.042089	0.059580
C239	C	-0.153468	0.260488	0.018633
H240	H	-0.118980	0.238466	0.020416
H241	H	-0.172864	0.302610	0.047919
H242	H	-0.150162	0.257228	-0.013810
H243	H	-0.116617	-0.516500	-0.256568
C244	C	-0.153208	-0.302054	-0.713931
H245	H	-0.118720	-0.312747	-0.726401
H246	H	-0.172580	-0.295519	-0.736673
H247	H	-0.149899	-0.334535	-0.713968
C248	C	0.242802	-0.868031	-0.548230
H249	H	0.278729	-0.901258	-0.570559
H250	H	0.225848	-0.882586	-0.539268
H251	H	0.242174	-0.837208	-0.516577
C252	C	-0.287130	0.526950	0.153630
H253	H	-0.275178	0.550064	0.176907
H254	H	-0.285089	0.526718	0.122634
H255	H	-0.265229	0.485864	0.143659
C256	C	-0.452827	-0.133742	0.153666
H257	H	-0.487903	-0.098499	0.176944
H258	H	-0.454628	-0.162701	0.122669
H259	H	-0.433648	-0.121818	0.143694
H260	H	0.137359	-0.770500	-0.510570
H261	H	0.433876	-0.610080	-0.573398
H262	H	0.433824	-0.466988	-0.430323
H263	H	-0.305125	-0.320673	-0.159143
H264	H	-0.036493	-0.140029	-0.573424
C265	C	0.373572	-0.133710	0.319291
H266	H	0.373388	-0.098465	0.331253
H267	H	0.404346	-0.162662	0.321325
H268	H	0.342471	-0.121787	0.341194
H269	H	-0.036387	-0.610349	-0.573393
C270	C	-0.452923	-0.133932	0.319207
H271	H	-0.429671	-0.157099	0.331140
H272	H	-0.483830	-0.133878	0.321014
H273	H	-0.463047	-0.092796	0.341284
H274	H	0.373839	-0.284468	0.161104
C275	C	-0.029106	-0.154796	0.040347
H276	H	-0.052372	-0.166592	0.040511
H277	H	-0.019124	-0.145594	0.071448
H278	H	0.001882	-0.187611	0.009562
H279	H	-0.115959	-0.233942	-0.653741
C280	C	-0.452800	-0.307355	-0.019917
H281	H	-0.429550	-0.295529	-0.020046
H282	H	-0.483767	-0.274600	0.010891
H283	H	-0.462817	-0.316471	-0.050996
H284	H	0.412907	-0.464608	-0.699068
C285	C	0.373572	-0.133739	0.153647
H286	H	0.373415	-0.156853	0.118570
H287	H	0.404334	-0.133522	0.151830
H288	H	0.342459	-0.092648	0.172838
H289	H	0.234937	-0.285933	-0.698383
C290	C	-0.101781	-0.531940	-0.661044
H291	H	-0.090756	-0.545669	-0.638822
H292	H	-0.078328	-0.523883	-0.670019
H293	H	-0.101011	-0.562905	-0.692698
H294	H	-0.116154	0.163004	0.026536
H295	H	-0.445259	0.534614	0.161080
C296	C	-0.452695	-0.473078	-0.020052
H297	H	-0.429417	-0.508317	-0.020215
H298	H	-0.462665	-0.484996	-0.051160
H299	H	-0.483688	-0.444119	0.010726
C300	C	-0.287128	-0.473058	-0.020026
H301	H	-0.275154	-0.508297	-0.020189
H302	H	-0.285121	-0.444087	0.010754
H303	H	-0.265222	-0.484983	-0.051132
H304	H	0.413028	-0.860278	-0.554875
H305	H	-0.036384	-0.610342	-0.430320
C306	C	-0.101887	-0.240570	0.027121
H307	H	-0.090874	-0.215645	0.029820
H308	H	-0.078423	-0.281071	-0.004405
H309	H	-0.101121	-0.242017	0.057324
H310	H	-0.304607	0.253694	0.019189
H311	H	0.234501	-0.142320	0.019210
C312	C	-0.029112	0.010732	-0.422895
H313	H	0.005962	-0.012383	-0.446170
H314	H	-0.027304	0.010958	-0.391901
H315	H	-0.048306	0.051820	-0.412918
C316	C	-0.452777	0.692613	0.319275
H317	H	-0.429518	0.704420	0.331241
H318	H	-0.462750	0.683403	0.341171
H319	H	-0.483771	0.725423	0.321312
H320	H	0.433871	-0.610053	-0.430320
H321	H	0.137047	-0.770199	-0.653721
H322	H	-0.302305	-0.284480	0.161101
H323	H	-0.179579	0.003078	-0.430350
H324	H	0.412912	-0.464525	-0.159157
H325	H	-0.304421	-0.143473	-0.555937
C326	C	-0.267298	0.156208	0.027100
H327	H	-0.301784	0.178223	0.025308
H328	H	-0.270601	0.159463	0.059538
H329	H	-0.247901	0.114084	-0.002192
C330	C	0.420849	-0.532335	-0.264604
H331	H	0.419069	-0.543145	-0.240898
H332	H	0.453288	-0.564764	-0.293799
H333	H	0.391570	-0.525720	-0.277443
C334	C	0.420916	-0.762753	-0.495001
H335	H	0.419151	-0.784679	-0.482406
H336	H	0.391629	-0.720625	-0.472326
H337	H	0.453348	-0.766005	-0.495023
C338	C	-0.153449	0.260445	-0.151511
H339	H	-0.118962	0.238425	-0.175321
H340	H	-0.150149	0.257200	-0.122323
H341	H	-0.172845	0.302566	-0.138680
C342	C	-0.154271	-0.470943	-0.151123
H343	H	-0.176601	-0.445924	-0.115197
H344	H	-0.122631	-0.472395	-0.151738
H345	H	-0.145300	-0.511431	-0.168101
C346	C	-0.320026	-0.135148	0.018636
H347	H	-0.332502	-0.098877	0.020411
H348	H	-0.342767	-0.125239	0.047918
H349	H	-0.320047	-0.164301	-0.013811
C350	C	0.412269	-0.305642	-0.151127
H351	H	0.409577	-0.292042	-0.115202
H352	H	0.382070	-0.274605	-0.151740
H353	H	0.443789	-0.313662	-0.168105
C354	C	-0.029156	0.010834	0.040346
H355	H	-0.052434	0.046073	0.040510
H356	H	0.001838	-0.018129	0.009574
H357	H	-0.019191	0.022762	0.071460
H358	H	0.412847	-0.321127	-0.555922
H359	H	-0.162050	-0.285770	0.019215
C360	C	-0.101287	0.155795	-0.264631
H361	H	-0.088702	0.177717	-0.240925
H362	H	-0.101294	0.159032	-0.293827
H363	H	-0.078614	0.113667	-0.277469
H364	H	0.413016	-0.860610	-0.698337
H365	H	0.420321	-0.770218	-0.653304
C366	C	0.420768	-0.366315	-0.495718
H367	H	0.418966	-0.330033	-0.483244
H368	H	0.453202	-0.395452	-0.495669
H369	H	0.391484	-0.356407	-0.472981
C370	C	0.420770	-0.366282	-0.264247
H371	H	0.418980	-0.330005	-0.240442
H372	H	0.391494	-0.356380	-0.277081
H373	H	0.453212	-0.395430	-0.293435
H374	H	-0.259777	-0.373364	-0.256869
C375	C	0.129123	-0.074635	-0.495043
H376	H	0.152810	-0.063812	-0.482450
H377	H	0.116285	-0.081239	-0.472367
H378	H	0.099930	-0.042214	-0.495064
H379	H	0.234554	-0.142438	-0.554927
C380	C	0.129557	-0.240724	-0.661092
H381	H	0.153370	-0.277011	-0.695585
H382	H	0.100372	-0.211588	-0.664392
H383	H	0.116731	-0.250623	-0.641705
H384	H	-0.259424	-0.090774	-0.510581
H385	H	0.137161	-0.233412	0.026528
C386	C	0.242438	-0.867684	-0.713919
H387	H	0.218634	-0.845657	-0.726386
H388	H	0.255287	-0.909805	-0.736662
H389	H	0.271609	-0.864423	-0.713958
H390	H	-0.179452	-0.467261	-0.430306
H391	H	-0.259524	0.163233	-0.256591
C392	C	-0.267477	-0.366247	-0.494985
H393	H	-0.302000	-0.329951	-0.482388
H394	H	-0.248036	-0.356414	-0.472311
H395	H	-0.270695	-0.395460	-0.495008
C396	C	-0.319969	-0.305258	-0.547108
H397	H	-0.332438	-0.294567	-0.512612
H398	H	-0.342697	-0.311801	-0.566489
H399	H	-0.320021	-0.272773	-0.543805
C400	C	0.242588	-0.301205	0.018619
H401	H	0.278504	-0.314802	0.015929
H402	H	0.241985	-0.332245	-0.011581
H403	H	0.225617	-0.293187	0.050148
H404	H	-0.304590	0.253647	-0.158860
H405	H	-0.161979	-0.463820	-0.698323
