data_functionalizedCrystal
_audit_creation_method	'MofGen! by Chris Wilmer'
_symmetry_space_group_name_H-M	'P1'
_symmetry_Int_Tables_number	1
_symmetry_cell_setting	triclinic
loop_
_symmetry_equiv_pos_as_xyz
  x,y,z
_cell_length_a	16.109301
_cell_length_b	14.586319
_cell_length_c	16.109301
_cell_angle_alpha	89.994786
_cell_angle_beta	83.461481
_cell_angle_gamma	89.999213
loop_
_atom_site_label
_atom_site_type_symbol
_atom_site_fract_x
_atom_site_fract_y
_atom_site_fract_z
O1	O	-1.103131	0.076185	-0.106866
O2	O	-0.861069	0.076200	-0.120165
O3	O	-0.988749	0.076183	0.007515
O4	O	-0.975450	0.076203	-0.234547
O5	O	-0.988741	-0.076298	0.007517
O6	O	-0.861060	-0.076281	-0.120164
O7	O	-1.103122	-0.076295	-0.106864
Cu8	Cu	-0.982090	-0.090211	-0.113514
Cu9	Cu	-0.982101	0.090115	-0.113516
O10	O	-0.975441	-0.076278	-0.234545
C11	C	-0.830090	-0.000038	-0.119626
C12	C	-0.737794	-0.000033	-0.118011
C13	C	-0.988206	-0.000058	0.038491
C14	C	-0.986591	-0.000059	0.130786
C15	C	-1.134101	-0.000055	-0.107404
C16	C	-1.226397	-0.000054	-0.109019
C17	C	-0.515522	-0.000038	-0.190018
C18	C	-0.428801	-0.000044	-0.188494
C19	C	-0.448676	-0.000052	-0.037006
C20	C	-0.535394	-0.000053	-0.038530
C21	C	-0.568815	-0.000041	-0.115039
C22	C	-0.395376	-0.000046	-0.111990
C23	C	-0.301350	-0.000053	-0.110337
C24	C	-0.662847	-0.000036	-0.116693
N25	N	-0.982089	-0.217042	-0.113512
C26	C	-1.038644	-0.452057	-0.056994
C27	C	-1.038647	-0.548038	-0.056992
C28	C	-0.925547	-0.548032	-0.170032
C29	C	-0.925541	-0.452052	-0.170030
C30	C	-0.982095	-0.404067	-0.113511
C31	C	-0.982103	-0.596028	-0.113512
C32	C	-0.982105	-0.700095	-0.113510
C33	C	-0.982092	-0.299993	-0.113512
N34	N	-0.982109	0.216947	-0.113511
C35	C	-0.975984	-0.000035	-0.265521
C36	C	-0.977600	-0.000028	-0.357816
C37	C	-1.058599	-0.000049	0.353059
C38	C	-1.057075	-0.000041	0.439779
C39	C	-0.905586	-0.000036	0.419905
C40	C	-0.907111	-0.000037	0.333186
C41	C	-0.983620	-0.000048	0.299766
C42	C	-0.980571	-0.000039	0.473205
C43	C	-0.978918	-0.000031	0.567231
C44	C	-0.985273	-0.000055	0.205734
H45	H	-0.385413	-0.000043	-0.249550
C46	C	-0.411911	-0.000054	0.047151
C47	C	-0.316524	-0.000046	0.048833
C48	C	-0.279762	-0.000044	0.132992
C49	C	-0.338385	-0.000048	0.215468
C50	C	-0.433778	-0.000056	0.213789
C51	C	-0.470540	-0.000058	0.129630
H52	H	-0.273122	-0.000043	-0.012223
H53	H	-0.209146	-0.000038	0.134234
H54	H	-0.311172	-0.000046	0.277767
H55	H	-0.477180	-0.000059	0.274846
H56	H	-0.541156	-0.000064	0.128388
C57	C	-0.594025	-0.000056	0.043952
C58	C	-0.656381	0.079119	0.063728
C59	C	-0.715012	0.079111	0.146205
C60	C	-0.711287	-0.000071	0.208906
C61	C	-0.648929	-0.079251	0.189131
C62	C	-0.590298	-0.079244	0.106654
H63	H	-0.659140	0.137739	0.017312
H64	H	-0.761173	0.137726	0.160843
H65	H	-0.754689	-0.000077	0.269960
H66	H	-0.646169	-0.137872	0.235548
H67	H	-0.544136	-0.137859	0.092016
H68	H	-0.846050	-0.000033	0.289792
C69	C	-1.100845	-0.399272	0.005181
C70	C	-1.163045	-0.452065	0.067353
C71	C	-1.225246	-0.399284	0.129532
C72	C	-1.225247	-0.293710	0.129539
C73	C	-1.163045	-0.240912	0.067365
C74	C	-1.100844	-0.293693	0.005186
H75	H	-1.163046	-0.530222	0.067349
H76	H	-1.271292	-0.438370	0.175557
H77	H	-1.271292	-0.254639	0.175568
H78	H	-1.163043	-0.162754	0.067369
H79	H	-1.054798	-0.254607	-0.040839
H80	H	-0.879503	-0.587111	-0.216049
C81	C	-0.552286	-0.000035	-0.274176
C82	C	-0.493660	-0.000038	-0.356651
C83	C	-0.530421	-0.000039	-0.440810
C84	C	-0.625807	-0.000038	-0.442495
C85	C	-0.684438	-0.000035	-0.360016
C86	C	-0.647678	-0.000034	-0.275857
H87	H	-0.423044	-0.000039	-0.355407
H88	H	-0.487017	-0.000041	-0.501866
H89	H	-0.653019	-0.000038	-0.504795
H90	H	-0.755054	-0.000034	-0.361261
H91	H	-0.691081	-0.000032	-0.214801
C92	C	-0.863333	-0.399256	-0.232203
C93	C	-0.801157	-0.452032	-0.294403
C94	C	-0.738950	-0.399234	-0.356571
C95	C	-0.738919	-0.293660	-0.356539
C96	C	-0.801098	-0.240878	-0.294337
C97	C	-0.863305	-0.293676	-0.232169
H98	H	-0.801177	-0.530189	-0.294429
H99	H	-0.692921	-0.438307	-0.402617
H100	H	-0.692870	-0.254576	-0.402559
H101	H	-0.801077	-0.162721	-0.294311
H102	H	-0.909334	-0.254603	-0.186123
H103	H	-1.084694	-0.587108	-0.010969
H104	H	-1.120897	-0.000056	0.325851
H105	H	-1.118130	-0.000040	0.483168
H106	H	-0.843295	-0.000028	0.447127
