data_functionalizedCrystal
_audit_creation_method	'MofGen! by Chris Wilmer'
_symmetry_space_group_name_H-M	'P1'
_symmetry_Int_Tables_number	1
_symmetry_cell_setting	triclinic
loop_
_symmetry_equiv_pos_as_xyz
  x,y,z
_cell_length_a	12.645330
_cell_length_b	12.827893
_cell_length_c	12.827885
_cell_angle_alpha	89.978621
_cell_angle_beta	90.028978
_cell_angle_gamma	89.984289
loop_
_atom_site_label
_atom_site_type_symbol
_atom_site_fract_x
_atom_site_fract_y
_atom_site_fract_z
Zn1	Zn	-0.422044	-1.597655	0.590908
Zn2	Zn	-0.599345	-1.597541	0.416171
Zn3	Zn	-0.422090	-1.422896	0.416176
Zn4	Zn	-0.599260	-1.422875	0.590865
O5	O	-0.510685	-1.510242	0.503530
O6	O	-0.445580	-1.743876	0.567745
O7	O	-0.575886	-1.574336	0.269935
O8	O	-0.273736	-1.446134	0.439375
O9	O	-0.575842	-1.743792	0.439366
O10	O	-0.273703	-1.574529	0.567750
O11	O	-0.445657	-1.446024	0.269939
O12	O	-0.445575	-1.276657	0.439333
O13	O	-0.575697	-1.446098	0.737107
O14	O	-0.575741	-1.276641	0.567676
O15	O	-0.445497	-1.574509	0.737138
O16	O	-0.747681	-1.574315	0.439324
O17	O	-0.747618	-1.445988	0.567671
C18	C	-0.786114	-1.510165	0.503515
C19	C	-0.903944	-1.510228	0.503544
C20	C	-0.510655	-1.238732	0.503501
C21	C	-0.510667	-1.122579	0.503513
C22	C	-0.510583	-1.510314	0.776100
C23	C	-0.510539	-1.510344	0.892253
C24	C	-1.071513	-1.429831	0.584536
C25	C	-0.948954	-1.429420	0.584276
C26	C	-0.948545	-1.480415	0.393412
C27	C	-1.071144	-1.479925	0.393904
C28	C	-1.071035	-1.620931	0.531791
C29	C	-0.948428	-1.620252	0.534199
C30	C	-0.234179	-1.510347	0.503567
C31	C	-0.116349	-1.510391	0.503583
C32	C	-0.575177	-1.070814	0.566922
C33	C	-0.575191	-0.950763	0.566936
C34	C	-0.510707	-0.782812	0.503551
C35	C	-0.510694	-0.898965	0.503539
C36	C	-0.510709	-1.510230	0.232020
C37	C	-0.510454	-1.510402	0.115867
C38	C	-0.574908	-1.573874	1.064081
C39	C	-0.574954	-1.573844	0.944030
H40	H	-0.918794	-1.448072	0.665938
H41	H	-0.917933	-1.400453	0.369085
H42	H	-0.455310	-1.456035	1.071327
O43	O	-0.444841	-1.069551	0.438608
C44	C	-0.467882	-1.096077	0.334392
H45	H	-0.508554	-1.175342	0.332085
H46	H	-0.522404	-1.034644	0.299165
C47	C	-0.314504	-1.003611	0.274086
C48	C	-0.364450	-1.100970	0.271252
H49	H	-0.250705	-1.006625	0.235136
H50	H	-0.298983	-0.985736	0.344298
H51	H	-0.359951	-0.952427	0.244732
H52	H	-0.319010	-1.152149	0.300617
H53	H	-0.379962	-1.118853	0.201043
H54	H	-1.100030	-1.680950	0.472829
O55	O	-0.444552	-1.445620	0.945323
C56	C	-0.338884	-1.468446	0.918726
H57	H	-0.333521	-1.551896	0.888662
H58	H	-0.311134	-1.412353	0.855451
C59	C	-0.274773	-1.353929	1.052682
C60	C	-0.268185	-1.456427	1.015766
H61	H	-0.231161	-1.346511	1.112539
H62	H	-0.345964	-1.338547	1.070599
H63	H	-0.251651	-1.307197	0.999944
H64	H	-0.291320	-1.503156	1.068499
H65	H	-0.196996	-1.471816	0.997860
O66	O	-0.640907	-1.124078	0.631727
C67	C	-0.580565	-1.187236	0.699276
H68	H	-0.500165	-1.203472	0.662538
H69	H	-0.569057	-1.145275	0.776781
C70	C	-0.737553	-1.271034	0.763115
C71	C	-0.638807	-1.290983	0.717989
H72	H	-0.773480	-1.335029	0.774663
H73	H	-0.778207	-1.228482	0.717609
H74	H	-0.727949	-1.236064	0.827698
H75	H	-0.648413	-1.325940	0.653402
H76	H	-0.598155	-1.333544	0.763484
O77	O	-0.640551	-1.638842	1.117255
C78	C	-0.580125	-1.706300	1.180430
H79	H	-0.496675	-1.712812	1.147484
H80	H	-0.576362	-1.673932	1.263105
C81	C	-0.734422	-1.806916	1.222728
C82	C	-0.631930	-1.814920	1.182258
H83	H	-0.766380	-1.873917	1.223860
H84	H	-0.775134	-1.761466	1.180169
H85	H	-0.731272	-1.779939	1.291620
H86	H	-0.635083	-1.841884	1.113363
H87	H	-0.591220	-1.860377	1.224806
H88	H	-0.919717	-1.347471	0.565588
O89	O	-0.640679	-1.638824	0.890957
C90	C	-0.617559	-1.743016	0.917588
H91	H	-0.532887	-1.748363	0.947670
H92	H	-0.674432	-1.770380	0.980858
C93	C	-0.733853	-1.806075	0.783625
C94	C	-0.629854	-1.812644	0.820564
H95	H	-0.741441	-1.849027	0.723778
H96	H	-0.749433	-1.735879	0.765685
H97	H	-0.781236	-1.828877	0.836359
H98	H	-0.582474	-1.789830	0.767835
H99	H	-0.614266	-1.882838	0.838493
O100	O	-1.107698	-1.653256	0.626058
C101	C	-1.076466	-1.581710	0.703588
H102	H	-1.003948	-1.536854	0.675796
H103	H	-1.143816	-1.524776	0.719377
C104	C	-1.138397	-1.696149	0.838626
C105	C	-1.049324	-1.641063	0.804495
H106	H	-1.121659	-1.732759	0.900872
H107	H	-1.159443	-1.744350	0.786393
H108	H	-1.194514	-1.648695	0.851776
H109	H	-0.993213	-1.688518	0.791333
H110	H	-1.028268	-1.592871	0.856728
H111	H	-1.100920	-1.448312	0.666466
H112	H	-1.102412	-1.348394	0.566087
H113	H	-1.099834	-1.399120	0.370008
H114	H	-0.630423	-0.906247	0.621220
H115	H	-0.919393	-1.537232	0.331448
O116	O	-1.106687	-1.546763	0.319455
C117	C	-1.168539	-1.491633	0.246427
H118	H	-1.200397	-1.417489	0.284002
H119	H	-1.117806	-1.470302	0.176148
C120	C	-1.222472	-1.651447	0.164683
C121	C	-1.261608	-1.560386	0.210836
H122	H	-1.279879	-1.693858	0.142724
H123	H	-1.180798	-1.688590	0.213880
H124	H	-1.180195	-1.633658	0.106123
H125	H	-1.303874	-1.578176	0.269402
H126	H	-1.303292	-1.523248	0.161647
O127	O	-0.913508	-1.646947	0.630879
C128	C	-0.849181	-1.566502	0.670699
H129	H	-0.815996	-1.518541	0.603421
H130	H	-0.898298	-1.514065	0.723624
C131	C	-0.798153	-1.673158	0.816216
C132	C	-0.757386	-1.614257	0.733583
H133	H	-0.741532	-1.702614	0.855010
H134	H	-0.841494	-1.727355	0.789392
H135	H	-0.839083	-1.629451	0.860309
H136	H	-0.716469	-1.657967	0.689486
H137	H	-0.714036	-1.560068	0.760402
H138	H	-0.917784	-1.683435	0.479531
H139	H	-0.455466	-0.943475	0.449246
