data_functionalizedCrystal
_audit_creation_method	'MofGen! by Chris Wilmer'
_symmetry_space_group_name_H-M	'P1'
_symmetry_Int_Tables_number	1
_symmetry_cell_setting	triclinic
loop_
_symmetry_equiv_pos_as_xyz
  x,y,z
_cell_length_a	16.120530
_cell_length_b	21.395361
_cell_length_c	16.120297
_cell_angle_alpha	87.133067
_cell_angle_beta	90.128140
_cell_angle_gamma	92.874023
loop_
_atom_site_label
_atom_site_type_symbol
_atom_site_fract_x
_atom_site_fract_y
_atom_site_fract_z
Zn1	Zn	1.247389	0.317425	-0.534523
Zn2	Zn	1.747389	0.817425	-0.034523
Zn3	Zn	1.254324	0.417167	-0.395452
Zn4	Zn	1.754324	0.917167	0.104548
Zn5	Zn	1.115381	0.306838	-0.388442
Zn6	Zn	1.615381	0.806838	0.111558
Zn7	Zn	1.108280	0.416590	-0.527422
Zn8	Zn	1.608280	0.916590	-0.027422
O9	O	1.181344	0.364505	-0.461460
O10	O	1.681344	0.864505	0.038540
O11	O	1.364675	0.335329	-0.521980
O12	O	1.864675	0.835329	-0.021980
O13	O	1.241767	0.398342	-0.278157
O14	O	1.741767	0.898342	0.221843
O15	O	1.132962	0.220569	-0.407859
O16	O	1.632962	0.720569	0.092141
O17	O	1.369770	0.408608	-0.419806
O18	O	1.869770	0.908608	0.080194
O19	O	1.229948	0.228347	-0.515183
O20	O	1.729948	0.728347	-0.015183
O21	O	1.139686	0.317284	-0.273007
O22	O	1.639686	0.817284	0.226993
O23	O	0.998074	0.316724	-0.400973
O24	O	1.498074	0.816724	0.099027
O25	O	1.120860	0.407625	-0.644728
O26	O	1.620860	0.907625	-0.144728
O27	O	0.992857	0.397359	-0.503080
O28	O	1.492857	0.897359	-0.003080
O29	O	1.223062	0.334769	-0.649946
O30	O	1.723062	0.834769	-0.149946
O31	O	1.234881	0.504764	-0.412920
O32	O	1.734881	1.004764	0.087080
O33	O	1.127584	0.504340	-0.509877
O34	O	1.627584	1.004340	-0.009877
C35	C	1.181236	0.527287	-0.461408
C36	C	1.681236	1.027287	0.038592
C37	C	1.181265	0.596929	-0.461417
C38	C	1.681265	1.096929	0.038583
C39	C	0.965293	0.355831	-0.450496
C40	C	1.465293	0.855831	0.049504
C41	C	0.872865	0.352135	-0.445825
C42	C	1.372865	0.852135	0.054175
C43	C	1.170395	0.372314	-0.678353
C44	C	1.670395	0.872314	-0.178353
C45	C	1.165730	0.375641	-0.770780
C46	C	1.665730	0.875641	-0.270780
C47	C	0.703636	0.345375	-0.437304
C48	C	1.203636	0.845375	0.062696
C49	C	0.659889	0.383684	-0.485676
C50	C	1.159889	0.883684	0.014324
C51	C	0.565724	0.379922	-0.480935
C52	C	1.065724	0.879922	0.019065
C53	C	0.797809	0.349135	-0.442044
C54	C	1.297809	0.849135	0.057956
C55	C	1.398238	0.373214	-0.472467
C56	C	1.898238	0.873214	0.027533
C57	C	1.490666	0.376925	-0.477158
C58	C	1.990666	0.876925	0.022842
C59	C	1.181473	0.201089	-0.461531
C60	C	1.681473	0.701089	0.038469
C61	C	1.181529	0.131451	-0.461562
C62	C	1.681529	0.631451	0.038438
C63	C	1.237179	0.629846	-0.410989
C64	C	1.737179	1.129846	0.089011
C65	C	1.237217	0.695284	-0.411009
C66	C	1.737217	1.195284	0.088991
C67	C	1.181326	0.727801	-0.461449
C68	C	1.681326	1.227801	0.038551
C69	C	1.125408	0.694877	-0.511888
C70	C	1.625408	1.194877	-0.011888
C71	C	1.125377	0.629441	-0.511872
C72	C	1.625377	1.129441	-0.011872
C73	C	1.106121	0.828750	-0.464174
C74	C	1.606121	1.328750	0.035826
C75	C	1.106151	0.894184	-0.464184
C76	C	1.606151	1.394184	0.035816
C77	C	1.181420	0.929628	-0.461503
C78	C	1.681420	1.429628	0.038497
C79	C	1.256664	0.899628	-0.458795
C80	C	1.756664	1.399628	0.041205
C81	C	1.256633	0.834192	-0.458779
C82	C	1.756633	1.334192	0.041221
C83	C	1.181353	0.798756	-0.461472
C84	C	1.681353	1.298756	0.038528
C85	C	1.237380	1.033500	-0.411094
C86	C	1.737380	1.533500	0.088906
C87	C	1.237419	1.098939	-0.411120
C88	C	1.737419	1.598939	0.088880
C89	C	1.125603	1.098530	-0.511994
C90	C	1.625603	1.598530	-0.011994
C91	C	1.125571	1.033092	-0.511973
C92	C	1.625571	1.533092	-0.011973
C93	C	1.181459	1.000581	-0.461518
C94	C	1.681459	1.500581	0.038482
C95	C	1.157181	0.381702	-0.940004
C96	C	1.657181	0.881702	-0.440004
C97	C	1.205670	0.347128	-0.983776
C98	C	1.705670	0.847128	-0.483776
C99	C	1.200914	0.350499	-1.077938
C100	C	1.700914	0.850499	-0.577938
C101	C	1.161937	0.378330	-0.845833
C102	C	1.661937	0.878330	-0.345833
C103	C	1.192297	0.356684	-0.245413
C104	C	1.692297	0.856684	0.254587
C105	C	1.197124	0.353186	-0.152995
C106	C	1.697124	0.853186	0.347005
H107	H	0.693155	0.419306	-0.530650
H108	H	1.193155	0.919306	-0.030650
O109	O	1.103285	0.419965	-0.979611
O110	O	1.603285	0.919965	-0.479611
C111	C	1.021462	0.402221	-0.954238
C112	C	1.521462	0.902221	-0.454238
H113	H	1.018478	0.351160	-0.930091
H114	H	1.518478	0.851160	-0.430091
H115	H	0.977551	0.407978	-1.009317
H116	H	1.477551	0.907978	-0.509317
H117	H	1.002193	0.433175	-0.902788
H118	H	1.502193	0.933175	-0.402788
H119	H	0.670372	0.309755	-0.392334
H120	H	1.170372	0.809755	0.107666
H121	H	1.282688	0.603378	-0.369907
H122	H	1.782688	1.103378	0.130093
H123	H	1.250755	0.314995	-0.950533
H124	H	1.750755	0.814995	-0.450533
O125	O	1.033082	0.923348	-0.466671
O126	O	1.533082	1.423348	0.033329
C127	C	1.026016	0.958268	-0.395353
C128	C	1.526016	1.458268	0.104647
H129	H	1.066899	0.938146	-0.343837
H130	H	1.566899	1.438146	0.156163
H131	H	0.958588	0.955673	-0.373749
H132	H	1.458588	1.455673	0.126251
H133	H	1.046848	1.009220	-0.410804
H134	H	1.546848	1.509220	0.089196
O135	O	1.291636	0.727212	-0.362062
O136	O	1.791636	1.227212	0.137938
C137	C	1.373583	0.715166	-0.384496
C138	C	1.873583	1.215166	0.115504
H139	H	1.373670	0.668860	-0.416532
H140	H	1.873670	1.168860	0.083468
H141	H	1.413932	0.712272	-0.326396
H142	H	1.913932	1.212272	0.173604
H143	H	1.399412	0.754624	-0.428698
H144	H	1.899412	1.254624	0.071302
O145	O	1.329794	0.805152	-0.456190
O146	O	1.829794	1.305152	0.043810
C147	C	1.396240	0.850459	-0.453805
C148	C	1.896240	1.350459	0.046195
H149	H	1.375146	0.897325	-0.480739
H150	H	1.875146	1.397325	0.019261
H151	H	1.450305	0.835013	-0.492002
H152	H	1.950305	1.335013	0.007998
H153	H	1.416999	0.855676	-0.386747
H154	H	1.916999	1.355676	0.113253
H155	H	1.317956	0.928485	-0.456612
H156	H	1.817956	1.428485	0.043388
H157	H	1.282890	1.007028	-0.370013
H158	H	1.782890	1.507028	0.129987
O159	O	1.291769	1.130818	-0.362054
O160	O	1.791769	1.630818	0.137946
C161	C	1.341099	1.088088	-0.317537
C162	C	1.841099	1.588088	0.182463
H163	H	1.307164	1.039998	-0.312890
H164	H	1.807164	1.539998	0.187110
H165	H	1.353334	1.105012	-0.252484
H166	H	1.853334	1.605012	0.247516
H167	H	1.402689	1.084702	-0.351235
H168	H	1.902689	1.584702	0.148765
O169	O	1.071343	1.130204	-0.560919
O170	O	1.571343	1.630204	-0.060919
C171	C	1.083376	1.195021	-0.550140
C172	C	1.583376	1.695021	-0.050140
H173	H	1.113902	1.202748	-0.487375
H174	H	1.613902	1.702748	0.012625
H175	H	1.020816	1.217636	-0.552581
H176	H	1.520816	1.717636	-0.052581
H177	H	1.125140	1.217090	-0.601749
H178	H	1.625140	1.717090	-0.101749
H179	H	1.080037	1.006289	-0.553033
H180	H	1.580037	1.506289	-0.053033
H181	H	1.044823	0.799897	-0.466360
H182	H	1.544823	1.299897	0.033640
O183	O	1.071228	0.726536	-0.560931
O184	O	1.571228	1.226536	-0.060931
C185	C	1.115833	0.768158	-0.617098
C186	C	1.615833	1.268158	-0.117098
H187	H	1.180356	0.779402	-0.591021
H188	H	1.680356	1.279402	-0.091021
H189	H	1.081412	0.813233	-0.626505
H190	H	1.581412	1.313233	-0.126505
H191	H	1.121799	0.745497	-0.679185
H192	H	1.621799	1.245497	-0.179185
O193	O	1.070977	0.597557	-0.560881
O194	O	1.570977	1.097557	-0.060881
C195	C	1.021670	0.640287	-0.605427
C196	C	1.521670	1.140287	-0.105427
H197	H	1.020559	0.685607	-0.571235
H198	H	1.520559	1.185607	-0.071235
H199	H	0.955691	0.619112	-0.610915
H200	H	1.455691	1.119112	-0.110915
H201	H	1.048886	0.650694	-0.670151
H202	H	1.548886	1.150694	-0.170151
