data_functionalizedCrystal
_audit_creation_method	'MofGen! by Chris Wilmer'
_symmetry_space_group_name_H-M	'P1'
_symmetry_Int_Tables_number	1
_symmetry_cell_setting	triclinic
loop_
_symmetry_equiv_pos_as_xyz
  x,y,z
_cell_length_a	16.959455
_cell_length_b	16.959454
_cell_length_c	15.296720
_cell_angle_alpha	80.351722
_cell_angle_beta	80.337093
_cell_angle_gamma	90.017022
loop_
_atom_site_label
_atom_site_type_symbol
_atom_site_fract_x
_atom_site_fract_y
_atom_site_fract_z
Zn1	Zn	1.131027	-0.392068	0.510070
Zn2	Zn	1.153826	-0.501389	0.359227
Zn3	Zn	1.021731	-0.369223	0.359236
Zn4	Zn	0.998826	-0.524196	0.510034
O5	O	1.076353	-0.446719	0.434642
O6	O	1.244661	-0.406586	0.490072
O7	O	1.155431	-0.464752	0.232990
O8	O	1.036274	-0.261645	0.379263
O9	O	1.261411	-0.486904	0.379248
O10	O	1.116573	-0.278430	0.490080
O11	O	1.058381	-0.367650	0.232997
O12	O	0.908083	-0.389764	0.379228
O13	O	0.997235	-0.525774	0.636276
O14	O	0.891255	-0.503622	0.490019
O15	O	1.094363	-0.428700	0.636303
O16	O	1.133221	-0.615023	0.379213
O17	O	1.019343	-0.631779	0.490010
C18	C	0.870989	-0.446690	0.434621
C19	C	0.783131	-0.446700	0.434633
C20	C	1.076289	-0.652083	0.434626
C21	C	1.076329	-0.739943	0.434650
C22	C	0.420374	-0.387410	0.377073
C23	C	0.402926	-0.506101	0.492261
C24	C	0.485473	-0.506089	0.492256
C25	C	0.535474	-0.446737	0.434657
C26	C	0.502929	-0.387398	0.377064
C27	C	0.518026	-0.565432	0.549842
C28	C	0.600578	-0.565423	0.549838
C29	C	0.650580	-0.506067	0.492243
C30	C	0.618029	-0.446724	0.434648
C31	C	0.668031	-0.387373	0.377049
C32	C	0.635481	-0.328026	0.319458
C33	C	0.552931	-0.328042	0.319469
C34	C	0.733130	-0.506051	0.492232
C35	C	0.750585	-0.387360	0.377040
C36	C	1.017130	-1.120171	0.492327
C37	C	1.135781	-1.102678	0.377047
C38	C	1.135755	-1.020130	0.377039
C39	C	1.076415	-0.987600	0.434675
C40	C	1.017101	-1.037616	0.492319
C41	C	1.195062	-0.970107	0.319390
C42	C	1.195038	-0.887554	0.319378
C43	C	1.135701	-0.855023	0.377019
C44	C	1.076385	-0.905045	0.434667
C45	C	1.017045	-0.872515	0.492302
C46	C	0.957732	-0.922536	0.549955
C47	C	0.957763	-1.005085	0.549960
C48	C	1.135669	-0.772474	0.377014
C49	C	1.017015	-0.789960	0.492294
C50	C	1.282517	-0.446749	0.434663
C51	C	1.370373	-0.446762	0.434672
C52	C	1.040701	-0.482330	0.669937
C53	C	1.025508	-0.497505	0.770206
C54	C	1.076435	-0.240556	0.434677
C55	C	1.076470	-0.152702	0.434692
C56	C	1.111911	-0.411190	0.200261
C57	C	1.127257	-0.395792	0.099993
C58	C	1.184966	-0.338122	1.052903
C59	C	1.199245	-0.323866	0.958695
C60	C	1.155812	-0.367274	0.911568
C61	C	1.098098	-0.424942	0.958658
C62	C	1.083821	-0.439204	1.052875
C63	C	1.054667	-0.468356	0.911541
C64	C	0.996953	-0.526023	0.958631
C65	C	0.982679	-0.540282	1.052838
C66	C	1.026112	-0.496874	1.099965
C67	C	1.068944	-0.454093	0.817324
C68	C	0.967799	-0.555175	0.817296
C69	C	0.953519	-0.569431	0.911504
H70	H	0.791291	-0.339024	0.330141
C71	C	1.196424	-0.422058	0.776624
C72	C	1.171541	-0.351610	0.808014
H73	H	1.206149	-0.412383	0.712691
H74	H	1.155829	-0.462600	0.797901
H75	H	1.244179	-0.438959	0.797981
H76	H	1.123782	-0.334711	0.786662
H77	H	1.212139	-0.311054	0.786727
C78	C	1.297782	-0.225384	0.968193
C79	C	1.262677	-0.260476	0.906937
H80	H	1.336940	-0.186244	0.936237
H81	H	1.322433	-0.265387	1.004934
H82	H	1.257779	-0.200708	1.004943
H83	H	1.302679	-0.285157	0.870191
H84	H	1.238026	-0.220466	0.870181
H85	H	1.243369	-0.996599	0.272459
H86	H	0.932433	-0.590523	0.778925
C87	C	1.207987	-0.315116	1.197341
C88	C	1.232706	-0.290416	1.104706
H89	H	1.237461	-0.285659	1.229320
H90	H	1.217193	-0.370556	1.212759
H91	H	1.152545	-0.305871	1.212769
H92	H	1.288148	-0.299667	1.089277
H93	H	1.223507	-0.234963	1.089281
C94	C	0.345909	-0.357905	0.255757
C95	C	0.384601	-0.322179	0.313769
H96	H	0.323829	-0.317632	0.216673
H97	H	0.304317	-0.393243	0.290061
H98	H	0.383345	-0.387059	0.221182
H99	H	0.347163	-0.293030	0.348349
H100	H	0.426198	-0.286827	0.279461
H101	H	0.627072	-0.613746	0.596732
C102	C	0.644454	-0.210706	0.205588
C103	C	0.690448	-0.262792	0.256139
H104	H	0.678393	-0.170439	0.166494
H105	H	0.606312	-0.186479	0.244952
H106	H	0.617474	-0.239875	0.171023
H107	H	0.717424	-0.233624	0.290709
H108	H	0.728605	-0.287021	0.216770
H109	H	0.968696	-0.763480	0.539232
H110	H	1.014489	-0.508479	1.176677
H111	H	0.935690	-0.587246	1.091176
C112	C	1.197397	-0.723951	0.224295
C113	C	1.200857	-0.717491	0.313646
H114	H	1.237647	-0.690009	0.185174
H115	H	1.146305	-0.708452	0.211050
H116	H	1.205907	-0.777773	0.216061
H117	H	1.192341	-0.663669	0.321882
H118	H	1.251961	-0.732985	0.326895
C119	C	0.926442	-0.691787	1.017432
C120	C	0.890086	-0.632825	0.963270
H121	H	0.887281	-0.730925	1.049385
H122	H	0.950260	-0.667971	1.058972
H123	H	0.966434	-0.716460	0.980667
H124	H	0.850098	-0.608147	1.000036
H125	H	0.866256	-0.656643	0.921725
C126	C	0.478455	-0.298544	0.198163
C127	C	0.517146	-0.262814	0.256173
H128	H	0.456364	-0.258274	0.159086
H129	H	0.436873	-0.333892	0.232469
H130	H	0.515896	-0.327688	0.163580
H131	H	0.479704	-0.233674	0.290761
H132	H	0.558733	-0.227452	0.221863
H133	H	0.362212	-0.554426	0.539150
H134	H	0.759628	-0.554372	0.539119
C135	C	0.406829	-0.594932	0.671167
C136	C	0.463059	-0.630662	0.613152
H137	H	0.372893	-0.635203	0.710258
H138	H	0.375642	-0.559594	0.636866
H139	H	0.433820	-0.565776	0.705735
H140	H	0.436068	-0.659813	0.578579
H141	H	0.494249	-0.666013	0.647457
C142	C	0.928256	-0.848035	0.671269
C143	C	0.892508	-0.886772	0.613309
H144	H	0.887989	-0.825958	0.710382
H145	H	0.963568	-0.806439	0.636928
H146	H	0.957444	-0.885442	0.705815
H147	H	0.863324	-0.849363	0.578758
H148	H	0.857181	-0.928373	0.647653
C149	C	0.905118	-1.139392	0.601144
C150	C	0.892564	-1.060068	0.613317
H151	H	0.864862	-1.173336	0.640252
H152	H	0.956205	-1.154888	0.614408
H153	H	0.902788	-1.143751	0.540516
H154	H	0.894901	-1.055708	0.673944
H155	H	0.841465	-1.044568	0.600059
H156	H	0.968841	-1.160902	0.539269
H157	H	1.184089	-1.129168	0.330118
H158	H	1.243334	-0.846832	0.272436
H159	H	1.115935	-0.407139	0.778992
