data_functionalizedCrystal
_audit_creation_method	'MofGen! by Chris Wilmer'
_symmetry_space_group_name_H-M	'P1'
_symmetry_Int_Tables_number	1
_symmetry_cell_setting	triclinic
loop_
_symmetry_equiv_pos_as_xyz
  x,y,z
_cell_length_a	16.992694
_cell_length_b	10.654551
_cell_length_c	15.455313
_cell_angle_alpha	92.692775
_cell_angle_beta	87.142206
_cell_angle_gamma	87.576826
loop_
_atom_site_label
_atom_site_type_symbol
_atom_site_fract_x
_atom_site_fract_y
_atom_site_fract_z
O1	O	1.045244	0.261289	-0.072016
O2	O	0.816944	0.258364	-0.072042
O3	O	0.936343	0.077541	-0.072027
O4	O	0.925846	0.442112	-0.072032
O5	O	0.929515	0.087836	0.072235
O6	O	0.810116	0.268659	0.072219
O7	O	1.038416	0.271584	0.072245
Cu8	Cu	0.923643	0.271061	0.085404
Cu9	Cu	0.931718	0.258886	-0.085201
O10	O	0.919018	0.452407	0.072230
C11	C	0.784297	0.259751	0.000085
C12	C	0.697193	0.248531	0.000075
C13	C	0.647541	0.356782	0.000075
C14	C	0.565697	0.346233	0.000087
C15	C	0.533505	0.227433	0.000093
C16	C	0.583163	0.119174	0.000097
C17	C	0.665006	0.129724	0.000091
C18	C	0.289669	0.183707	0.000117
C19	C	0.207820	0.173165	0.000121
C20	C	0.190359	0.400226	0.000112
C21	C	0.272204	0.410765	0.000101
C22	C	0.321854	0.302507	0.000109
N23	N	0.449847	0.216648	0.000103
N24	N	0.405510	0.313293	0.000105
C25	C	0.932158	0.035824	0.000102
C26	C	0.929851	-0.103819	0.000098
C27	C	0.932491	-0.175028	-0.078540
C28	C	0.930317	-0.306237	-0.078541
C29	C	0.922868	-0.295015	0.078741
C30	C	0.925036	-0.163808	0.078741
C31	C	0.885946	-0.487272	-0.173024
C32	C	0.888599	-0.558488	-0.251666
C33	C	0.938480	-0.525875	-0.321090
C34	C	0.985728	-0.422051	-0.311876
C35	C	0.983082	-0.350843	-0.233233
C36	C	0.933182	-0.383452	-0.163811
C37	C	0.969414	0.017228	0.173218
C38	C	0.966773	0.088438	0.251863
C39	C	0.916896	0.055828	0.321295
C40	C	0.869660	-0.048000	0.312089
C41	C	0.872301	-0.119210	0.233445
C42	C	0.922176	-0.086591	0.164013
C43	C	1.071063	0.270196	0.000116
C44	C	1.158168	0.281416	0.000120
C45	C	0.923203	0.494124	0.000098
C46	C	0.925509	0.633766	0.000097
N47	N	0.917969	0.279624	0.205399
N48	N	0.937398	0.250314	-0.205196
C49	C	0.968712	0.202836	0.250800
C50	C	0.964428	0.209324	0.341607
C51	C	0.909405	0.292607	0.387012
C52	C	0.858657	0.369399	0.341605
C53	C	0.862938	0.362903	0.250799
C54	C	0.890930	0.320610	0.658591
C55	C	0.886655	0.327102	0.749403
C56	C	0.992425	0.167025	0.749399
C57	C	0.996704	0.160543	0.658591
C58	C	0.945953	0.237329	0.613192
N59	N	0.905027	0.299244	0.479832
N60	N	0.950328	0.230685	0.520374
H61	H	0.149925	0.488363	0.000107
H62	H	0.813852	0.437205	0.378579
H63	H	1.005746	0.146796	0.378572
H64	H	0.914757	0.113812	0.385333
Cl65	Cl	0.167352	0.023806	0.000149
H66	H	0.841846	0.394926	0.786368
Cl67	Cl	1.065877	0.055844	0.601511
H68	H	1.033743	0.104508	0.786371
H69	H	0.673745	0.453522	0.000069
Cl70	Cl	0.503281	0.482327	0.000080
Cl71	Cl	0.312667	0.560120	0.000087
H72	H	0.330085	0.095555	0.000124
H73	H	0.849608	0.383135	0.621634
Cl74	Cl	0.799141	0.459437	0.193725
H75	H	1.013520	0.135024	0.213837
H76	H	0.705432	0.041574	0.000091
Cl77	Cl	0.938540	-0.099617	-0.177405
Cl78	Cl	0.542694	-0.030176	0.000111
H79	H	1.010024	0.043800	0.116680
Cl80	Cl	1.048449	-0.381072	-0.399155
H81	H	1.021551	-0.266313	-0.225730
H82	H	0.940639	-0.583868	-0.385122
H83	H	0.845317	-0.513826	-0.116501
H84	H	0.918948	-0.343875	0.142769
Cl85	Cl	0.812919	-0.249743	0.221873
Cl86	Cl	0.829201	-0.689001	-0.263249
Cl87	Cl	0.806959	-0.089009	0.399379
Cl88	Cl	1.026166	0.218957	0.263439
