data_functionalizedCrystal
_audit_creation_method	'MofGen! by Chris Wilmer'
_symmetry_space_group_name_H-M	'P1'
_symmetry_Int_Tables_number	1
_symmetry_cell_setting	triclinic
loop_
_symmetry_equiv_pos_as_xyz
  x,y,z
_cell_length_a	14.908571
_cell_length_b	15.297327
_cell_length_c	14.908694
_cell_angle_alpha	103.447437
_cell_angle_beta	83.592472
_cell_angle_gamma	96.991395
loop_
_atom_site_label
_atom_site_type_symbol
_atom_site_fract_x
_atom_site_fract_y
_atom_site_fract_z
Zn1	Zn	1.335576	-0.474947	-0.669165
Zn2	Zn	1.303555	-0.616576	-0.540958
Zn3	Zn	1.178500	-0.456494	-0.506084
Zn4	Zn	1.160998	-0.616506	-0.683545
O5	O	1.244657	-0.541131	-0.599938
O6	O	1.456726	-0.501486	-0.660736
O7	O	1.280889	-0.587648	-0.408409
O8	O	1.220062	-0.332704	-0.507104
O9	O	1.433200	-0.605541	-0.566542
O10	O	1.335465	-0.346261	-0.626919
O11	O	1.189012	-0.470037	-0.382786
O12	O	1.050780	-0.469969	-0.521047
O13	O	1.190233	-0.605421	-0.809561
O14	O	1.037922	-0.587529	-0.651427
O15	O	1.318495	-0.501418	-0.798996
O16	O	1.263919	-0.742805	-0.580486
O17	O	1.159183	-0.742754	-0.685244
C18	C	1.011837	-0.526740	-0.584014
C19	C	0.912233	-0.520606	-0.577226
C20	C	0.711688	-0.631665	-0.700109
C21	C	0.618101	-0.625905	-0.693736
C22	C	0.631470	-0.503322	-0.558110
C23	C	0.725057	-0.509082	-0.564484
C24	C	0.765163	-0.573257	-0.635485
C25	C	0.858751	-0.579020	-0.641854
C26	C	0.872119	-0.456434	-0.506233
C27	C	0.778532	-0.450674	-0.499859
C28	C	1.206202	-0.775514	-0.638231
C29	C	1.189834	-0.875791	-0.654649
C30	C	1.362024	-1.158459	-0.482933
C31	C	1.377402	-1.064244	-0.467503
C32	C	1.330512	-1.017126	-0.514288
C33	C	1.268241	-1.064233	-0.576506
C34	C	1.252856	-1.158457	-0.591932
C35	C	1.221344	-1.017124	-0.623288
C36	C	1.159072	-1.064231	-0.685506
C37	C	1.143691	-1.158446	-0.700930
C38	C	1.190582	-1.205564	-0.654144
C39	C	1.236728	-0.922900	-0.607861
C40	C	1.127560	-0.922898	-0.716861
C41	C	1.112182	-1.017114	-0.732291
C42	C	1.478387	-0.555579	-0.615925
C43	C	1.577988	-0.561736	-0.622738
C44	C	1.255984	-0.555470	-0.838375
C45	C	1.260810	-0.561581	-0.939983
C46	C	1.283288	-0.305835	-0.561517
C47	C	1.299750	-0.205566	-0.545145
C48	C	1.174186	-0.450595	-1.104235
C49	C	1.178719	-0.456333	-1.199703
C50	C	1.274402	-0.578799	-1.226391
C51	C	1.269869	-0.573060	-1.130922
C52	C	1.219761	-0.508956	-1.069847
C53	C	1.215234	-0.503214	-0.974376
C54	C	1.310911	-0.625683	-1.001066
C55	C	1.315444	-0.631421	-1.096535
C56	C	1.233437	-0.526786	-0.362421
C57	C	1.228826	-0.520432	-0.260784
H58	H	0.574565	-0.673465	-0.746361
H59	H	1.133396	-0.398391	-1.054505
C60	C	0.587349	-0.432730	-0.480022
H61	H	0.632600	-0.398761	-0.442448
H62	H	0.543282	-0.462529	-0.443280
H63	H	0.558957	-0.393335	-0.506170
H64	H	1.141607	-0.408810	-1.227697
H65	H	0.745865	-0.398422	-0.442054
C66	C	0.930943	-0.392179	-0.435145
H67	H	0.992426	-0.404796	-0.449111
H68	H	0.910521	-0.400649	-0.374800
H69	H	0.926184	-0.331450	-0.437684
C70	C	1.361051	-0.689881	-0.963243
H71	H	1.391548	-0.728873	-1.013292
H72	H	1.318560	-0.724832	-0.930069
H73	H	1.403997	-0.655534	-0.923041
H74	H	1.178067	-1.282282	-0.666707
H75	H	1.089376	-0.884535	-0.754956
C76	C	1.329510	-0.649309	-1.293583
H77	H	1.325681	-0.644363	-1.355365
H78	H	1.305707	-0.708171	-1.286938
H79	H	1.391149	-0.638881	-1.279908
H80	H	1.287429	-0.884554	-0.557203
H81	H	1.343035	-0.940411	-0.501720
C82	C	1.445899	-1.012433	-0.399075
H83	H	1.471629	-1.053987	-0.373428
H84	H	1.415754	-0.971209	-0.350864
H85	H	1.492591	-0.980150	-0.430727
H86	H	1.174438	-0.451013	-0.924649
C87	C	1.370568	-0.701925	-1.163717
H88	H	1.397060	-0.735862	-1.129561
H89	H	1.417040	-0.672060	-1.197993
H90	H	1.331606	-0.741361	-1.205034
C91	C	0.902867	-0.649605	-0.719954
H92	H	0.857614	-0.683559	-0.757534
H93	H	0.931269	-0.689003	-0.693827
H94	H	0.946926	-0.619792	-0.756698
C95	C	1.413592	-1.210284	-0.431470
H96	H	1.452879	-1.168738	-0.392203
H97	H	1.448276	-1.251513	-0.475145
H98	H	1.371430	-1.242564	-0.395292
C99	C	1.075191	-1.210262	-0.769362
H100	H	1.049473	-1.168710	-0.795023
H101	H	1.028503	-1.242549	-0.737720
H102	H	1.105347	-1.251484	-0.817576
C103	C	0.755807	-0.702254	-0.778202
H104	H	0.710555	-0.736215	-0.815780
H105	H	0.784210	-0.741645	-0.752067
H106	H	0.799865	-0.672446	-0.814951
C107	C	1.043685	-1.068933	-0.800725
H108	H	1.017964	-1.027384	-0.826388
H109	H	0.996998	-1.101223	-0.769084
H110	H	1.073845	-1.110153	-0.848937
