data_functionalizedCrystal
_audit_creation_method	'MofGen! by Chris Wilmer'
_symmetry_space_group_name_H-M	'P1'
_symmetry_Int_Tables_number	1
_symmetry_cell_setting	triclinic
loop_
_symmetry_equiv_pos_as_xyz
  x,y,z
_cell_length_a	14.044220
_cell_length_b	27.732048
_cell_length_c	13.101039
_cell_angle_alpha	93.329410
_cell_angle_beta	86.340132
_cell_angle_gamma	87.915767
loop_
_atom_site_label
_atom_site_type_symbol
_atom_site_fract_x
_atom_site_fract_y
_atom_site_fract_z
O1	O	1.261246	0.114020	-0.085126
O2	O	0.985339	0.109817	-0.085151
O3	O	1.131860	0.041925	-0.085119
O4	O	1.114725	0.181913	-0.085159
O5	O	1.121348	0.046805	0.085309
O6	O	0.974827	0.114697	0.085276
O7	O	1.250733	0.118900	0.085301
Zn8	Zn	1.111111	0.117574	0.112348
Zn9	Zn	1.124962	0.111144	-0.112198
O10	O	1.104212	0.186793	0.085268
C11	C	0.944796	0.110418	0.000059
C12	C	0.839651	0.104930	0.000051
C13	C	0.647135	0.094899	0.000074
C14	C	0.588932	0.133816	0.000067
C15	C	0.481810	0.128235	0.000080
C16	C	0.754268	0.100480	0.000061
C17	C	1.126244	0.026341	0.000098
C18	C	1.125160	-0.027364	0.000106
C19	C	1.204929	-0.362438	0.000061
C20	C	1.200910	-0.564286	0.000046
O21	O	1.273853	-0.592120	0.000008
N22	N	1.114029	-0.587487	0.000039
C23	C	1.028146	-0.560223	0.000029
O24	O	0.954156	-0.584589	0.000012
C25	C	1.032166	-0.358376	0.000037
C26	C	1.119052	-0.335177	0.000054
C27	C	1.291808	-0.339239	0.000077
C28	C	1.292812	-0.288779	0.000086
C29	C	1.206935	-0.261519	0.000079
C30	C	1.120056	-0.284718	0.000063
C31	C	0.946285	-0.331113	0.000019
C32	C	0.947297	-0.280648	0.000018
C33	C	1.034184	-0.257449	0.000036
C34	C	1.035183	-0.206998	0.000066
N35	N	1.122064	-0.183797	0.000072
C36	C	1.207941	-0.211057	0.000079
C37	C	1.026042	-0.666196	0.000027
C38	C	1.025036	-0.716658	0.000027
C39	C	1.197801	-0.720717	0.000043
C40	C	1.198805	-0.670255	0.000050
C41	C	1.112923	-0.642995	0.000034
C42	C	1.210041	-0.105089	0.000100
C43	C	1.211037	-0.054625	0.000113
C44	C	1.038273	-0.050570	0.000093
C45	C	1.037276	-0.101030	0.000085
C46	C	1.123168	-0.128288	0.000085
O47	O	0.962280	-0.179134	0.000092
O48	O	1.281921	-0.186683	0.000073
C49	C	1.203925	-0.412897	0.000052
C50	C	1.117046	-0.436096	0.000035
C51	C	1.031169	-0.408835	0.000029
C52	C	1.116040	-0.486557	0.000035
C53	C	1.201917	-0.513818	0.000042
C54	C	1.288798	-0.490617	0.000049
C55	C	1.289802	-0.440157	0.000059
C56	C	0.944288	-0.432037	0.000022
C57	C	0.943292	-0.482496	0.000013
C58	C	1.029168	-0.509756	0.000020
C59	C	1.291277	0.118300	0.000088
C60	C	1.396422	0.123787	0.000090
C61	C	1.109828	0.202376	0.000050
C62	C	1.110913	0.256082	0.000034
N63	N	1.101664	0.121962	0.265594
N64	N	1.134415	0.106752	-0.265444
C65	C	1.088813	0.127936	0.474634
C66	C	1.147264	0.100779	0.525523
C67	C	1.140113	0.104104	0.641839
C68	C	1.095962	0.124612	0.358306
H69	H	1.279983	-0.127277	0.000096
H70	H	0.619555	0.171325	0.000051
H71	H	0.966524	-0.119918	0.000099
C72	C	0.961343	0.187161	0.464133
C73	C	1.014011	0.162692	0.533738
H74	H	0.915161	0.208615	0.500632
H75	H	1.003113	0.205037	0.422282
H76	H	0.930022	0.164425	0.422288
H77	H	1.045338	0.185428	0.575578
H78	H	0.972235	0.144815	0.575606
C79	C	0.680393	0.009357	0.000084
C80	C	0.605805	0.044265	0.000084
H81	H	0.654866	-0.021901	0.000093
H82	H	0.722099	0.011448	-0.059347
H83	H	0.714787	0.014848	0.059517
H84	H	0.571415	0.038776	-0.059354
H85	H	0.564082	0.042172	0.059521
H86	H	1.267725	-0.742921	0.000049
C87	C	1.462671	-0.338168	0.000111
C88	C	1.386215	-0.369198	0.000094
H89	H	1.520956	-0.356662	0.000134
H90	H	1.463135	-0.320104	-0.059321
H91	H	1.455781	-0.316701	0.059543
H92	H	1.393101	-0.390663	-0.059343
H93	H	1.385752	-0.387270	0.059532
H94	H	1.281793	-0.035739	0.000130
H95	H	1.202677	0.075033	0.481733
H96	H	1.360554	-0.421273	0.000072
C97	C	0.921529	-0.604591	0.087625
C98	C	0.931633	-0.636234	0.000017
H99	H	0.863248	-0.586094	0.087616
H100	H	0.921065	-0.622664	0.147046
H101	H	0.973416	-0.583551	0.087617
H102	H	0.879750	-0.657276	0.000030
H103	H	0.932089	-0.618160	-0.059419
C104	C	1.399581	-0.236897	-0.087520
C105	C	1.388322	-0.263284	0.000089
H106	H	1.458546	-0.221159	-0.087516
H107	H	1.399254	-0.258197	-0.146940
H108	H	1.348583	-0.213435	-0.087509
H109	H	1.439316	-0.286748	0.000074
H110	H	1.388657	-0.241983	0.059524
C111	C	1.369471	-0.679348	0.000058
C112	C	1.294313	-0.644757	0.000053
H113	H	1.428435	-0.663608	0.000050
H114	H	1.361818	-0.697243	0.059489
H115	H	1.369136	-0.700646	-0.059375
H116	H	1.294643	-0.623461	0.059490
H117	H	1.301968	-0.626854	-0.059385
H118	H	0.875533	-0.349993	-0.000001
C119	C	0.854371	-0.707564	0.000004
C120	C	0.929527	-0.742154	0.000017
H121	H	0.795407	-0.723305	-0.000014
H122	H	0.854691	-0.686272	0.059434
H123	H	0.862037	-0.689664	-0.059430
H124	H	0.921865	-0.760053	0.059455
H125	H	0.929205	-0.763455	-0.059420
C126	C	0.839784	-0.370435	0.087632
C127	C	0.849887	-0.402074	0.000018
H128	H	0.781502	-0.351937	0.087628
H129	H	0.839320	-0.388511	0.147048
H130	H	0.891671	-0.349396	0.087628
H131	H	0.798003	-0.423116	0.000026
H132	H	0.850342	-0.383997	-0.059414
H133	H	0.877360	-0.258456	0.000004
H134	H	0.968354	-0.028365	0.000091
H135	H	1.358722	-0.512821	0.000060
C136	C	0.772619	-0.473403	-0.000020
C137	C	0.847776	-0.507992	-0.000009
H138	H	0.713657	-0.489143	-0.000047
H139	H	0.772935	-0.452113	0.059416
H140	H	0.780290	-0.455498	-0.059448
H141	H	0.840109	-0.525894	0.059424
H142	H	0.847459	-0.529291	-0.059451
