data_functionalizedCrystal
_audit_creation_method	'MofGen! by Chris Wilmer'
_symmetry_space_group_name_H-M	'P1'
_symmetry_Int_Tables_number	1
_symmetry_cell_setting	triclinic
loop_
_symmetry_equiv_pos_as_xyz
  x,y,z
_cell_length_a	12.503572
_cell_length_b	16.109301
_cell_length_c	16.109301
_cell_angle_alpha	83.461481
_cell_angle_beta	93.520842
_cell_angle_gamma	86.485447
loop_
_atom_site_label
_atom_site_type_symbol
_atom_site_fract_x
_atom_site_fract_y
_atom_site_fract_z
O1	O	0.089256	-1.107924	-0.102060
O2	O	0.089273	-0.865863	-0.115358
O3	O	0.089253	-0.993543	0.012322
O4	O	0.089276	-0.980244	-0.229739
O5	O	-0.089387	-0.983940	0.002703
O6	O	-0.089367	-0.856261	-0.124976
O7	O	-0.089385	-1.098322	-0.111678
Cu8	Cu	-0.105687	-0.976414	-0.119205
Cu9	Cu	0.105576	-0.987770	-0.107831
O10	O	-0.089365	-0.970642	-0.239357
C11	C	-0.000045	-0.830087	-0.119628
C12	C	-0.000039	-0.737792	-0.118013
C13	C	-0.000068	-0.988203	0.038487
C14	C	-0.000069	-0.986587	0.130783
N15	N	-0.254278	-0.968433	-0.127205
C16	C	-0.473392	-0.956693	-0.138980
C17	C	-0.526727	-1.007496	-0.088052
C18	C	-0.648649	-1.000963	-0.094604
C19	C	-0.351458	-0.963225	-0.132429
N20	N	0.254167	-0.995758	-0.099824
C21	C	-0.000064	-1.134098	-0.107407
C22	C	-0.000064	-1.226393	-0.109022
C23	C	-0.000044	-0.515519	-0.190021
C24	C	-0.000051	-0.428799	-0.188497
C25	C	-0.000061	-0.448672	-0.037009
C26	C	-0.000062	-0.535391	-0.038534
C27	C	-0.000048	-0.568812	-0.115042
C28	C	-0.000054	-0.395373	-0.111993
C29	C	-0.000062	-0.301346	-0.110341
C30	C	-0.000042	-0.662845	-0.116695
C31	C	-0.000042	-0.975982	-0.265523
C32	C	-0.000033	-0.977598	-0.357818
C33	C	-0.000057	-1.058596	0.353056
C34	C	-0.000048	-1.057072	0.439777
C35	C	-0.000042	-0.905584	0.419903
C36	C	-0.000043	-0.907109	0.333184
C37	C	-0.000056	-0.983617	0.299763
C38	C	-0.000046	-0.980568	0.473202
C39	C	-0.000036	-0.978916	0.567229
C40	C	-0.000064	-0.985270	0.205730
H41	H	-0.480822	-1.055895	-0.039531
H42	H	-0.000068	-0.578785	0.022527
N43	N	-0.000026	-0.827444	0.454058
N44	N	-0.000025	-0.826091	0.531485
H45	H	-0.000016	-0.770904	0.555607
N46	N	-0.530955	-0.895971	-0.199847
N47	N	-0.518509	-0.819767	-0.198163
H48	H	-0.559174	-0.776882	-0.241150
N49	N	-0.000065	-0.830513	0.278739
N50	N	-0.075368	-0.810421	0.224083
H51	H	-0.075382	-0.756328	0.185631
N52	N	-0.000074	-1.136751	0.318929
N53	N	-0.000076	-1.203690	0.366526
H54	H	-0.000087	-1.258890	0.342428
N55	N	-0.000031	-0.549646	-0.268176
N56	N	-0.000030	-0.502049	-0.335115
H57	H	-0.000024	-0.526147	-0.390315
N58	N	-0.000079	-1.133661	0.494211
N59	N	-0.075384	-1.145662	0.540766
H60	H	-0.075408	-1.199757	0.579210
N61	N	-0.000056	-0.374373	-0.265095
N62	N	-0.000050	-0.404228	-0.333395
H63	H	-0.000055	-0.365790	-0.387497
N64	N	-0.000075	-0.414518	0.041131
N65	N	-0.000074	-0.337090	0.042484
H66	H	-0.000082	-0.312968	0.097672
