data_functionalizedCrystal
_audit_creation_method	'MofGen! by Chris Wilmer'
_symmetry_space_group_name_H-M	'P1'
_symmetry_Int_Tables_number	1
_symmetry_cell_setting	triclinic
loop_
_symmetry_equiv_pos_as_xyz
  x,y,z
_cell_length_a	10.654549
_cell_length_b	11.026607
_cell_length_c	9.130313
_cell_angle_alpha	89.997484
_cell_angle_beta	89.997498
_cell_angle_gamma	96.535397
loop_
_atom_site_label
_atom_site_type_symbol
_atom_site_fract_x
_atom_site_fract_y
_atom_site_fract_z
O1	O	1.704908	0.170765	-0.121760
O2	O	2.204908	0.670765	0.378240
O3	O	1.342961	0.187035	-0.121770
O4	O	1.842961	0.687035	0.378230
O5	O	1.493936	0.001995	-0.121761
O6	O	1.993936	0.501995	0.378239
O7	O	1.553932	0.355806	-0.121770
O8	O	2.053932	0.855806	0.378230
O9	O	1.493922	0.001989	0.121838
O10	O	1.993922	0.501989	0.621838
O11	O	1.342947	0.187030	0.121829
O12	O	1.842947	0.687030	0.621829
O13	O	1.704893	0.170760	0.121838
O14	O	2.204893	0.670760	0.621838
Cu15	Cu	1.523919	0.178894	0.144076
Cu16	Cu	2.023919	0.678894	0.644076
Cu17	Cu	1.523936	0.178901	-0.144008
Cu18	Cu	2.023936	0.678901	0.355992
O19	O	1.553918	0.355800	0.121829
O20	O	2.053918	0.855800	0.621829
C21	C	1.295896	0.185838	0.000028
C22	C	1.795896	0.685838	0.500028
C23	C	1.155677	0.182264	0.000024
C24	C	1.655677	0.682264	0.500024
C25	C	0.968081	0.287846	0.000027
C26	C	1.468081	0.787846	0.500027
C27	C	1.099833	0.291213	0.000018
C28	C	1.599833	0.791213	0.500018
C29	C	1.079763	0.069940	0.000024
C30	C	1.579763	0.569940	0.500024
C31	C	0.948014	0.066575	0.000022
C32	C	1.448014	0.566575	0.500022
C33	C	1.482861	-0.043312	0.000037
C34	C	1.982861	0.456688	0.500037
C35	C	1.449867	-0.178304	0.000030
C36	C	1.949867	0.321696	0.500030
C37	C	1.540970	-0.251343	0.000031
C38	C	2.040970	0.248657	0.500031
C39	C	1.506871	-0.390864	0.000024
C40	C	2.006871	0.109136	0.500024
C41	C	1.751958	0.171957	0.000037
C42	C	2.251958	0.671957	0.500037
C43	C	1.892177	0.175531	0.000031
C44	C	2.392177	0.675531	0.500031
C45	C	1.564993	0.401107	0.000028
C46	C	2.064993	0.901107	0.500028
C47	C	1.597988	0.536099	0.000025
C48	C	2.097988	1.036099	0.500025
N49	N	1.523916	0.178889	0.346699
N50	N	2.023916	0.678889	0.846699
N51	N	1.523946	0.178896	-0.346631
N52	N	2.023946	0.678896	0.153369
C53	C	1.590804	0.096988	0.423355
C54	C	2.090804	0.596988	0.923355
C55	C	1.590816	0.096988	0.576691
C56	C	2.090816	0.596988	1.076691
C57	C	1.457050	0.260801	0.576703
C58	C	1.957050	0.760801	1.076703
C59	C	1.457031	0.260794	0.423369
C60	C	1.957031	0.760794	0.923369
H61	H	1.125242	-0.018767	0.000019
H62	H	1.625242	0.481233	0.500019
H63	H	0.886209	-0.024891	0.000020
H64	H	1.386209	0.475109	0.500020
Cl65	Cl	1.700372	-0.188423	0.000026
Cl66	Cl	2.200372	0.311577	0.500026
H67	H	1.403623	-0.431618	0.000012
H68	H	1.903623	0.068382	0.500012
Cl69	Cl	1.757397	-0.400991	0.000022
Cl70	Cl	2.257397	0.099009	0.500022
H71	H	1.402557	0.327489	0.360951
H72	H	1.902557	0.827489	0.860951
H73	H	1.645263	0.030294	0.360933
H74	H	2.145263	0.530294	0.860933
H75	H	1.346625	-0.219064	0.000018
H76	H	1.846625	0.280936	0.500018
H77	H	0.922623	0.376565	0.000034
H78	H	1.422623	0.876565	0.500034
Cl79	Cl	1.195251	0.432416	0.000007
Cl80	Cl	1.695251	0.932416	0.500007
Cl81	Cl	1.674905	-0.005980	0.673055
Cl82	Cl	2.174905	0.494020	1.173055
H83	H	1.402596	0.327489	0.639143
H84	H	1.902596	0.827489	1.139143
