data_functionalizedCrystal
_audit_creation_method	'MofGen! by Chris Wilmer'
_symmetry_space_group_name_H-M	'P1'
_symmetry_Int_Tables_number	1
_symmetry_cell_setting	triclinic
loop_
_symmetry_equiv_pos_as_xyz
  x,y,z
_cell_length_a	18.215407
_cell_length_b	29.839131
_cell_length_c	18.215399
_cell_angle_alpha	89.968708
_cell_angle_beta	89.983115
_cell_angle_gamma	90.038864
loop_
_atom_site_label
_atom_site_type_symbol
_atom_site_fract_x
_atom_site_fract_y
_atom_site_fract_z
Zn1	Zn	1.124984	-0.178887	-0.416052
Zn2	Zn	1.624984	0.321113	0.083948
Zn3	Zn	1.124858	-0.254017	-0.292980
Zn4	Zn	1.624858	0.245983	0.207020
Zn5	Zn	1.001917	-0.178898	-0.293005
Zn6	Zn	1.501917	0.321102	0.206995
Zn7	Zn	1.001847	-0.253987	-0.416010
Zn8	Zn	1.501847	0.246013	0.083990
O9	O	1.063401	-0.216447	-0.354512
O10	O	1.563401	0.283553	0.145488
O11	O	1.227951	-0.188860	-0.399734
O12	O	1.727951	0.311140	0.100266
O13	O	1.108526	-0.244069	-0.189999
O14	O	1.608526	0.255931	0.310001
O15	O	1.018325	-0.116029	-0.309356
O16	O	1.518325	0.383971	0.190644
O17	O	1.227859	-0.244058	-0.309313
O18	O	1.727859	0.255942	0.190687
O19	O	1.108741	-0.116021	-0.399758
O20	O	1.608741	0.383979	0.100242
O21	O	1.018203	-0.188880	-0.190017
O22	O	1.518203	0.311120	0.309983
O23	O	0.898924	-0.188851	-0.309315
O24	O	1.398924	0.311149	0.190685
O25	O	1.018204	-0.244008	-0.519000
O26	O	1.518204	0.255992	-0.019000
O27	O	0.898872	-0.244019	-0.399686
O28	O	1.398872	0.255981	0.100314
O29	O	1.108673	-0.188832	-0.519031
O30	O	1.608673	0.311168	-0.019031
O31	O	1.108458	-0.316880	-0.309272
O32	O	1.608458	0.183120	0.190728
O33	O	1.018082	-0.316858	-0.399662
O34	O	1.518082	0.183142	0.100338
C35	C	0.872195	-0.216433	-0.354499
C36	C	1.372195	0.283567	0.145501
C37	C	0.790396	-0.216438	-0.354511
C38	C	1.290396	0.283562	0.145489
C39	C	0.602250	-0.187756	-0.401667
C40	C	1.102250	0.312244	0.098333
C41	C	0.525391	-0.187760	-0.401670
C42	C	1.025391	0.312240	0.098330
C43	C	0.525305	-0.245151	-0.307369
C44	C	1.025305	0.254849	0.192631
C45	C	0.602163	-0.245144	-0.307364
C46	C	1.102163	0.254856	0.192636
C47	C	0.640633	-0.216448	-0.354517
C48	C	1.140633	0.283552	0.145483
C49	C	0.486917	-0.216458	-0.354525
C50	C	0.986917	0.283542	0.145475
C51	C	0.403583	-0.216462	-0.354527
C52	C	0.903583	0.283538	0.145473
C53	C	0.723972	-0.216443	-0.354514
C54	C	1.223972	0.283557	0.145486
C55	C	1.063269	-0.333170	-0.354475
C56	C	1.563269	0.166830	0.145525
C57	C	1.063279	-0.383104	-0.354484
C58	C	1.563279	0.116896	0.145516
C59	C	1.110546	-0.692746	-0.307515
C60	C	1.610546	-0.192746	0.192485
C61	C	1.110636	-0.880419	-0.307543
C62	C	1.610636	-0.380419	0.192457
O63	O	1.150719	-0.904683	-0.267580
O64	O	1.650719	-0.404683	0.232420
N65	N	1.063554	-0.903889	-0.354567
N66	N	1.563554	-0.403889	0.145433
C67	C	1.016449	-0.880438	-0.401591
C68	C	1.516449	-0.380438	0.098409
O69	O	0.976410	-0.904707	-0.441594
O70	O	1.476410	-0.404707	0.058406
C71	C	1.016362	-0.692766	-0.401566
C72	C	1.516362	-0.192766	0.098434
C73	C	1.063443	-0.669298	-0.354533
C74	C	1.563443	-0.169298	0.145467
C75	C	1.157623	-0.669279	-0.260487
C76	C	1.657623	-0.169279	0.239513
C77	C	1.157597	-0.622363	-0.260477
C78	C	1.657597	-0.122363	0.239523
C79	C	1.110494	-0.598915	-0.307496
C80	C	1.610494	-0.098915	0.192504
C81	C	1.063417	-0.622383	-0.354524
C82	C	1.563417	-0.122383	0.145476
C83	C	0.969262	-0.669316	-0.448593
C84	C	1.469262	-0.169316	0.051407
C85	C	0.969245	-0.622395	-0.448583
C86	C	1.469245	-0.122395	0.051417
C87	C	1.016326	-0.598927	-0.401551
C88	C	1.516326	-0.098927	0.098449
C89	C	1.016288	-0.552020	-0.401533
C90	C	1.516288	-0.052020	0.098467
N91	N	1.063370	-0.528550	-0.354509
N92	N	1.563370	-0.028550	0.145491
C93	C	1.110473	-0.551997	-0.307490
C94	C	1.610473	-0.051997	0.192510
C95	C	1.016497	-0.978969	-0.401600
C96	C	1.516497	-0.478969	0.098400
C97	C	1.016517	-1.025886	-0.401606
C98	C	1.516517	-0.525886	0.098394
C99	C	1.110706	-1.025864	-0.307559
C100	C	1.610706	-0.525864	0.192441
C101	C	1.110681	-0.978946	-0.307550
C102	C	1.610681	-0.478946	0.192450
C103	C	1.063579	-0.955499	-0.354576
C104	C	1.563579	-0.455499	0.145424
C105	C	1.110414	-0.453472	-0.307473
C106	C	1.610414	0.046528	0.192527
C107	C	1.110382	-0.406552	-0.307466
C108	C	1.610382	0.093448	0.192534
C109	C	1.016196	-0.406578	-0.401515
C110	C	1.516196	0.093422	0.098485
C111	C	1.016226	-0.453494	-0.401520
C112	C	1.516226	0.046506	0.098480
C113	C	1.063341	-0.476939	-0.354497
C114	C	1.563341	0.023061	0.145503
O115	O	0.976232	-0.527727	-0.441481
O116	O	1.476232	-0.027727	0.058519
O117	O	1.150518	-0.527720	-0.267505
O118	O	1.650518	-0.027720	0.232495
C119	C	1.110572	-0.739662	-0.307524
C120	C	1.610572	-0.239662	0.192476
C121	C	1.063495	-0.763129	-0.354552
C122	C	1.563495	-0.263129	0.145448
C123	C	1.016392	-0.739681	-0.401571
C124	C	1.516392	-0.239681	0.098429
C125	C	1.063515	-0.810047	-0.354558
C126	C	1.563515	-0.310047	0.145442
C127	C	1.110618	-0.833495	-0.307539
C128	C	1.610618	-0.333495	0.192461
C129	C	1.157701	-0.810025	-0.260515
C130	C	1.657701	-0.310025	0.239485
C131	C	1.157675	-0.763109	-0.260506
C132	C	1.657675	-0.263109	0.239494
C133	C	0.969309	-0.763151	-0.448595
C134	C	1.469309	-0.263151	0.051405
C135	C	0.969339	-0.810067	-0.448600
C136	C	1.469339	-0.310067	0.051400
C137	C	1.016442	-0.833515	-0.401581
C138	C	1.516442	-0.333515	0.098419
C139	C	1.255354	-0.216461	-0.354525
C140	C	1.755354	0.283539	0.145475
C141	C	1.337153	-0.216467	-0.354531
C142	C	1.837153	0.283533	0.145469
C143	C	1.063445	-0.216415	-0.546465
C144	C	1.563445	0.283585	-0.046465
C145	C	1.063463	-0.216402	-0.628264
C146	C	1.563463	0.283598	-0.128264
C147	C	1.063555	-0.099269	-0.354565
C148	C	1.563555	0.400731	0.145435
C149	C	1.063620	-0.049334	-0.354587
C150	C	1.563620	0.450666	0.145413
C151	C	1.110597	-0.187633	-0.893339
C152	C	1.610597	0.312367	-0.393339
C153	C	1.110588	-0.187645	-0.816480
C154	C	1.610588	0.312355	-0.316480
C155	C	1.016389	-0.245105	-0.816437
C156	C	1.516389	0.254895	-0.316437
C157	C	1.016402	-0.245095	-0.893295
C158	C	1.516402	0.254905	-0.393295
C159	C	1.063505	-0.216356	-0.931744
C160	C	1.563505	0.283644	-0.431744
C161	C	1.063483	-0.216379	-0.778027
C162	C	1.563483	0.283621	-0.278027
C163	C	1.063473	-0.216392	-0.694694
C164	C	1.563473	0.283608	-0.194694
C165	C	1.063516	-0.216343	-1.015083
C166	C	1.563516	0.283657	-0.515083
C167	C	1.063401	-0.216446	-0.163306
C168	C	1.563401	0.283554	0.336694
C169	C	1.063525	-0.216333	-0.081507
C170	C	1.563525	0.283667	0.418493
H171	H	0.633570	-0.164388	-0.440060
H172	H	1.133570	0.335612	0.059940
H173	H	0.493974	-0.268515	-0.268979
H174	H	0.993974	0.231485	0.231021
H175	H	0.978139	-0.959881	-0.439895
H176	H	1.478139	-0.459881	0.060105
Br177	Br	1.174506	-0.148664	-0.764362
Br178	Br	1.674506	0.351336	-0.264362
H179	H	0.494143	-0.164396	-0.440063
H180	H	0.994143	0.335604	0.059937
H181	H	0.633415	-0.268509	-0.268964
H182	H	1.133415	0.231491	0.231036
Br183	Br	1.174629	-1.057695	-0.243745
Br184	Br	1.674629	-0.557695	0.256255
Br185	Br	1.174279	-0.374706	-0.243630
Br186	Br	1.674279	0.125294	0.256370
Br187	Br	1.174356	-0.485283	-0.243655
Br188	Br	1.674356	0.014717	0.256345
H189	H	1.195935	-0.603259	-0.222182
H190	H	1.695935	-0.103259	0.277818
H191	H	1.195983	-0.688365	-0.222198
H192	H	1.695983	-0.188365	0.277802
Br193	Br	1.174577	-0.947102	-0.243717
Br194	Br	1.674577	-0.447102	0.256283
Br195	Br	0.952609	-1.057729	-0.465427
Br196	Br	1.452609	-0.557729	0.034573
Br197	Br	0.905371	-0.701152	-0.512435
Br198	Br	1.405371	-0.201152	-0.012435
H199	H	0.977843	-0.387480	-0.439795
H200	H	1.477843	0.112520	0.060205
H201	H	0.930890	-0.603306	-0.486880
H202	H	1.430890	-0.103306	0.013120
Br203	Br	1.174519	-0.148629	-0.945517
Br204	Br	1.674519	0.351371	-0.445517
H205	H	0.977892	-0.472602	-0.439820
H206	H	1.477892	0.027398	0.060180
Br207	Br	1.221575	-0.731268	-0.196674
Br208	Br	1.721575	-0.231268	0.303326
H209	H	1.196052	-0.829124	-0.222229
H210	H	1.696052	-0.329124	0.277771
H211	H	0.930953	-0.744064	-0.486884
H212	H	1.430953	-0.244064	0.013116
Br213	Br	0.905435	-0.841910	-0.512434
Br214	Br	1.405435	-0.341910	-0.012434
H215	H	0.978038	-0.268503	-0.785123
H216	H	1.478038	0.231497	-0.285123
Br217	Br	0.952494	-0.284085	-0.945420
Br218	Br	1.452494	0.215915	-0.445420
