data_functionalizedCrystal
_audit_creation_method	'MofGen! by Chris Wilmer'
_symmetry_space_group_name_H-M	'P1'
_symmetry_Int_Tables_number	1
_symmetry_cell_setting	triclinic
loop_
_symmetry_equiv_pos_as_xyz
  x,y,z
_cell_length_a	16.625548
_cell_length_b	18.101397
_cell_length_c	16.625539
_cell_angle_alpha	89.970842
_cell_angle_beta	89.979432
_cell_angle_gamma	90.020834
loop_
_atom_site_label
_atom_site_type_symbol
_atom_site_fract_x
_atom_site_fract_y
_atom_site_fract_z
Zn1	Zn	1.232696	-0.294807	-0.455905
Zn2	Zn	1.732696	0.205193	0.044095
Zn3	Zn	1.232605	-0.418656	-0.321070
Zn4	Zn	1.732605	0.081344	0.178930
Zn5	Zn	1.097857	-0.294835	-0.321085
Zn6	Zn	1.597857	0.205165	0.178915
Zn7	Zn	1.097834	-0.418614	-0.455860
Zn8	Zn	1.597834	0.081386	0.044140
O9	O	1.165248	-0.356728	-0.388480
O10	O	1.665248	0.143272	0.111520
O11	O	1.345516	-0.311242	-0.438031
O12	O	1.845516	0.188758	0.061969
O13	O	1.214702	-0.402261	-0.208239
O14	O	1.714702	0.097739	0.291761
O15	O	1.115792	-0.191199	-0.338994
O16	O	1.615792	0.308801	0.161006
O17	O	1.345450	-0.402233	-0.338968
O18	O	1.845450	0.097767	0.161032
O19	O	1.214857	-0.191178	-0.438046
O20	O	1.714857	0.308822	0.061954
O21	O	1.115704	-0.311290	-0.208251
O22	O	1.615704	0.188710	0.291749
O23	O	0.985022	-0.311249	-0.338951
O24	O	1.485022	0.188751	0.161049
O25	O	1.115752	-0.402161	-0.568698
O26	O	1.615752	0.097839	-0.068698
O27	O	0.985005	-0.402188	-0.437969
O28	O	1.485005	0.097812	0.062031
O29	O	1.214834	-0.311201	-0.568731
O30	O	1.714834	0.188799	-0.068731
O31	O	1.214680	-0.522283	-0.338925
O32	O	1.714680	-0.022283	0.161075
O33	O	1.115664	-0.522252	-0.437954
O34	O	1.615664	-0.022252	0.062046
C35	C	0.955757	-0.356717	-0.388457
C36	C	1.455757	0.143283	0.111543
C37	C	0.866136	-0.356731	-0.388467
C38	C	1.366136	0.143269	0.111533
C39	C	1.165182	-0.549139	-0.388451
C40	C	1.665182	-0.049139	0.111549
C41	C	1.165227	-0.631453	-0.388465
C42	C	1.665227	-0.131453	0.111535
C43	C	0.537960	-0.356736	-0.388501
C44	C	1.037960	0.143264	0.111499
C45	C	0.629269	-0.356732	-0.388489
C46	C	1.129269	0.143268	0.111511
C47	C	0.702045	-0.356734	-0.388483
C48	C	1.202045	0.143266	0.111517
C49	C	0.793360	-0.356729	-0.388472
C50	C	1.293360	0.143271	0.111528
C51	C	1.165276	-0.782161	-0.388492
C52	C	1.665276	-0.282161	0.111508
C53	C	1.227635	-0.813503	-0.326246
C54	C	1.727635	-0.313503	0.173754
C55	C	1.227480	-0.899122	-0.326017
C56	C	1.727480	-0.399122	0.173983
C57	C	1.165326	-0.930544	-0.388519
C58	C	1.665326	-0.430544	0.111481
C59	C	1.080290	-0.899529	-0.365648
C60	C	1.580290	-0.399529	0.134352
C61	C	1.080622	-0.813884	-0.365180
C62	C	1.580622	-0.313884	0.134820
C63	C	1.187220	-0.813654	-0.473773
C64	C	1.687220	-0.313654	0.026227
C65	C	1.189123	-0.899303	-0.473334
C66	C	1.689123	-0.399303	0.026666
C67	C	1.165348	-1.014403	-0.388536
C68	C	1.665348	-0.514403	0.111464
C69	C	1.165247	-0.698302	-0.388474
C70	C	1.665247	-0.198302	0.111526
C71	C	1.375557	-0.356739	-0.388503
C72	C	1.875557	0.143261	0.111497
C73	C	1.465178	-0.356744	-0.388513
C74	C	1.965178	0.143256	0.111487
C75	C	1.165301	-0.356673	-0.598789
C76	C	1.665301	0.143327	-0.098789
C77	C	1.165323	-0.356649	-0.688410
C78	C	1.665323	0.143351	-0.188410
C79	C	1.165337	-0.163566	-0.388527
C80	C	1.665337	0.336434	0.111473
C81	C	1.165375	-0.081252	-0.388547
C82	C	1.665375	0.418748	0.111453
C83	C	1.165360	-0.356566	-1.016586
C84	C	1.665360	0.143434	-0.516586
C85	C	1.165347	-0.356592	-0.925277
C86	C	1.665347	0.143408	-0.425277
C87	C	1.165342	-0.356609	-0.852501
C88	C	1.665342	0.143391	-0.352501
C89	C	1.165328	-0.356633	-0.761186
C90	C	1.665328	0.143367	-0.261186
C91	C	1.165242	-0.356730	-0.178989
C92	C	1.665242	0.143270	0.321011
C93	C	1.165376	-0.356544	-0.089368
C94	C	1.665376	0.143456	0.410632
H95	H	1.290529	-0.920089	-0.340304
H96	H	1.790529	-0.420089	0.159696
H97	H	1.032575	-0.919884	-0.409599
H98	H	1.532575	-0.419884	0.090401
H99	H	1.032566	-0.793153	-0.408558
H100	H	1.532566	-0.293153	0.091442
Br101	Br	1.293421	-0.933088	-0.502096
Br102	Br	1.793421	-0.433088	-0.002096
H103	H	1.147049	-0.920689	-0.522187
H104	H	1.647049	-0.420689	-0.022187
Br105	Br	1.111536	-0.779854	-0.551074
Br106	Br	1.611536	-0.279854	-0.051074
Br107	Br	1.333031	-0.779099	-0.349774
Br108	Br	1.833031	-0.279099	0.150226
Br109	Br	1.203698	-0.777722	-0.221524
Br110	Br	1.703698	-0.277722	0.278476
H111	H	1.212953	-0.919664	-0.262836
H112	H	1.712953	-0.419664	0.237164
Br113	Br	1.048826	-0.935369	-0.262909
Br114	Br	1.548826	-0.435369	0.237091
Br115	Br	1.288796	-0.777577	-0.508509
Br116	Br	1.788796	-0.277577	-0.008509
Br117	Br	1.049668	-0.780678	-0.261292
Br118	Br	1.549668	-0.280678	0.238708
