data_functionalizedCrystal
_audit_creation_method	'MofGen! by Chris Wilmer'
_symmetry_space_group_name_H-M	'P1'
_symmetry_Int_Tables_number	1
_symmetry_cell_setting	triclinic
loop_
_symmetry_equiv_pos_as_xyz
  x,y,z
_cell_length_a	21.295417
_cell_length_b	17.077404
_cell_length_c	17.077396
_cell_angle_alpha	89.982756
_cell_angle_beta	89.965973
_cell_angle_gamma	90.030732
loop_
_atom_site_label
_atom_site_type_symbol
_atom_site_fract_x
_atom_site_fract_y
_atom_site_fract_z
Zn1	Zn	-0.250600	1.199996	-0.443817
Zn2	Zn	-0.355875	1.199890	-0.312540
Zn3	Zn	-0.250624	1.068733	-0.312565
Zn4	Zn	-0.355836	1.068678	-0.443764
O5	O	-0.303234	1.134324	-0.378171
O6	O	-0.264572	1.309829	-0.426415
O7	O	-0.341939	1.182471	-0.202697
O8	O	-0.162531	1.086212	-0.330008
O9	O	-0.341916	1.309751	-0.329966
O10	O	-0.162514	1.182650	-0.426439
O11	O	-0.264612	1.086110	-0.202715
O12	O	-0.264574	0.958878	-0.329957
O13	O	-0.341850	1.086119	-0.553618
O14	O	-0.341873	0.958838	-0.426348
O15	O	-0.264534	1.182597	-0.553657
O16	O	-0.443959	1.182418	-0.329915
O17	O	-0.443931	1.086017	-0.426324
C18	C	-0.303222	0.930376	-0.378150
C19	C	-0.303233	0.843126	-0.378159
C20	C	-0.343543	0.802136	-0.428270
C21	C	-0.343544	0.720155	-0.428282
C22	C	-0.303238	0.679167	-0.378180
C23	C	-0.262923	0.720163	-0.328067
C24	C	-0.262919	0.802142	-0.328059
C25	C	-0.262936	0.549293	-0.328086
C26	C	-0.262940	0.467309	-0.328093
C27	C	-0.343561	0.467306	-0.428309
C28	C	-0.343557	0.549285	-0.428301
C29	C	-0.303243	0.590276	-0.378187
C30	C	-0.466785	1.134221	-0.378128
C31	C	-0.536753	1.134249	-0.378136
C32	C	-0.569614	1.184490	-0.327987
C33	C	-0.635357	1.184526	-0.328004
C34	C	-0.668236	1.134309	-0.378163
C35	C	-0.635367	1.084064	-0.428321
C36	C	-0.569626	1.084035	-0.428308
N37	N	-0.771502	1.065640	-0.384140
N38	N	-0.833953	1.065670	-0.384148
C39	C	-0.866311	1.134396	-0.378208
N40	N	-0.833857	1.203093	-0.372244
N41	N	-0.771400	1.203061	-0.372231
C42	C	-0.739521	1.134336	-0.378183
C43	C	-0.970457	1.184681	-0.328075
C44	C	-1.036200	1.184719	-0.328098
C45	C	-1.036210	1.084250	-0.428411
C46	C	-0.970468	1.084219	-0.428392
C47	C	-0.937595	1.134434	-0.378220
C48	C	-0.139043	1.134449	-0.378232
C49	C	-0.069075	1.134502	-0.378258
C50	C	-0.303185	1.134364	-0.582916
C51	C	-0.303164	1.134380	-0.670166
C52	C	-0.303246	1.339068	-0.378194
C53	C	-0.303251	1.426318	-0.378203
C54	C	-0.262895	1.084220	-0.711165
C55	C	-0.262881	1.084233	-0.793145
C56	C	-0.303133	1.134411	-0.834125
C57	C	-0.343407	1.184573	-0.793120
C58	C	-0.343424	1.184555	-0.711141
C59	C	-0.343367	1.184607	-0.963991
C60	C	-0.343350	1.184625	-1.045975
C61	C	-0.262824	1.084285	-1.045994
C62	C	-0.262841	1.084267	-0.964015
C63	C	-0.303114	1.134431	-0.923016
C64	C	-0.303237	1.134330	-0.174224
C65	C	-0.303080	1.134465	-0.086974
H66	H	-0.376369	0.686785	-0.469086
H67	H	-0.230062	1.043412	-0.930652
Cl68	Cl	-0.528313	1.020869	-0.491357
H69	H	-0.943691	1.225572	-0.287224
Cl70	Cl	-0.212194	1.021224	-1.097535
H71	H	-0.376126	1.225484	-1.079339
Cl72	Cl	-0.528292	1.247628	-0.264925
Cl73	Cl	-0.393999	1.247667	-0.912450
Cl74	Cl	-0.212254	0.600823	-0.265085
Cl75	Cl	-0.394014	1.247648	-0.844638
H76	H	-0.943711	1.043305	-0.469225
H77	H	-0.230092	1.043385	-0.826523
H78	H	-0.662117	1.225441	-0.287167
Cl79	Cl	-0.676700	1.020937	-0.491381
H80	H	-0.376367	0.835503	-0.469066
Cl81	Cl	-0.394232	0.600813	-0.491282
H82	H	-0.376210	1.225407	-0.677761
H83	H	-1.062980	1.043365	-0.469255
H84	H	-0.230113	1.043365	-0.677805
Cl85	Cl	-0.394232	0.415776	-0.491320
Cl86	Cl	-1.077512	1.247891	-0.265054
H87	H	-0.230103	0.686784	-0.287276
Cl88	Cl	-0.212240	0.853673	-0.265062
Cl89	Cl	-0.212272	0.415781	-0.265102
