data_functionalizedCrystal
_audit_creation_method	'MofGen! by Chris Wilmer'
_symmetry_space_group_name_H-M	'P1'
_symmetry_Int_Tables_number	1
_symmetry_cell_setting	triclinic
loop_
_symmetry_equiv_pos_as_xyz
  x,y,z
_cell_length_a	16.625548
_cell_length_b	16.625546
_cell_length_c	16.625548
_cell_angle_alpha	89.986596
_cell_angle_beta	89.991764
_cell_angle_gamma	90.023536
loop_
_atom_site_label
_atom_site_type_symbol
_atom_site_fract_x
_atom_site_fract_y
_atom_site_fract_z
Zn1	Zn	-1.232582	0.321112	0.455897
Zn2	Zn	-0.982582	0.571112	0.705897
Zn3	Zn	-0.732582	0.821112	0.955897
Zn4	Zn	-0.482582	1.071112	1.205897
Zn5	Zn	-1.232515	0.455916	0.321060
Zn6	Zn	-0.982515	0.705916	0.571060
Zn7	Zn	-0.732515	0.955916	0.821060
Zn8	Zn	-0.482515	1.205916	1.071060
Zn9	Zn	-1.097773	0.321103	0.321078
Zn10	Zn	-0.847773	0.571103	0.571078
Zn11	Zn	-0.597773	0.821103	0.821078
Zn12	Zn	-0.347773	1.071103	1.071078
Zn13	Zn	-1.097715	0.455909	0.455849
Zn14	Zn	-0.847715	0.705909	0.705849
Zn15	Zn	-0.597715	0.955909	0.955849
Zn16	Zn	-0.347715	1.205909	1.205849
O17	O	-1.165146	0.388510	0.388471
O18	O	-0.915146	0.638510	0.638471
O19	O	-0.665146	0.888510	0.888471
O20	O	-0.415146	1.138510	1.138471
O21	O	-1.345406	0.339001	0.438023
O22	O	-1.095406	0.589001	0.688023
O23	O	-0.845406	0.839001	0.938023
O24	O	-0.595406	1.089001	1.188023
O25	O	-1.214637	0.438031	0.208230
O26	O	-0.964637	0.688031	0.458230
O27	O	-0.714637	0.938031	0.708230
O28	O	-0.464637	1.188031	0.958230
O29	O	-1.115709	0.208272	0.338990
O30	O	-0.865709	0.458272	0.588990
O31	O	-0.615709	0.708272	0.838990
O32	O	-0.365709	0.958272	1.088990
O33	O	-1.345356	0.438040	0.338959
O34	O	-1.095356	0.688040	0.588959
O35	O	-0.845356	0.938040	0.838959
O36	O	-0.595356	1.188040	1.088959
O37	O	-1.214752	0.208279	0.438041
O38	O	-0.964752	0.458279	0.688041
O39	O	-0.714752	0.708279	0.938041
O40	O	-0.464752	0.958279	1.188041
O41	O	-1.115643	0.338985	0.208243
O42	O	-0.865643	0.588985	0.458243
O43	O	-0.615643	0.838985	0.708243
O44	O	-0.365643	1.088985	0.958243
O45	O	-0.984933	0.338979	0.338943
O46	O	-0.734933	0.588979	0.588943
O47	O	-0.484933	0.838979	0.838943
O48	O	-0.234933	1.088979	1.088943
O49	O	-1.115609	0.438029	0.568688
O50	O	-0.865609	0.688029	0.818688
O51	O	-0.615609	0.938029	1.068688
O52	O	-0.365609	1.188029	1.318688
O53	O	-0.984890	0.438020	0.437959
O54	O	-0.734890	0.688020	0.687959
O55	O	-0.484890	0.938020	0.937959
O56	O	-0.234890	1.188020	1.187959
O57	O	-1.214696	0.338995	0.568723
O58	O	-0.964696	0.588995	0.818723
O59	O	-0.714696	0.838995	1.068723
O60	O	-0.464696	1.088995	1.318723
O61	O	-1.214580	0.568747	0.338912
O62	O	-0.964580	0.818747	0.588912
O63	O	-0.714580	1.068747	0.838912
O64	O	-0.464580	1.318747	1.088912
O65	O	-1.115543	0.568743	0.437942
O66	O	-0.865543	0.818743	0.687942
O67	O	-0.615543	1.068743	0.937942
O68	O	-0.365543	1.318743	1.187942
C69	C	-0.955655	0.388499	0.388449
C70	C	-0.705655	0.638499	0.638449
C71	C	-0.455655	0.888499	0.888449
C72	C	-0.205655	1.138499	1.138449
C73	C	-0.866034	0.388513	0.388458
C74	C	-0.616034	0.638513	0.638458
C75	C	-0.366034	0.888513	0.888458
C76	C	-0.116034	1.138513	1.138458
C77	C	-1.165070	0.598001	0.388437
C78	C	-0.915070	0.848001	0.638437
C79	C	-0.665070	1.098001	0.888437
C80	C	-0.415070	1.348001	1.138437
C81	C	-1.165111	0.687622	0.388450
C82	C	-0.915111	0.937622	0.638450
C83	C	-0.665111	1.187622	0.888450
C84	C	-0.415111	1.437622	1.138450
C85	C	-1.165153	0.388512	0.598780
C86	C	-0.915153	0.638512	0.848780
C87	C	-0.665153	0.888512	1.098780
C88	C	-0.415153	1.138512	1.348780
C89	C	-1.165156	0.388513	0.688401
C90	C	-0.915156	0.638513	0.938401
C91	C	-0.665156	0.888513	1.188401
C92	C	-0.415156	1.138513	1.438401
C93	C	-1.375455	0.388522	0.388494
C94	C	-1.125455	0.638522	0.638494
C95	C	-0.875455	0.888522	0.888494
C96	C	-0.625455	1.138522	1.138494
C97	C	-1.465076	0.388527	0.388504
C98	C	-1.215076	0.638527	0.638504
C99	C	-0.965076	0.888527	0.888504
C100	C	-0.715076	1.138527	1.138504
C101	C	-0.537859	0.388518	0.388493
C102	C	-0.287859	0.638518	0.638493
C103	C	-0.037859	0.888518	0.888493
C104	C	0.212141	1.138518	1.138493
C105	C	-0.629167	0.388515	0.388480
C106	C	-0.379167	0.638515	0.638480
C107	C	-0.129167	0.888515	0.888480
C108	C	0.120833	1.138515	1.138480
C109	C	-0.701943	0.388516	0.388475
C110	C	-0.451943	0.638516	0.638475
C111	C	-0.201943	0.888516	0.888475
C112	C	0.048057	1.138516	1.138475
C113	C	-0.793258	0.388512	0.388464
C114	C	-0.543258	0.638512	0.638464
C115	C	-0.293258	0.888512	0.888464
C116	C	-0.043258	1.138512	1.138464
C117	C	-1.165245	0.178201	0.388523
C118	C	-0.915245	0.428201	0.638523
C119	C	-0.665245	0.678201	0.888523
C120	C	-0.415245	0.928201	1.138523
C121	C	-1.165287	0.088580	0.388545
C122	C	-0.915287	0.338580	0.638545
C123	C	-0.665287	0.588580	0.888545
C124	C	-0.415287	0.838580	1.138545
C125	C	-1.165252	1.015798	0.388534
C126	C	-0.915252	1.265798	0.638534
C127	C	-0.665252	1.515798	0.888534
C128	C	-0.415252	1.765798	1.138534
C129	C	-1.165210	0.924489	0.388513
C130	C	-0.915210	1.174489	0.638513
C131	C	-0.665210	1.424489	0.888513
C132	C	-0.415210	1.674489	1.138513
C133	C	-1.165181	0.851713	0.388491
C134	C	-0.915181	1.101713	0.638491
C135	C	-0.665181	1.351713	0.888491
C136	C	-0.415181	1.601713	1.138491
C137	C	-1.165140	0.760399	0.388471
C138	C	-0.915140	1.010399	0.638471
C139	C	-0.665140	1.260399	0.888471
C140	C	-0.415140	1.510399	1.138471
C141	C	-1.165123	0.388520	1.016577
C142	C	-0.915123	0.638520	1.266577
C143	C	-0.665123	0.888520	1.516577
C144	C	-0.415123	1.138520	1.766577
C145	C	-1.165130	0.388521	0.925268
C146	C	-0.915130	0.638521	1.175268
C147	C	-0.665130	0.888521	1.425268
C148	C	-0.415130	1.138521	1.675268
C149	C	-1.165140	0.388518	0.852492
C150	C	-0.915140	0.638518	1.102492
C151	C	-0.665140	0.888518	1.352492
C152	C	-0.415140	1.138518	1.602492
C153	C	-1.165146	0.388517	0.761178
C154	C	-0.915146	0.638517	1.011178
C155	C	-0.665146	0.888517	1.261178
C156	C	-0.415146	1.138517	1.511178
C157	C	-1.165131	0.388524	1.178980
C158	C	-0.915131	0.638524	1.428980
C159	C	-0.665131	0.888524	1.678980
C160	C	-0.415131	1.138524	1.928980
C161	C	-1.165123	0.388518	1.089359
C162	C	-0.915123	0.638518	1.339359
C163	C	-0.665123	0.888518	1.589359
C164	C	-0.415123	1.138518	1.839359
