data_functionalizedCrystal
_audit_creation_method	'MofGen! by Chris Wilmer'
_symmetry_space_group_name_H-M	'P1'
_symmetry_Int_Tables_number	1
_symmetry_cell_setting	triclinic
loop_
_symmetry_equiv_pos_as_xyz
  x,y,z
_cell_length_a	9.065215
_cell_length_b	15.944493
_cell_length_c	8.140239
_cell_angle_alpha	90.002357
_cell_angle_beta	89.997810
_cell_angle_gamma	84.244871
loop_
_atom_site_label
_atom_site_type_symbol
_atom_site_fract_x
_atom_site_fract_y
_atom_site_fract_z
O1	O	1.957477	0.123152	-0.136570
O2	O	1.527952	0.133257	-0.136575
O3	O	1.754488	0.006016	-0.136586
O4	O	1.730940	0.250394	-0.136559
O5	O	1.754476	0.006014	0.136641
O6	O	1.527939	0.133256	0.136652
O7	O	1.957464	0.123150	0.136657
Zn8	Zn	1.742700	0.128203	0.180035
Zn9	Zn	1.742716	0.128205	-0.179953
O10	O	1.730928	0.250392	0.136668
C11	C	1.472982	0.132286	0.000037
C12	C	1.309207	0.129384	0.000034
C13	C	1.753519	-0.025287	0.000020
C14	C	1.750634	-0.118558	-0.000001
C15	C	1.883979	-0.353308	0.000032
C16	C	1.812077	-0.404420	-0.134683
C17	C	1.745287	-0.289319	0.000020
C18	C	1.812032	-0.404398	0.134698
C19	C	1.740133	-0.454268	0.000046
C20	C	1.673423	-0.339202	-0.134807
C21	C	1.673399	-0.339177	0.134695
C22	C	1.601396	-0.390256	-0.000054
C23	C	1.748261	-0.194297	0.000003
C24	C	1.737149	-0.549288	0.000051
C25	C	2.012434	0.124122	0.000041
C26	C	2.176208	0.127024	0.000034
C27	C	1.731896	0.281695	0.000058
C28	C	1.734782	0.374965	0.000068
N29	N	1.742699	0.128201	0.425718
N30	N	1.742728	0.128200	-0.425636
H31	H	2.003443	-0.336775	-0.000102
H32	H	1.870653	-0.432922	-0.248575
H33	H	1.614873	-0.310660	0.248590
H34	H	1.614891	-0.310825	-0.248820
C35	C	1.439893	-0.412382	-0.000142
H36	H	1.422509	-0.444014	0.095598
H37	H	1.423066	-0.444814	-0.094973
H38	H	1.374466	-0.361962	-0.001082
H39	H	1.870627	-0.432886	0.248581
