data_functionalizedCrystal
_audit_creation_method	'MofGen! by Chris Wilmer'
_symmetry_space_group_name_H-M	'P1'
_symmetry_Int_Tables_number	1
_symmetry_cell_setting	triclinic
loop_
_symmetry_equiv_pos_as_xyz
  x,y,z
_cell_length_a	15.944551
_cell_length_b	14.853567
_cell_length_c	13.930277
_cell_angle_alpha	90.004245
_cell_angle_beta	89.994493
_cell_angle_gamma	96.433166
loop_
_atom_site_label
_atom_site_type_symbol
_atom_site_fract_x
_atom_site_fract_y
_atom_site_fract_z
O1	O	0.109664	-1.196228	-0.079767
O2	O	0.609664	-0.696228	0.420233
O3	O	0.122728	-0.933751	-0.079783
O4	O	0.622728	-0.433751	0.420217
O5	O	-0.006071	-1.072157	-0.079766
O6	O	0.493929	-0.572157	0.420234
O7	O	0.238463	-1.057822	-0.079784
O8	O	0.738463	-0.557822	0.420216
O9	O	-0.006073	-1.072138	0.079896
O10	O	0.493927	-0.572138	0.579896
O11	O	0.122725	-0.933732	0.079878
O12	O	0.622725	-0.433732	0.579878
O13	O	0.109662	-1.196208	0.079895
O14	O	0.609662	-0.696208	0.579895
Zn15	Zn	0.116193	-1.064967	0.105236
Zn16	Zn	0.616193	-0.564967	0.605236
Zn17	Zn	0.116197	-1.064993	-0.105125
Zn18	Zn	0.616197	-0.564993	0.394875
O19	O	0.238460	-1.057803	0.079878
O20	O	0.738460	-0.557803	0.579878
C21	C	0.122135	-0.900154	0.000045
C22	C	0.622135	-0.400154	0.500045
C23	C	0.120361	-0.800072	0.000039
C24	C	0.620361	-0.300072	0.500039
C25	C	-0.037367	-1.071552	0.000065
C26	C	0.462633	-0.571552	0.500065
C27	C	-0.130615	-1.069768	0.000065
C28	C	0.369385	-0.569768	0.500065
C29	C	0.110255	-1.229806	0.000064
C30	C	0.610255	-0.729806	0.500064
C31	C	0.112029	-1.329887	0.000064
C32	C	0.612029	-0.829887	0.500064
C33	C	-0.345572	-0.979713	0.000047
C34	C	0.154428	-0.479713	0.500047
C35	C	-0.406544	-1.021522	0.078772
C36	C	0.093456	-0.521522	0.578772
C37	C	-0.301344	-1.066541	0.000058
C38	C	0.198656	-0.566541	0.500058
C39	C	-0.406524	-1.021562	-0.078642
C40	C	0.093476	-0.521562	0.421358
C41	C	-0.466260	-1.063416	0.000046
C42	C	0.033740	-0.563416	0.500046
C43	C	-0.361088	-1.108373	0.078848
C44	C	0.138912	-0.608373	0.578848
C45	C	-0.361062	-1.108401	-0.078636
C46	C	0.138938	-0.608401	0.421364
C47	C	-0.422017	-1.150273	0.000109
C48	C	0.077983	-0.650273	0.500109
C49	C	-0.206340	-1.068338	0.000065
C50	C	0.293660	-0.568338	0.500065
C51	C	-0.561263	-1.061626	0.000046
C52	C	-0.061263	-0.561626	0.500046
C53	C	0.269756	-1.058407	0.000044
C54	C	0.769756	-0.558407	0.500044
C55	C	0.363004	-1.060191	0.000038
C56	C	0.863004	-0.560191	0.500038
N57	N	0.116190	-1.064957	0.248803
N58	N	0.616190	-0.564957	0.748803
C59	C	0.036354	-0.387646	0.000067
C60	C	0.536354	0.112354	0.500067
C61	C	0.189369	-0.366169	0.000055
C62	C	0.689369	0.133831	0.500055
C63	C	0.191037	-0.460201	0.000051
C64	C	0.691037	0.039799	0.500051
C65	C	0.115362	-0.517960	0.000055
C66	C	0.615362	-0.017960	0.500055
C67	C	0.038019	-0.481687	0.000061
C68	C	0.538019	0.018313	0.500061
C69	C	0.268379	-0.496480	0.000035
C70	C	0.768379	0.003520	0.500035
C71	C	0.270050	-0.590517	0.000031
C72	C	0.770050	-0.090517	0.500031
C73	C	0.194374	-0.648278	0.000041
C74	C	0.694374	-0.148278	0.500041
C75	C	0.117028	-0.612000	0.000049
C76	C	0.617028	-0.112000	0.500049
C77	C	0.041353	-0.669759	0.000052
C78	C	0.541353	-0.169759	0.500052
C79	C	-0.035994	-0.633483	0.000066
C80	C	0.464006	-0.133483	0.500066
C81	C	-0.037657	-0.539448	0.000071
C82	C	0.462343	-0.039448	0.500071
C83	C	0.196036	-0.742313	0.000036
C84	C	0.696036	-0.242313	0.500036
C85	C	0.043018	-0.763800	0.000046
C86	C	0.543018	-0.263800	0.500046
N87	N	0.116193	-1.065010	-0.248691
N88	N	0.616193	-0.565010	0.251309
C89	C	0.173206	-1.003704	0.701064
C90	C	0.673206	-0.503704	1.201064
C91	C	0.059181	-1.126306	0.701049
C92	C	0.559181	-0.626306	1.201049
C93	C	0.059178	-1.126295	0.600553
C94	C	0.559178	-0.626295	1.100553
C95	C	0.116191	-1.064989	0.550308
C96	C	0.616191	-0.564989	1.050308
C97	C	0.173207	-1.003693	0.600559
C98	C	0.673207	-0.503693	1.100559
C99	C	0.002169	-1.187596	0.550295
C100	C	0.502169	-0.687596	1.050295
C101	C	0.002164	-1.187588	0.449793
C102	C	0.502164	-0.687588	0.949793
C103	C	0.059174	-1.126277	0.399546
C104	C	0.559174	-0.626277	0.899546
C105	C	0.116192	-1.064978	0.449803
C106	C	0.616192	-0.564978	0.949803
C107	C	0.173205	-1.003672	0.399558
C108	C	0.673205	-0.503672	0.899558
C109	C	0.230220	-0.942368	0.449814
C110	C	0.730220	-0.442368	0.949814
C111	C	0.230217	-0.942382	0.550312
C112	C	0.730217	-0.442382	1.050312
C113	C	0.059177	-1.126263	0.299047
C114	C	0.559177	-0.626263	0.799047
C115	C	0.173206	-1.003661	0.299053
C116	C	0.673206	-0.503661	0.799053
H117	H	-0.312344	-0.907643	0.000121
H118	H	0.187656	-0.407643	0.500121
Br119	Br	0.371074	-0.418091	0.000011
Br120	Br	0.871074	0.081909	0.500011
Br121	Br	-0.440128	-0.960304	0.189698
Br122	Br	0.059872	-0.460304	0.689698
Br123	Br	-0.327710	-1.169524	0.189901
Br124	Br	0.172290	-0.669524	0.689901
Br125	Br	-0.075210	-1.270781	0.381595
Br126	Br	0.424790	-0.770781	0.881595
Br127	Br	0.375018	-0.639741	0.000012
Br128	Br	0.875018	-0.139741	0.500012
Br129	Br	0.250575	-0.920503	0.769260
Br130	Br	0.750575	-0.420503	1.269260
H131	H	-0.455095	-1.222407	0.000158
H132	H	0.044905	-0.722407	0.500158
H133	H	-0.340890	-1.145102	-0.145191
H134	H	0.159110	-0.645102	0.354809
Br135	Br	-0.440080	-0.960340	-0.189563
Br136	Br	0.059920	-0.460340	0.310437
Br137	Br	-0.059690	-0.842181	0.000061
Br138	Br	0.440310	-0.342181	0.500061
Br139	Br	-0.068612	-0.338419	0.000095
Br140	Br	0.431388	0.161581	0.500095
Br141	Br	-0.138692	-0.711881	0.000059
Br142	Br	0.361308	-0.211881	0.500059
H143	H	-0.100629	-0.509903	0.000105
H144	H	0.399371	-0.009903	0.500105
Br145	Br	-0.018186	-1.209462	0.230850
Br146	Br	0.481814	-0.709462	0.730850
Br147	Br	0.292066	-0.287782	0.000033
Br148	Br	0.792066	0.212218	0.500033
Br149	Br	0.250579	-0.920448	0.230871
Br150	Br	0.750579	-0.420448	0.730871
H151	H	0.259011	-0.771845	0.000026
H152	H	0.759011	-0.271845	0.500026
Br153	Br	0.307589	-0.859192	0.618517
Br154	Br	0.807589	-0.359192	1.118517
Br155	Br	0.307600	-0.859178	0.381613
Br156	Br	0.807600	-0.359178	0.881613
Br157	Br	-0.075197	-1.270803	0.618480
Br158	Br	0.424803	-0.770803	1.118480
H159	H	0.012766	-1.176224	0.741962
H160	H	0.512766	-0.676224	1.241962
