data_functionalizedCrystal
_audit_creation_method	'MofGen! by Chris Wilmer'
_symmetry_space_group_name_H-M	'P1'
_symmetry_Int_Tables_number	1
_symmetry_cell_setting	triclinic
loop_
_symmetry_equiv_pos_as_xyz
  x,y,z
_cell_length_a	10.723024
_cell_length_b	12.837942
_cell_length_c	9.798715
_cell_angle_alpha	89.997407
_cell_angle_beta	89.996609
_cell_angle_gamma	89.648405
loop_
_atom_site_label
_atom_site_type_symbol
_atom_site_fract_x
_atom_site_fract_y
_atom_site_fract_z
O1	O	1.672991	0.145513	-0.113481
O2	O	1.311352	0.159441	-0.113486
O3	O	1.484153	0.001517	-0.113475
O4	O	1.500190	0.303437	-0.113492
O5	O	1.484138	0.001517	0.113507
O6	O	1.311337	0.159441	0.113496
O7	O	1.672977	0.145512	0.113501
Zn8	Zn	1.492155	0.152477	0.149537
Zn9	Zn	1.492174	0.152477	-0.149522
O10	O	1.500176	0.303436	0.113490
C11	C	1.264735	0.158427	0.000004
C12	C	1.125851	0.155395	0.000003
C13	C	1.060466	0.243761	-0.000003
C14	C	0.916922	0.240629	-0.000004
C15	C	1.478728	-0.037142	0.000015
C16	C	1.462569	-0.152334	0.000012
C17	C	1.656825	-0.391911	-0.000014
C18	C	1.641648	-0.500145	-0.000016
C19	C	1.417040	-0.477037	-0.000005
C20	C	1.432217	-0.368804	-0.000002
C21	C	1.552113	-0.326245	-0.000005
C22	C	1.567289	-0.218009	0.000008
C23	C	1.342681	-0.194904	0.000009
C24	C	1.327505	-0.303137	0.000007
C25	C	1.719594	0.146526	0.000007
C26	C	1.858478	0.149559	-0.000000
C27	C	1.505601	0.342096	-0.000003
C28	C	1.521760	0.457288	-0.000010
N29	N	1.492151	0.152476	0.353636
N30	N	1.492187	0.152470	-0.353622
C31	C	1.564674	0.085875	0.421418
C32	C	1.564693	0.085872	0.578581
H33	H	1.664914	-0.183360	0.000011
C34	C	1.128386	0.349101	-0.000012
H35	H	1.068750	0.404135	-0.000008
H36	H	1.179155	0.354081	-0.079164
H37	H	1.179140	0.354084	0.079153
C38	C	0.934398	0.047353	-0.000001
H39	H	0.879109	-0.010188	-0.000009
H40	H	0.985459	0.044590	0.079149
H41	H	0.985457	0.044598	-0.079168
C42	C	1.648576	0.008839	0.657309
H43	H	1.694068	-0.032939	0.594385
H44	H	1.598336	-0.034533	0.713065
H45	H	1.705095	0.046469	0.713033
C46	C	1.788698	-0.345087	-0.000005
H47	H	1.782739	-0.271222	0.000008
H48	H	1.832366	-0.367567	-0.079154
H49	H	1.832342	-0.367575	0.079163
H50	H	1.075561	0.077423	-0.000028
H51	H	1.430099	0.209496	0.588098
H52	H	1.430071	0.209488	0.411957
H53	H	0.860706	0.316277	-0.000015
H54	H	1.726916	-0.553607	-0.000028
C55	C	1.285169	-0.523866	-0.000003
H56	H	1.291133	-0.597731	0.000000
H57	H	1.241509	-0.501376	-0.079150
H58	H	1.241514	-0.501391	0.079167
C59	C	1.195627	-0.349954	0.000003
H60	H	1.135439	-0.295341	-0.000000
H61	H	1.185033	-0.391705	0.079151
H62	H	1.185043	-0.391685	-0.079167
C63	C	1.227493	-0.122668	0.000007
H64	H	1.253700	-0.052112	-0.000001
H65	H	1.178856	-0.135663	0.079159
H66	H	1.178872	-0.135656	-0.079159
H67	H	1.626745	0.028855	0.363099
