data_functionalizedCrystal
_audit_creation_method	'MofGen! by Chris Wilmer'
_symmetry_space_group_name_H-M	'P1'
_symmetry_Int_Tables_number	1
_symmetry_cell_setting	triclinic
loop_
_symmetry_equiv_pos_as_xyz
  x,y,z
_cell_length_a	10.654550
_cell_length_b	10.654550
_cell_length_c	9.130313
_cell_angle_alpha	90.002760
_cell_angle_beta	90.001310
_cell_angle_gamma	95.515097
loop_
_atom_site_label
_atom_site_type_symbol
_atom_site_fract_x
_atom_site_fract_y
_atom_site_fract_z
O1	O	-0.176390	1.667839	0.121786
O2	O	-0.193196	1.302361	0.121791
O3	O	-0.002054	1.493503	0.121783
O4	O	-0.367532	1.476697	0.121794
O5	O	-0.002065	1.493490	-0.121816
O6	O	-0.193207	1.302348	-0.121808
O7	O	-0.176401	1.667826	-0.121813
Cu8	Cu	-0.184805	1.485086	-0.144053
Cu9	Cu	-0.184792	1.485101	0.144031
O10	O	-0.367544	1.476684	-0.121805
C11	C	0.044739	1.492263	-0.000015
C12	C	0.184182	1.488571	-0.000010
C13	C	-0.191968	1.255556	-0.000008
C14	C	-0.188276	1.116113	-0.000006
C15	C	-0.177630	1.714631	-0.000011
C16	C	-0.181321	1.854074	-0.000003
C17	C	-0.414336	1.477924	-0.000004
C18	C	-0.553779	1.481616	0.000000
C19	C	0.263668	1.601112	-0.000016
C20	C	0.394688	1.597636	-0.000005
C21	C	0.366725	1.369066	0.000011
C22	C	0.235707	1.372544	0.000011
C23	C	0.279813	1.733075	-0.000031
C24	C	0.410834	1.729599	-0.000021
N25	N	-0.184814	1.485084	-0.346676
C26	C	-0.068780	1.933560	-0.000001
C27	C	-0.072257	2.064581	-0.000008
C28	C	-0.300826	2.036617	-0.000013
C29	C	-0.297348	1.905599	-0.000017
C30	C	0.063183	1.949705	0.000009
C31	C	0.059706	2.080726	0.000002
C32	C	-0.261689	1.561913	-0.423340
C33	C	-0.261666	1.561932	-0.576677
C34	C	-0.107890	1.408281	-0.576671
C35	C	-0.107907	1.408270	-0.423337
C36	C	-0.350474	1.650619	-0.423345
C37	C	-0.350451	1.650637	-0.576682
N38	N	-0.184773	1.485113	0.346653
H39	H	0.170993	1.280902	0.000036
H40	H	0.105209	1.914079	0.105188
C41	C	-0.297146	1.778421	-0.640910
H42	H	-0.273430	1.835317	-0.563408
H43	H	-0.225441	1.766947	-0.699461
H44	H	-0.359700	1.811842	-0.699472
C45	C	-0.421143	1.818168	-0.000034
H46	H	-0.490738	1.867623	-0.000029
H47	H	-0.424533	1.766475	-0.084984
H48	H	-0.424543	1.766480	0.084923
C49	C	0.423407	1.241448	0.000021
H50	H	0.512821	1.255493	0.000013
H51	H	0.396190	1.195065	0.084969
H52	H	0.396191	1.195058	-0.084938
H53	H	0.099578	2.126368	-0.105180
C54	C	-0.484218	1.608801	-0.632942
H55	H	-0.539245	1.591574	-0.552027
H56	H	-0.513532	1.674126	-0.690748
H57	H	-0.482395	1.534855	-0.690743
C58	C	0.126859	2.137148	0.137722
H59	H	0.156825	2.071442	0.194373
H60	H	0.195902	2.195142	0.109419
H61	H	0.069259	2.179653	0.194355
H62	H	-0.445043	1.611088	-0.375807
H63	H	0.250460	1.784696	0.101907
C64	C	-0.308779	1.784419	-0.367095
H65	H	-0.291606	1.839452	-0.448014
H66	H	-0.374154	1.813657	-0.309301
H67	H	-0.234830	1.782690	-0.309283
C68	C	-0.023338	1.323766	-0.339011
H69	H	0.022456	1.278014	-0.406632
H70	H	0.033973	1.374730	-0.279176
H71	H	-0.074276	1.266398	-0.279215
C72	C	-0.023308	1.323784	-0.661003
H73	H	-0.034311	1.334787	-0.763304
H74	H	0.062405	1.346370	-0.635853
H75	H	-0.045857	1.238051	-0.635892
C76	C	0.231669	1.789843	-0.142110
H77	H	0.300893	1.812722	-0.205378
H78	H	0.174058	1.729309	-0.189316
H79	H	0.190368	1.862540	-0.119286
H80	H	0.456482	1.769485	0.105158
C81	C	0.467249	1.796740	-0.137741
H82	H	0.401539	1.826700	-0.194395
H83	H	0.525244	1.865785	-0.109438
H84	H	0.509752	1.739135	-0.194372
C85	C	-0.428445	2.093300	-0.000014
H86	H	-0.414400	2.182714	-0.000004
H87	H	-0.474837	2.066078	-0.084959
H88	H	-0.474824	2.066088	0.084948
H89	H	0.114793	1.920347	-0.101933
