data_functionalizedCrystal
_audit_creation_method	'MofGen! by Chris Wilmer'
_symmetry_space_group_name_H-M	'P1'
_symmetry_Int_Tables_number	1
_symmetry_cell_setting	triclinic
loop_
_symmetry_equiv_pos_as_xyz
  x,y,z
_cell_length_a	10.723024
_cell_length_b	10.723024
_cell_length_c	9.798715
_cell_angle_alpha	90.003142
_cell_angle_beta	90.001967
_cell_angle_gamma	84.467869
loop_
_atom_site_label
_atom_site_type_symbol
_atom_site_fract_x
_atom_site_fract_y
_atom_site_fract_z
O1	O	0.175024	1.657187	0.113478
O2	O	0.191778	1.294035	0.113483
O3	O	0.001825	1.483987	0.113475
O4	O	0.364977	1.467234	0.113486
O5	O	0.001824	1.483974	-0.113507
O6	O	0.191777	1.294021	-0.113499
O7	O	0.175024	1.657174	-0.113504
Zn8	Zn	0.183401	1.475595	-0.149540
Zn9	Zn	0.183401	1.475613	0.149519
O10	O	0.364977	1.467221	-0.113496
C11	C	0.190558	1.247528	-0.000008
C12	C	0.186911	1.108974	-0.000006
C13	C	0.073603	0.917217	-0.000007
C14	C	0.077371	1.060420	-0.000009
C15	C	-0.044675	1.482762	-0.000014
C16	C	-0.183229	1.479114	-0.000009
C17	C	-0.374986	1.365807	-0.000001
C18	C	-0.231783	1.369574	-0.000006
C19	C	0.411477	1.468447	-0.000004
C20	C	0.550031	1.472094	0.000000
C21	C	0.176243	1.703680	-0.000010
C22	C	0.179891	1.842234	-0.000003
N23	N	0.183399	1.475592	-0.353640
C24	C	0.111036	1.402843	-0.421450
C25	C	0.111031	1.402860	-0.578613
N26	N	0.183393	1.475625	0.353619
H27	H	-0.013619	1.124853	-0.000003
H28	H	-0.020182	0.875395	-0.000030
H29	H	0.273677	0.884056	-0.000009
H30	H	-0.416809	1.272021	0.000010
H31	H	0.245356	1.537881	-0.411937
H32	H	0.277906	1.044549	0.000003
H33	H	-0.167350	1.278584	-0.000015
H34	H	-0.247654	1.570109	-0.000015
C35	C	0.027343	1.318679	-0.342715
H36	H	-0.018051	1.273032	-0.405639
H37	H	-0.029701	1.369214	-0.286960
H38	H	0.078160	1.261843	-0.286989
C39	C	-0.393490	1.598799	-0.000003
H40	H	-0.459103	1.664994	0.000007
H41	H	-0.343270	1.604786	-0.079156
H42	H	-0.343269	1.604794	0.079161
H43	H	0.049075	1.340581	-0.636928
C44	C	0.267090	1.559778	-0.567629
H45	H	0.312480	1.605439	-0.630534
H46	H	0.324138	1.509233	-0.511889
H47	H	0.216275	1.616602	-0.511884
