data_functionalizedCrystal
_audit_creation_method	'MofGen! by Chris Wilmer'
_symmetry_space_group_name_H-M	'P1'
_symmetry_Int_Tables_number	1
_symmetry_cell_setting	triclinic
loop_
_symmetry_equiv_pos_as_xyz
  x,y,z
_cell_length_a	18.215407
_cell_length_b	19.077068
_cell_length_c	19.077237
_cell_angle_alpha	85.344389
_cell_angle_beta	92.312792
_cell_angle_gamma	92.327501
loop_
_atom_site_label
_atom_site_type_symbol
_atom_site_fract_x
_atom_site_fract_y
_atom_site_fract_z
Zn1	Zn	1.129762	-0.296659	0.409854
Zn2	Zn	1.120172	-0.409817	0.296698
Zn3	Zn	1.001956	-0.291949	0.291983
Zn4	Zn	1.001900	-0.414510	0.414542
O5	O	1.063448	-0.353234	0.353269
O6	O	1.231474	-0.311677	0.394855
O7	O	1.100500	-0.390246	0.197425
O8	O	1.022946	-0.193925	0.303684
O9	O	1.224429	-0.394814	0.311720
O10	O	1.116845	-0.197385	0.390283
O11	O	1.013647	-0.303649	0.193961
O12	O	0.898964	-0.308200	0.308229
O13	O	1.022852	-0.402813	0.512567
O14	O	0.898923	-0.398245	0.398273
O15	O	1.116791	-0.316228	0.509123
O16	O	1.100447	-0.509089	0.316266
O17	O	1.013553	-0.512537	0.402845
C18	C	0.872241	-0.353221	0.353249
C19	C	0.790442	-0.353233	0.353257
C20	C	0.602241	-0.400188	0.400089
C21	C	0.525382	-0.400191	0.400098
C22	C	0.525406	-0.306293	0.306466
C23	C	0.602264	-0.306287	0.306461
C24	C	0.640679	-0.353239	0.353271
C25	C	0.486963	-0.353247	0.353285
C26	C	0.403630	-0.353250	0.353295
C27	C	0.724018	-0.353236	0.353263
C28	C	1.055974	-0.536392	0.360591
C29	C	1.052845	-0.614749	0.363747
C30	C	1.096653	-0.649744	0.320189
C31	C	1.093715	-0.723369	0.323162
C32	C	1.046963	-0.761997	0.369688
C33	C	1.003153	-0.726997	0.413250
C34	C	1.006096	-0.653374	0.410281
C35	C	1.033310	-0.982382	0.383402
C36	C	1.030369	-1.056011	0.386366
C37	C	1.120932	-1.052377	0.296278
C38	C	1.123868	-0.978753	0.293310
C39	C	1.080060	-0.943759	0.336875
N40	N	1.043957	-0.837253	0.372726
N41	N	1.083071	-0.868504	0.333840
C42	C	1.255401	-0.353247	0.353291
C43	C	1.337200	-0.353253	0.353300
C44	C	1.070885	-0.360569	0.537139
C45	C	1.074054	-0.363695	0.615493
C46	C	1.070971	-0.169361	0.345935
C47	C	1.074177	-0.091006	0.342809
C48	C	1.056083	-0.345876	0.170113
C49	C	1.053065	-0.342552	0.091752
C50	C	1.096789	-0.386167	1.056738
C51	C	1.093800	-0.383225	0.983116
C52	C	1.047091	-0.336665	0.944509
C53	C	1.003362	-0.293048	0.979528
C54	C	1.006347	-0.295993	1.053149
C55	C	1.033310	-0.323024	0.724133
C56	C	1.030330	-0.320080	0.650507
C57	C	1.120768	-0.410259	0.654100
C58	C	1.123753	-0.413197	0.727722
C59	C	1.080021	-0.369583	0.762735
N60	N	1.044037	-0.333655	0.869255
N61	N	1.083071	-0.372597	0.837987
H62	H	1.134720	-0.618297	0.282300
O63	O	1.136454	-0.757347	0.281001
C64	C	1.183870	-0.801420	0.322972
H65	H	1.191350	-0.781420	0.377612
H66	H	1.239528	-0.801109	0.297659
H67	H	1.159078	-0.857369	0.327584
H68	H	1.156371	-0.445768	0.625584
H69	H	0.633561	-0.268051	0.268336
H70	H	0.494119	-0.268068	0.268353
H71	H	0.970743	-0.260477	1.081656
O72	O	1.136169	-0.425666	0.949078
C73	C	1.090684	-0.469483	0.908291
H74	H	1.033442	-0.474721	0.930648
H75	H	1.115049	-0.523703	0.909621
H76	H	1.086780	-0.445460	0.851627
O77	O	0.990936	-0.280634	0.758221
C78	C	1.036417	-0.236800	0.798992
H79	H	1.091622	-0.262101	0.811009
H80	H	1.008922	-0.229435	0.850387
H81	H	1.045485	-0.183418	0.768551
O82	O	1.169354	-0.941340	0.248102
C83	C	1.207380	-0.988015	0.210283
H84	H	1.208971	-1.041635	0.241273
H85	H	1.265921	-0.966403	0.201962
H86	H	1.178000	-0.993749	0.157035
H87	H	1.156599	-1.080877	0.260812
H88	H	0.494090	-0.438421	0.438222
H89	H	0.992307	-1.087460	0.424266
H90	H	0.997638	-0.953896	0.418872
O91	O	0.957754	-0.764624	0.458384
C92	C	0.964561	-0.837111	0.451677
H93	H	0.986108	-0.845002	0.397702
H94	H	0.908503	-0.865321	0.457539
H95	H	1.004575	-0.859627	0.494366
O96	O	0.963469	-0.619487	0.452621
C97	C	0.921588	-0.669367	0.494338
H98	H	0.915791	-0.720710	0.467576
H99	H	0.864752	-0.648433	0.500958
H100	H	0.950354	-0.679294	0.548211
O101	O	1.142064	-0.431432	1.094317
C102	C	1.100026	-0.478674	1.138701
H103	H	1.045721	-0.454246	1.148742
H104	H	1.131715	-0.490195	1.190848
H105	H	1.088649	-0.529779	1.112407
O106	O	1.169140	-0.458492	0.765116
C107	C	1.207105	-0.496346	0.718424
H108	H	1.174735	-0.496684	0.666040
H109	H	1.213541	-0.552740	0.741906
H110	H	1.263739	-0.470225	0.709569
O111	O	0.957944	-0.247915	0.941952
C112	C	0.907031	-0.286342	0.900974
H113	H	0.930350	-0.339327	0.892071
H114	H	0.896248	-0.255555	0.848060
H115	H	0.853325	-0.295215	0.929651
H116	H	0.992295	-0.282160	0.619074
H117	H	0.633516	-0.438418	0.438207
