data_functionalizedCrystal
_audit_creation_method	'MofGen! by Chris Wilmer'
_symmetry_space_group_name_H-M	'P1'
_symmetry_Int_Tables_number	1
_symmetry_cell_setting	triclinic
loop_
_symmetry_equiv_pos_as_xyz
  x,y,z
_cell_length_a	18.215407
_cell_length_b	18.215405
_cell_length_c	18.215399
_cell_angle_alpha	89.967040
_cell_angle_beta	89.983176
_cell_angle_gamma	90.025333
loop_
_atom_site_label
_atom_site_type_symbol
_atom_site_fract_x
_atom_site_fract_y
_atom_site_fract_z
Zn1	Zn	1.125050	-0.292966	-0.416103
Zn2	Zn	1.124965	-0.416042	-0.293031
Zn3	Zn	1.001989	-0.292995	-0.293050
Zn4	Zn	1.001949	-0.415996	-0.416056
O5	O	1.063488	-0.354500	-0.354560
O6	O	1.228023	-0.309299	-0.399788
O7	O	1.108633	-0.399751	-0.190049
O8	O	1.018366	-0.190007	-0.309401
O9	O	1.227961	-0.399723	-0.309368
O10	O	1.108778	-0.189985	-0.399807
O11	O	1.018283	-0.309349	-0.190063
O12	O	0.898999	-0.309304	-0.309355
O13	O	1.018297	-0.399644	-0.519046
O14	O	0.898970	-0.399672	-0.399727
O15	O	1.108739	-0.309254	-0.519081
O16	O	1.108594	-0.519020	-0.309322
O17	O	1.018214	-0.518986	-0.399708
C18	C	0.872282	-0.354487	-0.354539
C19	C	0.790483	-0.354499	-0.354547
C20	C	0.602293	-0.401628	-0.401545
C21	C	0.525434	-0.401630	-0.401554
C22	C	0.525436	-0.307384	-0.307591
C23	C	0.602293	-0.307379	-0.307586
C24	C	0.640720	-0.354505	-0.354562
C25	C	0.487003	-0.354513	-0.354576
C26	C	0.403670	-0.354515	-0.354585
C27	C	0.724059	-0.354502	-0.354553
C28	C	1.063410	-0.545706	-0.354524
C29	C	1.063445	-0.627505	-0.354534
C30	C	1.110616	-0.815692	-0.307556
C31	C	1.110649	-0.892551	-0.307574
C32	C	1.016455	-0.892555	-0.401616
C33	C	1.016426	-0.815698	-0.401601
C34	C	1.063506	-0.777268	-0.354567
C35	C	1.063567	-0.930984	-0.354600
C36	C	1.063602	-1.014318	-0.354619
C37	C	1.063471	-0.693929	-0.354548
C38	C	1.255441	-0.354513	-0.354581
C39	C	1.337240	-0.354518	-0.354591
C40	C	1.063523	-0.354441	-0.546513
C41	C	1.063538	-0.354416	-0.628312
C42	C	1.063586	-0.162547	-0.354611
C43	C	1.063628	-0.080748	-0.354633
C44	C	1.016532	-0.307311	-0.816514
C45	C	1.016545	-0.307297	-0.893373
C46	C	1.110631	-0.401432	-0.893347
C47	C	1.110614	-0.401450	-0.816490
C48	C	1.063566	-0.354386	-0.778075
C49	C	1.063596	-0.354353	-0.931791
C50	C	1.063610	-0.354337	-1.015125
C51	C	1.063550	-0.354402	-0.694736
C52	C	1.063496	-0.354505	-0.163353
C53	C	1.063624	-0.354323	-0.081555
H54	H	0.494150	-0.440002	-0.439813
H55	H	0.633578	-0.439999	-0.439797
H56	H	0.494139	-0.269017	-0.269344
Cl57	Cl	0.650605	-0.248129	-0.248522
H58	H	0.978123	-0.923854	-0.439908
H59	H	1.148916	-0.439786	-0.785192
Cl60	Cl	1.169803	-0.767383	-0.248430
H61	H	0.978223	-0.268989	-0.785239
H62	H	1.149012	-0.923832	-0.269294
H63	H	0.978063	-0.784411	-0.439887
H64	H	1.148937	-0.439750	-0.924634
Cl65	Cl	0.957405	-0.248125	-0.941693
