data_functionalizedCrystal
_audit_creation_method	'MofGen! by Chris Wilmer'
_symmetry_space_group_name_H-M	'P1'
_symmetry_Int_Tables_number	1
_symmetry_cell_setting	triclinic
loop_
_symmetry_equiv_pos_as_xyz
  x,y,z
_cell_length_a	21.395364
_cell_length_b	16.625545
_cell_length_c	21.395356
_cell_angle_alpha	89.974643
_cell_angle_beta	89.976411
_cell_angle_gamma	90.040509
loop_
_atom_site_label
_atom_site_type_symbol
_atom_site_fract_x
_atom_site_fract_y
_atom_site_fract_z
Zn1	Zn	0.957876	-0.320700	-0.354272
Zn2	Zn	1.291209	0.012633	-0.020938
Zn3	Zn	1.624542	0.345966	0.312395
Zn4	Zn	0.957789	-0.455537	-0.249498
Zn5	Zn	1.291123	-0.122204	0.083835
Zn6	Zn	1.624456	0.211130	0.417168
Zn7	Zn	0.853092	-0.320757	-0.249508
Zn8	Zn	1.186426	0.012576	0.083825
Zn9	Zn	1.519759	0.345909	0.417158
Zn10	Zn	0.853069	-0.455530	-0.354239
Zn11	Zn	1.186403	-0.122197	-0.020905
Zn12	Zn	1.519736	0.211137	0.312428
O13	O	0.905457	-0.388131	-0.301879
O14	O	1.238790	-0.054798	0.031454
O15	O	1.572123	0.278535	0.364787
O16	O	1.045542	-0.338566	-0.340383
O17	O	1.378875	-0.005233	-0.007050
O18	O	1.712209	0.328101	0.326284
O19	O	0.943875	-0.437685	-0.161822
O20	O	1.277208	-0.104352	0.171512
O21	O	1.610541	0.228982	0.504845
O22	O	0.867038	-0.207917	-0.263423
O23	O	1.200371	0.125416	0.069910
O24	O	1.533705	0.458749	0.403243
O25	O	1.045479	-0.437630	-0.263406
O26	O	1.378812	-0.104297	0.069927
O27	O	1.712145	0.229037	0.403260
O28	O	0.944022	-0.207876	-0.340393
O29	O	1.277355	0.125458	-0.007059
O30	O	1.610688	0.458791	0.326274
O31	O	0.866954	-0.338663	-0.161829
O32	O	1.200288	-0.005330	0.171504
O33	O	1.533621	0.328004	0.504838
O34	O	0.765411	-0.338656	-0.263391
O35	O	1.098745	-0.005323	0.069942
O36	O	1.432078	0.328011	0.403275
O37	O	0.866999	-0.437618	-0.441921
O38	O	1.200332	-0.104284	-0.108588
O39	O	1.533665	0.229049	0.224746
O40	O	0.765394	-0.437673	-0.340336
O41	O	1.098728	-0.104340	-0.007003
O42	O	1.432061	0.228994	0.326330
O43	O	0.943999	-0.338559	-0.441945
O44	O	1.277333	-0.005226	-0.108612
O45	O	1.610666	0.328108	0.224722
O46	O	0.943852	-0.568369	-0.263374
O47	O	1.277186	-0.235035	0.069959
O48	O	1.610519	0.098298	0.403292
O49	O	0.866915	-0.568363	-0.340327
O50	O	1.200248	-0.235030	-0.006993
O51	O	1.533581	0.098303	0.326340
C52	C	0.742669	-0.388170	-0.301862
C53	C	1.076002	-0.054837	0.031472
C54	C	1.409336	0.278496	0.364805
C55	C	0.673028	-0.388207	-0.301869
C56	C	1.006361	-0.054873	0.031464
C57	C	1.339694	0.278460	0.364798
C58	C	0.640370	-0.336708	-0.342013
C59	C	0.973703	-0.003375	-0.008679
C60	C	1.307037	0.329958	0.324654
C61	C	0.574935	-0.336687	-0.342015
C62	C	0.908268	-0.003354	-0.008682
C63	C	1.241601	0.329980	0.324652
C64	C	0.542160	-0.388178	-0.301880
C65	C	0.875493	-0.054845	0.031453
C66	C	1.208826	0.278489	0.364786
C67	C	0.574825	-0.439680	-0.261729
C68	C	0.908158	-0.106347	0.071604
C69	C	1.241492	0.226987	0.404938
C70	C	0.640259	-0.439694	-0.261723
C71	C	0.973593	-0.106361	0.071610
C72	C	1.306926	0.226973	0.404943
C73	C	0.438440	-0.460792	-0.296845
C74	C	0.771774	-0.127459	0.036488
C75	C	1.105107	0.205875	0.369822
C76	C	0.373007	-0.460779	-0.296855
C77	C	0.706341	-0.127446	0.036478
C78	C	1.039674	0.205888	0.369811
C79	C	0.340339	-0.388134	-0.301894
C80	C	0.673672	-0.054800	0.031439
C81	C	1.007005	0.278533	0.364772
C82	C	0.373111	-0.315499	-0.306936
C83	C	0.706445	0.017834	0.026397
C84	C	1.039778	0.351168	0.359730
C85	C	0.438545	-0.315513	-0.306931
C86	C	0.771879	0.017820	0.026403
C87	C	1.105212	0.351153	0.359736
C88	C	0.471207	-0.388168	-0.301882
C89	C	0.804540	-0.054835	0.031452
C90	C	1.137874	0.278499	0.364785
C91	C	0.236729	-0.336608	-0.342043
C92	C	0.570062	-0.003275	-0.008709
C93	C	0.903395	0.330059	0.324624
C94	C	0.171292	-0.336585	-0.342041
C95	C	0.504625	-0.003252	-0.008707
C96	C	0.837959	0.330082	0.324626
C97	C	0.171184	-0.439585	-0.261758
C98	C	0.504517	-0.106252	0.071575
C99	C	0.837850	0.227081	0.404909
C100	C	0.236619	-0.439601	-0.261757
C101	C	0.569952	-0.106268	0.071577
C102	C	0.903286	0.227066	0.404910
C103	C	0.269387	-0.388113	-0.301902
C104	C	0.602721	-0.054780	0.031431
C105	C	0.936054	0.278553	0.364764
C106	C	0.905389	-0.597622	-0.301860
C107	C	1.238722	-0.264289	0.031474
C108	C	1.572055	0.069045	0.364807
C109	C	0.905417	-0.687243	-0.301872
C110	C	1.238750	-0.353910	0.031461
C111	C	1.572083	-0.020576	0.364795
C112	C	0.905441	-0.760026	-0.301884
C113	C	1.238774	-0.426692	0.031449
C114	C	1.572108	-0.093359	0.364782
C115	C	0.905478	-0.851334	-0.301898
C116	C	1.238811	-0.518001	0.031435
C117	C	1.572144	-0.184667	0.364768
C118	C	0.905510	-0.924110	-0.301906
C119	C	1.238843	-0.590777	0.031427
C120	C	1.572177	-0.257444	0.364760
C121	C	0.905546	-1.015425	-0.301919
C122	C	1.238879	-0.682091	0.031414
C123	C	1.572213	-0.348758	0.364748
C124	C	1.068880	-0.388092	-0.301897
C125	C	1.402213	-0.054759	0.031436
C126	C	1.735547	0.278574	0.364769
C127	C	1.138521	-0.388076	-0.301905
C128	C	1.471855	-0.054743	0.031428
C129	C	1.805188	0.278591	0.364762
C130	C	0.905506	-0.388081	-0.465303
C131	C	1.238839	-0.054748	-0.131969
C132	C	1.572173	0.278585	0.201364
C133	C	0.905527	-0.388060	-0.534944
C134	C	1.238860	-0.054727	-0.201611
C135	C	1.572194	0.278607	0.131723
C136	C	0.905542	-0.177822	-0.301913
C137	C	1.238875	0.155511	0.031421
C138	C	1.572209	0.488844	0.364754
C139	C	0.905579	-0.088201	-0.301927
C140	C	1.238912	0.245132	0.031406
C141	C	1.572245	0.578466	0.364740
C142	C	0.865485	-0.336493	-0.567651
C143	C	1.198819	-0.003160	-0.234318
C144	C	1.532152	0.330173	0.099016
C145	C	0.865483	-0.336478	-0.633086
C146	C	1.198816	-0.003145	-0.299753
C147	C	1.532150	0.330188	0.033580
C148	C	0.905534	-0.388022	-0.665812
C149	C	1.238867	-0.054688	-0.332479
C150	C	1.572201	0.278645	0.000854
C151	C	0.945578	-0.439598	-0.633097
C152	C	1.278912	-0.106265	-0.299764
C153	C	1.612245	0.227068	0.033569
C154	C	0.945575	-0.439617	-0.567663
C155	C	1.278908	-0.106284	-0.234330
C156	C	1.612242	0.227049	0.099004
C157	C	0.961986	-0.394342	-0.769499
C158	C	1.295320	-0.061008	-0.436165
C159	C	1.628653	0.272325	-0.102832
C160	C	0.961991	-0.394317	-0.834932
C161	C	1.295324	-0.060984	-0.501598
C162	C	1.628658	0.272350	-0.168265
C163	C	0.905544	-0.387967	-0.867633
C164	C	1.238878	-0.054634	-0.534300
C165	C	1.572211	0.278700	-0.200966
C166	C	0.849091	-0.381625	-0.834893
C167	C	1.182425	-0.048292	-0.501560
C168	C	1.515758	0.285042	-0.168227
C169	C	0.849088	-0.381644	-0.769459
C170	C	1.182421	-0.048311	-0.436126
C171	C	1.515755	0.285022	-0.102793
C172	C	0.905542	-0.388007	-0.736765
C173	C	1.238875	-0.054674	-0.403431
C174	C	1.572209	0.278660	-0.070098
C175	C	0.865497	-0.336382	-0.971293
C176	C	1.198830	-0.003048	-0.637959
C177	C	1.532163	0.330285	-0.304626
C178	C	0.865494	-0.336372	-1.036729
C179	C	1.198827	-0.003039	-0.703396
C180	C	1.532160	0.330294	-0.370063
C181	C	0.945595	-0.439488	-1.036739
C182	C	1.278928	-0.106155	-0.703406
C183	C	1.612261	0.227179	-0.370072
C184	C	0.945592	-0.439501	-0.971304
C185	C	1.278925	-0.106168	-0.637970
C186	C	1.612259	0.227165	-0.304637
C187	C	0.905544	-0.387944	-0.938584
C188	C	1.238877	-0.054611	-0.605251
C189	C	1.572211	0.278723	-0.271918
C190	C	0.905444	-0.388123	-0.139092
C191	C	1.238777	-0.054789	0.194242
C192	C	1.572110	0.278544	0.527575
C193	C	0.905544	-0.387917	-0.069451
C194	C	1.238877	-0.054584	0.263883
C195	C	1.572211	0.278750	0.597216
H196	H	0.666849	-0.481632	-0.229033
H197	H	1.000182	-0.148298	0.104301
H198	H	1.333516	0.185035	0.437634
H199	H	0.978206	-0.481454	-1.063384
H200	H	1.311539	-0.148120	-0.730050
H201	H	1.644873	0.185213	-0.396717
H202	H	0.346514	-0.256344	-0.311040
H203	H	0.679847	0.076989	0.022293
H204	H	1.013181	0.410322	0.355627
H205	H	0.803127	-0.376449	-0.861517
H206	H	1.136461	-0.043116	-0.528184
H207	H	1.469794	0.290218	-0.194851
O208	O	0.988773	-0.495200	-0.668389
O209	O	1.322106	-0.161866	-0.335055
O210	O	1.655439	0.171467	-0.001722
H211	H	1.037953	-0.481374	-0.655845
H212	H	1.371286	-0.148041	-0.322511
H213	H	1.704619	0.185292	0.010822
H214	H	0.832873	-0.294514	-0.541015
H215	H	1.166206	0.038819	-0.207682
H216	H	1.499539	0.372153	0.125652
H217	H	0.144703	-0.294644	-0.374729
H218	H	0.478036	0.038689	-0.041396
H219	H	0.811370	0.372022	0.291937
H220	H	0.978200	-0.481491	-0.944673
H221	H	1.311533	-0.148157	-0.611340
H222	H	1.644867	0.185176	-0.278007
O223	O	0.135839	-0.495116	-0.218465
O224	O	0.469172	-0.161782	0.114869
O225	O	0.802506	0.171551	0.448202
H226	H	0.169545	-0.530926	-0.190546
H227	H	0.502878	-0.197593	0.142788
H228	H	0.836211	0.135741	0.476121
O229	O	0.822305	-0.280745	-1.072007
O230	O	1.155638	0.052588	-0.738674
O231	O	1.488972	0.385922	-0.405340
H232	H	0.790406	-0.316826	-1.101796
H233	H	1.123739	0.016507	-0.768463
H234	H	1.457073	0.349841	-0.435129
H235	H	0.667046	-0.294783	-0.374702
H236	H	1.000380	0.038551	-0.041369
H237	H	1.333713	0.371884	0.291965
O238	O	0.272074	-0.281067	-0.385335
O239	O	0.605407	0.052266	-0.052001
O240	O	0.938741	0.385599	0.281332
H241	H	0.323062	-0.289736	-0.378593
H242	H	0.656395	0.043597	-0.045259
H243	H	0.989729	0.376930	0.288074
H244	H	0.465034	-0.519953	-0.292741
H245	H	0.798367	-0.186619	0.040592
H246	H	1.131700	0.146714	0.373926
H247	H	0.832877	-0.294483	-0.659722
H248	H	1.166211	0.038851	-0.326388
H249	H	1.499544	0.372184	0.006945
H250	H	0.263209	-0.481540	-0.229070
H251	H	0.596543	-0.148206	0.104263
H252	H	0.929876	0.185127	0.437597
O253	O	0.788206	-0.374799	-0.734144
O254	O	1.121540	-0.041465	-0.400811
O255	O	1.454873	0.291868	-0.067477
H256	H	0.748953	-0.370379	-0.767871
H257	H	1.082286	-0.037046	-0.434538
H258	H	1.415620	0.296287	-0.101204
H259	H	0.832887	-0.294401	-0.944651
H260	H	1.166220	0.038932	-0.611318
H261	H	1.499554	0.372266	-0.277985
O262	O	0.337661	-0.539114	-0.291405
O263	O	0.670994	-0.205780	0.041928
O264	O	1.004327	0.127553	0.375261
H265	H	0.371368	-0.589629	-0.287883
H266	H	0.704702	-0.256295	0.045450
H267	H	1.038035	0.077038	0.378784
H268	H	0.548135	-0.481604	-0.229051
H269	H	0.881469	-0.148270	0.104283
H270	H	1.214802	0.185063	0.437616
H271	H	1.007958	-0.399477	-0.861583
H272	H	1.341292	-0.066144	-0.528250
H273	H	1.674625	0.267190	-0.194917
O274	O	0.539696	-0.281144	-0.385314
O275	O	0.873030	0.052190	-0.051981
O276	O	1.206363	0.385523	0.281352
H277	H	0.552264	-0.295069	-0.434468
H278	H	0.885597	0.038264	-0.101135
H279	H	1.218931	0.371598	0.232198
H280	H	1.007956	-0.399506	-0.742879
H281	H	1.341289	-0.066172	-0.409545
H282	H	1.674622	0.267161	-0.076212
O283	O	0.988774	-0.495225	-0.532380
O284	O	1.322107	-0.161891	-0.199046
O285	O	1.655441	0.171442	0.134287
H286	H	1.016629	-0.531060	-0.566126
H287	H	1.349962	-0.197727	-0.232793
H288	H	1.683296	0.135606	0.100540
H289	H	0.465226	-0.256372	-0.311034
H290	H	0.798559	0.076962	0.022299
H291	H	1.131893	0.410295	0.355632
