data_functionalizedCrystal
_audit_creation_method	'MofGen! by Chris Wilmer'
_symmetry_space_group_name_H-M	'P1'
_symmetry_Int_Tables_number	1
_symmetry_cell_setting	triclinic
loop_
_symmetry_equiv_pos_as_xyz
  x,y,z
_cell_length_a	11.792254
_cell_length_b	10.489741
_cell_length_c	10.868271
_cell_angle_alpha	89.995151
_cell_angle_beta	89.995741
_cell_angle_gamma	84.368886
loop_
_atom_site_label
_atom_site_type_symbol
_atom_site_fract_x
_atom_site_fract_y
_atom_site_fract_z
O1	O	1.507372	0.174909	-0.102321
O2	O	1.177081	0.192911	-0.102323
O3	O	1.349742	-0.001713	-0.102314
O4	O	1.334711	0.369533	-0.102329
O5	O	1.349728	-0.001721	0.102330
O6	O	1.177067	0.192903	0.102322
O7	O	1.507357	0.174902	0.102324
Zn8	Zn	1.342210	0.183901	0.134815
Zn9	Zn	1.342229	0.183911	-0.134814
O10	O	1.334696	0.369526	0.102315
C11	C	1.134780	0.191773	-0.000001
C12	C	1.008758	0.188379	-0.000002
C13	C	0.906414	0.185621	-0.000007
C14	C	0.778018	0.182173	-0.000008
C15	C	1.348600	-0.049245	0.000007
C16	C	1.345203	-0.190863	0.000005
C17	C	1.235344	-0.258634	-0.000005
C18	C	1.287233	-0.350935	0.100896
C19	C	1.287273	-0.350902	-0.100868
C20	C	1.397138	-0.281298	0.100989
C21	C	1.397162	-0.281256	-0.100865
C22	C	1.449132	-0.373529	0.000060
C23	C	1.549658	0.176040	-0.000001
C24	C	1.675680	0.179434	-0.000008
C25	C	1.335839	0.417057	-0.000009
C26	C	1.339235	0.558675	-0.000015
N27	N	1.342205	0.183894	0.318829
N28	N	1.342242	0.183909	-0.318828
C29	C	1.342223	0.183909	0.569835
C30	C	1.342209	0.183904	0.430157
H31	H	1.240743	-0.381793	0.186200
C32	C	1.224471	-0.392538	-0.216112
C33	C	1.210649	-0.535257	-0.237810
C34	C	1.147840	-0.576887	-0.353048
C35	C	1.098851	-0.475798	-0.446589
C36	C	1.112671	-0.333070	-0.424894
C37	C	1.175481	-0.291440	-0.309656
H38	H	1.246915	-0.610098	-0.168563
H39	H	1.137609	-0.682544	-0.369107
H40	H	1.052356	-0.506614	-0.531895
H41	H	1.076406	-0.258229	-0.494141
H42	H	1.185712	-0.185782	-0.293596
C43	C	1.113326	-0.191138	0.000124
C44	C	1.031820	-0.213333	0.107019
C45	C	0.909806	-0.145834	0.107155
C46	C	0.869298	-0.056141	0.000395
C47	C	0.950805	-0.033942	-0.106509
C48	C	1.072819	-0.101440	-0.106644
H49	H	1.061806	-0.279733	0.186056
H50	H	0.849470	-0.162268	0.186292
H51	H	0.778976	-0.006175	0.000495
H52	H	0.920819	0.032459	-0.185546
H53	H	1.133155	-0.085006	-0.185782
H54	H	1.443575	-0.250625	0.186389
H55	H	1.539538	-0.423256	0.000117
H56	H	1.443613	-0.250364	-0.186173
