data_functionalizedCrystal
_audit_creation_method	'MofGen! by Chris Wilmer'
_symmetry_space_group_name_H-M	'P1'
_symmetry_Int_Tables_number	1
_symmetry_cell_setting	triclinic
loop_
_symmetry_equiv_pos_as_xyz
  x,y,z
_cell_length_a	9.065215
_cell_length_b	19.188924
_cell_length_c	8.140239
_cell_angle_alpha	89.994423
_cell_angle_beta	89.997810
_cell_angle_gamma	84.078331
loop_
_atom_site_label
_atom_site_type_symbol
_atom_site_fract_x
_atom_site_fract_y
_atom_site_fract_z
O1	O	1.956844	0.102360	-0.136603
O2	O	2.456844	0.602360	0.363397
O3	O	1.527267	0.110759	-0.136611
O4	O	2.027267	0.610759	0.363389
O5	O	1.754457	0.005000	-0.136588
O6	O	2.254457	0.505000	0.363412
O7	O	1.729653	0.208119	-0.136627
O8	O	2.229653	0.708119	0.363373
O9	O	1.754445	0.004999	0.136639
O10	O	2.254445	0.504999	0.636639
O11	O	1.527254	0.110758	0.136616
O12	O	2.027254	0.610758	0.636616
O13	O	1.956831	0.102359	0.136624
O14	O	2.456831	0.602359	0.636624
Zn15	Zn	1.742041	0.106558	0.180000
Zn16	Zn	2.242041	0.606558	0.680000
Zn17	Zn	1.742057	0.106560	-0.179988
Zn18	Zn	2.242057	0.606560	0.320012
O19	O	1.729641	0.208118	0.136600
O20	O	2.229641	0.708118	0.636600
C21	C	1.472302	0.109952	0.000001
C22	C	1.972302	0.609952	0.500001
C23	C	1.308542	0.107540	-0.000001
C24	C	1.808542	0.607540	0.499999
C25	C	1.753649	-0.021018	0.000027
C26	C	2.253649	0.478982	0.500027
C27	C	1.751243	-0.098542	0.000032
C28	C	2.251243	0.401458	0.500032
C29	C	1.750127	-0.134948	-0.148905
C30	C	2.250127	0.365052	0.351095
C31	C	1.747845	-0.207789	-0.148917
C32	C	2.247845	0.292211	0.351083
C33	C	1.746710	-0.244221	0.000015
C34	C	2.246710	0.255779	0.500015
C35	C	1.747818	-0.207805	0.148971
C36	C	2.247818	0.292195	0.648971
C37	C	1.750084	-0.134965	0.148979
C38	C	2.250084	0.365035	0.648979
N39	N	1.827096	-0.363261	0.110863
N40	N	2.327096	0.136739	0.610863
N41	N	1.824945	-0.432456	0.110845
N42	N	2.324945	0.067544	0.610845
C43	C	1.739876	-0.463683	-0.000001
C44	C	2.239876	0.036317	0.499999
N45	N	1.657057	-0.423103	-0.110854
N46	N	2.157057	0.076897	0.389146
N47	N	1.659214	-0.353902	-0.110840
N48	N	2.159214	0.146098	0.389160
C49	C	1.744251	-0.323204	0.000023
C50	C	2.244251	0.176796	0.500023
C51	C	1.736284	-0.579072	-0.148961
C52	C	2.236284	-0.079072	0.351039
C53	C	1.733993	-0.651913	-0.148968
C54	C	2.233993	-0.151913	0.351032
C55	C	1.733980	-0.651929	0.148925
C56	C	2.233980	-0.151929	0.648925
C57	C	1.736256	-0.579088	0.148927
C58	C	2.236256	-0.079088	0.648927
C59	C	1.737415	-0.542665	-0.000020
C60	C	2.237415	-0.042665	0.499980
C61	C	2.011796	0.103166	0.000007
C62	C	2.511796	0.603166	0.500007
C63	C	2.175556	0.105578	-0.000001
C64	C	2.675556	0.605578	0.499999
C65	C	1.730449	0.234136	-0.000018
C66	C	2.230449	0.734136	0.499982
C67	C	1.732855	0.311659	-0.000034
C68	C	2.232855	0.811659	0.499966
N69	N	1.742040	0.106557	0.425683
N70	N	2.242040	0.606557	0.925683
N71	N	1.742069	0.106556	-0.425671
N72	N	2.242069	0.606556	0.074329
H73	H	1.746927	-0.237437	-0.270203
H74	H	2.246927	0.262563	0.229797
N75	N	1.751264	-0.097775	0.301122
N76	N	2.251264	0.402225	0.801122
N77	N	1.856501	-0.062917	0.334360
N78	N	2.356501	0.437083	0.834360
H79	H	1.857340	-0.036650	0.441813
H80	H	2.357340	0.463350	0.941813
H81	H	1.737177	-0.549446	0.270208
H82	H	2.237177	-0.049446	0.770208
H83	H	1.737219	-0.549414	-0.270243
H84	H	2.237219	-0.049414	0.229757
H85	H	1.733077	-0.681554	-0.270255
H86	H	2.233077	-0.181554	0.229745
N87	N	1.746672	-0.245006	0.301117
N88	N	2.246672	0.254994	0.801117
N89	N	1.747673	-0.212488	0.434092
N90	N	2.247673	0.287512	0.934092
H91	H	1.746857	-0.238759	0.541552
H92	H	2.246857	0.261241	1.041552
N93	N	1.751307	-0.097754	-0.301061
N94	N	2.251307	0.402246	0.198939
N95	N	1.750306	-0.130275	-0.434032
N96	N	2.250306	0.369725	0.065968
H97	H	1.751136	-0.104006	-0.541495
H98	H	2.251136	0.395994	-0.041495
N99	N	1.732798	-0.689144	0.301044
N100	N	2.232798	-0.189144	0.801044
N101	N	1.730762	-0.754178	0.301020
N102	N	2.230762	-0.254178	0.801020
H103	H	1.729919	-0.780465	0.408458
H104	H	2.229919	-0.280465	0.908458
