data_functionalizedCrystal
_audit_creation_method	'MofGen! by Chris Wilmer'
_symmetry_space_group_name_H-M	'P1'
_symmetry_Int_Tables_number	1
_symmetry_cell_setting	triclinic
loop_
_symmetry_equiv_pos_as_xyz
  x,y,z
_cell_length_a	21.295418
_cell_length_b	29.839131
_cell_length_c	29.839126
_cell_angle_alpha	89.978002
_cell_angle_beta	89.954791
_cell_angle_gamma	90.057233
loop_
_atom_site_label
_atom_site_type_symbol
_atom_site_fract_x
_atom_site_fract_y
_atom_site_fract_z
Zn1	Zn	0.962317	-0.178708	-0.254239
Zn2	Zn	0.962197	-0.253825	-0.179109
Zn3	Zn	0.857038	-0.178731	-0.179096
Zn4	Zn	0.856990	-0.253832	-0.254185
O5	O	0.909635	-0.216274	-0.216657
O6	O	1.050391	-0.188660	-0.244300
O7	O	0.948217	-0.243871	-0.116240
O8	O	0.871074	-0.115861	-0.189081
O9	O	1.050302	-0.243848	-0.189103
O10	O	0.948422	-0.115844	-0.244288
O11	O	0.870957	-0.188699	-0.116230
O12	O	0.768942	-0.188706	-0.189028
O13	O	0.870992	-0.243860	-0.317059
O14	O	0.768907	-0.243882	-0.244196
O15	O	0.948376	-0.188666	-0.317099
O16	O	0.948171	-0.316693	-0.189050
O17	O	0.870875	-0.316698	-0.244208
C18	C	0.746084	-0.216298	-0.216605
C19	C	0.676116	-0.216319	-0.216594
C20	C	0.909522	-0.332997	-0.216635
C21	C	0.909531	-0.382931	-0.216640
C22	C	0.643247	-0.245087	-0.245276
C23	C	0.577505	-0.245076	-0.245297
C24	C	0.544633	-0.216301	-0.216626
C25	C	0.577510	-0.187527	-0.187941
C26	C	0.643251	-0.187536	-0.187925
N27	N	0.441357	-0.212786	-0.177333
N28	N	0.378905	-0.212780	-0.177349
C29	C	0.346558	-0.216272	-0.216674
N30	N	0.379022	-0.219779	-0.255982
N31	N	0.441480	-0.219787	-0.255964
C32	C	0.473348	-0.216288	-0.216641
C33	C	0.242404	-0.245030	-0.245381
C34	C	0.176661	-0.245016	-0.245402
C35	C	0.176667	-0.187470	-0.188042
C36	C	0.242409	-0.187482	-0.188025
C37	C	0.275274	-0.216264	-0.216694
C38	C	0.949956	-0.692559	-0.187978
C39	C	0.950034	-0.880232	-0.187996
O40	O	0.984315	-0.904484	-0.163609
N41	N	0.909766	-0.903716	-0.216691
C42	C	0.869479	-0.880279	-0.245386
O43	O	0.835235	-0.904559	-0.269797
C44	C	0.869405	-0.692607	-0.245370
C45	C	0.909671	-0.669125	-0.216670
C46	C	0.990220	-0.669078	-0.159280
C47	C	0.990197	-0.622162	-0.159275
C48	C	0.949912	-0.598728	-0.187967
C49	C	0.909648	-0.622210	-0.216664
C50	C	0.829121	-0.669170	-0.274067
C51	C	0.829107	-0.622249	-0.274062
C52	C	0.869373	-0.598768	-0.245361
C53	C	0.869341	-0.551860	-0.245350
N54	N	0.909609	-0.528376	-0.216655
C55	C	0.949894	-0.551810	-0.187963
C56	C	0.869519	-0.978809	-0.245391
C57	C	0.869537	-1.025727	-0.245395
C58	C	0.950093	-1.025677	-0.188005
C59	C	0.950072	-0.978759	-0.188000
C60	C	0.909787	-0.955325	-0.216696
C61	C	0.949844	-0.453285	-0.187953
C62	C	0.949816	-0.406365	-0.187948
C63	C	0.869263	-0.406419	-0.245339
C64	C	0.869288	-0.453334	-0.245343
C65	C	0.909583	-0.476766	-0.216648
O66	O	0.835082	-0.527579	-0.269728
O67	O	0.984143	-0.527522	-0.163563
C68	C	0.949978	-0.739475	-0.187984
C69	C	0.909715	-0.762956	-0.216682
C70	C	0.869430	-0.739522	-0.245373
C71	C	0.909733	-0.809874	-0.216685
C72	C	0.950018	-0.833308	-0.187993
C73	C	0.990286	-0.809824	-0.159298
C74	C	0.990264	-0.762909	-0.159292
C75	C	0.829162	-0.763006	-0.274069
C76	C	0.829187	-0.809921	-0.274072
C77	C	0.869472	-0.833355	-0.245380
C78	C	1.073826	-0.216251	-0.216709
C79	C	1.143794	-0.216241	-0.216731
C80	C	0.909692	-0.216261	-0.333835
C81	C	0.909716	-0.216256	-0.383770
C82	C	0.909767	-0.099096	-0.216689
C83	C	0.909823	-0.049161	-0.216703
C84	C	0.949937	-0.244924	-0.740365
C85	C	0.949938	-0.244955	-0.552692
O86	O	0.984129	-0.269400	-0.528434
N87	N	0.909713	-0.216234	-0.529215
C88	C	0.869482	-0.187505	-0.552659
O89	O	0.835264	-0.163080	-0.528384
C90	C	0.869479	-0.187477	-0.740331
C91	C	0.909710	-0.216196	-0.763806
C92	C	0.990165	-0.273641	-0.763839
C93	C	0.990167	-0.273631	-0.810755
C94	C	0.949940	-0.244904	-0.834196
C95	C	0.909712	-0.216186	-0.810721
C96	C	0.829245	-0.158751	-0.763775
C97	C	0.829247	-0.158747	-0.810696
C98	C	0.869478	-0.187466	-0.834170
C99	C	0.869488	-0.187449	-0.881078
N100	N	0.909712	-0.216170	-0.904555
C101	C	0.949939	-0.244897	-0.881114
C102	C	0.869488	-0.187522	-0.454129
C103	C	0.869490	-0.187528	-0.407211
C104	C	0.949944	-0.244979	-0.407247
C105	C	0.949945	-0.244969	-0.454165
C106	C	0.909713	-0.216243	-0.477605
C107	C	0.949940	-0.244874	-0.979640
C108	C	0.949940	-0.244861	-1.026559
C109	C	0.869483	-0.187412	-1.026519
C110	C	0.869485	-0.187424	-0.979604
C111	C	0.909715	-0.216159	-0.956165
O112	O	0.835310	-0.163020	-0.905365
O113	O	0.984142	-0.269326	-0.905397
C114	C	0.949935	-0.244933	-0.693449
C115	C	0.909707	-0.216216	-0.669975
C116	C	0.869481	-0.187488	-0.693416
C117	C	0.909709	-0.216222	-0.623057
C118	C	0.949935	-0.244950	-0.599616
C119	C	0.990159	-0.273671	-0.623093
C120	C	0.990161	-0.273661	-0.670008
C121	C	0.829256	-0.158768	-0.669939
C122	C	0.829258	-0.158779	-0.623024
C123	C	0.869484	-0.187507	-0.599583
C124	C	0.909615	-0.216254	-0.099934
C125	C	0.909713	-0.216133	-0.050000
H126	H	0.550738	-0.268502	-0.268655
C127	C	0.679409	-0.155892	-0.156368
C128	C	0.670465	-0.104824	-0.160128
C129	C	0.706624	-0.073181	-0.128569
C130	C	0.751728	-0.092606	-0.093251
C131	C	0.760675	-0.143676	-0.089490
C132	C	0.724515	-0.175319	-0.121049
H133	H	0.637075	-0.090442	-0.186274
H134	H	0.700002	-0.035375	-0.131354
H135	H	0.778496	-0.069181	-0.069890
H136	H	0.794065	-0.158058	-0.063344
H137	H	0.731138	-0.213125	-0.118265
H138	H	0.836733	-0.164032	-0.960490
H139	H	0.550741	-0.164098	-0.164598
C140	C	0.825234	-0.155915	-0.479908
C141	C	0.753669	-0.159589	-0.473408
C142	C	0.709417	-0.127979	-0.499184
C143	C	0.736731	-0.092696	-0.531461
C144	C	0.808299	-0.089021	-0.537962
C145	C	0.852550	-0.120630	-0.512185
H146	H	0.733447	-0.185709	-0.449514
H147	H	0.656438	-0.130700	-0.494372
H148	H	0.703973	-0.069297	-0.550542
H149	H	0.828521	-0.062901	-0.561856
H150	H	0.905530	-0.117910	-0.516998
H151	H	0.670001	-0.268524	-0.268621
C152	C	0.784842	-0.737234	-0.305632
C153	C	0.713287	-0.743762	-0.301898
C154	C	0.668962	-0.717993	-0.333463
C155	C	0.696191	-0.685697	-0.368760
C156	C	0.767750	-0.679168	-0.372494
C157	C	0.812075	-0.704937	-0.340930
H158	H	0.693127	-0.767670	-0.275768
H159	H	0.615990	-0.722826	-0.330698
H160	H	0.663379	-0.666621	-0.392125
H161	H	0.787910	-0.655259	-0.398625
H162	H	0.865047	-0.700103	-0.343695
C163	C	0.994369	-0.952931	-0.156432
C164	C	0.967110	-0.920717	-0.121132
C165	C	1.011410	-0.894892	-0.089565
C166	C	1.082971	-0.901281	-0.093297
C167	C	1.110234	-0.933497	-0.128598
C168	C	1.065934	-0.959322	-0.160166
H169	H	0.914133	-0.915986	-0.118368
H170	H	0.991228	-0.871044	-0.063432
H171	H	1.115765	-0.882164	-0.069929
H172	H	1.163211	-0.938228	-0.131363
H173	H	1.086116	-0.983170	-0.186299
H174	H	0.982699	-0.268369	-0.388153
C175	C	0.278569	-0.155840	-0.156469
C176	C	0.350882	-0.155848	-0.156450
C177	C	0.387042	-0.124203	-0.124893
C178	C	0.350889	-0.092550	-0.093356
C179	C	0.278572	-0.092541	-0.093373
C180	C	0.242412	-0.124186	-0.124930
H181	H	0.377648	-0.179280	-0.179797
H182	H	0.440576	-0.124210	-0.124880
H183	H	0.377656	-0.069125	-0.069995
H184	H	0.251806	-0.069109	-0.070026
H185	H	0.188878	-0.124179	-0.124943
C186	C	0.278561	-0.276686	-0.276918
C187	C	0.242403	-0.308328	-0.308475
C188	C	0.278557	-0.339984	-0.340013
C189	C	0.350870	-0.339999	-0.339993
C190	C	0.387032	-0.308356	-0.308435
C191	C	0.350878	-0.276700	-0.276898
H192	H	0.188869	-0.308318	-0.308491
H193	H	0.251787	-0.363408	-0.363374
H194	H	0.377633	-0.363432	-0.363339
H195	H	0.440566	-0.308366	-0.308420
H196	H	0.377648	-0.253276	-0.253536
C197	C	1.034419	-0.305254	-0.695824
C198	C	1.029230	-0.356327	-0.689354
C199	C	1.073492	-0.387921	-0.715165
C200	C	1.122942	-0.368443	-0.747447
C201	C	1.128133	-0.317367	-0.753919
C202	C	1.083872	-0.285773	-0.728107
H203	H	0.992622	-0.370748	-0.665456
H204	H	1.069649	-0.425731	-0.710374
H205	H	1.155708	-0.391831	-0.766554
H206	H	1.164742	-0.302946	-0.777817
H207	H	1.087715	-0.247963	-0.732899
C208	C	0.994114	-0.380536	-0.156377
C209	C	0.989016	-0.387022	-0.105302
C210	C	1.033312	-0.361195	-0.073733
C211	C	1.082707	-0.328884	-0.093239
C212	C	1.087807	-0.322397	-0.144316
C213	C	1.043511	-0.348223	-0.175886
H214	H	0.952449	-0.410942	-0.090860
H215	H	1.029537	-0.365997	-0.035922
H216	H	1.115498	-0.309766	-0.069869
H217	H	1.124374	-0.298477	-0.158758
H218	H	1.047287	-0.343421	-0.213697
H219	H	0.149900	-0.268442	-0.268761
H220	H	0.796498	-0.135388	-0.603915
H221	H	0.149904	-0.164039	-0.164700
C222	C	0.784889	-0.835747	-0.305645
C223	C	0.713327	-0.829363	-0.301919
C224	C	0.669036	-0.855186	-0.333495
C225	C	0.696307	-0.887394	-0.368797
C226	C	0.767873	-0.893780	-0.372524
C227	C	0.812164	-0.867956	-0.340948
H228	H	0.693136	-0.805520	-0.275786
H229	H	0.616058	-0.850459	-0.330736
H230	H	0.663520	-0.906510	-0.392171
H231	H	0.788064	-0.917623	-0.398657
H232	H	0.865142	-0.872683	-0.343707
C233	C	0.784987	-0.127160	-0.737960
C234	C	0.735543	-0.146642	-0.705675
C235	C	0.691282	-0.115050	-0.679860
C236	C	0.696465	-0.063977	-0.686329
C237	C	0.745911	-0.044492	-0.718616
C238	C	0.790172	-0.076084	-0.744431
H239	H	0.731704	-0.184452	-0.700884
H240	H	0.654678	-0.129474	-0.655959
H241	H	0.663700	-0.040590	-0.667219
H242	H	0.749750	-0.006682	-0.723406
H243	H	0.826776	-0.061660	-0.768331
H244	H	0.982658	-0.472357	-0.164588
C245	C	1.034498	-0.596339	-0.127707
C246	C	1.029404	-0.602826	-0.076632
C247	C	1.073710	-0.577007	-0.045064
C248	C	1.123111	-0.544700	-0.064570
C249	C	1.128208	-0.538212	-0.115648
C250	C	1.083902	-0.564031	-0.147216
H251	H	0.992832	-0.626742	-0.062190
H252	H	1.069937	-0.581810	-0.007252
H253	H	1.155909	-0.525587	-0.041201
H254	H	1.164779	-0.514295	-0.130090
H255	H	1.087675	-0.559227	-0.185027
H256	H	1.023028	-0.688153	-0.135916
C257	C	1.034407	-0.305273	-0.597302
C258	C	1.083843	-0.285804	-0.565073
C259	C	1.128083	-0.317406	-0.539279
C260	C	1.122888	-0.368478	-0.545713
C261	C	1.073450	-0.387950	-0.577943
C262	C	1.029209	-0.356347	-0.603737
H263	H	1.087690	-0.247995	-0.560309
H264	H	1.164681	-0.302992	-0.515421
H265	H	1.155638	-0.391872	-0.526619
H266	H	1.069603	-0.425758	-0.582707
H267	H	0.992612	-0.370762	-0.627595
C268	C	0.994193	-0.276481	-0.953861
C269	C	1.043637	-0.257014	-0.921637
C270	C	1.087893	-0.288619	-0.895858
C271	C	1.082704	-0.339689	-0.902302
C272	C	1.033258	-0.359158	-0.934526
C273	C	0.989002	-0.327554	-0.960306
H274	H	1.047480	-0.219207	-0.916866
H275	H	1.124496	-0.274206	-0.872003
H276	H	1.115464	-0.363085	-0.883218
H277	H	1.029415	-0.396966	-0.939298
H278	H	0.952399	-0.341967	-0.984161
H279	H	0.796497	-0.135375	-0.689020
H280	H	1.022925	-0.297019	-0.829864
H281	H	0.836736	-0.164137	-0.388102
C282	C	0.994412	-1.051460	-0.156445
C283	C	0.994429	-1.103068	-0.156455
C284	C	1.038749	-1.128853	-0.124900
C285	C	1.083051	-1.103030	-0.093336
C286	C	1.083035	-1.051420	-0.093325
C287	C	1.038716	-1.025635	-0.124879
H288	H	0.961632	-1.122186	-0.179822
H289	H	1.038760	-1.167059	-0.124909
H290	H	1.115859	-1.122118	-0.069977
H291	H	1.115832	-1.032302	-0.069958
H292	H	1.038704	-0.987429	-0.124871
C293	C	0.825237	-1.051553	-0.276962
C294	C	0.775836	-1.083860	-0.257456
C295	C	0.731537	-1.109684	-0.289026
C296	C	0.736640	-1.103201	-0.340101
C297	C	0.786043	-1.070892	-0.359609
C298	C	0.830342	-1.045069	-0.328039
H299	H	0.772057	-1.088660	-0.219645
H300	H	0.694965	-1.133600	-0.274585
H301	H	0.703847	-1.122317	-0.363471
H302	H	0.789823	-1.066092	-0.397420
H303	H	0.866914	-1.021152	-0.342481
H304	H	0.836713	-0.959733	-0.268760
H305	H	0.796484	-0.135353	-0.829779
H306	H	0.796329	-0.688281	-0.297436
C307	C	0.784789	-0.596473	-0.305627
C308	C	0.713233	-0.602995	-0.301898
C309	C	0.668915	-0.577220	-0.333461
C310	C	0.696152	-0.544922	-0.368754
C311	C	0.767712	-0.538399	-0.372485
C312	C	0.812031	-0.564174	-0.340921
H313	H	0.693067	-0.626905	-0.275771
H314	H	0.615942	-0.582049	-0.330700
H315	H	0.663345	-0.525842	-0.392119
H316	H	0.787878	-0.514489	-0.398612
H317	H	0.865004	-0.559344	-0.343683
H318	H	0.836502	-0.472454	-0.268714
C319	C	0.824952	-0.380634	-0.276900
C320	C	0.775535	-0.348431	-0.257386
C321	C	0.731228	-0.322644	-0.288950
C322	C	0.736340	-0.329061	-0.340027
C323	C	0.785760	-0.361266	-0.359543
C324	C	0.830066	-0.387053	-0.327980
H325	H	0.771749	-0.343679	-0.219574
H326	H	0.694645	-0.298804	-0.274502
H327	H	0.703542	-0.309973	-0.363392
H328	H	0.789546	-0.366018	-0.397356
H329	H	0.866650	-0.410893	-0.342428
H330	H	1.023053	-0.743793	-0.135922
H331	H	1.023087	-0.828912	-0.135935
H332	H	0.982704	-0.268248	-1.045670
H333	H	0.982706	-0.268356	-0.473275
H334	H	1.022923	-0.297037	-0.744759
H335	H	0.836733	-0.164022	-1.045613
