data_functionalizedCrystal
_audit_creation_method	'MofGen! by Chris Wilmer'
_symmetry_space_group_name_H-M	'P1'
_symmetry_Int_Tables_number	1
_symmetry_cell_setting	triclinic
loop_
_symmetry_equiv_pos_as_xyz
  x,y,z
_cell_length_a	10.654543
_cell_length_b	16.176319
_cell_length_c	10.654551
_cell_angle_alpha	90.005006
_cell_angle_beta	95.516199
_cell_angle_gamma	89.997267
loop_
_atom_site_label
_atom_site_type_symbol
_atom_site_fract_x
_atom_site_fract_y
_atom_site_fract_z
O1	O	-1.667852	0.068654	0.176362
O2	O	-1.167852	0.568654	0.676362
O3	O	-1.302372	0.068675	0.193177
O4	O	-0.802372	0.568675	0.693177
O5	O	-1.493514	0.068662	0.002030
O6	O	-0.993514	0.568662	0.502030
O7	O	-1.476710	0.068667	0.367509
O8	O	-0.976710	0.568667	0.867509
O9	O	-1.493488	-0.068831	0.002017
O10	O	-0.993488	0.431169	0.502017
O11	O	-1.302346	-0.068818	0.193164
O12	O	-0.802346	0.431182	0.693164
O13	O	-1.667825	-0.068839	0.176349
O14	O	-1.167825	0.431161	0.676349
Cu15	Cu	-1.485083	-0.081383	0.184756
Cu16	Cu	-0.985083	0.418617	0.684756
Cu17	Cu	-1.485115	0.081219	0.184770
Cu18	Cu	-0.985115	0.581219	0.684770
O19	O	-1.476683	-0.068826	0.367496
O20	O	-0.976683	0.431174	0.867496
C21	C	-1.255561	-0.000069	0.191938
C22	C	-0.755561	0.499931	0.691938
C23	C	-1.116117	-0.000061	0.188249
C24	C	-0.616117	0.499939	0.688249
C25	C	-1.036632	-0.000061	0.300792
C26	C	-0.536632	0.499939	0.800792
C27	C	-0.905611	-0.000073	0.297319
C28	C	-0.405611	0.499927	0.797319
C29	C	-0.933573	-0.000082	0.068749
C30	C	-0.433573	0.499918	0.568749
C31	C	-1.064592	-0.000076	0.072224
C32	C	-0.564592	0.499924	0.572224
N33	N	-1.485070	-0.195748	0.184744
N34	N	-0.985070	0.304252	0.684744
C35	C	-1.569734	-0.239018	0.100140
C36	C	-1.069734	0.260982	0.600140
C37	C	-1.569740	-0.325565	0.100139
C38	C	-1.069740	0.174435	0.600139
C39	C	-1.485088	-0.368841	0.184749
C40	C	-0.985088	0.131159	0.684749
C41	C	-1.400415	-0.325565	0.269358
C42	C	-0.900415	0.174435	0.769358
C43	C	-1.400404	-0.239019	0.269352
C44	C	-0.900404	0.260981	0.769352
C45	C	-1.400458	-0.674593	0.269382
C46	C	-0.900458	-0.174593	0.769382
C47	C	-1.400479	-0.761145	0.269383
C48	C	-0.900479	-0.261145	0.769383
C49	C	-1.569795	-0.761139	0.100168
C50	C	-1.069795	-0.261139	0.600168
C51	C	-1.569783	-0.674593	0.100163
C52	C	-1.069783	-0.174593	0.600163
C53	C	-1.485107	-0.631325	0.184766
C54	C	-0.985107	-0.131325	0.684766
C55	C	-1.485099	-0.537481	0.184765
C56	C	-0.985099	-0.037481	0.684765
C57	C	-1.485100	-0.462683	0.184757
C58	C	-0.985100	0.037317	0.684757
C59	C	-0.714636	-0.000089	0.177594
C60	C	-0.214636	0.499911	0.677594
C61	C	-0.854077	-0.000080	0.181301
C62	C	-0.354077	0.499920	0.681301
C63	C	-1.492267	-0.000083	-0.044774
C64	C	-0.992267	0.499917	0.455226
C65	C	-1.488574	-0.000079	-0.184217
C66	C	-0.988574	0.499921	0.315783
N67	N	-1.485137	0.195584	0.184772
N68	N	-0.985137	0.695584	0.684772
C69	C	-1.486856	0.074870	-0.249714
C70	C	-0.986856	0.574870	0.250286
C71	C	-1.483376	0.074870	-0.380735
C72	C	-0.983376	0.574870	0.119265
C73	C	-1.483338	-0.075032	-0.380750
C74	C	-0.983338	0.424968	0.119250
C75	C	-1.486809	-0.075032	-0.249731
C76	C	-0.986809	0.424968	0.250269
C77	C	-1.477931	-0.000079	0.414300
C78	C	-0.977931	0.499921	0.914300
C79	C	-1.481623	-0.000078	0.553743
C80	C	-0.981623	0.499922	1.053743
H81	H	-1.078579	-0.000055	0.395268
H82	H	-0.578579	0.499945	0.895268
F83	F	-1.488627	-0.154807	-0.180019
F84	F	-0.988627	0.345193	0.319981
H85	H	-0.840898	-0.000074	0.388964
H86	H	-0.340898	0.499926	0.888964
F87	F	-0.878724	-0.000095	-0.054727
F88	F	-0.378724	0.499905	0.445273
H89	H	-1.331483	-0.360805	0.338245
H90	H	-0.831483	0.139195	0.838245
F91	F	-1.488729	0.154641	-0.179993
F92	F	-0.988729	0.654641	0.320007
F93	F	-1.149192	-0.000082	-0.047567
F94	F	-0.649192	0.499918	0.452433
F95	F	-1.659840	-0.192969	0.010090
F96	F	-1.159840	0.307031	0.510090
F97	F	-1.659847	-0.371616	0.010092
F98	F	-1.159847	0.128384	0.510092
F99	F	-1.659885	-0.628539	0.010114
F100	F	-1.159885	-0.128539	0.510114
H101	H	-1.638740	-0.796377	0.031275
H102	H	-1.138740	-0.296377	0.531275
H103	H	-1.331540	-0.796378	0.338286
H104	H	-0.831540	-0.296378	0.838286
F105	F	-1.310344	-0.628550	0.359425
F106	F	-0.810344	-0.128550	0.859425
H107	H	-1.331460	-0.203790	0.338244
H108	H	-0.831460	0.296210	0.838244
H109	H	-1.481904	-0.136056	-0.434108
H110	H	-0.981904	0.363944	0.065892
F111	F	-1.481544	0.154641	-0.450435
F112	F	-0.981544	0.654641	0.049565
