data_functionalizedCrystal
_audit_creation_method	'MofGen! by Chris Wilmer'
_symmetry_space_group_name_H-M	'P1'
_symmetry_Int_Tables_number	1
_symmetry_cell_setting	triclinic
loop_
_symmetry_equiv_pos_as_xyz
  x,y,z
_cell_length_a	17.699083
_cell_length_b	19.288864
_cell_length_c	18.366186
_cell_angle_alpha	90.022894
_cell_angle_beta	89.992864
_cell_angle_gamma	96.790370
loop_
_atom_site_label
_atom_site_type_symbol
_atom_site_fract_x
_atom_site_fract_y
_atom_site_fract_z
O1	O	0.094417	-0.921465	-0.060785
O2	O	0.594417	-0.421465	0.439215
O3	O	0.107154	-0.719219	-0.060735
O4	O	0.607154	-0.219219	0.439265
O5	O	-0.009412	-0.826056	-0.060755
O6	O	0.490588	-0.326056	0.439245
O7	O	0.210983	-0.814628	-0.060765
O8	O	0.710983	-0.314628	0.439235
O9	O	-0.009417	-0.826038	0.060345
O10	O	0.490583	-0.326038	0.560345
O11	O	0.107148	-0.719201	0.060364
O12	O	0.607148	-0.219201	0.560364
O13	O	0.094412	-0.921446	0.060315
O14	O	0.594412	-0.421446	0.560315
Zn15	Zn	0.100779	-0.820321	0.079567
Zn16	Zn	0.600779	-0.320321	0.579567
Zn17	Zn	0.100786	-0.820345	-0.079987
Zn18	Zn	0.600786	-0.320345	0.420013
O19	O	0.210977	-0.814610	0.060335
O20	O	0.710977	-0.314610	0.560335
C21	C	0.106741	-0.693333	-0.000179
C22	C	0.606741	-0.193333	0.499821
C23	C	0.105511	-0.616228	-0.000160
C24	C	0.605511	-0.116228	0.499840
C25	C	-0.037611	-0.825637	-0.000205
C26	C	0.462389	-0.325637	0.499795
C27	C	-0.121627	-0.824409	-0.000204
C28	C	0.378373	-0.324409	0.499796
N29	N	0.100773	-0.820310	0.188458
N30	N	0.600773	-0.320310	0.688458
C31	C	-0.170336	-0.887120	-0.000219
C32	C	0.329664	-0.387120	0.499781
C33	C	-0.249278	-0.885961	-0.000225
C34	C	0.250722	-0.385961	0.499775
C35	C	-0.279509	-0.822091	-0.000211
C36	C	0.220491	-0.322091	0.499789
C37	C	-0.230794	-0.759375	-0.000199
C38	C	0.269206	-0.259375	0.499801
C39	C	-0.151854	-0.760535	-0.000198
C40	C	0.348146	-0.260535	0.499802
C41	C	-0.549150	-0.754699	-0.000204
C42	C	-0.049150	-0.254699	0.499796
C43	C	-0.628097	-0.753545	-0.000203
C44	C	-0.128097	-0.253545	0.499797
C45	C	-0.646575	-0.880126	-0.000230
C46	C	-0.146575	-0.380126	0.499770
C47	C	-0.567635	-0.881285	-0.000230
C48	C	-0.067635	-0.381285	0.499770
C49	C	-0.518926	-0.818570	-0.000221
C50	C	-0.018926	-0.318570	0.499779
C51	C	-0.433329	-0.819827	-0.000216
C52	C	0.066671	-0.319827	0.499784
C53	C	-0.365105	-0.820834	-0.000211
C54	C	0.134895	-0.320834	0.499789
C55	C	0.239176	-0.815028	-0.000217
C56	C	0.739176	-0.315028	0.499783
C57	C	0.323193	-0.816257	-0.000222
C58	C	0.823193	-0.316257	0.499778
C59	C	0.094824	-0.947332	-0.000243
C60	C	0.594824	-0.447332	0.499757
C61	C	0.096054	-1.024437	-0.000267
C62	C	0.596054	-0.524437	0.499733
C63	C	0.173906	-0.571613	-0.000174
C64	C	0.673906	-0.071613	0.499826
C65	C	0.172751	-0.499164	-0.000182
C66	C	0.672751	0.000836	0.499818
C67	C	0.103196	-0.471334	-0.000190
C68	C	0.603196	0.028666	0.499810
C69	C	0.034791	-0.515959	-0.000172
C70	C	0.534791	-0.015959	0.499828
C71	C	0.035949	-0.588406	-0.000156
C72	C	0.535949	-0.088406	0.499844
C73	C	0.048520	-0.363014	-0.042639
C74	C	0.548520	0.136986	0.457361
C75	C	0.047365	-0.290568	-0.042659
C76	C	0.547365	0.209432	0.457341
C77	C	0.099622	-0.247884	-0.000234
C78	C	0.599622	0.252116	0.499766
C79	C	0.153047	-0.277654	0.042200
C80	C	0.653047	0.222346	0.542200
C81	C	0.154205	-0.350101	0.042216
C82	C	0.654205	0.149899	0.542216
C83	C	0.101932	-0.392779	-0.000206
C84	C	0.601932	0.107221	0.499794
C85	C	0.166769	-0.124712	-0.000256
C86	C	0.666769	0.375288	0.499744
C87	C	0.165610	-0.052262	-0.000260
C88	C	0.665610	0.447738	0.499740
C89	C	0.027649	-0.069059	-0.000257
C90	C	0.527649	0.430941	0.499743
C91	C	0.028809	-0.141507	-0.000246
C92	C	0.528809	0.358493	0.499754
C93	C	0.098371	-0.169329	-0.000249
C94	C	0.598371	0.330671	0.499751
N95	N	0.100786	-0.820361	-0.188878
N96	N	0.600786	-0.320361	0.311122
C97	C	0.049183	-0.867632	0.226550
C98	C	0.549183	-0.367632	0.726550
C99	C	0.049180	-0.867637	0.302777
C100	C	0.549180	-0.367637	0.802777
C101	C	0.100780	-0.820325	0.340911
C102	C	0.600780	-0.320325	0.840911
C103	C	0.152373	-0.772993	0.302810
C104	C	0.652373	-0.272993	0.802810
C105	C	0.152370	-0.772986	0.226583
C106	C	0.652370	-0.272986	0.726583
C107	C	0.169742	-0.811108	0.461669
C108	C	0.669742	-0.311108	0.961669
C109	C	0.169746	-0.811121	0.537894
C110	C	0.669746	-0.311121	1.037894
C111	C	0.100789	-0.820345	0.576018
C112	C	0.600789	-0.320345	1.076018
C113	C	0.031825	-0.829571	0.537908
C114	C	0.531825	-0.329571	1.037908
C115	C	0.031822	-0.829563	0.461681
C116	C	0.531822	-0.329563	0.961681
C117	C	0.100788	-0.820328	0.423565
C118	C	0.600788	-0.320328	0.923565
C119	C	0.049191	-0.867675	0.696765
C120	C	0.549191	-0.367675	1.196765
C121	C	0.049187	-0.867674	0.772994
C122	C	0.549187	-0.367674	1.272994
C123	C	0.152387	-0.773034	0.773025
C124	C	0.652387	-0.273034	1.273025
C125	C	0.152385	-0.773031	0.696797
C126	C	0.652385	-0.273031	1.196797
C127	C	0.100788	-0.820355	0.658672
C128	C	0.600788	-0.320355	1.158672
H129	H	-0.145729	-0.939130	-0.000225
H130	H	0.354271	-0.439130	0.499775
N131	N	-0.263403	-0.690489	-0.000182
N132	N	0.236597	-0.190489	0.499818
H133	H	-0.245627	-0.663014	0.044716
H134	H	0.254373	-0.163014	0.544716
H135	H	-0.245613	-0.663082	-0.045097
H136	H	0.254387	-0.163082	0.454903
H137	H	0.225898	-0.803585	0.430635
H138	H	0.725898	-0.303585	0.930635
H139	H	-0.112195	-0.709469	-0.000187
H140	H	0.387805	-0.209469	0.499813
H141	H	-0.288934	-0.937027	-0.000235
H142	H	0.211066	-0.437027	0.499765
H143	H	0.197703	-0.374336	0.076770
H144	H	0.697703	0.125664	0.576770
H145	H	-0.686243	-0.931192	-0.000241
H146	H	-0.186243	-0.431192	0.499759
N147	N	-0.007851	-0.409046	-0.088398
N148	N	0.492149	0.090954	0.411602
H149	H	-0.000998	-0.395611	-0.141341
H150	H	0.499002	0.104389	0.358659
H151	H	0.001017	-0.459441	-0.081889
H152	H	0.501017	0.040559	0.418111
N153	N	0.208036	-0.722000	0.814146
N154	N	0.708036	-0.222000	1.314146
H155	H	0.240719	-0.692019	0.778444
H156	H	0.740719	-0.192019	1.278444
H157	H	0.179137	-0.691351	0.845788
H158	H	0.679137	-0.191351	1.345788
H159	H	0.194397	-0.734500	0.665781
H160	H	0.694397	-0.234500	1.165781
H161	H	-0.021841	-0.493296	-0.000188
H162	H	0.478159	0.006704	0.499812
H163	H	0.230549	-0.594260	-0.000178
H164	H	0.730549	-0.094260	0.499822
H165	H	0.195599	-0.242902	0.076747
H166	H	0.695599	0.257098	0.576747
N167	N	-0.535028	-0.950173	-0.000238
N168	N	-0.035028	-0.450173	0.499762
H169	H	-0.577865	-0.989725	-0.000249
H170	H	-0.077865	-0.489725	0.499751
H171	H	-0.502672	-0.953417	-0.045131
H172	H	-0.002672	-0.453417	0.454869
N173	N	-0.660705	-0.684654	-0.000184
N174	N	-0.160705	-0.184654	0.499816
H175	H	-0.617871	-0.645099	-0.000179
H176	H	-0.117871	-0.145099	0.499821
H177	H	-0.693055	-0.681426	-0.045074
H178	H	-0.193055	-0.181426	0.454926
N179	N	0.208024	-0.721960	0.343934
N180	N	0.708024	-0.221960	0.843934
H181	H	0.200200	-0.729146	0.398004
H182	H	0.700200	-0.229146	0.898004
H183	H	0.261696	-0.729885	0.330596
H184	H	0.761696	-0.229885	0.830596
H185	H	-0.024326	-0.837081	0.568947
H186	H	0.475674	-0.337081	1.068947
H187	H	-0.509501	-0.703632	-0.000197
H188	H	-0.009501	-0.203632	0.499803
N189	N	0.244123	-0.801167	0.578996
N190	N	0.744123	-0.301167	1.078996
H191	H	0.287806	-0.795310	0.543280
H192	H	0.787806	-0.295310	1.043280
H193	H	0.245816	-0.758179	0.610643
H194	H	0.745816	-0.258179	1.110643
H195	H	0.223410	-0.147365	-0.000249
H196	H	0.723410	0.352635	0.499751
N197	N	0.208013	-0.721940	0.185493
N198	N	0.708013	-0.221940	0.685493
H199	H	0.240700	-0.691965	0.221214
H200	H	0.740700	-0.191965	0.721214
H201	H	0.241401	-0.748468	0.153847
H202	H	0.741401	-0.248468	0.653847
N203	N	0.246522	-0.451031	-0.000200
N204	N	0.746522	0.048969	0.499800
H205	H	0.290764	-0.479649	-0.000199
H206	H	0.790764	0.020351	0.499801
H207	H	0.249039	-0.420635	-0.045101
H208	H	0.749039	0.079365	0.454899
H209	H	0.007168	-0.906165	0.195510
H210	H	0.507168	-0.406165	0.695510
H211	H	0.221308	-0.015936	-0.000268
H212	H	0.721308	0.484064	0.499732
N213	N	-0.006483	-0.918702	0.655652
N214	N	0.493517	-0.418702	1.155652
H215	H	-0.039919	-0.892207	0.624050
H216	H	0.460081	-0.392207	1.124050
H217	H	0.022389	-0.949402	0.624043
H218	H	0.522389	-0.449402	1.124043
H219	H	-0.028984	-0.046401	-0.000308
H220	H	0.471016	0.453599	0.499692
N221	N	-0.037823	-0.636533	-0.000137
N222	N	0.462177	-0.136533	0.499863
H223	H	-0.082064	-0.607912	-0.000140
H224	H	0.417936	-0.107912	0.499860
H225	H	-0.040348	-0.666982	-0.045024
H226	H	0.459652	-0.166982	0.454976
N227	N	-0.044960	-0.189633	-0.000230
N228	N	0.455040	0.310367	0.499770
H229	H	-0.089200	-0.161012	-0.000235
H230	H	0.410800	0.338988	0.499765
H231	H	-0.047485	-0.220085	-0.045115
H232	H	0.452515	0.279915	0.454885
H233	H	0.003866	-0.266335	-0.077214
H234	H	0.503866	0.233665	0.422786
N235	N	-0.006461	-0.918679	0.343880
N236	N	0.493539	-0.418679	0.843880
H237	H	-0.060161	-0.910779	0.330632
H238	H	0.439839	-0.410779	0.830632
H239	H	0.002190	-0.967934	0.330573
H240	H	0.502190	-0.467934	0.830573
N241	N	-0.042553	-0.839511	0.420575
N242	N	0.457447	-0.339511	0.920575
H243	H	-0.086239	-0.845356	0.456288
H244	H	0.413761	-0.345356	0.956288
H245	H	-0.046854	-0.797320	0.388972
H246	H	0.453146	-0.297320	0.888972
N247	N	-0.006447	-0.918729	0.814083
N248	N	0.493553	-0.418729	1.314083
H249	H	-0.039125	-0.948711	0.778360
H250	H	0.460875	-0.448711	1.278360
H251	H	0.022467	-0.949376	0.845681
H252	H	0.522467	-0.449376	1.345681
