data_functionalizedCrystal
_audit_creation_method	'MofGen! by Chris Wilmer'
_symmetry_space_group_name_H-M	'P1'
_symmetry_Int_Tables_number	1
_symmetry_cell_setting	triclinic
loop_
_symmetry_equiv_pos_as_xyz
  x,y,z
_cell_length_a	10.723024
_cell_length_b	17.038272
_cell_length_c	9.798715
_cell_angle_alpha	89.996584
_cell_angle_beta	89.996609
_cell_angle_gamma	87.789713
loop_
_atom_site_label
_atom_site_type_symbol
_atom_site_fract_x
_atom_site_fract_y
_atom_site_fract_z
O1	O	1.667337	0.109720	-0.113484
O2	O	1.305156	0.120222	-0.113489
O3	O	1.484094	0.001144	-0.113475
O4	O	1.488399	0.228799	-0.113497
O5	O	1.484079	0.001144	0.113507
O6	O	1.305141	0.120222	0.113494
O7	O	1.667322	0.109720	0.113498
Zn8	Zn	1.486230	0.114971	0.149534
Zn9	Zn	1.486248	0.114971	-0.149525
O10	O	1.488384	0.228798	0.113485
C11	C	1.258578	0.119458	0.000002
C12	C	1.119813	0.117171	0.000000
C13	C	1.050993	0.183801	-0.000007
C14	C	0.907571	0.181440	-0.000008
C15	C	1.480171	-0.028006	0.000015
C16	C	1.468489	-0.114864	0.000015
C17	C	1.575744	-0.164385	0.000018
C18	C	1.564760	-0.245996	0.000005
C19	C	1.446520	-0.278084	-0.000002
C20	C	1.339256	-0.228557	-0.000009
C21	C	1.350241	-0.146947	-0.000005
C22	C	1.407711	-0.524057	-0.000021
C23	C	1.396734	-0.605673	-0.000020
C24	C	1.622239	-0.623107	-0.000009
C25	C	1.633214	-0.541495	0.000002
C26	C	1.525950	-0.491974	-0.000012
C27	C	1.435289	-0.361504	-0.000011
C28	C	1.537182	-0.408556	-0.000013
C29	C	1.713900	0.110484	0.000005
C30	C	1.852666	0.112771	-0.000003
C31	C	1.492307	0.257948	-0.000009
C32	C	1.503989	0.344806	-0.000017
N33	N	1.486226	0.114970	0.353634
N34	N	1.486261	0.114966	-0.353624
C35	C	1.561337	0.064752	0.421416
C36	C	1.561356	0.064749	0.578579
H37	H	0.848415	0.238480	-0.000020
H38	H	0.911814	0.055727	-0.000005
H39	H	1.625623	0.021757	0.363099
H40	H	1.242982	-0.254689	-0.000022
C41	C	1.763285	-0.506205	0.000001
C42	C	1.801847	-0.452508	0.117871
C43	C	1.931921	-0.417221	0.117874
C44	C	2.023434	-0.435632	0.000008
C45	C	1.984875	-0.489332	-0.117871
C46	C	1.854800	-0.524619	-0.117875
H47	H	1.734102	-0.438876	0.205130
H48	H	1.960465	-0.377468	0.205137
H49	H	2.119723	-0.409511	0.000011
H50	H	2.052620	-0.502964	-0.205130
H51	H	1.826256	-0.564372	-0.205137
C52	C	1.289719	-0.469595	-0.000011
C53	C	1.195187	-0.473625	-0.117867
C54	C	1.077187	-0.419161	-0.117850
C55	C	1.053719	-0.360667	0.000022
C56	C	1.148253	-0.356634	0.117886
C57	C	1.266254	-0.411099	0.117869
H58	H	1.212557	-0.516928	-0.205131
H59	H	1.007206	-0.422146	-0.205102
H60	H	0.966368	-0.320349	0.000034
H61	H	1.130883	-0.313331	0.205149
H62	H	1.336234	-0.408113	0.205121
C63	C	1.648234	0.006664	0.657314
C64	C	1.648173	0.006769	0.814471
C65	C	1.735054	-0.051319	0.893209
C66	C	1.821997	-0.109511	0.814790
C67	C	1.822062	-0.109619	0.657625
C68	C	1.735181	-0.051531	0.578887
H69	H	1.583809	0.049849	0.872528
H70	H	1.735005	-0.051239	1.009553
H71	H	1.886312	-0.152511	0.873077
H72	H	1.886425	-0.152698	0.599567
H73	H	1.735229	-0.051611	0.462543
H74	H	1.709567	-0.663435	-0.000000
H75	H	1.262902	-0.106627	-0.000008
C76	C	1.399380	0.173054	0.567649
C77	C	1.410638	0.262121	0.587978
C78	C	1.323756	0.320209	0.509240
C79	C	1.225617	0.289229	0.410173
C80	C	1.214356	0.200157	0.389840
C81	C	1.301237	0.142070	0.468578
H82	H	1.483290	0.285058	0.661318
H83	H	1.332094	0.386146	0.524293
H84	H	1.161303	0.332229	0.351887
H85	H	1.141704	0.177220	0.316501
H86	H	1.292900	0.076133	0.453525
H87	H	1.072552	0.058378	-0.000029
H88	H	1.633453	-0.382426	-0.000038
H89	H	1.098254	0.242594	-0.000005
H90	H	1.672028	-0.138265	0.000031
H91	H	1.652100	-0.286314	0.000010
H92	H	1.300443	-0.631796	-0.000003
H93	H	1.421930	0.157959	0.411954
H94	H	1.339017	-0.387640	-0.000013
