data_functionalizedCrystal
_audit_creation_method	'MofGen! by Chris Wilmer'
_symmetry_space_group_name_H-M	'P1'
_symmetry_Int_Tables_number	1
_symmetry_cell_setting	triclinic
loop_
_symmetry_equiv_pos_as_xyz
  x,y,z
_cell_length_a	14.519709
_cell_length_b	14.519731
_cell_length_c	9.130313
_cell_angle_alpha	89.997760
_cell_angle_beta	90.005376
_cell_angle_gamma	83.684499
loop_
_atom_site_label
_atom_site_type_symbol
_atom_site_fract_x
_atom_site_fract_y
_atom_site_fract_z
O1	O	1.223872	0.120886	-0.121612
O2	O	0.955396	0.135122	-0.121657
O3	O	1.096742	-0.006233	-0.121620
O4	O	1.082526	0.262241	-0.121649
O5	O	1.096740	-0.006229	0.121979
O6	O	0.955394	0.135126	0.121942
O7	O	1.223870	0.120890	0.121987
Cu8	Cu	1.089632	0.128008	0.144207
Cu9	Cu	1.089634	0.128004	-0.143877
O10	O	1.082524	0.262245	0.121950
C11	C	0.921035	0.134461	0.000137
C12	C	0.818654	0.132473	0.000120
C13	C	0.443757	0.125153	0.000187
C14	C	0.548065	0.127186	0.000168
C15	C	0.631202	0.128813	0.000152
C16	C	0.735517	0.130846	0.000136
C17	C	1.096075	-0.040591	0.000180
C18	C	1.094079	-0.142971	0.000180
C19	C	1.092457	-0.226115	0.000176
C20	C	1.090430	-0.330424	0.000165
C21	C	1.088822	-0.413563	0.000155
C22	C	1.086795	-0.517878	0.000146
C23	C	1.258230	0.121551	0.000190
C24	C	1.360612	0.123539	0.000197
C25	C	1.083191	0.296603	0.000147
C26	C	1.085187	0.398983	0.000137
N27	N	1.089637	0.128011	0.346829
N28	N	1.089636	0.127994	-0.346500
C29	C	1.152241	0.065440	0.423498
C30	C	1.152238	0.065429	0.576835
C31	C	1.027025	0.190568	0.576821
C32	C	1.027024	0.190574	0.423487
C33	C	1.224535	-0.006806	0.423507
C34	C	1.224532	-0.006817	0.576844
H35	H	0.976039	0.241516	0.361065
H36	H	1.295295	0.008485	0.618470
H37	H	0.976047	0.241504	0.639252
H38	H	1.209283	-0.077583	0.381891
O39	O	1.304304	0.019403	0.367009
C40	C	1.454145	0.068778	0.417919
C41	C	1.363865	0.039090	0.482099
H42	H	1.502318	0.084722	0.510937
H43	H	1.489575	0.010341	0.347698
H44	H	1.437347	0.133319	0.347589
H45	H	1.380584	-0.025430	0.552495
H46	H	1.328461	0.097581	0.552235
O47	O	1.198411	-0.086628	0.633342
C48	C	1.149210	-0.236541	0.582436
C49	C	1.178781	-0.146209	0.518254
H50	H	1.133311	-0.284729	0.489419
H51	H	1.207690	-0.271914	0.652650
H52	H	1.084667	-0.219823	0.652773
H53	H	1.243302	-0.162847	0.447851
H54	H	1.120246	-0.110861	0.448124
