data_functionalizedCrystal
_audit_creation_method	'MofGen! by Chris Wilmer'
_symmetry_space_group_name_H-M	'P1'
_symmetry_Int_Tables_number	1
_symmetry_cell_setting	triclinic
loop_
_symmetry_equiv_pos_as_xyz
  x,y,z
_cell_length_a	16.625546
_cell_length_b	12.759401
_cell_length_c	12.759393
_cell_angle_alpha	89.981504
_cell_angle_beta	90.036194
_cell_angle_gamma	89.977371
loop_
_atom_site_label
_atom_site_type_symbol
_atom_site_fract_x
_atom_site_fract_y
_atom_site_fract_z
Zn1	Zn	-0.320951	-1.606199	0.593948
Zn2	Zn	-0.455807	-1.606069	0.418253
Zn3	Zn	-0.320993	-1.430501	0.418287
Zn4	Zn	-0.455745	-1.430465	0.593895
O5	O	-0.388374	-1.518308	0.506096
O6	O	-0.338848	-1.753203	0.570649
O7	O	-0.437968	-1.582740	0.271237
O8	O	-0.208155	-1.453876	0.441625
O9	O	-0.437927	-1.753107	0.441568
O10	O	-0.208124	-1.582961	0.570682
O11	O	-0.338920	-1.453751	0.271261
O12	O	-0.338860	-1.283475	0.441574
O13	O	-0.437821	-1.453816	0.740923
O14	O	-0.437862	-1.283449	0.570592
O15	O	-0.338788	-1.582927	0.740962
O16	O	-0.568632	-1.582706	0.441517
O17	O	-0.568586	-1.453691	0.570560
C18	C	-0.388359	-1.245341	0.506081
C19	C	-0.388372	-1.128564	0.506100
C20	C	-0.597865	-1.518209	0.506052
C21	C	-0.687486	-1.518263	0.506068
C22	C	-0.388293	-1.518382	0.780129
C23	C	-0.388258	-1.518413	0.896906
C24	C	-1.015662	-1.518446	0.506177
C25	C	-0.924353	-1.518392	0.506150
C26	C	-0.851577	-1.518353	0.506122
C27	C	-0.760262	-1.518301	0.506096
C28	C	-0.178065	-1.518437	0.506163
C29	C	-0.088444	-1.518492	0.506191
C30	C	-0.388390	-1.792342	0.506111
C31	C	-0.388396	-1.909118	0.506117
C32	C	-0.440005	-1.073717	0.573169
C33	C	-0.440015	-0.963992	0.573180
C34	C	-0.336758	-0.963974	0.439045
C35	C	-0.336744	-1.073696	0.439040
C36	C	-0.499623	-1.073726	0.650608
C37	C	-0.499633	-0.964002	0.650619
C38	C	-0.388397	-1.518296	0.233128
C39	C	-0.388204	-1.518468	0.116352
C40	C	-0.336687	-1.585650	0.951790
C41	C	-0.336657	-1.585675	1.061514
C42	C	-0.439778	-1.451223	1.061461
C43	C	-0.439803	-1.451194	0.951739
C44	C	-0.277153	-1.663279	0.951821
C45	C	-0.277124	-1.663304	1.061546
H46	H	-0.294723	-0.919287	0.384448
H47	H	-0.481742	-1.396493	1.106119
H48	H	-0.299539	-1.740546	0.917783
N49	N	-0.478734	-1.111155	0.752722
N50	N	-0.526882	-1.167484	0.802555
H51	H	-0.512129	-1.193922	0.874670
H52	H	-0.214709	-1.641521	0.922072
N53	N	-0.202691	-1.626797	1.104260
N54	N	-0.146974	-1.599439	1.044494
H55	H	-0.094408	-1.573652	1.074661
N56	N	-0.573999	-1.116377	0.613859
N57	N	-0.629710	-1.056563	0.586345
H58	H	-0.682239	-1.086684	0.560388
N59	N	-0.298094	-1.765383	1.098893
N60	N	-0.312899	-1.837279	1.035226
H61	H	-0.327705	-1.909372	1.061601
N62	N	-0.471664	-0.921364	0.747658
N63	N	-0.450712	-0.981186	0.820319
H64	H	-0.430956	-0.951072	0.888851
N65	N	-0.577943	-0.926598	0.623067
N66	N	-0.587021	-0.870239	0.543787
H67	H	-0.642324	-0.843821	0.524326
N68	N	-0.283988	-1.129706	0.370537
N69	N	-0.237898	-1.080701	0.310670
H70	H	-0.200636	-1.120257	0.262286
N71	N	-0.492481	-1.382516	0.895671
N72	N	-0.543881	-1.419419	0.834421
H73	H	-0.581086	-1.370911	0.794820
