data_functionalizedCrystal
_audit_creation_method	'MofGen! by Chris Wilmer'
_symmetry_space_group_name_H-M	'P1'
_symmetry_Int_Tables_number	1
_symmetry_cell_setting	triclinic
loop_
_symmetry_equiv_pos_as_xyz
  x,y,z
_cell_length_a	13.897448
_cell_length_b	12.759395
_cell_length_c	12.759387
_cell_angle_alpha	90.019071
_cell_angle_beta	89.967616
_cell_angle_gamma	89.980771
loop_
_atom_site_label
_atom_site_type_symbol
_atom_site_fract_x
_atom_site_fract_y
_atom_site_fract_z
Zn1	Zn	-0.383928	-1.606232	-0.593991
Zn2	Zn	-0.545254	-1.606118	-0.418306
Zn3	Zn	-0.383979	-1.430535	-0.418328
Zn4	Zn	-0.545187	-1.430513	-0.593945
O5	O	-0.464587	-1.518349	-0.506142
O6	O	-0.405335	-1.753238	-0.570696
O7	O	-0.523911	-1.582787	-0.271287
O8	O	-0.248991	-1.453898	-0.441659
O9	O	-0.523861	-1.753154	-0.441621
O10	O	-0.248953	-1.582982	-0.570718
O11	O	-0.405423	-1.453787	-0.271304
O12	O	-0.405357	-1.283511	-0.441614
O13	O	-0.523745	-1.453862	-0.740972
O14	O	-0.523795	-1.283495	-0.570639
O15	O	-0.405269	-1.582961	-0.741006
O16	O	-0.680227	-1.582767	-0.441576
O17	O	-0.680177	-1.453751	-0.570617
C18	C	-0.464575	-1.245382	-0.506124
C19	C	-0.464593	-1.128605	-0.506142
C20	C	-0.715201	-1.518273	-0.506112
C21	C	-0.822415	-1.518336	-0.506134
C22	C	-0.464494	-1.518422	-0.780176
C23	C	-0.464454	-1.518453	-0.896953
C24	C	-1.018710	-1.518446	-0.506200
C25	C	-0.909478	-1.518382	-0.506167
C26	C	-0.212994	-1.518455	-0.506196
C27	C	-0.105780	-1.518500	-0.506219
C28	C	-0.464599	-1.792383	-0.506161
C29	C	-0.464605	-1.909159	-0.506169
C30	C	-0.588123	-1.128628	-0.640278
C31	C	-0.649895	-1.073778	-0.707349
C32	C	-0.649907	-0.964056	-0.707362
C33	C	-0.588138	-0.909182	-0.640299
C34	C	-0.526365	-0.964031	-0.573227
C35	C	-0.526362	-1.073756	-0.573220
C36	C	-0.402833	-0.964009	-0.439098
C37	C	-0.402824	-1.073731	-0.439078
C38	C	-0.341063	-0.909135	-0.372035
C39	C	-0.279294	-0.963984	-0.304957
C40	C	-0.279286	-1.073712	-0.304946
C41	C	-0.341052	-1.128580	-0.372007
C42	C	-0.341017	-1.652951	-1.116432
C43	C	-0.279351	-1.720153	-1.061587
C44	C	-0.279383	-1.720123	-0.951866
C45	C	-0.341090	-1.652887	-0.896986
C46	C	-0.402756	-1.585685	-0.951830
C47	C	-0.402715	-1.585719	-1.061554
C48	C	-0.526120	-1.451251	-0.951797
C49	C	-0.526085	-1.451273	-1.061519
C50	C	-0.587828	-1.384014	-0.896917
C51	C	-0.649490	-1.316805	-0.951762
C52	C	-0.649455	-1.316837	-1.061490
C53	C	-0.587751	-1.384071	-1.116363
C54	C	-0.464610	-1.518338	-0.233175
C55	C	-0.464378	-1.518510	-0.116399
H56	H	-0.588127	-1.217969	-0.640266
F57	F	-0.341131	-1.652870	-0.780210
H58	H	-0.228976	-1.118365	-0.250335
H59	H	-0.700185	-1.118469	-0.761952
F60	F	-0.341052	-1.245356	-0.371997
F61	F	-0.715160	-1.245259	-0.893349
H62	H	-0.340972	-1.652968	-1.205773
H63	H	-0.587710	-1.384097	-1.205704
H64	H	-0.229171	-1.774848	-0.907212
H65	H	-0.587853	-1.383999	-0.807576
H66	H	-0.700202	-0.919398	-0.761982
F67	F	-0.715095	-1.245314	-1.119851
H68	H	-0.588144	-0.819841	-0.640324
H69	H	-0.341073	-0.819793	-0.372054
H70	H	-0.229112	-1.774898	-1.106283
H71	H	-0.229002	-0.919297	-0.250364
