data_functionalizedCrystal
_audit_creation_method	'MofGen! by Chris Wilmer'
_symmetry_space_group_name_H-M	'P1'
_symmetry_Int_Tables_number	1
_symmetry_cell_setting	triclinic
loop_
_symmetry_equiv_pos_as_xyz
  x,y,z
_cell_length_a	10.686154
_cell_length_b	10.686139
_cell_length_c	10.686551
_cell_angle_alpha	98.409931
_cell_angle_beta	90.306020
_cell_angle_gamma	80.933227
loop_
_atom_site_label
_atom_site_type_symbol
_atom_site_fract_x
_atom_site_fract_y
_atom_site_fract_z
Zn1	Zn	-1.946780	-0.311369	0.540548
Zn2	Zn	-1.911615	-0.542464	0.314534
Zn3	Zn	-1.718222	-0.344020	0.344562
Zn4	Zn	-1.718257	-0.539868	0.540488
O5	O	-1.823718	-0.434430	0.435033
O6	O	-2.118688	-0.329447	0.498026
O7	O	-1.871230	-0.530892	0.141934
O8	O	-1.763243	-0.161012	0.383152
O9	O	-2.092852	-0.499231	0.331974
O10	O	-1.931163	-0.137023	0.527142
O11	O	-1.729145	-0.385096	0.163995
O12	O	-1.541654	-0.382578	0.383093
O13	O	-1.763302	-0.494806	0.717080
O14	O	-1.541680	-0.526466	0.527040
O15	O	-1.931197	-0.326929	0.717124
O16	O	-1.871264	-0.720797	0.331915
O17	O	-1.729205	-0.718889	0.497923
C18	C	-1.495883	-0.457784	0.458319
C19	C	-1.355634	-0.467803	0.468309
C20	C	-1.796459	-0.766167	0.411679
C21	C	-1.784916	-0.908074	0.401722
C22	C	-1.152834	-0.410975	0.411650
C23	C	-1.293084	-0.400949	0.401666
C24	C	-1.851176	-0.406936	0.764168
C25	C	-1.862877	-0.395219	0.904426
C26	C	-1.851121	-0.101393	0.458503
C27	C	-1.862799	0.040527	0.468505
C28	C	-1.796448	-0.461721	0.107180
C29	C	-1.785021	-0.473061	-0.033069
H30	H	-1.346827	-0.336049	0.336967
H31	H	-1.301883	-0.532717	0.533003
H32	H	-1.709417	-0.548671	0.913142
O33	O	-1.694602	0.015084	0.324350
C34	C	-1.624557	0.091366	0.264244
H35	H	-1.632231	0.190453	0.322870
H36	H	-1.520876	0.044533	0.255150
H37	H	-1.663920	0.100793	0.166112
H38	H	-1.938494	-0.319612	0.958220
O39	O	-1.952841	0.117682	0.545940
C40	C	-1.894067	0.196470	0.637941
H41	H	-1.796342	0.205782	0.601612
H42	H	-1.954497	0.295366	0.657744
H43	H	-1.883835	0.151975	0.728861
