data_functionalizedCrystal
_audit_creation_method	'MofGen! by Chris Wilmer'
_symmetry_space_group_name_H-M	'P1'
_symmetry_Int_Tables_number	1
_symmetry_cell_setting	triclinic
loop_
_symmetry_equiv_pos_as_xyz
  x,y,z
_cell_length_a	12.759395
_cell_length_b	12.645330
_cell_length_c	12.645323
_cell_angle_alpha	90.028979
_cell_angle_beta	90.018136
_cell_angle_gamma	90.012491
loop_
_atom_site_label
_atom_site_type_symbol
_atom_site_fract_x
_atom_site_fract_y
_atom_site_fract_z
Zn1	Zn	1.606270	-0.422015	0.599327
Zn2	Zn	1.606171	-0.599309	0.422061
Zn3	Zn	1.430572	-0.422059	0.422083
Zn4	Zn	1.430567	-0.599236	0.599287
O5	O	1.518395	-0.510655	0.510689
O6	O	1.753278	-0.445545	0.575820
O7	O	1.582838	-0.575845	0.273716
O8	O	1.453923	-0.273706	0.445621
O9	O	1.753205	-0.575802	0.445583
O10	O	1.583007	-0.273673	0.575841
O11	O	1.453827	-0.445621	0.273733
O12	O	1.283551	-0.445550	0.445582
O13	O	1.453914	-0.575678	0.747640
O14	O	1.283547	-0.575721	0.575773
O15	O	1.583002	-0.445474	0.747669
O16	O	1.582833	-0.747646	0.445544
O17	O	1.453818	-0.747593	0.575752
C18	C	1.245428	-0.510634	0.510676
C19	C	1.128651	-0.510650	0.510696
C20	C	1.128708	-0.375233	0.646531
C21	C	1.073875	-0.307537	0.714457
C22	C	0.964153	-0.307556	0.714470
C23	C	0.909262	-0.375275	0.646548
C24	C	0.964094	-0.442971	0.578622
C25	C	1.073818	-0.442947	0.578618
C26	C	0.964038	-0.578382	0.442783
C27	C	1.073759	-0.578370	0.442774
C28	C	0.909146	-0.646102	0.374861
C29	C	0.963979	-0.713805	0.306939
C30	C	1.073707	-0.713784	0.306929
C31	C	1.128592	-0.646066	0.374848
C32	C	1.518343	-0.786084	0.510664
C33	C	1.518416	-0.903914	0.510689
C34	C	1.599450	-1.071468	0.428609
C35	C	1.599714	-0.948908	0.428810
C36	C	1.548444	-0.948293	0.622432
C37	C	1.549087	-1.070891	0.621997
C38	C	1.407324	-1.071243	0.482127
C39	C	1.407856	-0.948638	0.479621
C40	C	1.792429	-0.510677	0.510703
C41	C	1.909205	-0.510686	0.510709
C42	C	1.518468	-0.510563	0.787195
C43	C	1.518500	-0.510524	0.905025
C44	C	1.518477	-0.234149	0.510738
C45	C	1.518511	-0.116319	0.510758
C46	C	1.518383	-0.510669	0.235260
C47	C	1.518555	-0.510410	0.117430
C48	C	1.437295	-0.592419	0.949889
C49	C	1.437009	-0.592111	1.072449
C50	C	1.488888	-0.398626	1.072933
C51	C	1.488266	-0.399166	0.950335
C52	C	1.629588	-0.539412	0.950208
C53	C	1.629026	-0.541811	1.072814
H54	H	0.819921	-0.375276	0.646556
H55	H	0.819805	-0.646109	0.374874
F56	F	1.245483	-0.375219	0.646534
H57	H	1.492717	-1.100556	0.685312
F58	F	1.132301	-0.235467	0.786740
F59	F	1.706516	-1.111629	0.453083
H60	H	1.407075	-0.374722	0.921743
F61	F	1.563844	-0.316643	1.111013
H62	H	1.118345	-0.768907	0.251612
H63	H	1.355449	-0.573503	0.919082
F64	F	1.461197	-0.701133	0.911358
F65	F	1.329431	-0.567071	1.110793
H66	H	1.217933	-0.646037	0.374841
F67	F	1.575208	-1.110104	0.319991
H68	H	0.919277	-0.768932	0.251637
H69	H	1.580926	-0.918907	0.345954
H70	H	1.408604	-0.373729	1.103641
F71	F	1.707354	-0.910464	0.453567
H72	H	1.630360	-1.099403	0.646249
H73	H	1.544859	-0.336044	0.920656
H74	H	1.380018	-1.102254	0.402064
F75	F	1.473730	-0.910206	0.704579
F76	F	1.653474	-0.908053	0.654664
F77	F	1.378256	-0.910737	0.372139
F78	F	1.664954	-0.644195	0.909799
H79	H	1.651401	-0.624080	1.101893
F80	F	1.324777	-0.908622	0.552093
F81	F	1.328498	-1.109156	0.560330
H82	H	1.455532	-0.674990	1.102534
F83	F	1.712326	-0.469531	1.112835
H84	H	0.919509	-0.252425	0.769775
H85	H	1.690086	-0.479760	0.921202
