data_functionalizedCrystal
_audit_creation_method	'MofGen! by Chris Wilmer'
_symmetry_space_group_name_H-M	'P1'
_symmetry_Int_Tables_number	1
_symmetry_cell_setting	triclinic
loop_
_symmetry_equiv_pos_as_xyz
  x,y,z
_cell_length_a	42.784840
_cell_length_b	42.784893
_cell_length_c	42.790298
_cell_angle_alpha	89.996576
_cell_angle_beta	120.004951
_cell_angle_gamma	60.000201
loop_
_atom_site_label
_atom_site_type_symbol
_atom_site_fract_x
_atom_site_fract_y
_atom_site_fract_z
O1	O	0.275780	-0.266484	0.490086
O2	O	0.211758	-0.221014	0.380637
O3	O	0.275770	-0.221023	0.444635
O4	O	0.211768	-0.266474	0.426088
O5	O	0.223786	-0.169040	0.444634
O6	O	0.159774	-0.169030	0.380637
O7	O	0.223796	-0.214501	0.490086
Cu8	Cu	0.187038	-0.187019	0.435361
Cu9	Cu	0.248516	-0.248495	0.435362
O10	O	0.159784	-0.214491	0.426088
C11	C	0.051258	-0.079383	0.130389
C12	C	0.069884	-0.098272	0.111403
C13	C	-0.005353	-0.022770	0.073797
C14	C	0.013359	-0.041746	0.054897
C15	C	0.051242	-0.079365	0.073790
C16	C	0.013375	-0.041764	0.111411
C17	C	0.096102	-0.113985	0.266873
C18	C	0.116823	-0.131810	0.305523
C19	C	0.155556	-0.169089	0.324908
C20	C	0.178030	-0.188416	0.366818
C21	C	0.173564	-0.188542	0.305640
C22	C	0.152839	-0.170718	0.266992
C23	C	0.114106	-0.133438	0.247608
C24	C	0.153152	-0.171025	0.039217
C25	C	0.173984	-0.188958	0.021400
C26	C	0.156092	-0.169610	-0.015872
C27	C	0.178678	-0.189048	-0.035191
C28	C	0.117363	-0.132326	-0.035328
C29	C	0.096529	-0.114396	-0.017514
C30	C	0.114430	-0.133750	0.019762
C31	C	-0.131594	0.113719	0.039252
C32	C	-0.167348	0.152375	0.021444
C33	C	-0.185292	0.171775	-0.015829
C34	C	-0.224057	0.213690	-0.035139
C35	C	-0.167479	0.152519	-0.035290
C36	C	-0.131725	0.113864	-0.017481
C37	C	-0.113788	0.094466	0.019791
C38	C	0.091639	-0.114112	0.205701
C39	C	0.073729	-0.098708	0.172296
C40	C	-0.044118	0.019143	0.054489
C41	C	-0.075019	0.052551	0.039098
C42	C	0.073832	-0.098806	0.054474
C43	C	0.091837	-0.114304	0.039077
C44	C	0.384472	-0.022867	0.463511
C45	C	0.422352	-0.041850	0.463776
C46	C	0.384472	-0.079465	0.463511
C47	C	0.422352	-0.098362	0.463776
C48	C	0.441070	-0.079465	0.463511
C49	C	0.365839	-0.041850	0.463776
C50	C	0.282544	0.113621	0.453265
C51	C	0.261706	0.152273	0.450368
C52	C	0.279591	0.171663	0.448913
C53	C	0.256995	0.213574	0.445765
C54	C	0.318318	0.152397	0.450359
C55	C	0.339156	0.113747	0.453261
C56	C	0.321267	0.094359	0.454714
C57	C	0.567308	-0.114024	0.453265
C58	C	0.603062	-0.131838	0.450368
C59	C	0.620997	-0.169111	0.448912
C60	C	0.659758	-0.188427	0.445765
C61	C	0.603178	-0.188572	0.450358
C62	C	0.567430	-0.170761	0.453262
C63	C	0.549495	-0.133483	0.454713
C64	C	0.282544	-0.114026	0.453265
C65	C	0.261703	-0.131838	0.450363
C66	C	0.279588	-0.169113	0.448908
C67	C	0.256992	-0.188428	0.445760
C68	C	0.318312	-0.188572	0.450353
C69	C	0.339149	-0.170758	0.453253
C70	C	0.321264	-0.133485	0.454712
C71	C	0.343864	0.052449	0.457857
C72	C	0.361875	0.019043	0.460365
C73	C	0.361875	-0.098779	0.460365
C74	C	0.343864	-0.114173	0.457858
C75	C	0.479832	-0.098778	0.460365
C76	C	0.510730	-0.114172	0.457858
C77	C	-0.005274	-0.356291	0.407212
C78	C	0.013445	-0.393907	0.406947
C79	C	0.051325	-0.356292	0.407212
C80	C	0.069957	-0.393907	0.406947
C81	C	0.051325	-0.412890	0.407212
C82	C	0.013445	-0.337394	0.406947
C83	C	-0.131511	-0.264614	0.417458
C84	C	-0.167265	-0.246674	0.420355
C85	C	-0.185200	-0.266014	0.421810
C86	C	-0.223962	-0.246567	0.424958
C87	C	-0.167381	-0.303294	0.420364
C88	C	-0.131634	-0.321229	0.417462
C89	C	-0.113699	-0.301887	0.416009
C90	C	0.096134	-0.549378	0.417458
C91	C	0.116846	-0.588030	0.420355
C92	C	0.155575	-0.607421	0.421811
C93	C	0.178039	-0.649331	0.424958
C94	C	0.173590	-0.588156	0.420365
C95	C	0.152874	-0.549504	0.417461
C96	C	0.114145	-0.530117	0.416010
C97	C	0.096136	-0.264615	0.417458
C98	C	0.116852	-0.246677	0.420360
C99	C	0.155582	-0.266018	0.421815
C100	C	0.178046	-0.246571	0.424963
C101	C	0.173596	-0.303296	0.420370
C102	C	0.152880	-0.321232	0.417470
C103	C	0.114147	-0.301887	0.416010
C104	C	-0.074934	-0.321339	0.412865
C105	C	-0.044035	-0.336843	0.410358
C106	C	0.073786	-0.336843	0.410358
C107	C	0.091689	-0.321340	0.412865
C108	C	0.073785	-0.454799	0.410358
C109	C	0.091687	-0.488206	0.412865
O110	O	0.763348	-0.266472	0.426089
O111	O	0.672447	-0.221021	0.444635
O112	O	0.672434	-0.221012	0.380637
O113	O	0.763362	-0.266482	0.490086
O114	O	0.672435	-0.169028	0.380637
O115	O	0.672448	-0.169038	0.444635
O116	O	0.763350	-0.214489	0.426088
Cu117	Cu	0.717899	-0.187017	0.435361
Cu118	Cu	0.717898	-0.248493	0.435362
O119	O	0.763363	-0.214498	0.490086
O120	O	-0.327655	0.336960	-0.061188
O121	O	-0.236744	0.227501	-0.015749
O122	O	-0.236741	0.291498	-0.015739
O123	O	-0.327658	0.272963	-0.061197
O124	O	-0.236755	0.291515	-0.067724
O125	O	-0.236759	0.227517	-0.067734
O126	O	-0.327670	0.336977	-0.113172
Cu127	Cu	-0.282216	0.282249	-0.095200
Cu128	Cu	-0.282198	0.282229	-0.033722
O129	O	-0.327673	0.272979	-0.113182
O130	O	0.211764	0.336850	0.426088
O131	O	0.275769	0.227395	0.444634
O132	O	0.211756	0.291405	0.380637
O133	O	0.275777	0.272840	0.490086
O134	O	0.159772	0.291403	0.380637
O135	O	0.223786	0.227393	0.444635
O136	O	0.159781	0.336848	0.426088
Cu137	Cu	0.187037	0.282121	0.435361
Cu138	Cu	0.248513	0.282123	0.435361
O139	O	0.223794	0.272839	0.490086
O140	O	0.223880	-0.214568	-0.113242
O141	O	0.159896	-0.169134	-0.067783
O142	O	0.223894	-0.169131	-0.067782
O143	O	0.159881	-0.214571	-0.113243
O144	O	0.275890	-0.221128	-0.015804
O145	O	0.211891	-0.221130	-0.015805
O146	O	0.275875	-0.266565	-0.061263
Cu147	Cu	0.248630	-0.248595	-0.033788
Cu148	Cu	0.187140	-0.187103	-0.095259
O149	O	0.211876	-0.266568	-0.061265
C150	C	0.440898	-0.412710	0.796936
C151	C	0.422183	-0.393731	0.815833
C152	C	0.384287	-0.356103	0.740339
C153	C	0.365658	-0.337209	0.759322
C154	C	0.384299	-0.356113	0.796936
C155	C	0.422171	-0.393721	0.759322
C156	C	0.567146	-0.549201	0.831496
C157	C	0.602904	-0.587856	0.849310
C158	C	0.620848	-0.607252	0.886585
C159	C	0.659614	-0.649165	0.905899
C160	C	0.603032	-0.587990	0.906045
C161	C	0.567280	-0.549337	0.888232
C162	C	0.549337	-0.529943	0.850957
C163	C	0.339510	-0.321568	0.888613
C164	C	0.318802	-0.303757	0.906553
C165	C	0.280069	-0.266481	0.887215
C166	C	0.257609	-0.247168	0.906661
C167	C	0.262046	-0.247014	0.849936
C168	C	0.282757	-0.264822	0.832000
C169	C	0.321491	-0.302103	0.851343
C170	C	0.339450	-0.321518	0.603855
C171	C	0.318727	-0.303699	0.565203
C172	C	0.279993	-0.266421	0.545814
C173	C	0.257521	-0.247099	0.503904
C174	C	0.261983	-0.246966	0.565078
C175	C	0.282706	-0.264787	0.603728
C176	C	0.321443	-0.302063	0.623116
C177	C	0.510567	-0.488031	0.831644
C178	C	0.479665	-0.454622	0.816249
C179	C	0.361818	-0.336782	0.698431
C180	C	0.343909	-0.321382	0.665026
C181	C	0.361843	-0.336803	0.816385
C182	C	0.343944	-0.321411	0.831889
C183	C	0.384391	-0.022807	0.073786
C184	C	0.365755	-0.041787	0.054890
C185	C	0.441001	-0.079414	0.130384
C186	C	0.422278	-0.098308	0.111402
C187	C	0.384391	-0.079405	0.073787
C188	C	0.422279	-0.041795	0.111401
C189	C	0.339577	0.113685	0.039223
C190	C	0.318862	0.152339	0.021409
C191	C	0.280125	0.171734	-0.015865
C192	C	0.257658	0.213648	-0.035181
C193	C	0.262106	0.152472	-0.035325
C194	C	0.282825	0.113819	-0.017512
C195	C	0.321562	0.094426	0.019764
C196	C	0.282446	-0.113952	-0.017888
C197	C	0.261605	-0.131763	-0.035827
C198	C	0.279491	-0.169040	-0.016489
C199	C	0.256894	-0.188353	-0.035933
C200	C	0.318224	-0.188506	0.020791
C201	C	0.339069	-0.170698	0.038726
C202	C	0.321173	-0.133416	0.019383
C203	C	0.567270	-0.113996	0.266867
C204	C	0.603029	-0.131814	0.305519
C205	C	0.620968	-0.169092	0.324909
C206	C	0.659739	-0.188414	0.366819
C207	C	0.603144	-0.188548	0.305646
C208	C	0.567385	-0.170728	0.266995
C209	C	0.549453	-0.133452	0.247607
C210	C	0.344022	0.052514	0.039077
C211	C	0.361927	0.019105	0.054472
C212	C	0.479772	-0.098733	0.172292
C213	C	0.510678	-0.114133	0.205697
C214	C	0.361791	-0.098715	0.054339
C215	C	0.343776	-0.114108	0.038836
C216	C	1.051407	-0.356360	0.796937
C217	C	1.070042	-0.393978	0.815833
C218	C	0.994795	-0.356349	0.740339
C219	C	1.013517	-0.393967	0.759321
C220	C	1.051404	-0.412957	0.796936
C221	C	1.013519	-0.337456	0.759323
C222	C	1.096227	-0.264690	0.831500
C223	C	1.116944	-0.246754	0.849315
C224	C	1.155681	-0.266101	0.886589
C225	C	1.178150	-0.246658	0.905905
C226	C	1.173698	-0.303384	0.906049
C227	C	1.152978	-0.321315	0.888236
C228	C	1.114241	-0.301967	0.850960
C229	C	1.153345	-0.549459	0.888610
C230	C	1.174184	-0.588113	0.906549
C231	C	1.156297	-0.607500	0.887211
C232	C	1.178892	-0.649412	0.906655
C233	C	1.117563	-0.588228	0.849932
C234	C	1.096720	-0.549573	0.831996
C235	C	1.114617	-0.530191	0.851340
C236	C	0.868529	-0.264646	0.603856
C237	C	0.832769	-0.246700	0.565204
C238	C	0.814829	-0.266036	0.545814
C239	C	0.776058	-0.246581	0.503904
C240	C	0.832651	-0.303317	0.565077
C241	C	0.868410	-0.321261	0.603728
C242	C	0.886344	-0.301920	0.623116
C243	C	1.091779	-0.321414	0.831646
C244	C	1.073873	-0.336915	0.816251
C245	C	0.956024	-0.336892	0.698431
C246	C	0.925119	-0.321382	0.665026
C247	C	1.074003	-0.454869	0.816384
C248	C	1.092016	-0.488277	0.831887
C249	C	0.051261	0.310359	0.074087
C250	C	0.069905	0.310612	0.111703
C251	C	-0.005336	0.310357	0.074087
C252	C	0.013393	0.310610	0.111703
C253	C	0.051278	0.310341	0.130687
C254	C	0.013377	0.310628	0.055190
C255	C	0.096041	0.300144	-0.017595
C256	C	0.116746	0.297254	-0.035536
C257	C	0.155481	0.295795	-0.016196
C258	C	0.177938	0.292654	-0.035644
C259	C	0.173506	0.297230	0.021085
C260	C	0.152797	0.300126	0.039021
C261	C	0.114063	0.301583	0.019679
C262	C	0.153242	0.300055	0.267175
C263	C	0.174090	0.297147	0.305828
C264	C	0.156214	0.295683	0.325219
C265	C	0.178818	0.292524	0.367129
C266	C	0.117483	0.297134	0.305953
C267	C	0.096631	0.300049	0.267301
C268	C	0.114517	0.301507	0.247914
C269	C	-0.131601	0.300134	-0.017595
C270	C	-0.167357	0.297236	-0.035535
C271	C	-0.185286	0.295775	-0.016195
C272	C	-0.224054	0.292631	-0.035643
C273	C	-0.167456	0.297208	0.021085
C274	C	-0.131700	0.300104	0.039022
C275	C	-0.113777	0.301570	0.019677
C276	C	0.091612	0.304719	0.039133
C277	C	0.073715	0.307220	0.054637
C278	C	-0.044103	0.307215	0.054637
C279	C	-0.075007	0.304711	0.039132
C280	C	0.073886	0.307182	0.172597
C281	C	0.091906	0.304665	0.206003
O282	O	0.159911	0.336934	-0.113223
O283	O	0.223926	0.227473	-0.067775
O284	O	0.159927	0.291468	-0.067770
O285	O	0.223910	0.272939	-0.113227
O286	O	0.211922	0.291460	-0.015788
O287	O	0.275921	0.227465	-0.015792
O288	O	0.211906	0.336926	-0.061240
Cu289	Cu	0.248661	0.282195	-0.033770
Cu290	Cu	0.187171	0.282204	-0.095245
O291	O	0.275905	0.272931	-0.061245
C292	C	-0.615692	0.254137	-0.259361
C293	C	-0.634319	0.253865	-0.240378
C294	C	-0.559078	0.254121	-0.202762
C295	C	-0.577790	0.253850	-0.183864
C296	C	-0.615675	0.254118	-0.202761
C297	C	-0.577808	0.253868	-0.240378
C298	C	-0.660541	0.264425	-0.395850
C299	C	-0.681263	0.267334	-0.434502
C300	C	-0.719998	0.268792	-0.453892
C301	C	-0.742473	0.271953	-0.495803
C302	C	-0.738006	0.267339	-0.434626
C303	C	-0.717280	0.264426	-0.395975
C304	C	-0.678545	0.262969	-0.376587
C305	C	-0.717587	0.264349	-0.168197
C306	C	-0.738418	0.267239	-0.150381
C307	C	-0.720524	0.268684	-0.113107
C308	C	-0.743110	0.271824	-0.093789
C309	C	-0.681793	0.267234	-0.093646
C310	C	-0.660959	0.264337	-0.111459
C311	C	-0.678862	0.262897	-0.148738
C312	C	-0.432830	0.264362	-0.168199
C313	C	-0.397074	0.267260	-0.150386
C314	C	-0.379128	0.268703	-0.113110
C315	C	-0.340360	0.271847	-0.093794
C316	C	-0.396941	0.267252	-0.093650
C317	C	-0.432697	0.264355	-0.111465
C318	C	-0.450637	0.262907	-0.148740
C319	C	-0.656076	0.259813	-0.334678
C320	C	-0.638165	0.257296	-0.301271
C321	C	-0.520310	0.257263	-0.183448
C322	C	-0.489407	0.259767	-0.168052
C323	C	-0.638264	0.257258	-0.183447
C324	C	-0.656270	0.259759	-0.168051
H325	H	-0.002284	-0.026530	0.126655
H326	H	0.370679	-0.186604	0.454429
H327	H	0.617405	-0.603536	0.833463
H328	H	0.267874	-0.083598	-0.033641
C329	C	-0.186647	0.173322	0.042584
C330	C	-0.183140	0.204155	0.046037
C331	C	-0.200910	0.223456	0.065513
H332	H	-0.216881	0.182571	0.028700
H333	H	-0.170838	0.156249	0.067343
H334	H	-0.198950	0.221224	0.021282
H335	H	-0.152911	0.194916	0.059924
H336	H	-0.185101	0.206383	0.090272
H337	H	-0.231143	0.232702	0.051626
H338	H	-0.198529	0.244376	0.067861
C339	C	1.054218	-0.243729	0.791004
C340	C	1.061329	-0.264369	0.767109
C341	C	1.022644	-0.245070	0.729801
H342	H	1.030922	-0.241403	0.790959
H343	H	1.046454	-0.218961	0.781946
H344	H	1.069088	-0.289129	0.776165
H345	H	1.084618	-0.266695	0.767142
H346	H	1.014879	-0.220303	0.720743
H347	H	0.999350	-0.242746	0.729760
H348	H	1.027464	-0.259070	0.713583
H349	H	0.333393	-0.319544	0.549520
H350	H	-0.562168	0.253478	-0.255631
C351	C	-0.737047	0.262856	-0.208695
C352	C	-0.747417	0.293871	-0.232587
C353	C	-0.765348	0.292511	-0.269896
H354	H	-0.716119	0.239605	-0.208740
H355	H	-0.763109	0.264151	-0.217755
H356	H	-0.721358	0.292572	-0.223529
H357	H	-0.768348	0.317126	-0.232554
H358	H	-0.791410	0.293806	-0.278956
H359	H	-0.744418	0.269259	-0.269937
H360	H	-0.772390	0.313556	-0.286112
C361	C	-0.780480	0.268839	-0.171583
C362	C	-0.791704	0.266970	-0.208045
C363	C	-0.830455	0.268451	-0.227590
H364	H	-0.775835	0.247832	-0.157727
H365	H	-0.803802	0.292124	-0.173969
H366	H	-0.768388	0.243688	-0.205657
H367	H	-0.796359	0.287976	-0.221911
H368	H	-0.853777	0.291736	-0.229976
H369	H	-0.825806	0.247443	-0.213731
H370	H	-0.838078	0.267187	-0.252333
C371	C	0.337639	-0.228999	0.041722
C372	C	0.347976	-0.252885	0.021066
C373	C	0.365855	-0.290188	0.040333
H374	H	0.363706	-0.238094	0.066489
H375	H	0.316681	-0.229006	0.044030
H376	H	0.368932	-0.252880	0.018762
H377	H	0.321916	-0.243802	-0.003701
H378	H	0.344897	-0.290195	0.042641
H379	H	0.391921	-0.299280	0.065100
H380	H	0.372867	-0.306399	0.026319
H381	H	-0.116990	0.097926	0.069601
H382	H	0.205098	-0.218894	0.321426
H383	H	0.332872	-0.218922	0.449165
C384	C	0.172351	-0.528517	0.415868
C385	C	0.145914	-0.490515	0.413008
C386	C	0.163840	-0.471170	0.411536
H387	H	0.201408	-0.540701	0.438479
H388	H	0.173378	-0.528982	0.394191
H389	H	0.144892	-0.490052	0.434683
H390	H	0.116857	-0.478321	0.390398
H391	H	0.164868	-0.471635	0.389859
H392	H	0.192897	-0.483357	0.434148
H393	H	0.145904	-0.445383	0.409592
H394	H	0.230175	0.167956	0.449189
H395	H	-0.181769	-0.216322	0.421533
C396	C	-0.377381	0.268735	-0.053147
C397	C	-0.332838	0.237717	-0.029260
C398	C	-0.314807	0.239065	0.008054
H399	H	-0.379657	0.291984	-0.053093
H400	H	-0.393085	0.267433	-0.044090
H401	H	-0.317138	0.239021	-0.038315
H402	H	-0.330549	0.214463	-0.029303
H403	H	-0.330511	0.237763	0.017111
H404	H	-0.317086	0.262315	0.008104
H405	H	-0.284584	0.218018	0.024266
C406	C	1.097331	-0.206287	0.828117
C407	C	1.058981	-0.193186	0.791657
C408	C	1.040906	-0.155911	0.772115
H409	H	1.090190	-0.189931	0.841977
H410	H	1.118225	-0.206246	0.825726
H411	H	1.038091	-0.193224	0.794049
H412	H	1.066111	-0.209532	0.777787
H413	H	1.061800	-0.155871	0.769725
H414	H	1.033767	-0.139559	0.785979
H415	H	1.014886	-0.147019	0.747374
H416	H	-0.447436	0.263185	-0.198551
C417	C	0.172406	-0.361674	0.415819
C418	C	0.173879	-0.362370	0.383851
C419	C	0.191859	-0.399617	0.382315
H420	H	0.201481	-0.378544	0.438411
H421	H	0.154522	-0.369595	0.413862
H422	H	0.191763	-0.354453	0.385811
H423	H	0.144809	-0.345507	0.361254
H424	H	0.173975	-0.407538	0.380358
H425	H	0.220933	-0.416484	0.404908
H426	H	0.192857	-0.400093	0.360623
H427	H	0.230509	-0.216661	0.834192
C428	C	-0.675035	0.253404	-0.260740
C429	C	-0.709663	0.286009	-0.293471
C430	C	-0.747185	0.285611	-0.312233
H431	H	-0.668525	0.231122	-0.267956
H432	H	-0.683515	0.253305	-0.244046
H433	H	-0.701184	0.286105	-0.310162
H434	H	-0.716187	0.308296	-0.286266
H435	H	-0.755664	0.285512	-0.295539
H436	H	-0.740669	0.263327	-0.319446
H437	H	-0.770685	0.307734	-0.334441
H438	H	0.371119	0.097898	0.069574
C439	C	-0.186842	0.295605	0.042157
C440	C	-0.163566	0.297470	0.078646
C441	C	-0.181406	0.295988	0.098071
H442	H	-0.217068	0.316613	0.028248
H443	H	-0.184499	0.272320	0.044496
H444	H	-0.165914	0.320752	0.076306
H445	H	-0.133341	0.276463	0.092565
H446	H	-0.179063	0.272703	0.100410
H447	H	-0.211632	0.316996	0.084159
H448	H	-0.165614	0.297249	0.122832
C449	C	-0.377782	0.268810	-0.171569
C450	C	-0.401139	0.266912	-0.208020
C451	C	-0.383374	0.268331	-0.227542
H452	H	-0.380108	0.292079	-0.173978
H453	H	-0.347558	0.247784	-0.157677
H454	H	-0.431355	0.287936	-0.221909
H455	H	-0.398815	0.243645	-0.205622
H456	H	-0.353151	0.247305	-0.213650
H457	H	-0.385701	0.291600	-0.229948
H458	H	-0.399217	0.267040	-0.252275
H459	H	1.065182	-0.533884	0.801645
C460	C	0.172687	0.301566	0.246129
C461	C	0.183047	0.270560	0.232596
C462	C	0.200965	0.271935	0.213210
H463	H	0.151756	0.324822	0.225160
H464	H	0.198752	0.300266	0.263131
H465	H	0.156985	0.271863	0.215595
H466	H	0.203982	0.247299	0.253557
H467	H	0.227030	0.270636	0.230213
H468	H	0.180032	0.295193	0.192244
H469	H	0.208000	0.250897	0.204029
C470	C	0.338478	0.173190	0.042607
C471	C	0.376828	0.147936	0.079066
C472	C	0.394906	0.167131	0.098607
H473	H	0.345619	0.182405	0.028746
H474	H	0.317585	0.194125	0.044997
H475	H	0.397716	0.127008	0.076674
H476	H	0.369698	0.138720	0.092937
H477	H	0.374014	0.188066	0.100998
H478	H	0.402045	0.176345	0.084743
H479	H	0.420926	0.150000	0.123348
C480	C	-0.618476	0.262825	-0.374863
C481	C	-0.607135	0.264709	-0.400003
C482	C	-0.568386	0.263232	-0.380680
H483	H	-0.623168	0.283828	-0.365643
H484	H	-0.595189	0.239537	-0.353924
H485	H	-0.630417	0.287995	-0.420935
H486	H	-0.602434	0.243708	-0.409223
H487	H	-0.545098	0.239943	-0.359741
H488	H	-0.573082	0.284235	-0.371462
H489	H	-0.560684	0.264506	-0.397734
H490	H	1.205237	-0.319132	0.936398
H491	H	0.167502	-0.186559	0.251306
C492	C	0.172638	-0.192110	0.079678
C493	C	0.211002	-0.228600	0.092897
C494	C	0.228958	-0.248034	0.130165
H495	H	0.179737	-0.178204	0.095992
H496	H	0.151694	-0.194451	0.079674
H497	H	0.231941	-0.226257	0.092903
H498	H	0.203914	-0.242517	0.076594
H499	H	0.208015	-0.250375	0.130162
H500	H	0.236055	-0.234125	0.146476
H501	H	0.254988	-0.272796	0.139138
H502	H	0.102176	-0.603713	0.421532
C503	C	0.054089	-0.073488	0.245894
C504	C	0.062677	-0.048709	0.263925
C505	C	0.023985	-0.011403	0.244612
H506	H	0.044289	-0.065601	0.220116
H507	H	0.031816	-0.072876	0.246347
H508	H	0.084942	-0.049320	0.263468
H509	H	0.072471	-0.056584	0.289701
H510	H	0.001713	-0.010790	0.245065
H511	H	0.014189	-0.003520	0.218835
H512	H	0.029806	0.005414	0.256845
C513	C	-0.007616	-0.021356	0.013683
C514	C	-0.044868	0.015719	0.001125
C515	C	-0.064203	0.034509	-0.036839
H516	H	0.013115	-0.020012	0.012177
H517	H	-0.016200	-0.035101	-0.002048
H518	H	-0.036283	0.029460	0.016852
H519	H	-0.065608	0.014386	0.002622
H520	H	-0.072788	0.020764	-0.052570
H521	H	-0.043470	0.035850	-0.038341
H522	H	-0.089483	0.059665	-0.045365
H523	H	-0.181989	-0.319036	0.421545
C524	C	0.054032	-0.528332	0.415796
C525	C	0.021290	-0.529033	0.383822
C526	C	-0.017502	-0.509647	0.382274
H527	H	0.059715	-0.540490	0.438383
H528	H	0.044240	-0.502544	0.413840
H529	H	0.031080	-0.554817	0.385780
H530	H	0.015593	-0.516874	0.361229
H531	H	-0.027294	-0.483858	0.380318
H532	H	-0.011814	-0.521806	0.404863
H533	H	-0.039723	-0.510117	0.360578
H534	H	-0.117226	0.098187	-0.033330
H535	H	0.102159	-0.115969	0.321208
H536	H	0.335267	-0.026540	0.023984
H537	H	0.100365	-0.129183	0.126641
C538	C	0.215651	-0.609276	0.421965
C539	C	0.229943	-0.647251	0.424824
C540	C	0.268692	-0.666721	0.426305
H541	H	0.209952	-0.597144	0.399356
H542	H	0.237943	-0.608861	0.443644
H543	H	0.207656	-0.647664	0.403146
H544	H	0.235651	-0.659394	0.447432
H545	H	0.290985	-0.666306	0.447985
H546	H	0.262990	-0.654585	0.403696
H547	H	0.278397	-0.692489	0.428249
H548	H	0.882913	-0.351614	0.619411
H549	H	0.997853	-0.306547	0.744084
H550	H	0.997842	-0.409201	0.744080
C551	C	0.215636	-0.324226	0.421933
C552	C	0.229918	-0.300538	0.424772
C553	C	0.268638	-0.319803	0.426207
H554	H	0.237951	-0.346940	0.443600
H555	H	0.209895	-0.330643	0.399309
H556	H	0.235661	-0.294126	0.447394
H557	H	0.207613	-0.277824	0.403107
H558	H	0.262897	-0.326220	0.403583
H559	H	0.290950	-0.342516	0.447875
H560	H	0.278331	-0.303733	0.428130
C561	C	-0.780042	0.268899	-0.455604
C562	C	-0.791369	0.266992	-0.430458
C563	C	-0.830089	0.268423	-0.449768
H564	H	-0.803354	0.292174	-0.476548
H565	H	-0.775308	0.247881	-0.464812
H566	H	-0.796106	0.288008	-0.421257
H567	H	-0.768069	0.243719	-0.409514
H568	H	-0.825355	0.247405	-0.458976
H569	H	-0.853397	0.291698	-0.470711
H570	H	-0.837777	0.267126	-0.432709
C571	C	0.220087	0.173560	-0.075812
C572	C	0.227192	0.187111	-0.099701
C573	C	0.188491	0.206543	-0.137001
H574	H	0.212287	0.156591	-0.084904
H575	H	0.196815	0.194525	-0.075819
H576	H	0.250457	0.166149	-0.099696
H577	H	0.234986	0.204085	-0.090622
H578	H	0.165218	0.227508	-0.137007
H579	H	0.180694	0.189571	-0.146088
H580	H	0.193304	0.215743	-0.153213
H581	H	-0.667220	0.268405	-0.063294
C582	C	0.216190	0.295489	0.326746
C583	C	0.248857	0.263522	0.325965
C584	C	0.287647	0.261977	0.345235
H585	H	0.210465	0.318083	0.314548
H586	H	0.226073	0.293523	0.352551
H587	H	0.238975	0.265490	0.300164
H588	H	0.254594	0.240921	0.338165
H589	H	0.297531	0.260012	0.371041
H590	H	0.281918	0.284574	0.333035
H591	H	0.309818	0.240286	0.344711
H592	H	-0.666600	0.268518	-0.450186
C593	C	0.813098	-0.324243	0.543966
C594	C	0.777960	-0.300547	0.505998
C595	C	0.759935	-0.319808	0.486542
H596	H	0.835165	-0.346953	0.544365
H597	H	0.802633	-0.330665	0.556123
H598	H	0.788427	-0.294130	0.493844
H599	H	0.755885	-0.277837	0.505587
H600	H	0.749470	-0.326231	0.498699
H601	H	0.782005	-0.342518	0.486944
H602	H	0.736090	-0.303733	0.460779
H603	H	0.205517	-0.219314	0.037244
H604	H	-0.731944	0.263243	-0.380292
C605	C	-0.556805	0.253237	-0.142643
C606	C	-0.519547	0.253051	-0.130079
C607	C	-0.500198	0.252476	-0.092106
H608	H	-0.577526	0.275304	-0.141123
H609	H	-0.548223	0.230900	-0.126925
H610	H	-0.528129	0.275386	-0.145792
H611	H	-0.498815	0.230985	-0.131589
H612	H	-0.491617	0.230138	-0.076388
H613	H	-0.520923	0.274544	-0.090590
H614	H	-0.474914	0.252346	-0.083575
H615	H	0.617646	-0.603784	0.936394
C616	C	0.325138	-0.021533	0.464256
C617	C	0.290523	-0.019667	0.431671
C618	C	0.253020	-0.000955	0.432094
H619	H	0.331686	-0.035283	0.486548
H620	H	0.316625	0.003651	0.464348
H621	H	0.299035	-0.044846	0.431582
H622	H	0.283962	-0.005915	0.409374
H623	H	0.244507	0.024228	0.432187
H624	H	0.259573	-0.014707	0.454388
H625	H	0.229529	0.000316	0.409984
H626	H	0.065096	0.301232	0.251617
C627	C	0.813469	-0.206217	0.544363
C628	C	0.836823	-0.193119	0.569618
C629	C	0.819052	-0.155824	0.550435
H630	H	0.815793	-0.206130	0.523422
H631	H	0.783246	-0.189887	0.535164
H632	H	0.867039	-0.209444	0.578811
H633	H	0.834501	-0.193196	0.590559
H634	H	0.788829	-0.139494	0.541236
H635	H	0.821377	-0.155741	0.529495
H636	H	0.834892	-0.146931	0.567568
C637	C	-0.112339	-0.361708	0.415912
C638	C	-0.135690	-0.374810	0.417815
C639	C	-0.117925	-0.412099	0.416393
H640	H	-0.114673	-0.361784	0.392643
H641	H	-0.082114	-0.378042	0.436933
H642	H	-0.165908	-0.358480	0.396795
H643	H	-0.133358	-0.374744	0.441082
H644	H	-0.087700	-0.428433	0.437414
H645	H	-0.120259	-0.412172	0.393124
H646	H	-0.133763	-0.420995	0.417687
C647	C	0.263182	0.092979	-0.038694
C648	C	0.224818	0.118238	-0.075145
C649	C	0.206708	0.099056	-0.094666
H650	H	0.284041	0.072037	-0.041103
H651	H	0.256054	0.083780	-0.024801
H652	H	0.231948	0.127432	-0.089034
H653	H	0.203950	0.139181	-0.072747
H654	H	0.199580	0.089857	-0.080774
H655	H	0.227570	0.078114	-0.097072
H656	H	0.180674	0.116192	-0.119399
H657	H	0.437947	-0.026556	0.126639
H658	H	0.335172	-0.306301	0.744080
C659	C	0.547709	-0.073502	0.245787
C660	C	0.503160	-0.049612	0.232239
C661	C	0.485123	-0.012308	0.212813
H662	H	0.563389	-0.064413	0.262758
H663	H	0.550007	-0.073492	0.224823
H664	H	0.500866	-0.049620	0.253200
H665	H	0.487469	-0.058688	0.215263
H666	H	0.487421	-0.012298	0.191849
H667	H	0.500807	-0.003223	0.229787
H668	H	0.454894	0.003906	0.203615
C669	C	-0.618928	0.262787	-0.090276
C670	C	-0.607718	0.264680	-0.053822
C671	C	-0.569005	0.263259	-0.034300
H672	H	-0.595577	0.239519	-0.087870
H673	H	-0.623626	0.283813	-0.104166
H674	H	-0.603017	0.243654	-0.039936
H675	H	-0.631057	0.287946	-0.056217
H676	H	-0.573704	0.284286	-0.048190
H677	H	-0.545658	0.239991	-0.031897
H678	H	-0.561397	0.264547	-0.009566
C679	C	0.622332	-0.110635	0.326360
C680	C	0.598980	-0.074181	0.301105
C681	C	0.616755	-0.054662	0.320288
H682	H	0.620009	-0.108226	0.347301
H683	H	0.652555	-0.124531	0.335558
H684	H	0.568765	-0.060288	0.291913
H685	H	0.601301	-0.076579	0.280163
H686	H	0.646978	-0.068558	0.329485
H687	H	0.614431	-0.052256	0.341228
H688	H	0.600916	-0.029927	0.303154
H689	H	-0.447197	0.263173	-0.095618
H690	H	0.552876	-0.186572	0.251313
C691	C	0.110586	-0.414158	0.406360
C692	C	0.122971	-0.389469	0.406182
C693	C	0.160390	-0.408110	0.405636
H694	H	0.134170	-0.436399	0.428433
H695	H	0.103980	-0.421303	0.384031
H696	H	0.129579	-0.382330	0.428509
H697	H	0.099397	-0.367228	0.384111
H698	H	0.153784	-0.415255	0.383306
H699	H	0.183971	-0.430350	0.427709
H700	H	0.168796	-0.391360	0.405511
H701	H	0.102792	-0.116573	-0.065678
C702	C	-0.112049	0.301665	-0.038528
C703	C	-0.067499	0.270663	-0.017872
C704	C	-0.049469	0.272062	-0.037137
H705	H	-0.127731	0.300377	-0.063297
H706	H	-0.114350	0.324931	-0.040832
H707	H	-0.065201	0.247403	-0.015572
H708	H	-0.051806	0.271945	0.006896
H709	H	-0.051770	0.295328	-0.039441
H710	H	-0.065154	0.270775	-0.061905
H711	H	-0.019240	0.251030	-0.023123
H712	H	0.064995	-0.084042	-0.033358
H713	H	0.102924	0.295948	0.321741
H714	H	0.370989	-0.351872	0.619638
H715	H	0.167474	0.301295	0.069374
H716	H	-0.182093	0.168316	-0.065642
H717	H	1.167649	-0.351669	0.904082
C718	C	0.097125	0.295677	-0.076001
C719	C	0.058780	0.297561	-0.089095
C720	C	0.040696	0.296102	-0.126368
H721	H	0.089976	0.316686	-0.092357
H722	H	0.118017	0.272393	-0.076045
H723	H	0.037891	0.320841	-0.089054
H724	H	0.065916	0.276553	-0.072750
H725	H	0.061588	0.272819	-0.126412
H726	H	0.033550	0.317112	-0.142721
H727	H	0.014679	0.297377	-0.135256
C728	C	0.443176	-0.139572	0.464342
C729	C	0.418659	-0.152131	0.464510
C730	C	0.437827	-0.190088	0.465027
H731	H	0.443324	-0.141057	0.442262
H732	H	0.472663	-0.155317	0.486665
H733	H	0.389180	-0.136391	0.442190
H734	H	0.418510	-0.150655	0.486588
H735	H	0.467313	-0.205833	0.487350
H736	H	0.437973	-0.191570	0.442947
H737	H	0.421197	-0.198616	0.465145
H738	H	0.230067	-0.115911	-0.066178
C739	C	0.443164	-0.021459	0.464324
C740	C	0.418641	0.015621	0.464483
C741	C	0.437797	0.034416	0.464983
H742	H	0.472648	-0.035185	0.486638
H743	H	0.443303	-0.020130	0.442235
H744	H	0.418507	0.014290	0.486570
H745	H	0.389158	0.029357	0.442171
H746	H	0.437935	0.035745	0.442894
H747	H	0.467280	0.020687	0.487297
H748	H	0.421159	0.059578	0.465087
H749	H	0.370687	0.098063	0.454440
H750	H	0.370607	-0.186550	0.069077
H751	H	0.267977	-0.083675	0.454450
C752	C	0.547756	-0.528203	0.791039
C753	C	0.571023	-0.553338	0.777817
C754	C	0.553181	-0.534004	0.740555
H755	H	0.517528	-0.518977	0.774720
H756	H	0.550107	-0.507266	0.791052
H757	H	0.568669	-0.574268	0.777801
H758	H	0.601251	-0.562565	0.794126
H759	H	0.555532	-0.513066	0.740568
H760	H	0.522954	-0.524779	0.724239
H761	H	0.568968	-0.551054	0.731580
C762	C	0.219673	-0.110653	0.448812
C763	C	0.208476	-0.074201	0.450716
C764	C	0.169764	-0.054675	0.449293
H765	H	0.196319	-0.108239	0.425541
H766	H	0.224366	-0.124546	0.469831
H767	H	0.203781	-0.060311	0.429699
H768	H	0.231820	-0.076603	0.473985
H769	H	0.174457	-0.068569	0.470312
H770	H	0.146413	-0.052264	0.426022
H771	H	0.162164	-0.029942	0.450588
H772	H	0.267976	0.097838	0.454449
C773	C	0.443140	-0.414124	0.857040
C774	C	0.480386	-0.451203	0.869598
C775	C	0.499702	-0.469999	0.907554
H776	H	0.451733	-0.400398	0.872788
H777	H	0.422384	-0.415454	0.858520
H778	H	0.501138	-0.449872	0.868121
H779	H	0.471805	-0.464940	0.853861
H780	H	0.478946	-0.471329	0.909034
H781	H	0.508292	-0.456270	0.923298
H782	H	0.524973	-0.495160	0.916079
C783	C	1.172826	-0.528476	0.909683
C784	C	1.211197	-0.553621	0.946171
C785	C	1.229151	-0.534303	0.965593
H786	H	1.179918	-0.519257	0.895771
H787	H	1.151885	-0.507534	0.912024
H788	H	1.232135	-0.574556	0.943828
H789	H	1.204117	-0.562841	0.960092
H790	H	1.208209	-0.513362	0.967935
H791	H	1.236240	-0.525085	0.951679
H792	H	1.255185	-0.551360	0.990354
C793	C	-0.007471	0.311224	0.013974
C794	C	0.017037	0.311405	0.001412
C795	C	-0.002157	0.311958	-0.036554
H796	H	-0.007635	0.289150	0.012467
H797	H	-0.036953	0.333556	-0.001755
H798	H	0.046511	0.289076	0.017135
H799	H	0.017202	0.333477	0.002909
H800	H	-0.031639	0.334289	-0.052282
H801	H	-0.002320	0.289884	-0.038056
H802	H	0.014466	0.312084	-0.045083
C803	C	0.622695	-0.229028	0.326756
C804	C	0.657834	-0.240476	0.364725
C805	C	0.675858	-0.277764	0.384180
H806	H	0.600629	-0.229672	0.326358
H807	H	0.633161	-0.245915	0.314599
H808	H	0.647368	-0.223594	0.376879
H809	H	0.679910	-0.239841	0.365135
H810	H	0.686323	-0.294651	0.372023
H811	H	0.653789	-0.278404	0.383779
H812	H	0.699704	-0.285537	0.409943
C813	C	0.337654	0.173520	0.448756
C814	C	0.311111	0.211495	0.445896
C815	C	0.328908	0.230965	0.444413
H816	H	0.366703	0.161388	0.471364
H817	H	0.338675	0.173104	0.427076
H818	H	0.310095	0.211909	0.467574
H819	H	0.282062	0.223637	0.423289
H820	H	0.329929	0.230550	0.422733
H821	H	0.357957	0.218830	0.467021
H822	H	0.310900	0.256734	0.442469
C823	C	0.547987	-0.528498	0.909415
C824	C	0.571344	-0.553757	0.945866
C825	C	0.553579	-0.534575	0.965388
H826	H	0.550313	-0.507556	0.911824
H827	H	0.517763	-0.519298	0.895523
H828	H	0.601560	-0.562951	0.959755
H829	H	0.569019	-0.574699	0.943468
H830	H	0.523355	-0.525376	0.951496
H831	H	0.555906	-0.513634	0.967795
H832	H	0.569421	-0.551712	0.990121
H833	H	-0.117185	0.301271	0.069376
C834	C	0.443128	-0.414097	0.739069
C835	C	0.480383	-0.451175	0.763756
C836	C	0.499699	-0.469954	0.745113
H837	H	0.422389	-0.415434	0.716833
H838	H	0.451707	-0.400348	0.731917
H839	H	0.471803	-0.464920	0.770902
H840	H	0.501132	-0.449849	0.785992
H841	H	0.508278	-0.456205	0.737962
H842	H	0.478957	-0.471289	0.722878
H843	H	0.524981	-0.495112	0.761862
C844	C	0.215573	0.295622	0.042026
C845	C	0.229859	0.292770	0.018343
C846	C	0.268615	0.291281	0.037624
H847	H	0.209885	0.318227	0.048465
H848	H	0.237865	0.273935	0.064729
H849	H	0.207572	0.314454	-0.004354
H850	H	0.235556	0.270165	0.011902
H851	H	0.290907	0.269595	0.060328
H852	H	0.262923	0.313887	0.044063
H853	H	0.278315	0.289342	0.021560
H854	H	0.552710	-0.083673	0.454449
C855	C	0.887963	-0.243639	0.624945
C856	C	0.884471	-0.240269	0.655786
C857	C	0.902367	-0.220918	0.675219
H858	H	0.918201	-0.257576	0.634197
H859	H	0.872226	-0.218857	0.607954
H860	H	0.900209	-0.265047	0.672774
H861	H	0.854238	-0.226329	0.646544
H862	H	0.886629	-0.196135	0.658228
H863	H	0.932603	-0.234856	0.684468
H864	H	0.899996	-0.218625	0.696144
H865	H	0.371049	-0.351922	0.904366
H866	H	-0.002228	-0.409143	0.406514
C867	C	-0.111983	-0.243676	0.415870
C868	C	-0.076860	-0.267362	0.413023
C869	C	-0.058861	-0.248087	0.411556
H870	H	-0.134066	-0.220968	0.394196
H871	H	-0.101508	-0.237247	0.438487
H872	H	-0.087335	-0.273786	0.390409
H873	H	-0.054768	-0.290070	0.434694
H874	H	-0.048387	-0.241658	0.434172
H875	H	-0.080948	-0.225380	0.389881
H876	H	-0.035026	-0.264157	0.409627
H877	H	0.268082	-0.248970	0.801648
C878	C	0.622327	-0.110638	0.448779
C879	C	0.598961	-0.074178	0.450661
C880	C	0.616690	-0.054636	0.449192
H881	H	0.652550	-0.124502	0.469783
H882	H	0.619972	-0.108244	0.425495
H883	H	0.601319	-0.076575	0.473942
H884	H	0.568738	-0.060304	0.429658
H885	H	0.614336	-0.052241	0.425908
H886	H	0.646913	-0.068503	0.470197
H887	H	0.600836	-0.029895	0.450465
C888	C	0.622560	-0.229018	0.448719
C889	C	0.589871	-0.229784	0.416756
C890	C	0.607706	-0.267036	0.415232
H891	H	0.646391	-0.236877	0.446762
H892	H	0.632994	-0.245910	0.471323
H893	H	0.579444	-0.212897	0.394157
H894	H	0.566038	-0.221933	0.418706
H895	H	0.618141	-0.283928	0.437837
H896	H	0.631538	-0.274891	0.413276
H897	H	0.585529	-0.267561	0.393548
C898	C	0.548174	-0.191956	0.454887
C899	C	0.580929	-0.225420	0.486843
C900	C	0.563208	-0.244958	0.488349
H901	H	0.524323	-0.176059	0.456843
H902	H	0.537791	-0.198414	0.432278
H903	H	0.591305	-0.218962	0.509447
H904	H	0.604782	-0.241328	0.484895
H905	H	0.552825	-0.251415	0.465739
H906	H	0.539357	-0.229057	0.490303
H907	H	0.585430	-0.267667	0.510028
H908	H	-0.002273	0.311035	0.126941
C909	C	-0.007353	-0.296196	0.406415
C910	C	0.017174	-0.283645	0.406254
C911	C	-0.001962	-0.245700	0.405775
H912	H	-0.036841	-0.280425	0.384109
H913	H	-0.007476	-0.294743	0.428512
H914	H	0.017292	-0.285095	0.384159
H915	H	0.046661	-0.299405	0.428558
H916	H	-0.002086	-0.244247	0.427873
H917	H	-0.031450	-0.229933	0.383469
H918	H	0.014678	-0.237181	0.405670
C919	C	0.338424	-0.324962	0.947018
C920	C	0.376770	-0.361423	0.960113
C921	C	0.394855	-0.380970	0.997386
H922	H	0.345571	-0.311102	0.963374
H923	H	0.317532	-0.327354	0.947063
H924	H	0.397657	-0.359029	0.960071
H925	H	0.369635	-0.375293	0.943768
H926	H	0.373964	-0.383362	0.997430
H927	H	0.402000	-0.367107	1.013738
H928	H	0.420873	-0.405712	1.006274
H929	H	0.102183	-0.216325	0.421538
H930	H	1.100528	-0.409222	0.846740
H931	H	0.064594	-0.248859	0.416264
C932	C	0.263099	-0.243592	0.624582
C933	C	0.224751	-0.207128	0.599334
C934	C	0.206680	-0.187590	0.618532
H935	H	0.255957	-0.257455	0.633795
H936	H	0.283996	-0.241204	0.645517
H937	H	0.203858	-0.209517	0.578406
H938	H	0.231881	-0.193255	0.590120
H939	H	0.227577	-0.185202	0.639467
H940	H	0.199540	-0.201456	0.627744
H941	H	0.180661	-0.162846	0.601405
H942	H	0.100393	0.311029	0.126945
C943	C	0.219941	-0.206484	0.543969
C944	C	0.205653	-0.195035	0.506001
C945	C	0.166933	-0.157745	0.486548
H946	H	0.197628	-0.205837	0.544367
H947	H	0.225684	-0.189600	0.556128
H948	H	0.199908	-0.211914	0.493845
H949	H	0.227955	-0.195673	0.505592
H950	H	0.172676	-0.140861	0.498707
H951	H	0.144623	-0.157101	0.486949
H952	H	0.157236	-0.149970	0.460785
C953	C	0.443248	-0.139527	0.131780
C954	C	0.480507	-0.152095	0.168852
C955	C	0.499837	-0.190064	0.187631
H956	H	0.422517	-0.141034	0.133122
H957	H	0.451825	-0.155253	0.118030
H958	H	0.471929	-0.136373	0.182598
H959	H	0.501247	-0.150598	0.167521
H960	H	0.508413	-0.205791	0.173882
H961	H	0.479103	-0.191567	0.188971
H962	H	0.525121	-0.198598	0.212786
H963	H	1.205721	-0.603802	0.936901
H964	H	-0.181870	0.296067	-0.065888
C965	C	1.098220	-0.609345	0.828988
C966	C	1.124768	-0.647324	0.852668
C967	C	1.106970	-0.666791	0.833385
H968	H	1.069174	-0.597217	0.822550
H969	H	1.097193	-0.608920	0.806284
H970	H	1.125790	-0.647746	0.875366
H971	H	1.153815	-0.659462	0.859108
H972	H	1.105942	-0.666367	0.810681
H973	H	1.077923	-0.654661	0.826947
H974	H	1.124981	-0.692563	0.849447
H975	H	0.064501	0.301332	-0.033348
