data_functionalizedCrystal
_audit_creation_method	'MofGen! by Chris Wilmer'
_symmetry_space_group_name_H-M	'P1'
_symmetry_Int_Tables_number	1
_symmetry_cell_setting	triclinic
loop_
_symmetry_equiv_pos_as_xyz
  x,y,z
_cell_length_a	10.686220
_cell_length_b	10.686285
_cell_length_c	10.685880
_cell_angle_alpha	89.638885
_cell_angle_beta	89.641569
_cell_angle_gamma	90.345431
loop_
_atom_site_label
_atom_site_type_symbol
_atom_site_fract_x
_atom_site_fract_y
_atom_site_fract_z
Zn1	Zn	1.999728	-0.389334	-0.530460
Zn2	Zn	1.997195	-0.583279	-0.304810
Zn3	Zn	1.774036	-0.391875	-0.336574
Zn4	Zn	1.805850	-0.614981	-0.527983
O5	O	1.894202	-0.494867	-0.424957
O6	O	2.173923	-0.400730	-0.488270
O7	O	1.953219	-0.545686	-0.134483
O8	O	1.791721	-0.217001	-0.376623
O9	O	2.172063	-0.543221	-0.322486
O10	O	1.957535	-0.215133	-0.519070
O11	O	1.789265	-0.405062	-0.157820
O12	O	1.603725	-0.435802	-0.374222
O13	O	1.845942	-0.597252	-0.702853
O14	O	1.627098	-0.599717	-0.514849
O15	O	1.988383	-0.431470	-0.704672
O16	O	1.984067	-0.762022	-0.320085
O17	O	1.843486	-0.785313	-0.484049
C18	C	1.570158	-0.521476	-0.447714
C19	C	1.431534	-0.532892	-0.457477
C20	C	1.916990	-0.818922	-0.398376
C21	C	1.926856	-0.957548	-0.387038
C22	C	2.219512	-0.468155	-0.402111
C23	C	2.358140	-0.456772	-0.392376
C24	C	1.920993	-0.517614	-0.750284
C25	C	1.932410	-0.527307	-0.888919
C26	C	1.871362	-0.169546	-0.451666
C27	C	1.861628	-0.030914	-0.463048
C28	C	1.867581	-0.472114	-0.100897
C29	C	1.856381	-0.462049	0.037725
H30	H	1.388314	-0.606806	-0.520679
O31	O	1.786095	-0.979480	-0.551200
C32	C	1.740085	-0.959110	-0.770830
C33	C	1.825702	-1.017474	-0.671124
H34	H	1.772092	-0.989784	-0.867813
H35	H	1.639514	-0.991499	-0.753941
H36	H	1.745316	-0.852753	-0.764546
H37	H	1.820579	-1.123834	-0.677350
H38	H	1.926235	-0.984986	-0.688046
H39	H	2.006246	-0.590598	-0.932182
H40	H	1.401355	-0.382871	-0.329169
O41	O	1.768399	-0.386565	-0.910476
C42	C	1.676324	-0.307853	-0.720425
C43	C	1.776039	-0.393364	-0.778932
H44	H	1.682449	-0.313342	-0.614064
H45	H	1.693237	-0.207213	-0.752594
H46	H	1.579394	-0.339770	-0.751317
H47	H	1.873009	-0.361561	-0.748067
H48	H	1.759016	-0.493987	-0.746766
H49	H	1.990242	-1.000795	-0.313276
