data_functionalizedCrystal
_audit_creation_method	'MofGen! by Chris Wilmer'
_symmetry_space_group_name_H-M	'P1'
_symmetry_Int_Tables_number	1
_symmetry_cell_setting	triclinic
loop_
_symmetry_equiv_pos_as_xyz
  x,y,z
_cell_length_a	15.944551
_cell_length_b	15.944545
_cell_length_c	15.021413
_cell_angle_alpha	89.995468
_cell_angle_beta	90.003065
_cell_angle_gamma	83.497455
loop_
_atom_site_label
_atom_site_type_symbol
_atom_site_fract_x
_atom_site_fract_y
_atom_site_fract_z
O1	O	0.108296	1.114532	-0.073976
O2	O	0.608296	1.614532	0.426024
O3	O	0.121657	0.869982	-0.073991
O4	O	0.621657	1.369982	0.426009
O5	O	-0.007298	0.998935	-0.073975
O6	O	0.492702	1.498935	0.426025
O7	O	0.237252	0.985579	-0.073992
O8	O	0.737252	1.485579	0.426008
O9	O	-0.007280	0.998915	0.074089
O10	O	0.492720	1.498915	0.574089
O11	O	0.121676	0.869961	0.074073
O12	O	0.621676	1.369961	0.574073
O13	O	0.108314	1.114512	0.074088
O14	O	0.608314	1.614512	0.574088
Zn15	Zn	0.114998	0.992233	0.097589
Zn16	Zn	0.614998	1.492233	0.597589
Zn17	Zn	0.114974	0.992260	-0.097492
Zn18	Zn	0.614974	1.492260	0.402508
O19	O	0.237270	0.985558	0.074072
O20	O	0.737270	1.485558	0.574072
C21	C	0.121113	0.838677	0.000039
C22	C	0.621113	1.338677	0.500039
C23	C	0.119453	0.745431	0.000034
C24	C	0.619453	1.245431	0.500034
C25	C	0.034559	0.474798	0.000049
C26	C	0.534559	0.974798	0.500049
C27	C	0.075497	0.525370	0.073052
C28	C	0.575497	1.025370	0.573052
C29	C	0.113532	0.409787	0.000050
C30	C	0.613532	0.909787	0.500050
C31	C	0.075500	0.525371	-0.072928
C32	C	0.575500	1.025371	0.427072
C33	C	0.116437	0.574701	0.000040
C34	C	0.616437	1.074701	0.500040
C35	C	0.154449	0.459131	0.073113
C36	C	0.654449	0.959131	0.573113
C37	C	0.154440	0.459128	-0.072933
C38	C	0.654440	0.959128	0.427067
C39	C	0.195436	0.509667	0.000088
C40	C	0.695436	1.009667	0.500088
C41	C	0.111856	0.314785	0.000056
C42	C	0.611856	0.814785	0.500056
C43	C	0.118119	0.669700	0.000041
C44	C	0.618119	1.169700	0.500041
C45	C	-0.038583	0.998370	0.000057
C46	C	0.461417	1.498370	0.500057
C47	C	-0.131829	0.996708	0.000057
C48	C	0.368171	1.496708	0.500057
C49	C	-0.346684	0.912803	0.000040
C50	C	0.153316	1.412803	0.500040
C51	C	-0.407693	0.951756	0.073047
C52	C	0.092307	1.451756	0.573047
C53	C	-0.302555	0.993701	0.000050
C54	C	0.197445	1.493701	0.500050
C55	C	-0.407695	0.951795	-0.072933
C56	C	0.092305	1.451795	0.427067
C57	C	-0.467468	0.990790	0.000040
C58	C	0.032532	1.490790	0.500040
C59	C	-0.362336	1.032675	0.073118
C60	C	0.137664	1.532675	0.573118
C61	C	-0.362331	1.032703	-0.072928
C62	C	0.137669	1.532703	0.427072
C63	C	-0.423322	1.071715	0.000097
C64	C	0.076678	1.571715	0.500097
C65	C	-0.207553	0.995375	0.000057
C66	C	0.292447	1.495375	0.500057
C67	C	-0.562469	0.989122	0.000039
C68	C	-0.062469	1.489122	0.500039
C69	C	0.268555	0.986123	0.000038
C70	C	0.768555	1.486123	0.500038
C71	C	0.361801	0.987785	0.000032
C72	C	0.861801	1.487785	0.500032
C73	C	0.108859	1.145816	0.000056
C74	C	0.608859	1.645816	0.500056
C75	C	0.110519	1.239062	0.000055
C76	C	0.610519	1.739062	0.500055
N77	N	0.115014	0.992221	0.230727
N78	N	0.615014	1.492221	0.730727
N79	N	0.114951	0.992279	-0.230630
N80	N	0.614951	1.492279	0.269370
C81	C	0.174615	0.932584	0.470402
C82	C	0.674615	1.432584	0.970402
C83	C	0.190920	1.008484	0.529740
C84	C	0.690920	1.508484	1.029740
C85	C	0.114993	0.992242	0.412333
C86	C	0.614993	1.492242	0.912333
C87	C	0.098706	0.916362	0.529737
C88	C	0.598706	1.416362	1.029737
C89	C	0.114975	0.992256	0.587757
C90	C	0.614975	1.492256	1.087757
C91	C	0.131336	1.068181	0.470365
C92	C	0.631336	1.568181	0.970365
C93	C	0.039089	0.976009	0.470357
C94	C	0.539089	1.476009	0.970357
C95	C	0.055362	1.051965	0.529668
C96	C	0.555362	1.551965	1.029668
C97	C	0.115006	0.992233	0.311276
C98	C	0.615006	1.492233	0.811276
C99	C	0.114961	0.992274	0.688813
C100	C	0.614961	1.492274	1.188813
H101	H	-0.033453	0.459145	0.000125
H102	H	0.466547	0.959145	0.500125
N103	N	0.241444	0.865822	0.435915
N104	N	0.741444	1.365822	0.935915
H105	H	0.229735	0.808608	0.458442
H106	H	0.729735	1.308608	0.958442
H107	H	0.298727	0.878275	0.457522
H108	H	0.798727	1.378275	0.957522
N109	N	0.198593	0.420966	0.154962
N110	N	0.698593	0.920966	0.654962
H111	H	0.219723	0.467087	0.192007
H112	H	0.719723	0.967087	0.692007
H113	H	0.247861	0.379204	0.136378
H114	H	0.747861	0.879204	0.636378
N115	N	0.031346	0.563695	0.154812
N116	N	0.531346	1.063695	0.654812
H117	H	0.060569	0.538655	0.209943
H118	H	0.560569	1.038655	0.709943
H119	H	-0.029385	0.551304	0.154693
H120	H	0.470615	1.051304	0.654693
N121	N	0.031297	0.563691	-0.154674
N122	N	0.531297	1.063691	0.345326
H123	H	0.009632	0.517709	-0.191489
H124	H	0.509632	1.017709	0.308511
H125	H	0.072325	0.593208	-0.191188
H126	H	0.572325	1.093208	0.308812
N127	N	-0.434321	0.906470	-0.154685
N128	N	0.065679	1.406470	0.345315
H129	H	-0.406154	0.846453	-0.154619
H130	H	0.093846	1.346453	0.345381
H131	H	-0.417015	0.936489	-0.209779
H132	H	0.082985	1.436489	0.290221
H133	H	0.084940	0.852186	0.555820
H134	H	0.584940	1.352186	1.055820
H135	H	-0.025073	0.962243	0.444252
H136	H	0.474927	1.462243	0.944252
N137	N	-0.434318	0.906416	0.154793
N138	N	0.065682	1.406416	0.654793
H139	H	-0.497627	0.906109	0.154482
H140	H	0.002373	1.406109	0.654482
H141	H	-0.416955	0.936389	0.209890
H142	H	0.083045	1.436389	0.709890
H143	H	0.263501	0.525159	0.000126
H144	H	0.763501	1.025159	0.500126
N145	N	0.198575	0.420790	-0.154689
N146	N	0.698575	0.920790	0.345311
H147	H	0.168670	0.445004	-0.209806
H148	H	0.668670	0.945004	0.290194
H149	H	0.197599	0.357573	-0.153685
H150	H	0.697599	0.857573	0.346315
H151	H	-0.313375	0.845655	0.000109
H152	H	0.186625	1.345655	0.500109
H153	H	-0.456483	1.138922	0.000142
H154	H	0.043517	1.638922	0.500142
H155	H	0.255103	1.022227	0.555824
H156	H	0.755103	1.522227	1.055824
H157	H	0.004931	1.102477	0.555526
H158	H	0.504931	1.602477	1.055526
H159	H	-0.342338	1.066854	0.134907
H160	H	0.157662	1.566854	0.634907
N161	N	-0.335677	1.078000	-0.154684
N162	N	0.164323	1.578000	0.345316
H163	H	-0.294757	1.038540	-0.190622
H164	H	0.205243	1.538540	0.309378
H165	H	-0.307499	1.128836	-0.136015
H166	H	0.192501	1.628836	0.363985
N167	N	0.149670	1.153212	0.435975
N168	N	0.649670	1.653212	0.935975
H169	H	0.149588	1.152675	0.368741
H170	H	0.649588	1.652675	0.868741
H171	H	0.206790	1.165568	0.458166
H172	H	0.706790	1.665568	0.958166
