data_functionalizedCrystal
_audit_creation_method	'MofGen! by Chris Wilmer'
_symmetry_space_group_name_H-M	'P1'
_symmetry_Int_Tables_number	1
_symmetry_cell_setting	triclinic
loop_
_symmetry_equiv_pos_as_xyz
  x,y,z
_cell_length_a	9.730223
_cell_length_b	19.288864
_cell_length_c	19.288865
_cell_angle_alpha	83.136245
_cell_angle_beta	89.993453
_cell_angle_gamma	89.985960
loop_
_atom_site_label
_atom_site_type_symbol
_atom_site_fract_x
_atom_site_fract_y
_atom_site_fract_z
O1	O	0.114746	-0.921344	-0.086645
O2	O	0.448080	-0.588011	0.246689
O3	O	0.781413	-0.254678	0.580022
O4	O	0.114654	-0.719084	-0.098333
O5	O	0.447988	-0.385750	0.235000
O6	O	0.781321	-0.052417	0.568333
O7	O	0.114676	-0.826058	0.008641
O8	O	0.448009	-0.492725	0.341975
O9	O	0.781342	-0.159392	0.675308
O10	O	0.114725	-0.814370	-0.193619
O11	O	0.448058	-0.481036	0.139714
O12	O	0.781392	-0.147703	0.473047
O13	O	-0.113904	-0.826057	0.008639
O14	O	0.219429	-0.492724	0.341972
O15	O	0.552762	-0.159390	0.675305
O16	O	-0.113926	-0.719082	-0.098336
O17	O	0.219408	-0.385749	0.234997
O18	O	0.552741	-0.052416	0.568331
O19	O	-0.113834	-0.921343	-0.086647
O20	O	0.219500	-0.588010	0.246686
O21	O	0.552833	-0.254676	0.580019
Zn22	Zn	-0.150172	-0.820213	-0.092492
Zn23	Zn	0.183162	-0.486879	0.240841
Zn24	Zn	0.516495	-0.153546	0.574175
Zn25	Zn	0.150992	-0.820214	-0.092489
Zn26	Zn	0.484326	-0.486881	0.240845
Zn27	Zn	0.817659	-0.153548	0.574178
O28	O	-0.113855	-0.814368	-0.193622
O29	O	0.219478	-0.481035	0.139711
O30	O	0.552812	-0.147702	0.473045
C31	C	0.000352	-0.693207	-0.097959
C32	C	0.333686	-0.359873	0.235375
C33	C	0.667019	-0.026540	0.568708
C34	C	0.000316	-0.616103	-0.096830
C35	C	0.333649	-0.282770	0.236504
C36	C	0.666983	0.050564	0.569837
N37	N	-0.355708	-0.820216	-0.092494
N38	N	-0.022375	-0.486883	0.240839
N39	N	0.310959	-0.153550	0.574173
C40	C	0.000382	-0.825682	0.034516
C41	C	0.333715	-0.492348	0.367850
C42	C	0.667048	-0.159015	0.701183
C43	C	0.000369	-0.824553	0.111620
C44	C	0.333702	-0.491219	0.444953
C45	C	0.667036	-0.157886	0.778287
C46	C	-0.427625	-0.867597	-0.045142
C47	C	-0.094291	-0.534263	0.288192
C48	C	0.239042	-0.200930	0.621525
C49	C	-0.571508	-0.867595	-0.045133
C50	C	-0.238174	-0.534262	0.288200
C51	C	0.095159	-0.200928	0.621534
C52	C	-0.571545	-0.772830	-0.139836
C53	C	-0.238211	-0.439497	0.193497
C54	C	0.095122	-0.106164	0.526831
C55	C	-0.427664	-0.772829	-0.139841
C56	C	-0.094331	-0.439496	0.193493
C57	C	0.239002	-0.106163	0.526826
C58	C	-0.355668	-0.914984	0.002205
C59	C	-0.022335	-0.581651	0.335538
C60	C	0.310998	-0.248317	0.668871
C61	C	-0.427585	-0.962369	0.049561
C62	C	-0.094252	-0.629035	0.382894
C63	C	0.239082	-0.295702	0.716227
C64	C	-0.571468	-0.962367	0.049569
C65	C	-0.238135	-0.629034	0.382902
C66	C	0.095199	-0.295700	0.716236
C67	C	-0.643434	-0.914980	0.002222
C68	C	-0.310101	-0.581647	0.335555
C69	C	0.023232	-0.248314	0.668888
N70	N	0.356529	-0.820216	-0.092481
N71	N	0.689862	-0.486882	0.240852
N72	N	1.023195	-0.153549	0.574186
C73	C	0.000471	-0.947220	-0.087022
C74	C	0.333805	-0.613887	0.246311
C75	C	0.667138	-0.280553	0.579645
C76	C	0.000517	-1.024324	-0.088151
C77	C	0.333850	-0.690990	0.245182
C78	C	0.667183	-0.357657	0.578516
C79	C	0.000353	-0.571407	-0.159598
C80	C	0.333686	-0.238073	0.173736
C81	C	0.667020	0.095260	0.507069
C82	C	0.000368	-0.498960	-0.158537
C83	C	0.333701	-0.165626	0.174796
C84	C	0.667034	0.167707	0.508130
C85	C	0.000373	-0.471212	-0.094705
C86	C	0.333707	-0.137879	0.238629
C87	C	0.667040	0.195455	0.571962
C88	C	0.000329	-0.515918	-0.031929
C89	C	0.333662	-0.182585	0.301405
C90	C	0.666996	0.150748	0.634738
C91	C	0.000300	-0.588364	-0.032991
C92	C	0.333633	-0.255030	0.300342
C93	C	0.666967	0.078303	0.633676
C94	C	0.080489	-0.362951	-0.044525
C95	C	0.413822	-0.029617	0.288809
C96	C	0.747156	0.303716	0.622142
C97	C	0.080526	-0.290506	-0.043465
C98	C	0.413860	0.042827	0.289869
C99	C	0.747193	0.376161	0.623202
C100	C	0.000456	-0.247767	-0.091425
C101	C	0.333789	0.085567	0.241908
C102	C	0.667123	0.418900	0.575242
C103	C	-0.079634	-0.277479	-0.140457
C104	C	0.253699	0.055855	0.192876
C105	C	0.587033	0.389188	0.526210
C106	C	-0.079663	-0.349924	-0.141520
C107	C	0.253670	-0.016591	0.191814
C108	C	0.587004	0.316742	0.525147
C109	C	0.000404	-0.392658	-0.093546
C110	C	0.333737	-0.059325	0.239788
C111	C	0.667070	0.274009	0.573121
C112	C	0.000507	-0.124514	-0.153047
C113	C	0.333840	0.208819	0.180286
C114	C	0.667174	0.542152	0.513619
C115	C	0.000513	-0.052066	-0.151984
C116	C	0.333847	0.281267	0.181349
C117	C	0.667180	0.614600	0.514683
C118	C	0.000488	-0.069026	-0.025374
C119	C	0.333822	0.264307	0.307960
C120	C	0.667155	0.597640	0.641293
C121	C	0.000468	-0.141473	-0.026439
C122	C	0.333801	0.191861	0.306894
C123	C	0.667135	0.525194	0.640228
C124	C	0.000484	-0.169212	-0.090278
C125	C	0.333817	0.164121	0.243056
C126	C	0.667151	0.497455	0.576389
C127	C	0.000442	-0.814745	-0.219497
C128	C	0.333776	-0.481412	0.113836
C129	C	0.667109	-0.148078	0.447170
C130	C	0.000464	-0.815874	-0.296601
C131	C	0.333797	-0.482541	0.036733
C132	C	0.667131	-0.149207	0.370066
C133	C	0.000391	-0.887321	0.156316
C134	C	0.333724	-0.553987	0.489650
C135	C	0.667057	-0.220654	0.822983
C136	C	0.000412	-0.886260	0.228763
C137	C	0.333745	-0.552926	0.562097
C138	C	0.667079	-0.219593	0.895430
C139	C	0.000384	-0.822428	0.256511
C140	C	0.333717	-0.489094	0.589844
C141	C	0.667051	-0.155761	0.923178
C142	C	0.000370	-0.759652	0.211805
C143	C	0.333703	-0.426318	0.545138
C144	C	0.667036	-0.092985	0.878471
C145	C	0.000362	-0.760714	0.139359
C146	C	0.333696	-0.427381	0.472693
C147	C	0.667029	-0.094047	0.806026
C148	C	-0.079706	-0.772248	0.364797
C149	C	0.253628	-0.438914	0.698131
C150	C	0.586961	-0.105581	1.031464
C151	C	-0.079707	-0.771188	0.437242
C152	C	0.253627	-0.437855	0.770575
C153	C	0.586960	-0.104521	1.103908
C154	C	0.000413	-0.819148	0.479956
C155	C	0.333746	-0.485815	0.813290
C156	C	0.667080	-0.152481	1.146623
C157	C	0.080516	-0.868180	0.450219
C158	C	0.413849	-0.534847	0.783553
C159	C	0.747183	-0.201513	1.116886
C160	C	0.080509	-0.869242	0.377774
C161	C	0.413842	-0.535909	0.711107
C162	C	0.747175	-0.202576	1.044440
C163	C	0.000393	-0.821269	0.335065
C164	C	0.333726	-0.487935	0.668398
C165	C	0.667059	-0.154602	1.001732
C166	C	0.000460	-0.880770	0.603209
C167	C	0.333793	-0.547437	0.936542
C168	C	0.667127	-0.214103	1.269875
C169	C	0.000490	-0.879707	0.675657
C170	C	0.333823	-0.546373	1.008990
C171	C	0.667156	-0.213040	1.342323
C172	C	0.000434	-0.753097	0.658697
C173	C	0.333767	-0.419763	0.992030
C174	C	0.667100	-0.086430	1.325363
C175	C	0.000418	-0.754162	0.586250
C176	C	0.333751	-0.420829	0.919583
C177	C	0.667084	-0.087495	1.252917
C178	C	0.000424	-0.818000	0.558511
C179	C	0.333758	-0.484667	0.891844
C180	C	0.667091	-0.151334	1.225177
H181	H	-0.238512	-0.914991	0.002201
H182	H	0.094822	-0.581658	0.335534
H183	H	0.428155	-0.248324	0.668868
H184	H	-0.368983	-1.000946	0.088113
H185	H	-0.035649	-0.667612	0.421447
H186	H	0.297684	-0.334279	0.754780
H187	H	0.145746	-0.266320	-0.003543
H188	H	0.479079	0.067013	0.329790
H189	H	0.812413	0.400347	0.663124
Cl190	Cl	0.000430	-0.197666	0.052474
Cl191	Cl	0.333763	0.135668	0.385807
Cl192	Cl	0.667097	0.469001	0.719141
Cl193	Cl	0.181159	-0.416673	0.015775
Cl194	Cl	0.514492	-0.083340	0.349108
Cl195	Cl	0.847826	0.249993	0.682441
H196	H	0.000352	-0.493322	0.020044
H197	H	0.333686	-0.159988	0.353377
H198	H	0.667019	0.173345	0.686711
Cl199	Cl	-0.337253	-0.713261	-0.199370
Cl200	Cl	-0.003919	-0.379928	0.133964
Cl201	Cl	0.329414	-0.046595	0.467297
Cl202	Cl	0.000460	-0.961023	0.568333
Cl203	Cl	0.333794	-0.627689	0.901666
Cl204	Cl	0.667127	-0.294356	1.235000
Cl205	Cl	-0.661876	-1.021929	0.109106
Cl206	Cl	-0.328543	-0.688596	0.442439
Cl207	Cl	0.004791	-0.355262	0.775772
Cl208	Cl	0.000255	-0.644557	0.045924
Cl209	Cl	0.333589	-0.311223	0.379257
Cl210	Cl	0.666922	0.022110	0.712591
H211	H	-0.760593	-0.914978	0.002237
H212	H	-0.427260	-0.581645	0.335571
H213	H	-0.093927	-0.248312	0.668904
H214	H	0.000368	-0.593987	-0.211580
H215	H	0.333702	-0.260654	0.121753
H216	H	0.667035	0.072680	0.455087
H217	H	0.000401	-0.939303	0.133736
H218	H	0.333734	-0.605970	0.467069
H219	H	0.667067	-0.272636	0.800403
H220	H	0.000392	-0.703049	0.549857
H221	H	0.333726	-0.369716	0.883190
H222	H	0.667059	-0.036383	1.216524
Cl223	Cl	-0.662016	-0.713265	-0.199357
Cl224	Cl	-0.328683	-0.379932	0.133977
Cl225	Cl	0.004650	-0.046599	0.467310
Cl226	Cl	0.000441	-0.965174	0.284963
Cl227	Cl	0.333774	-0.631841	0.618297
Cl228	Cl	0.667107	-0.298507	0.951630
Cl229	Cl	-0.180301	-0.223757	-0.200755
Cl230	Cl	0.153032	0.109576	0.132578
Cl231	Cl	0.486366	0.442910	0.465912
Cl232	Cl	0.000526	-0.958623	0.731848
Cl233	Cl	0.333860	-0.625289	1.065182
Cl234	Cl	0.667193	-0.291956	1.398515
Cl235	Cl	0.181214	-0.930875	0.340391
Cl236	Cl	0.514547	-0.597542	0.673725
Cl237	Cl	0.847880	-0.264208	1.007058
Cl238	Cl	0.000346	-0.679405	0.246686
Cl239	Cl	0.333679	-0.346072	0.580020
Cl240	Cl	0.667012	-0.012739	0.913353
H241	H	0.145758	-0.907233	0.484997
H242	H	0.479091	-0.573900	0.818330
H243	H	0.812425	-0.240567	1.151663
H244	H	0.000394	-0.462561	-0.209652
H245	H	0.333727	-0.129228	0.123682
H246	H	0.667061	0.204106	0.457015
Cl247	Cl	0.000479	-0.034151	0.054873
Cl248	Cl	0.333812	0.299183	0.388207
Cl249	Cl	0.667146	0.632516	0.721540
Cl250	Cl	0.000406	-0.672850	0.693572
Cl251	Cl	0.333740	-0.339516	1.026906
Cl252	Cl	0.667073	-0.006183	1.360239
H253	H	-0.144923	-0.731260	0.461447
H254	H	0.188410	-0.397927	0.794781
H255	H	0.521744	-0.064594	1.128114
Cl256	Cl	-0.180442	-0.711950	0.311106
Cl257	Cl	0.152892	-0.378617	0.644439
Cl258	Cl	0.486225	-0.045284	0.977773
H259	H	-0.144879	-0.374113	-0.181441
H260	H	0.188454	-0.040780	0.151892
H261	H	0.521787	0.292554	0.485226
Cl262	Cl	0.000513	-0.159390	-0.233300
Cl263	Cl	0.333847	0.173943	0.100034
Cl264	Cl	0.667180	0.507277	0.433367
H265	H	0.000535	-0.015674	-0.203099
H266	H	0.333869	0.317659	0.130234
H267	H	0.667202	0.650992	0.463567
H268	H	0.000344	-0.709599	0.102967
H269	H	0.333677	-0.376266	0.436300
H270	H	0.667011	-0.042932	0.769633
