data_functionalizedCrystal
_audit_creation_method	'MofGen! by Chris Wilmer'
_symmetry_space_group_name_H-M	'P1'
_symmetry_Int_Tables_number	1
_symmetry_cell_setting	triclinic
loop_
_symmetry_equiv_pos_as_xyz
  x,y,z
_cell_length_a	14.044220
_cell_length_b	14.044220
_cell_length_c	11.295483
_cell_angle_alpha	94.468632
_cell_angle_beta	85.525227
_cell_angle_gamma	93.188878
loop_
_atom_site_label
_atom_site_type_symbol
_atom_site_fract_x
_atom_site_fract_y
_atom_site_fract_z
O1	O	1.283048	0.224289	-0.098902
O2	O	1.783048	0.724289	0.401098
O3	O	1.006378	0.215982	-0.098932
O4	O	1.506378	0.715982	0.401068
O5	O	1.140559	0.081800	-0.098906
O6	O	1.640559	0.581800	0.401094
O7	O	1.148866	0.358470	-0.098929
O8	O	1.648866	0.858470	0.401071
O9	O	1.128772	0.093566	0.099143
O10	O	1.628772	0.593566	0.599143
O11	O	0.994591	0.227747	0.099116
O12	O	1.494591	0.727747	0.599116
O13	O	1.271261	0.236055	0.099146
O14	O	1.771261	0.736055	0.599146
Cu15	Cu	1.131850	0.232975	0.117215
Cu16	Cu	1.631850	0.732975	0.617215
Cu17	Cu	1.145789	0.219061	-0.117001
Cu18	Cu	1.645789	0.719061	0.382999
O19	O	1.137079	0.370236	0.099120
O20	O	1.637079	0.870236	0.599120
C21	C	0.964863	0.218229	0.000088
C22	C	1.464863	0.718229	0.500088
C23	C	0.858721	0.207383	0.000077
C24	C	1.358721	0.707383	0.500077
C25	C	1.131030	0.052061	0.000118
C26	C	1.631030	0.552061	0.500118
C27	C	1.120186	-0.054081	0.000119
C28	C	1.620186	0.445919	0.500119
C29	C	0.664382	0.187559	0.000102
C30	C	1.164382	0.687559	0.500102
C31	C	0.613252	0.264473	0.000101
C32	C	1.113252	0.764473	0.500101
C33	C	0.505115	0.253442	0.000115
C34	C	1.005115	0.753442	0.500115
C35	C	0.772528	0.198588	0.000088
C36	C	1.272528	0.698588	0.500088
C37	C	1.100360	-0.248420	0.000099
C38	C	1.600360	0.251580	0.500099
C39	C	1.177275	-0.299550	0.000104
C40	C	1.677275	0.200450	0.500104
C41	C	1.166244	-0.407687	0.000093
C42	C	1.666244	0.092313	0.500093
C43	C	1.111390	-0.140274	0.000110
C44	C	1.611390	0.359726	0.500110
C45	C	1.312776	0.233808	0.000123
C46	C	1.812776	0.733808	0.500123
C47	C	1.418919	0.244652	0.000126
C48	C	1.918919	0.744652	0.500126
C49	C	1.146609	0.399975	0.000093
C50	C	1.646609	0.899975	0.500093
C51	C	1.157454	0.506117	0.000085
C52	C	1.657454	1.006117	0.500085
N53	N	1.122052	0.242762	0.281949
N54	N	1.622052	0.742762	0.781949
N55	N	1.155594	0.209268	-0.281735
N56	N	1.655594	0.709268	0.218265
C57	C	1.226117	0.138766	0.531259
C58	C	1.726117	0.638766	1.031259
C59	C	1.218720	0.146169	0.655921
C60	C	1.718720	0.646169	1.155921
C61	C	1.099858	0.264966	0.655938
C62	C	1.599858	0.764966	1.155938
C63	C	1.107254	0.257562	0.531276
C64	C	1.607254	0.757562	1.031276
C65	C	1.170387	0.194462	0.468941
C66	C	1.670387	0.694462	0.968941
C67	C	1.177788	0.187064	0.344276
C68	C	1.677788	0.687064	0.844276
C69	C	1.058921	0.305855	0.344295
C70	C	1.558921	0.805855	0.844295
C71	C	1.051525	0.313258	0.468957
C72	C	1.551525	0.813258	0.968957
H73	H	0.650692	0.338606	0.000089
H74	H	1.150692	0.838606	0.500089
H75	H	0.626944	0.113432	0.000115
H76	H	1.126944	0.613432	0.500115
H77	H	1.277529	0.087393	0.480505
H78	H	1.777529	0.587393	0.980505
H79	H	1.264099	0.100814	0.706657
H80	H	1.764099	0.600814	1.206657
H81	H	1.048450	0.316334	0.706707
H82	H	1.548450	0.816334	1.206707
H83	H	1.251412	-0.262115	0.000032
H84	H	1.751412	0.237885	0.500032
H85	H	1.026234	-0.285858	0.000089
H86	H	1.526234	0.214142	0.500089
H87	H	1.229196	0.135687	0.293524
H88	H	1.729196	0.635687	0.793524
H89	H	1.000120	0.364631	0.519725
H90	H	1.500120	0.864631	1.019725
H91	H	1.013545	0.351209	0.293541
H92	H	1.513545	0.851209	0.793541
