data_functionalizedCrystal
_audit_creation_method	'MofGen! by Chris Wilmer'
_symmetry_space_group_name_H-M	'P1'
_symmetry_Int_Tables_number	1
_symmetry_cell_setting	triclinic
loop_
_symmetry_equiv_pos_as_xyz
  x,y,z
_cell_length_a	9.065218
_cell_length_b	10.540539
_cell_length_c	8.140239
_cell_angle_alpha	89.998610
_cell_angle_beta	89.997198
_cell_angle_gamma	84.770688
loop_
_atom_site_label
_atom_site_type_symbol
_atom_site_fract_x
_atom_site_fract_y
_atom_site_fract_z
O1	O	1.959468	0.186143	-0.136609
O2	O	1.530107	0.201412	-0.136611
O3	O	1.754583	0.009107	-0.136608
O4	O	1.734992	0.378448	-0.136612
O5	O	1.754571	0.009105	0.136619
O6	O	1.530095	0.201409	0.136616
O7	O	1.959456	0.186141	0.136618
Zn8	Zn	1.744773	0.193775	0.179998
Zn9	Zn	1.744790	0.193778	-0.179991
O10	O	1.734980	0.378446	0.136615
C11	C	1.475122	0.199943	0.000003
C12	C	1.311301	0.195556	0.000002
C13	C	1.753108	-0.038202	0.000003
C14	C	1.748712	-0.179167	-0.000006
C15	C	1.580278	-0.363216	-0.000620
C16	C	1.584734	-0.216582	-0.000005
C17	C	1.827619	-0.240534	0.156020
C18	C	1.822022	-0.387099	0.156152
C19	C	1.825372	-0.387602	-0.154558
C20	C	1.826882	-0.240615	-0.156621
C21	C	2.014441	0.187610	0.000001
C22	C	2.178262	0.191997	-0.000009
C23	C	1.736455	0.425755	0.000001
C24	C	1.740851	0.566719	-0.000001
N25	N	1.744773	0.193772	0.425681
N26	N	1.744802	0.193771	-0.425673
H27	H	1.522646	-0.174207	-0.111851
H28	H	1.946435	-0.215951	-0.166043
C29	C	1.990293	-0.209709	0.163885
N30	N	2.112816	-0.186480	0.169813
H31	H	1.515508	-0.392055	-0.112509
H32	H	1.769147	-0.199969	-0.272045
C33	C	1.493134	-0.404308	0.149724
N34	N	1.427507	-0.435248	0.262978
C35	C	1.981337	-0.451317	0.165741
N36	N	2.101331	-0.499679	0.172973
C37	C	1.985376	-0.450818	-0.155983
N38	N	2.105885	-0.498440	-0.157046
C39	C	1.500259	-0.160480	0.151350
N40	N	1.436630	-0.118225	0.265359
H41	H	1.763696	-0.415515	0.272784
C42	C	1.753549	-0.183270	0.312882
N43	N	1.697748	-0.140142	0.431027
C44	C	1.753676	-0.430486	-0.314321
N45	N	1.699658	-0.462784	-0.434646
