data_functionalizedCrystal
_audit_creation_method	'MofGen! by Chris Wilmer'
_symmetry_space_group_name_H-M	'P1'
_symmetry_Int_Tables_number	1
_symmetry_cell_setting	triclinic
loop_
_symmetry_equiv_pos_as_xyz
  x,y,z
_cell_length_a	8.140239
_cell_length_b	10.654550
_cell_length_c	10.654551
_cell_angle_alpha	95.514820
_cell_angle_beta	90.001760
_cell_angle_gamma	90.000518
loop_
_atom_site_label
_atom_site_type_symbol
_atom_site_fract_x
_atom_site_fract_y
_atom_site_fract_z
O1	O	0.136484	-1.667839	0.176397
O2	O	0.136513	-1.302361	0.193203
O3	O	0.136494	-1.493502	0.002061
O4	O	0.136503	-1.476698	0.367539
O5	O	-0.136733	-1.493491	0.002059
O6	O	-0.136714	-1.302350	0.193201
O7	O	-0.136743	-1.667828	0.176395
Zn8	Zn	-0.180109	-1.485087	0.184797
Zn9	Zn	0.179879	-1.485101	0.184800
O10	O	-0.136724	-1.476687	0.367537
C11	C	-0.000096	-1.255557	0.191968
C12	C	-0.000085	-1.116114	0.188276
N13	N	-0.425792	-1.485087	0.184795
C14	C	-0.000117	-1.492262	-0.044738
C15	C	-0.000109	-1.488570	-0.184181
N16	N	0.425562	-1.485112	0.184793
C17	C	-0.000130	-1.714632	0.177630
C18	C	-0.000131	-1.854075	0.181322
C19	C	-0.000087	-1.036629	0.300818
C20	C	-0.000116	-0.905608	0.297341
C21	C	-0.000133	-0.933570	0.068772
C22	C	-0.000116	-1.064589	0.072249
C23	C	0.148829	-1.486843	-0.249684
C24	C	0.148831	-1.483363	-0.380704
C25	C	-0.149056	-1.483343	-0.380709
C26	C	-0.149056	-1.486814	-0.249689
C27	C	-0.000110	-1.477926	0.414336
C28	C	-0.000107	-1.481619	0.553779
H29	H	-0.000121	-0.840896	0.388984
C30	C	-0.000153	-1.092330	0.426911
C31	C	-0.000207	-0.994671	0.524724
C32	C	-0.000295	-1.045930	0.640901
H33	H	0.095108	-1.142834	0.433201
H34	H	-0.095465	-1.142832	0.433086
H35	H	0.095095	-0.944191	0.518552
H36	H	-0.095461	-0.944159	0.518476
H37	H	-0.095607	-1.096432	0.647076
H38	H	0.094968	-1.096433	0.647178
H39	H	-0.000347	-0.979677	0.707281
C40	C	0.310417	-1.481684	-0.452005
C41	C	0.319088	-1.587530	-0.540440
C42	C	0.467913	-1.586014	-0.606155
H43	H	0.399255	-1.483287	-0.394374
H44	H	0.316637	-1.407254	-0.494249
H45	H	0.312884	-1.661940	-0.498199
H46	H	0.230284	-1.585949	-0.598097
H47	H	0.474133	-1.511585	-0.648398
H48	H	0.556739	-1.587614	-0.548514
H49	H	0.473809	-1.657822	-0.666173
H50	H	-0.270324	-1.481915	-0.434062
H51	H	-0.000169	-0.891602	-0.025693
C52	C	0.000227	-1.150836	-0.049987
C53	C	0.140809	-1.127418	-0.119770
C54	C	0.141187	-1.206855	-0.232367
H55	H	-0.094947	-1.135189	-0.097663
H56	H	0.000325	-1.236263	-0.031349
H57	H	0.140697	-1.042011	-0.138411
H58	H	0.236006	-1.143072	-0.072133
H59	H	0.141284	-1.292282	-0.213729
H60	H	0.046006	-1.191203	-0.280031
H61	H	0.236576	-1.190986	-0.279723
H62	H	0.270112	-1.488269	-0.196351
H63	H	-0.270347	-1.488213	-0.196355
