data_functionalizedCrystal
_audit_creation_method	'MofGen! by Chris Wilmer'
_symmetry_space_group_name_H-M	'P1'
_symmetry_Int_Tables_number	1
_symmetry_cell_setting	triclinic
loop_
_symmetry_equiv_pos_as_xyz
  x,y,z
_cell_length_a	18.215407
_cell_length_b	12.759394
_cell_length_c	18.215399
_cell_angle_alpha	90.025276
_cell_angle_beta	90.019833
_cell_angle_gamma	90.015285
loop_
_atom_site_label
_atom_site_type_symbol
_atom_site_fract_x
_atom_site_fract_y
_atom_site_fract_z
Zn1	Zn	1.125123	-0.418265	0.416130
Zn2	Zn	1.625123	0.081735	0.916130
Zn3	Zn	1.125053	-0.593962	0.293069
Zn4	Zn	1.625053	-0.093962	0.793069
Zn5	Zn	1.002056	-0.418299	0.293077
Zn6	Zn	1.502056	0.081701	0.793077
Zn7	Zn	1.002043	-0.593904	0.416094
Zn8	Zn	1.502043	-0.093904	0.916094
O9	O	1.063569	-0.506107	0.354592
O10	O	1.563569	-0.006107	0.854592
O11	O	1.228098	-0.441581	0.399817
O12	O	1.728098	0.058419	0.899817
O13	O	1.108713	-0.570699	0.190086
O14	O	1.608713	-0.070699	0.690086
O15	O	1.018416	-0.271273	0.309418
O16	O	1.518416	0.228727	0.809418
O17	O	1.228047	-0.570666	0.309405
O18	O	1.728047	-0.070666	0.809405
O19	O	1.108833	-0.271248	0.399825
O20	O	1.608833	0.228752	0.899825
O21	O	1.018348	-0.441640	0.190092
O22	O	1.518348	0.058360	0.690092
O23	O	0.899070	-0.441583	0.309384
O24	O	1.399070	0.058417	0.809384
O25	O	1.018394	-0.570566	0.519083
O26	O	1.518394	-0.070566	1.019083
O27	O	0.899061	-0.570599	0.399764
O28	O	1.399061	-0.070599	0.899764
O29	O	1.108821	-0.441525	0.519109
O30	O	1.608821	0.058475	1.019109
O31	O	1.108701	-0.740975	0.309370
O32	O	1.608701	-0.240975	0.809370
O33	O	1.018326	-0.740933	0.399756
O34	O	1.518326	-0.240933	0.899756
C35	C	0.872363	-0.506089	0.354571
C36	C	1.372363	-0.006089	0.854571
C37	C	0.790564	-0.506107	0.354580
C38	C	1.290564	-0.006107	0.854580
C39	C	0.602384	-0.573391	0.401582
C40	C	1.102384	-0.073391	0.901582
C41	C	0.525526	-0.573395	0.401591
C42	C	1.025526	-0.073395	0.901591
C43	C	0.525506	-0.438843	0.307619
C44	C	1.025506	0.061157	0.807619
C45	C	0.602363	-0.438835	0.307614
C46	C	1.102363	0.061165	0.807614
C47	C	0.640800	-0.506115	0.354594
C48	C	1.140800	-0.006115	0.854594
C49	C	0.487084	-0.506126	0.354608
C50	C	0.987084	-0.006126	0.854608
C51	C	0.403751	-0.506129	0.354618
C52	C	0.903751	-0.006129	0.854618
C53	C	0.724139	-0.506111	0.354586
C54	C	1.224139	-0.006111	0.854586
C55	C	1.063525	-0.779075	0.354575
C56	C	1.563525	-0.279075	0.854575
C57	C	1.063573	-0.895852	0.354592
C58	C	1.563573	-0.395852	0.854592
C59	C	1.157751	-0.895843	0.260543
C60	C	1.657751	-0.395843	0.760543
C61	C	1.204859	-0.950699	0.213528
C62	C	1.704859	-0.450699	0.713528
C63	C	1.204903	-1.060421	0.213548
C64	C	1.704903	-0.560421	0.713548
C65	C	1.157834	-1.115289	0.260590
C66	C	1.657834	-0.615289	0.760590
C67	C	1.110726	-1.060432	0.307605
C68	C	1.610726	-0.560432	0.807605
C69	C	1.110686	-0.950708	0.307579
C70	C	1.610686	-0.450708	0.807579
C71	C	1.016553	-1.060441	0.401656
C72	C	1.516553	-0.560441	0.901656
C73	C	1.016505	-0.950719	0.401634
C74	C	1.516505	-0.450719	0.901634
C75	C	0.969484	-1.115308	0.448698
C76	C	1.469484	-0.615308	0.948698
C77	C	0.922371	-1.060452	0.495711
C78	C	1.422371	-0.560452	0.995711
C79	C	0.922329	-0.950724	0.495689
C80	C	1.422329	-0.450724	0.995689
C81	C	0.969397	-0.895863	0.448649
C82	C	1.469397	-0.395863	0.948649
C83	C	1.255522	-0.506126	0.354614
C84	C	1.755522	-0.006126	0.854614
C85	C	1.337321	-0.506134	0.354623
C86	C	1.837321	-0.006134	0.854623
C87	C	1.063614	-0.506035	0.546545
C88	C	1.563614	-0.006035	1.046545
C89	C	1.063633	-0.506004	0.628344
C90	C	1.563633	-0.006004	1.128344
C91	C	1.063633	-0.232074	0.354626
C92	C	1.563633	0.267926	0.854626
C93	C	1.063661	-0.115297	0.354641
C94	C	1.563661	0.384703	0.854641
C95	C	1.063567	-0.506104	0.163386
C96	C	1.563567	-0.006104	0.663386
C97	C	1.063690	-0.505839	0.081588
C98	C	1.563690	-0.005839	0.581588
C99	C	1.110735	-0.438750	0.816553
C100	C	1.610735	0.061250	1.316553
C101	C	1.110744	-0.438719	0.893412
C102	C	1.610744	0.061281	1.393412
C103	C	1.016583	-0.573096	0.893373
C104	C	1.516583	-0.073096	1.393373
C105	C	1.016571	-0.573121	0.816516
C106	C	1.516571	-0.073121	1.316516
C107	C	1.063651	-0.505949	0.778108
C108	C	1.563651	-0.005949	1.278108
C109	C	1.063672	-0.505894	0.931824
C110	C	1.563672	-0.005894	1.431824
C111	C	1.063681	-0.505861	1.015158
C112	C	1.563681	-0.005861	1.515158
C113	C	1.063641	-0.505980	0.694769
C114	C	1.563641	-0.005980	1.194769
H115	H	0.633642	-0.384044	0.269352
H116	H	1.133642	0.115956	0.769352
C117	C	0.483226	-0.364845	0.255940
C118	C	0.983226	0.135155	0.755940
H119	H	0.517115	-0.324769	0.227960
H120	H	1.017115	0.175231	0.727960
H121	H	0.453225	-0.404978	0.223829
H122	H	0.953225	0.095022	0.723829
H123	H	0.453262	-0.319117	0.284153
H124	H	0.953262	0.180883	0.784153
C125	C	1.157703	-0.775153	0.260516
C126	C	1.657703	-0.275153	0.760516
H127	H	1.192482	-0.750332	0.225770
H128	H	1.692482	-0.250332	0.725770
H129	H	1.110208	-0.750400	0.247748
H130	H	1.610208	-0.250400	0.747748
H131	H	1.170403	-0.750266	0.308014
H132	H	1.670403	-0.250266	0.808014
C133	C	1.162511	-0.364851	0.774306
C134	C	1.662511	0.135149	1.274306
H135	H	1.190547	-0.324817	0.808214
H136	H	1.690547	0.175183	1.308214
H137	H	1.194566	-0.405043	0.744322
H138	H	1.694566	0.094957	1.244322
H139	H	1.134355	-0.319081	0.744329
H140	H	1.634355	0.180919	1.244329
C141	C	0.964806	-0.646988	0.935625
C142	C	1.464806	-0.146988	1.435625
H143	H	0.971561	-0.637358	0.986905
H144	H	1.471561	-0.137358	1.486905
H145	H	0.915360	-0.631618	0.923024
H146	H	1.415360	-0.131618	1.423024
H147	H	0.975567	-0.717586	0.923018
H148	H	1.475567	-0.217586	1.423018
C149	C	0.964781	-0.647051	0.774223
C150	C	1.464781	-0.147051	1.274223
H151	H	0.936752	-0.687064	0.808104
H152	H	1.436752	-0.187064	1.308104
H153	H	0.932720	-0.606873	0.744239
H154	H	1.432720	-0.106873	1.244239
H155	H	0.992928	-0.692839	0.744242
H156	H	1.492928	-0.192839	1.244242
H157	H	0.633678	-0.628173	0.439838
H158	H	1.133678	-0.128173	0.939838
H159	H	1.157880	-1.204630	0.260608
H160	H	1.657880	-0.704630	0.760608
H161	H	1.243184	-0.906017	0.175228
H162	H	1.743184	-0.406017	0.675228
H163	H	0.494251	-0.628176	0.439853
H164	H	0.994251	-0.128176	0.939853
C165	C	1.256718	-1.120770	0.161834
C166	C	1.756718	-0.620770	0.661834
H167	H	1.250003	-1.193974	0.168589
H168	H	1.750003	-0.693974	0.668589
H169	H	1.245967	-1.102855	0.112374
H170	H	1.745967	-0.602855	0.612374
H171	H	1.306157	-1.102725	0.172646
H172	H	1.806157	-0.602725	0.672646
C173	C	0.969529	-1.235999	0.448720
C174	C	1.469529	-0.735999	0.948720
H175	H	1.004320	-1.260813	0.413977
H176	H	1.504320	-0.760813	0.913977
H177	H	0.982241	-1.260761	0.496225
H178	H	1.482241	-0.760761	0.996225
H179	H	0.922049	-1.260880	0.435955
H180	H	1.422049	-0.760880	0.935955
C181	C	0.870603	-1.120806	0.547450
C182	C	1.370603	-0.620806	1.047450
H183	H	0.877375	-1.194008	0.540728
H184	H	1.377375	-0.694008	1.040728
H185	H	0.881338	-1.102757	0.596902
H186	H	1.381338	-0.602757	1.096902
H187	H	0.821151	-1.102900	0.536627
H188	H	1.321151	-0.602900	1.036627
C189	C	0.870511	-0.890390	0.547409
C190	C	1.370511	-0.390390	1.047409
H191	H	0.842486	-0.938784	0.575422
H192	H	1.342486	-0.438784	1.075422
H193	H	0.898631	-0.847519	0.579487
H194	H	1.398631	-0.347519	1.079487
H195	H	0.838436	-0.847657	0.519220
H196	H	1.338436	-0.347657	1.019220
H197	H	0.969362	-0.806522	0.448621
H198	H	1.469362	-0.306522	0.948621
C199	C	1.162539	-0.364804	0.935699
C200	C	1.662539	0.135196	1.435699
H201	H	1.190578	-0.324812	0.901814
H202	H	1.690578	0.175188	1.401814
H203	H	1.134405	-0.319013	0.965682
H204	H	1.634405	0.180987	1.465682
H205	H	1.194602	-0.404995	0.965680
H206	H	1.694602	0.095005	1.465680
