data_functionalizedCrystal
_audit_creation_method	'MofGen! by Chris Wilmer'
_symmetry_space_group_name_H-M	'P1'
_symmetry_Int_Tables_number	1
_symmetry_cell_setting	triclinic
loop_
_symmetry_equiv_pos_as_xyz
  x,y,z
_cell_length_a	16.974800
_cell_length_b	14.044220
_cell_length_c	16.053802
_cell_angle_alpha	92.799619
_cell_angle_beta	91.074188
_cell_angle_gamma	88.279480
loop_
_atom_site_label
_atom_site_type_symbol
_atom_site_fract_x
_atom_site_fract_y
_atom_site_fract_z
O1	O	1.057574	0.120850	0.002053
O2	O	1.390907	0.454183	0.335387
O3	O	1.724240	0.787516	0.668720
O4	O	0.829132	0.135362	-0.013390
O5	O	1.162466	0.468696	0.319944
O6	O	1.495799	0.802029	0.653277
O7	O	0.939924	-0.009887	-0.005892
O8	O	1.273257	0.323447	0.327441
O9	O	1.606590	0.656780	0.660775
O10	O	0.946782	0.266099	-0.005445
O11	O	1.280116	0.599432	0.327889
O12	O	1.613449	0.932766	0.661222
O13	O	0.933823	-0.001925	0.132554
O14	O	1.267156	0.331409	0.465888
O15	O	1.600490	0.664742	0.799221
O16	O	0.823032	0.143324	0.125056
O17	O	1.156365	0.476658	0.458390
O18	O	1.489698	0.809991	0.791723
O19	O	1.051473	0.128812	0.140499
O20	O	1.384806	0.462145	0.473833
O21	O	1.718140	0.795478	0.807166
Zn22	Zn	0.936284	0.137332	0.154759
Zn23	Zn	1.269617	0.470665	0.488092
Zn24	Zn	1.602950	0.803999	0.821426
Zn25	Zn	0.944322	0.126842	-0.027650
Zn26	Zn	1.277655	0.460175	0.305684
Zn27	Zn	1.610988	0.793509	0.639017
O28	O	0.940682	0.274061	0.133001
O29	O	1.274015	0.607394	0.466335
O30	O	1.607348	0.940727	0.799668
C31	C	0.796670	0.138646	0.053845
C32	C	1.130003	0.471979	0.387178
C33	C	1.463337	0.805312	0.720512
C34	C	0.709030	0.136555	0.047921
C35	C	1.042364	0.469888	0.381254
C36	C	1.375697	0.803222	0.714587
C37	C	0.664536	0.139911	0.120606
C38	C	0.997869	0.473244	0.453940
C39	C	1.331203	0.806578	0.787273
C40	C	0.582190	0.137932	0.115042
C41	C	0.915523	0.471265	0.448375
C42	C	1.248857	0.804598	0.781709
C43	C	0.544339	0.132603	0.036791
C44	C	0.877672	0.465937	0.370125
C45	C	1.211006	0.799270	0.703458
C46	C	0.588839	0.129245	-0.035900
C47	C	0.922173	0.462578	0.297434
C48	C	1.255506	0.795911	0.630767
C49	C	0.671184	0.131217	-0.030335
C50	C	1.004518	0.464550	0.302999
C51	C	1.337851	0.797884	0.636332
C52	C	0.298421	0.126232	0.012055
C53	C	0.631754	0.459566	0.345389
C54	C	0.965087	0.792899	0.678722
C55	C	0.216069	0.124263	0.006496
C56	C	0.549403	0.457596	0.339829
C57	C	0.882736	0.790930	0.673163
C58	C	0.209426	0.132948	0.157438
C59	C	0.542759	0.466281	0.490772
C60	C	0.876092	0.799615	0.824105
C61	C	0.291772	0.134926	0.162996
C62	C	0.625106	0.468259	0.496330
C63	C	0.958439	0.801593	0.829663
C64	C	0.336266	0.131562	0.090305
C65	C	0.669599	0.464895	0.423639
C66	C	1.002932	0.798229	0.756972
N67	N	0.460168	0.130583	0.031102
N68	N	0.793501	0.463916	0.364435
N69	N	1.126835	0.797250	0.697769
N70	N	0.420436	0.133576	0.095995
N71	N	0.753769	0.466909	0.429329
N72	N	1.087102	0.800242	0.762662
C73	C	0.933871	-0.041228	0.063129
C74	C	1.267205	0.292106	0.396462
C75	C	1.600538	0.625439	0.729795
C76	C	0.924917	-0.146476	0.062524
C77	C	1.258251	0.186857	0.395858
C78	C	1.591584	0.520191	0.729191
C79	C	0.908548	-0.339179	0.061406
C80	C	1.241881	-0.005846	0.394739
C81	C	1.575214	0.327487	0.728072
C82	C	0.972054	-0.396653	0.065696
C83	C	1.305388	-0.063319	0.399030
C84	C	1.638721	0.270014	0.732363
C85	C	0.962946	-0.503879	0.065074
C86	C	1.296279	-0.170546	0.398407
C87	C	1.629613	0.162787	0.731741
C88	C	0.917655	-0.231942	0.062028
C89	C	1.250988	0.101391	0.395361
C90	C	1.584321	0.434724	0.728695
C91	C	1.083935	0.125528	0.073263
C92	C	1.417269	0.458862	0.406596
C93	C	1.750602	0.792195	0.739929
C94	C	1.171575	0.127619	0.079181
C95	C	1.504909	0.460952	0.412515
C96	C	1.838242	0.794285	0.745848
C97	C	0.946734	0.305402	0.063979
C98	C	1.280067	0.638735	0.397312
C99	C	1.613401	0.972068	0.730646
C100	C	0.955688	0.410650	0.064578
C101	C	1.289022	0.743983	0.397911
C102	C	1.622355	1.077316	0.731245
N103	N	0.930804	0.144491	0.279248
N104	N	1.264137	0.477824	0.612582
N105	N	1.597471	0.811157	0.945915
N106	N	0.949807	0.119676	-0.152139
N107	N	1.283140	0.453009	0.181195
N108	N	1.616474	0.786342	0.514528
C109	C	0.977966	0.082709	0.326134
C110	C	1.311299	0.416043	0.659468
C111	C	1.644633	0.749376	0.992801
C112	C	0.974141	0.087726	0.413282
C113	C	1.307474	0.421059	0.746615
C114	C	1.640808	0.754392	1.079949
C115	C	0.923157	0.154529	0.453543
C116	C	1.256490	0.487863	0.786876
C117	C	1.589824	0.821196	1.120210
C118	C	0.875989	0.216314	0.406651
C119	C	1.209323	0.549647	0.739984
C120	C	1.542656	0.882980	1.073317
C121	C	0.879811	0.211292	0.319504
C122	C	1.213144	0.544625	0.652838
C123	C	1.546478	0.877958	0.986171
C124	C	0.906461	0.176438	0.713823
C125	C	1.239795	0.509772	1.047156
C126	C	1.573128	0.843105	1.380489
C127	C	0.902645	0.181457	0.800976
C128	C	1.235978	0.514791	1.134309
C129	C	1.569312	0.848124	1.467642
C130	C	1.000796	0.052868	0.807601
C131	C	1.334129	0.386201	1.140934
C132	C	1.667462	0.719535	1.474268
C133	C	1.004616	0.047856	0.720453
C134	C	1.337950	0.381189	1.053786
C135	C	1.671283	0.714522	1.387119
C136	C	0.957446	0.109637	0.673568
C137	C	1.290779	0.442970	1.006901
C138	C	1.624112	0.776303	1.340235
N139	N	0.919248	0.159661	0.542622
N140	N	1.252581	0.492994	0.875955
N141	N	1.585914	0.826327	1.209289
N142	N	0.961352	0.104500	0.584490
N143	N	1.294685	0.437833	0.917823
N144	N	1.628018	0.771167	1.251157
H145	H	0.334637	0.123490	-0.047135
H146	H	0.667971	0.456823	0.286198
H147	H	1.001304	0.790157	0.619532
H148	H	1.019486	0.028315	0.293360
H149	H	1.352819	0.361648	0.626693
H150	H	1.686153	0.694981	0.960027
H151	H	0.707411	0.128486	-0.089523
H152	H	1.040744	0.461820	0.243810
H153	H	1.374077	0.795153	0.577144
H154	H	1.039199	0.002568	0.845782
H155	H	1.372532	0.335901	1.179116
H156	H	1.705865	0.669234	1.512449
Br157	Br	0.806532	-0.391387	0.054502
Br158	Br	1.139865	-0.058054	0.387835
Br159	Br	1.473199	0.275279	0.721169
H160	H	1.033267	-0.365331	0.069778
H161	H	1.366600	-0.031997	0.403112
H162	H	1.699934	0.301336	0.736445
H163	H	0.322585	0.139260	0.226716
H164	H	0.655918	0.472594	0.560050
H165	H	0.989251	0.805927	0.893383
H166	H	1.012543	0.037418	0.451456
H167	H	1.345877	0.370751	0.784790
H168	H	1.679210	0.704084	1.118123
Br169	Br	0.149039	0.137511	0.256085
Br170	Br	0.482372	0.470844	0.589418
Br171	Br	0.815705	0.804178	0.922751
H172	H	0.861126	0.235861	0.833751
H173	H	1.194459	0.569194	1.167085
H174	H	1.527792	0.902528	1.500418
H175	H	0.695348	0.144257	0.184326
H176	H	1.028681	0.477591	0.517660
H177	H	1.362014	0.810924	0.850993
Br178	Br	0.164700	0.117038	-0.099708
Br179	Br	0.498034	0.450371	0.233625
Br180	Br	0.831367	0.783705	0.566958
Br181	Br	1.073812	-0.042803	0.665812
Br182	Br	1.407146	0.290531	0.999145
Br183	Br	1.740479	0.623864	1.332478
Br184	Br	0.842448	0.260283	0.650198
Br185	Br	1.175781	0.593616	0.983532
Br186	Br	1.509115	0.926950	1.316865
Br187	Br	0.806789	0.306971	0.461287
Br188	Br	1.140122	0.640304	0.794620
Br189	Br	1.473456	0.973638	1.127953
Br190	Br	0.815797	0.295136	0.255873
Br191	Br	1.149130	0.628469	0.589206
Br192	Br	1.482463	0.961803	0.922540
H193	H	0.558015	0.124900	-0.099613
H194	H	0.891348	0.458233	0.233720
H195	H	1.224682	0.791566	0.567054
Br196	Br	0.521807	0.142502	0.213692
Br197	Br	0.855140	0.475835	0.547025
Br198	Br	1.188473	0.809168	0.880358
