data_functionalizedCrystal
_audit_creation_method	'MofGen! by Chris Wilmer'
_symmetry_space_group_name_H-M	'P1'
_symmetry_Int_Tables_number	1
_symmetry_cell_setting	triclinic
loop_
_symmetry_equiv_pos_as_xyz
  x,y,z
_cell_length_a	13.897449
_cell_length_b	18.050589
_cell_length_c	13.897441
_cell_angle_alpha	90.027873
_cell_angle_beta	90.020733
_cell_angle_gamma	90.029500
loop_
_atom_site_label
_atom_site_type_symbol
_atom_site_fract_x
_atom_site_fract_y
_atom_site_fract_z
Zn1	Zn	1.474632	-0.295610	0.545399
Zn2	Zn	1.474496	-0.419815	0.384108
Zn3	Zn	1.313321	-0.295646	0.384118
Zn4	Zn	1.313273	-0.419766	0.545361
O5	O	1.393931	-0.357709	0.464747
O6	O	1.609596	-0.312092	0.524016
O7	O	1.453079	-0.403379	0.249128
O8	O	1.334796	-0.191716	0.405532
O9	O	1.609496	-0.403344	0.405516
O10	O	1.453311	-0.191690	0.524025
O11	O	1.334665	-0.312152	0.249135
O12	O	1.178333	-0.312105	0.405495
O13	O	1.334715	-0.403261	0.680348
O14	O	1.178298	-0.403295	0.523960
O15	O	1.453264	-0.312045	0.680376
O16	O	1.453033	-0.523733	0.405479
O17	O	1.334583	-0.523697	0.523951
C18	C	1.143316	-0.357699	0.464725
C19	C	1.036102	-0.357713	0.464738
C20	C	1.393814	-0.550661	0.464731
C21	C	1.393853	-0.633207	0.464756
C22	C	0.839807	-0.357716	0.464763
C23	C	0.949040	-0.357712	0.464747
C24	C	1.329503	-0.832665	0.529158
C25	C	1.305986	-0.882111	0.441140
C26	C	1.393947	-0.784337	0.464769
C27	C	1.417512	-0.881973	0.552797
C28	C	1.394037	-0.930323	0.464789
C29	C	1.370384	-0.832696	0.376703
C30	C	1.481951	-0.832554	0.488420
C31	C	1.458467	-0.881977	0.400341
C32	C	1.393893	-0.700239	0.464758
C33	C	1.394092	-1.014419	0.464789
C34	C	1.645524	-0.357720	0.464769
C35	C	1.752738	-0.357724	0.464779
C36	C	1.393999	-0.357644	0.716340
C37	C	1.394028	-0.357616	0.823554
C38	C	1.394074	-0.164004	0.464784
C39	C	1.394135	-0.081458	0.464800
C40	C	1.393918	-0.357721	0.214132
C41	C	1.394076	-0.357540	0.106919
C42	C	1.394055	-0.357565	1.019849
C43	C	1.394037	-0.357595	0.910616
H44	H	1.231606	-0.903895	0.421153
O45	O	1.441423	-0.907761	0.641569
C46	C	1.560422	-0.910645	0.767662
C47	C	1.533484	-0.881408	0.667110
H48	H	1.634845	-0.889338	0.788351
H49	H	1.560996	-0.973797	0.766675
H50	H	1.505323	-0.890402	0.822431
H51	H	1.588555	-0.901596	0.612284
H52	H	1.532879	-0.818257	0.668176
O53	O	1.523409	-0.907743	0.335260
C54	C	1.549465	-0.980846	0.192510
C55	C	1.475830	-0.951731	0.266162
H56	H	1.511024	-1.016404	0.136615
H57	H	1.606049	-1.015605	0.231068
H58	H	1.585836	-0.932034	0.155283
H59	H	1.439389	-1.000498	0.303412
H60	H	1.419307	-0.916950	0.227551
O61	O	1.346516	-0.806862	0.287943
C62	C	1.319750	-0.699594	0.188339
C63	C	1.346775	-0.728752	0.288905
H64	H	1.319970	-0.636440	0.189078
H65	H	1.244978	-0.720396	0.168038
H66	H	1.374368	-0.720370	0.133424
H67	H	1.292222	-0.707989	0.343887
H68	H	1.421571	-0.707957	0.309125
H69	H	1.274924	-0.811012	0.583534
O70	O	1.570619	-0.806438	0.512250
C71	C	1.670053	-0.698858	0.538175
C72	C	1.569598	-0.728335	0.511140
H73	H	1.669255	-0.635708	0.537307
H74	H	1.725253	-0.719945	0.484047
H75	H	1.690005	-0.719107	0.613261
H76	H	1.549555	-0.708098	0.436077
H77	H	1.514456	-0.707253	0.565331
