data_functionalizedCrystal
_audit_creation_method	'MofGen! by Chris Wilmer'
_symmetry_space_group_name_H-M	'P1'
_symmetry_Int_Tables_number	1
_symmetry_cell_setting	triclinic
loop_
_symmetry_equiv_pos_as_xyz
  x,y,z
_cell_length_a	10.654550
_cell_length_b	10.654541
_cell_length_c	9.130313
_cell_angle_alpha	89.995708
_cell_angle_beta	89.999724
_cell_angle_gamma	84.484430
loop_
_atom_site_label
_atom_site_type_symbol
_atom_site_fract_x
_atom_site_fract_y
_atom_site_fract_z
O1	O	1.667838	0.176399	-0.121689
O2	O	1.302359	0.193205	-0.121716
O3	O	1.493503	0.002063	-0.121693
O4	O	1.476694	0.367542	-0.121712
O5	O	1.493490	0.002057	0.121906
O6	O	1.302346	0.193200	0.121883
O7	O	1.667825	0.176393	0.121910
Cu8	Cu	1.485084	0.184796	0.144139
Cu9	Cu	1.485100	0.184803	-0.143945
O10	O	1.476681	0.367536	0.121887
C11	C	1.255555	0.191968	0.000080
C12	C	1.116112	0.188276	0.000070
C13	C	1.492263	-0.044738	0.000105
C14	C	1.488572	-0.184182	0.000103
C15	C	1.036625	0.300818	0.000068
C16	C	0.905604	0.297342	0.000094
C17	C	0.933569	0.068772	0.000117
C18	C	1.064588	0.072250	0.000102
C19	C	1.717137	-0.212153	0.000138
C20	C	1.829680	-0.291647	0.000158
C21	C	1.826204	-0.422665	0.000154
C22	C	1.710173	-0.474190	0.000124
C23	C	1.597630	-0.394696	0.000103
C24	C	1.601118	-0.263676	0.000113
C25	C	1.369069	-0.366725	0.000057
C26	C	1.372541	-0.235707	0.000073
C27	C	1.253037	-0.418251	0.000028
C28	C	1.140492	-0.338756	0.000018
C29	C	1.143972	-0.207731	0.000024
C30	C	1.259998	-0.156213	0.000052
C31	C	1.714629	0.177630	0.000110
C32	C	1.854072	0.181322	0.000111
C33	C	1.477921	0.414337	0.000085
C34	C	1.481612	0.553780	0.000078
N35	N	1.485082	0.184791	0.346761
N36	N	1.485111	0.184798	-0.346568
C37	C	1.569750	0.100189	0.423423
C38	C	1.569762	0.100189	0.576760
C39	C	1.400435	0.269404	0.576759
C40	C	1.400418	0.269397	0.423425
H41	H	1.078571	0.395294	0.000053
H42	H	1.262843	-0.049533	0.000067
H43	H	1.924150	-0.249680	0.000195
H44	H	1.129309	-0.019401	0.000107
H45	H	1.917847	-0.487390	0.000159
C46	C	1.661714	0.008184	0.340451
C47	C	1.735839	-0.065930	0.440416
C48	C	1.820558	-0.150714	0.364041
H49	H	1.714496	0.053698	0.280614
H50	H	1.616109	-0.044590	0.280684
H51	H	1.781441	-0.013163	0.500158
H52	H	1.683092	-0.111472	0.500257
H53	H	1.774953	-0.203488	0.304274
H54	H	1.873331	-0.105189	0.304206
H55	H	1.870854	-0.201018	0.431855
C56	C	1.308433	0.361398	0.340445
C57	C	1.234321	0.435524	0.440399
C58	C	1.149585	0.520291	0.364012
H59	H	1.255644	0.315870	0.280641
H60	H	1.354024	0.414165	0.280643
H61	H	1.188734	0.382763	0.500176
H62	H	1.287076	0.481079	0.500206
H63	H	1.195175	0.573058	0.304210
H64	H	1.096804	0.474753	0.304210
H65	H	1.099297	0.570603	0.431818
H66	H	1.046028	-0.380719	-0.000016
H67	H	0.840891	0.388985	0.000095
H68	H	0.891602	-0.025693	0.000151
H69	H	1.719978	-0.105472	0.000162
H70	H	1.707354	-0.580873	0.000102
H71	H	1.250216	-0.524933	0.000015
H72	H	1.052325	-0.143012	0.000001
H73	H	1.638704	0.031297	0.639174
H74	H	1.331505	0.338291	0.639195
