data_functionalizedCrystal
_audit_creation_method	'MofGen! by Chris Wilmer'
_symmetry_space_group_name_H-M	'P1'
_symmetry_Int_Tables_number	1
_symmetry_cell_setting	triclinic
loop_
_symmetry_equiv_pos_as_xyz
  x,y,z
_cell_length_a	19.077236
_cell_length_b	17.640280
_cell_length_c	19.076919
_cell_angle_alpha	98.508881
_cell_angle_beta	90.112677
_cell_angle_gamma	80.604502
loop_
_atom_site_label
_atom_site_type_symbol
_atom_site_fract_x
_atom_site_fract_y
_atom_site_fract_z
Zn1	Zn	1.111128	-0.282337	0.391906
Zn2	Zn	1.139095	-0.406982	0.252928
Zn3	Zn	0.998268	-0.281929	0.269756
Zn4	Zn	1.018856	-0.417359	0.363878
O5	O	1.066837	-0.347152	0.319617
O6	O	1.212391	-0.294700	0.378157
O7	O	1.123502	-0.385880	0.157607
O8	O	0.992919	-0.173141	0.304732
O9	O	1.232938	-0.386276	0.276050
O10	O	1.075837	-0.173441	0.394475
O11	O	1.020036	-0.294004	0.169971
O12	O	0.903446	-0.304066	0.277555
O13	O	1.028008	-0.403961	0.465150
O14	O	0.918572	-0.403565	0.346706
O15	O	1.095801	-0.304761	0.485741
O16	O	1.143465	-0.517201	0.248873
O17	O	1.055126	-0.524824	0.330388
C18	C	0.885715	-0.354898	0.310916
C19	C	0.808233	-0.358232	0.307206
C20	C	0.761147	-0.312201	0.358680
C21	C	0.688344	-0.315329	0.355189
C22	C	0.662629	-0.364492	0.300227
C23	C	0.709720	-0.410525	0.248749
C24	C	0.782521	-0.407392	0.252237
C25	C	0.446043	-0.378962	0.284085
C26	C	0.373237	-0.382093	0.280602
C27	C	0.351866	-0.286895	0.387042
C28	C	0.424670	-0.283770	0.390528
C29	C	0.471754	-0.329800	0.339047
N30	N	0.588213	-0.367693	0.296659
N31	N	0.546168	-0.326595	0.342613
C32	C	1.104583	-0.549234	0.284779
C33	C	1.120794	-0.635684	0.269902
C34	C	0.943961	-0.939986	0.432906
C35	C	0.959196	-1.021218	0.418904
C36	C	1.051236	-1.013216	0.334116
C37	C	1.036011	-0.931982	0.348113
C38	C	0.982373	-0.895373	0.397508
C39	C	1.074423	-0.887369	0.312715
C40	C	1.059196	-0.806142	0.326708
C41	C	1.005559	-0.769528	0.376100
C42	C	0.967147	-0.814146	0.411502
C43	C	1.128058	-0.923979	0.263316
C44	C	1.166469	-0.879366	0.227918
C45	C	1.151246	-0.798138	0.241915
C46	C	1.097609	-0.761523	0.291306
C47	C	1.189659	-0.753519	0.206513
C48	C	1.174432	-0.672292	0.220507
C49	C	1.082383	-0.680296	0.305300
C50	C	1.248666	-0.339376	0.328353
C51	C	1.326151	-0.336062	0.332076
C52	C	1.061081	-0.355564	0.501447
C53	C	1.058629	-0.359149	0.578932
C54	C	1.028962	-0.144280	0.354607
C55	C	1.012822	-0.057829	0.369518
C56	C	1.072599	-0.338714	0.138506
C57	C	1.075146	-0.334905	0.061065
C58	C	1.092771	-0.309187	0.626057
C59	C	1.090457	-0.312553	0.698862
C60	C	1.054006	-0.365885	0.724542
C61	C	1.019860	-0.415848	0.677412
C62	C	1.022169	-0.412478	0.604608
C63	C	1.043309	-0.381498	0.941132
C64	C	1.041004	-0.384866	1.013941
C65	C	1.111601	-0.281569	1.035387
C66	C	1.113911	-0.278207	0.962580
C67	C	1.079762	-0.328168	0.915457
N68	N	1.051642	-0.369328	0.798960
N69	N	1.082121	-0.324721	0.841040
H70	H	1.038709	-0.650489	0.345528
H71	H	1.139402	-0.240893	1.073762
H72	H	1.011319	-0.428297	1.034845
H73	H	1.205710	-0.635968	0.191681
H74	H	0.900288	-0.910178	0.473134
H75	H	0.650010	-0.277848	0.397105
H76	H	1.015515	-0.422191	0.902770
H77	H	1.210139	-0.909184	0.187698
O78	O	1.123690	-0.263991	0.744538
C79	C	1.156348	-0.216188	0.706262
H80	H	1.166354	-0.245543	0.648987
H81	H	1.209059	-0.206521	0.731371
H82	H	1.120041	-0.157847	0.707479
O83	O	0.921837	-1.064439	0.453383
C84	C	0.871220	-1.014706	0.499966
H85	H	0.888834	-0.955668	0.513752
H86	H	0.866399	-1.041029	0.550485
H87	H	0.817496	-1.007205	0.473330
H88	H	0.993158	-0.703387	0.387487
H89	H	1.233326	-0.783338	0.166290
H90	H	0.313522	-0.249420	0.428954
H91	H	1.143596	-0.234781	0.941678
O92	O	0.984506	-0.467631	0.702470
C93	C	0.989774	-0.459881	0.776835
H94	H	1.038503	-0.432570	0.793761
H95	H	0.995043	-0.519624	0.794227
H96	H	0.940037	-0.421184	0.802651
O97	O	1.128077	-0.257340	0.601042
C98	C	1.080339	-0.206840	0.565702
H99	H	1.032979	-0.236029	0.547518
H100	H	1.108411	-0.192827	0.517673
H101	H	1.061024	-0.150830	0.603336
H102	H	0.445601	-0.243739	0.435286
O103	O	0.989003	-0.461100	0.558922
C104	C	0.956325	-0.508886	0.597198
H105	H	0.983730	-0.512752	0.650008
H106	H	0.961008	-0.569515	0.565237
H107	H	0.897814	-0.483036	0.607299
H108	H	0.923473	-0.784339	0.451730
H109	H	1.094907	-1.043033	0.293896
H110	H	0.782078	-0.272169	0.403437
H111	H	1.140455	-0.990119	0.251926
H112	H	0.352303	-0.422131	0.235845
H113	H	0.688776	-0.450551	0.203995
O114	O	0.491681	-0.423752	0.234041
C115	C	0.453368	-0.467801	0.184776
H116	H	0.401089	-0.474098	0.210372
H117	H	0.486089	-0.527816	0.167691
H118	H	0.441944	-0.437111	0.136429
H119	H	0.820858	-0.444875	0.210322
