data_functionalizedCrystal
_audit_creation_method	'MofGen! by Chris Wilmer'
_symmetry_space_group_name_H-M	'P1'
_symmetry_Int_Tables_number	1
_symmetry_cell_setting	triclinic
loop_
_symmetry_equiv_pos_as_xyz
  x,y,z
_cell_length_a	16.120530
_cell_length_b	18.215404
_cell_length_c	18.215399
_cell_angle_alpha	90.029924
_cell_angle_beta	87.086235
_cell_angle_gamma	92.880662
loop_
_atom_site_label
_atom_site_type_symbol
_atom_site_fract_x
_atom_site_fract_y
_atom_site_fract_z
Zn1	Zn	1.274516	0.350098	-0.473094
Zn2	Zn	1.774516	0.850098	0.026906
Zn3	Zn	1.274422	0.473170	-0.350025
Zn4	Zn	1.774422	0.973170	0.149975
Zn5	Zn	1.135107	0.343878	-0.343810
Zn6	Zn	1.635107	0.843878	0.156190
Zn7	Zn	1.135063	0.466877	-0.466820
Zn8	Zn	1.635063	0.966877	0.033180
O9	O	1.204777	0.408506	-0.408437
O10	O	1.704777	0.908506	0.091563
O11	O	1.391169	0.371661	-0.461996
O12	O	1.891169	0.871661	0.038004
O13	O	1.255920	0.456050	-0.246215
O14	O	1.755920	0.956050	0.253785
O15	O	1.153657	0.241721	-0.360984
O16	O	1.653657	0.741721	0.139016
O17	O	1.391100	0.462081	-0.371577
O18	O	1.891100	0.962081	0.128423
O19	O	1.256080	0.246291	-0.455969
O20	O	1.756080	0.746291	0.044031
O21	O	1.153566	0.361059	-0.241649
O22	O	1.653566	0.861059	0.258351
O23	O	1.018435	0.354957	-0.354900
O24	O	1.518435	0.854957	0.145100
O25	O	1.153583	0.451355	-0.570637
O26	O	1.653583	0.951355	-0.070637
O27	O	1.018404	0.445324	-0.445275
O28	O	1.518404	0.945324	0.054725
O29	O	1.256038	0.365558	-0.575247
O30	O	1.756038	0.865558	-0.075247
O31	O	1.255878	0.575317	-0.365493
O32	O	1.755878	1.075317	0.134507
O33	O	1.153492	0.570694	-0.451302
O34	O	1.653492	1.070694	0.048698
C35	C	0.988169	0.398783	-0.398733
C36	C	1.488169	0.898783	0.101267
C37	C	0.895504	0.394642	-0.394599
C38	C	1.395504	0.894642	0.105401
C39	C	1.204693	0.599708	-0.408408
C40	C	1.704693	1.099708	0.091592
C41	C	1.204733	0.681509	-0.408424
C42	C	1.704733	1.181509	0.091576
C43	C	1.204816	0.408449	-0.600392
C44	C	1.704816	0.908449	-0.100392
C45	C	1.204833	0.408424	-0.682192
C46	C	1.704833	0.908424	-0.182192
C47	C	0.725843	0.387063	-0.387057
C48	C	1.225843	0.887063	0.112943
C49	C	0.684552	0.430003	-0.429871
C50	C	1.184552	0.930003	0.070129
C51	C	0.590146	0.425786	-0.425675
C52	C	1.090146	0.925786	0.074325
C53	C	0.820257	0.391279	-0.391252
C54	C	1.320257	0.891279	0.108748
C55	C	1.422230	0.418267	-0.418180
C56	C	1.922230	0.918267	0.081820
C57	C	1.514896	0.422426	-0.422332
C58	C	2.014896	0.922426	0.077668
C59	C	1.258175	0.872092	-0.363845
C60	C	1.758175	1.372092	0.136155
C61	C	1.258214	0.948952	-0.363869
C62	C	1.758214	1.448952	0.136131
C63	C	1.151507	0.944173	-0.453140
C64	C	1.651507	1.444173	0.046860
C65	C	1.151473	0.867315	-0.453120
C66	C	1.651473	1.367315	0.046880
C67	C	1.204805	0.831276	-0.408468
C68	C	1.704805	1.331276	0.091532
C69	C	1.204878	0.984995	-0.408512
C70	C	1.704878	1.484995	0.091488
C71	C	1.204920	1.068330	-0.408538
C72	C	1.704920	1.568330	0.091462
C73	C	1.204765	0.747935	-0.408443
C74	C	1.704765	1.247935	0.091557
C75	C	1.204889	1.216558	-0.408497
C76	C	1.704889	1.716558	0.091503
C77	C	1.204951	1.134762	-0.408557
C78	C	1.704951	1.634762	0.091443
C79	C	1.151582	0.358933	-0.868011
C80	C	1.651582	0.858933	-0.368011
C81	C	1.151597	0.358919	-0.944870
C82	C	1.651597	0.858919	-0.444870
C83	C	1.258184	0.457832	-0.949615
C84	C	1.758184	0.957832	-0.449615
C85	C	1.258164	0.457850	-0.872756
C86	C	1.758164	0.957850	-0.372756
C87	C	1.204865	0.408396	-0.831957
C88	C	1.704865	0.908396	-0.331957
C89	C	1.204899	0.408364	-0.985674
C90	C	1.704899	0.908364	-0.485674
C91	C	1.204915	0.408349	-1.069009
C92	C	1.704915	0.908349	-0.569009
C93	C	1.204847	0.408412	-0.748617
C94	C	1.704847	0.908412	-0.248617
C95	C	1.204786	0.408512	-0.217231
C96	C	1.704786	0.908512	0.282769
C97	C	1.204930	0.408336	-0.135439
C98	C	1.704930	0.908336	0.364561
H99	H	0.720102	0.469930	-0.469677
H100	H	1.220102	0.969930	0.030323
O101	O	1.315674	0.511169	-0.993617
O102	O	1.815674	1.011169	-0.493617
H103	H	1.358124	0.480127	-1.030537
H104	H	1.858124	0.980127	-0.530537
H105	H	1.108182	0.318665	-0.834794
H106	H	1.608182	0.818665	-0.334794
H107	H	0.690295	0.347139	-0.347254
H108	H	1.190295	0.847139	0.152746
O109	O	1.315705	0.833218	-0.315697
O110	O	1.815705	1.333218	0.184303
H111	H	1.352829	0.874516	-0.284679
H112	H	1.852829	1.374516	0.215321
O113	O	1.093906	0.823289	-0.501255
O114	O	1.593906	1.323289	-0.001255
H115	H	1.102851	0.763790	-0.493745
H116	H	1.602851	1.263790	0.006255
H117	H	1.301674	0.982181	-0.327534
H118	H	1.801674	1.482181	0.172466
H119	H	1.108084	0.973526	-0.489493
H120	H	1.608084	1.473526	0.010507
O121	O	1.094134	0.305565	-0.983761
O122	O	1.594134	0.805565	-0.483761
H123	H	1.057077	0.271178	-0.942475
H124	H	1.557077	0.771178	-0.442475
H125	H	1.301556	0.498131	-0.843401
H126	H	1.801556	0.998131	-0.343401
