data_functionalizedCrystal
_audit_creation_method	'MofGen! by Chris Wilmer'
_symmetry_space_group_name_H-M	'P1'
_symmetry_Int_Tables_number	1
_symmetry_cell_setting	triclinic
loop_
_symmetry_equiv_pos_as_xyz
  x,y,z
_cell_length_a	8.559649
_cell_length_b	8.559649
_cell_length_c	7.088668
_cell_angle_alpha	97.661819
_cell_angle_beta	97.665285
_cell_angle_gamma	69.778664
loop_
_atom_site_label
_atom_site_type_symbol
_atom_site_fract_x
_atom_site_fract_y
_atom_site_fract_z
O1	O	2.139926	-0.041996	0.158988
O2	O	1.664442	0.041785	0.158990
O3	O	1.944074	-0.237848	0.158987
O4	O	1.860293	0.237637	0.158991
O5	O	1.917963	-0.263932	-0.159003
O6	O	1.638330	0.015702	-0.158999
O7	O	2.113815	-0.068080	-0.159002
Cu8	Cu	1.873689	-0.028571	-0.188035
Cu9	Cu	1.904568	0.002276	0.188024
O10	O	1.834182	0.211554	-0.158998
C11	C	1.591077	0.035092	-0.000004
C12	C	1.411378	0.053992	-0.000003
C13	C	1.937368	-0.311199	-0.000004
C14	C	1.956268	-0.490897	0.000006
C15	C	2.187180	-0.061387	-0.000003
C16	C	2.366880	-0.080285	0.000009
C17	C	1.840889	0.284904	-0.000003
C18	C	1.821990	0.464604	-0.000001
N19	N	1.851982	-0.050269	-0.452536
N20	N	1.926289	0.023960	0.452524
H21	H	1.692570	-0.436019	-0.000006
O22	O	2.017984	0.115962	-0.450237
C23	C	1.948924	0.282162	-0.498985
H24	H	1.873328	0.285008	-0.644389
H25	H	1.863752	0.361755	-0.386380
C26	C	2.183511	0.348855	-0.329342
C27	C	2.090673	0.352348	-0.507937
H28	H	2.270946	0.392153	-0.334856
H29	H	2.230036	0.236885	-0.296493
H30	H	2.112516	0.415180	-0.235523
H31	H	2.161663	0.286007	-0.601748
H32	H	2.044163	0.464309	-0.540803
H33	H	1.312001	0.183413	0.000017
H34	H	1.466268	-0.209713	0.000008
H35	H	2.085695	-0.590287	-0.000010
H36	H	1.775016	-0.127195	-0.534227
