data_functionalizedCrystal
_audit_creation_method	'MofGen! by Chris Wilmer'
_symmetry_space_group_name_H-M	'P1'
_symmetry_Int_Tables_number	1
_symmetry_cell_setting	triclinic
loop_
_symmetry_equiv_pos_as_xyz
  x,y,z
_cell_length_a	16.959455
_cell_length_b	21.295417
_cell_length_c	16.959455
_cell_angle_alpha	90.019041
_cell_angle_beta	90.001568
_cell_angle_gamma	90.027454
loop_
_atom_site_label
_atom_site_type_symbol
_atom_site_fract_x
_atom_site_fract_y
_atom_site_fract_z
Zn1	Zn	1.208227	-0.250748	0.446882
Zn2	Zn	1.208155	-0.355995	0.314692
Zn3	Zn	1.076085	-0.250738	0.314719
Zn4	Zn	1.075996	-0.355978	0.446830
O5	O	1.142116	-0.303365	0.380781
O6	O	1.318828	-0.264721	0.429356
O7	O	1.190642	-0.342036	0.204085
O8	O	1.093681	-0.162650	0.332284
O9	O	1.318775	-0.342046	0.332237
O10	O	1.190765	-0.162658	0.429383
O11	O	1.093611	-0.264704	0.204105
O12	O	0.965462	-0.264687	0.332234
O13	O	1.093530	-0.342016	0.557448
O14	O	0.965397	-0.342006	0.429296
O15	O	1.190679	-0.264704	0.557486
O16	O	1.190556	-0.444083	0.332187
O17	O	1.093460	-0.444070	0.429269
C18	C	0.936749	-0.303344	0.380763
C19	C	0.848893	-0.303351	0.380774
C20	C	0.477427	-0.263072	0.330346
C21	C	0.477408	-0.343710	0.431260
C22	C	0.559953	-0.343701	0.431256
C23	C	0.601240	-0.303378	0.380795
C24	C	0.559980	-0.263063	0.330338
C25	C	0.601219	-0.384019	0.481705
C26	C	0.683770	-0.384012	0.481702
C27	C	0.725058	-0.343685	0.431244
C28	C	0.683793	-0.303369	0.380786
C29	C	0.725080	-0.263045	0.330325
C30	C	0.683817	-0.222725	0.279871
C31	C	0.601268	-0.222736	0.279881
C32	C	0.807606	-0.343674	0.431235
C33	C	0.807633	-0.263036	0.330317
C34	C	1.142012	-0.466917	0.380737
C35	C	1.142040	-0.536885	0.380745
C36	C	1.192643	-0.569737	0.330246
C37	C	1.192680	-0.635480	0.330264
C38	C	1.142100	-0.668367	0.380772
C39	C	1.091493	-0.635507	0.431280
C40	C	1.091463	-0.569766	0.431267
N41	N	1.072952	-0.771631	0.386792
N42	N	1.072983	-0.834083	0.386800
C43	C	1.142189	-0.866442	0.380817
N44	N	1.211364	-0.833991	0.374810
N45	N	1.211332	-0.771534	0.374798
C46	C	1.142127	-0.739653	0.380793
C47	C	1.192836	-0.970580	0.330335
C48	C	1.192874	-1.036324	0.330359
C49	C	1.091681	-1.036350	0.431371
C50	C	1.091649	-0.970607	0.431352
C51	C	1.142226	-0.937726	0.380830
C52	C	1.348284	-0.303386	0.380799
C53	C	1.436140	-0.303396	0.380807
C54	C	1.142103	-0.303359	0.586949
C55	C	1.142097	-0.303357	0.674806
C56	C	1.142241	-0.139175	0.380842
C57	C	1.142295	-0.069207	0.380868
C58	C	1.091527	-0.343627	1.046264
C59	C	1.192690	-0.263121	1.046298
C60	C	1.192687	-0.263116	0.963752
C61	C	1.142105	-0.303367	0.922459
C62	C	1.091525	-0.343624	0.963710
C63	C	1.243272	-0.222865	0.922494
C64	C	1.243272	-0.222858	0.839943
C65	C	1.192685	-0.263107	0.798648
C66	C	1.142102	-0.303365	0.839905
C67	C	1.091520	-0.343616	0.798611
C68	C	1.040932	-0.383871	0.839867
C69	C	1.040938	-0.383873	0.922415
C70	C	1.192680	-0.263106	0.716099
C71	C	1.091517	-0.343613	0.716058
C72	C	1.142118	-0.303382	1.175415
C73	C	1.142110	-0.303375	1.087558
H74	H	0.841243	-0.230196	0.289230
H75	H	1.050440	-0.943857	0.472469
H76	H	1.234021	-0.943807	0.289200
H77	H	0.841199	-0.376504	0.472311
H78	H	1.233827	-0.542968	0.289110
H79	H	1.233890	-0.662233	0.289142
H80	H	1.050256	-0.543017	0.472390
H81	H	0.717443	-0.189897	0.238782
H82	H	0.999752	-0.416646	0.806234
H83	H	1.050312	-0.662288	0.472406
H84	H	0.567598	-0.416853	0.522782
H85	H	0.443827	-0.230243	0.289270
H86	H	0.717360	-0.416843	0.522785
H87	H	1.284459	-0.190098	0.956122
H88	H	1.050501	-1.063126	0.472499
H89	H	0.999755	-0.416648	0.956013
H90	H	1.050338	-0.376399	1.079858
H91	H	1.233877	-0.230354	1.079925
H92	H	0.567664	-0.189910	0.238803
H93	H	0.443787	-0.376543	0.472339
H94	H	1.050319	-0.376386	0.682442
H95	H	1.284463	-0.190080	0.806360
H96	H	1.234086	-1.063071	0.289238
H97	H	1.233869	-0.230332	0.682513
