data_functionalizedCrystal
_audit_creation_method	'MofGen! by Chris Wilmer'
_symmetry_space_group_name_H-M	'P1'
_symmetry_Int_Tables_number	1
_symmetry_cell_setting	triclinic
loop_
_symmetry_equiv_pos_as_xyz
  x,y,z
_cell_length_a	16.109318
_cell_length_b	14.853569
_cell_length_c	15.186229
_cell_angle_alpha	89.995084
_cell_angle_beta	90.000224
_cell_angle_gamma	83.552064
loop_
_atom_site_label
_atom_site_type_symbol
_atom_site_fract_x
_atom_site_fract_y
_atom_site_fract_z
O1	O	1.103285	0.115955	-0.073158
O2	O	1.603285	0.615955	0.426842
O3	O	0.861245	0.130360	-0.073176
O4	O	1.361245	0.630360	0.426824
O5	O	0.988730	-0.008083	-0.073158
O6	O	1.488730	0.491917	0.426842
O7	O	0.975801	0.254397	-0.073176
O8	O	1.475801	0.754397	0.426824
O9	O	0.988721	-0.008084	0.073299
O10	O	1.488721	0.491916	0.573299
O11	O	0.861237	0.130358	0.073282
O12	O	1.361237	0.630358	0.573282
O13	O	1.103277	0.115953	0.073300
O14	O	1.603277	0.615953	0.573300
Zn15	Zn	0.982255	0.123155	0.096544
Zn16	Zn	1.482255	0.623155	0.596544
Zn17	Zn	0.982267	0.123158	-0.096420
Zn18	Zn	1.482267	0.623158	0.403580
O19	O	0.975792	0.254395	0.073282
O20	O	1.475792	0.754395	0.573282
C21	C	0.830266	0.129773	0.000051
C22	C	1.330266	0.629773	0.500051
C23	C	0.737969	0.128015	0.000044
C24	C	1.237969	0.628015	0.500044
C25	C	0.438892	0.122340	-0.079774
C26	C	0.938892	0.622340	0.420226
C27	C	0.525615	0.123985	-0.079779
C28	C	1.025615	0.623985	0.420221
C29	C	0.525625	0.123970	0.079896
C30	C	1.025625	0.623970	0.579896
C31	C	0.438903	0.122319	0.079901
C32	C	0.938903	0.622319	0.579901
C33	C	0.395539	0.121508	0.000063
C34	C	0.895539	0.621508	0.500063
C35	C	0.568983	0.124805	0.000053
C36	C	1.068983	0.624805	0.500053
C37	C	0.663013	0.126589	0.000048
C38	C	1.163013	0.626589	0.500048
C39	C	0.301503	0.119722	0.000068
C40	C	0.801503	0.619722	0.500068
C41	C	0.988140	-0.041671	0.000071
C42	C	1.488140	0.458329	0.500071
C43	C	0.986383	-0.141752	0.000072
C44	C	1.486383	0.358248	0.500072
C45	C	0.909831	-0.178007	0.000068
C46	C	1.409831	0.321993	0.500068
C47	C	1.061286	-0.199537	0.000069
C48	C	1.561286	0.300463	0.500069
C49	C	1.059638	-0.293568	0.000066
C50	C	1.559638	0.206432	0.500066
C51	C	0.983086	-0.329824	0.000061
C52	C	1.483086	0.170176	0.500061
C53	C	0.908181	-0.272047	0.000061
C54	C	1.408181	0.227953	0.500061
C55	C	1.134542	-0.351351	0.000057
C56	C	1.634542	0.148649	0.500057
C57	C	1.132897	-0.445389	0.000052
C58	C	1.632897	0.054611	0.500052
C59	C	1.056344	-0.481646	0.000054
C60	C	1.556344	0.018354	0.500054
C61	C	0.981436	-0.423864	0.000055
C62	C	1.481436	0.076136	0.500055
C63	C	0.904884	-0.460119	0.000051
C64	C	1.404884	0.039881	0.500051
C65	C	0.829975	-0.402338	0.000058
C66	C	1.329975	0.097662	0.500058
C67	C	0.831627	-0.308304	0.000063
C68	C	1.331627	0.191696	0.500063
C69	C	1.054691	-0.575680	0.000049
C70	C	1.554691	-0.075680	0.500049
C71	C	0.903234	-0.554159	0.000044
C72	C	1.403234	-0.054159	0.500044
C73	C	1.134256	0.116540	0.000071
C74	C	1.634256	0.616540	0.500071
C75	C	1.226553	0.118298	0.000072
C76	C	1.726553	0.618298	0.500072
C77	C	0.976382	0.287984	0.000051
C78	C	1.476382	0.787984	0.500051
C79	C	0.978139	0.388065	0.000044
C80	C	1.478139	0.888065	0.500044
N81	N	0.982254	0.123153	0.228236
N82	N	1.482254	0.623153	0.728236
N83	N	0.982275	0.123153	-0.228113
N84	N	1.482275	0.623153	0.271887
C85	C	1.038723	0.061871	0.453967
C86	C	1.538723	0.561871	0.953967
C87	C	1.038726	0.061869	0.546157
C88	C	1.538726	0.561869	1.046157
C89	C	0.925799	0.184437	0.546150
C90	C	1.425799	0.684437	1.046150
C91	C	0.925793	0.184435	0.453962
C92	C	1.425793	0.684435	0.953962
C93	C	0.982260	0.123152	0.407873
C94	C	1.482260	0.623152	0.907873
C95	C	0.982269	0.123153	0.592251
C96	C	1.482269	0.623153	1.092251
C97	C	0.982271	0.123151	0.692207
C98	C	1.482271	0.623151	1.192207
C99	C	0.982257	0.123153	0.307911
C100	C	1.482257	0.623153	0.807911
H101	H	0.840895	-0.583670	0.000049
H102	H	1.340895	-0.083670	0.500049
N103	N	1.099603	-0.004247	0.404258
N104	N	1.599603	0.495753	0.904258
H105	H	1.091031	0.005045	0.338862
H106	H	1.591031	0.505045	0.838862
H107	H	1.158599	0.006174	0.420361
H108	H	1.658599	0.506174	0.920361
N109	N	0.572369	0.124877	-0.165894
N110	N	1.072369	0.624877	0.334106
H111	H	0.550602	0.180446	-0.200796
H112	H	1.050602	0.680446	0.299204
H113	H	0.633877	0.126007	-0.153717
H114	H	1.133877	0.626007	0.346283
N115	N	0.829041	-0.115692	0.000065
N116	N	1.329041	0.384308	0.500065
H117	H	0.780297	-0.152932	0.000060
H118	H	1.280297	0.347068	0.500060
H119	H	0.826423	-0.076218	0.054363
H120	H	1.326423	0.423782	0.554363
N121	N	0.572393	0.124862	0.166004
N122	N	1.072393	0.624862	0.666004
H123	H	0.563981	0.068720	0.200912
H124	H	1.063981	0.568720	0.700912
H125	H	0.633890	0.126074	0.153817
H126	H	1.133890	0.626074	0.653817
N127	N	0.392123	0.121445	-0.165882
N128	N	0.892123	0.621445	0.334118
H129	H	0.330606	0.120272	-0.153768
H130	H	0.830606	0.620272	0.346232
H131	H	0.400605	0.177587	-0.200752
H132	H	0.900605	0.677587	0.299248
N133	N	1.099638	-0.004216	0.595871
N134	N	1.599638	0.495784	1.095871
H135	H	1.090003	-0.068209	0.579834
H136	H	1.590003	0.431791	1.079834
H137	H	1.158620	0.006285	0.579794
H138	H	1.658620	0.506285	1.079794
H139	H	0.879827	0.234333	0.583685
H140	H	1.379827	0.734333	1.083685
H141	H	0.403605	0.121640	0.144918
H142	H	0.903605	0.621640	0.644918
N143	N	0.747409	-0.441445	0.000045
N144	N	1.247409	0.058555	0.500045
H145	H	0.757736	-0.509783	0.000036
H146	H	1.257736	-0.009783	0.500036
H147	H	0.714627	-0.420326	0.054341
H148	H	1.214627	0.079674	0.554341
H149	H	0.770641	-0.261251	0.000067
H150	H	1.270641	0.238749	0.500067
N151	N	0.864884	0.250526	0.404238
N152	N	1.364884	0.750526	0.904238
H153	H	0.829117	0.289352	0.447422
H154	H	1.329117	0.789352	0.947422
H155	H	0.896751	0.290393	0.365978
H156	H	1.396751	0.790393	0.865978
H157	H	1.123611	-0.170012	0.000090
H158	H	1.623611	0.329988	0.500090
H159	H	1.193893	-0.492427	0.000048
H160	H	1.693893	0.007573	0.500048
N161	N	1.217101	-0.312244	0.000079
N162	N	1.717101	0.187756	0.500079
H163	H	1.221165	-0.273687	-0.054200
H164	H	1.721165	0.226313	0.445800
H165	H	1.221092	-0.273771	0.054419
H166	H	1.721092	0.226229	0.554419
N167	N	1.135474	-0.638000	0.000032
N168	N	1.635474	-0.138000	0.500032
H169	H	1.184220	-0.600763	0.000030
H170	H	1.684220	-0.100763	0.500030
H171	H	1.138094	-0.677493	0.054324
H172	H	1.638094	-0.177493	0.554324
