data_functionalizedCrystal
_audit_creation_method	'MofGen! by Chris Wilmer'
_symmetry_space_group_name_H-M	'P1'
_symmetry_Int_Tables_number	1
_symmetry_cell_setting	triclinic
loop_
_symmetry_equiv_pos_as_xyz
  x,y,z
_cell_length_a	15.995300
_cell_length_b	19.188930
_cell_length_c	18.266242
_cell_angle_alpha	90.006796
_cell_angle_beta	90.007942
_cell_angle_gamma	83.308294
loop_
_atom_site_label
_atom_site_type_symbol
_atom_site_fract_x
_atom_site_fract_y
_atom_site_fract_z
O1	O	1.110686	0.089825	0.060916
O2	O	0.866864	0.100975	0.060913
O3	O	0.995811	-0.006238	0.060900
O4	O	0.981738	0.197039	0.060929
O5	O	0.995794	-0.006235	-0.060862
O6	O	0.866847	0.100979	-0.060849
O7	O	1.110669	0.089829	-0.060846
Zn8	Zn	0.988755	0.095404	-0.080180
Zn9	Zn	0.988777	0.095400	0.080247
O10	O	0.981722	0.197043	-0.060833
C11	C	0.835662	0.100522	0.000031
C12	C	0.742714	0.099159	0.000029
C13	C	0.572540	0.096641	0.000035
C14	C	0.524795	0.172980	0.000044
C15	C	0.428112	0.171587	0.000322
C16	C	0.404992	0.094163	0.000039
C17	C	0.446273	0.056287	0.069429
C18	C	0.542900	0.058219	0.069485
C19	C	0.543164	0.057092	-0.068986
C20	C	0.446220	0.057099	-0.069896
C21	C	0.310302	0.092759	0.000044
C22	C	0.667231	0.098044	0.000035
C23	C	0.995347	-0.032249	0.000017
C24	C	0.993979	-0.109757	0.000011
C25	C	1.069641	-0.154499	0.000008
C26	C	1.068356	-0.227326	0.000020
C27	C	0.991404	-0.255407	0.000020
C28	C	0.915732	-0.210655	0.000026
C29	C	0.917020	-0.137829	0.000022
N30	N	0.932578	-0.363552	-0.041419
N31	N	0.931361	-0.432733	-0.041417
C32	C	0.987521	-0.474825	0.000034
N33	N	1.044958	-0.445123	0.041473
N34	N	1.046178	-0.375935	0.041468
C35	C	0.990000	-0.334373	0.000025
C36	C	1.061794	-0.598535	0.000046
C37	C	1.060506	-0.671363	0.000062
C38	C	0.907880	-0.654690	0.000061
C39	C	0.909171	-0.581864	0.000052
C40	C	0.986130	-0.553791	0.000041
C41	C	1.141871	0.090282	0.000037
C42	C	1.234819	0.091645	0.000044
C43	C	0.982186	0.223053	0.000051
C44	C	0.983554	0.300561	0.000063
N45	N	0.988747	0.095407	-0.189667
C46	C	1.039418	0.137749	-0.771936
C47	C	1.039409	0.137756	-0.695291
C48	C	0.988785	0.095393	-0.656979
C49	C	0.938149	0.053033	-0.695319
C50	C	0.938153	0.053033	-0.771962
N51	N	0.986757	0.034228	-0.536650
N52	N	0.986758	0.034230	-0.463842
C53	C	0.988769	0.095393	-0.426057
N54	N	0.990795	0.156554	-0.463831
N55	N	0.990798	0.156551	-0.536645
C56	C	0.988775	0.095389	-0.573872
C57	C	1.039387	0.137761	-0.304620
C58	C	1.039373	0.137770	-0.227973
C59	C	0.938117	0.053041	-0.228002
C60	C	0.938127	0.053039	-0.304647
C61	C	0.988767	0.095398	-0.342951
N62	N	0.988793	0.095392	0.189734
H63	H	0.417800	0.082251	0.121270
F64	F	1.093243	0.182867	-0.187180
H65	H	0.853078	-0.233523	0.000027
H66	H	1.129971	-0.263762	0.000021
F67	F	0.836486	-0.090209	0.000025
F68	F	1.093304	0.182831	-0.654489
H69	H	0.896929	0.018543	-0.664120
F70	F	0.884268	0.007949	-0.812757
H71	H	0.563565	0.082227	-0.121597
H72	H	0.432382	-0.000602	0.071806
F73	F	0.585354	-0.015049	0.073346
F74	F	1.093279	0.182845	-0.345389
H75	H	0.896893	0.018552	-0.196809
H76	H	0.896906	0.018544	-0.335856
H77	H	0.418772	0.084759	-0.121232
F78	F	1.143700	-0.568656	0.000030
F79	F	1.141040	-0.718983	0.000064
F80	F	0.549219	0.213231	-0.064732
F81	F	0.390754	0.210492	-0.064676
H82	H	0.847559	-0.545433	0.000050
H83	H	1.132307	-0.131647	0.000002
F84	F	0.550285	0.212481	0.064996
H85	H	0.845225	-0.677553	0.000064
H86	H	0.400162	0.201217	0.050361
H87	H	0.561126	0.085513	0.121559
F88	F	0.426437	-0.016681	-0.075657
H89	H	1.080651	0.172242	-0.803119
H90	H	0.575151	0.000809	-0.069661
