data_functionalizedCrystal
_audit_creation_method	'MofGen! by Chris Wilmer'
_symmetry_space_group_name_H-M	'P1'
_symmetry_Int_Tables_number	1
_symmetry_cell_setting	triclinic
loop_
_symmetry_equiv_pos_as_xyz
  x,y,z
_cell_length_a	15.944551
_cell_length_b	14.044220
_cell_length_c	12.503552
_cell_angle_alpha	86.160109
_cell_angle_beta	86.481026
_cell_angle_gamma	91.656192
loop_
_atom_site_label
_atom_site_type_symbol
_atom_site_fract_x
_atom_site_fract_y
_atom_site_fract_z
O1	O	0.198066	-1.263185	0.089211
O2	O	0.190757	-0.987217	0.089238
O3	O	0.072701	-1.132736	0.089214
O4	O	0.316122	-1.117665	0.089235
O5	O	0.081588	-1.121780	-0.089427
O6	O	0.199643	-0.976260	-0.089403
O7	O	0.206952	-1.252228	-0.089430
Cu8	Cu	0.204109	-1.113244	-0.105728
Cu9	Cu	0.193600	-1.126201	0.105535
O10	O	0.325008	-1.106709	-0.089406
C11	C	0.192001	-0.946424	-0.000079
C12	C	0.182459	-0.841198	-0.000069
C13	C	0.045804	-1.126632	-0.000107
C14	C	-0.047583	-1.124756	-0.000107
C15	C	0.205708	-1.293021	-0.000111
C16	C	0.215249	-1.398247	-0.000114
C17	C	-0.269530	-1.030073	-0.000083
C18	C	-0.322874	-1.068639	-0.088168
C19	C	-0.218563	-1.121363	-0.000099
C20	C	-0.331617	-1.079463	0.087958
C21	C	-0.383722	-1.118079	-0.000086
C22	C	-0.270673	-1.159950	-0.088256
C23	C	-0.279414	-1.170766	0.087949
C24	C	-0.332734	-1.209396	-0.000158
C25	C	-0.123419	-1.123252	-0.000107
C26	C	-0.478865	-1.116197	-0.000085
C27	C	0.351905	-1.112813	-0.000083
C28	C	0.445291	-1.114689	-0.000076
N29	N	0.211500	-1.104137	-0.254319
C30	C	0.165017	-0.648534	-0.000092
C31	C	0.232688	-0.590906	-0.000091
C32	C	0.222983	-0.483701	-0.000104
C33	C	0.174721	-0.755749	-0.000079
C34	C	0.175327	-1.148707	-0.526760
C35	C	0.222374	-1.090749	-0.473426
C36	C	0.216322	-1.098200	-0.351504
C37	C	0.181377	-1.141257	-0.648693
N38	N	0.186203	-1.135315	0.254127
H39	H	-0.241893	-0.954293	-0.000164
C40	C	-0.369863	-1.311847	-0.000238
N41	N	-0.397832	-1.389011	-0.000304
H42	H	-0.358290	-1.045406	0.162432
H43	H	0.099799	-0.617360	-0.000104
H44	H	0.297911	-0.622081	-0.000080
C45	C	-0.253317	-1.229054	0.188549
N46	N	-0.233659	-1.272950	0.264330
H47	H	-0.342169	-1.025460	-0.162629
H48	H	0.267197	-1.035535	-0.519333
H49	H	-0.244085	-1.193957	-0.162807
C50	C	0.114770	-1.223287	-0.464745
N51	N	0.069157	-1.279460	-0.418023
