data_functionalizedCrystal
_audit_creation_method	'MofGen! by Chris Wilmer'
_symmetry_space_group_name_H-M	'P1'
_symmetry_Int_Tables_number	1
_symmetry_cell_setting	triclinic
loop_
_symmetry_equiv_pos_as_xyz
  x,y,z
_cell_length_a	11.026607
_cell_length_b	14.519731
_cell_length_c	9.482900
_cell_angle_alpha	99.351580
_cell_angle_beta	78.636152
_cell_angle_gamma	96.137435
loop_
_atom_site_label
_atom_site_type_symbol
_atom_site_fract_x
_atom_site_fract_y
_atom_site_fract_z
O1	O	1.629932	0.375019	-0.120915
O2	O	2.129932	0.875019	0.379085
O3	O	1.276526	0.331028	-0.120915
O4	O	1.776526	0.831028	0.379085
O5	O	1.462583	0.220329	-0.120902
O6	O	1.962583	0.720329	0.379098
O7	O	1.443874	0.485718	-0.120928
O8	O	1.943874	0.985718	0.379072
O9	O	1.424791	0.242930	0.120888
O10	O	1.924791	0.742930	0.620888
O11	O	1.238733	0.353629	0.120875
O12	O	1.738733	0.853629	0.620875
O13	O	1.592139	0.397620	0.120875
O14	O	2.092139	0.897620	0.620875
Cu15	Cu	1.411986	0.377688	0.142952
Cu16	Cu	1.911986	0.877688	0.642952
Cu17	Cu	1.456679	0.350960	-0.142992
Cu18	Cu	1.956679	0.850960	0.357008
O19	O	1.406082	0.508319	0.120862
O20	O	1.906082	1.008319	0.620862
C21	C	1.212400	0.334213	-0.000019
C22	C	1.712400	0.834213	0.499981
C23	C	1.077631	0.310021	-0.000019
C24	C	1.577631	0.810021	0.499981
C25	C	1.003978	0.376820	-0.000026
C26	C	1.503978	0.876820	0.499974
C27	C	0.864687	0.351817	-0.000026
C28	C	1.364687	0.851817	0.499974
C29	C	1.442810	0.197126	-0.000006
C30	C	1.942810	0.697126	0.499994
C31	C	1.440183	0.094313	-0.000005
C32	C	1.940183	0.594313	0.499995
C33	C	1.438048	0.010817	-0.000009
C34	C	1.938048	0.510817	0.499991
C35	C	1.435382	-0.093933	-0.000020
C36	C	1.935382	0.406067	0.499980
C37	C	1.433266	-0.177421	-0.000029
C38	C	1.933266	0.322579	0.499971
C39	C	1.430600	-0.282177	-0.000038
C40	C	1.930600	0.217823	0.499962
C41	C	1.656265	0.394435	-0.000023
C42	C	2.156265	0.894435	0.499977
C43	C	1.791036	0.418626	-0.000033
C44	C	2.291036	0.918626	0.499967
C45	C	1.425855	0.531522	-0.000037
C46	C	1.925855	1.031522	0.499963
C47	C	1.428485	0.634334	-0.000047
C48	C	1.928485	1.134334	0.499953
N49	N	1.380559	0.396488	0.344070
N50	N	1.880559	0.896488	0.844070
N51	N	1.488115	0.332154	-0.344110
N52	N	1.988115	0.832154	0.155890
C53	C	1.447402	0.356499	0.416274
C54	C	1.947402	0.856499	0.916274
C55	C	1.421263	0.372149	0.583690
C56	C	1.921263	0.872149	1.083690
H57	H	0.824634	0.276110	-0.000056
H58	H	1.324634	0.776110	0.499944
C59	C	1.591571	0.270245	0.571993
C60	C	2.091571	0.770245	1.071993
H61	H	1.630110	0.247181	0.639005
H62	H	2.130110	0.747181	1.139005
H63	H	1.651540	0.306220	0.512594
H64	H	2.151540	0.806220	1.012594
H65	H	1.556875	0.219125	0.512635
H66	H	2.056875	0.719125	1.012635
H67	H	0.831092	0.494332	-0.000031
H68	H	1.331092	0.994332	0.499969
H69	H	1.044042	0.452520	-0.000026
H70	H	1.544042	0.952520	0.499974
C71	C	1.023526	0.207755	-0.000008
C72	C	1.523526	0.707755	0.499992
H73	H	1.087796	0.169089	0.000006
H74	H	1.587796	0.669089	0.500006
H75	H	0.987883	0.187657	-0.084322
H76	H	1.487883	0.687657	0.415678
H77	H	0.961531	0.203425	0.084323
H78	H	1.461531	0.703425	0.584323
H79	H	1.523975	0.310672	0.354152
H80	H	2.023975	0.810672	0.854152
H81	H	1.344677	0.417971	0.645809
H82	H	1.844677	0.917971	1.145809
H83	H	1.303978	0.442307	0.406195
H84	H	1.803978	0.942307	0.906195
