data_functionalizedCrystal
_audit_creation_method	'MofGen! by Chris Wilmer'
_symmetry_space_group_name_H-M	'P1'
_symmetry_Int_Tables_number	1
_symmetry_cell_setting	triclinic
loop_
_symmetry_equiv_pos_as_xyz
  x,y,z
_cell_length_a	10.654550
_cell_length_b	19.288864
_cell_length_c	17.766277
_cell_angle_alpha	90.023209
_cell_angle_beta	89.993429
_cell_angle_gamma	96.189426
loop_
_atom_site_label
_atom_site_type_symbol
_atom_site_fract_x
_atom_site_fract_y
_atom_site_fract_z
O1	O	-0.156657	0.922379	0.062836
O2	O	-0.177789	0.720257	0.062785
O3	O	0.015616	0.825965	0.062806
O4	O	-0.350062	0.816670	0.062815
O5	O	0.015625	0.825946	-0.062382
O6	O	-0.177780	0.720238	-0.062404
O7	O	-0.156647	0.922360	-0.062352
Cu8	Cu	-0.167212	0.821297	-0.073809
Cu9	Cu	-0.167224	0.821319	0.074241
O10	O	-0.350052	0.816652	-0.062374
C11	C	-0.177105	0.694366	0.000184
C12	C	-0.175063	0.617249	0.000164
C13	C	-0.288545	0.573296	0.000179
C14	C	-0.286627	0.500836	0.000187
C15	C	-0.171222	0.472333	0.000196
C16	C	-0.057725	0.516296	0.000177
C17	C	-0.059646	0.588754	0.000161
C18	C	-0.080503	0.363484	0.044078
C19	C	-0.078587	0.291027	0.044099
C20	C	-0.165292	0.248849	0.000241
C21	C	-0.253934	0.279135	-0.043627
C22	C	-0.255855	0.351593	-0.043642
C23	C	-0.169126	0.393766	0.000213
C24	C	-0.276702	0.126326	0.000264
C25	C	-0.274779	0.053865	0.000267
C26	C	-0.045875	0.069327	0.000265
C27	C	-0.047800	0.141786	0.000254
C28	C	-0.163217	0.170281	0.000257
C29	C	-0.396840	0.817344	0.000222
C30	C	-0.536240	0.819385	0.000227
C31	C	-0.617058	0.757146	0.000204
C32	C	-0.748037	0.759069	0.000199
C33	C	-0.717368	0.885475	0.000237
C34	C	-0.586391	0.883552	0.000248
C35	C	-0.634766	0.684166	0.000179
C36	C	-0.765745	0.686089	0.000174
C37	C	0.062404	0.825273	0.000212
C38	C	0.201803	0.823231	0.000212
C39	C	-0.157332	0.948250	0.000250
C40	C	-0.159373	1.025367	0.000275
N41	N	-0.167203	0.821287	-0.177939
C42	C	-0.081606	0.868110	-0.217316
C43	C	-0.081600	0.868114	-0.296118
C44	C	-0.167213	0.821301	-0.335539
C45	C	-0.252818	0.774469	-0.296153
C46	C	-0.252813	0.774462	-0.217352
C47	C	-0.281635	0.812752	-0.460376
C48	C	-0.281641	0.812764	-0.539175
C49	C	-0.167229	0.821320	-0.578586
C50	C	-0.052804	0.829879	-0.539188
C51	C	-0.052799	0.829871	-0.460388
C52	C	-0.167228	0.821304	-0.420985
C53	C	-0.081617	0.868150	-0.703409
C54	C	-0.081610	0.868149	-0.782212
C55	C	-0.252839	0.774508	-0.782245
C56	C	-0.252835	0.774506	-0.703444
C57	C	-0.167226	0.821330	-0.664030
N58	N	-0.167223	0.821335	0.178372
H59	H	-0.328027	0.376250	-0.079364
C60	C	-0.415495	0.604641	0.000178
H61	H	-0.400390	0.654090	0.000173
H62	H	-0.462208	0.589565	-0.043472
H63	H	-0.462198	0.589614	0.043846
C64	C	0.018917	0.257718	0.092347
H65	H	0.070297	0.293215	0.118453
H66	H	-0.023739	0.226539	0.127625
H67	H	0.070370	0.232860	0.060723
H68	H	0.040369	0.836838	-0.428313
C69	C	-0.497490	0.952013	0.000290
H70	H	-0.412301	0.941679	0.000303
H71	H	-0.512628	0.978302	-0.043354
H72	H	-0.512682	0.978291	0.043964
C73	C	-0.587262	0.652756	-0.072838
H74	H	-0.498244	0.652499	-0.070343
H75	H	-0.626058	0.606363	-0.078626
H76	H	-0.608161	0.680039	-0.114595
C77	C	0.012527	0.919631	-0.173962
H78	H	0.000256	0.912932	-0.121391
H79	H	0.096321	0.911713	-0.186878
H80	H	-0.000953	0.966043	-0.186863
H81	H	-0.379040	0.465043	0.000197
H82	H	-0.324537	0.244795	-0.079340
H83	H	-0.811883	0.664044	0.054220
H84	H	-0.808070	0.658587	-0.052229
H85	H	-0.322518	0.736332	-0.185290
C86	C	-0.403649	0.157677	0.000258
H87	H	-0.388541	0.207126	0.000257
H88	H	-0.450355	0.142605	-0.043396
H89	H	-0.450362	0.142648	0.043922
C90	C	-0.399616	0.005516	0.000284
H91	H	-0.468623	0.032867	0.000290
H92	H	-0.403630	-0.023095	-0.043367
H93	H	-0.403618	-0.023047	0.043951
C94	C	0.081069	0.037982	0.000279
H95	H	0.065962	-0.011467	0.000296
H96	H	0.127791	0.053009	-0.043377
H97	H	0.127766	0.053057	0.043940
C98	C	0.012554	0.919622	-0.339446
H99	H	0.000292	0.912917	-0.392021
H100	H	-0.000878	0.966038	-0.326505
H101	H	0.096341	0.911679	-0.326548
H102	H	-0.011905	0.906275	-0.671318
H103	H	0.040361	0.836845	-0.571275
H104	H	-0.011899	0.906276	-0.814274
C105	C	-0.347012	0.723015	-0.825599
H106	H	-0.334761	0.729727	-0.878170
H107	H	-0.333589	0.676596	-0.812711
H108	H	-0.430794	0.730963	-0.812673
H109	H	-0.009895	0.397820	0.079797
H110	H	-0.758218	0.937718	0.000267
C111	C	-0.407500	0.803355	-0.582505
H112	H	-0.475639	0.798247	-0.547750
H113	H	-0.414292	0.843077	-0.613220
H114	H	-0.410225	0.762925	-0.613269
C115	C	0.077027	0.190140	0.000249
H116	H	0.059355	0.237375	0.000233
H117	H	0.124363	0.181464	0.043907
H118	H	0.124370	0.181417	-0.043411
C119	C	-0.347015	0.723014	-0.660123
H120	H	-0.334749	0.729712	-0.607547
H121	H	-0.430788	0.730965	-0.673028
H122	H	-0.333594	0.676591	-0.673059
H123	H	-0.322524	0.736353	-0.328253
H124	H	0.036239	0.493084	0.000195
C125	C	-0.407497	0.803345	-0.417032
H126	H	-0.475641	0.798261	-0.451779
H127	H	-0.410231	0.762914	-0.386311
H128	H	-0.414271	0.843068	-0.386273
H129	H	0.032767	0.624542	0.000150
H130	H	-0.606041	0.655627	0.052562
