data_functionalizedCrystal
_audit_creation_method	'MofGen! by Chris Wilmer'
_symmetry_space_group_name_H-M	'P1'
_symmetry_Int_Tables_number	1
_symmetry_cell_setting	triclinic
loop_
_symmetry_equiv_pos_as_xyz
  x,y,z
_cell_length_a	25.639239
_cell_length_b	14.908618
_cell_length_c	14.908308
_cell_angle_alpha	89.826377
_cell_angle_beta	93.262277
_cell_angle_gamma	93.266972
loop_
_atom_site_label
_atom_site_type_symbol
_atom_site_fract_x
_atom_site_fract_y
_atom_site_fract_z
Zn1	Zn	-0.272868	-1.345146	-0.587578
Zn2	Zn	0.227132	-0.845146	-0.087578
Zn3	Zn	-0.355565	-1.353681	-0.437206
Zn4	Zn	0.144435	-0.853681	0.062794
Zn5	Zn	-0.262823	-1.203467	-0.428573
Zn6	Zn	0.237177	-0.703467	0.071427
Zn7	Zn	-0.354941	-1.194710	-0.578854
Zn8	Zn	0.145059	-0.694710	-0.078854
O9	O	-0.311550	-1.274251	-0.508053
O10	O	0.188450	-0.774251	-0.008053
O11	O	-0.288303	-1.472101	-0.574895
O12	O	0.211697	-0.972101	-0.074895
O13	O	-0.339320	-1.340992	-0.310237
O14	O	0.160680	-0.840992	0.189763
O15	O	-0.190995	-1.222353	-0.449704
O16	O	0.309005	-0.722353	0.050296
O17	O	-0.349060	-1.478372	-0.464417
O18	O	0.150940	-0.978372	0.035583
O19	O	-0.198375	-1.326444	-0.566524
O20	O	0.301625	-0.826444	-0.066524
O21	O	-0.271183	-1.230630	-0.303895
O22	O	0.228817	-0.730630	0.196105
O23	O	-0.270578	-1.076482	-0.441244
O24	O	0.229422	-0.576482	0.058756
O25	O	-0.347997	-1.207428	-0.705835
O26	O	0.152003	-0.707428	-0.205835
O27	O	-0.338257	-1.070048	-0.551655
O28	O	0.161743	-0.570048	-0.051655
O29	O	-0.287698	-1.317953	-0.712244
O30	O	0.212302	-0.817953	-0.212244
O31	O	-0.428643	-1.332501	-0.455958
O32	O	0.071357	-0.832501	0.044042
O33	O	-0.428185	-1.215705	-0.560026
O34	O	0.071815	-0.715705	-0.060026
C35	C	-0.303260	-1.040640	-0.494567
C36	C	0.196740	-0.540640	0.005433
C37	C	-0.299727	-0.940699	-0.488818
C38	C	0.200273	-0.440699	0.011182
C39	C	-0.447385	-1.274102	-0.508003
C40	C	0.052615	-0.774102	-0.008003
C41	C	-0.505501	-1.274119	-0.508016
C42	C	-0.005501	-0.774119	-0.008016
C43	C	-0.363661	-0.746257	-0.592833
C44	C	0.136339	-0.246257	-0.092833
C45	C	-0.360344	-0.652354	-0.587435
C46	C	0.139656	-0.152354	-0.087435
C47	C	-0.289772	-0.658986	-0.472630
C48	C	0.210228	-0.158986	0.027370
C49	C	-0.293090	-0.752890	-0.478028
C50	C	0.206910	-0.252890	0.021972
C51	C	-0.330036	-0.796522	-0.538130
C52	C	0.169964	-0.296522	-0.038130
C53	C	-0.333356	-0.890428	-0.543523
C54	C	0.166644	-0.390428	-0.043523
C55	C	-0.262782	-0.897058	-0.428723
C56	C	0.237218	-0.397058	0.071277
C57	C	-0.259465	-0.803155	-0.423326
C58	C	0.240535	-0.303155	0.076674
C59	C	-0.866104	-1.335211	-0.453971
C60	C	-0.366104	-0.835211	0.046029
C61	C	-0.920710	-1.335245	-0.453985
C62	C	-0.420710	-0.835245	0.046015
O63	O	-0.949144	-1.387033	-0.407980
O64	O	-0.449144	-0.887033	0.092020
N65	N	-0.947796	-1.274405	-0.508121
N66	N	-0.447796	-0.774405	-0.008121
C67	C	-0.920274	-1.213534	-0.562254
C68	C	-0.420274	-0.713534	-0.062254
O69	O	-0.948327	-1.161789	-0.608303
O70	O	-0.448327	-0.661789	-0.108303
C71	C	-0.865670	-1.213505	-0.562244
C72	C	-0.365670	-0.713505	-0.062244
C73	C	-0.838586	-1.274342	-0.508097
C74	C	-0.338586	-0.774342	-0.008097
C75	C	-0.839020	-1.396044	-0.399830
C76	C	-0.339020	-0.896044	0.100170
C77	C	-0.784417	-1.396008	-0.399815
C78	C	-0.284417	-0.896008	0.100185
C79	C	-0.756899	-1.335140	-0.453941
C80	C	-0.256899	-0.835140	0.046059
C81	C	-0.783983	-1.274307	-0.508082
C82	C	-0.283983	-0.774307	-0.008082
C83	C	-0.838149	-1.152638	-0.616381
C84	C	-0.338149	-0.652638	-0.116381
C85	C	-0.783541	-1.152615	-0.616367
C86	C	-0.283541	-0.652615	-0.116367
C87	C	-0.756457	-1.213452	-0.562220
C88	C	-0.256457	-0.713452	-0.062220
C89	C	-0.701863	-1.213402	-0.562194
C90	C	-0.201863	-0.713402	-0.062194
N91	N	-0.674776	-1.274242	-0.508057
N92	N	-0.174776	-0.774242	-0.008057
C93	C	-0.702295	-1.335111	-0.453931
C94	C	-0.202295	-0.835111	0.046069
C95	C	-1.034948	-1.213601	-0.562272
C96	C	-0.534948	-0.713601	-0.062272
C97	C	-1.089551	-1.213625	-0.562277
C98	C	-0.589551	-0.713625	-0.062277
C99	C	-1.089983	-1.335337	-0.454010
C100	C	-0.589983	-0.835337	0.045990
C101	C	-1.035378	-1.335308	-0.454000
C102	C	-0.535378	-0.835308	0.046000
C103	C	-1.007861	-1.274440	-0.508135
C104	C	-0.507861	-0.774440	-0.008135
C105	C	-0.587626	-1.335031	-0.453903
C106	C	-0.087626	-0.835031	0.046097
C107	C	-0.533019	-1.334987	-0.453890
C108	C	-0.033019	-0.834987	0.046110
C109	C	-0.532592	-1.213279	-0.562161
C110	C	-0.032592	-0.713279	-0.062161
C111	C	-0.587194	-1.213318	-0.562171
C112	C	-0.087194	-0.713318	-0.062171
C113	C	-0.614710	-1.274202	-0.508039
C114	C	-0.114710	-0.774202	-0.008039
O115	O	-0.673395	-1.161643	-0.608178
O116	O	-0.173395	-0.661643	-0.108178
O117	O	-0.674235	-1.386855	-0.407899
O118	O	-0.174235	-0.886855	0.092101
C119	C	-0.175185	-1.274424	-0.508124
C120	C	0.324815	-0.774424	-0.008124
C121	C	-0.117074	-1.274497	-0.508154
C122	C	0.382926	-0.774497	-0.008154
C123	C	-0.318898	-1.260762	-0.742577
C124	C	0.181102	-0.760762	-0.242577
C125	C	-0.322030	-1.255013	-0.842517
C126	C	0.177970	-0.755013	-0.342517
C127	C	-0.319867	-0.508774	-0.521585
C128	C	0.180133	-0.008774	-0.021585
C129	C	-0.323401	-0.608715	-0.527335
C130	C	0.176599	-0.108715	-0.027335
C131	C	-0.265113	-1.359299	-1.036991
C132	C	0.234887	-0.859299	-0.536991
C133	C	-0.268053	-1.353901	-1.130893
C134	C	0.231947	-0.853901	-0.630893
C135	C	-0.330849	-1.238815	-1.124226
C136	C	0.169151	-0.738815	-0.624226
C137	C	-0.327908	-1.244213	-1.030324
C138	C	0.172092	-0.744213	-0.530324
C139	C	-0.295040	-1.304458	-0.986709
C140	C	0.204960	-0.804458	-0.486709
C141	C	-0.292102	-1.309860	-0.892805
C142	C	0.207898	-0.809860	-0.392805
C143	C	-0.354894	-1.194771	-0.886140
C144	C	0.145106	-0.694771	-0.386140
C145	C	-0.357835	-1.189372	-0.980042
C146	C	0.142165	-0.689372	-0.480042
C147	C	-0.304194	-1.287739	-0.274444
C148	C	0.195806	-0.787739	0.225556
C149	C	-0.300921	-1.293662	-0.174515
C150	C	0.199079	-0.793662	0.325485
H151	H	-0.363441	-0.925951	-0.592460
H152	H	0.136559	-0.425951	-0.092460
F153	F	-0.386751	-1.136409	-0.832620
F154	F	0.113249	-0.636409	-0.332620
H155	H	-0.235403	-0.937994	-0.384179
H156	H	0.264597	-0.437994	0.115821
F157	F	-0.402986	-0.792696	-0.656789
F158	F	0.097014	-0.292696	-0.156789
H159	H	-0.510178	-1.163717	-0.606227
H160	H	-0.010178	-0.663717	-0.106227
F161	F	-0.257122	-1.373980	-0.846389
F162	F	0.242878	-0.873980	-0.346389
F163	F	-0.236201	-1.412268	-1.184403
F164	F	0.263799	-0.912268	-0.684403
F165	F	-1.118369	-1.148864	-0.619897
F166	F	-0.618369	-0.648864	-0.119897
F167	F	-1.005666	-1.148807	-0.619888
F168	F	-0.505666	-0.648807	-0.119888
H169	H	-0.229383	-0.767616	-0.374395
H170	H	0.270617	-0.267616	0.125605
H171	H	-0.387724	-0.611431	-0.631981
H172	H	0.112276	-0.111431	-0.131981
H173	H	-0.357608	-1.189766	-1.159754
H174	H	0.142392	-0.689766	-0.659754
F175	F	-0.504197	-1.399741	-0.396257
F176	F	-0.004197	-0.899741	0.103743
H177	H	-0.610023	-1.384610	-0.409826
H178	H	-0.110023	-0.884610	0.090174
H179	H	-0.861419	-1.445615	-0.355754
H180	H	-0.361419	-0.945615	0.144246
F181	F	-0.230138	-1.423423	-0.990571
F182	F	0.269862	-0.923423	-0.490571
F183	F	-0.755600	-1.460770	-0.342195
F184	F	-0.255600	-0.960770	0.157805
H185	H	-0.384594	-1.140321	-1.015566
H186	H	0.115406	-0.640321	-0.515566
H187	H	-1.013329	-1.384848	-0.409910
H188	H	-0.513329	-0.884848	0.090090
H189	H	-0.259689	-0.623444	-0.423704
H190	H	0.240311	-0.123444	0.076296
H191	H	-1.112398	-1.384903	-0.409940
H192	H	-0.612398	-0.884903	0.090060
H193	H	-0.860191	-1.103094	-0.660468
H194	H	-0.360191	-0.603094	-0.160468
F195	F	-0.754259	-1.087830	-0.673989
F196	F	-0.254259	-0.587830	-0.173989
F197	F	-0.616019	-1.148553	-0.619781
F198	F	-0.116019	-0.648553	-0.119781
