data_functionalizedCrystal
_audit_creation_method	'MofGen! by Chris Wilmer'
_symmetry_space_group_name_H-M	'P1'
_symmetry_Int_Tables_number	1
_symmetry_cell_setting	triclinic
loop_
_symmetry_equiv_pos_as_xyz
  x,y,z
_cell_length_a	17.699083
_cell_length_b	17.699083
_cell_length_c	16.176319
_cell_angle_alpha	90.001116
_cell_angle_beta	89.999583
_cell_angle_gamma	83.283014
loop_
_atom_site_label
_atom_site_type_symbol
_atom_site_fract_x
_atom_site_fract_y
_atom_site_fract_z
O1	O	1.004072	0.095715	0.068702
O2	O	1.504072	0.595715	0.568702
O3	O	0.783693	0.108167	0.068710
O4	O	1.283693	0.608167	0.568710
O5	O	0.900109	-0.008248	0.068714
O6	O	1.400109	0.491752	0.568714
O7	O	0.887656	0.212130	0.068698
O8	O	1.387656	0.712130	0.568698
O9	O	0.900107	-0.008259	-0.068779
O10	O	1.400107	0.491741	0.431221
O11	O	0.783691	0.108157	-0.068784
O12	O	1.283691	0.608157	0.431216
O13	O	1.004070	0.095704	-0.068791
O14	O	1.504070	0.595704	0.431209
Cu15	Cu	0.893880	0.101929	-0.081341
Cu16	Cu	1.393880	0.601929	0.418659
Cu17	Cu	0.893883	0.101942	0.081260
Cu18	Cu	1.393883	0.601942	0.581260
O19	O	0.887654	0.212120	-0.068795
O20	O	1.387654	0.712120	0.431205
C21	C	0.755495	0.107716	-0.000036
C22	C	1.255495	0.607716	0.499964
C23	C	0.671477	0.106377	-0.000033
C24	C	1.171477	0.606377	0.499967
C25	C	1.032268	0.096156	-0.000044
C26	C	1.532268	0.596156	0.499956
C27	C	1.116286	0.097494	-0.000042
C28	C	1.616286	0.597494	0.499958
C29	C	0.888102	0.240322	-0.000051
C30	C	1.388102	0.740322	0.499949
C31	C	0.889440	0.324340	-0.000057
C32	C	1.389440	0.824340	0.499943
C33	C	0.899662	-0.036451	-0.000029
C34	C	1.399662	0.463549	0.499971
C35	C	0.898323	-0.120469	-0.000017
C36	C	1.398323	0.379531	0.499983
C37	C	1.164907	0.029161	-0.000034
C38	C	1.664907	0.529161	0.499966
C39	C	1.243850	0.030423	-0.000037
C40	C	1.743850	0.530423	0.499963
C41	C	1.274171	0.100020	-0.000041
C42	C	1.774171	0.600020	0.499959
C43	C	1.225544	0.168358	-0.000052
C44	C	1.725544	0.668358	0.499948
C45	C	1.146602	0.167095	-0.000055
C46	C	1.646602	0.667095	0.499945
C47	C	1.543907	0.173453	-0.000040
C48	C	2.043907	0.673453	0.499960
C49	C	1.622855	0.174711	-0.000034
C50	C	2.122855	0.674711	0.499966
C51	C	1.641155	0.036781	-0.000022
C52	C	2.141155	0.536781	0.499978
C53	C	1.562213	0.035518	-0.000025
C54	C	2.062213	0.535518	0.499975
C55	C	1.513593	0.103857	-0.000040
C56	C	2.013593	0.603857	0.499960
C57	C	1.427994	0.102487	-0.000038
C58	C	1.927994	0.602487	0.499962
C59	C	1.359769	0.101390	-0.000037
C60	C	1.859769	0.601390	0.499963
N61	N	0.893885	0.101945	0.195625
N62	N	1.393885	0.601945	0.695625
C63	C	0.821107	0.372961	-0.000054
C64	C	1.321107	0.872961	0.499946
C65	C	0.822369	0.451904	-0.000045
C66	C	1.322369	0.951904	0.499955
C67	C	0.891965	0.482225	-0.000043
C68	C	1.391965	0.982225	0.499957
C69	C	0.960304	0.433598	-0.000043
C70	C	1.460304	0.933598	0.499957
C71	C	0.959041	0.354656	-0.000047
C72	C	1.459041	0.854656	0.499953
C73	C	0.965399	0.751961	-0.000027
C74	C	1.465399	1.251961	0.499973
C75	C	0.966657	0.830909	-0.000026
C76	C	1.466657	1.330909	0.499974
C77	C	0.828727	0.849209	-0.000025
C78	C	1.328727	1.349209	0.499975
C79	C	0.827464	0.770267	-0.000029
C80	C	1.327464	1.270267	0.499971
C81	C	0.895803	0.721647	-0.000024
C82	C	1.395803	1.221647	0.499976
C83	C	0.894433	0.636048	-0.000033
C84	C	1.394433	1.136048	0.499967
C85	C	0.893336	0.567823	-0.000040
C86	C	1.393336	1.067823	0.499960
N87	N	0.893884	0.101920	-0.195707
N88	N	1.393884	0.601920	0.304293
C89	C	0.945529	0.050498	0.238891
C90	C	1.445529	0.550498	0.738891
C91	C	0.945532	0.050496	0.325439
C92	C	1.445532	0.550496	0.825439
C93	C	0.893887	0.101939	0.368718
C94	C	1.393887	0.601939	0.868718
C95	C	0.842240	0.153392	0.325446
C96	C	1.342240	0.653392	0.825446
C97	C	0.842241	0.153397	0.238900
C98	C	1.342241	0.653397	0.738900
C99	C	0.842234	0.153375	0.674474
C100	C	1.342234	0.653375	1.174474
C101	C	0.842236	0.153364	0.761026
C102	C	1.342236	0.653364	1.261026
C103	C	0.945525	0.050474	0.761012
C104	C	1.445525	0.550474	1.261012
C105	C	0.945527	0.050479	0.674467
C106	C	1.445527	0.550479	1.174467
C107	C	0.893883	0.101934	0.631202
C108	C	1.393883	0.601934	1.131202
C109	C	0.893881	0.101936	0.537358
C110	C	1.393881	0.601936	1.037358
C111	C	0.893884	0.101934	0.462561
C112	C	1.393884	0.601934	0.962561
H113	H	1.140226	-0.027513	-0.000025
H114	H	1.640226	0.472487	0.499975
H115	H	0.987579	0.008587	0.639231
H116	H	1.487579	0.508587	1.139231
N117	N	1.491508	0.247180	-0.000123
N118	N	1.991508	0.747180	0.499877
H119	H	1.501232	0.277590	0.050822
H120	H	2.001232	0.777590	0.550822
H121	H	1.436906	0.235803	-0.000183
H122	H	1.936906	0.735803	0.499817
N123	N	1.693602	-0.036925	-0.000020
N124	N	2.193602	0.463075	0.499980
H125	H	1.683863	-0.067301	-0.050985
H126	H	2.183863	0.432699	0.449015
H127	H	1.683840	-0.067231	0.050986
H128	H	2.183840	0.432769	0.550986
N129	N	1.529507	-0.039544	-0.000028
N130	N	2.029507	0.460456	0.499972
H131	H	1.497158	-0.043141	0.050938
H132	H	1.997158	0.456859	0.550938
H133	H	1.572328	-0.082600	-0.000058
H134	H	2.072328	0.417400	0.499942
H135	H	0.773083	0.888806	-0.000025
H136	H	1.273083	1.388806	0.499975
N137	N	0.746038	0.340267	-0.000064
N138	N	1.246038	0.840267	0.499936
H139	H	0.716107	0.358006	0.050907
H140	H	1.216107	0.858006	0.550907
H141	H	0.755664	0.282885	-0.000101
H142	H	1.255664	0.782885	0.499899
N143	N	1.041725	0.863615	-0.000025
N144	N	1.541725	1.363615	0.499975
H145	H	1.084826	0.820836	-0.000021
H146	H	1.584826	1.320836	0.499979
H147	H	1.045248	0.895972	0.050945
H148	H	1.545248	1.395972	0.550945
H149	H	1.647538	0.231388	-0.000042
H150	H	2.147538	0.731388	0.499958
N151	N	0.748667	0.504346	-0.000043
N152	N	1.248667	1.004346	0.499957
H153	H	0.718295	0.494602	0.050923
H154	H	1.218295	0.994602	0.550923
H155	H	0.718359	0.494586	-0.051048
H156	H	1.218359	0.994586	0.448952
H157	H	0.800183	0.195270	0.639255
H158	H	1.300183	0.695270	1.139255
N159	N	1.258242	0.243425	-0.000062
N160	N	1.758242	0.743425	0.499938
H161	H	1.315630	0.233857	-0.000055
H162	H	1.815630	0.733857	0.499945
H163	H	1.240442	0.273324	0.050906
H164	H	1.740442	0.773324	0.550906
H165	H	1.107015	0.222739	-0.000064
H166	H	1.607015	0.722739	0.499936
N167	N	1.039103	0.699527	-0.000032
N168	N	1.539103	1.199527	0.499968
H169	H	1.083382	0.730716	-0.000037
H170	H	1.583382	1.230716	0.499963
H171	H	1.041580	0.666378	-0.051005
H172	H	1.541580	1.166378	0.448995
N173	N	0.752400	0.737564	-0.000042
N174	N	1.252400	1.237564	0.499958
H175	H	0.709301	0.780345	-0.000040
H176	H	1.209301	1.280345	0.499960
H177	H	0.748870	0.705206	0.050924
H178	H	1.248870	1.205206	0.550924
H179	H	1.016971	0.458291	-0.000043
H180	H	1.516971	0.958291	0.499957
N181	N	1.032743	0.302211	-0.000045
N182	N	1.532743	0.802211	0.499955
H183	H	1.077024	0.333396	-0.000045
H184	H	1.577024	0.833396	0.499955
H185	H	1.035224	0.269058	-0.051016
H186	H	1.535224	0.769058	0.448984
H187	H	0.987582	0.008604	0.203659
H188	H	1.487582	0.508604	0.703659
N189	N	0.786535	0.208879	0.192228
N190	N	1.286535	0.708879	0.692228
H191	H	0.815323	0.242420	0.156325
H192	H	1.315323	0.742420	0.656325
H193	H	0.753828	0.241415	0.232827
H194	H	1.253828	0.741415	0.732827
N195	N	1.001235	-0.004992	0.372105
N196	N	1.501235	0.495008	0.872105
H197	H	1.033949	-0.037583	0.331555
H198	H	1.533949	0.462417	0.831555
H199	H	0.972393	-0.038478	0.408012
H200	H	1.472393	0.461522	0.908012
N201	N	1.001222	-0.005034	0.807676
N202	N	1.501222	0.494966	1.307676
H203	H	0.993386	0.002764	0.869070
H204	H	1.493386	0.502764	1.369070
H205	H	1.054871	0.003732	0.792553
H206	H	1.554871	0.503732	1.292553
N207	N	0.786528	0.208849	0.807709
N208	N	1.286528	0.708849	1.307709
H209	H	0.753812	0.241448	0.767169
H210	H	1.253812	0.741448	1.267169
H211	H	0.815371	0.242328	0.843625
H212	H	1.315371	0.742328	1.343625
N213	N	0.786533	0.208879	0.372117
N214	N	1.286533	0.708879	0.872117
H215	H	0.815318	0.242414	0.408032
H216	H	1.315318	0.742414	0.908032
H217	H	0.753152	0.179871	0.407971
H218	H	1.253152	0.679871	0.907971
N219	N	1.296292	-0.043279	-0.000038
N220	N	1.796292	0.456721	0.499962
H221	H	1.265105	-0.087559	-0.000033
H222	H	1.765105	0.412441	0.499967
H223	H	1.329447	-0.045758	0.050930
H224	H	1.829447	0.454242	0.550930
