data_functionalizedCrystal
_audit_creation_method	'MofGen! by Chris Wilmer'
_symmetry_space_group_name_H-M	'P1'
_symmetry_Int_Tables_number	1
_symmetry_cell_setting	triclinic
loop_
_symmetry_equiv_pos_as_xyz
  x,y,z
_cell_length_a	10.654558
_cell_length_b	9.065218
_cell_length_c	8.140239
_cell_angle_alpha	90.002802
_cell_angle_beta	89.997412
_cell_angle_gamma	95.247945
loop_
_atom_site_label
_atom_site_type_symbol
_atom_site_fract_x
_atom_site_fract_y
_atom_site_fract_z
O1	O	0.184157	-1.959398	-0.136614
O2	O	0.199262	-1.530031	-0.136616
O3	O	0.009010	-1.754580	-0.136608
O4	O	0.374409	-1.734848	-0.136622
O5	O	0.009008	-1.754567	0.136619
O6	O	0.199260	-1.530018	0.136611
O7	O	0.184155	-1.959385	0.136613
Zn8	Zn	0.191707	-1.744700	0.179993
Zn9	Zn	0.191710	-1.744716	-0.179996
O10	O	0.374407	-1.734836	0.136605
C11	C	0.197809	-1.475046	-0.000003
C12	C	0.193469	-1.311226	-0.000004
C13	C	-0.037795	-1.753122	0.000004
C14	C	-0.177255	-1.748780	-0.000001
C15	C	0.185607	-2.014370	-0.000004
C16	C	0.189948	-2.178189	-0.000014
C17	C	-0.242777	-1.746730	0.148932
C18	C	-0.373816	-1.742663	0.148926
C19	C	-0.373797	-1.742690	-0.148961
C20	C	-0.242762	-1.746768	-0.148953
C21	C	-0.177270	-1.748743	0.297884
C22	C	-0.242793	-1.746691	0.446830
C23	C	-0.373832	-1.742624	0.446823
C24	C	-0.439348	-1.740609	0.297871
C25	C	0.421212	-1.736293	-0.000011
C26	C	0.560671	-1.740635	-0.000016
N27	N	0.191704	-1.744699	0.425675
N28	N	0.191703	-1.744728	-0.425678
H29	H	-0.070571	-1.752049	0.297906
H30	H	-0.427178	-1.740968	0.568102
H31	H	-0.427150	-1.741046	-0.270231
H32	H	-0.546050	-1.737309	0.297878
H33	H	-0.189412	-1.748437	-0.270228
H34	H	-0.189443	-1.748345	0.568101
