data_functionalizedCrystal
_audit_creation_method	'MofGen! by Chris Wilmer'
_symmetry_space_group_name_H-M	'P1'
_symmetry_Int_Tables_number	1
_symmetry_cell_setting	triclinic
loop_
_symmetry_equiv_pos_as_xyz
  x,y,z
_cell_length_a	19.077105
_cell_length_b	12.594516
_cell_length_c	12.594509
_cell_angle_alpha	90.024652
_cell_angle_beta	92.318522
_cell_angle_gamma	87.712633
loop_
_atom_site_label
_atom_site_type_symbol
_atom_site_fract_x
_atom_site_fract_y
_atom_site_fract_z
Zn1	Zn	1.076046	-0.489206	0.667170
Zn2	Zn	1.075973	-0.667207	0.489194
Zn3	Zn	0.958344	-0.482085	0.482057
Zn4	Zn	0.958333	-0.659980	0.659985
O5	O	1.017174	-0.574619	0.574601
O6	O	1.174528	-0.518823	0.649555
O7	O	1.060343	-0.642695	0.339299
O8	O	0.973992	-0.334086	0.506633
O9	O	1.174474	-0.649600	0.518796
O10	O	1.060467	-0.339318	0.642635
O11	O	0.973922	-0.506686	0.334056
O12	O	0.859851	-0.499678	0.499666
O13	O	0.973973	-0.637282	0.809886
O14	O	0.859842	-0.630377	0.630389
O15	O	1.060457	-0.511815	0.815165
O16	O	1.060333	-0.815192	0.511829
O17	O	0.973903	-0.809882	0.637309
C18	C	0.834309	-0.563471	0.563474
C19	C	0.756078	-0.558728	0.558739
C20	C	0.719340	-0.624650	0.624467
C21	C	0.645834	-0.620178	0.620023
C22	C	0.609068	-0.549790	0.549844
C23	C	0.645812	-0.483861	0.484113
C24	C	0.719316	-0.488328	0.488563
C25	C	0.389232	-0.529119	0.529253
C26	C	0.315722	-0.524659	0.524805
C27	C	0.315749	-0.660976	0.660718
C28	C	0.389255	-0.665441	0.665157
C29	C	0.425992	-0.599508	0.599430
N30	N	0.533933	-0.545221	0.545297
N31	N	0.501126	-0.604073	0.603983
C32	C	1.017128	-0.851158	0.574588
C33	C	1.017172	-0.969466	0.574622
C34	C	0.970159	-1.035869	0.642820
C35	C	0.953010	-1.105688	0.544657
C36	C	1.034385	-1.110449	0.672806
C37	C	0.999989	-1.037725	0.476405
C38	C	1.081395	-1.042481	0.604622
C39	C	1.064271	-1.112270	0.506393
C40	C	1.200753	-0.585812	0.585773
C41	C	1.278983	-0.590581	0.590534
C42	C	1.017222	-0.574537	0.852225
C43	C	1.017242	-0.574501	0.970532
C44	C	1.017239	-0.297003	0.574639
C45	C	1.017267	-0.178699	0.574655
C46	C	1.017166	-0.574628	0.298060
C47	C	1.017282	-0.574371	0.179762
C48	C	0.970234	-0.642655	1.107680
C49	C	0.953026	-0.544543	1.035830
C50	C	1.034419	-0.672602	1.040808
C51	C	1.000041	-0.476205	1.109469
C52	C	1.081464	-0.604330	1.114455
C53	C	1.064281	-0.506153	1.042639
H54	H	0.749269	-0.681971	0.681611
Cl55	Cl	0.908669	-0.984210	0.731723
H56	H	1.048930	-0.755620	1.010613
H57	H	0.985406	-1.005939	0.393358
H58	H	0.898742	-1.133605	0.519308
H59	H	1.104069	-1.145528	0.448665
H60	H	0.749228	-0.434641	0.435045
H61	H	0.285829	-0.714653	0.714231
Cl62	Cl	0.435469	-0.753935	0.753384
Cl63	Cl	0.599651	-0.703056	0.702658
H64	H	0.285789	-0.467328	0.467663
H65	H	0.419134	-0.475439	0.475724
Cl66	Cl	1.165162	-0.999378	0.643829
H67	H	1.104051	-0.448393	1.014185
Cl68	Cl	1.056804	-1.159720	0.800980
Cl69	Cl	0.908788	-0.731604	1.151919
Cl70	Cl	0.599592	-0.395365	0.395894
H71	H	0.898731	-0.519253	1.001423
Cl72	Cl	0.977540	-0.347988	1.155876
Cl73	Cl	1.165266	-0.643421	1.167618
