data_functionalizedCrystal
_audit_creation_method	'MofGen! by Chris Wilmer'
_symmetry_space_group_name_H-M	'P1'
_symmetry_Int_Tables_number	1
_symmetry_cell_setting	triclinic
loop_
_symmetry_equiv_pos_as_xyz
  x,y,z
_cell_length_a	13.897449
_cell_length_b	13.897448
_cell_length_c	13.897441
_cell_angle_alpha	90.030599
_cell_angle_beta	90.022859
_cell_angle_gamma	90.017525
loop_
_atom_site_label
_atom_site_type_symbol
_atom_site_fract_x
_atom_site_fract_y
_atom_site_fract_z
Zn1	Zn	-1.474703	0.383988	-0.545436
Zn2	Zn	-1.141369	0.717322	-0.212103
Zn3	Zn	-0.808036	1.050655	0.121231
Zn4	Zn	-1.474597	0.545310	-0.384137
Zn5	Zn	-1.141263	0.878643	-0.050804
Zn6	Zn	-0.807930	1.211977	0.282529
Zn7	Zn	-1.313392	0.384030	-0.384148
Zn8	Zn	-0.980058	0.717364	-0.050815
Zn9	Zn	-0.646725	1.050697	0.282518
Zn10	Zn	-1.313373	0.545243	-0.545384
Zn11	Zn	-0.980040	0.878576	-0.212051
Zn12	Zn	-0.646707	1.211909	0.121283
O13	O	-1.394016	0.464643	-0.464776
O14	O	-1.060683	0.797976	-0.131443
O15	O	-0.727349	1.131310	0.201890
O16	O	-1.609670	0.405399	-0.524056
O17	O	-1.276337	0.738732	-0.190723
O18	O	-0.943003	1.072065	0.142610
O19	O	-1.453176	0.523962	-0.249157
O20	O	-1.119842	0.857295	0.084176
O21	O	-0.786509	1.190628	0.417510
O22	O	-1.334842	0.249043	-0.405570
O23	O	-1.001509	0.582376	-0.072236
O24	O	-0.668175	0.915710	0.261097
O25	O	-1.609592	0.523921	-0.405551
O26	O	-1.276259	0.857254	-0.072218
O27	O	-0.942926	1.190588	0.261116
O28	O	-1.453356	0.249012	-0.524067
O29	O	-1.120023	0.582346	-0.190734
O30	O	-0.786690	0.915679	0.142600
O31	O	-1.334739	0.405470	-0.249165
O32	O	-1.001406	0.738803	0.084168
O33	O	-0.668073	1.072137	0.417502
O34	O	-1.178408	0.405405	-0.405519
O35	O	-0.845074	0.738738	-0.072186
O36	O	-0.511741	1.072071	0.261147
O37	O	-1.334811	0.523806	-0.680372
O38	O	-1.001478	0.857140	-0.347039
O39	O	-0.668144	1.190473	-0.013706
O40	O	-1.178394	0.523847	-0.523978
O41	O	-0.845061	0.857180	-0.190645
O42	O	-0.511728	1.190513	0.142688
O43	O	-1.453339	0.405333	-0.680411
O44	O	-1.120005	0.738667	-0.347077
O45	O	-0.786672	1.072000	-0.013744
O46	O	-1.453158	0.680283	-0.405501
O47	O	-1.119825	1.013616	-0.072167
O48	O	-0.786491	1.346949	0.261166
O49	O	-1.334708	0.680233	-0.523968
O50	O	-1.001375	1.013567	-0.190634
O51	O	-0.668041	1.346900	0.142699
C52	C	-1.143402	0.464624	-0.464745
C53	C	-0.810068	0.797957	-0.131412
C54	C	-0.476735	1.131290	0.201922
C55	C	-1.036188	0.464639	-0.464755
C56	C	-0.702855	0.797972	-0.131421
C57	C	-0.369521	1.131305	0.201912
C58	C	-0.839893	0.464637	-0.464773
C59	C	-0.506559	0.797970	-0.131439
C60	C	-0.173226	1.131304	0.201894
C61	C	-0.949125	0.464635	-0.464760
C62	C	-0.615792	0.797968	-0.131427
C63	C	-0.282459	1.131302	0.201907
C64	C	-1.393946	0.715257	-0.464748
C65	C	-1.060612	1.048591	-0.131415
C66	C	-0.727279	1.381924	0.201918
C67	C	-1.394004	0.822471	-0.464769
C68	C	-1.060671	1.155804	-0.131435
C69	C	-0.727337	1.489138	0.201898
C70	C	-1.394085	0.464558	-0.716369
C71	C	-1.060751	0.797891	-0.383036
C72	C	-0.727418	1.131224	-0.049703
C73	C	-1.394114	0.464521	-0.823583
C74	C	-1.060780	0.797855	-0.490250
C75	C	-0.727447	1.131188	-0.156917
C76	C	-0.645609	0.464656	-0.464799
C77	C	-0.312276	0.797990	-0.131466
C78	C	0.021058	1.131323	0.201868
C79	C	-0.752823	0.464646	-0.464785
C80	C	-0.419490	0.797979	-0.131451
C81	C	-0.086156	1.131313	0.201882
C82	C	-1.394113	0.213050	-0.464825
C83	C	-1.060780	0.546383	-0.131492
C84	C	-0.727446	0.879717	0.201841
C85	C	-1.394154	0.105836	-0.464846
C86	C	-1.060821	0.439169	-0.131513
C87	C	-0.727488	0.772503	0.201820
C88	C	-1.394105	1.018766	-0.464829
C89	C	-1.060772	1.352100	-0.131496
C90	C	-0.727438	1.685433	0.201837
C91	C	-1.394046	0.909534	-0.464798
C92	C	-1.060713	1.242867	-0.131465
C93	C	-0.727379	1.576200	0.201868
C94	C	-1.394140	0.464456	-1.019879
C95	C	-1.060807	0.797789	-0.686545
C96	C	-0.727473	1.131123	-0.353212
C97	C	-1.394122	0.464495	-0.910646
C98	C	-1.060789	0.797828	-0.577313
C99	C	-0.727456	1.131162	-0.243979
C100	C	-1.394003	0.464658	-0.214162
C101	C	-1.060670	0.797992	0.119171
C102	C	-0.727337	1.131325	0.452505
C103	C	-1.394161	0.464423	-0.106949
C104	C	-1.060828	0.797756	0.226385
C105	C	-0.727495	1.131089	0.559718
