data_functionalizedCrystal
_audit_creation_method	'MofGen! by Chris Wilmer'
_symmetry_space_group_name_H-M	'P1'
_symmetry_Int_Tables_number	1
_symmetry_cell_setting	triclinic
loop_
_symmetry_equiv_pos_as_xyz
  x,y,z
_cell_length_a	16.109301
_cell_length_b	19.288865
_cell_length_c	17.766277
_cell_angle_alpha	90.011603
_cell_angle_beta	89.990646
_cell_angle_gamma	96.701136
loop_
_atom_site_label
_atom_site_type_symbol
_atom_site_fract_x
_atom_site_fract_y
_atom_site_fract_z
O1	O	1.102832	-0.089282	-0.062603
O2	O	1.602832	0.410718	0.437397
O3	O	0.860732	-0.100392	-0.062605
O4	O	1.360732	0.399608	0.437395
O5	O	0.988778	0.006277	-0.062589
O6	O	1.488778	0.506277	0.437411
O7	O	0.974787	-0.195951	-0.062619
O8	O	1.474787	0.304049	0.437381
O9	O	0.988755	0.006282	0.062599
O10	O	1.488755	0.506282	0.562599
O11	O	0.860710	-0.100387	0.062583
O12	O	1.360710	0.399613	0.562583
O13	O	1.102810	-0.089276	0.062586
O14	O	1.602810	0.410724	0.562586
Cu15	Cu	0.981758	-0.094831	0.074015
Cu16	Cu	1.481758	0.405169	0.574015
Cu17	Cu	0.981784	-0.094838	-0.074035
Cu18	Cu	1.481784	0.405162	0.425965
O19	O	0.974764	-0.195945	0.062569
O20	O	1.474764	0.304055	0.562569
C21	C	0.829748	-0.099940	-0.000011
C22	C	1.329748	0.400060	0.499989
C23	C	0.737457	-0.098590	-0.000012
C24	C	1.237457	0.401410	0.499988
C25	C	0.988316	0.032157	0.000007
C26	C	1.488316	0.532157	0.500007
C27	C	0.986965	0.109264	0.000014
C28	C	1.486965	0.609264	0.500014
C29	C	1.133794	-0.089729	-0.000010
C30	C	1.633794	0.410271	0.499990
C31	C	1.226085	-0.091078	-0.000015
C32	C	1.726085	0.408922	0.499985
C33	C	1.448563	-0.030921	-0.000002
C34	C	1.948563	0.469079	0.499998
C35	C	1.535279	-0.032194	0.000000
C36	C	2.035279	0.467806	0.500000
C37	C	1.514972	-0.158753	-0.000022
C38	C	2.014972	0.341247	0.499978
C39	C	1.428258	-0.157479	-0.000019
C40	C	1.928258	0.342521	0.499981
C41	C	1.395056	-0.093561	-0.000013
C42	C	1.895056	0.406439	0.499987
C43	C	1.568486	-0.096108	-0.000013
C44	C	2.068486	0.403892	0.499987
C45	C	1.662507	-0.097489	-0.000011
C46	C	2.162507	0.402511	0.499989
C47	C	1.301029	-0.092179	-0.000014
C48	C	1.801029	0.407821	0.499986
C49	C	0.975226	-0.221825	-0.000029
C50	C	1.475226	0.278175	0.499971
C51	C	0.976577	-0.298932	-0.000040
C52	C	1.476577	0.201068	0.499960
N53	N	0.981745	-0.094826	0.178145
N54	N	1.481745	0.405174	0.678145
C55	C	1.062096	0.153781	0.000018
C56	C	1.562096	0.653781	0.500018
C57	C	1.060827	0.226231	0.000007
C58	C	1.560827	0.726231	0.500007
C59	C	0.984421	0.254161	0.000005
C60	C	1.484421	0.754161	0.500005
C61	C	0.909280	0.209634	-0.000004
C62	C	1.409280	0.709634	0.499996
C63	C	0.910552	0.137185	0.000001
C64	C	1.410552	0.637185	0.500001
C65	C	0.924350	0.362593	0.043855
C66	C	1.424350	0.862593	0.543855
C67	C	0.923082	0.435041	0.043856
C68	C	1.423082	0.935041	0.543856
C69	C	0.980496	0.477616	-0.000012
C70	C	1.480496	0.977616	0.499988
C71	C	1.039193	0.447735	-0.043870
C72	C	1.539193	0.947735	0.456130
C73	C	1.040465	0.375287	-0.043865
C74	C	1.540465	0.875287	0.456135
C75	C	0.983034	0.332718	0.000000
C76	C	1.483034	0.832718	0.500000
C77	C	1.054256	0.600692	-0.000021
C78	C	1.554256	1.100692	0.499979
C79	C	1.052983	0.673143	-0.000038
C80	C	1.552983	1.173143	0.499962
C81	C	0.901434	0.656544	-0.000040
C82	C	1.401434	1.156544	0.499960
C83	C	0.902709	0.584095	-0.000031
C84	C	1.402709	1.084095	0.499969
C85	C	0.979122	0.556173	-0.000018
C86	C	1.479122	1.056173	0.499982
N87	N	0.981803	-0.094837	-0.178165
N88	N	1.481803	0.405163	0.321835
C89	C	1.038462	-0.047616	0.217540
C90	C	1.538462	0.452384	0.717540
C91	C	1.038467	-0.047613	0.296341
C92	C	1.538467	0.452387	0.796341
C93	C	0.981763	-0.094832	0.335746
C94	C	1.481763	0.405168	0.835746
C95	C	0.925035	-0.142045	0.296342
C96	C	1.425035	0.357955	0.796342
C97	C	0.925026	-0.142042	0.217542
C98	C	1.425026	0.357958	0.717542
C99	C	0.970632	-0.158093	0.460575
C100	C	1.470632	0.341907	0.960575
C101	C	0.970647	-0.158096	0.539373
C102	C	1.470647	0.341904	1.039373
C103	C	0.981785	-0.094840	0.578792
C104	C	1.481785	0.405160	1.078792
C105	C	0.992926	-0.031577	0.539403
C106	C	1.492926	0.468423	1.039403
C107	C	0.992917	-0.031575	0.460602
C108	C	1.492917	0.468425	0.960602
C109	C	0.981765	-0.094840	0.421192
C110	C	1.481765	0.405160	0.921192
C111	C	1.038510	-0.047623	0.703632
C112	C	1.538510	0.452377	1.203632
C113	C	1.038509	-0.047619	0.782436
C114	C	1.538509	0.452381	1.282436
C115	C	0.925081	-0.142057	0.782435
C116	C	1.425081	0.357943	1.282435
C117	C	0.925078	-0.142055	0.703633
C118	C	1.425078	0.357945	1.203633
C119	C	0.981797	-0.094839	0.664237
C120	C	1.481797	0.405161	1.164237
H121	H	1.421533	0.021126	0.000005
H122	H	1.921533	0.521126	0.500005
H123	H	0.961548	-0.209607	0.428486
H124	H	1.461548	0.290393	0.928486
H125	H	0.878865	-0.180490	0.328430
H126	H	1.378865	0.319510	0.828430
F127	F	1.098872	0.002631	0.661703
F128	F	1.598872	0.502631	1.161703
H129	H	1.088256	0.350962	-0.079577
H130	H	1.588256	0.850962	0.420423
F131	F	1.143422	0.124068	0.000016
F132	F	1.643422	0.624068	0.500016
H133	H	0.847071	0.232379	-0.000006
H134	H	1.347071	0.732379	0.499994
F135	F	0.864658	-0.192292	0.175614
F136	F	1.364658	0.307708	0.675614
H137	H	1.578842	0.018814	0.000010
H138	H	2.078842	0.518814	0.500010
F139	F	1.371307	-0.224153	-0.000027
F140	F	1.871307	0.275847	0.499973
F141	F	0.864716	-0.192305	0.661704
F142	F	1.364716	0.307695	1.161704
H143	H	1.122009	0.262483	0.000007
H144	H	1.622009	0.762483	0.500007
H145	H	1.542016	-0.210793	-0.000029
H146	H	2.042016	0.289207	0.499971
F147	F	1.100302	0.493041	-0.090561
F148	F	1.600302	0.993041	0.409439
H149	H	0.849369	0.100939	-0.000003
H150	H	1.349369	0.600939	0.499997
F151	F	1.135580	0.570973	-0.000004
F152	F	1.635580	1.070973	0.499996
H153	H	1.114166	0.709389	-0.000038
H154	H	1.614166	1.209389	0.499962
H155	H	0.839224	0.679284	-0.000045
H156	H	1.339224	1.179284	0.499955
H157	H	0.841529	0.547848	-0.000031
H158	H	1.341529	1.047848	0.499969
H159	H	1.084644	-0.009169	0.185465
H160	H	1.584644	0.490831	0.685465
F161	F	1.098873	0.002634	0.824363
F162	F	1.598873	0.502634	1.324363
H163	H	0.877594	0.327934	0.079582
H164	H	1.377594	0.827934	0.579582
F165	F	0.860615	0.466835	0.090535
F166	F	1.360615	0.966835	0.590535
F167	F	1.004767	0.035752	0.418684
F168	F	1.504767	0.535752	0.918684
F169	F	1.098836	0.002637	0.338274
F170	F	1.598836	0.502637	0.838274
H171	H	1.001995	0.019932	0.571496
H172	H	1.501995	0.519932	1.071496
H173	H	0.878909	-0.180500	0.814518
H174	H	1.378909	0.319500	1.314518
F175	F	0.958795	-0.225426	0.581287
F176	F	1.458795	0.274574	1.081287
