data_functionalizedCrystal
_audit_creation_method	'MofGen! by Chris Wilmer'
_symmetry_space_group_name_H-M	'P1'
_symmetry_Int_Tables_number	1
_symmetry_cell_setting	triclinic
loop_
_symmetry_equiv_pos_as_xyz
  x,y,z
_cell_length_a	19.805399
_cell_length_b	19.805407
_cell_length_c	19.805405
_cell_angle_alpha	90.026410
_cell_angle_beta	90.029301
_cell_angle_gamma	90.019573
loop_
_atom_site_label
_atom_site_type_symbol
_atom_site_fract_x
_atom_site_fract_y
_atom_site_fract_z
Zn1	Zn	-0.382712	-1.034736	0.269479
Zn2	Zn	-0.269520	-1.034651	0.382667
Zn3	Zn	-0.269536	-0.921550	0.269498
Zn4	Zn	-0.382667	-0.921514	0.382631
O5	O	-0.326109	-0.978113	0.326069
O6	O	-0.367708	-1.129441	0.284501
O7	O	-0.174805	-1.019627	0.367678
O8	O	-0.284575	-0.936616	0.174778
O9	O	-0.284547	-1.129378	0.367660
O10	O	-0.367724	-1.019772	0.174765
O11	O	-0.174817	-0.936533	0.284533
O12	O	-0.284531	-0.826829	0.284498
O13	O	-0.477389	-0.936553	0.367598
O14	O	-0.367648	-0.826802	0.367617
O15	O	-0.477422	-1.019737	0.284466
O16	O	-0.284503	-1.019592	0.477379
O17	O	-0.367632	-0.936471	0.477353
C18	C	-0.326087	-0.802257	0.326056
C19	C	-0.326093	-0.727025	0.326067
C20	C	-0.326076	-0.978036	0.501925
C21	C	-0.326084	-0.978066	0.577157
C22	C	-0.502651	-0.978151	0.326026
C23	C	-0.577883	-0.978167	0.326008
C24	C	-0.613246	-1.021481	0.282719
C25	C	-0.683934	-1.021488	0.282699
C26	C	-0.719259	-0.978184	0.325973
C27	C	-0.683892	-0.934864	0.369264
C28	C	-0.613204	-0.934854	0.369279
C29	C	-0.968965	-0.934902	0.369201
C30	C	-1.039657	-0.934917	0.369183
C31	C	-1.039695	-1.021536	0.282620
C32	C	-0.969008	-1.021527	0.282636
C33	C	-0.933647	-0.978205	0.325924
C34	C	-0.856998	-0.978197	0.325944
C35	C	-0.795906	-0.978194	0.325957
C36	C	-0.150253	-0.978114	0.326062
C37	C	-0.075021	-0.978229	0.325890
C38	C	-0.326131	-1.154655	0.326082
C39	C	-0.326140	-1.229887	0.326088
C40	C	-0.369302	-0.691684	0.369412
C41	C	-0.369312	-0.620996	0.369413
C42	C	-0.326109	-0.585649	0.326072
C43	C	-0.282898	-0.620994	0.282722
C44	C	-0.282892	-0.691681	0.282718
C45	C	-0.282920	-0.335921	0.282737
C46	C	-0.282928	-0.265229	0.282746
C47	C	-0.369340	-0.265235	0.369432
C48	C	-0.369334	-0.335922	0.369428
C49	C	-0.326126	-0.371262	0.326076
C50	C	-0.326117	-0.447910	0.326074
C51	C	-0.326114	-0.509002	0.326076
C52	C	-0.326156	-0.978207	0.149526
C53	C	-0.326177	-0.978248	0.074294
C54	C	-0.282845	-1.021389	0.612492
C55	C	-0.282860	-1.021418	0.683181
C56	C	-0.326111	-0.978119	0.718532
C57	C	-0.369356	-0.934794	0.683192
C58	C	-0.369344	-0.934769	0.612505
C59	C	-0.369406	-0.934894	0.968265
C60	C	-0.369413	-0.934921	1.038957
C61	C	-0.282922	-1.021542	1.038941
C62	C	-0.282910	-1.021517	0.968254
C63	C	-0.326157	-0.978195	0.932920
C64	C	-0.326141	-0.978166	0.856271
C65	C	-0.326124	-0.978145	0.795179
H66	H	-0.584489	-1.056747	0.247482
Br67	Br	-0.224271	-0.573025	0.223895
Br68	Br	-0.731924	-1.080307	0.223978
Br69	Br	-0.224253	-0.739645	0.223886
Br70	Br	-0.921070	-1.080303	0.223909
H71	H	-1.068495	-1.056809	0.247370
Br72	Br	-0.224136	-1.080148	0.564522
Br73	Br	-0.428098	-0.876100	0.920320
H74	H	-0.940183	-0.899637	0.404459
Br75	Br	-0.224208	-1.080280	0.920280
Br76	Br	-0.427979	-0.217271	0.428270
H77	H	-1.068417	-0.899650	0.404423
Br78	Br	-0.427933	-0.739648	0.428240
Br79	Br	-0.731832	-0.876088	0.427989
H80	H	-0.247733	-0.364686	0.247442
H81	H	-0.584413	-0.899576	0.404523
Br82	Br	-0.427956	-0.573036	0.428239
Br83	Br	-0.224179	-1.080220	0.731134
Br84	Br	-0.224231	-1.080340	1.086898
Br85	Br	-0.427965	-0.383890	0.428254
H86	H	-0.247747	-0.236452	0.247448
Br87	Br	-0.428061	-0.876037	0.731168
H88	H	-0.404639	-0.899663	1.067739
H89	H	-0.404555	-0.899492	0.583735
