data_functionalizedCrystal
_audit_creation_method	'MofGen! by Chris Wilmer'
_symmetry_space_group_name_H-M	'P1'
_symmetry_Int_Tables_number	1
_symmetry_cell_setting	triclinic
loop_
_symmetry_equiv_pos_as_xyz
  x,y,z
_cell_length_a	27.780883
_cell_length_b	27.780936
_cell_length_c	27.780901
_cell_angle_alpha	90.000189
_cell_angle_beta	120.000678
_cell_angle_gamma	60.000310
loop_
_atom_site_label
_atom_site_type_symbol
_atom_site_fract_x
_atom_site_fract_y
_atom_site_fract_z
O1	O	0.424577	-0.410285	0.754796
O2	O	0.326011	-0.340284	0.586230
O3	O	0.424576	-0.340283	0.684794
O4	O	0.326013	-0.410286	0.656231
O5	O	0.344515	-0.260225	0.684794
O6	O	0.245951	-0.260226	0.586229
O7	O	0.344517	-0.330227	0.754796
Zn8	Zn	0.282523	-0.282515	0.670513
Zn9	Zn	0.388006	-0.387996	0.670513
O10	O	0.245953	-0.330228	0.656231
C11	C	0.090567	-0.120435	0.298161
C12	C	0.031167	-0.056938	0.268461
C13	C	0.119391	-0.149672	0.356091
C14	C	0.177725	-0.207605	0.298158
C15	C	0.211515	-0.237311	0.268454
C16	C	0.206417	-0.236710	0.356087
C17	C	0.177723	-0.207606	0.385323
C18	C	0.211511	-0.237312	0.448817
C19	C	0.119393	-0.149671	0.269058
C20	C	0.238809	-0.261311	0.500114
C21	C	-0.016821	-0.005638	0.244466
C22	C	0.238815	-0.261309	0.244457
C23	C	0.273054	-0.291419	0.564467
C24	C	-0.077026	0.058720	0.214364
C25	C	0.273063	-0.291417	0.214351
C26	C	0.492815	-0.120446	0.700423
C27	C	0.459024	-0.056952	0.696335
C28	C	0.551153	-0.149681	0.700830
C29	C	0.492815	-0.207612	0.700423
C30	C	0.459023	-0.237316	0.696335
C31	C	0.551153	-0.236715	0.700830
C32	C	0.579981	-0.207612	0.700423
C33	C	0.639388	-0.237315	0.696335
C34	C	0.464119	-0.149682	0.700830
C35	C	0.687382	-0.261312	0.693031
C36	C	0.431723	-0.005654	0.693031
C37	C	0.431723	-0.261313	0.693031
C38	C	0.747593	-0.291417	0.688887
C39	C	0.397473	0.058701	0.688887
C40	C	0.397473	-0.291419	0.688887
C41	C	0.090545	-0.462897	0.640603
C42	C	0.031138	-0.433193	0.644690
C43	C	0.119373	-0.520827	0.640195
C44	C	0.177712	-0.462897	0.640603
C45	C	0.211504	-0.433194	0.644690
C46	C	0.206407	-0.520828	0.640195
C47	C	0.177711	-0.550063	0.640603
C48	C	0.211502	-0.613557	0.644690
C49	C	0.119374	-0.433794	0.640195
C50	C	0.238802	-0.664855	0.647994
C51	C	-0.016856	-0.409196	0.647994
C52	C	0.238805	-0.409197	0.647994
C53	C	0.273051	-0.729210	0.652138
C54	C	-0.077067	-0.379090	0.652138
C55	C	0.273055	-0.379092	0.652138
O56	O	0.905263	-0.410284	0.656231
O57	O	0.765262	-0.340281	0.684795
O58	O	0.765260	-0.340283	0.586230
O59	O	0.905264	-0.410283	0.754796
O60	O	0.765262	-0.260224	0.586230
O61	O	0.765264	-0.260223	0.684794
O62	O	0.905265	-0.330226	0.656231
Zn63	Zn	0.835265	-0.282513	0.670513
Zn64	Zn	0.835262	-0.387994	0.670513
O65	O	0.905266	-0.330225	0.754796
O66	O	0.344529	-0.330230	0.095489
O67	O	0.245965	-0.260221	0.165488
O68	O	0.344542	-0.260237	0.165498
O69	O	0.245952	-0.330214	0.095479
O70	O	0.424592	-0.340301	0.245554
O71	O	0.326015	-0.340285	0.245544
O72	O	0.424579	-0.410293	0.175545
Zn73	Zn	0.388007	-0.388001	0.223255
Zn74	Zn	0.282538	-0.282513	0.117778
O75	O	0.326002	-0.410278	0.175535
O76	O	0.326008	0.249029	0.656231
O77	O	0.424575	0.080465	0.684794
O78	O	0.326008	0.179028	0.586229
O79	O	0.424574	0.150465	0.754795
O80	O	0.245950	0.179026	0.586230
O81	O	0.344517	0.080462	0.684794
O82	O	0.245949	0.249026	0.656231
Zn83	Zn	0.282522	0.164744	0.670513
Zn84	Zn	0.388002	0.164747	0.670512
O85	O	0.344516	0.150463	0.754796
O86	O	-0.234673	0.249051	0.175569
O87	O	-0.094693	0.080482	0.245560
O88	O	-0.094671	0.179036	0.245573
O89	O	-0.234695	0.150498	0.175556
O90	O	-0.094670	0.179037	0.165514
O91	O	-0.094691	0.080483	0.165501
O92	O	-0.234672	0.249052	0.095510
Zn93	Zn	-0.164681	0.164768	0.117794
Zn94	Zn	-0.164683	0.164767	0.223276
O95	O	-0.234694	0.150499	0.095497
C96	C	0.579988	-0.550064	1.042874
C97	C	0.639396	-0.613559	1.072578
C98	C	0.551161	-0.520830	1.071978
C99	C	0.492820	-0.462898	0.955708
C100	C	0.459028	-0.433194	0.892212
C101	C	0.464125	-0.433796	0.984943
C102	C	0.492822	-0.462899	1.042875
C103	C	0.459031	-0.433197	1.072579
C104	C	0.551159	-0.520829	0.984943
C105	C	0.431730	-0.409201	1.096576
C106	C	0.687391	-0.664856	1.096575
C107	C	0.431726	-0.409197	0.840914
C108	C	0.397481	-0.379096	1.126682
C109	C	0.747604	-0.729211	1.126681
C110	C	0.397475	-0.379091	0.776558
C111	C	0.492810	-0.120449	0.298150
C112	C	0.459019	-0.056955	0.268445
C113	C	0.464113	-0.149684	0.269048
C114	C	0.579977	-0.207614	0.385318
C115	C	0.639385	-0.237317	0.448813
C116	C	0.551148	-0.236717	0.356083
C117	C	0.492809	-0.207615	0.298152
C118	C	0.459017	-0.237318	0.268449
C119	C	0.551149	-0.149684	0.356081
C120	C	0.431715	-0.261315	0.244452
C121	C	0.431718	-0.005657	0.244447
C122	C	0.687379	-0.261314	0.500111
C123	C	0.397465	-0.291421	0.214347
C124	C	0.397469	0.058698	0.214340
C125	C	0.747592	-0.291419	0.564467
C126	C	1.177719	-0.462902	1.042876
C127	C	1.211513	-0.433200	1.072581
C128	C	1.206413	-0.520832	1.071978
C129	C	1.090550	-0.462899	0.955708
C130	C	1.031142	-0.433194	0.892212
C131	C	1.119376	-0.520830	0.984942
C132	C	1.177715	-0.550066	1.042874
C133	C	1.211504	-0.613561	1.072576
C134	C	1.119380	-0.433798	0.984944
C135	C	1.238804	-0.664858	1.096573
C136	C	1.238816	-0.409205	1.096579
C137	C	0.983147	-0.409196	0.840914
C138	C	1.273051	-0.729213	1.126678
C139	C	1.273068	-0.379101	1.126686
C140	C	0.922935	-0.379089	0.776558
C141	C	0.090537	0.194654	0.298152
C142	C	0.031130	0.190564	0.268449
C143	C	0.119363	0.195063	0.269047
C144	C	0.177704	0.194655	0.385318
C145	C	0.211497	0.190568	0.448813
C146	C	0.206398	0.195064	0.356081
C147	C	0.177700	0.194657	0.298149
C148	C	0.211489	0.190571	0.268444
C149	C	0.119366	0.195061	0.356083
C150	C	0.238789	0.187268	0.244446
C151	C	-0.016863	0.187259	0.244453
C152	C	0.238800	0.187264	0.500111
C153	C	0.273036	0.183126	0.214338
C154	C	-0.077074	0.183114	0.214349
C155	C	0.273051	0.183120	0.564467
O156	O	0.245936	0.249026	0.095479
O157	O	0.344510	0.080459	0.165476
O158	O	0.245947	0.179017	0.165482
O159	O	0.344499	0.150469	0.095473
O160	O	0.326009	0.179017	0.245542
O161	O	0.424572	0.080460	0.245535
O162	O	0.325997	0.249027	0.175539
Zn163	Zn	0.387996	0.164743	0.223248
Zn164	Zn	0.282512	0.164743	0.117766
O165	O	0.424561	0.150469	0.175532
C166	C	0.492804	0.134850	1.042869
C167	C	0.459020	0.138922	1.072576
C168	C	0.551129	0.134464	1.071967
C169	C	0.492801	0.134858	0.955702
C170	C	0.459014	0.138939	0.892208
C171	C	0.551126	0.134472	0.984932
C172	C	0.579948	0.134886	1.042861
C173	C	0.639340	0.138996	1.072559
C174	C	0.464114	0.134436	0.984940
C175	C	0.687321	0.142318	1.096551
C176	C	0.431725	0.142213	1.096576
C177	C	0.431717	0.142237	0.840911
C178	C	0.747516	0.146485	1.126651
C179	C	0.397484	0.146341	1.126684
C180	C	0.397472	0.146373	0.776558
H181	H	0.095264	-0.126198	0.221459
O182	O	0.090710	-0.377025	0.639459
C183	C	0.096095	-0.293148	0.638308
C184	C	0.128622	-0.357435	0.639141
H185	H	0.126724	-0.277285	0.638038
H186	H	0.095854	-0.290446	0.679142
H187	H	0.041589	-0.264104	0.597079
H188	H	0.183140	-0.386517	0.680343
H189	H	0.128809	-0.360090	0.598279
H190	H	0.417164	-0.126202	0.701467
O191	O	0.262483	-0.293464	0.384145
C192	C	0.379681	-0.361061	0.466724
C193	C	0.316245	-0.296766	0.435002
H194	H	0.423160	-0.363754	0.507854
H195	H	0.395391	-0.376948	0.435899
H196	H	0.367435	-0.390091	0.479921
H197	H	0.328440	-0.267691	0.421802
H198	H	0.300552	-0.280927	0.465846
H199	H	1.095258	-0.386200	0.961475
O200	O	0.090695	0.195768	0.212288
C201	C	0.105668	0.146118	0.144716
C202	C	0.138218	0.145252	0.209014
H203	H	0.144071	0.105275	0.142050
H204	H	0.089888	0.187344	0.115655
H205	H	0.058922	0.146360	0.128847
H206	H	0.184986	0.144989	0.224937
H207	H	0.153949	0.104031	0.238036
H208	H	0.095236	-0.544293	0.639529
O209	O	0.262383	0.195872	0.384156
C210	C	0.345149	0.196980	0.473425
C211	C	0.281740	0.196081	0.441698
H212	H	0.360827	0.197137	0.519957
H213	H	0.332961	0.238243	0.448022
H214	H	0.388633	0.156180	0.475795
H215	H	0.238227	0.236852	0.439320
H216	H	0.293983	0.154791	0.467113
H217	H	0.417179	-0.386199	0.961468
O218	O	0.580023	-0.548918	1.128760
C219	C	0.670481	-0.638146	1.212671
C220	C	0.637850	-0.606418	1.148361
H221	H	0.717248	-0.684637	1.228543
H222	H	0.632130	-0.640608	1.215415
H223	H	0.686246	-0.612661	1.241679
H224	H	0.622086	-0.631877	1.119314
H225	H	0.676222	-0.603950	1.145664
H226	H	0.095233	0.195724	0.379551
H227	H	0.575275	-0.284314	0.379559
O228	O	0.090546	-0.121576	0.384019
C229	C	0.000131	-0.032326	0.377494
C230	C	0.032733	-0.064068	0.345800
H231	H	-0.046624	0.014171	0.346604
H232	H	0.038505	-0.029880	0.418586
H233	H	-0.015646	-0.057791	0.390746
H234	H	0.048510	-0.038628	0.332509
H235	H	-0.005661	-0.066521	0.304735
H236	H	0.575272	-0.284311	0.701476
O237	O	0.408124	0.133635	0.956855
C238	C	0.325487	0.132354	0.867635
C239	C	0.388871	0.133291	0.899362
H240	H	0.309910	0.132063	0.821151
H241	H	0.281910	0.173161	0.865156
H242	H	0.337747	0.091100	0.893132
H243	H	0.376677	0.174518	0.873891
H244	H	0.432429	0.092456	0.901848
H245	H	0.575279	-0.126208	0.701487
H246	H	0.575285	-0.544303	0.961472
H247	H	0.575213	0.133875	0.961440
H248	H	0.253351	-0.544298	0.639541
O249	O	0.408095	-0.121593	0.212270
C250	C	0.325388	-0.032354	0.128369
C251	C	0.388814	-0.064089	0.192670
H252	H	0.309788	0.014139	0.112498
H253	H	0.281842	-0.029898	0.125641
H254	H	0.337611	-0.057830	0.099348
H255	H	0.376657	-0.038639	0.221729
H256	H	0.432341	-0.066552	0.195351
O257	O	0.579807	0.133713	1.128742
C258	C	0.574468	0.132514	1.212643
C259	C	0.541912	0.133379	1.148345
H260	H	0.543853	0.132231	1.228515
H261	H	0.574719	0.173343	1.215361
H262	H	0.628973	0.091281	1.241667
H263	H	0.487395	0.174585	1.119281
H264	H	0.541714	0.092523	1.145673
O265	O	1.262343	-0.548824	1.128796
C266	C	1.310589	-0.596916	1.228980
C267	C	1.247198	-0.565215	1.164662
H268	H	1.298370	-0.610189	1.257994
H269	H	1.326250	-0.566067	1.244893
H270	H	1.354096	-0.638000	1.231660
H271	H	1.203648	-0.524133	1.161933
H272	H	1.231595	-0.596104	1.148777
H273	H	1.095241	-0.544295	0.961469
O274	O	0.579868	-0.121609	0.383988
C275	C	0.574479	-0.032344	0.377478
C276	C	0.541894	-0.064070	0.345801
H277	H	0.543783	0.014186	0.346622
H278	H	0.628958	-0.057750	0.390692
H279	H	0.574797	-0.029971	0.418595
H280	H	0.541527	-0.066450	0.304664
H281	H	0.487433	-0.038652	0.332631
